# created with PyMOL 2.5.2
@<TRIPOS>MOLECULE
final
43 45 1                 
SMALL
USER_CHARGES
@<TRIPOS>ATOM
1	  P1	45.261	25.446	0.283	P.3	1	L011	0.000	
2	  P2	46.891	26.457	4.468	P.3	1	L011	0.000	
3	  P3	46.892	26.617	1.584	P.3	1	L011	0.000	
4	  C1	49.374	26.097	5.106	C.3	1	L011	0.000	
5	  N1	56.458	22.266	3.986	N.2	1	L011	0.000	
6	  O1	43.884	25.840	0.994	O.2	1	L011	0.000	
7	  C2	50.189	25.179	6.024	C.3	1	L011	0.000	
8	  N2	54.677	22.460	5.556	N.2	1	L011	0.000	
9	  O2	45.592	26.458	-0.762	O.3	1	L011	0.000	
10	  C3	51.533	25.804	6.380	C.3	1	L011	0.000	
11	  N3	56.404	22.984	1.799	N.pl3	1	L011	0.000	
12	  O3	45.180	24.017	-0.208	O.3	1	L011	0.000	
13	  C4	52.405	24.572	6.708	C.3	1	L011	0.000	
14	  N4	53.532	23.854	2.500	N.2	1	L011	0.000	
15	  O4	48.067	25.522	4.983	O.3	1	L011	0.000	
16	  C5	51.879	23.532	5.728	C.3	1	L011	0.000	
17	  N5	52.750	23.518	4.574	N.pl3	1	L011	0.000	
18	  O5	50.566	23.927	5.330	O.3	1	L011	0.000	
19	  C6	55.888	22.091	5.215	C.2	1	L011	0.000	
20	  O6	51.341	26.756	7.426	O.3	1	L011	0.000	
21	  C7	54.035	23.033	4.546	C.2	1	L011	0.000	
22	  O7	52.151	24.163	8.058	O.3	1	L011	0.000	
23	  C8	54.515	23.246	3.273	C.2	1	L011	0.000	
24	  O8	46.769	27.621	5.415	O.co2	1	L011	0.000	
25	  C9	55.845	22.857	2.920	C.2	1	L011	0.000	
26	  O9	46.311	25.212	1.585	O.3	1	L011	0.000	
27	 C10	52.489	23.979	3.322	C.2	1	L011	0.000	
28	 O10	45.647	25.609	4.417	O.co2	1	L011	0.000	
29	 O11	48.174	26.697	0.834	O.co2	1	L011	0.000	
30	 O12	47.314	26.997	3.048	O.3	1	L011	0.000	
31	 O13	45.894	27.760	1.084	O.co2	1	L011	0.000	
32	  H1	49.304	27.094	5.542	 H	1	L011	0.000	
33	  H2	49.847	26.161	4.126	 H	1	L011	0.000	
34	  H3	49.557	25.009	6.896	 H	1	L011	0.000	
35	  H4	52.025	26.392	5.605	 H	1	L011	0.000	
36	  H5	50.793	27.463	7.078	 H	1	L011	0.000	
37	  H6	53.478	24.741	6.623	 H	1	L011	0.000	
38	  H7	51.207	24.012	8.143	 H	1	L011	0.000	
39	  H8	51.850	22.541	6.180	 H	1	L011	0.000	
40	  H9	56.487	21.606	5.972	 H	1	L011	0.000	
41	 H10	57.355	22.669	1.670	 H	1	L011	0.000	
42	 H11	55.901	23.401	1.028	 H	1	L011	0.000	
43	 H13	52.221	25.034	3.387	 H	1	L011	0.000	
@<TRIPOS>BOND
1 1 9 1
2 1 12 1
3 1 26 1
4 2 15 1
5 2 24 1
6 2 28 2
7 2 30 1
8 3 26 1
9 3 29 1
10 3 30 1
11 3 31 2
12 4 7 1
13 4 15 1
14 4 32 1
15 4 33 1
16 7 10 1
17 7 18 1
18 7 34 1
19 10 13 1
20 10 20 1
21 10 35 1
22 11 25 1
23 11 41 1
24 11 42 1
25 13 16 1
26 13 22 1
27 13 37 1
28 16 17 1
29 16 18 1
30 16 39 1
31 19 40 1
32 20 36 1
33 22 38 1
34 27 43 1
35 17 21 1
36 14 27 2
37 21 23 2
38 5 25 2
39 8 19 2
40 14 23 1
41 17 27 1
42 23 25 1
43 5 19 1
44 8 21 1
45 1 6 2
@<TRIPOS>SUBSTRUCTURE
1	L011	1	GROUP	1 Y	L01
