@<TRIPOS>MOLECULE
temp.Z
30 30 1 0 0 
SMALL
USER_CHARGES


@<TRIPOS>ATOM
  1 N       40.4310    23.3110     1.6780 N.am  1 L021  -0.7301 
  2 C       38.5220    23.6980     0.1900 C.3   1 L021   0.2000 
  3 C       37.5440    24.7180    -0.3660 C.3   1 L021   0.2000 
  4 C       38.2530    26.0230    -0.6970 C.3   1 L021   0.2000 
  5 C       40.0140    25.5680     0.8400 C.3   1 L021   0.4800 
  6 C       39.3810    24.2700     1.3230 C.3   1 L021   0.2201 
  7 C       37.2300    27.0650    -1.0890 C.3   1 L021   0.1200 
  8 C       40.7250    22.9920     2.9870 C.2   1 L021   0.5690 
  9 C       41.8360    22.0050     3.1880 C.3   1 L021  -0.1790 
 10 O       37.7850    22.5820     0.6920 O.3   1 L021  -0.6800 
 11 O       36.5270    24.9700     0.6050 O.3   1 L021  -0.6800 
 12 O       40.8430    25.3060    -0.2540 O.3   1 L021  -0.6800 
 13 O       38.9850    26.4830     0.4510 O.3   1 L021  -0.5600 
 14 O       37.8250    28.2210    -1.6640 O.3   1 L021  -0.6800 
 15 O       40.0960    23.5030     3.8950 O.2   1 L021  -0.5700 
 16 H       39.1670    23.3740    -0.6000 H     1 L021   0.0800 
 17 H       37.7300    22.6390     1.6490 H     1 L021   0.4000 
 18 H       37.0980    24.3270    -1.2570 H     1 L021   0.0800 
 19 H       35.8010    24.3560     0.4760 H     1 L021   0.4000 
 20 H       38.9300    25.8640    -1.5090 H     1 L021   0.0800 
 21 H       40.5920    25.9990     1.6310 H     1 L021   0.0800 
 22 H       41.7540    25.2420     0.0420 H     1 L021   0.4000 
 23 H       40.9420    22.8820     0.9610 H     1 L021   0.3700 
 24 H       38.7680    24.4620     2.1780 H     1 L021   0.0800 
 25 H       36.6860    27.3580    -0.2150 H     1 L021   0.0800 
 26 H       36.5570    26.6350    -1.8000 H     1 L021   0.0800 
 27 H       38.0870    28.8270    -0.9670 H     1 L021   0.4000 
 28 H       41.8150    21.6430     4.1950 H     1 L021   0.0800 
 29 H       42.7750    22.4820     3.0010 H     1 L021   0.0800 
 30 H       41.7120    21.1850     2.5120 H     1 L021   0.0800 
@<TRIPOS>BOND
  1   1   6  1   
  2   1   8  am  
  3   1  23  1   
  4   2   3  1   
  5   2   6  1   
  6   2  10  1   
  7   2  16  1   
  8   3   4  1   
  9   3  11  1   
 10   3  18  1   
 11   4   7  1   
 12   4  13  1   
 13   4  20  1   
 14   5   6  1   
 15   5  12  1   
 16   5  13  1   
 17   5  21  1   
 18   6  24  1   
 19   7  14  1   
 20   7  25  1   
 21   7  26  1   
 22   8   9  1   
 23   8  15  2   
 24   9  28  1   
 25   9  29  1   
 26   9  30  1   
 27  10  17  1   
 28  11  19  1   
 29  12  22  1   
 30  14  27  1   
@<TRIPOS>SUBSTRUCTURE
  1 L021   6 GROUP 4 Z **** 0

# MOE 2022.02 (io_trps.svl 2020.11)
