# created with PyMOL 2.4.0
@<TRIPOS>MOLECULE
production
30 30 1                 
SMALL
USER_CHARGES
@<TRIPOS>ATOM
1	  C1	38.522	23.698	0.190	C.3	1	L021	0.000	
2	  N1	40.431	23.311	1.678	N.pl3	1	L021	0.000	
3	  O1	37.785	22.582	0.692	O.3	1	L021	0.000	
4	  C2	37.544	24.718	-0.366	C.3	1	L021	0.000	
5	  O2	36.527	24.970	0.605	O.3	1	L021	0.000	
6	  C3	38.253	26.023	-0.697	C.3	1	L021	0.000	
7	  O3	40.843	25.306	-0.254	O.3	1	L021	0.000	
8	  C4	40.014	25.568	0.840	C.3	1	L021	0.000	
9	  O4	38.985	26.483	0.451	O.3	1	L021	0.000	
10	  C5	39.381	24.270	1.323	C.3	1	L021	0.000	
11	  O5	37.825	28.221	-1.664	O.3	1	L021	0.000	
12	  C6	37.230	27.065	-1.089	C.3	1	L021	0.000	
13	  O6	40.096	23.503	3.895	O.2	1	L021	0.000	
14	  C7	40.725	22.992	2.987	C.2	1	L021	0.000	
15	  C8	41.836	22.005	3.188	C.3	1	L021	0.000	
16	  H1	40.957	22.869	0.938	 H	1	L021	0.000	
17	  H2	39.191	23.404	-0.619	 H	1	L021	0.000	
18	  H3	37.105	24.318	-1.280	 H	1	L021	0.000	
19	  H4	38.944	25.858	-1.523	 H	1	L021	0.000	
20	  H5	40.605	26.005	1.645	 H	1	L021	0.000	
21	  H6	38.764	24.459	2.202	 H	1	L021	0.000	
22	  H7	36.675	27.363	-0.199	 H	1	L021	0.000	
23	  H8	36.545	26.627	-1.815	 H	1	L021	0.000	
24	  H9	42.232	21.702	2.219	 H	1	L021	0.000	
25	 H10	41.454	21.130	3.714	 H	1	L021	0.000	
26	 H11	42.629	22.466	3.777	 H	1	L021	0.000	
27	 H12	38.419	21.939	1.020	 H	1	L021	0.000	
28	 H13	36.089	24.136	0.789	 H	1	L021	0.000	
29	 H14	41.226	26.140	-0.534	 H	1	L021	0.000	
30	 H15	38.419	28.597	-1.010	 H	1	L021	0.000	
@<TRIPOS>BOND
1 1 3 1
2 1 4 1
3 1 10 1
4 1 17 1
5 2 10 1
6 2 14 1
7 2 16 1
8 3 27 1
9 4 5 1
10 4 6 1
11 4 18 1
12 5 28 1
13 6 9 1
14 6 12 1
15 6 19 1
16 7 29 1
17 7 8 1
18 8 9 1
19 8 10 1
20 8 20 1
21 10 21 1
22 11 30 1
23 11 12 1
24 12 22 1
25 12 23 1
26 13 14 2
27 14 15 1
28 15 24 1
29 15 25 1
30 15 26 1
@<TRIPOS>SUBSTRUCTURE
1	L021	1	GROUP	1 Z	L02
