# created with PyMOL 2.5.2
@<TRIPOS>MOLECULE
L01_0001
44 46 1                 
SMALL
USER_CHARGES
@<TRIPOS>ATOM
1	  P1	144.985	31.924	51.944	P.3	1	L011	0.000	
2	  P2	144.661	34.677	51.307	P.3	1	L011	0.000	
3	  C1	140.998	35.009	52.596	C.3	1	L011	0.000	
4	  N1	143.423	27.128	51.876	N.pl3	1	L011	0.000	
5	  O1	140.021	34.892	51.580	O.3	1	L011	0.000	
6	  C2	140.209	35.208	53.890	C.3	1	L011	0.000	
7	  N2	144.406	24.980	51.460	N.pl3	1	L011	0.000	
8	  O2	140.472	34.301	54.669	O.3	1	L011	0.000	
9	  C3	138.844	35.324	53.471	C.3	1	L011	0.000	
10	  O3	138.350	36.415	54.105	O.3	1	L011	0.000	
11	  C4	136.848	36.487	51.454	C.3	1	L011	0.000	
12	  O4	135.530	36.433	51.011	O.3	1	L011	0.000	
13	  C5	137.358	35.050	51.786	C.3	1	L011	0.000	
14	  O5	137.379	34.513	50.493	O.3	1	L011	0.000	
15	  C6	138.806	35.118	52.121	C.3	1	L011	0.000	
16	  O6	143.803	30.979	51.358	O.3	1	L011	0.000	
17	  C7	142.435	31.296	51.539	C.3	1	L011	0.000	
18	  O7	141.914	28.950	51.614	O.3	1	L011	0.000	
19	  C8	141.698	30.178	52.279	C.3	1	L011	0.000	
20	  O8	141.058	30.116	54.606	O.3	1	L011	0.000	
21	  C9	142.159	30.003	53.726	C.3	1	L011	0.000	
22	  O9	142.363	27.894	54.921	O.3	1	L011	0.000	
23	 C10	142.800	28.624	53.795	C.3	1	L011	0.000	
24	 O10	144.666	32.401	53.314	O.co2	1	L011	0.000	
25	 C11	142.357	27.942	52.508	C.3	1	L011	0.000	
26	 O11	143.329	34.692	51.965	O.3	1	L011	0.000	
27	 C12	143.429	25.753	52.058	C.2	1	L011	0.000	
28	 O12	142.572	25.211	52.751	O.2	1	L011	0.000	
29	 C13	145.376	25.568	50.672	C.2	1	L011	0.000	
30	 O13	146.281	31.208	51.963	O.co2	1	L011	0.000	
31	 C14	145.370	26.945	50.482	C.2	1	L011	0.000	
32	 O14	144.641	35.510	50.082	O.co2	1	L011	0.000	
33	 C15	144.474	27.721	51.217	C.2	1	L011	0.000	
34	 O15	145.029	33.158	50.898	O.3	1	L011	0.000	
35	 O16	145.680	35.219	52.240	O.co2	1	L011	0.000	
36	 O17	146.238	24.872	50.152	O.2	1	L011	0.000	
37	  H1	135.180	35.550	51.152	 H	1	L011	0.000	
38	  H2	136.525	34.648	50.076	 H	1	L011	0.000	
39	  H3	138.711	35.929	51.397	 H	1	L011	0.000	
40	  H4	141.610	35.801	52.162	 H	1	L011	0.000	
41	  H5	140.462	36.102	54.459	 H	1	L011	0.000	
42	  H6	140.103	34.505	55.533	 H	1	L011	0.000	
43	  H7	138.110	34.573	53.771	 H	1	L011	0.000	
44	  H8	136.790	34.549	52.568	 H	1	L011	0.000	
@<TRIPOS>BOND
1 1 16 1
2 1 24 1
3 1 30 2
4 1 34 1
5 2 26 1
6 2 32 1
7 2 34 1
8 2 35 2
9 3 5 1
10 3 6 1
11 3 40 1
12 6 8 1
13 6 9 1
14 6 41 1
15 8 42 1
16 9 10 1
17 9 15 1
18 9 43 1
19 11 12 1
20 11 13 1
21 12 37 1
22 13 14 1
23 13 15 1
24 13 44 1
25 14 38 1
26 5 15 1
27 15 39 1
28 16 17 1
29 17 19 1
30 18 25 1
31 18 19 1
32 19 21 1
33 20 21 1
34 21 23 1
35 22 23 1
36 23 25 1
37 4 25 1
38 27 28 2
39 29 36 2
40 3 26 1
41 4 27 1
42 7 27 1
43 7 29 1
44 29 31 1
45 31 33 2
46 4 33 1
@<TRIPOS>SUBSTRUCTURE
1	L011	1	GROUP	1 X	L01
