# created with PyMOL 2.5.2
@<TRIPOS>MOLECULE
L01
44 46 1                 
SMALL
USER_CHARGES
@<TRIPOS>ATOM
1	   C	140.998	35.009	52.596	C.3	1	L011	0.000	
2	   C	140.209	35.208	53.890	C.3	1	L011	0.000	
3	   C	138.844	35.324	53.471	C.3	1	L011	0.000	
4	   C	136.848	36.487	51.454	C.3	1	L011	0.000	
5	   C	137.358	35.050	51.786	C.3	1	L011	0.000	
6	   C	138.806	35.118	52.121	C.3	1	L011	0.000	
7	   O	140.021	34.892	51.580	O.3	1	L011	0.000	
8	   O	140.472	34.301	54.669	O.3	1	L011	0.000	
9	   O	138.350	36.415	54.105	 O	1	L011	0.000	
10	   O	135.530	36.433	51.011	O.3	1	L011	0.000	
11	   O	137.379	34.513	50.493	O.3	1	L011	0.000	
12	  PA	144.985	31.924	51.944	P.3	1	L011	0.000	
13	  PB	144.661	34.677	51.307	P.3	1	L011	0.000	
14	 C5'	142.435	31.296	51.539	C.3	1	L011	0.000	
15	 O5'	143.803	30.979	51.358	O.3	1	L011	0.000	
16	 C4'	141.698	30.178	52.279	C.3	1	L011	0.000	
17	 O4'	141.914	28.950	51.614	O.3	1	L011	0.000	
18	 C3'	142.159	30.003	53.726	C.3	1	L011	0.000	
19	 O3'	141.058	30.116	54.606	 O	1	L011	0.000	
20	 C2'	142.800	28.624	53.795	C.3	1	L011	0.000	
21	 O2'	142.363	27.894	54.921	 O	1	L011	0.000	
22	 C1'	142.357	27.942	52.508	C.3	1	L011	0.000	
23	  N1	143.423	27.128	51.876	N.4	1	L011	0.000	
24	 O1A	144.666	32.401	53.314	O.co2	1	L011	0.000	
25	 O1B	143.329	34.692	51.965	O.3	1	L011	0.000	
26	  C2	143.429	25.753	52.058	C.2	1	L011	0.000	
27	  O2	142.572	25.211	52.751	O.2	1	L011	0.000	
28	 O2A	146.281	31.208	51.963	O.co2	1	L011	0.000	
29	 O2B	144.641	35.510	50.082	O.co2	1	L011	0.000	
30	  N3	144.406	24.980	51.460	N.pl3	1	L011	0.000	
31	 O3A	145.029	33.158	50.898	O.3	1	L011	0.000	
32	 O3B	145.680	35.219	52.240	O.co2	1	L011	0.000	
33	  C4	145.376	25.568	50.672	C.2	1	L011	0.000	
34	  O4	146.238	24.872	50.152	O.2	1	L011	0.000	
35	  C5	145.370	26.945	50.482	C.2	1	L011	0.000	
36	  C6	144.474	27.721	51.217	C.2	1	L011	0.000	
37	 H01	135.180	35.550	51.152	 H	1	L011	0.000	
38	 H02	136.525	34.648	50.076	 H	1	L011	0.000	
39	 H03	138.711	35.929	51.397	 H	1	L011	0.000	
40	 H04	141.610	35.801	52.162	 H	1	L011	0.000	
41	 H05	140.462	36.102	54.459	 H	1	L011	0.000	
42	 H06	140.103	34.505	55.533	 H	1	L011	0.000	
43	 H07	138.110	34.573	53.771	 H	1	L011	0.000	
44	 H10	136.790	34.549	52.568	 H	1	L011	0.000	
@<TRIPOS>BOND
1 1 2 1
2 1 7 1
3 1 25 1
4 1 40 1
5 2 3 1
6 2 8 1
7 2 41 1
8 3 6 1
9 3 9 1
10 3 43 1
11 4 5 1
12 4 10 1
13 5 6 1
14 5 11 1
15 5 44 1
16 6 7 1
17 6 39 1
18 8 42 1
19 10 37 1
20 11 38 1
21 12 15 1
22 12 24 1
23 12 28 2
24 12 31 1
25 13 25 1
26 13 29 1
27 13 31 1
28 13 32 2
29 14 15 1
30 14 16 1
31 16 17 1
32 16 18 1
33 17 22 1
34 18 19 1
35 18 20 1
36 20 21 1
37 20 22 1
38 22 23 1
39 26 27 2
40 33 34 2
41 23 26 1
42 26 30 1
43 30 33 1
44 33 35 1
45 23 36 1
46 35 36 2
@<TRIPOS>SUBSTRUCTURE
1	L011	1	GROUP	1 Y	L01
