@<TRIPOS>MOLECULE
L02_0001.****
230 234 1 0 0 
SMALL
USER_CHARGES


@<TRIPOS>ATOM
  1 P      139.5540    48.6760    33.8150 P.3   1 UNK0   1.2299 
  2 P      142.3120    48.9420    34.5930 P.3   1 UNK0   1.4404 
  3 C      142.8890    42.9100    42.5150 C.3   1 UNK0   0.4864 
  4 H      143.6403    42.6208    43.2499 H     1 UNK0   0.0899 
  5 N      144.8760    47.3160    36.8060 N.am  1 UNK0  -0.7259 
  6 H      144.6868    46.3933    36.4415 H     1 UNK0   0.3773 
  7 O      141.6130    42.4730    42.8860 O.3   1 UNK0  -0.5543 
  8 C      142.7880    44.4390    42.3810 C.3   1 UNK0   0.2088 
  9 H      142.5142    44.7710    41.3796 H     1 UNK0   0.0899 
 10 O      144.0430    45.0630    42.6520 O.3   1 UNK0  -0.6754 
 11 H      144.6656    44.7645    41.9850 H     1 UNK0   0.4071 
 12 C      141.7570    44.7950    43.4380 C.3   1 UNK0   0.2088 
 13 H      142.1957    45.0309    44.4075 H     1 UNK0   0.0899 
 14 O      141.0180    45.9600    43.0620 O.3   1 UNK0  -0.6754 
 15 H      140.3514    46.1110    43.7361 H     1 UNK0   0.4071 
 16 C      141.3530    42.1380    44.2650 C.3   1 UNK0   0.1295 
 17 H1     140.9227    41.8320    43.3114 H     1 UNK0   0.0899 
 18 H2     142.3493    42.5478    44.0992 H     1 UNK0   0.0899 
 19 O      141.4430    41.0110    45.1260 O.3   1 UNK0  -0.6754 
 20 H      142.0050    40.3619    44.6967 H     1 UNK0   0.4071 
 21 C      140.4680    43.2010    44.9020 C.3   1 UNK0   0.2088 
 22 H      140.5399    43.7526    45.8393 H     1 UNK0   0.0899 
 23 O      139.1340    42.7080    44.8550 O.3   1 UNK0  -0.5543 
 24 C      140.8480    43.5430    43.4670 C.3   1 UNK0   0.2088 
 25 H      139.9234    43.7126    42.9152 H     1 UNK0   0.0899 
 26 O      139.2090    41.6200    46.9350 O.3   1 UNK0  -0.5543 
 27 C      139.7640    41.7020    45.5880 C.3   1 UNK0   0.4864 
 28 H      140.8266    41.9447    45.5899 H     1 UNK0   0.0899 
 29 O      139.3480    40.4350    43.5650 O.3   1 UNK0  -0.6754 
 30 H      140.2005    40.6956    43.2089 H     1 UNK0   0.4071 
 31 C      139.4820    40.3450    44.9840 C.3   1 UNK0   0.2088 
 32 H      140.2835    39.6276    45.1603 H     1 UNK0   0.0899 
 33 O      137.0440    40.3870    44.8690 O.3   1 UNK0  -0.6754 
 34 H      137.0555    39.9167    44.0322 H     1 UNK0   0.4071 
 35 C      138.1560    39.9310    45.6350 C.3   1 UNK0   0.2088 
 36 H      138.0306    38.8510    45.7115 H     1 UNK0   0.0899 
 37 O      137.3480    37.9450    47.9310 O.3   1 UNK0  -0.6754 
 38 H      137.4765    37.1940    48.5150 H     1 UNK0   0.4071 
 39 C      137.2510    39.1070    48.7410 C.3   1 UNK0   0.1295 
 40 H1     138.1709    39.2096    49.3167 H     1 UNK0   0.0899 
 41 H2     136.4077    38.9894    49.4215 H     1 UNK0   0.0899 
 42 O      135.8650    40.2180    47.1260 O.3   1 UNK0  -0.6754 
 43 H      135.1320    40.0520    47.7233 H     1 UNK0   0.4071 
 44 C      137.0440    40.3740    47.9210 C.3   1 UNK0   0.2088 
 45 H      136.9506    41.2148    48.6084 H     1 UNK0   0.0899 
 46 O      143.2700    42.3290    41.2730 O.3   1 UNK0  -0.5543 
 47 C      138.2140    40.6370    46.9990 C.3   1 UNK0   0.2088 
 48 H      138.5310    40.4200    48.0191 H     1 UNK0   0.0899 
 49 O      140.2380    47.9350    32.5720 O.3   1 UNK0  -0.4746 
 50 C      140.4410    49.2480    32.0280 C.3   1 UNK0  -0.0873 
 51 H      140.3425    50.2450    31.5987 H     1 UNK0   0.1097 
 52 O      140.7360    48.6850    34.9200 O.3   1 UNK0  -0.5989 
 53 C      141.4710    49.2470    30.9370 C.2   1 UNK0  -0.1811 
 54 H      142.3753    48.6884    31.1283 H     1 UNK0   0.1593 
 55 O      138.4330    47.8350    34.3360 O.2   1 UNK0  -1.0445 
 56 C      141.3900    49.8600    29.7600 C.2   1 UNK0  -0.2682 
 57 O      139.3200    50.0800    33.4190 O.3   1 UNK0  -0.8297 
 58 H      140.1570    50.4394    33.1158 H     1 UNK0   0.5062 
 59 C      142.5670    50.0850    28.8560 C.3   1 UNK0  -0.0921 
 60 H1     142.2397    50.6062    27.9564 H     1 UNK0   0.0899 
 61 H2     143.0029    49.1245    28.5812 H     1 UNK0   0.0899 
 62 H3     143.3130    50.6877    29.3740 H     1 UNK0   0.0899 
 63 O      142.8190    49.1700    36.0660 O.3   1 UNK0  -0.5454 
 64 C      140.0860    50.3840    29.2350 C.3   1 UNK0  -0.0114 
 65 H1     139.2868    49.7217    29.5678 H     1 UNK0   0.0899 
 66 H2     140.1263    50.3859    28.1457 H     1 UNK0   0.0899 
 67 O      142.4440    50.1890    33.7840 O.co2 1 UNK0  -0.9477 
 68 C      139.7750    51.7940    29.7100 C.3   1 UNK0  -0.0114 
 69 H1     140.6192    52.4253    29.4327 H     1 UNK0   0.0899 
 70 H2     139.6877    51.7605    30.7960 H     1 UNK0   0.0899 
 71 O      142.9100    47.6710    34.1140 O.co2 1 UNK0  -0.9477 
 72 C      138.5290    52.4490    29.1780 C.2   1 UNK0  -0.2801 
 73 H      138.4660    52.5648    28.1061 H     1 UNK0   0.1593 
 74 O      144.3960    44.3640    39.9650 O.3   1 UNK0  -0.5543 
 75 C      137.4940    52.9020    29.8870 C.2   1 UNK0  -0.2682 
 76 O      143.3510    45.6490    38.3810 O.3   1 UNK0  -0.5543 
 77 C      136.1850    53.2310    29.2280 C.3   1 UNK0  -0.0921 
 78 H1     135.4780    53.5823    29.9796 H     1 UNK0   0.0899 
 79 H2     135.7874    52.3388    28.7441 H     1 UNK0   0.0899 
 80 H3     136.3396    54.0106    28.4820 H     1 UNK0   0.0899 
 81 O      144.5780    42.2630    38.0220 O.3   1 UNK0  -0.6754 
 82 H      144.7529    42.0965    38.9511 H     1 UNK0   0.4071 
 83 C      137.5960    53.1030    31.3700 C.3   1 UNK0  -0.0114 
 84 H1     138.4995    52.6010    31.7161 H     1 UNK0   0.0899 
 85 H2     136.7238    52.6412    31.8328 H     1 UNK0   0.0899 
 86 O      141.3470    43.8840    38.3700 O.3   1 UNK0  -0.6754 
 87 H      140.5437    43.6006    38.8127 H     1 UNK0   0.4071 
 88 C      137.6590    54.5520    31.8290 C.3   1 UNK0  -0.0114 
 89 H1     136.8887    55.1079    31.2945 H     1 UNK0   0.0899 
 90 H2     138.6404    54.9460    31.5651 H     1 UNK0   0.0899 
 91 O      141.6500    48.6650    37.9910 O.3   1 UNK0  -0.5543 
 92 C      137.4530    54.7700    33.2930 C.2   1 UNK0  -0.2801 
 93 H      136.5251    54.4242    33.7241 H     1 UNK0   0.1593 
 94 O      143.0360    48.5870    40.5050 O.3   1 UNK0  -0.6754 
 95 H      143.2186    49.2515    39.8367 H     1 UNK0   0.4071 
 96 C      138.3300    55.3600    34.1070 C.2   1 UNK0  -0.2682 
 97 O      139.5430    46.7390    37.8580 O.3   1 UNK0  -0.6754 
 98 H      139.6565    47.4290    37.2002 H     1 UNK0   0.4071 
 99 C      139.7300    55.6500    33.6360 C.3   1 UNK0  -0.0114 
100 H1     139.8827    55.1560    32.6764 H     1 UNK0   0.0899 
101 H2     140.4321    55.2489    34.3669 H     1 UNK0   0.0899 
102 O      146.2440    49.0950    36.7960 O.2   1 UNK0  -0.5644 
103 C      137.9860    55.6570    35.5150 C.3   1 UNK0  -0.0921 
104 H1     138.8347    56.1363    36.0030 H     1 UNK0   0.0899 
105 H2     137.7451    54.7291    36.0337 H     1 UNK0   0.0899 
106 H3     137.1248    56.3245    35.5456 H     1 UNK0   0.0899 
107 C      140.0050    57.1350    33.4650 C.3   1 UNK0  -0.0114 
108 H1     141.0546    57.2541    33.1960 H     1 UNK0   0.0899 
109 H2     139.8172    57.6242    34.4208 H     1 UNK0   0.0899 
110 C      139.1750    57.8280    32.4170 C.2   1 UNK0  -0.2801 
111 H      139.1504    57.3923    31.4291 H     1 UNK0   0.1593 
112 C      138.4710    58.9360    32.6190 C.2   1 UNK0  -0.2682 
113 C      138.2590    59.4870    34.0000 C.3   1 UNK0  -0.0114 
114 H1     138.8020    60.4271    34.0971 H     1 UNK0   0.0899 
115 H2     138.6359    58.7725    34.7318 H     1 UNK0   0.0899 
116 C      137.8320    59.7320    31.5190 C.3   1 UNK0  -0.0921 
117 H1     137.3148    60.5914    31.9457 H     1 UNK0   0.0899 
118 H2     137.1169    59.1057    30.9855 H     1 UNK0   0.0899 
119 H3     138.6001    60.0770    30.8268 H     1 UNK0   0.0899 
120 C      136.7820    59.7350    34.2600 C.3   1 UNK0  -0.0114 
121 H1     136.2679    58.7774    34.3426 H     1 UNK0   0.0899 
122 H2     136.3630    60.3018    33.4286 H     1 UNK0   0.0899 
123 C      136.5870    60.5110    35.5340 C.2   1 UNK0  -0.2801 
124 H      136.9451    60.0658    36.4505 H     1 UNK0   0.1593 
125 C      136.0070    61.7030    35.6150 C.2   1 UNK0  -0.2682 
126 C      135.7520    62.5880    34.4300 C.3   1 UNK0  -0.0114 
127 H1     134.6784    62.7580    34.3484 H     1 UNK0   0.0899 
128 H2     136.1085    62.0797    33.5341 H     1 UNK0   0.0899 
129 C      135.5530    62.2680    36.9310 C.3   1 UNK0  -0.0921 
130 H1     135.1072    63.2496    36.7705 H     1 UNK0   0.0899 
131 H2     136.4081    62.3623    37.6003 H     1 UNK0   0.0899 
132 H3     134.8143    61.6020    37.3769 H     1 UNK0   0.0899 
133 C      136.4490    63.9350    34.5320 C.3   1 UNK0  -0.0114 
134 H1     137.5190    63.7533    34.6327 H     1 UNK0   0.0899 
135 H2     136.0801    64.4378    35.4260 H     1 UNK0   0.0899 
136 C      136.2440    64.8530    33.3680 C.2   1 UNK0  -0.2801 
137 H      135.2456    65.2418    33.2319 H     1 UNK0   0.1593 
138 C      137.1610    65.2440    32.4790 C.2   1 UNK0  -0.2682 
139 C      138.6300    65.0490    32.7370 C.3   1 UNK0  -0.0114 
140 H1     138.7674    64.9079    33.8091 H     1 UNK0   0.0899 
141 H2     139.1501    65.9529    32.4199 H     1 UNK0   0.0899 
142 C      136.7340    65.8050    31.1370 C.3   1 UNK0  -0.0921 
143 H1     137.6176    66.0658    30.5545 H     1 UNK0   0.0899 
144 H2     136.1255    66.6958    31.2926 H     1 UNK0   0.0899 
145 H3     136.1519    65.0568    30.5990 H     1 UNK0   0.0899 
146 C      139.2660    63.8670    32.0230 C.3   1 UNK0  -0.0114 
147 H1     139.2481    64.0715    30.9525 H     1 UNK0   0.0899 
148 H2     138.6642    62.9831    32.2342 H     1 UNK0   0.0899 
149 C      140.6790    63.5670    32.4120 C.2   1 UNK0  -0.2801 
150 H      140.8305    63.1659    33.4033 H     1 UNK0   0.1593 
151 C      141.7660    63.7400    31.6720 C.2   1 UNK0  -0.2682 
152 C      141.6750    64.1940    30.2430 C.3   1 UNK0  -0.0114 
153 H1     142.3607    65.0292    30.1003 H     1 UNK0   0.0899 
154 H2     140.6546    64.5244    30.0485 H     1 UNK0   0.0899 
155 C      143.1650    63.5030    32.1670 C.3   1 UNK0  -0.0921 
156 H1     143.8743    63.7165    31.3674 H     1 UNK0   0.0899 
157 H2     143.2694    62.4633    32.4773 H     1 UNK0   0.0899 
158 H3     143.3660    64.1573    33.0153 H     1 UNK0   0.0899 
159 C      142.0280    63.1030    29.2460 C.3   1 UNK0  -0.0114 
160 H1     142.8250    63.4786    28.6042 H     1 UNK0   0.0899 
161 H2     141.1428    62.8981    28.6439 H     1 UNK0   0.0899 
162 C      142.4880    61.8110    29.8460 C.2   1 UNK0  -0.2801 
163 H      142.0598    61.5200    30.7938 H     1 UNK0   0.1593 
164 C      143.3720    61.0060    29.3070 C.2   1 UNK0  -0.2682 
165 C      144.2860    61.3990    28.1820 C.3   1 UNK0  -0.0114 
166 H1     145.3172    61.2845    28.5162 H     1 UNK0   0.0899 
167 H2     144.0992    62.4432    27.9315 H     1 UNK0   0.0899 
168 C      143.5940    59.6280    29.8570 C.3   1 UNK0  -0.0921 
169 H1     144.3638    59.1234    29.2731 H     1 UNK0   0.0899 
170 H2     142.6651    59.0605    29.8011 H     1 UNK0   0.0899 
171 H3     143.9144    59.6989    30.8964 H     1 UNK0   0.0899 
172 C      144.0860    60.5580    26.9320 C.3   1 UNK0  -0.0114 
173 H1     143.0613    60.6903    26.5847 H     1 UNK0   0.0899 
174 H2     144.2507    59.5113    27.1876 H     1 UNK0   0.0899 
175 C      145.0230    60.9320    25.8150 C.2   1 UNK0  -0.2801 
176 H      145.8007    61.6413    26.0569 H     1 UNK0   0.1593 
177 C      144.9980    60.4830    24.5580 C.2   1 UNK0  -0.2682 
178 C      145.7720    61.1720    23.4690 C.3   1 UNK0  -0.0114 
179 H1     145.9565    62.1986    23.7854 H     1 UNK0   0.0899 
180 H2     145.1570    61.1742    22.5691 H     1 UNK0   0.0899 
181 C      144.1950    59.2720    24.1830 C.3   1 UNK0  -0.0921 
182 H1     144.3100    59.0756    23.1170 H     1 UNK0   0.0899 
183 H2     143.1434    59.4492    24.4084 H     1 UNK0   0.0899 
184 H3     144.5483    58.4115    24.7512 H     1 UNK0   0.0899 
185 C      147.1100    60.5410    23.1210 C.3   1 UNK0  -0.0114 
186 H1     146.9302    59.5403    22.7280 H     1 UNK0   0.0899 
187 H2     147.7083    60.4724    24.0295 H     1 UNK0   0.0899 
188 C      147.8830    61.3270    22.0960 C.2   1 UNK0  -0.2801 
189 H      147.4263    61.4710    21.1280 H     1 UNK0   0.1593 
190 C      149.0700    61.8500    22.2910 C.2   1 UNK0  -0.2682 
191 C      149.7090    62.7120    21.2420 C.3   1 UNK0  -0.0921 
192 H1     150.6854    63.0468    21.5922 H     1 UNK0   0.0899 
193 H2     149.0760    63.5779    21.0482 H     1 UNK0   0.0899 
194 H3     149.8297    62.1374    20.3236 H     1 UNK0   0.0899 
195 C      149.9220    61.5690    23.5050 C.3   1 UNK0  -0.0921 
196 H1     150.8579    62.1224    23.4280 H     1 UNK0   0.0899 
197 H2     150.1347    60.5014    23.5604 H     1 UNK0   0.0899 
198 H3     149.3886    61.8803    24.4032 H     1 UNK0   0.0899 
199 C      144.2220    44.5550    38.5880 C.3   1 UNK0   0.4864 
200 H      145.1958    44.7497    38.1386 H     1 UNK0   0.0899 
201 C      143.6350    43.3340    37.9450 C.3   1 UNK0   0.2088 
202 H      143.4058    43.5583    36.9032 H     1 UNK0   0.0899 
203 C      142.3550    42.9250    38.6540 C.3   1 UNK0   0.2088 
204 H      142.0675    41.9369    38.2946 H     1 UNK0   0.0899 
205 C      143.1630    44.1370    40.6540 C.3   1 UNK0   0.2088 
206 H      142.4810    44.9674    40.4715 H     1 UNK0   0.0899 
207 C      142.5460    42.8430    40.1500 C.3   1 UNK0   0.2088 
208 H      141.6591    42.2254    40.0081 H     1 UNK0   0.0899 
209 C      143.4280    44.0240    42.1480 C.3   1 UNK0  -0.2315 
210 H1     143.8706    44.9521    42.5097 H     1 UNK0   0.0899 
211 H2     144.1141    43.1977    42.3338 H     1 UNK0   0.0899 
212 H3     142.4891    43.8413    42.6707 H     1 UNK0   0.0899 
213 C      142.6140    48.1900    37.0610 C.3   1 UNK0   0.4864 
214 H      142.2460    47.2674    36.6120 H     1 UNK0   0.0899 
215 C      143.9390    47.9020    37.7620 C.3   1 UNK0   0.2287 
216 H      144.3494    48.8326    38.1541 H     1 UNK0   0.0899 
217 C      143.7120    46.9260    38.9150 C.3   1 UNK0   0.2088 
218 H      144.6337    46.8555    39.4926 H     1 UNK0   0.0899 
219 C      141.3450    47.7180    39.0270 C.3   1 UNK0   0.2088 
220 H      140.5896    48.1403    39.6896 H     1 UNK0   0.0899 
221 C      142.6070    47.4070    39.8330 C.3   1 UNK0   0.2088 
222 H      142.3819    46.6242    40.5573 H     1 UNK0   0.0899 
223 C      140.8260    46.4520    38.4070 C.3   1 UNK0   0.1295 
224 H1     141.5019    46.1190    37.6193 H     1 UNK0   0.0899 
225 H2     140.7407    45.6739    39.1655 H     1 UNK0   0.0899 
226 C      145.9850    47.9640    36.3930 C.2   1 UNK0   0.5746 
227 C      146.9020    47.2550    35.4160 C.3   1 UNK0  -0.1700 
228 H1     146.4960    46.2699    35.1861 H     1 UNK0   0.0899 
229 H2     147.8914    47.1456    35.8602 H     1 UNK0   0.0899 
230 H3     146.9780    47.8397    34.4992 H     1 UNK0   0.0899 
@<TRIPOS>BOND
  1   1  49  1   
  2   1  50  1   
  3   1  52  1   
  4   1  55  2   
  5   1  57  1   
  6   2  52  1   
  7   2  63  1   
  8   2  67  ar  
  9   2  71  ar  
 10   3   4  1   
 11   3   7  1   
 12   3   8  1   
 13   3  46  1   
 14   5   6  1   
 15   5 215  1   
 16   5 226  am  
 17   7  24  1   
 18   8   9  1   
 19   8  10  1   
 20   8  12  1   
 21  10  11  1   
 22  12  13  1   
 23  12  14  1   
 24  12  24  1   
 25  14  15  1   
 26  16  17  1   
 27  16  18  1   
 28  16  19  1   
 29  16  21  1   
 30  19  20  1   
 31  21  22  1   
 32  21  23  1   
 33  21  24  1   
 34  23  27  1   
 35  24  25  1   
 36  26  27  1   
 37  26  47  1   
 38  27  28  1   
 39  27  31  1   
 40  29  30  1   
 41  29  31  1   
 42  31  32  1   
 43  31  35  1   
 44  33  34  1   
 45  33  35  1   
 46  35  36  1   
 47  35  47  1   
 48  37  38  1   
 49  37  39  1   
 50  39  40  1   
 51  39  41  1   
 52  39  44  1   
 53  42  43  1   
 54  42  44  1   
 55  44  45  1   
 56  44  47  1   
 57  46 207  1   
 58  47  48  1   
 59  49  50  1   
 60  50  51  1   
 61  50  53  1   
 62  53  54  1   
 63  53  56  2   
 64  56  59  1   
 65  56  64  1   
 66  57  58  1   
 67  59  60  1   
 68  59  61  1   
 69  59  62  1   
 70  63 213  1   
 71  64  65  1   
 72  64  66  1   
 73  64  68  1   
 74  68  69  1   
 75  68  70  1   
 76  68  72  1   
 77  72  73  1   
 78  72  75  2   
 79  74 199  1   
 80  74 205  1   
 81  75  77  1   
 82  75  83  1   
 83  76 199  1   
 84  76 217  1   
 85  77  78  1   
 86  77  79  1   
 87  77  80  1   
 88  81  82  1   
 89  81 201  1   
 90  83  84  1   
 91  83  85  1   
 92  83  88  1   
 93  86  87  1   
 94  86 203  1   
 95  88  89  1   
 96  88  90  1   
 97  88  92  1   
 98  91 213  1   
 99  91 219  1   
100  92  93  1   
101  92  96  2   
102  94  95  1   
103  94 221  1   
104  96  99  1   
105  96 103  1   
106  97  98  1   
107  97 223  1   
108  99 100  1   
109  99 101  1   
110  99 107  1   
111 102 226  2   
112 103 104  1   
113 103 105  1   
114 103 106  1   
115 107 108  1   
116 107 109  1   
117 107 110  1   
118 110 111  1   
119 110 112  2   
120 112 113  1   
121 112 116  1   
122 113 114  1   
123 113 115  1   
124 113 120  1   
125 116 117  1   
126 116 118  1   
127 116 119  1   
128 120 121  1   
129 120 122  1   
130 120 123  1   
131 123 124  1   
132 123 125  2   
133 125 126  1   
134 125 129  1   
135 126 127  1   
136 126 128  1   
137 126 133  1   
138 129 130  1   
139 129 131  1   
140 129 132  1   
141 133 134  1   
142 133 135  1   
143 133 136  1   
144 136 137  1   
145 136 138  2   
146 138 139  1   
147 138 142  1   
148 139 140  1   
149 139 141  1   
150 139 146  1   
151 142 143  1   
152 142 144  1   
153 142 145  1   
154 146 147  1   
155 146 148  1   
156 146 149  1   
157 149 150  1   
158 149 151  2   
159 151 152  1   
160 151 155  1   
161 152 153  1   
162 152 154  1   
163 152 159  1   
164 155 156  1   
165 155 157  1   
166 155 158  1   
167 159 160  1   
168 159 161  1   
169 159 162  1   
170 162 163  1   
171 162 164  2   
172 164 165  1   
173 164 168  1   
174 165 166  1   
175 165 167  1   
176 165 172  1   
177 168 169  1   
178 168 170  1   
179 168 171  1   
180 172 173  1   
181 172 174  1   
182 172 175  1   
183 175 176  1   
184 175 177  2   
185 177 178  1   
186 177 181  1   
187 178 179  1   
188 178 180  1   
189 178 185  1   
190 181 182  1   
191 181 183  1   
192 181 184  1   
193 185 186  1   
194 185 187  1   
195 185 188  1   
196 188 189  1   
197 188 190  2   
198 190 191  1   
199 190 195  1   
200 191 192  1   
201 191 193  1   
202 191 194  1   
203 195 196  1   
204 195 197  1   
205 195 198  1   
206 199 200  1   
207 199 201  1   
208 201 202  1   
209 201 203  1   
210 203 204  1   
211 203 207  1   
212 205 206  1   
213 205 207  1   
214 205 209  1   
215 207 208  1   
216 209 210  1   
217 209 211  1   
218 209 212  1   
219 213 214  1   
220 213 215  1   
221 215 216  1   
222 215 217  1   
223 217 218  1   
224 217 221  1   
225 219 220  1   
226 219 221  1   
227 219 223  1   
228 221 222  1   
229 223 224  1   
230 223 225  1   
231 226 227  1   
232 227 228  1   
233 227 229  1   
234 227 230  1   
@<TRIPOS>SUBSTRUCTURE
  1 UNK0  67 GROUP 4 **** **** 0

# MOE 2022.02 (io_trps.svl 2020.11)
