# created with PyMOL 2.4.0
@<TRIPOS>MOLECULE
production
20 20 1                 
SMALL
USER_CHARGES
@<TRIPOS>ATOM
1	  C1	-9.259	25.224	-32.384	C.3	1	RIB1	0.000	
2	  O1	-8.407	26.009	-33.220	O.3	1	RIB1	0.000	
3	  C2	-8.529	24.848	-31.071	C.3	1	RIB1	0.000	
4	  O2	-7.148	24.572	-31.310	O.3	1	RIB1	0.000	
5	  C3	-9.296	23.559	-30.665	C.3	1	RIB1	0.000	
6	  O3	-8.463	22.694	-29.889	O.3	1	RIB1	0.000	
7	  C4	-9.627	22.932	-32.036	C.3	1	RIB1	0.000	
8	  O4	-9.563	23.972	-33.016	O.3	1	RIB1	0.000	
9	  C5	-11.033	22.331	-32.007	C.3	1	RIB1	0.000	
10	  O5	-11.333	21.755	-33.279	O.3	1	RIB1	0.000	
11	 HO1	-8.895	26.177	-34.037	 H	1	RIB1	0.000	
12	 HO2	-6.758	25.383	-31.663	 H	1	RIB1	0.000	
13	 HO3	-8.222	23.182	-29.090	 H	1	RIB1	0.000	
14	 HO5	-11.646	22.518	-33.782	 H	1	RIB1	0.000	
15	  H1	-10.178	25.769	-32.163	 H	1	RIB1	0.000	
16	  H2	-8.646	25.628	-30.319	 H	1	RIB1	0.000	
17	  H3	-10.208	23.805	-30.121	 H	1	RIB1	0.000	
18	  H4	-8.899	22.156	-32.272	 H	1	RIB1	0.000	
19	 H51	-11.757	23.113	-31.781	 H	1	RIB1	0.000	
20	 H52	-11.083	21.559	-31.238	 H	1	RIB1	0.000	
@<TRIPOS>BOND
1 1 2 1
2 1 3 1
3 1 8 1
4 1 15 1
5 2 11 1
6 3 4 1
7 3 5 1
8 3 16 1
9 4 12 1
10 5 6 1
11 5 7 1
12 5 17 1
13 6 13 1
14 7 8 1
15 7 9 1
16 7 18 1
17 9 10 1
18 9 19 1
19 9 20 1
20 10 14 1
@<TRIPOS>SUBSTRUCTURE
1	RIB1	1	GROUP	1 Z	RIB
