# created with PyMOL 2.5.2
@<TRIPOS>MOLECULE
152
27 26 1                 
SMALL
USER_CHARGES
@<TRIPOS>ATOM
1	  C1	2.672	-0.127	0.112	C.2	1	1520	0.000	
2	 O1A	2.561	0.923	0.699	O.co2	1	1520	0.000	
3	 O1B	3.889	-0.654	-0.098	O.3	1	1520	0.000	
4	  C2	1.444	-0.846	-0.385	C.3	1	1520	0.000	
5	  C3	0.197	-0.039	-0.018	C.3	1	1520	0.000	
6	  O3	0.214	1.208	-0.716	O.3	1	1520	0.000	
7	  C4	-1.054	-0.826	-0.410	C.3	1	1520	0.000	
8	  N5	-2.247	-0.134	0.094	N.4	1	1520	0.000	
9	 C5A	-2.357	1.183	-0.548	C.3	1	1520	0.000	
10	 C5B	-2.135	0.039	1.549	C.3	1	1520	0.000	
11	 C5C	-3.443	-0.930	-0.213	C.3	1	1520	0.000	
12	 H1B	4.677	-0.193	0.221	 H	1	1520	0.000	
13	 H21	1.388	-1.831	0.077	 H	1	1520	0.000	
14	 H22	1.500	-0.955	-1.468	 H	1	1520	0.000	
15	  H3	0.188	0.147	1.056	 H	1	1520	0.000	
16	 HO3	0.222	0.999	-1.660	 H	1	1520	0.000	
17	 H41	-1.005	-1.826	0.021	 H	1	1520	0.000	
18	 H42	-1.110	-0.902	-1.496	 H	1	1520	0.000	
19	H5A1	-1.571	1.837	-0.173	 H	1	1520	0.000	
20	H5A2	-2.253	1.071	-1.627	 H	1	1520	0.000	
21	H5A3	-3.331	1.618	-0.321	 H	1	1520	0.000	
22	H5B1	-3.020	0.553	1.923	 H	1	1520	0.000	
23	H5B2	-2.053	-0.938	2.025	 H	1	1520	0.000	
24	H5B3	-1.248	0.630	1.777	 H	1	1520	0.000	
25	H5C1	-3.526	-1.058	-1.293	 H	1	1520	0.000	
26	H5C2	-3.361	-1.907	0.263	 H	1	1520	0.000	
27	H5C3	-4.328	-0.416	0.161	 H	1	1520	0.000	
@<TRIPOS>BOND
1 1 2 2
2 1 3 1
3 1 4 1
4 3 12 1
5 4 5 1
6 4 13 1
7 4 14 1
8 5 6 1
9 5 7 1
10 5 15 1
11 6 16 1
12 7 8 1
13 7 17 1
14 7 18 1
15 8 9 1
16 8 10 1
17 8 11 1
18 9 19 1
19 9 20 1
20 9 21 1
21 10 22 1
22 10 23 1
23 10 24 1
24 11 25 1
25 11 26 1
26 11 27 1
@<TRIPOS>SUBSTRUCTURE
1	1520	1	GROUP	1 ****	152
