# created with PyMOL 2.4.0
@<TRIPOS>MOLECULE
152.****
26 25 1                 
SMALL
USER_CHARGES
@<TRIPOS>ATOM
1	   C	2.672	-0.127	0.112	C.2	1	UNK0	0.000	
2	   O	2.561	0.923	0.699	O.co2	1	UNK0	0.000	
3	   O	3.889	-0.654	-0.098	O.co2	1	UNK0	0.000	
4	   C	1.444	-0.846	-0.385	C.3	1	UNK0	0.000	
5	   C	0.197	-0.039	-0.018	C.3	1	UNK0	0.000	
6	   O	0.214	1.208	-0.716	O.3	1	UNK0	0.000	
7	   C	-1.054	-0.826	-0.410	C.3	1	UNK0	0.000	
8	   C	-2.357	1.183	-0.548	C.3	1	UNK0	0.000	
9	   C	-2.135	0.039	1.549	C.3	1	UNK0	0.000	
10	   C	-3.443	-0.930	-0.213	C.3	1	UNK0	0.000	
11	   N	-2.247	-0.134	0.094	N.4	1	UNK0	0.000	
12	   H	0.187	0.146	1.056	 H	1	UNK0	0.000	
13	   H	1.008	1.679	-0.450	 H	1	UNK0	0.000	
14	   H	1.388	-1.832	0.077	 H	1	UNK0	0.000	
15	   H	1.500	-0.955	-1.468	 H	1	UNK0	0.000	
16	   H	-1.004	-1.826	0.022	 H	1	UNK0	0.000	
17	   H	-1.110	-0.902	-1.496	 H	1	UNK0	0.000	
18	   H	-1.470	1.773	-0.320	 H	1	UNK0	0.000	
19	   H	-3.242	1.697	-0.173	 H	1	UNK0	0.000	
20	   H	-2.441	1.055	-1.627	 H	1	UNK0	0.000	
21	   H	-1.248	0.629	1.777	 H	1	UNK0	0.000	
22	   H	-2.054	-0.938	2.026	 H	1	UNK0	0.000	
23	   H	-3.020	0.554	1.923	 H	1	UNK0	0.000	
24	   H	-3.527	-1.059	-1.292	 H	1	UNK0	0.000	
25	   H	-4.328	-0.415	0.161	 H	1	UNK0	0.000	
26	   H	-3.362	-1.907	0.264	 H	1	UNK0	0.000	
@<TRIPOS>BOND
1 1 2 1
2 1 3 2
3 1 4 1
4 4 5 1
5 4 14 1
6 4 15 1
7 5 6 1
8 5 7 1
9 5 12 1
10 6 13 1
11 7 11 1
12 7 16 1
13 7 17 1
14 8 11 1
15 8 18 1
16 8 19 1
17 8 20 1
18 9 11 1
19 9 21 1
20 9 22 1
21 9 23 1
22 10 11 1
23 10 24 1
24 10 25 1
25 10 26 1
@<TRIPOS>SUBSTRUCTURE
1	UNK0	1	GROUP	1 ****	UNK
