152.****
  PyMOL2.4          3D                             0

 26 25  0  0  0  0  0  0  0  0999 V2000
    0.9929   -1.8698   -3.3901 C   0  0  0  1  0  0  0  0  0  0  0  0
    2.1995   -2.4106   -3.7083 O   0  5  0  1  0  0  0  0  0  0  0  0
    0.1108   -1.5590   -4.1736 O   0  0  0  1  0  0  0  0  0  0  0  0
    0.7246   -1.6338   -1.9279 C   0  0  0  1  0  0  0  0  0  0  0  0
   -0.6708   -1.0990   -1.6579 C   0  0  0  1  0  0  0  0  0  0  0  0
   -1.6110   -2.0961   -2.0703 O   0  0  0  1  0  0  0  0  0  0  0  0
   -0.8875   -0.7637   -0.1991 C   0  0  0  1  0  0  0  0  0  0  0  0
   -2.3515    1.2205   -0.5595 C   0  0  0  1  0  0  0  0  0  0  0  0
   -2.2558    0.0603    1.6383 C   0  0  0  1  0  0  0  0  0  0  0  0
   -3.3651   -0.9936   -0.3221 C   0  0  0  1  0  0  0  0  0  0  0  0
   -2.2178   -0.1201    0.1346 N   0  3  0  1  0  0  0  0  0  0  0  0
   -0.8118   -0.2090   -2.2349 H   0  0  0  1  0  0  0  0  0  0  0  0
   -1.1940   -2.9604   -2.0435 H   0  0  0  1  0  0  0  0  0  0  0  0
    1.4377   -0.9255   -1.5608 H   0  0  0  1  0  0  0  0  0  0  0  0
    0.8409   -2.5608   -1.4063 H   0  0  0  1  0  0  0  0  0  0  0  0
   -0.1118   -0.0913    0.1027 H   0  0  0  1  0  0  0  0  0  0  0  0
   -0.8114   -1.6716    0.3619 H   0  0  0  1  0  0  0  0  0  0  0  0
   -2.2203    1.0916   -1.6136 H   0  0  0  1  0  0  0  0  0  0  0  0
   -1.6054    1.8908   -0.1868 H   0  0  0  1  0  0  0  0  0  0  0  0
   -3.3233    1.6255   -0.3682 H   0  0  0  1  0  0  0  0  0  0  0  0
   -1.4506    0.6960    1.9422 H   0  0  0  1  0  0  0  0  0  0  0  0
   -2.1567   -0.8929    2.1142 H   0  0  0  1  0  0  0  0  0  0  0  0
   -3.1871    0.5053    1.9204 H   0  0  0  1  0  0  0  0  0  0  0  0
   -3.3369   -1.0923   -1.3872 H   0  0  0  1  0  0  0  0  0  0  0  0
   -4.2920   -0.5460   -0.0301 H   0  0  0  1  0  0  0  0  0  0  0  0
   -3.2779   -1.9604    0.1278 H   0  0  0  1  0  0  0  0  0  0  0  0
  1  2  1  0  0  0  0
  1  3  2  0  0  0  0
  1  4  1  0  0  0  0
  4  5  1  0  0  0  0
  4 14  1  0  0  0  0
  4 15  1  0  0  0  0
  5  6  1  0  0  0  0
  5  7  1  0  0  0  0
  5 12  1  0  0  0  0
  6 13  1  0  0  0  0
  7 11  1  0  0  0  0
  7 16  1  0  0  0  0
  7 17  1  0  0  0  0
  8 11  1  0  0  0  0
  8 18  1  0  0  0  0
  8 19  1  0  0  0  0
  8 20  1  0  0  0  0
  9 11  1  0  0  0  0
  9 21  1  0  0  0  0
  9 22  1  0  0  0  0
  9 23  1  0  0  0  0
 10 11  1  0  0  0  0
 10 24  1  0  0  0  0
 10 25  1  0  0  0  0
 10 26  1  0  0  0  0
M  END
> <ConfClashScore>
0 

> <ConfOneFourInteractionScore>
-0.959664 

> <ConfScore>
-0.490064 

> <ConfScorePBest>
0.0150985 

> <ConfTolerance>
0.25 

$$$$
152.****
  PyMOL2.4          3D                             0

 26 25  0  0  0  0  0  0  0  0999 V2000
    0.4527   -4.4546   -0.0917 C   0  0  0  1  0  0  0  0  0  0  0  0
    1.6327   -5.0557   -0.4014 O   0  5  0  1  0  0  0  0  0  0  0  0
   -0.5273   -5.0793    0.2794 O   0  0  0  1  0  0  0  0  0  0  0  0
    0.4262   -2.9563   -0.2351 C   0  0  0  1  0  0  0  0  0  0  0  0
   -0.9479   -2.3592    0.0132 C   0  0  0  1  0  0  0  0  0  0  0  0
   -1.3568   -2.5959    1.3635 O   0  0  0  1  0  0  0  0  0  0  0  0
   -0.9857   -0.8850   -0.3225 C   0  0  0  1  0  0  0  0  0  0  0  0
   -2.1917    1.2092   -0.5723 C   0  0  0  1  0  0  0  0  0  0  0  0
   -2.2778    0.0101    1.6239 C   0  0  0  1  0  0  0  0  0  0  0  0
   -3.4870   -0.9123   -0.2736 C   0  0  0  1  0  0  0  0  0  0  0  0
   -2.2350   -0.1450    0.1138 N   0  3  0  1  0  0  0  0  0  0  0  0
   -1.6349   -2.8533   -0.6416 H   0  0  0  1  0  0  0  0  0  0  0  0
   -1.7585   -3.4654    1.4289 H   0  0  0  1  0  0  0  0  0  0  0  0
    0.7328   -2.7038   -1.2287 H   0  0  0  1  0  0  0  0  0  0  0  0
    1.1131   -2.5346    0.4687 H   0  0  0  1  0  0  0  0  0  0  0  0
   -0.8995   -0.7871   -1.3846 H   0  0  0  1  0  0  0  0  0  0  0  0
   -0.1457   -0.4186    0.1485 H   0  0  0  1  0  0  0  0  0  0  0  0
   -2.3338    1.0810   -1.6250 H   0  0  0  1  0  0  0  0  0  0  0  0
   -1.2419    1.6687   -0.3942 H   0  0  0  1  0  0  0  0  0  0  0  0
   -2.9687    1.8321   -0.1809 H   0  0  0  1  0  0  0  0  0  0  0  0
   -3.1770    0.5171    1.9055 H   0  0  0  1  0  0  0  0  0  0  0  0
   -1.4315    0.5791    1.9478 H   0  0  0  1  0  0  0  0  0  0  0  0
   -2.2550   -0.9565    2.0823 H   0  0  0  1  0  0  0  0  0  0  0  0
   -3.4435   -1.1657   -1.3123 H   0  0  0  1  0  0  0  0  0  0  0  0
   -4.3484   -0.3045   -0.0908 H   0  0  0  1  0  0  0  0  0  0  0  0
   -3.5511   -1.8073    0.3092 H   0  0  0  1  0  0  0  0  0  0  0  0
  1  2  1  0  0  0  0
  1  3  2  0  0  0  0
  1  4  1  0  0  0  0
  4  5  1  0  0  0  0
  4 14  1  0  0  0  0
  4 15  1  0  0  0  0
  5  6  1  0  0  0  0
  5  7  1  0  0  0  0
  5 12  1  0  0  0  0
  6 13  1  0  0  0  0
  7 11  1  0  0  0  0
  7 16  1  0  0  0  0
  7 17  1  0  0  0  0
  8 11  1  0  0  0  0
  8 18  1  0  0  0  0
  8 19  1  0  0  0  0
  8 20  1  0  0  0  0
  9 11  1  0  0  0  0
  9 21  1  0  0  0  0
  9 22  1  0  0  0  0
  9 23  1  0  0  0  0
 10 11  1  0  0  0  0
 10 24  1  0  0  0  0
 10 25  1  0  0  0  0
 10 26  1  0  0  0  0
M  END
> <ConfClashScore>
0 

> <ConfOneFourInteractionScore>
-0.959664 

> <ConfScore>
-0.487308 

> <ConfScorePBest>
0.0149955 

> <ConfTolerance>
0.25 

$$$$
152.****
  PyMOL2.4          3D                             0

 26 25  0  0  0  0  0  0  0  0999 V2000
   -0.3146   -4.0525   -1.1043 C   0  0  0  1  0  0  0  0  0  0  0  0
    0.8030   -4.7927   -1.3341 O   0  5  0  1  0  0  0  0  0  0  0  0
   -1.1280   -4.3106   -0.2325 O   0  0  0  1  0  0  0  0  0  0  0  0
   -0.4161   -2.8884   -2.0533 C   0  0  0  1  0  0  0  0  0  0  0  0
   -1.5143   -1.9002   -1.6718 C   0  0  0  1  0  0  0  0  0  0  0  0
   -2.7499   -2.6259   -1.7300 O   0  0  0  1  0  0  0  0  0  0  0  0
   -1.3119   -1.2863   -0.2949 C   0  0  0  1  0  0  0  0  0  0  0  0
   -2.0946    1.0201   -0.7026 C   0  0  0  1  0  0  0  0  0  0  0  0
   -2.1032    0.1032    1.5510 C   0  0  0  1  0  0  0  0  0  0  0  0
   -3.7046   -0.7534   -0.0802 C   0  0  0  1  0  0  0  0  0  0  0  0
   -2.3078   -0.2344    0.0996 N   0  3  0  1  0  0  0  0  0  0  0  0
   -1.5260   -1.1123   -2.3956 H   0  0  0  1  0  0  0  0  0  0  0  0
   -2.6118   -3.5201   -1.4090 H   0  0  0  1  0  0  0  0  0  0  0  0
   -0.6222   -3.2649   -3.0334 H   0  0  0  1  0  0  0  0  0  0  0  0
    0.5206   -2.3710   -2.0591 H   0  0  0  1  0  0  0  0  0  0  0  0
   -0.3385   -0.8427   -0.2724 H   0  0  0  1  0  0  0  0  0  0  0  0
   -1.3622   -2.0743    0.4272 H   0  0  0  1  0  0  0  0  0  0  0  0
   -2.8420    1.7408   -0.4440 H   0  0  0  1  0  0  0  0  0  0  0  0
   -2.1650    0.7923   -1.7457 H   0  0  0  1  0  0  0  0  0  0  0  0
   -1.1252    1.4194   -0.4888 H   0  0  0  1  0  0  0  0  0  0  0  0
   -2.7487    0.9117    1.8241 H   0  0  0  1  0  0  0  0  0  0  0  0
   -1.0849    0.3908    1.7099 H   0  0  0  1  0  0  0  0  0  0  0  0
   -2.3305   -0.7528    2.1515 H   0  0  0  1  0  0  0  0  0  0  0  0
   -4.4061    0.0099    0.1844 H   0  0  0  1  0  0  0  0  0  0  0  0
   -3.8517   -1.6063    0.5491 H   0  0  0  1  0  0  0  0  0  0  0  0
   -3.8517   -1.0340   -1.1022 H   0  0  0  1  0  0  0  0  0  0  0  0
  1  2  1  0  0  0  0
  1  3  2  0  0  0  0
  1  4  1  0  0  0  0
  4  5  1  0  0  0  0
  4 14  1  0  0  0  0
  4 15  1  0  0  0  0
  5  6  1  0  0  0  0
  5  7  1  0  0  0  0
  5 12  1  0  0  0  0
  6 13  1  0  0  0  0
  7 11  1  0  0  0  0
  7 16  1  0  0  0  0
  7 17  1  0  0  0  0
  8 11  1  0  0  0  0
  8 18  1  0  0  0  0
  8 19  1  0  0  0  0
  8 20  1  0  0  0  0
  9 11  1  0  0  0  0
  9 21  1  0  0  0  0
  9 22  1  0  0  0  0
  9 23  1  0  0  0  0
 10 11  1  0  0  0  0
 10 24  1  0  0  0  0
 10 25  1  0  0  0  0
 10 26  1  0  0  0  0
M  END
> <ConfClashScore>
0 

> <ConfOneFourInteractionScore>
-0.967202 

> <ConfScore>
-0.437201 

> <ConfScorePBest>
0.0148925 

> <ConfTolerance>
0.25 

$$$$
152.****
  PyMOL2.4          3D                             0

 26 25  0  0  0  0  0  0  0  0999 V2000
    0.6839   -2.4266   -2.3090 C   0  0  0  1  0  0  0  0  0  0  0  0
    1.7385   -3.0119   -2.9375 O   0  5  0  1  0  0  0  0  0  0  0  0
   -0.0722   -2.9960   -1.5393 O   0  0  0  1  0  0  0  0  0  0  0  0
    0.4519   -0.9680   -2.5997 C   0  0  0  1  0  0  0  0  0  0  0  0
   -0.8419   -0.4401   -2.0014 C   0  0  0  1  0  0  0  0  0  0  0  0
   -1.9039   -1.1495   -2.6460 O   0  0  0  1  0  0  0  0  0  0  0  0
   -0.9146   -0.6122   -0.4929 C   0  0  0  1  0  0  0  0  0  0  0  0
   -2.4000    1.3127   -0.4818 C   0  0  0  1  0  0  0  0  0  0  0  0
   -2.1828   -0.0667    1.5975 C   0  0  0  1  0  0  0  0  0  0  0  0
   -3.3854   -0.9835   -0.3098 C   0  0  0  1  0  0  0  0  0  0  0  0
   -2.2204   -0.0874    0.0781 N   0  3  0  1  0  0  0  0  0  0  0  0
   -0.9179    0.6031   -2.2268 H   0  0  0  1  0  0  0  0  0  0  0  0
   -1.5662   -1.9720   -3.0083 H   0  0  0  1  0  0  0  0  0  0  0  0
    0.4162   -0.8336   -3.6606 H   0  0  0  1  0  0  0  0  0  0  0  0
    1.2680   -0.4062   -2.1957 H   0  0  0  1  0  0  0  0  0  0  0  0
   -0.1026   -0.0783   -0.0451 H   0  0  0  1  0  0  0  0  0  0  0  0
   -0.8294   -1.6530   -0.2598 H   0  0  0  1  0  0  0  0  0  0  0  0
   -2.3960    1.2731   -1.5510 H   0  0  0  1  0  0  0  0  0  0  0  0
   -1.5986    1.9367   -0.1452 H   0  0  0  1  0  0  0  0  0  0  0  0
   -3.3321    1.7150   -0.1436 H   0  0  0  1  0  0  0  0  0  0  0  0
   -1.4526    0.6426    1.9270 H   0  0  0  1  0  0  0  0  0  0  0  0
   -1.9243   -1.0393    1.9609 H   0  0  0  1  0  0  0  0  0  0  0  0
   -3.1450    0.2112    1.9741 H   0  0  0  1  0  0  0  0  0  0  0  0
   -3.2044   -1.9774    0.0429 H   0  0  0  1  0  0  0  0  0  0  0  0
   -3.4862   -0.9961   -1.3749 H   0  0  0  1  0  0  0  0  0  0  0  0
   -4.2858   -0.6078    0.1298 H   0  0  0  1  0  0  0  0  0  0  0  0
  1  2  1  0  0  0  0
  1  3  2  0  0  0  0
  1  4  1  0  0  0  0
  4  5  1  0  0  0  0
  4 14  1  0  0  0  0
  4 15  1  0  0  0  0
  5  6  1  0  0  0  0
  5  7  1  0  0  0  0
  5 12  1  0  0  0  0
  6 13  1  0  0  0  0
  7 11  1  0  0  0  0
  7 16  1  0  0  0  0
  7 17  1  0  0  0  0
  8 11  1  0  0  0  0
  8 18  1  0  0  0  0
  8 19  1  0  0  0  0
  8 20  1  0  0  0  0
  9 11  1  0  0  0  0
  9 21  1  0  0  0  0
  9 22  1  0  0  0  0
  9 23  1  0  0  0  0
 10 11  1  0  0  0  0
 10 24  1  0  0  0  0
 10 25  1  0  0  0  0
 10 26  1  0  0  0  0
M  END
> <ConfClashScore>
0 

> <ConfOneFourInteractionScore>
-0.967202 

> <ConfScore>
-0.437043 

> <ConfScorePBest>
0.0147895 

> <ConfTolerance>
0.25 

$$$$
152.****
  PyMOL2.4          3D                             0

 26 25  0  0  0  0  0  0  0  0999 V2000
    1.1737   -1.7636   -2.4566 C   0  0  0  1  0  0  0  0  0  0  0  0
    2.0147   -2.6624   -3.0350 O   0  5  0  1  0  0  0  0  0  0  0  0
    1.5701   -0.7012   -2.0066 O   0  0  0  1  0  0  0  0  0  0  0  0
   -0.2436   -2.2687   -2.4642 C   0  0  0  1  0  0  0  0  0  0  0  0
   -1.3230   -1.3417   -1.9295 C   0  0  0  1  0  0  0  0  0  0  0  0
   -2.6355   -1.8128   -2.2236 O   0  0  0  1  0  0  0  0  0  0  0  0
   -1.2753   -1.2111   -0.4253 C   0  0  0  1  0  0  0  0  0  0  0  0
   -2.1126    1.0514   -0.7283 C   0  0  0  1  0  0  0  0  0  0  0  0
   -2.0884    0.0626    1.5713 C   0  0  0  1  0  0  0  0  0  0  0  0
   -3.7083   -0.7537   -0.0482 C   0  0  0  1  0  0  0  0  0  0  0  0
   -2.2962   -0.2128    0.0926 N   0  3  0  1  0  0  0  0  0  0  0  0
   -1.1813   -0.3717   -2.3584 H   0  0  0  1  0  0  0  0  0  0  0  0
   -2.8436   -1.6288   -3.1425 H   0  0  0  1  0  0  0  0  0  0  0  0
   -0.2683   -3.1619   -1.8756 H   0  0  0  1  0  0  0  0  0  0  0  0
   -0.4950   -2.5018   -3.4778 H   0  0  0  1  0  0  0  0  0  0  0  0
   -0.2975   -0.8854   -0.1379 H   0  0  0  1  0  0  0  0  0  0  0  0
   -1.4758   -2.1675    0.0108 H   0  0  0  1  0  0  0  0  0  0  0  0
   -2.7443    1.8234   -0.3413 H   0  0  0  1  0  0  0  0  0  0  0  0
   -2.3728    0.8554   -1.7475 H   0  0  0  1  0  0  0  0  0  0  0  0
   -1.0914    1.3661   -0.6746 H   0  0  0  1  0  0  0  0  0  0  0  0
   -2.8991    0.6546    1.9417 H   0  0  0  1  0  0  0  0  0  0  0  0
   -1.1686    0.5915    1.7096 H   0  0  0  1  0  0  0  0  0  0  0  0
   -2.0512   -0.8642    2.1047 H   0  0  0  1  0  0  0  0  0  0  0  0
   -4.3945   -0.0909    0.4363 H   0  0  0  1  0  0  0  0  0  0  0  0
   -3.7663   -1.7210    0.4056 H   0  0  0  1  0  0  0  0  0  0  0  0
   -3.9589   -0.8302   -1.0856 H   0  0  0  1  0  0  0  0  0  0  0  0
  1  2  1  0  0  0  0
  1  3  2  0  0  0  0
  1  4  1  0  0  0  0
  4  5  1  0  0  0  0
  4 14  1  0  0  0  0
  4 15  1  0  0  0  0
  5  6  1  0  0  0  0
  5  7  1  0  0  0  0
  5 12  1  0  0  0  0
  6 13  1  0  0  0  0
  7 11  1  0  0  0  0
  7 16  1  0  0  0  0
  7 17  1  0  0  0  0
  8 11  1  0  0  0  0
  8 18  1  0  0  0  0
  8 19  1  0  0  0  0
  8 20  1  0  0  0  0
  9 11  1  0  0  0  0
  9 21  1  0  0  0  0
  9 22  1  0  0  0  0
  9 23  1  0  0  0  0
 10 11  1  0  0  0  0
 10 24  1  0  0  0  0
 10 25  1  0  0  0  0
 10 26  1  0  0  0  0
M  END
> <ConfClashScore>
0 

> <ConfOneFourInteractionScore>
-0.959664 

> <ConfScore>
-0.415195 

> <ConfScorePBest>
0.0146865 

> <ConfTolerance>
0.25 

$$$$
152.****
  PyMOL2.4          3D                             0

 26 25  0  0  0  0  0  0  0  0999 V2000
    0.5246   -3.2876   -1.2110 C   0  0  0  1  0  0  0  0  0  0  0  0
    1.3852   -4.2698   -1.5910 O   0  5  0  1  0  0  0  0  0  0  0  0
   -0.3886   -2.9008   -1.9215 O   0  0  0  1  0  0  0  0  0  0  0  0
    0.7675   -2.6990    0.1530 C   0  0  0  1  0  0  0  0  0  0  0  0
   -0.4128   -1.8718    0.6678 C   0  0  0  1  0  0  0  0  0  0  0  0
   -0.1293   -1.3554    1.9715 O   0  0  0  1  0  0  0  0  0  0  0  0
   -0.8675   -0.7232   -0.2179 C   0  0  0  1  0  0  0  0  0  0  0  0
   -2.3755    1.1653   -0.6657 C   0  0  0  1  0  0  0  0  0  0  0  0
   -2.2398    0.1592    1.6304 C   0  0  0  1  0  0  0  0  0  0  0  0
   -3.3602   -1.0443   -0.2035 C   0  0  0  1  0  0  0  0  0  0  0  0
   -2.2096   -0.1135    0.1367 N   0  3  0  1  0  0  0  0  0  0  0  0
   -1.2423   -2.5421    0.7540 H   0  0  0  1  0  0  0  0  0  0  0  0
   -0.6365   -1.8413    2.6259 H   0  0  0  1  0  0  0  0  0  0  0  0
    1.6298   -2.0675    0.1029 H   0  0  0  1  0  0  0  0  0  0  0  0
    0.9494   -3.4978    0.8413 H   0  0  0  1  0  0  0  0  0  0  0  0
   -0.9262   -1.0861   -1.2228 H   0  0  0  1  0  0  0  0  0  0  0  0
   -0.1295    0.0493   -0.1596 H   0  0  0  1  0  0  0  0  0  0  0  0
   -1.5394    1.8091   -0.4887 H   0  0  0  1  0  0  0  0  0  0  0  0
   -3.2758    1.6598   -0.3661 H   0  0  0  1  0  0  0  0  0  0  0  0
   -2.4282    0.9278   -1.7077 H   0  0  0  1  0  0  0  0  0  0  0  0
   -2.3150   -0.7669    2.1610 H   0  0  0  1  0  0  0  0  0  0  0  0
   -3.0844    0.7733    1.8635 H   0  0  0  1  0  0  0  0  0  0  0  0
   -1.3412    0.6633    1.9189 H   0  0  0  1  0  0  0  0  0  0  0  0
   -4.2879   -0.5261   -0.0779 H   0  0  0  1  0  0  0  0  0  0  0  0
   -3.3356   -1.8938    0.4467 H   0  0  0  1  0  0  0  0  0  0  0  0
   -3.2678   -1.3689   -1.2189 H   0  0  0  1  0  0  0  0  0  0  0  0
  1  2  1  0  0  0  0
  1  3  2  0  0  0  0
  1  4  1  0  0  0  0
  4  5  1  0  0  0  0
  4 14  1  0  0  0  0
  4 15  1  0  0  0  0
  5  6  1  0  0  0  0
  5  7  1  0  0  0  0
  5 12  1  0  0  0  0
  6 13  1  0  0  0  0
  7 11  1  0  0  0  0
  7 16  1  0  0  0  0
  7 17  1  0  0  0  0
  8 11  1  0  0  0  0
  8 18  1  0  0  0  0
  8 19  1  0  0  0  0
  8 20  1  0  0  0  0
  9 11  1  0  0  0  0
  9 21  1  0  0  0  0
  9 22  1  0  0  0  0
  9 23  1  0  0  0  0
 10 11  1  0  0  0  0
 10 24  1  0  0  0  0
 10 25  1  0  0  0  0
 10 26  1  0  0  0  0
M  END
> <ConfClashScore>
0 

> <ConfOneFourInteractionScore>
-0.956427 

> <ConfScore>
-0.404209 

> <ConfScorePBest>
0.0145835 

> <ConfTolerance>
0.257209 

$$$$
152.****
  PyMOL2.4          3D                             0

 26 25  0  0  0  0  0  0  0  0999 V2000
   -0.1932   -4.7598   -0.5407 C   0  0  0  1  0  0  0  0  0  0  0  0
    0.9711   -5.4292   -0.3260 O   0  5  0  1  0  0  0  0  0  0  0  0
   -1.3003   -5.2718   -0.5146 O   0  0  0  1  0  0  0  0  0  0  0  0
    0.0407   -3.2834   -0.7180 C   0  0  0  1  0  0  0  0  0  0  0  0
   -1.1365   -2.4354   -0.2650 C   0  0  0  1  0  0  0  0  0  0  0  0
   -1.2504   -2.5430    1.1570 O   0  0  0  1  0  0  0  0  0  0  0  0
   -1.1741   -0.9640   -0.6126 C   0  0  0  1  0  0  0  0  0  0  0  0
   -2.3808    1.2256   -0.5573 C   0  0  0  1  0  0  0  0  0  0  0  0
   -1.9851    0.0388    1.5304 C   0  0  0  1  0  0  0  0  0  0  0  0
   -3.5598   -0.9443   -0.1478 C   0  0  0  1  0  0  0  0  0  0  0  0
   -2.2744   -0.1610    0.0530 N   0  3  0  1  0  0  0  0  0  0  0  0
   -2.0134   -2.8704   -0.6971 H   0  0  0  1  0  0  0  0  0  0  0  0
   -0.3758   -2.6321    1.5427 H   0  0  0  1  0  0  0  0  0  0  0  0
    0.2213   -3.0893   -1.7547 H   0  0  0  1  0  0  0  0  0  0  0  0
    0.9015   -3.0040   -0.1471 H   0  0  0  1  0  0  0  0  0  0  0  0
   -1.2998   -0.8794   -1.6718 H   0  0  0  1  0  0  0  0  0  0  0  0
   -0.2359   -0.5349   -0.3288 H   0  0  0  1  0  0  0  0  0  0  0  0
   -3.1560    1.7743   -0.0645 H   0  0  0  1  0  0  0  0  0  0  0  0
   -2.6114    1.1400   -1.5987 H   0  0  0  1  0  0  0  0  0  0  0  0
   -1.4498    1.7396   -0.4388 H   0  0  0  1  0  0  0  0  0  0  0  0
   -1.0174    0.4798    1.6484 H   0  0  0  1  0  0  0  0  0  0  0  0
   -2.0087   -0.9075    2.0293 H   0  0  0  1  0  0  0  0  0  0  0  0
   -2.7253    0.6847    1.9544 H   0  0  0  1  0  0  0  0  0  0  0  0
   -3.7448   -1.0648   -1.1947 H   0  0  0  1  0  0  0  0  0  0  0  0
   -4.3742   -0.4135    0.2993 H   0  0  0  1  0  0  0  0  0  0  0  0
   -3.4661   -1.9066    0.3107 H   0  0  0  1  0  0  0  0  0  0  0  0
  1  2  1  0  0  0  0
  1  3  2  0  0  0  0
  1  4  1  0  0  0  0
  4  5  1  0  0  0  0
  4 14  1  0  0  0  0
  4 15  1  0  0  0  0
  5  6  1  0  0  0  0
  5  7  1  0  0  0  0
  5 12  1  0  0  0  0
  6 13  1  0  0  0  0
  7 11  1  0  0  0  0
  7 16  1  0  0  0  0
  7 17  1  0  0  0  0
  8 11  1  0  0  0  0
  8 18  1  0  0  0  0
  8 19  1  0  0  0  0
  8 20  1  0  0  0  0
  9 11  1  0  0  0  0
  9 21  1  0  0  0  0
  9 22  1  0  0  0  0
  9 23  1  0  0  0  0
 10 11  1  0  0  0  0
 10 24  1  0  0  0  0
 10 25  1  0  0  0  0
 10 26  1  0  0  0  0
M  END
> <ConfClashScore>
0 

> <ConfOneFourInteractionScore>
-0.974231 

> <ConfScore>
-0.403409 

> <ConfScorePBest>
0.0144805 

> <ConfTolerance>
0.25 

$$$$
152.****
  PyMOL2.4          3D                             0

 26 25  0  0  0  0  0  0  0  0999 V2000
    0.5911   -3.0787   -1.9172 C   0  0  0  1  0  0  0  0  0  0  0  0
    1.7042   -3.8305   -2.1300 O   0  5  0  1  0  0  0  0  0  0  0  0
    0.0752   -2.3654   -2.7618 O   0  0  0  1  0  0  0  0  0  0  0  0
    0.1358   -3.1556   -0.4852 C   0  0  0  1  0  0  0  0  0  0  0  0
   -1.1901   -2.4928   -0.1306 C   0  0  0  1  0  0  0  0  0  0  0  0
   -1.5124   -2.6341    1.2404 O   0  0  0  1  0  0  0  0  0  0  0  0
   -1.1122   -1.0128   -0.4320 C   0  0  0  1  0  0  0  0  0  0  0  0
   -2.2127    1.1795   -0.5738 C   0  0  0  1  0  0  0  0  0  0  0  0
   -2.1572    0.0265    1.5912 C   0  0  0  1  0  0  0  0  0  0  0  0
   -3.5657   -0.8798   -0.2210 C   0  0  0  1  0  0  0  0  0  0  0  0
   -2.2624   -0.1756    0.0921 N   0  3  0  1  0  0  0  0  0  0  0  0
   -1.9596   -2.9260   -0.7347 H   0  0  0  1  0  0  0  0  0  0  0  0
   -2.3567   -3.0829    1.3265 H   0  0  0  1  0  0  0  0  0  0  0  0
    0.8933   -2.6985    0.1165 H   0  0  0  1  0  0  0  0  0  0  0  0
    0.0541   -4.1916   -0.2305 H   0  0  0  1  0  0  0  0  0  0  0  0
   -1.0771   -0.8950   -1.4949 H   0  0  0  1  0  0  0  0  0  0  0  0
   -0.2081   -0.6364   -0.0009 H   0  0  0  1  0  0  0  0  0  0  0  0
   -1.2529    1.6232   -0.4095 H   0  0  0  1  0  0  0  0  0  0  0  0
   -2.9720    1.8087   -0.1586 H   0  0  0  1  0  0  0  0  0  0  0  0
   -2.3778    1.0664   -1.6249 H   0  0  0  1  0  0  0  0  0  0  0  0
   -2.9993    0.5895    1.9357 H   0  0  0  1  0  0  0  0  0  0  0  0
   -1.2565    0.5584    1.8168 H   0  0  0  1  0  0  0  0  0  0  0  0
   -2.1414   -0.9257    2.0790 H   0  0  0  1  0  0  0  0  0  0  0  0
   -3.6368   -1.0474   -1.2754 H   0  0  0  1  0  0  0  0  0  0  0  0
   -4.3855   -0.2713    0.0993 H   0  0  0  1  0  0  0  0  0  0  0  0
   -3.5958   -1.8184    0.2920 H   0  0  0  1  0  0  0  0  0  0  0  0
  1  2  1  0  0  0  0
  1  3  2  0  0  0  0
  1  4  1  0  0  0  0
  4  5  1  0  0  0  0
  4 14  1  0  0  0  0
  4 15  1  0  0  0  0
  5  6  1  0  0  0  0
  5  7  1  0  0  0  0
  5 12  1  0  0  0  0
  6 13  1  0  0  0  0
  7 11  1  0  0  0  0
  7 16  1  0  0  0  0
  7 17  1  0  0  0  0
  8 11  1  0  0  0  0
  8 18  1  0  0  0  0
  8 19  1  0  0  0  0
  8 20  1  0  0  0  0
  9 11  1  0  0  0  0
  9 21  1  0  0  0  0
  9 22  1  0  0  0  0
  9 23  1  0  0  0  0
 10 11  1  0  0  0  0
 10 24  1  0  0  0  0
 10 25  1  0  0  0  0
 10 26  1  0  0  0  0
M  END
> <ConfClashScore>
0 

> <ConfOneFourInteractionScore>
-0.974231 

> <ConfScore>
-0.401109 

> <ConfScorePBest>
0.0143775 

> <ConfTolerance>
0.25 

$$$$
152.****
  PyMOL2.4          3D                             0

 26 25  0  0  0  0  0  0  0  0999 V2000
    1.7164   -1.9772   -0.1014 C   0  0  0  1  0  0  0  0  0  0  0  0
    2.5715   -2.8669   -0.6730 O   0  5  0  1  0  0  0  0  0  0  0  0
    1.3638   -2.0728    1.0627 O   0  0  0  1  0  0  0  0  0  0  0  0
    1.3024   -0.9183   -1.0860 C   0  0  0  1  0  0  0  0  0  0  0  0
    0.1482   -0.0433   -0.6500 C   0  0  0  1  0  0  0  0  0  0  0  0
    0.0147    1.0755   -1.5111 O   0  0  0  1  0  0  0  0  0  0  0  0
   -1.1445   -0.8217   -0.7218 C   0  0  0  1  0  0  0  0  0  0  0  0
   -2.4944    1.2759   -0.4938 C   0  0  0  1  0  0  0  0  0  0  0  0
   -1.8526   -0.1121    1.4912 C   0  0  0  1  0  0  0  0  0  0  0  0
   -3.5835   -0.8669   -0.1541 C   0  0  0  1  0  0  0  0  0  0  0  0
   -2.2681   -0.1309    0.0311 N   0  3  0  1  0  0  0  0  0  0  0  0
    0.3086    0.2754    0.3587 H   0  0  0  1  0  0  0  0  0  0  0  0
    0.6464    1.0034   -2.2305 H   0  0  0  1  0  0  0  0  0  0  0  0
    1.0217   -1.4057   -1.9962 H   0  0  0  1  0  0  0  0  0  0  0  0
    2.1467   -0.2859   -1.2651 H   0  0  0  1  0  0  0  0  0  0  0  0
   -0.9882   -1.7907   -0.2957 H   0  0  0  1  0  0  0  0  0  0  0  0
   -1.4290   -0.9246   -1.7482 H   0  0  0  1  0  0  0  0  0  0  0  0
   -3.2029    1.7801    0.1296 H   0  0  0  1  0  0  0  0  0  0  0  0
   -2.8712    1.2268   -1.4941 H   0  0  0  1  0  0  0  0  0  0  0  0
   -1.5685    1.8121   -0.4869 H   0  0  0  1  0  0  0  0  0  0  0  0
   -0.9112    0.3870    1.5883 H   0  0  0  1  0  0  0  0  0  0  0  0
   -1.7621   -1.1165    1.8489 H   0  0  0  1  0  0  0  0  0  0  0  0
   -2.5918    0.4063    2.0655 H   0  0  0  1  0  0  0  0  0  0  0  0
   -3.4751   -1.8799    0.1730 H   0  0  0  1  0  0  0  0  0  0  0  0
   -3.8567   -0.8537   -1.1886 H   0  0  0  1  0  0  0  0  0  0  0  0
   -4.3455   -0.3856    0.4227 H   0  0  0  1  0  0  0  0  0  0  0  0
  1  2  1  0  0  0  0
  1  3  2  0  0  0  0
  1  4  1  0  0  0  0
  4  5  1  0  0  0  0
  4 14  1  0  0  0  0
  4 15  1  0  0  0  0
  5  6  1  0  0  0  0
  5  7  1  0  0  0  0
  5 12  1  0  0  0  0
  6 13  1  0  0  0  0
  7 11  1  0  0  0  0
  7 16  1  0  0  0  0
  7 17  1  0  0  0  0
  8 11  1  0  0  0  0
  8 18  1  0  0  0  0
  8 19  1  0  0  0  0
  8 20  1  0  0  0  0
  9 11  1  0  0  0  0
  9 21  1  0  0  0  0
  9 22  1  0  0  0  0
  9 23  1  0  0  0  0
 10 11  1  0  0  0  0
 10 24  1  0  0  0  0
 10 25  1  0  0  0  0
 10 26  1  0  0  0  0
M  END
> <ConfClashScore>
0 

> <ConfOneFourInteractionScore>
-0.959664 

> <ConfScore>
-0.396784 

> <ConfScorePBest>
0.0142745 

> <ConfTolerance>
0.28724 

$$$$
152.****
  PyMOL2.4          3D                             0

 26 25  0  0  0  0  0  0  0  0999 V2000
    2.7502    0.2389   -1.0038 C   0  0  0  1  0  0  0  0  0  0  0  0
    3.8898   -0.4978   -0.9139 O   0  5  0  1  0  0  0  0  0  0  0  0
    2.7079    1.4545   -1.0983 O   0  0  0  1  0  0  0  0  0  0  0  0
    1.5078   -0.6106   -0.9750 C   0  0  0  1  0  0  0  0  0  0  0  0
    0.2914    0.1295   -0.4343 C   0  0  0  1  0  0  0  0  0  0  0  0
    0.1316    1.3236   -1.1954 O   0  0  0  1  0  0  0  0  0  0  0  0
   -0.9591   -0.6928   -0.5128 C   0  0  0  1  0  0  0  0  0  0  0  0
   -2.5108    1.2709   -0.5063 C   0  0  0  1  0  0  0  0  0  0  0  0
   -2.1016    0.0800    1.5759 C   0  0  0  1  0  0  0  0  0  0  0  0
   -3.3485   -1.0750   -0.2605 C   0  0  0  1  0  0  0  0  0  0  0  0
   -2.2300   -0.1038    0.0743 N   0  3  0  1  0  0  0  0  0  0  0  0
    0.4718    0.3748    0.5914 H   0  0  0  1  0  0  0  0  0  0  0  0
    0.2584    1.1292   -2.1270 H   0  0  0  1  0  0  0  0  0  0  0  0
    1.6920   -1.4624   -0.3542 H   0  0  0  1  0  0  0  0  0  0  0  0
    1.2938   -0.9348   -1.9720 H   0  0  0  1  0  0  0  0  0  0  0  0
   -0.7684   -1.6136   -0.0023 H   0  0  0  1  0  0  0  0  0  0  0  0
   -1.1470   -0.8903   -1.5475 H   0  0  0  1  0  0  0  0  0  0  0  0
   -1.6782    1.9157   -0.3163 H   0  0  0  1  0  0  0  0  0  0  0  0
   -3.3885    1.6783   -0.0496 H   0  0  0  1  0  0  0  0  0  0  0  0
   -2.6634    1.1876   -1.5621 H   0  0  0  1  0  0  0  0  0  0  0  0
   -1.7504   -0.8288    2.0182 H   0  0  0  1  0  0  0  0  0  0  0  0
   -3.0571    0.3306    1.9872 H   0  0  0  1  0  0  0  0  0  0  0  0
   -1.4070    0.8677    1.7804 H   0  0  0  1  0  0  0  0  0  0  0  0
   -3.3212   -1.3048   -1.3052 H   0  0  0  1  0  0  0  0  0  0  0  0
   -4.2910   -0.6306   -0.0178 H   0  0  0  1  0  0  0  0  0  0  0  0
   -3.2212   -1.9740    0.3056 H   0  0  0  1  0  0  0  0  0  0  0  0
  1  2  1  0  0  0  0
  1  3  2  0  0  0  0
  1  4  1  0  0  0  0
  4  5  1  0  0  0  0
  4 14  1  0  0  0  0
  4 15  1  0  0  0  0
  5  6  1  0  0  0  0
  5  7  1  0  0  0  0
  5 12  1  0  0  0  0
  6 13  1  0  0  0  0
  7 11  1  0  0  0  0
  7 16  1  0  0  0  0
  7 17  1  0  0  0  0
  8 11  1  0  0  0  0
  8 18  1  0  0  0  0
  8 19  1  0  0  0  0
  8 20  1  0  0  0  0
  9 11  1  0  0  0  0
  9 21  1  0  0  0  0
  9 22  1  0  0  0  0
  9 23  1  0  0  0  0
 10 11  1  0  0  0  0
 10 24  1  0  0  0  0
 10 25  1  0  0  0  0
 10 26  1  0  0  0  0
M  END
> <ConfClashScore>
0 

> <ConfOneFourInteractionScore>
-0.959664 

> <ConfScore>
-0.384207 

> <ConfScorePBest>
0.0141715 

> <ConfTolerance>
0.25 

$$$$
152.****
  PyMOL2.4          3D                             0

 26 25  0  0  0  0  0  0  0  0999 V2000
   -0.0000   -2.4603   -3.8171 C   0  0  0  1  0  0  0  0  0  0  0  0
   -0.2913   -3.7557   -4.1115 O   0  5  0  1  0  0  0  0  0  0  0  0
    0.2384   -1.6362   -4.6845 O   0  0  0  1  0  0  0  0  0  0  0  0
   -0.0199   -2.2271   -2.3301 C   0  0  0  1  0  0  0  0  0  0  0  0
   -1.0243   -1.1635   -1.9063 C   0  0  0  1  0  0  0  0  0  0  0  0
   -2.2884   -1.5662   -2.4407 O   0  0  0  1  0  0  0  0  0  0  0  0
   -1.1060   -0.9882   -0.3976 C   0  0  0  1  0  0  0  0  0  0  0  0
   -2.3182    1.1264   -0.6635 C   0  0  0  1  0  0  0  0  0  0  0  0
   -2.0740    0.1151    1.5620 C   0  0  0  1  0  0  0  0  0  0  0  0
   -3.5426   -0.9190   -0.1090 C   0  0  0  1  0  0  0  0  0  0  0  0
   -2.2602   -0.1659    0.0989 N   0  3  0  1  0  0  0  0  0  0  0  0
   -0.7312   -0.2303   -2.3399 H   0  0  0  1  0  0  0  0  0  0  0  0
   -2.3373   -2.5248   -2.4605 H   0  0  0  1  0  0  0  0  0  0  0  0
    0.9562   -1.9162   -2.0211 H   0  0  0  1  0  0  0  0  0  0  0  0
   -0.2722   -3.1466   -1.8445 H   0  0  0  1  0  0  0  0  0  0  0  0
   -0.2023   -0.5172   -0.0717 H   0  0  0  1  0  0  0  0  0  0  0  0
   -1.1811   -1.9603    0.0430 H   0  0  0  1  0  0  0  0  0  0  0  0
   -3.1474    1.7079   -0.3183 H   0  0  0  1  0  0  0  0  0  0  0  0
   -2.4373    0.9198   -1.7066 H   0  0  0  1  0  0  0  0  0  0  0  0
   -1.4111    1.6725   -0.5088 H   0  0  0  1  0  0  0  0  0  0  0  0
   -1.0820    0.4780    1.7326 H   0  0  0  1  0  0  0  0  0  0  0  0
   -2.2250   -0.7853    2.1199 H   0  0  0  1  0  0  0  0  0  0  0  0
   -2.7824    0.8530    1.8762 H   0  0  0  1  0  0  0  0  0  0  0  0
   -4.3496   -0.3823    0.3447 H   0  0  0  1  0  0  0  0  0  0  0  0
   -3.4633   -1.8880    0.3377 H   0  0  0  1  0  0  0  0  0  0  0  0
   -3.7288   -1.0231   -1.1575 H   0  0  0  1  0  0  0  0  0  0  0  0
  1  2  1  0  0  0  0
  1  3  2  0  0  0  0
  1  4  1  0  0  0  0
  4  5  1  0  0  0  0
  4 14  1  0  0  0  0
  4 15  1  0  0  0  0
  5  6  1  0  0  0  0
  5  7  1  0  0  0  0
  5 12  1  0  0  0  0
  6 13  1  0  0  0  0
  7 11  1  0  0  0  0
  7 16  1  0  0  0  0
  7 17  1  0  0  0  0
  8 11  1  0  0  0  0
  8 18  1  0  0  0  0
  8 19  1  0  0  0  0
  8 20  1  0  0  0  0
  9 11  1  0  0  0  0
  9 21  1  0  0  0  0
  9 22  1  0  0  0  0
  9 23  1  0  0  0  0
 10 11  1  0  0  0  0
 10 24  1  0  0  0  0
 10 25  1  0  0  0  0
 10 26  1  0  0  0  0
M  END
> <ConfClashScore>
0 

> <ConfOneFourInteractionScore>
-0.959664 

> <ConfScore>
-0.353442 

> <ConfScorePBest>
0.0140685 

> <ConfTolerance>
0.25 

$$$$
152.****
  PyMOL2.4          3D                             0

 26 25  0  0  0  0  0  0  0  0999 V2000
    0.4093   -4.4606   -0.2144 C   0  0  0  1  0  0  0  0  0  0  0  0
    1.7338   -4.6711    0.0114 O   0  5  0  1  0  0  0  0  0  0  0  0
   -0.4553   -5.2895    0.0179 O   0  0  0  1  0  0  0  0  0  0  0  0
    0.1520   -3.0899   -0.7808 C   0  0  0  1  0  0  0  0  0  0  0  0
   -0.9742   -2.3560   -0.0741 C   0  0  0  1  0  0  0  0  0  0  0  0
   -0.8360   -2.3616    1.3359 O   0  0  0  1  0  0  0  0  0  0  0  0
   -1.1288   -0.9173   -0.5457 C   0  0  0  1  0  0  0  0  0  0  0  0
   -2.2923    1.2407   -0.4953 C   0  0  0  1  0  0  0  0  0  0  0  0
   -2.0757   -0.0935    1.5553 C   0  0  0  1  0  0  0  0  0  0  0  0
   -3.5631   -0.8359   -0.2466 C   0  0  0  1  0  0  0  0  0  0  0  0
   -2.2651   -0.1513    0.0682 N   0  3  0  1  0  0  0  0  0  0  0  0
   -1.8822   -2.8644   -0.3230 H   0  0  0  1  0  0  0  0  0  0  0  0
    0.0926   -2.2859    1.5672 H   0  0  0  1  0  0  0  0  0  0  0  0
   -0.1036   -3.1911   -1.8148 H   0  0  0  1  0  0  0  0  0  0  0  0
    1.0466   -2.5101   -0.6891 H   0  0  0  1  0  0  0  0  0  0  0  0
   -1.2768   -0.9326   -1.6053 H   0  0  0  1  0  0  0  0  0  0  0  0
   -0.2213   -0.3976   -0.3192 H   0  0  0  1  0  0  0  0  0  0  0  0
   -1.3105    1.6636   -0.4502 H   0  0  0  1  0  0  0  0  0  0  0  0
   -2.9667    1.8435    0.0763 H   0  0  0  1  0  0  0  0  0  0  0  0
   -2.6192    1.2066   -1.5136 H   0  0  0  1  0  0  0  0  0  0  0  0
   -2.7850    0.5861    1.9796 H   0  0  0  1  0  0  0  0  0  0  0  0
   -1.0841    0.2429    1.7755 H   0  0  0  1  0  0  0  0  0  0  0  0
   -2.2229   -1.0682    1.9715 H   0  0  0  1  0  0  0  0  0  0  0  0
   -3.5340   -1.8416    0.1176 H   0  0  0  1  0  0  0  0  0  0  0  0
   -3.7137   -0.8447   -1.3059 H   0  0  0  1  0  0  0  0  0  0  0  0
   -4.3670   -0.3095    0.2241 H   0  0  0  1  0  0  0  0  0  0  0  0
  1  2  1  0  0  0  0
  1  3  2  0  0  0  0
  1  4  1  0  0  0  0
  4  5  1  0  0  0  0
  4 14  1  0  0  0  0
  4 15  1  0  0  0  0
  5  6  1  0  0  0  0
  5  7  1  0  0  0  0
  5 12  1  0  0  0  0
  6 13  1  0  0  0  0
  7 11  1  0  0  0  0
  7 16  1  0  0  0  0
  7 17  1  0  0  0  0
  8 11  1  0  0  0  0
  8 18  1  0  0  0  0
  8 19  1  0  0  0  0
  8 20  1  0  0  0  0
  9 11  1  0  0  0  0
  9 21  1  0  0  0  0
  9 22  1  0  0  0  0
  9 23  1  0  0  0  0
 10 11  1  0  0  0  0
 10 24  1  0  0  0  0
 10 25  1  0  0  0  0
 10 26  1  0  0  0  0
M  END
> <ConfClashScore>
0 

> <ConfOneFourInteractionScore>
-0.959664 

> <ConfScore>
-0.352631 

> <ConfScorePBest>
0.0139655 

> <ConfTolerance>
0.25 

$$$$
152.****
  PyMOL2.4          3D                             0

 26 25  0  0  0  0  0  0  0  0999 V2000
    1.9030   -0.7341   -1.3330 C   0  0  0  1  0  0  0  0  0  0  0  0
    3.2178   -0.7159   -1.6806 O   0  5  0  1  0  0  0  0  0  0  0  0
    1.0113   -1.0955   -2.0830 O   0  0  0  1  0  0  0  0  0  0  0  0
    1.6934   -0.2555    0.0823 C   0  0  0  1  0  0  0  0  0  0  0  0
    0.3171    0.3697    0.2415 C   0  0  0  1  0  0  0  0  0  0  0  0
    0.2743    1.6553   -0.3846 O   0  0  0  1  0  0  0  0  0  0  0  0
   -0.8179   -0.5134   -0.2507 C   0  0  0  1  0  0  0  0  0  0  0  0
   -2.5005    1.2478   -0.5314 C   0  0  0  1  0  0  0  0  0  0  0  0
   -2.2776    0.0856    1.6214 C   0  0  0  1  0  0  0  0  0  0  0  0
   -3.2033   -1.0875   -0.3242 C   0  0  0  1  0  0  0  0  0  0  0  0
   -2.2001   -0.0665    0.1298 N   0  3  0  1  0  0  0  0  0  0  0  0
    0.1634    0.5119    1.2908 H   0  0  0  1  0  0  0  0  0  0  0  0
    0.7600    1.6251   -1.2121 H   0  0  0  1  0  0  0  0  0  0  0  0
    2.4396    0.4735    0.3202 H   0  0  0  1  0  0  0  0  0  0  0  0
    1.7805   -1.0869    0.7502 H   0  0  0  1  0  0  0  0  0  0  0  0
   -0.6680   -1.4948    0.1484 H   0  0  0  1  0  0  0  0  0  0  0  0
   -0.7665   -0.5504   -1.3188 H   0  0  0  1  0  0  0  0  0  0  0  0
   -2.4340    1.1367   -1.5935 H   0  0  0  1  0  0  0  0  0  0  0  0
   -1.7930    1.9810   -0.2047 H   0  0  0  1  0  0  0  0  0  0  0  0
   -3.4885    1.5621   -0.2671 H   0  0  0  1  0  0  0  0  0  0  0  0
   -2.0340   -0.8458    2.0885 H   0  0  0  1  0  0  0  0  0  0  0  0
   -3.2697    0.3748    1.8991 H   0  0  0  1  0  0  0  0  0  0  0  0
   -1.5845    0.8360    1.9397 H   0  0  0  1  0  0  0  0  0  0  0  0
   -3.1736   -1.1679   -1.3907 H   0  0  0  1  0  0  0  0  0  0  0  0
   -4.1828   -0.7859   -0.0167 H   0  0  0  1  0  0  0  0  0  0  0  0
   -2.9685   -2.0361    0.1114 H   0  0  0  1  0  0  0  0  0  0  0  0
  1  2  1  0  0  0  0
  1  3  2  0  0  0  0
  1  4  1  0  0  0  0
  4  5  1  0  0  0  0
  4 14  1  0  0  0  0
  4 15  1  0  0  0  0
  5  6  1  0  0  0  0
  5  7  1  0  0  0  0
  5 12  1  0  0  0  0
  6 13  1  0  0  0  0
  7 11  1  0  0  0  0
  7 16  1  0  0  0  0
  7 17  1  0  0  0  0
  8 11  1  0  0  0  0
  8 18  1  0  0  0  0
  8 19  1  0  0  0  0
  8 20  1  0  0  0  0
  9 11  1  0  0  0  0
  9 21  1  0  0  0  0
  9 22  1  0  0  0  0
  9 23  1  0  0  0  0
 10 11  1  0  0  0  0
 10 24  1  0  0  0  0
 10 25  1  0  0  0  0
 10 26  1  0  0  0  0
M  END
> <ConfClashScore>
0 

> <ConfOneFourInteractionScore>
-0.960723 

> <ConfScore>
-0.351247 

> <ConfScorePBest>
0.0138625 

> <ConfTolerance>
0.25 

$$$$
152.****
  PyMOL2.4          3D                             0

 26 25  0  0  0  0  0  0  0  0999 V2000
    0.5589   -4.4049    0.1447 C   0  0  0  1  0  0  0  0  0  0  0  0
    1.8163   -4.6051    0.6229 O   0  5  0  1  0  0  0  0  0  0  0  0
   -0.3427   -5.2256    0.1894 O   0  0  0  1  0  0  0  0  0  0  0  0
    0.2825   -3.0655   -0.4812 C   0  0  0  1  0  0  0  0  0  0  0  0
   -0.6720   -2.1699    0.2915 C   0  0  0  1  0  0  0  0  0  0  0  0
   -0.0752   -1.8657    1.5556 O   0  0  0  1  0  0  0  0  0  0  0  0
   -1.0554   -0.9081   -0.4665 C   0  0  0  1  0  0  0  0  0  0  0  0
   -2.4249    1.1806   -0.6292 C   0  0  0  1  0  0  0  0  0  0  0  0
   -2.0599    0.1726    1.5558 C   0  0  0  1  0  0  0  0  0  0  0  0
   -3.4604   -1.0421   -0.1251 C   0  0  0  1  0  0  0  0  0  0  0  0
   -2.2501   -0.1489    0.0839 N   0  3  0  1  0  0  0  0  0  0  0  0
   -1.5691   -2.7274    0.4623 H   0  0  0  1  0  0  0  0  0  0  0  0
    0.7680   -1.4288    1.4151 H   0  0  0  1  0  0  0  0  0  0  0  0
   -0.1358   -3.2346   -1.4514 H   0  0  0  1  0  0  0  0  0  0  0  0
    1.2141   -2.5484   -0.5791 H   0  0  0  1  0  0  0  0  0  0  0  0
   -1.2783   -1.1854   -1.4756 H   0  0  0  1  0  0  0  0  0  0  0  0
   -0.2129   -0.2486   -0.4551 H   0  0  0  1  0  0  0  0  0  0  0  0
   -3.2626    1.7011   -0.2142 H   0  0  0  1  0  0  0  0  0  0  0  0
   -2.5941    1.0065   -1.6713 H   0  0  0  1  0  0  0  0  0  0  0  0
   -1.5411    1.7708   -0.5045 H   0  0  0  1  0  0  0  0  0  0  0  0
   -1.8750   -0.7313    2.0978 H   0  0  0  1  0  0  0  0  0  0  0  0
   -2.9437    0.6414    1.9354 H   0  0  0  1  0  0  0  0  0  0  0  0
   -1.2269    0.8342    1.6714 H   0  0  0  1  0  0  0  0  0  0  0  0
   -4.3328   -0.5576    0.2610 H   0  0  0  1  0  0  0  0  0  0  0  0
   -3.3115   -1.9696    0.3873 H   0  0  0  1  0  0  0  0  0  0  0  0
   -3.5895   -1.2284   -1.1708 H   0  0  0  1  0  0  0  0  0  0  0  0
  1  2  1  0  0  0  0
  1  3  2  0  0  0  0
  1  4  1  0  0  0  0
  4  5  1  0  0  0  0
  4 14  1  0  0  0  0
  4 15  1  0  0  0  0
  5  6  1  0  0  0  0
  5  7  1  0  0  0  0
  5 12  1  0  0  0  0
  6 13  1  0  0  0  0
  7 11  1  0  0  0  0
  7 16  1  0  0  0  0
  7 17  1  0  0  0  0
  8 11  1  0  0  0  0
  8 18  1  0  0  0  0
  8 19  1  0  0  0  0
  8 20  1  0  0  0  0
  9 11  1  0  0  0  0
  9 21  1  0  0  0  0
  9 22  1  0  0  0  0
  9 23  1  0  0  0  0
 10 11  1  0  0  0  0
 10 24  1  0  0  0  0
 10 25  1  0  0  0  0
 10 26  1  0  0  0  0
M  END
> <ConfClashScore>
0 

> <ConfOneFourInteractionScore>
-0.956427 

> <ConfScore>
-0.34269 

> <ConfScorePBest>
0.0137595 

> <ConfTolerance>
0.25 

$$$$
152.****
  PyMOL2.4          3D                             0

 26 25  0  0  0  0  0  0  0  0999 V2000
    1.8484   -2.1389    0.7226 C   0  0  0  1  0  0  0  0  0  0  0  0
    3.0198   -2.1203    0.0320 O   0  5  0  1  0  0  0  0  0  0  0  0
    1.7693   -1.6528    1.8388 O   0  0  0  1  0  0  0  0  0  0  0  0
    0.6933   -2.7909    0.0135 C   0  0  0  1  0  0  0  0  0  0  0  0
   -0.6974   -2.1793    0.3095 C   0  0  0  1  0  0  0  0  0  0  0  0
   -0.9412   -2.3602    1.7035 O   0  0  0  1  0  0  0  0  0  0  0  0
   -0.8691   -0.7524   -0.1615 C   0  0  0  1  0  0  0  0  0  0  0  0
   -2.3662    1.2104   -0.5733 C   0  0  0  1  0  0  0  0  0  0  0  0
   -2.2550    0.0687    1.6547 C   0  0  0  1  0  0  0  0  0  0  0  0
   -3.3542   -0.9936   -0.3295 C   0  0  0  1  0  0  0  0  0  0  0  0
   -2.2101   -0.1165    0.1483 N   0  3  0  1  0  0  0  0  0  0  0  0
   -1.4101   -2.7676   -0.2299 H   0  0  0  1  0  0  0  0  0  0  0  0
   -0.1354   -2.1853    2.1951 H   0  0  0  1  0  0  0  0  0  0  0  0
    0.6687   -3.8213    0.3009 H   0  0  0  1  0  0  0  0  0  0  0  0
    0.8687   -2.7178   -1.0395 H   0  0  0  1  0  0  0  0  0  0  0  0
   -0.7355   -0.7380   -1.2230 H   0  0  0  1  0  0  0  0  0  0  0  0
   -0.1088   -0.1592    0.3022 H   0  0  0  1  0  0  0  0  0  0  0  0
   -2.2087    1.0674   -1.6220 H   0  0  0  1  0  0  0  0  0  0  0  0
   -1.6471    1.9076   -0.1968 H   0  0  0  1  0  0  0  0  0  0  0  0
   -3.3526    1.5913   -0.4097 H   0  0  0  1  0  0  0  0  0  0  0  0
   -1.4091    0.6437    1.9692 H   0  0  0  1  0  0  0  0  0  0  0  0
   -2.2328   -0.8885    2.1324 H   0  0  0  1  0  0  0  0  0  0  0  0
   -3.1546    0.5815    1.9242 H   0  0  0  1  0  0  0  0  0  0  0  0
   -3.3633   -1.0175   -1.3992 H   0  0  0  1  0  0  0  0  0  0  0  0
   -4.2813   -0.5950    0.0260 H   0  0  0  1  0  0  0  0  0  0  0  0
   -3.2240   -1.9862    0.0481 H   0  0  0  1  0  0  0  0  0  0  0  0
  1  2  1  0  0  0  0
  1  3  2  0  0  0  0
  1  4  1  0  0  0  0
  4  5  1  0  0  0  0
  4 14  1  0  0  0  0
  4 15  1  0  0  0  0
  5  6  1  0  0  0  0
  5  7  1  0  0  0  0
  5 12  1  0  0  0  0
  6 13  1  0  0  0  0
  7 11  1  0  0  0  0
  7 16  1  0  0  0  0
  7 17  1  0  0  0  0
  8 11  1  0  0  0  0
  8 18  1  0  0  0  0
  8 19  1  0  0  0  0
  8 20  1  0  0  0  0
  9 11  1  0  0  0  0
  9 21  1  0  0  0  0
  9 22  1  0  0  0  0
  9 23  1  0  0  0  0
 10 11  1  0  0  0  0
 10 24  1  0  0  0  0
 10 25  1  0  0  0  0
 10 26  1  0  0  0  0
M  END
> <ConfClashScore>
0 

> <ConfOneFourInteractionScore>
-0.967202 

> <ConfScore>
-0.338702 

> <ConfScorePBest>
0.0136565 

> <ConfTolerance>
0.25 

$$$$
152.****
  PyMOL2.4          3D                             0

 26 25  0  0  0  0  0  0  0  0999 V2000
    1.2533   -3.7891   -0.1758 C   0  0  0  1  0  0  0  0  0  0  0  0
    2.1322   -3.7055    0.8586 O   0  5  0  1  0  0  0  0  0  0  0  0
    0.8783   -4.8545   -0.6370 O   0  0  0  1  0  0  0  0  0  0  0  0
    0.7647   -2.4754   -0.7248 C   0  0  0  1  0  0  0  0  0  0  0  0
   -0.3925   -1.8922    0.0687 C   0  0  0  1  0  0  0  0  0  0  0  0
    0.0858   -1.7084    1.4043 O   0  0  0  1  0  0  0  0  0  0  0  0
   -0.9091   -0.5820   -0.5060 C   0  0  0  1  0  0  0  0  0  0  0  0
   -2.4778    1.2746   -0.5573 C   0  0  0  1  0  0  0  0  0  0  0  0
   -2.1381    0.0298    1.5879 C   0  0  0  1  0  0  0  0  0  0  0  0
   -3.3531   -1.0467   -0.2226 C   0  0  0  1  0  0  0  0  0  0  0  0
   -2.2195   -0.0813    0.0756 N   0  3  0  1  0  0  0  0  0  0  0  0
   -1.1942   -2.6009    0.0683 H   0  0  0  1  0  0  0  0  0  0  0  0
   -0.1886   -2.4506    1.9479 H   0  0  0  1  0  0  0  0  0  0  0  0
    0.4436   -2.6264   -1.7343 H   0  0  0  1  0  0  0  0  0  0  0  0
    1.5751   -1.7769   -0.7085 H   0  0  0  1  0  0  0  0  0  0  0  0
   -1.0462   -0.7159   -1.5587 H   0  0  0  1  0  0  0  0  0  0  0  0
   -0.1653    0.1680   -0.3351 H   0  0  0  1  0  0  0  0  0  0  0  0
   -1.6323    1.9105   -0.3970 H   0  0  0  1  0  0  0  0  0  0  0  0
   -3.3452    1.7161   -0.1126 H   0  0  0  1  0  0  0  0  0  0  0  0
   -2.6380    1.1527   -1.6082 H   0  0  0  1  0  0  0  0  0  0  0  0
   -2.0620   -0.9486    2.0143 H   0  0  0  1  0  0  0  0  0  0  0  0
   -3.0186    0.5123    1.9577 H   0  0  0  1  0  0  0  0  0  0  0  0
   -1.2763    0.6039    1.8572 H   0  0  0  1  0  0  0  0  0  0  0  0
   -3.3638   -1.2731   -1.2683 H   0  0  0  1  0  0  0  0  0  0  0  0
   -4.2846   -0.5992    0.0547 H   0  0  0  1  0  0  0  0  0  0  0  0
   -3.2098   -1.9482    0.3357 H   0  0  0  1  0  0  0  0  0  0  0  0
  1  2  1  0  0  0  0
  1  3  2  0  0  0  0
  1  4  1  0  0  0  0
  4  5  1  0  0  0  0
  4 14  1  0  0  0  0
  4 15  1  0  0  0  0
  5  6  1  0  0  0  0
  5  7  1  0  0  0  0
  5 12  1  0  0  0  0
  6 13  1  0  0  0  0
  7 11  1  0  0  0  0
  7 16  1  0  0  0  0
  7 17  1  0  0  0  0
  8 11  1  0  0  0  0
  8 18  1  0  0  0  0
  8 19  1  0  0  0  0
  8 20  1  0  0  0  0
  9 11  1  0  0  0  0
  9 21  1  0  0  0  0
  9 22  1  0  0  0  0
  9 23  1  0  0  0  0
 10 11  1  0  0  0  0
 10 24  1  0  0  0  0
 10 25  1  0  0  0  0
 10 26  1  0  0  0  0
M  END
> <ConfClashScore>
0 

> <ConfOneFourInteractionScore>
-0.956427 

> <ConfScore>
-0.332132 

> <ConfScorePBest>
0.0135535 

> <ConfTolerance>
0.25 

$$$$
152.****
  PyMOL2.4          3D                             0

 26 25  0  0  0  0  0  0  0  0999 V2000
    1.1524   -2.6736   -2.7188 C   0  0  0  1  0  0  0  0  0  0  0  0
    2.4062   -2.1585   -2.8293 O   0  5  0  1  0  0  0  0  0  0  0  0
    0.5702   -3.2929   -3.5940 O   0  0  0  1  0  0  0  0  0  0  0  0
    0.5311   -2.4006   -1.3767 C   0  0  0  1  0  0  0  0  0  0  0  0
   -0.6895   -1.4698   -1.3937 C   0  0  0  1  0  0  0  0  0  0  0  0
   -1.7895   -2.0446   -2.0846 O   0  0  0  1  0  0  0  0  0  0  0  0
   -1.0807   -1.1451    0.0289 C   0  0  0  1  0  0  0  0  0  0  0  0
   -2.0366    1.0696   -0.6072 C   0  0  0  1  0  0  0  0  0  0  0  0
   -2.4231    0.2252    1.6367 C   0  0  0  1  0  0  0  0  0  0  0  0
   -3.4815   -0.9459   -0.3082 C   0  0  0  1  0  0  0  0  0  0  0  0
   -2.2545   -0.1972    0.1863 N   0  3  0  1  0  0  0  0  0  0  0  0
   -0.4023   -0.5596   -1.8774 H   0  0  0  1  0  0  0  0  0  0  0  0
   -1.6846   -1.9030   -3.0283 H   0  0  0  1  0  0  0  0  0  0  0  0
    1.2771   -1.9553   -0.7520 H   0  0  0  1  0  0  0  0  0  0  0  0
    0.2265   -3.3367   -0.9574 H   0  0  0  1  0  0  0  0  0  0  0  0
   -0.2337   -0.7027    0.5102 H   0  0  0  1  0  0  0  0  0  0  0  0
   -1.3310   -2.0628    0.5189 H   0  0  0  1  0  0  0  0  0  0  0  0
   -1.8809    0.8238   -1.6369 H   0  0  0  1  0  0  0  0  0  0  0  0
   -1.1774    1.5834   -0.2296 H   0  0  0  1  0  0  0  0  0  0  0  0
   -2.8973    1.6990   -0.5172 H   0  0  0  1  0  0  0  0  0  0  0  0
   -3.1662    0.9924    1.7012 H   0  0  0  1  0  0  0  0  0  0  0  0
   -1.4922    0.5983    2.0097 H   0  0  0  1  0  0  0  0  0  0  0  0
   -2.7296   -0.6178    2.2201 H   0  0  0  1  0  0  0  0  0  0  0  0
   -4.3594   -0.3719   -0.0969 H   0  0  0  1  0  0  0  0  0  0  0  0
   -3.5460   -1.8916    0.1881 H   0  0  0  1  0  0  0  0  0  0  0  0
   -3.4027   -1.1012   -1.3639 H   0  0  0  1  0  0  0  0  0  0  0  0
  1  2  1  0  0  0  0
  1  3  2  0  0  0  0
  1  4  1  0  0  0  0
  4  5  1  0  0  0  0
  4 14  1  0  0  0  0
  4 15  1  0  0  0  0
  5  6  1  0  0  0  0
  5  7  1  0  0  0  0
  5 12  1  0  0  0  0
  6 13  1  0  0  0  0
  7 11  1  0  0  0  0
  7 16  1  0  0  0  0
  7 17  1  0  0  0  0
  8 11  1  0  0  0  0
  8 18  1  0  0  0  0
  8 19  1  0  0  0  0
  8 20  1  0  0  0  0
  9 11  1  0  0  0  0
  9 21  1  0  0  0  0
  9 22  1  0  0  0  0
  9 23  1  0  0  0  0
 10 11  1  0  0  0  0
 10 24  1  0  0  0  0
 10 25  1  0  0  0  0
 10 26  1  0  0  0  0
M  END
> <ConfClashScore>
0 

> <ConfOneFourInteractionScore>
-0.959664 

> <ConfScore>
-0.330305 

> <ConfScorePBest>
0.0134505 

> <ConfTolerance>
0.25 

$$$$
152.****
  PyMOL2.4          3D                             0

 26 25  0  0  0  0  0  0  0  0999 V2000
    1.4991   -0.9324   -2.0606 C   0  0  0  1  0  0  0  0  0  0  0  0
    2.5364   -1.0930   -2.9253 O   0  5  0  1  0  0  0  0  0  0  0  0
    1.5865   -0.3236   -1.0070 O   0  0  0  1  0  0  0  0  0  0  0  0
    0.2427   -1.5963   -2.5670 C   0  0  0  1  0  0  0  0  0  0  0  0
   -0.9915   -0.8796   -2.0483 C   0  0  0  1  0  0  0  0  0  0  0  0
   -2.1163   -1.5203   -2.6573 O   0  0  0  1  0  0  0  0  0  0  0  0
   -1.1058   -0.9116   -0.5406 C   0  0  0  1  0  0  0  0  0  0  0  0
   -2.2970    1.2494   -0.4914 C   0  0  0  1  0  0  0  0  0  0  0  0
   -2.0743   -0.0881    1.5293 C   0  0  0  1  0  0  0  0  0  0  0  0
   -3.5644   -0.8520   -0.2320 C   0  0  0  1  0  0  0  0  0  0  0  0
   -2.2638   -0.1522    0.0389 N   0  3  0  1  0  0  0  0  0  0  0  0
   -0.9466    0.1419   -2.3636 H   0  0  0  1  0  0  0  0  0  0  0  0
   -1.9475   -2.4625   -2.7307 H   0  0  0  1  0  0  0  0  0  0  0  0
    0.2242   -2.6128   -2.2336 H   0  0  0  1  0  0  0  0  0  0  0  0
    0.2393   -1.5712   -3.6367 H   0  0  0  1  0  0  0  0  0  0  0  0
   -0.2058   -0.5000   -0.1337 H   0  0  0  1  0  0  0  0  0  0  0  0
   -1.1990   -1.9340   -0.2393 H   0  0  0  1  0  0  0  0  0  0  0  0
   -1.3290    1.6934   -0.3880 H   0  0  0  1  0  0  0  0  0  0  0  0
   -3.0128    1.8223    0.0603 H   0  0  0  1  0  0  0  0  0  0  0  0
   -2.5730    1.2329   -1.5251 H   0  0  0  1  0  0  0  0  0  0  0  0
   -2.9227    0.3857    1.9772 H   0  0  0  1  0  0  0  0  0  0  0  0
   -1.1924    0.4753    1.7526 H   0  0  0  1  0  0  0  0  0  0  0  0
   -1.9729   -1.0795    1.9187 H   0  0  0  1  0  0  0  0  0  0  0  0
   -3.5468   -1.8240    0.2149 H   0  0  0  1  0  0  0  0  0  0  0  0
   -3.7042   -0.9479   -1.2884 H   0  0  0  1  0  0  0  0  0  0  0  0
   -4.3689   -0.2827    0.1846 H   0  0  0  1  0  0  0  0  0  0  0  0
  1  2  1  0  0  0  0
  1  3  2  0  0  0  0
  1  4  1  0  0  0  0
  4  5  1  0  0  0  0
  4 14  1  0  0  0  0
  4 15  1  0  0  0  0
  5  6  1  0  0  0  0
  5  7  1  0  0  0  0
  5 12  1  0  0  0  0
  6 13  1  0  0  0  0
  7 11  1  0  0  0  0
  7 16  1  0  0  0  0
  7 17  1  0  0  0  0
  8 11  1  0  0  0  0
  8 18  1  0  0  0  0
  8 19  1  0  0  0  0
  8 20  1  0  0  0  0
  9 11  1  0  0  0  0
  9 21  1  0  0  0  0
  9 22  1  0  0  0  0
  9 23  1  0  0  0  0
 10 11  1  0  0  0  0
 10 24  1  0  0  0  0
 10 25  1  0  0  0  0
 10 26  1  0  0  0  0
M  END
> <ConfClashScore>
0 

> <ConfOneFourInteractionScore>
-0.959664 

> <ConfScore>
-0.325401 

> <ConfScorePBest>
0.0133475 

> <ConfTolerance>
0.270502 

$$$$
152.****
  PyMOL2.4          3D                             0

 26 25  0  0  0  0  0  0  0  0999 V2000
    2.9202   -0.2759    0.3661 C   0  0  0  1  0  0  0  0  0  0  0  0
    3.0403   -0.7011    1.6523 O   0  5  0  1  0  0  0  0  0  0  0  0
    3.7781    0.3679   -0.2152 O   0  0  0  1  0  0  0  0  0  0  0  0
    1.6086   -0.6972   -0.2390 C   0  0  0  1  0  0  0  0  0  0  0  0
    0.3481    0.0607    0.2003 C   0  0  0  1  0  0  0  0  0  0  0  0
    0.3460    1.4049   -0.2591 O   0  0  0  1  0  0  0  0  0  0  0  0
   -0.8722   -0.6693   -0.3183 C   0  0  0  1  0  0  0  0  0  0  0  0
   -2.3952    1.1960   -0.6571 C   0  0  0  1  0  0  0  0  0  0  0  0
   -2.2400    0.1497    1.6136 C   0  0  0  1  0  0  0  0  0  0  0  0
   -3.3400   -1.0738   -0.1791 C   0  0  0  1  0  0  0  0  0  0  0  0
   -2.2116   -0.0996    0.1148 N   0  3  0  1  0  0  0  0  0  0  0  0
    0.3138    0.0504    1.2697 H   0  0  0  1  0  0  0  0  0  0  0  0
    0.1566    1.9941    0.4748 H   0  0  0  1  0  0  0  0  0  0  0  0
    1.4618   -1.7293    0.0017 H   0  0  0  1  0  0  0  0  0  0  0  0
    1.6952   -0.5866   -1.2998 H   0  0  0  1  0  0  0  0  0  0  0  0
   -0.8195   -1.6820    0.0232 H   0  0  0  1  0  0  0  0  0  0  0  0
   -0.8369   -0.6507   -1.3875 H   0  0  0  1  0  0  0  0  0  0  0  0
   -1.5955    1.8674   -0.4233 H   0  0  0  1  0  0  0  0  0  0  0  0
   -3.3279    1.6441   -0.3847 H   0  0  0  1  0  0  0  0  0  0  0  0
   -2.3914    0.9891   -1.7069 H   0  0  0  1  0  0  0  0  0  0  0  0
   -2.0049   -0.7569    2.1310 H   0  0  0  1  0  0  0  0  0  0  0  0
   -3.2157    0.4815    1.9013 H   0  0  0  1  0  0  0  0  0  0  0  0
   -1.5194    0.9001    1.8639 H   0  0  0  1  0  0  0  0  0  0  0  0
   -4.2678   -0.6560    0.1517 H   0  0  0  1  0  0  0  0  0  0  0  0
   -3.1596   -1.9941    0.3361 H   0  0  0  1  0  0  0  0  0  0  0  0
   -3.3871   -1.2574   -1.2322 H   0  0  0  1  0  0  0  0  0  0  0  0
  1  2  1  0  0  0  0
  1  3  2  0  0  0  0
  1  4  1  0  0  0  0
  4  5  1  0  0  0  0
  4 14  1  0  0  0  0
  4 15  1  0  0  0  0
  5  6  1  0  0  0  0
  5  7  1  0  0  0  0
  5 12  1  0  0  0  0
  6 13  1  0  0  0  0
  7 11  1  0  0  0  0
  7 16  1  0  0  0  0
  7 17  1  0  0  0  0
  8 11  1  0  0  0  0
  8 18  1  0  0  0  0
  8 19  1  0  0  0  0
  8 20  1  0  0  0  0
  9 11  1  0  0  0  0
  9 21  1  0  0  0  0
  9 22  1  0  0  0  0
  9 23  1  0  0  0  0
 10 11  1  0  0  0  0
 10 24  1  0  0  0  0
 10 25  1  0  0  0  0
 10 26  1  0  0  0  0
M  END
> <ConfClashScore>
0 

> <ConfOneFourInteractionScore>
-0.959664 

> <ConfScore>
-0.323572 

> <ConfScorePBest>
0.0132445 

> <ConfTolerance>
0.25 

$$$$
152.****
  PyMOL2.4          3D                             0

 26 25  0  0  0  0  0  0  0  0999 V2000
   -0.1805   -3.7168   -1.8745 C   0  0  0  1  0  0  0  0  0  0  0  0
    1.1316   -3.7269   -2.2323 O   0  5  0  1  0  0  0  0  0  0  0  0
   -1.1184   -3.8002   -2.6502 O   0  0  0  1  0  0  0  0  0  0  0  0
   -0.3738   -3.5894   -0.3885 C   0  0  0  1  0  0  0  0  0  0  0  0
   -1.4928   -2.6568    0.0453 C   0  0  0  1  0  0  0  0  0  0  0  0
   -1.5408   -2.7206    1.4737 O   0  0  0  1  0  0  0  0  0  0  0  0
   -1.2915   -1.2247   -0.4256 C   0  0  0  1  0  0  0  0  0  0  0  0
   -2.0986    1.0478   -0.7256 C   0  0  0  1  0  0  0  0  0  0  0  0
   -2.0903    0.0534    1.5721 C   0  0  0  1  0  0  0  0  0  0  0  0
   -3.7178   -0.7388   -0.0517 C   0  0  0  1  0  0  0  0  0  0  0  0
   -2.2993   -0.2161    0.0923 N   0  3  0  1  0  0  0  0  0  0  0  0
   -2.4132   -3.0203   -0.3618 H   0  0  0  1  0  0  0  0  0  0  0  0
   -0.9503   -2.0603    1.8439 H   0  0  0  1  0  0  0  0  0  0  0  0
    0.5402   -3.2269    0.0334 H   0  0  0  1  0  0  0  0  0  0  0  0
   -0.5858   -4.5630    0.0015 H   0  0  0  1  0  0  0  0  0  0  0  0
   -1.3408   -1.2198   -1.4944 H   0  0  0  1  0  0  0  0  0  0  0  0
   -0.3187   -0.9087   -0.1114 H   0  0  0  1  0  0  0  0  0  0  0  0
   -2.7837    1.8000   -0.3945 H   0  0  0  1  0  0  0  0  0  0  0  0
   -2.2749    0.8351   -1.7593 H   0  0  0  1  0  0  0  0  0  0  0  0
   -1.0957    1.3986   -0.5991 H   0  0  0  1  0  0  0  0  0  0  0  0
   -2.6943    0.8839    1.8727 H   0  0  0  1  0  0  0  0  0  0  0  0
   -1.0597    0.2789    1.7513 H   0  0  0  1  0  0  0  0  0  0  0  0
   -2.3695   -0.8126    2.1351 H   0  0  0  1  0  0  0  0  0  0  0  0
   -4.3872   -0.1117    0.4992 H   0  0  0  1  0  0  0  0  0  0  0  0
   -3.7701   -1.7373    0.3291 H   0  0  0  1  0  0  0  0  0  0  0  0
   -3.9956   -0.7356   -1.0850 H   0  0  0  1  0  0  0  0  0  0  0  0
  1  2  1  0  0  0  0
  1  3  2  0  0  0  0
  1  4  1  0  0  0  0
  4  5  1  0  0  0  0
  4 14  1  0  0  0  0
  4 15  1  0  0  0  0
  5  6  1  0  0  0  0
  5  7  1  0  0  0  0
  5 12  1  0  0  0  0
  6 13  1  0  0  0  0
  7 11  1  0  0  0  0
  7 16  1  0  0  0  0
  7 17  1  0  0  0  0
  8 11  1  0  0  0  0
  8 18  1  0  0  0  0
  8 19  1  0  0  0  0
  8 20  1  0  0  0  0
  9 11  1  0  0  0  0
  9 21  1  0  0  0  0
  9 22  1  0  0  0  0
  9 23  1  0  0  0  0
 10 11  1  0  0  0  0
 10 24  1  0  0  0  0
 10 25  1  0  0  0  0
 10 26  1  0  0  0  0
M  END
> <ConfClashScore>
0 

> <ConfOneFourInteractionScore>
-0.959664 

> <ConfScore>
-0.323469 

> <ConfScorePBest>
0.0131415 

> <ConfTolerance>
0.25 

$$$$
152.****
  PyMOL2.4          3D                             0

 26 25  0  0  0  0  0  0  0  0999 V2000
   -0.1984   -4.6966   -0.7218 C   0  0  0  1  0  0  0  0  0  0  0  0
    0.0820   -5.5650   -1.7302 O   0  5  0  1  0  0  0  0  0  0  0  0
   -0.2684   -4.9980    0.4583 O   0  0  0  1  0  0  0  0  0  0  0  0
   -0.4363   -3.2637   -1.1143 C   0  0  0  1  0  0  0  0  0  0  0  0
   -0.8718   -2.3056   -0.0306 C   0  0  0  1  0  0  0  0  0  0  0  0
    0.1842   -2.2267    0.9209 O   0  0  0  1  0  0  0  0  0  0  0  0
   -1.1696   -0.9502   -0.6318 C   0  0  0  1  0  0  0  0  0  0  0  0
   -2.3941    1.2374   -0.5384 C   0  0  0  1  0  0  0  0  0  0  0  0
   -1.9846    0.0398    1.5274 C   0  0  0  1  0  0  0  0  0  0  0  0
   -3.5477   -0.9595   -0.1606 C   0  0  0  1  0  0  0  0  0  0  0  0
   -2.2730   -0.1581    0.0482 N   0  3  0  1  0  0  0  0  0  0  0  0
   -1.7593   -2.6836    0.4325 H   0  0  0  1  0  0  0  0  0  0  0  0
    1.0215   -2.4033    0.4858 H   0  0  0  1  0  0  0  0  0  0  0  0
   -1.1950   -3.2601   -1.8687 H   0  0  0  1  0  0  0  0  0  0  0  0
    0.4776   -2.8883   -1.5251 H   0  0  0  1  0  0  0  0  0  0  0  0
   -1.4525   -1.0983   -1.6531 H   0  0  0  1  0  0  0  0  0  0  0  0
   -0.2730   -0.3677   -0.5904 H   0  0  0  1  0  0  0  0  0  0  0  0
   -3.2614    1.7192   -0.1377 H   0  0  0  1  0  0  0  0  0  0  0  0
   -2.4834    1.1702   -1.6025 H   0  0  0  1  0  0  0  0  0  0  0  0
   -1.5229    1.8060   -0.2882 H   0  0  0  1  0  0  0  0  0  0  0  0
   -0.9982    0.4363    1.6491 H   0  0  0  1  0  0  0  0  0  0  0  0
   -2.0557   -0.9004    2.0333 H   0  0  0  1  0  0  0  0  0  0  0  0
   -2.6968    0.7227    1.9411 H   0  0  0  1  0  0  0  0  0  0  0  0
   -3.6863   -1.1444   -1.2053 H   0  0  0  1  0  0  0  0  0  0  0  0
   -4.3822   -0.4065    0.2172 H   0  0  0  1  0  0  0  0  0  0  0  0
   -3.4719   -1.8915    0.3594 H   0  0  0  1  0  0  0  0  0  0  0  0
  1  2  1  0  0  0  0
  1  3  2  0  0  0  0
  1  4  1  0  0  0  0
  4  5  1  0  0  0  0
  4 14  1  0  0  0  0
  4 15  1  0  0  0  0
  5  6  1  0  0  0  0
  5  7  1  0  0  0  0
  5 12  1  0  0  0  0
  6 13  1  0  0  0  0
  7 11  1  0  0  0  0
  7 16  1  0  0  0  0
  7 17  1  0  0  0  0
  8 11  1  0  0  0  0
  8 18  1  0  0  0  0
  8 19  1  0  0  0  0
  8 20  1  0  0  0  0
  9 11  1  0  0  0  0
  9 21  1  0  0  0  0
  9 22  1  0  0  0  0
  9 23  1  0  0  0  0
 10 11  1  0  0  0  0
 10 24  1  0  0  0  0
 10 25  1  0  0  0  0
 10 26  1  0  0  0  0
M  END
> <ConfClashScore>
0 

> <ConfOneFourInteractionScore>
-0.947927 

> <ConfScore>
-0.309136 

> <ConfScorePBest>
0.0130385 

> <ConfTolerance>
0.25 

$$$$
152.****
  PyMOL2.4          3D                             0

 26 25  0  0  0  0  0  0  0  0999 V2000
    0.4753   -3.2638    2.3168 C   0  0  0  1  0  0  0  0  0  0  0  0
    1.1019   -2.9719    3.4881 O   0  5  0  1  0  0  0  0  0  0  0  0
    0.4274   -4.3847    1.8377 O   0  0  0  1  0  0  0  0  0  0  0  0
   -0.1428   -2.0408    1.6969 C   0  0  0  1  0  0  0  0  0  0  0  0
   -0.7795   -2.2527    0.3331 C   0  0  0  1  0  0  0  0  0  0  0  0
   -1.9548   -3.0593    0.4210 O   0  0  0  1  0  0  0  0  0  0  0  0
   -1.0765   -0.9668   -0.4211 C   0  0  0  1  0  0  0  0  0  0  0  0
   -2.1891    1.1848   -0.6049 C   0  0  0  1  0  0  0  0  0  0  0  0
   -2.1858    0.0018    1.6012 C   0  0  0  1  0  0  0  0  0  0  0  0
   -3.5667   -0.8662   -0.2023 C   0  0  0  1  0  0  0  0  0  0  0  0
   -2.2540   -0.1621    0.0932 N   0  3  0  1  0  0  0  0  0  0  0  0
   -0.0642   -2.7894   -0.2544 H   0  0  0  1  0  0  0  0  0  0  0  0
   -2.3061   -3.2108   -0.4595 H   0  0  0  1  0  0  0  0  0  0  0  0
    0.6231   -1.3009    1.5923 H   0  0  0  1  0  0  0  0  0  0  0  0
   -0.8994   -1.6801    2.3620 H   0  0  0  1  0  0  0  0  0  0  0  0
   -1.2728   -1.2218   -1.4415 H   0  0  0  1  0  0  0  0  0  0  0  0
   -0.2062   -0.3464   -0.3691 H   0  0  0  1  0  0  0  0  0  0  0  0
   -1.2061    1.5943   -0.5003 H   0  0  0  1  0  0  0  0  0  0  0  0
   -2.9011    1.8500   -0.1629 H   0  0  0  1  0  0  0  0  0  0  0  0
   -2.4142    1.0593   -1.6434 H   0  0  0  1  0  0  0  0  0  0  0  0
   -2.9032    0.7315    1.9140 H   0  0  0  1  0  0  0  0  0  0  0  0
   -1.2045    0.3241    1.8807 H   0  0  0  1  0  0  0  0  0  0  0  0
   -2.4016   -0.9347    2.0717 H   0  0  0  1  0  0  0  0  0  0  0  0
   -3.6705   -0.9998   -1.2588 H   0  0  0  1  0  0  0  0  0  0  0  0
   -4.3792   -0.2738    0.1636 H   0  0  0  1  0  0  0  0  0  0  0  0
   -3.5754   -1.8212    0.2803 H   0  0  0  1  0  0  0  0  0  0  0  0
  1  2  1  0  0  0  0
  1  3  2  0  0  0  0
  1  4  1  0  0  0  0
  4  5  1  0  0  0  0
  4 14  1  0  0  0  0
  4 15  1  0  0  0  0
  5  6  1  0  0  0  0
  5  7  1  0  0  0  0
  5 12  1  0  0  0  0
  6 13  1  0  0  0  0
  7 11  1  0  0  0  0
  7 16  1  0  0  0  0
  7 17  1  0  0  0  0
  8 11  1  0  0  0  0
  8 18  1  0  0  0  0
  8 19  1  0  0  0  0
  8 20  1  0  0  0  0
  9 11  1  0  0  0  0
  9 21  1  0  0  0  0
  9 22  1  0  0  0  0
  9 23  1  0  0  0  0
 10 11  1  0  0  0  0
 10 24  1  0  0  0  0
 10 25  1  0  0  0  0
 10 26  1  0  0  0  0
M  END
> <ConfClashScore>
0.000769508 

> <ConfOneFourInteractionScore>
-0.982731 

> <ConfScore>
-0.307046 

> <ConfScorePBest>
0.0129355 

> <ConfTolerance>
0.255912 

$$$$
152.****
  PyMOL2.4          3D                             0

 26 25  0  0  0  0  0  0  0  0999 V2000
    0.3819   -3.2293   -1.1076 C   0  0  0  1  0  0  0  0  0  0  0  0
    1.1494   -3.5865   -0.0432 O   0  5  0  1  0  0  0  0  0  0  0  0
   -0.5290   -3.8800   -1.5928 O   0  0  0  1  0  0  0  0  0  0  0  0
    0.6923   -1.8926   -1.7497 C   0  0  0  1  0  0  0  0  0  0  0  0
   -0.4996   -0.9705   -1.5508 C   0  0  0  1  0  0  0  0  0  0  0  0
   -1.6268   -1.4223   -2.3069 O   0  0  0  1  0  0  0  0  0  0  0  0
   -0.9004   -0.8434   -0.0968 C   0  0  0  1  0  0  0  0  0  0  0  0
   -2.1828    1.1435   -0.6559 C   0  0  0  1  0  0  0  0  0  0  0  0
   -2.3943    0.1653    1.6390 C   0  0  0  1  0  0  0  0  0  0  0  0
   -3.3932   -1.0085   -0.2419 C   0  0  0  1  0  0  0  0  0  0  0  0
   -2.2173   -0.1362    0.1612 N   0  3  0  1  0  0  0  0  0  0  0  0
   -0.2190    0.0020   -1.8977 H   0  0  0  1  0  0  0  0  0  0  0  0
   -1.5971   -2.3786   -2.3861 H   0  0  0  1  0  0  0  0  0  0  0  0
    0.8723   -2.0284   -2.7956 H   0  0  0  1  0  0  0  0  0  0  0  0
    1.5592   -1.4651   -1.2907 H   0  0  0  1  0  0  0  0  0  0  0  0
   -0.1304   -0.3004    0.4104 H   0  0  0  1  0  0  0  0  0  0  0  0
   -0.9708   -1.8296    0.3124 H   0  0  0  1  0  0  0  0  0  0  0  0
   -2.3168    0.9099   -1.6914 H   0  0  0  1  0  0  0  0  0  0  0  0
   -1.2388    1.6284   -0.5191 H   0  0  0  1  0  0  0  0  0  0  0  0
   -2.9686    1.7940   -0.3327 H   0  0  0  1  0  0  0  0  0  0  0  0
   -1.7069    0.9311    1.9322 H   0  0  0  1  0  0  0  0  0  0  0  0
   -2.2051   -0.7205    2.2086 H   0  0  0  1  0  0  0  0  0  0  0  0
   -3.3956    0.4977    1.8175 H   0  0  0  1  0  0  0  0  0  0  0  0
   -4.3079   -0.4985   -0.0227 H   0  0  0  1  0  0  0  0  0  0  0  0
   -3.3583   -1.9282    0.3038 H   0  0  0  1  0  0  0  0  0  0  0  0
   -3.3419   -1.2135   -1.2908 H   0  0  0  1  0  0  0  0  0  0  0  0
  1  2  1  0  0  0  0
  1  3  2  0  0  0  0
  1  4  1  0  0  0  0
  4  5  1  0  0  0  0
  4 14  1  0  0  0  0
  4 15  1  0  0  0  0
  5  6  1  0  0  0  0
  5  7  1  0  0  0  0
  5 12  1  0  0  0  0
  6 13  1  0  0  0  0
  7 11  1  0  0  0  0
  7 16  1  0  0  0  0
  7 17  1  0  0  0  0
  8 11  1  0  0  0  0
  8 18  1  0  0  0  0
  8 19  1  0  0  0  0
  8 20  1  0  0  0  0
  9 11  1  0  0  0  0
  9 21  1  0  0  0  0
  9 22  1  0  0  0  0
  9 23  1  0  0  0  0
 10 11  1  0  0  0  0
 10 24  1  0  0  0  0
 10 25  1  0  0  0  0
 10 26  1  0  0  0  0
M  END
> <ConfClashScore>
0 

> <ConfOneFourInteractionScore>
-0.978527 

> <ConfScore>
-0.298159 

> <ConfScorePBest>
0.0128325 

> <ConfTolerance>
0.25 

$$$$
152.****
  PyMOL2.4          3D                             0

 26 25  0  0  0  0  0  0  0  0999 V2000
    0.1835   -3.4802   -1.9849 C   0  0  0  1  0  0  0  0  0  0  0  0
   -0.1730   -4.2970   -3.0121 O   0  5  0  1  0  0  0  0  0  0  0  0
    0.5123   -3.8860   -0.8823 O   0  0  0  1  0  0  0  0  0  0  0  0
    0.1205   -2.0303   -2.3796 C   0  0  0  1  0  0  0  0  0  0  0  0
   -1.1048   -1.2749   -1.8916 C   0  0  0  1  0  0  0  0  0  0  0  0
   -2.3164   -1.9001   -2.3251 O   0  0  0  1  0  0  0  0  0  0  0  0
   -1.1366   -1.0469   -0.3968 C   0  0  0  1  0  0  0  0  0  0  0  0
   -2.2267    1.1604   -0.5984 C   0  0  0  1  0  0  0  0  0  0  0  0
   -2.1455    0.0171    1.5888 C   0  0  0  1  0  0  0  0  0  0  0  0
   -3.5527   -0.8428   -0.2002 C   0  0  0  1  0  0  0  0  0  0  0  0
   -2.2459   -0.1676    0.1021 N   0  3  0  1  0  0  0  0  0  0  0  0
   -1.0632   -0.3059   -2.3435 H   0  0  0  1  0  0  0  0  0  0  0  0
   -2.1706   -2.8431   -2.4298 H   0  0  0  1  0  0  0  0  0  0  0  0
    0.1366   -1.9781   -3.4482 H   0  0  0  1  0  0  0  0  0  0  0  0
    0.9875   -1.5428   -1.9851 H   0  0  0  1  0  0  0  0  0  0  0  0
   -0.2078   -0.5979   -0.1128 H   0  0  0  1  0  0  0  0  0  0  0  0
   -1.2329   -2.0002    0.0794 H   0  0  0  1  0  0  0  0  0  0  0  0
   -1.3290    1.6848   -0.3452 H   0  0  0  1  0  0  0  0  0  0  0  0
   -3.0746    1.7369   -0.2926 H   0  0  0  1  0  0  0  0  0  0  0  0
   -2.2627    1.0057   -1.6565 H   0  0  0  1  0  0  0  0  0  0  0  0
   -3.0292    0.5011    1.9490 H   0  0  0  1  0  0  0  0  0  0  0  0
   -1.2912    0.6198    1.8162 H   0  0  0  1  0  0  0  0  0  0  0  0
   -2.0448   -0.9380    2.0606 H   0  0  0  1  0  0  0  0  0  0  0  0
   -3.6864   -0.9037   -1.2601 H   0  0  0  1  0  0  0  0  0  0  0  0
   -4.3536   -0.2772    0.2282 H   0  0  0  1  0  0  0  0  0  0  0  0
   -3.5492   -1.8286    0.2158 H   0  0  0  1  0  0  0  0  0  0  0  0
  1  2  1  0  0  0  0
  1  3  2  0  0  0  0
  1  4  1  0  0  0  0
  4  5  1  0  0  0  0
  4 14  1  0  0  0  0
  4 15  1  0  0  0  0
  5  6  1  0  0  0  0
  5  7  1  0  0  0  0
  5 12  1  0  0  0  0
  6 13  1  0  0  0  0
  7 11  1  0  0  0  0
  7 16  1  0  0  0  0
  7 17  1  0  0  0  0
  8 11  1  0  0  0  0
  8 18  1  0  0  0  0
  8 19  1  0  0  0  0
  8 20  1  0  0  0  0
  9 11  1  0  0  0  0
  9 21  1  0  0  0  0
  9 22  1  0  0  0  0
  9 23  1  0  0  0  0
 10 11  1  0  0  0  0
 10 24  1  0  0  0  0
 10 25  1  0  0  0  0
 10 26  1  0  0  0  0
M  END
> <ConfClashScore>
0 

> <ConfOneFourInteractionScore>
-0.967202 

> <ConfScore>
-0.293663 

> <ConfScorePBest>
0.0127295 

> <ConfTolerance>
0.25 

$$$$
152.****
  PyMOL2.4          3D                             0

 26 25  0  0  0  0  0  0  0  0999 V2000
    0.3176   -2.8777   -2.2923 C   0  0  0  1  0  0  0  0  0  0  0  0
   -0.3160   -4.0310   -2.6358 O   0  5  0  1  0  0  0  0  0  0  0  0
    1.2531   -2.8019   -1.5128 O   0  0  0  1  0  0  0  0  0  0  0  0
   -0.1893   -1.6150   -2.9330 C   0  0  0  1  0  0  0  0  0  0  0  0
   -1.3589   -0.9514   -2.2277 C   0  0  0  1  0  0  0  0  0  0  0  0
   -2.5085   -1.7553   -2.5083 O   0  0  0  1  0  0  0  0  0  0  0  0
   -1.1505   -0.8130   -0.7361 C   0  0  0  1  0  0  0  0  0  0  0  0
   -2.4770    1.2881   -0.4831 C   0  0  0  1  0  0  0  0  0  0  0  0
   -1.8721   -0.1132    1.4877 C   0  0  0  1  0  0  0  0  0  0  0  0
   -3.5815   -0.8794   -0.1600 C   0  0  0  1  0  0  0  0  0  0  0  0
   -2.2739   -0.1292    0.0232 N   0  3  0  1  0  0  0  0  0  0  0  0
   -1.4941    0.0253   -2.6434 H   0  0  0  1  0  0  0  0  0  0  0  0
   -2.7272   -2.2823   -1.7363 H   0  0  0  1  0  0  0  0  0  0  0  0
   -0.4963   -1.8512   -3.9305 H   0  0  0  1  0  0  0  0  0  0  0  0
    0.6182   -0.9137   -2.9645 H   0  0  0  1  0  0  0  0  0  0  0  0
   -0.2559   -0.2472   -0.5800 H   0  0  0  1  0  0  0  0  0  0  0  0
   -1.0279   -1.7948   -0.3286 H   0  0  0  1  0  0  0  0  0  0  0  0
   -3.3605    1.7014   -0.0433 H   0  0  0  1  0  0  0  0  0  0  0  0
   -2.5817    1.2746   -1.5479 H   0  0  0  1  0  0  0  0  0  0  0  0
   -1.6318    1.8869   -0.2149 H   0  0  0  1  0  0  0  0  0  0  0  0
   -0.9672    0.4460    1.6036 H   0  0  0  1  0  0  0  0  0  0  0  0
   -1.7169   -1.1165    1.8256 H   0  0  0  1  0  0  0  0  0  0  0  0
   -2.6490    0.3422    2.0655 H   0  0  0  1  0  0  0  0  0  0  0  0
   -3.4288   -1.9186    0.0444 H   0  0  0  1  0  0  0  0  0  0  0  0
   -3.9224   -0.7606   -1.1673 H   0  0  0  1  0  0  0  0  0  0  0  0
   -4.3146   -0.4876    0.5137 H   0  0  0  1  0  0  0  0  0  0  0  0
  1  2  1  0  0  0  0
  1  3  2  0  0  0  0
  1  4  1  0  0  0  0
  4  5  1  0  0  0  0
  4 14  1  0  0  0  0
  4 15  1  0  0  0  0
  5  6  1  0  0  0  0
  5  7  1  0  0  0  0
  5 12  1  0  0  0  0
  6 13  1  0  0  0  0
  7 11  1  0  0  0  0
  7 16  1  0  0  0  0
  7 17  1  0  0  0  0
  8 11  1  0  0  0  0
  8 18  1  0  0  0  0
  8 19  1  0  0  0  0
  8 20  1  0  0  0  0
  9 11  1  0  0  0  0
  9 21  1  0  0  0  0
  9 22  1  0  0  0  0
  9 23  1  0  0  0  0
 10 11  1  0  0  0  0
 10 24  1  0  0  0  0
 10 25  1  0  0  0  0
 10 26  1  0  0  0  0
M  END
> <ConfClashScore>
0 

> <ConfOneFourInteractionScore>
-0.952223 

> <ConfScore>
-0.292675 

> <ConfScorePBest>
0.0126265 

> <ConfTolerance>
0.25 

$$$$
152.****
  PyMOL2.4          3D                             0

 26 25  0  0  0  0  0  0  0  0999 V2000
    0.5447   -3.3458   -1.3347 C   0  0  0  1  0  0  0  0  0  0  0  0
    1.0658   -4.1454   -2.3035 O   0  5  0  1  0  0  0  0  0  0  0  0
   -0.0468   -3.7990   -0.3687 O   0  0  0  1  0  0  0  0  0  0  0  0
    0.8046   -1.8939   -1.6356 C   0  0  0  1  0  0  0  0  0  0  0  0
   -0.4404   -1.0167   -1.4786 C   0  0  0  1  0  0  0  0  0  0  0  0
   -1.5125   -1.5185   -2.2819 O   0  0  0  1  0  0  0  0  0  0  0  0
   -0.8819   -0.8316   -0.0360 C   0  0  0  1  0  0  0  0  0  0  0  0
   -2.2460    1.1568   -0.6299 C   0  0  0  1  0  0  0  0  0  0  0  0
   -2.3953    0.1805    1.6315 C   0  0  0  1  0  0  0  0  0  0  0  0
   -3.3278   -1.0382   -0.2730 C   0  0  0  1  0  0  0  0  0  0  0  0
   -2.1954   -0.1221    0.1568 N   0  3  0  1  0  0  0  0  0  0  0  0
   -0.1802   -0.0469   -1.8483 H   0  0  0  1  0  0  0  0  0  0  0  0
   -1.8208   -0.8275   -2.8728 H   0  0  0  1  0  0  0  0  0  0  0  0
    1.1538   -1.8122   -2.6437 H   0  0  0  1  0  0  0  0  0  0  0  0
    1.5592   -1.5371   -0.9662 H   0  0  0  1  0  0  0  0  0  0  0  0
   -0.1261   -0.2676    0.4696 H   0  0  0  1  0  0  0  0  0  0  0  0
   -0.9628   -1.8007    0.4102 H   0  0  0  1  0  0  0  0  0  0  0  0
   -2.1672    0.9371   -1.6741 H   0  0  0  1  0  0  0  0  0  0  0  0
   -1.4336    1.7882   -0.3362 H   0  0  0  1  0  0  0  0  0  0  0  0
   -3.1731    1.6559   -0.4396 H   0  0  0  1  0  0  0  0  0  0  0  0
   -1.5580    0.7363    1.9988 H   0  0  0  1  0  0  0  0  0  0  0  0
   -2.4802   -0.7371    2.1753 H   0  0  0  1  0  0  0  0  0  0  0  0
   -3.2885    0.7555    1.7595 H   0  0  0  1  0  0  0  0  0  0  0  0
   -4.2661   -0.5667   -0.0678 H   0  0  0  1  0  0  0  0  0  0  0  0
   -3.2658   -1.9594    0.2678 H   0  0  0  1  0  0  0  0  0  0  0  0
   -3.2492   -1.2340   -1.3220 H   0  0  0  1  0  0  0  0  0  0  0  0
  1  2  1  0  0  0  0
  1  3  2  0  0  0  0
  1  4  1  0  0  0  0
  4  5  1  0  0  0  0
  4 14  1  0  0  0  0
  4 15  1  0  0  0  0
  5  6  1  0  0  0  0
  5  7  1  0  0  0  0
  5 12  1  0  0  0  0
  6 13  1  0  0  0  0
  7 11  1  0  0  0  0
  7 16  1  0  0  0  0
  7 17  1  0  0  0  0
  8 11  1  0  0  0  0
  8 18  1  0  0  0  0
  8 19  1  0  0  0  0
  8 20  1  0  0  0  0
  9 11  1  0  0  0  0
  9 21  1  0  0  0  0
  9 22  1  0  0  0  0
  9 23  1  0  0  0  0
 10 11  1  0  0  0  0
 10 24  1  0  0  0  0
 10 25  1  0  0  0  0
 10 26  1  0  0  0  0
M  END
> <ConfClashScore>
0 

> <ConfOneFourInteractionScore>
-0.967202 

> <ConfScore>
-0.286579 

> <ConfScorePBest>
0.0125235 

> <ConfTolerance>
0.25 

$$$$
152.****
  PyMOL2.4          3D                             0

 26 25  0  0  0  0  0  0  0  0999 V2000
    1.1332   -2.4148   -1.4916 C   0  0  0  1  0  0  0  0  0  0  0  0
   -0.0334   -3.0573   -1.7670 O   0  5  0  1  0  0  0  0  0  0  0  0
    2.0723   -2.3137   -2.2639 O   0  0  0  1  0  0  0  0  0  0  0  0
    1.2522   -1.7901   -0.1273 C   0  0  0  1  0  0  0  0  0  0  0  0
    0.2499   -0.6815    0.1062 C   0  0  0  1  0  0  0  0  0  0  0  0
    0.4681    0.3895   -0.7974 O   0  0  0  1  0  0  0  0  0  0  0  0
   -1.1523   -1.1944   -0.1350 C   0  0  0  1  0  0  0  0  0  0  0  0
   -2.1275    1.0426   -0.6890 C   0  0  0  1  0  0  0  0  0  0  0  0
   -2.1818    0.1129    1.6317 C   0  0  0  1  0  0  0  0  0  0  0  0
   -3.6195   -0.7979   -0.1951 C   0  0  0  1  0  0  0  0  0  0  0  0
   -2.2710   -0.2086    0.1540 N   0  3  0  1  0  0  0  0  0  0  0  0
    0.3287   -0.3421    1.1179 H   0  0  0  1  0  0  0  0  0  0  0  0
    0.6814    0.0383   -1.6651 H   0  0  0  1  0  0  0  0  0  0  0  0
    2.2374   -1.3861   -0.0224 H   0  0  0  1  0  0  0  0  0  0  0  0
    1.0974   -2.5500    0.6100 H   0  0  0  1  0  0  0  0  0  0  0  0
   -1.3005   -2.0520    0.4875 H   0  0  0  1  0  0  0  0  0  0  0  0
   -1.2250   -1.4824   -1.1630 H   0  0  0  1  0  0  0  0  0  0  0  0
   -1.2833    1.6063   -0.3506 H   0  0  0  1  0  0  0  0  0  0  0  0
   -3.0126    1.6369   -0.5983 H   0  0  0  1  0  0  0  0  0  0  0  0
   -1.9851    0.7679   -1.7133 H   0  0  0  1  0  0  0  0  0  0  0  0
   -2.7856    0.9694    1.8480 H   0  0  0  1  0  0  0  0  0  0  0  0
   -1.1644    0.3196    1.8907 H   0  0  0  1  0  0  0  0  0  0  0  0
   -2.5324   -0.7230    2.2002 H   0  0  0  1  0  0  0  0  0  0  0  0
   -4.3938   -0.1324    0.1250 H   0  0  0  1  0  0  0  0  0  0  0  0
   -3.7344   -1.7412    0.2968 H   0  0  0  1  0  0  0  0  0  0  0  0
   -3.6844   -0.9371   -1.2540 H   0  0  0  1  0  0  0  0  0  0  0  0
  1  2  1  0  0  0  0
  1  3  2  0  0  0  0
  1  4  1  0  0  0  0
  4  5  1  0  0  0  0
  4 14  1  0  0  0  0
  4 15  1  0  0  0  0
  5  6  1  0  0  0  0
  5  7  1  0  0  0  0
  5 12  1  0  0  0  0
  6 13  1  0  0  0  0
  7 11  1  0  0  0  0
  7 16  1  0  0  0  0
  7 17  1  0  0  0  0
  8 11  1  0  0  0  0
  8 18  1  0  0  0  0
  8 19  1  0  0  0  0
  8 20  1  0  0  0  0
  9 11  1  0  0  0  0
  9 21  1  0  0  0  0
  9 22  1  0  0  0  0
  9 23  1  0  0  0  0
 10 11  1  0  0  0  0
 10 24  1  0  0  0  0
 10 25  1  0  0  0  0
 10 26  1  0  0  0  0
M  END
> <ConfClashScore>
0 

> <ConfOneFourInteractionScore>
-0.960723 

> <ConfScore>
-0.280189 

> <ConfScorePBest>
0.0124205 

> <ConfTolerance>
0.2673 

$$$$
152.****
  PyMOL2.4          3D                             0

 26 25  0  0  0  0  0  0  0  0999 V2000
    0.4388   -3.1015   -1.8267 C   0  0  0  1  0  0  0  0  0  0  0  0
    1.3303   -2.1433   -2.1962 O   0  5  0  1  0  0  0  0  0  0  0  0
   -0.1048   -3.8803   -2.5924 O   0  0  0  1  0  0  0  0  0  0  0  0
    0.1133   -3.1893   -0.3562 C   0  0  0  1  0  0  0  0  0  0  0  0
   -1.1943   -2.4801   -0.0509 C   0  0  0  1  0  0  0  0  0  0  0  0
   -1.4013   -2.6555    1.3537 O   0  0  0  1  0  0  0  0  0  0  0  0
   -1.1323   -1.0148   -0.4133 C   0  0  0  1  0  0  0  0  0  0  0  0
   -2.2319    1.1705   -0.5769 C   0  0  0  1  0  0  0  0  0  0  0  0
   -2.1261    0.0006    1.5807 C   0  0  0  1  0  0  0  0  0  0  0  0
   -3.5727   -0.8442   -0.2116 C   0  0  0  1  0  0  0  0  0  0  0  0
   -2.2657   -0.1715    0.0957 N   0  3  0  1  0  0  0  0  0  0  0  0
   -1.9829   -2.9462   -0.6039 H   0  0  0  1  0  0  0  0  0  0  0  0
   -0.7558   -2.1373    1.8399 H   0  0  0  1  0  0  0  0  0  0  0  0
    0.9004   -2.7311    0.2053 H   0  0  0  1  0  0  0  0  0  0  0  0
    0.0276   -4.2186   -0.0767 H   0  0  0  1  0  0  0  0  0  0  0  0
   -1.1201   -0.9401   -1.4806 H   0  0  0  1  0  0  0  0  0  0  0  0
   -0.2219   -0.6161   -0.0170 H   0  0  0  1  0  0  0  0  0  0  0  0
   -1.3136    1.6659   -0.3398 H   0  0  0  1  0  0  0  0  0  0  0  0
   -3.0549    1.7620   -0.2338 H   0  0  0  1  0  0  0  0  0  0  0  0
   -2.3031    1.0400   -1.6366 H   0  0  0  1  0  0  0  0  0  0  0  0
   -2.9099    0.6329    1.9422 H   0  0  0  1  0  0  0  0  0  0  0  0
   -1.1785    0.4465    1.8002 H   0  0  0  1  0  0  0  0  0  0  0  0
   -2.1902   -0.9550    2.0578 H   0  0  0  1  0  0  0  0  0  0  0  0
   -3.6216   -1.0691   -1.2565 H   0  0  0  1  0  0  0  0  0  0  0  0
   -4.3795   -0.1923    0.0509 H   0  0  0  1  0  0  0  0  0  0  0  0
   -3.6481   -1.7507    0.3520 H   0  0  0  1  0  0  0  0  0  0  0  0
  1  2  1  0  0  0  0
  1  3  2  0  0  0  0
  1  4  1  0  0  0  0
  4  5  1  0  0  0  0
  4 14  1  0  0  0  0
  4 15  1  0  0  0  0
  5  6  1  0  0  0  0
  5  7  1  0  0  0  0
  5 12  1  0  0  0  0
  6 13  1  0  0  0  0
  7 11  1  0  0  0  0
  7 16  1  0  0  0  0
  7 17  1  0  0  0  0
  8 11  1  0  0  0  0
  8 18  1  0  0  0  0
  8 19  1  0  0  0  0
  8 20  1  0  0  0  0
  9 11  1  0  0  0  0
  9 21  1  0  0  0  0
  9 22  1  0  0  0  0
  9 23  1  0  0  0  0
 10 11  1  0  0  0  0
 10 24  1  0  0  0  0
 10 25  1  0  0  0  0
 10 26  1  0  0  0  0
M  END
> <ConfClashScore>
0 

> <ConfOneFourInteractionScore>
-0.959664 

> <ConfScore>
-0.276194 

> <ConfScorePBest>
0.0123175 

> <ConfTolerance>
0.25 

$$$$
152.****
  PyMOL2.4          3D                             0

 26 25  0  0  0  0  0  0  0  0999 V2000
    1.3225   -2.4422    0.5552 C   0  0  0  1  0  0  0  0  0  0  0  0
    1.3973   -3.5422   -0.2410 O   0  5  0  1  0  0  0  0  0  0  0  0
    1.1627   -2.4930    1.7637 O   0  0  0  1  0  0  0  0  0  0  0  0
    1.4606   -1.1704   -0.2381 C   0  0  0  1  0  0  0  0  0  0  0  0
    0.2487   -0.2627   -0.1226 C   0  0  0  1  0  0  0  0  0  0  0  0
    0.2886    0.7416   -1.1222 O   0  0  0  1  0  0  0  0  0  0  0  0
   -1.0541   -1.0063   -0.3013 C   0  0  0  1  0  0  0  0  0  0  0  0
   -2.2761    1.1533   -0.6270 C   0  0  0  1  0  0  0  0  0  0  0  0
   -2.1847    0.1698    1.5971 C   0  0  0  1  0  0  0  0  0  0  0  0
   -3.4845   -0.9960   -0.1955 C   0  0  0  1  0  0  0  0  0  0  0  0
   -2.2498   -0.1694    0.1184 N   0  3  0  1  0  0  0  0  0  0  0  0
    0.2523    0.1882    0.8477 H   0  0  0  1  0  0  0  0  0  0  0  0
    0.9026    1.4311   -0.8593 H   0  0  0  1  0  0  0  0  0  0  0  0
    1.5986   -1.4248   -1.2682 H   0  0  0  1  0  0  0  0  0  0  0  0
    2.3190   -0.6392    0.1168 H   0  0  0  1  0  0  0  0  0  0  0  0
   -1.0288   -1.8950    0.2939 H   0  0  0  1  0  0  0  0  0  0  0  0
   -1.1624   -1.2700   -1.3326 H   0  0  0  1  0  0  0  0  0  0  0  0
   -1.5185    1.7993   -0.2351 H   0  0  0  1  0  0  0  0  0  0  0  0
   -3.2347    1.6126   -0.5042 H   0  0  0  1  0  0  0  0  0  0  0  0
   -2.0937    0.9799   -1.6670 H   0  0  0  1  0  0  0  0  0  0  0  0
   -1.2564    0.6569    1.8113 H   0  0  0  1  0  0  0  0  0  0  0  0
   -2.2565   -0.7294    2.1726 H   0  0  0  1  0  0  0  0  0  0  0  0
   -2.9954    0.8210    1.8494 H   0  0  0  1  0  0  0  0  0  0  0  0
   -4.3620   -0.4316    0.0416 H   0  0  0  1  0  0  0  0  0  0  0  0
   -3.4699   -1.8937    0.3867 H   0  0  0  1  0  0  0  0  0  0  0  0
   -3.4914   -1.2453   -1.2361 H   0  0  0  1  0  0  0  0  0  0  0  0
  1  2  1  0  0  0  0
  1  3  2  0  0  0  0
  1  4  1  0  0  0  0
  4  5  1  0  0  0  0
  4 14  1  0  0  0  0
  4 15  1  0  0  0  0
  5  6  1  0  0  0  0
  5  7  1  0  0  0  0
  5 12  1  0  0  0  0
  6 13  1  0  0  0  0
  7 11  1  0  0  0  0
  7 16  1  0  0  0  0
  7 17  1  0  0  0  0
  8 11  1  0  0  0  0
  8 18  1  0  0  0  0
  8 19  1  0  0  0  0
  8 20  1  0  0  0  0
  9 11  1  0  0  0  0
  9 21  1  0  0  0  0
  9 22  1  0  0  0  0
  9 23  1  0  0  0  0
 10 11  1  0  0  0  0
 10 24  1  0  0  0  0
 10 25  1  0  0  0  0
 10 26  1  0  0  0  0
M  END
> <ConfClashScore>
0 

> <ConfOneFourInteractionScore>
-0.956427 

> <ConfScore>
-0.273857 

> <ConfScorePBest>
0.0122145 

> <ConfTolerance>
0.252421 

$$$$
152.****
  PyMOL2.4          3D                             0

 26 25  0  0  0  0  0  0  0  0999 V2000
    1.6725   -2.2136    0.1583 C   0  0  0  1  0  0  0  0  0  0  0  0
    2.5049   -2.0976    1.2274 O   0  5  0  1  0  0  0  0  0  0  0  0
    1.1209   -3.2548   -0.1582 O   0  0  0  1  0  0  0  0  0  0  0  0
    1.5221   -0.9084   -0.5738 C   0  0  0  1  0  0  0  0  0  0  0  0
    0.2947   -0.0844   -0.1963 C   0  0  0  1  0  0  0  0  0  0  0  0
    0.3343    1.0937   -1.0069 O   0  0  0  1  0  0  0  0  0  0  0  0
   -1.0061   -0.8319   -0.3965 C   0  0  0  1  0  0  0  0  0  0  0  0
   -2.2943    1.2527   -0.4758 C   0  0  0  1  0  0  0  0  0  0  0  0
   -2.1976   -0.0602    1.5983 C   0  0  0  1  0  0  0  0  0  0  0  0
   -3.4591   -0.8952   -0.3330 C   0  0  0  1  0  0  0  0  0  0  0  0
   -2.2394   -0.1332    0.0992 N   0  3  0  1  0  0  0  0  0  0  0  0
    0.3753    0.1866    0.8356 H   0  0  0  1  0  0  0  0  0  0  0  0
    0.8293    0.9139   -1.8096 H   0  0  0  1  0  0  0  0  0  0  0  0
    1.4672   -1.1217   -1.6209 H   0  0  0  1  0  0  0  0  0  0  0  0
    2.3910   -0.3165   -0.3749 H   0  0  0  1  0  0  0  0  0  0  0  0
   -0.9298   -1.7680    0.1161 H   0  0  0  1  0  0  0  0  0  0  0  0
   -1.1266   -1.0076   -1.4451 H   0  0  0  1  0  0  0  0  0  0  0  0
   -2.2804    1.1969   -1.5443 H   0  0  0  1  0  0  0  0  0  0  0  0
   -1.4479    1.8129   -0.1371 H   0  0  0  1  0  0  0  0  0  0  0  0
   -3.1938    1.7360   -0.1558 H   0  0  0  1  0  0  0  0  0  0  0  0
   -3.1235    0.3332    1.9627 H   0  0  0  1  0  0  0  0  0  0  0  0
   -1.3948    0.5787    1.9018 H   0  0  0  1  0  0  0  0  0  0  0  0
   -2.0448   -1.0406    1.9988 H   0  0  0  1  0  0  0  0  0  0  0  0
   -3.4842   -1.8417    0.1653 H   0  0  0  1  0  0  0  0  0  0  0  0
   -3.4260   -1.0502   -1.3912 H   0  0  0  1  0  0  0  0  0  0  0  0
   -4.3362   -0.3364   -0.0812 H   0  0  0  1  0  0  0  0  0  0  0  0
  1  2  1  0  0  0  0
  1  3  2  0  0  0  0
  1  4  1  0  0  0  0
  4  5  1  0  0  0  0
  4 14  1  0  0  0  0
  4 15  1  0  0  0  0
  5  6  1  0  0  0  0
  5  7  1  0  0  0  0
  5 12  1  0  0  0  0
  6 13  1  0  0  0  0
  7 11  1  0  0  0  0
  7 16  1  0  0  0  0
  7 17  1  0  0  0  0
  8 11  1  0  0  0  0
  8 18  1  0  0  0  0
  8 19  1  0  0  0  0
  8 20  1  0  0  0  0
  9 11  1  0  0  0  0
  9 21  1  0  0  0  0
  9 22  1  0  0  0  0
  9 23  1  0  0  0  0
 10 11  1  0  0  0  0
 10 24  1  0  0  0  0
 10 25  1  0  0  0  0
 10 26  1  0  0  0  0
M  END
> <ConfClashScore>
0 

> <ConfOneFourInteractionScore>
-0.959664 

> <ConfScore>
-0.272534 

> <ConfScorePBest>
0.0121115 

> <ConfTolerance>
0.25 

$$$$
152.****
  PyMOL2.4          3D                             0

 26 25  0  0  0  0  0  0  0  0999 V2000
    1.7477   -1.6904   -1.4035 C   0  0  0  1  0  0  0  0  0  0  0  0
    2.3301   -1.8880   -0.1905 O   0  5  0  1  0  0  0  0  0  0  0  0
    2.2293   -0.9884   -2.2774 O   0  0  0  1  0  0  0  0  0  0  0  0
    0.4486   -2.4408   -1.5261 C   0  0  0  1  0  0  0  0  0  0  0  0
   -0.6083   -1.9729   -0.5300 C   0  0  0  1  0  0  0  0  0  0  0  0
    0.0546   -1.9340    0.7337 O   0  0  0  1  0  0  0  0  0  0  0  0
   -1.1629   -0.6071   -0.8999 C   0  0  0  1  0  0  0  0  0  0  0  0
   -2.6497    1.3361   -0.3828 C   0  0  0  1  0  0  0  0  0  0  0  0
   -1.8288   -0.0458    1.4447 C   0  0  0  1  0  0  0  0  0  0  0  0
   -3.4490   -1.0284   -0.1898 C   0  0  0  1  0  0  0  0  0  0  0  0
   -2.2721   -0.0862   -0.0072 N   0  3  0  1  0  0  0  0  0  0  0  0
   -1.4085   -2.6829   -0.5103 H   0  0  0  1  0  0  0  0  0  0  0  0
    0.6880   -1.2126    0.7413 H   0  0  0  1  0  0  0  0  0  0  0  0
    0.6385   -3.4803   -1.3580 H   0  0  0  1  0  0  0  0  0  0  0  0
    0.0678   -2.3029   -2.5165 H   0  0  0  1  0  0  0  0  0  0  0  0
   -1.5442   -0.6661   -1.8979 H   0  0  0  1  0  0  0  0  0  0  0  0
   -0.3565    0.0955   -0.8666 H   0  0  0  1  0  0  0  0  0  0  0  0
   -3.5222    1.6299    0.1624 H   0  0  0  1  0  0  0  0  0  0  0  0
   -2.8518    1.3858   -1.4324 H   0  0  0  1  0  0  0  0  0  0  0  0
   -1.8411    1.9946   -0.1432 H   0  0  0  1  0  0  0  0  0  0  0  0
   -1.4833   -1.0146    1.7398 H   0  0  0  1  0  0  0  0  0  0  0  0
   -2.6545    0.2413    2.0617 H   0  0  0  1  0  0  0  0  0  0  0  0
   -1.0361    0.6643    1.5557 H   0  0  0  1  0  0  0  0  0  0  0  0
   -3.1696   -2.0134    0.1209 H   0  0  0  1  0  0  0  0  0  0  0  0
   -3.7338   -1.0473   -1.2210 H   0  0  0  1  0  0  0  0  0  0  0  0
   -4.2730   -0.6883    0.4021 H   0  0  0  1  0  0  0  0  0  0  0  0
  1  2  1  0  0  0  0
  1  3  2  0  0  0  0
  1  4  1  0  0  0  0
  4  5  1  0  0  0  0
  4 14  1  0  0  0  0
  4 15  1  0  0  0  0
  5  6  1  0  0  0  0
  5  7  1  0  0  0  0
  5 12  1  0  0  0  0
  6 13  1  0  0  0  0
  7 11  1  0  0  0  0
  7 16  1  0  0  0  0
  7 17  1  0  0  0  0
  8 11  1  0  0  0  0
  8 18  1  0  0  0  0
  8 19  1  0  0  0  0
  8 20  1  0  0  0  0
  9 11  1  0  0  0  0
  9 21  1  0  0  0  0
  9 22  1  0  0  0  0
  9 23  1  0  0  0  0
 10 11  1  0  0  0  0
 10 24  1  0  0  0  0
 10 25  1  0  0  0  0
 10 26  1  0  0  0  0
M  END
> <ConfClashScore>
0 

> <ConfOneFourInteractionScore>
-0.963965 

> <ConfScore>
-0.269814 

> <ConfScorePBest>
0.0120085 

> <ConfTolerance>
0.340924 

$$$$
152.****
  PyMOL2.4          3D                             0

 26 25  0  0  0  0  0  0  0  0999 V2000
    0.8019   -1.1618   -2.8801 C   0  0  0  1  0  0  0  0  0  0  0  0
    1.2633   -0.5718   -1.7449 O   0  5  0  1  0  0  0  0  0  0  0  0
    1.3014   -0.9634   -3.9753 O   0  0  0  1  0  0  0  0  0  0  0  0
   -0.3744   -2.0844   -2.7042 C   0  0  0  1  0  0  0  0  0  0  0  0
   -1.5489   -1.4249   -1.9932 C   0  0  0  1  0  0  0  0  0  0  0  0
   -2.7154   -2.2502   -2.0601 O   0  0  0  1  0  0  0  0  0  0  0  0
   -1.2495   -1.1118   -0.5442 C   0  0  0  1  0  0  0  0  0  0  0  0
   -2.1703    1.1288   -0.6584 C   0  0  0  1  0  0  0  0  0  0  0  0
   -2.0591   -0.0170    1.5573 C   0  0  0  1  0  0  0  0  0  0  0  0
   -3.6839   -0.7683   -0.0843 C   0  0  0  1  0  0  0  0  0  0  0  0
   -2.2914   -0.1908    0.0667 N   0  3  0  1  0  0  0  0  0  0  0  0
   -1.7516   -0.5001   -2.4917 H   0  0  0  1  0  0  0  0  0  0  0  0
   -3.1981   -2.0580   -2.8673 H   0  0  0  1  0  0  0  0  0  0  0  0
   -0.0605   -2.9309   -2.1300 H   0  0  0  1  0  0  0  0  0  0  0  0
   -0.7000   -2.4091   -3.6704 H   0  0  0  1  0  0  0  0  0  0  0  0
   -0.2921   -0.6378   -0.4841 H   0  0  0  1  0  0  0  0  0  0  0  0
   -1.2304   -2.0269    0.0099 H   0  0  0  1  0  0  0  0  0  0  0  0
   -3.0021    1.7528   -0.4059 H   0  0  0  1  0  0  0  0  0  0  0  0
   -2.1622    0.9559   -1.7143 H   0  0  0  1  0  0  0  0  0  0  0  0
   -1.2609    1.6126   -0.3688 H   0  0  0  1  0  0  0  0  0  0  0  0
   -2.6268    0.8176    1.9124 H   0  0  0  1  0  0  0  0  0  0  0  0
   -1.0188    0.1568    1.7380 H   0  0  0  1  0  0  0  0  0  0  0  0
   -2.3678   -0.9028    2.0719 H   0  0  0  1  0  0  0  0  0  0  0  0
   -3.9895   -0.7010   -1.1075 H   0  0  0  1  0  0  0  0  0  0  0  0
   -4.3665   -0.2175    0.5285 H   0  0  0  1  0  0  0  0  0  0  0  0
   -3.6791   -1.7943    0.2195 H   0  0  0  1  0  0  0  0  0  0  0  0
  1  2  1  0  0  0  0
  1  3  2  0  0  0  0
  1  4  1  0  0  0  0
  4  5  1  0  0  0  0
  4 14  1  0  0  0  0
  4 15  1  0  0  0  0
  5  6  1  0  0  0  0
  5  7  1  0  0  0  0
  5 12  1  0  0  0  0
  6 13  1  0  0  0  0
  7 11  1  0  0  0  0
  7 16  1  0  0  0  0
  7 17  1  0  0  0  0
  8 11  1  0  0  0  0
  8 18  1  0  0  0  0
  8 19  1  0  0  0  0
  8 20  1  0  0  0  0
  9 11  1  0  0  0  0
  9 21  1  0  0  0  0
  9 22  1  0  0  0  0
  9 23  1  0  0  0  0
 10 11  1  0  0  0  0
 10 24  1  0  0  0  0
 10 25  1  0  0  0  0
 10 26  1  0  0  0  0
M  END
> <ConfClashScore>
0 

> <ConfOneFourInteractionScore>
-0.959664 

> <ConfScore>
-0.26285 

> <ConfScorePBest>
0.0119055 

> <ConfTolerance>
0.319284 

$$$$
152.****
  PyMOL2.4          3D                             0

 26 25  0  0  0  0  0  0  0  0999 V2000
   -1.2311   -3.9120   -2.0521 C   0  0  0  1  0  0  0  0  0  0  0  0
   -2.4412   -4.4684   -1.7771 O   0  5  0  1  0  0  0  0  0  0  0  0
   -0.8108   -3.7351   -3.1837 O   0  0  0  1  0  0  0  0  0  0  0  0
   -0.4874   -3.5474   -0.7952 C   0  0  0  1  0  0  0  0  0  0  0  0
   -1.2309   -2.5409    0.0652 C   0  0  0  1  0  0  0  0  0  0  0  0
   -0.5996   -2.3938    1.3404 O   0  0  0  1  0  0  0  0  0  0  0  0
   -1.3389   -1.1740   -0.5950 C   0  0  0  1  0  0  0  0  0  0  0  0
   -2.2204    1.1684   -0.5856 C   0  0  0  1  0  0  0  0  0  0  0  0
   -1.9832   -0.0144    1.5276 C   0  0  0  1  0  0  0  0  0  0  0  0
   -3.6953   -0.7996   -0.1195 C   0  0  0  1  0  0  0  0  0  0  0  0
   -2.3094   -0.2045    0.0571 N   0  3  0  1  0  0  0  0  0  0  0  0
   -2.2245   -2.9098    0.2122 H   0  0  0  1  0  0  0  0  0  0  0  0
   -1.2559   -2.4838    2.0352 H   0  0  0  1  0  0  0  0  0  0  0  0
    0.4586   -3.1287   -1.0685 H   0  0  0  1  0  0  0  0  0  0  0  0
   -0.3319   -4.4369   -0.2213 H   0  0  0  1  0  0  0  0  0  0  0  0
   -1.6518   -1.3215   -1.6076 H   0  0  0  1  0  0  0  0  0  0  0  0
   -0.3677   -0.7252   -0.5831 H   0  0  0  1  0  0  0  0  0  0  0  0
   -2.9673    1.8088   -0.1649 H   0  0  0  1  0  0  0  0  0  0  0  0
   -2.3801    1.0794   -1.6399 H   0  0  0  1  0  0  0  0  0  0  0  0
   -1.2513    1.5844   -0.4050 H   0  0  0  1  0  0  0  0  0  0  0  0
   -2.6556    0.7010    1.9530 H   0  0  0  1  0  0  0  0  0  0  0  0
   -0.9779    0.3382    1.6270 H   0  0  0  1  0  0  0  0  0  0  0  0
   -2.0862   -0.9485    2.0392 H   0  0  0  1  0  0  0  0  0  0  0  0
   -3.8645   -1.0100   -1.1549 H   0  0  0  1  0  0  0  0  0  0  0  0
   -4.4294   -0.1025    0.2271 H   0  0  0  1  0  0  0  0  0  0  0  0
   -3.7687   -1.7057    0.4449 H   0  0  0  1  0  0  0  0  0  0  0  0
  1  2  1  0  0  0  0
  1  3  2  0  0  0  0
  1  4  1  0  0  0  0
  4  5  1  0  0  0  0
  4 14  1  0  0  0  0
  4 15  1  0  0  0  0
  5  6  1  0  0  0  0
  5  7  1  0  0  0  0
  5 12  1  0  0  0  0
  6 13  1  0  0  0  0
  7 11  1  0  0  0  0
  7 16  1  0  0  0  0
  7 17  1  0  0  0  0
  8 11  1  0  0  0  0
  8 18  1  0  0  0  0
  8 19  1  0  0  0  0
  8 20  1  0  0  0  0
  9 11  1  0  0  0  0
  9 21  1  0  0  0  0
  9 22  1  0  0  0  0
  9 23  1  0  0  0  0
 10 11  1  0  0  0  0
 10 24  1  0  0  0  0
 10 25  1  0  0  0  0
 10 26  1  0  0  0  0
M  END
> <ConfClashScore>
0 

> <ConfOneFourInteractionScore>
-0.959664 

> <ConfScore>
-0.261824 

> <ConfScorePBest>
0.0118025 

> <ConfTolerance>
0.317311 

$$$$
152.****
  PyMOL2.4          3D                             0

 26 25  0  0  0  0  0  0  0  0999 V2000
    1.4908   -1.9344   -1.6448 C   0  0  0  1  0  0  0  0  0  0  0  0
    2.7273   -1.9819   -2.2090 O   0  5  0  1  0  0  0  0  0  0  0  0
    1.1982   -2.5696   -0.6451 O   0  0  0  1  0  0  0  0  0  0  0  0
    0.4939   -1.0431   -2.3330 C   0  0  0  1  0  0  0  0  0  0  0  0
   -0.9071   -1.0557   -1.7436 C   0  0  0  1  0  0  0  0  0  0  0  0
   -1.5455   -2.3156   -1.9704 O   0  0  0  1  0  0  0  0  0  0  0  0
   -0.9165   -0.7567   -0.2514 C   0  0  0  1  0  0  0  0  0  0  0  0
   -2.3392    1.2182   -0.5461 C   0  0  0  1  0  0  0  0  0  0  0  0
   -2.2674    0.0609    1.6197 C   0  0  0  1  0  0  0  0  0  0  0  0
   -3.3590   -0.9939   -0.3076 C   0  0  0  1  0  0  0  0  0  0  0  0
   -2.2207   -0.1174    0.1296 N   0  3  0  1  0  0  0  0  0  0  0  0
   -1.4721   -0.2893   -2.2319 H   0  0  0  1  0  0  0  0  0  0  0  0
   -0.8857   -3.0130   -1.9749 H   0  0  0  1  0  0  0  0  0  0  0  0
    0.4248   -1.3525   -3.3550 H   0  0  0  1  0  0  0  0  0  0  0  0
    0.8620   -0.0395   -2.2878 H   0  0  0  1  0  0  0  0  0  0  0  0
   -0.1125   -0.0907   -0.0174 H   0  0  0  1  0  0  0  0  0  0  0  0
   -0.7950   -1.6690    0.2945 H   0  0  0  1  0  0  0  0  0  0  0  0
   -2.2407    1.0932   -1.6042 H   0  0  0  1  0  0  0  0  0  0  0  0
   -1.5665    1.8674   -0.1905 H   0  0  0  1  0  0  0  0  0  0  0  0
   -3.2948    1.6459   -0.3252 H   0  0  0  1  0  0  0  0  0  0  0  0
   -1.4708    0.7056    1.9274 H   0  0  0  1  0  0  0  0  0  0  0  0
   -2.1596   -0.8911    2.0961 H   0  0  0  1  0  0  0  0  0  0  0  0
   -3.2050    0.4953    1.8974 H   0  0  0  1  0  0  0  0  0  0  0  0
   -3.3275   -1.1168   -1.3700 H   0  0  0  1  0  0  0  0  0  0  0  0
   -4.2865   -0.5391   -0.0287 H   0  0  0  1  0  0  0  0  0  0  0  0
   -3.2740   -1.9504    0.1645 H   0  0  0  1  0  0  0  0  0  0  0  0
  1  2  1  0  0  0  0
  1  3  2  0  0  0  0
  1  4  1  0  0  0  0
  4  5  1  0  0  0  0
  4 14  1  0  0  0  0
  4 15  1  0  0  0  0
  5  6  1  0  0  0  0
  5  7  1  0  0  0  0
  5 12  1  0  0  0  0
  6 13  1  0  0  0  0
  7 11  1  0  0  0  0
  7 16  1  0  0  0  0
  7 17  1  0  0  0  0
  8 11  1  0  0  0  0
  8 18  1  0  0  0  0
  8 19  1  0  0  0  0
  8 20  1  0  0  0  0
  9 11  1  0  0  0  0
  9 21  1  0  0  0  0
  9 22  1  0  0  0  0
  9 23  1  0  0  0  0
 10 11  1  0  0  0  0
 10 24  1  0  0  0  0
 10 25  1  0  0  0  0
 10 26  1  0  0  0  0
M  END
> <ConfClashScore>
0 

> <ConfOneFourInteractionScore>
-0.952223 

> <ConfScore>
-0.256762 

> <ConfScorePBest>
0.0116995 

> <ConfTolerance>
0.25 

$$$$
152.****
  PyMOL2.4          3D                             0

 26 25  0  0  0  0  0  0  0  0999 V2000
    0.6278   -1.9274   -3.6136 C   0  0  0  1  0  0  0  0  0  0  0  0
    1.7872   -2.6170   -3.7864 O   0  5  0  1  0  0  0  0  0  0  0  0
   -0.2945   -1.8971   -4.4115 O   0  0  0  1  0  0  0  0  0  0  0  0
    0.5870   -1.1826   -2.3075 C   0  0  0  1  0  0  0  0  0  0  0  0
   -0.7522   -0.6046   -1.9360 C   0  0  0  1  0  0  0  0  0  0  0  0
   -1.8351   -1.3684   -2.4601 O   0  0  0  1  0  0  0  0  0  0  0  0
   -0.9262   -0.6458   -0.4266 C   0  0  0  1  0  0  0  0  0  0  0  0
   -2.4938    1.2354   -0.5499 C   0  0  0  1  0  0  0  0  0  0  0  0
   -2.1284    0.0711    1.5822 C   0  0  0  1  0  0  0  0  0  0  0  0
   -3.3418   -1.0392   -0.2380 C   0  0  0  1  0  0  0  0  0  0  0  0
   -2.2226   -0.0942    0.0929 N   0  3  0  1  0  0  0  0  0  0  0  0
   -0.8089    0.4100   -2.2712 H   0  0  0  1  0  0  0  0  0  0  0  0
   -1.5596   -2.2815   -2.5699 H   0  0  0  1  0  0  0  0  0  0  0  0
    1.2896   -0.3777   -2.3645 H   0  0  0  1  0  0  0  0  0  0  0  0
    0.8810   -1.8592   -1.5325 H   0  0  0  1  0  0  0  0  0  0  0  0
   -0.1296   -0.0820    0.0119 H   0  0  0  1  0  0  0  0  0  0  0  0
   -0.8548   -1.6669   -0.1150 H   0  0  0  1  0  0  0  0  0  0  0  0
   -1.6744    1.8971   -0.3611 H   0  0  0  1  0  0  0  0  0  0  0  0
   -3.3903    1.6527   -0.1412 H   0  0  0  1  0  0  0  0  0  0  0  0
   -2.6098    1.1039   -1.6054 H   0  0  0  1  0  0  0  0  0  0  0  0
   -1.8462   -0.8599    2.0278 H   0  0  0  1  0  0  0  0  0  0  0  0
   -3.0784    0.3773    1.9677 H   0  0  0  1  0  0  0  0  0  0  0  0
   -1.3933    0.8137    1.8126 H   0  0  0  1  0  0  0  0  0  0  0  0
   -3.4465   -1.1107   -1.3005 H   0  0  0  1  0  0  0  0  0  0  0  0
   -4.2537   -0.6742    0.1863 H   0  0  0  1  0  0  0  0  0  0  0  0
   -3.1225   -2.0062    0.1643 H   0  0  0  1  0  0  0  0  0  0  0  0
  1  2  1  0  0  0  0
  1  3  2  0  0  0  0
  1  4  1  0  0  0  0
  4  5  1  0  0  0  0
  4 14  1  0  0  0  0
  4 15  1  0  0  0  0
  5  6  1  0  0  0  0
  5  7  1  0  0  0  0
  5 12  1  0  0  0  0
  6 13  1  0  0  0  0
  7 11  1  0  0  0  0
  7 16  1  0  0  0  0
  7 17  1  0  0  0  0
  8 11  1  0  0  0  0
  8 18  1  0  0  0  0
  8 19  1  0  0  0  0
  8 20  1  0  0  0  0
  9 11  1  0  0  0  0
  9 21  1  0  0  0  0
  9 22  1  0  0  0  0
  9 23  1  0  0  0  0
 10 11  1  0  0  0  0
 10 24  1  0  0  0  0
 10 25  1  0  0  0  0
 10 26  1  0  0  0  0
M  END
> <ConfClashScore>
0 

> <ConfOneFourInteractionScore>
-0.955465 

> <ConfScore>
-0.251659 

> <ConfScorePBest>
0.0115965 

> <ConfTolerance>
0.360652 

$$$$
152.****
  PyMOL2.4          3D                             0

 26 25  0  0  0  0  0  0  0  0999 V2000
    1.7993   -1.4880   -1.4304 C   0  0  0  1  0  0  0  0  0  0  0  0
    1.7577   -1.5250   -0.0716 O   0  5  0  1  0  0  0  0  0  0  0  0
    2.7802   -1.1397   -2.0668 O   0  0  0  1  0  0  0  0  0  0  0  0
    0.4945   -1.9270   -2.0394 C   0  0  0  1  0  0  0  0  0  0  0  0
   -0.6653   -1.0099   -1.6875 C   0  0  0  1  0  0  0  0  0  0  0  0
   -1.8262   -1.4353   -2.4071 O   0  0  0  1  0  0  0  0  0  0  0  0
   -1.0263   -0.9689   -0.2106 C   0  0  0  1  0  0  0  0  0  0  0  0
   -2.1841    1.1629   -0.5663 C   0  0  0  1  0  0  0  0  0  0  0  0
   -2.2853    0.0537    1.6234 C   0  0  0  1  0  0  0  0  0  0  0  0
   -3.4783   -0.8971   -0.2978 C   0  0  0  1  0  0  0  0  0  0  0  0
   -2.2436   -0.1619    0.1381 N   0  3  0  1  0  0  0  0  0  0  0  0
   -0.4067   -0.0174   -1.9924 H   0  0  0  1  0  0  0  0  0  0  0  0
   -1.6515   -1.3941   -3.3502 H   0  0  0  1  0  0  0  0  0  0  0  0
    0.2687   -2.9120   -1.6875 H   0  0  0  1  0  0  0  0  0  0  0  0
    0.6041   -1.9444   -3.1036 H   0  0  0  1  0  0  0  0  0  0  0  0
   -0.1943   -0.5553    0.3201 H   0  0  0  1  0  0  0  0  0  0  0  0
   -1.1937   -1.9743    0.1152 H   0  0  0  1  0  0  0  0  0  0  0  0
   -2.2230    1.0069   -1.6241 H   0  0  0  1  0  0  0  0  0  0  0  0
   -1.2716    1.6607   -0.3127 H   0  0  0  1  0  0  0  0  0  0  0  0
   -3.0154    1.7649   -0.2639 H   0  0  0  1  0  0  0  0  0  0  0  0
   -3.0839    0.7237    1.8648 H   0  0  0  1  0  0  0  0  0  0  0  0
   -1.3567    0.4742    1.9487 H   0  0  0  1  0  0  0  0  0  0  0  0
   -2.4450   -0.8830    2.1152 H   0  0  0  1  0  0  0  0  0  0  0  0
   -3.4809   -0.9903   -1.3637 H   0  0  0  1  0  0  0  0  0  0  0  0
   -4.3456   -0.3538    0.0146 H   0  0  0  1  0  0  0  0  0  0  0  0
   -3.4883   -1.8710    0.1452 H   0  0  0  1  0  0  0  0  0  0  0  0
  1  2  1  0  0  0  0
  1  3  2  0  0  0  0
  1  4  1  0  0  0  0
  4  5  1  0  0  0  0
  4 14  1  0  0  0  0
  4 15  1  0  0  0  0
  5  6  1  0  0  0  0
  5  7  1  0  0  0  0
  5 12  1  0  0  0  0
  6 13  1  0  0  0  0
  7 11  1  0  0  0  0
  7 16  1  0  0  0  0
  7 17  1  0  0  0  0
  8 11  1  0  0  0  0
  8 18  1  0  0  0  0
  8 19  1  0  0  0  0
  8 20  1  0  0  0  0
  9 11  1  0  0  0  0
  9 21  1  0  0  0  0
  9 22  1  0  0  0  0
  9 23  1  0  0  0  0
 10 11  1  0  0  0  0
 10 24  1  0  0  0  0
 10 25  1  0  0  0  0
 10 26  1  0  0  0  0
M  END
> <ConfClashScore>
0 

> <ConfOneFourInteractionScore>
-0.959664 

> <ConfScore>
-0.246121 

> <ConfScorePBest>
0.0114935 

> <ConfTolerance>
0.25 

$$$$
152.****
  PyMOL2.4          3D                             0

 26 25  0  0  0  0  0  0  0  0999 V2000
   -1.1200    0.2617   -4.3434 C   0  0  0  1  0  0  0  0  0  0  0  0
   -0.4374    1.2664   -4.9552 O   0  5  0  1  0  0  0  0  0  0  0  0
   -1.9063   -0.4701   -4.9217 O   0  0  0  1  0  0  0  0  0  0  0  0
   -0.7827    0.1710   -2.8758 C   0  0  0  1  0  0  0  0  0  0  0  0
   -1.5291   -0.9784   -2.2219 C   0  0  0  1  0  0  0  0  0  0  0  0
   -1.0788   -2.1941   -2.8249 O   0  0  0  1  0  0  0  0  0  0  0  0
   -1.3054   -1.0352   -0.7289 C   0  0  0  1  0  0  0  0  0  0  0  0
   -2.3463    1.2348   -0.5318 C   0  0  0  1  0  0  0  0  0  0  0  0
   -1.8473   -0.1763    1.4785 C   0  0  0  1  0  0  0  0  0  0  0  0
   -3.7106   -0.7269   -0.1023 C   0  0  0  1  0  0  0  0  0  0  0  0
   -2.3017   -0.1757    0.0295 N   0  3  0  1  0  0  0  0  0  0  0  0
   -2.5760   -0.8512   -2.4031 H   0  0  0  1  0  0  0  0  0  0  0  0
   -1.5238   -2.3185   -3.6664 H   0  0  0  1  0  0  0  0  0  0  0  0
   -1.0579    1.0866   -2.3953 H   0  0  0  1  0  0  0  0  0  0  0  0
    0.2700    0.0128   -2.7669 H   0  0  0  1  0  0  0  0  0  0  0  0
   -0.3164   -0.6877   -0.5146 H   0  0  0  1  0  0  0  0  0  0  0  0
   -1.4061   -2.0494   -0.4031 H   0  0  0  1  0  0  0  0  0  0  0  0
   -2.9816    1.8422    0.0785 H   0  0  0  1  0  0  0  0  0  0  0  0
   -2.7299    1.2091   -1.5303 H   0  0  0  1  0  0  0  0  0  0  0  0
   -1.3589    1.6469   -0.5390 H   0  0  0  1  0  0  0  0  0  0  0  0
   -2.5756    0.3246    2.0815 H   0  0  0  1  0  0  0  0  0  0  0  0
   -0.9088    0.3315    1.5580 H   0  0  0  1  0  0  0  0  0  0  0  0
   -1.7373   -1.1853    1.8172 H   0  0  0  1  0  0  0  0  0  0  0  0
   -3.7250   -1.7495    0.2122 H   0  0  0  1  0  0  0  0  0  0  0  0
   -4.0240   -0.6636   -1.1235 H   0  0  0  1  0  0  0  0  0  0  0  0
   -4.3756   -0.1558    0.5114 H   0  0  0  1  0  0  0  0  0  0  0  0
  1  2  1  0  0  0  0
  1  3  2  0  0  0  0
  1  4  1  0  0  0  0
  4  5  1  0  0  0  0
  4 14  1  0  0  0  0
  4 15  1  0  0  0  0
  5  6  1  0  0  0  0
  5  7  1  0  0  0  0
  5 12  1  0  0  0  0
  6 13  1  0  0  0  0
  7 11  1  0  0  0  0
  7 16  1  0  0  0  0
  7 17  1  0  0  0  0
  8 11  1  0  0  0  0
  8 18  1  0  0  0  0
  8 19  1  0  0  0  0
  8 20  1  0  0  0  0
  9 11  1  0  0  0  0
  9 21  1  0  0  0  0
  9 22  1  0  0  0  0
  9 23  1  0  0  0  0
 10 11  1  0  0  0  0
 10 24  1  0  0  0  0
 10 25  1  0  0  0  0
 10 26  1  0  0  0  0
M  END
> <ConfClashScore>
0 

> <ConfOneFourInteractionScore>
-0.947927 

> <ConfScore>
-0.228631 

> <ConfScorePBest>
0.0113905 

> <ConfTolerance>
0.314676 

$$$$
152.****
  PyMOL2.4          3D                             0

 26 25  0  0  0  0  0  0  0  0999 V2000
    1.6917   -1.5730   -1.2890 C   0  0  0  1  0  0  0  0  0  0  0  0
    2.1321   -1.5737   -2.5757 O   0  5  0  1  0  0  0  0  0  0  0  0
    2.1963   -0.9163   -0.3932 O   0  0  0  1  0  0  0  0  0  0  0  0
    0.5733   -2.5579   -1.0858 C   0  0  0  1  0  0  0  0  0  0  0  0
   -0.6127   -2.0427   -0.2758 C   0  0  0  1  0  0  0  0  0  0  0  0
   -0.1946   -1.9441    1.0887 O   0  0  0  1  0  0  0  0  0  0  0  0
   -1.0224   -0.6443   -0.6742 C   0  0  0  1  0  0  0  0  0  0  0  0
   -2.4570    1.3147   -0.4996 C   0  0  0  1  0  0  0  0  0  0  0  0
   -2.0388   -0.0865    1.5507 C   0  0  0  1  0  0  0  0  0  0  0  0
   -3.4535   -0.9583   -0.2146 C   0  0  0  1  0  0  0  0  0  0  0  0
   -2.2379   -0.0860    0.0452 N   0  3  0  1  0  0  0  0  0  0  0  0
   -1.4415   -2.7115   -0.3797 H   0  0  0  1  0  0  0  0  0  0  0  0
    0.5467   -1.3376    1.1537 H   0  0  0  1  0  0  0  0  0  0  0  0
    0.9731   -3.4114   -0.5792 H   0  0  0  1  0  0  0  0  0  0  0  0
    0.2125   -2.8511   -2.0495 H   0  0  0  1  0  0  0  0  0  0  0  0
   -1.2345   -0.6498   -1.7229 H   0  0  0  1  0  0  0  0  0  0  0  0
   -0.1968    0.0082   -0.4802 H   0  0  0  1  0  0  0  0  0  0  0  0
   -1.6081    1.9241   -0.2696 H   0  0  0  1  0  0  0  0  0  0  0  0
   -3.3316    1.7384   -0.0520 H   0  0  0  1  0  0  0  0  0  0  0  0
   -2.5855    1.2683   -1.5608 H   0  0  0  1  0  0  0  0  0  0  0  0
   -1.0851    0.3383    1.7850 H   0  0  0  1  0  0  0  0  0  0  0  0
   -2.0807   -1.0915    1.9154 H   0  0  0  1  0  0  0  0  0  0  0  0
   -2.8104    0.4935    2.0125 H   0  0  0  1  0  0  0  0  0  0  0  0
   -3.2315   -1.9697    0.0549 H   0  0  0  1  0  0  0  0  0  0  0  0
   -3.7088   -0.9139   -1.2528 H   0  0  0  1  0  0  0  0  0  0  0  0
   -4.2768   -0.6060    0.3710 H   0  0  0  1  0  0  0  0  0  0  0  0
  1  2  1  0  0  0  0
  1  3  2  0  0  0  0
  1  4  1  0  0  0  0
  4  5  1  0  0  0  0
  4 14  1  0  0  0  0
  4 15  1  0  0  0  0
  5  6  1  0  0  0  0
  5  7  1  0  0  0  0
  5 12  1  0  0  0  0
  6 13  1  0  0  0  0
  7 11  1  0  0  0  0
  7 16  1  0  0  0  0
  7 17  1  0  0  0  0
  8 11  1  0  0  0  0
  8 18  1  0  0  0  0
  8 19  1  0  0  0  0
  8 20  1  0  0  0  0
  9 11  1  0  0  0  0
  9 21  1  0  0  0  0
  9 22  1  0  0  0  0
  9 23  1  0  0  0  0
 10 11  1  0  0  0  0
 10 24  1  0  0  0  0
 10 25  1  0  0  0  0
 10 26  1  0  0  0  0
M  END
> <ConfClashScore>
0 

> <ConfOneFourInteractionScore>
-0.948986 

> <ConfScore>
-0.224826 

> <ConfScorePBest>
0.0112875 

> <ConfTolerance>
0.331998 

$$$$
152.****
  PyMOL2.4          3D                             0

 26 25  0  0  0  0  0  0  0  0999 V2000
   -0.2274   -4.6305   -0.5591 C   0  0  0  1  0  0  0  0  0  0  0  0
    0.7523   -5.3125   -1.2107 O   0  5  0  1  0  0  0  0  0  0  0  0
   -0.9747   -5.1398    0.2598 O   0  0  0  1  0  0  0  0  0  0  0  0
   -0.2694   -3.1841   -0.9742 C   0  0  0  1  0  0  0  0  0  0  0  0
   -0.8399   -2.2735    0.0989 C   0  0  0  1  0  0  0  0  0  0  0  0
    0.0868   -2.3649    1.1850 O   0  0  0  1  0  0  0  0  0  0  0  0
   -1.0158   -0.8683   -0.4319 C   0  0  0  1  0  0  0  0  0  0  0  0
   -2.3435    1.2259   -0.5666 C   0  0  0  1  0  0  0  0  0  0  0  0
   -2.1328    0.0266    1.5796 C   0  0  0  1  0  0  0  0  0  0  0  0
   -3.4714   -0.9475   -0.2206 C   0  0  0  1  0  0  0  0  0  0  0  0
   -2.2262   -0.1289    0.0719 N   0  3  0  1  0  0  0  0  0  0  0  0
   -1.7945   -2.6516    0.3998 H   0  0  0  1  0  0  0  0  0  0  0  0
    0.9837   -2.3499    0.8430 H   0  0  0  1  0  0  0  0  0  0  0  0
   -0.8765   -3.0990   -1.8512 H   0  0  0  1  0  0  0  0  0  0  0  0
    0.7272   -2.8648   -1.1974 H   0  0  0  1  0  0  0  0  0  0  0  0
   -1.0855   -0.9257   -1.4981 H   0  0  0  1  0  0  0  0  0  0  0  0
   -0.1486   -0.3032   -0.1606 H   0  0  0  1  0  0  0  0  0  0  0  0
   -1.4518    1.7871   -0.3801 H   0  0  0  1  0  0  0  0  0  0  0  0
   -3.1835    1.7435   -0.1526 H   0  0  0  1  0  0  0  0  0  0  0  0
   -2.4788    1.1121   -1.6219 H   0  0  0  1  0  0  0  0  0  0  0  0
   -1.3171    0.6754    1.8218 H   0  0  0  1  0  0  0  0  0  0  0  0
   -1.9712   -0.9316    2.0274 H   0  0  0  1  0  0  0  0  0  0  0  0
   -3.0442    0.4457    1.9518 H   0  0  0  1  0  0  0  0  0  0  0  0
   -3.5278   -1.1493   -1.2699 H   0  0  0  1  0  0  0  0  0  0  0  0
   -4.3382   -0.3990    0.0839 H   0  0  0  1  0  0  0  0  0  0  0  0
   -3.4256   -1.8709    0.3180 H   0  0  0  1  0  0  0  0  0  0  0  0
  1  2  1  0  0  0  0
  1  3  2  0  0  0  0
  1  4  1  0  0  0  0
  4  5  1  0  0  0  0
  4 14  1  0  0  0  0
  4 15  1  0  0  0  0
  5  6  1  0  0  0  0
  5  7  1  0  0  0  0
  5 12  1  0  0  0  0
  6 13  1  0  0  0  0
  7 11  1  0  0  0  0
  7 16  1  0  0  0  0
  7 17  1  0  0  0  0
  8 11  1  0  0  0  0
  8 18  1  0  0  0  0
  8 19  1  0  0  0  0
  8 20  1  0  0  0  0
  9 11  1  0  0  0  0
  9 21  1  0  0  0  0
  9 22  1  0  0  0  0
  9 23  1  0  0  0  0
 10 11  1  0  0  0  0
 10 24  1  0  0  0  0
 10 25  1  0  0  0  0
 10 26  1  0  0  0  0
M  END
> <ConfClashScore>
0 

> <ConfOneFourInteractionScore>
-0.947927 

> <ConfScore>
-0.223244 

> <ConfScorePBest>
0.0111845 

> <ConfTolerance>
0.25 

$$$$
152.****
  PyMOL2.4          3D                             0

 26 25  0  0  0  0  0  0  0  0999 V2000
    1.2213   -0.9648   -3.2409 C   0  0  0  1  0  0  0  0  0  0  0  0
    2.5026   -1.3191   -3.5277 O   0  5  0  1  0  0  0  0  0  0  0  0
    0.6015   -0.1455   -3.8989 O   0  0  0  1  0  0  0  0  0  0  0  0
    0.6041   -1.6519   -2.0481 C   0  0  0  1  0  0  0  0  0  0  0  0
   -0.7651   -1.0689   -1.7391 C   0  0  0  1  0  0  0  0  0  0  0  0
   -1.7956   -1.9563   -2.1831 O   0  0  0  1  0  0  0  0  0  0  0  0
   -0.9152   -0.7428   -0.2699 C   0  0  0  1  0  0  0  0  0  0  0  0
   -2.4049    1.1715   -0.6273 C   0  0  0  1  0  0  0  0  0  0  0  0
   -2.2107    0.1580    1.6022 C   0  0  0  1  0  0  0  0  0  0  0  0
   -3.3501   -1.0465   -0.2059 C   0  0  0  1  0  0  0  0  0  0  0  0
   -2.2204   -0.1145    0.1257 N   0  3  0  1  0  0  0  0  0  0  0  0
   -0.8512   -0.1500   -2.2804 H   0  0  0  1  0  0  0  0  0  0  0  0
   -1.3991   -2.7511   -2.5474 H   0  0  0  1  0  0  0  0  0  0  0  0
    1.2414   -1.5201   -1.1987 H   0  0  0  1  0  0  0  0  0  0  0  0
    0.5015   -2.6959   -2.2589 H   0  0  0  1  0  0  0  0  0  0  0  0
   -0.1301   -0.0675   -0.0009 H   0  0  0  1  0  0  0  0  0  0  0  0
   -0.8079   -1.6533    0.2818 H   0  0  0  1  0  0  0  0  0  0  0  0
   -1.6062    1.8425   -0.3892 H   0  0  0  1  0  0  0  0  0  0  0  0
   -3.3381    1.6158   -0.3505 H   0  0  0  1  0  0  0  0  0  0  0  0
   -2.4018    0.9725   -1.6786 H   0  0  0  1  0  0  0  0  0  0  0  0
   -2.1905   -0.7689    2.1363 H   0  0  0  1  0  0  0  0  0  0  0  0
   -3.0910    0.7043    1.8696 H   0  0  0  1  0  0  0  0  0  0  0  0
   -1.3437    0.7328    1.8528 H   0  0  0  1  0  0  0  0  0  0  0  0
   -4.2585   -0.6714    0.2172 H   0  0  0  1  0  0  0  0  0  0  0  0
   -3.1427   -2.0157    0.1972 H   0  0  0  1  0  0  0  0  0  0  0  0
   -3.4542   -1.1165   -1.2686 H   0  0  0  1  0  0  0  0  0  0  0  0
  1  2  1  0  0  0  0
  1  3  2  0  0  0  0
  1  4  1  0  0  0  0
  4  5  1  0  0  0  0
  4 14  1  0  0  0  0
  4 15  1  0  0  0  0
  5  6  1  0  0  0  0
  5  7  1  0  0  0  0
  5 12  1  0  0  0  0
  6 13  1  0  0  0  0
  7 11  1  0  0  0  0
  7 16  1  0  0  0  0
  7 17  1  0  0  0  0
  8 11  1  0  0  0  0
  8 18  1  0  0  0  0
  8 19  1  0  0  0  0
  8 20  1  0  0  0  0
  9 11  1  0  0  0  0
  9 21  1  0  0  0  0
  9 22  1  0  0  0  0
  9 23  1  0  0  0  0
 10 11  1  0  0  0  0
 10 24  1  0  0  0  0
 10 25  1  0  0  0  0
 10 26  1  0  0  0  0
M  END
> <ConfClashScore>
0 

> <ConfOneFourInteractionScore>
-0.951164 

> <ConfScore>
-0.203708 

> <ConfScorePBest>
0.0110815 

> <ConfTolerance>
0.329542 

$$$$
152.****
  PyMOL2.4          3D                             0

 26 25  0  0  0  0  0  0  0  0999 V2000
    0.4708   -0.5640   -4.0262 C   0  0  0  1  0  0  0  0  0  0  0  0
    1.3269    0.3786   -4.5038 O   0  5  0  1  0  0  0  0  0  0  0  0
   -0.2120   -1.2799   -4.7401 O   0  0  0  1  0  0  0  0  0  0  0  0
    0.4751   -0.6088   -2.5182 C   0  0  0  1  0  0  0  0  0  0  0  0
   -0.9394   -0.7478   -1.9791 C   0  0  0  1  0  0  0  0  0  0  0  0
   -1.5008   -2.0024   -2.3883 O   0  0  0  1  0  0  0  0  0  0  0  0
   -0.9500   -0.6632   -0.4679 C   0  0  0  1  0  0  0  0  0  0  0  0
   -2.4355    1.3100   -0.4576 C   0  0  0  1  0  0  0  0  0  0  0  0
   -2.1756   -0.0386    1.6033 C   0  0  0  1  0  0  0  0  0  0  0  0
   -3.3487   -0.9976   -0.3422 C   0  0  0  1  0  0  0  0  0  0  0  0
   -2.2172   -0.0858    0.0989 N   0  3  0  1  0  0  0  0  0  0  0  0
   -1.5308    0.0543   -2.3688 H   0  0  0  1  0  0  0  0  0  0  0  0
   -1.3704   -2.1192   -3.3322 H   0  0  0  1  0  0  0  0  0  0  0  0
    0.9068    0.2949   -2.1416 H   0  0  0  1  0  0  0  0  0  0  0  0
    1.0579   -1.4454   -2.1937 H   0  0  0  1  0  0  0  0  0  0  0  0
   -0.1312   -0.0475   -0.1589 H   0  0  0  1  0  0  0  0  0  0  0  0
   -0.8234   -1.6500   -0.0741 H   0  0  0  1  0  0  0  0  0  0  0  0
   -2.3475    1.2873   -1.5237 H   0  0  0  1  0  0  0  0  0  0  0  0
   -1.7002    1.9739   -0.0533 H   0  0  0  1  0  0  0  0  0  0  0  0
   -3.4127    1.6525   -0.1879 H   0  0  0  1  0  0  0  0  0  0  0  0
   -1.3680    0.5886    1.9187 H   0  0  0  1  0  0  0  0  0  0  0  0
   -2.0303   -1.0267    1.9870 H   0  0  0  1  0  0  0  0  0  0  0  0
   -3.0988    0.3561    1.9732 H   0  0  0  1  0  0  0  0  0  0  0  0
   -3.1841   -1.9827    0.0419 H   0  0  0  1  0  0  0  0  0  0  0  0
   -3.3821   -1.0328   -1.4111 H   0  0  0  1  0  0  0  0  0  0  0  0
   -4.2773   -0.6199    0.0319 H   0  0  0  1  0  0  0  0  0  0  0  0
  1  2  1  0  0  0  0
  1  3  2  0  0  0  0
  1  4  1  0  0  0  0
  4  5  1  0  0  0  0
  4 14  1  0  0  0  0
  4 15  1  0  0  0  0
  5  6  1  0  0  0  0
  5  7  1  0  0  0  0
  5 12  1  0  0  0  0
  6 13  1  0  0  0  0
  7 11  1  0  0  0  0
  7 16  1  0  0  0  0
  7 17  1  0  0  0  0
  8 11  1  0  0  0  0
  8 18  1  0  0  0  0
  8 19  1  0  0  0  0
  8 20  1  0  0  0  0
  9 11  1  0  0  0  0
  9 21  1  0  0  0  0
  9 22  1  0  0  0  0
  9 23  1  0  0  0  0
 10 11  1  0  0  0  0
 10 24  1  0  0  0  0
 10 25  1  0  0  0  0
 10 26  1  0  0  0  0
M  END
> <ConfClashScore>
0 

> <ConfOneFourInteractionScore>
-0.947927 

> <ConfScore>
-0.186662 

> <ConfScorePBest>
0.0109785 

> <ConfTolerance>
0.315746 

$$$$
152.****
  PyMOL2.4          3D                             0

 26 25  0  0  0  0  0  0  0  0999 V2000
    2.2432    0.4093   -2.1476 C   0  0  0  1  0  0  0  0  0  0  0  0
    3.3938   -0.2279   -2.4934 O   0  5  0  1  0  0  0  0  0  0  0  0
    2.1018    1.6202   -2.1939 O   0  0  0  1  0  0  0  0  0  0  0  0
    1.1805   -0.5611   -1.7060 C   0  0  0  1  0  0  0  0  0  0  0  0
   -0.1163    0.1219   -1.2920 C   0  0  0  1  0  0  0  0  0  0  0  0
   -0.6518    0.7909   -2.4326 O   0  0  0  1  0  0  0  0  0  0  0  0
   -1.1209   -0.8284   -0.6795 C   0  0  0  1  0  0  0  0  0  0  0  0
   -2.3155    1.2826   -0.5086 C   0  0  0  1  0  0  0  0  0  0  0  0
   -2.0412   -0.1280    1.5415 C   0  0  0  1  0  0  0  0  0  0  0  0
   -3.5778   -0.8568   -0.1966 C   0  0  0  1  0  0  0  0  0  0  0  0
   -2.2639   -0.1329    0.0393 N   0  3  0  1  0  0  0  0  0  0  0  0
    0.1294    0.8534   -0.5506 H   0  0  0  1  0  0  0  0  0  0  0  0
   -0.3113    0.3833   -3.2323 H   0  0  0  1  0  0  0  0  0  0  0  0
    1.5534   -1.1182   -0.8720 H   0  0  0  1  0  0  0  0  0  0  0  0
    0.9706   -1.2281   -2.5159 H   0  0  0  1  0  0  0  0  0  0  0  0
   -0.6098   -1.4519    0.0240 H   0  0  0  1  0  0  0  0  0  0  0  0
   -1.5321   -1.4335   -1.4603 H   0  0  0  1  0  0  0  0  0  0  0  0
   -1.4101    1.7954   -0.2593 H   0  0  0  1  0  0  0  0  0  0  0  0
   -3.1481    1.8005   -0.0802 H   0  0  0  1  0  0  0  0  0  0  0  0
   -2.4248    1.2492   -1.5725 H   0  0  0  1  0  0  0  0  0  0  0  0
   -2.9420    0.1716    2.0352 H   0  0  0  1  0  0  0  0  0  0  0  0
   -1.2569    0.5586    1.7833 H   0  0  0  1  0  0  0  0  0  0  0  0
   -1.7677   -1.1108    1.8645 H   0  0  0  1  0  0  0  0  0  0  0  0
   -3.4484   -1.9022   -0.0088 H   0  0  0  1  0  0  0  0  0  0  0  0
   -3.8872   -0.7124   -1.2107 H   0  0  0  1  0  0  0  0  0  0  0  0
   -4.3237   -0.4657    0.4635 H   0  0  0  1  0  0  0  0  0  0  0  0
  1  2  1  0  0  0  0
  1  3  2  0  0  0  0
  1  4  1  0  0  0  0
  4  5  1  0  0  0  0
  4 14  1  0  0  0  0
  4 15  1  0  0  0  0
  5  6  1  0  0  0  0
  5  7  1  0  0  0  0
  5 12  1  0  0  0  0
  6 13  1  0  0  0  0
  7 11  1  0  0  0  0
  7 16  1  0  0  0  0
  7 17  1  0  0  0  0
  8 11  1  0  0  0  0
  8 18  1  0  0  0  0
  8 19  1  0  0  0  0
  8 20  1  0  0  0  0
  9 11  1  0  0  0  0
  9 21  1  0  0  0  0
  9 22  1  0  0  0  0
  9 23  1  0  0  0  0
 10 11  1  0  0  0  0
 10 24  1  0  0  0  0
 10 25  1  0  0  0  0
 10 26  1  0  0  0  0
M  END
> <ConfClashScore>
0 

> <ConfOneFourInteractionScore>
-0.925451 

> <ConfScore>
-0.184228 

> <ConfScorePBest>
0.0108755 

> <ConfTolerance>
0.25 

$$$$
152.****
  PyMOL2.4          3D                             0

 26 25  0  0  0  0  0  0  0  0999 V2000
    1.8457   -2.0439   -0.4210 C   0  0  0  1  0  0  0  0  0  0  0  0
    2.8609   -2.4064    0.4081 O   0  5  0  1  0  0  0  0  0  0  0  0
    1.9695   -1.2366   -1.3273 O   0  0  0  1  0  0  0  0  0  0  0  0
    0.5658   -2.7589   -0.0795 C   0  0  0  1  0  0  0  0  0  0  0  0
   -0.4945   -1.8365    0.5078 C   0  0  0  1  0  0  0  0  0  0  0  0
   -0.1114   -1.4067    1.8226 O   0  0  0  1  0  0  0  0  0  0  0  0
   -0.8501   -0.6153   -0.3125 C   0  0  0  1  0  0  0  0  0  0  0  0
   -2.4804    1.2687   -0.4998 C   0  0  0  1  0  0  0  0  0  0  0  0
   -2.2654    0.1044    1.6174 C   0  0  0  1  0  0  0  0  0  0  0  0
   -3.2328   -1.1104   -0.3414 C   0  0  0  1  0  0  0  0  0  0  0  0
   -2.2072   -0.0863    0.1168 N   0  3  0  1  0  0  0  0  0  0  0  0
   -1.3893   -2.4157    0.6010 H   0  0  0  1  0  0  0  0  0  0  0  0
   -0.0706   -0.4478    1.8471 H   0  0  0  1  0  0  0  0  0  0  0  0
    0.7839   -3.5252    0.6347 H   0  0  0  1  0  0  0  0  0  0  0  0
    0.1750   -3.2025   -0.9714 H   0  0  0  1  0  0  0  0  0  0  0  0
   -0.8836   -0.8806   -1.3486 H   0  0  0  1  0  0  0  0  0  0  0  0
   -0.1095    0.1421   -0.1617 H   0  0  0  1  0  0  0  0  0  0  0  0
   -2.4234    1.1941   -1.5657 H   0  0  0  1  0  0  0  0  0  0  0  0
   -1.7524    1.9717   -0.1524 H   0  0  0  1  0  0  0  0  0  0  0  0
   -3.4584    1.5982   -0.2174 H   0  0  0  1  0  0  0  0  0  0  0  0
   -2.2716   -0.8512    2.0989 H   0  0  0  1  0  0  0  0  0  0  0  0
   -3.1561    0.6388    1.8745 H   0  0  0  1  0  0  0  0  0  0  0  0
   -1.4098    0.6603    1.9395 H   0  0  0  1  0  0  0  0  0  0  0  0
   -3.1493   -1.2510   -1.3989 H   0  0  0  1  0  0  0  0  0  0  0  0
   -4.2160   -0.7607   -0.1049 H   0  0  0  1  0  0  0  0  0  0  0  0
   -3.0550   -2.0404    0.1569 H   0  0  0  1  0  0  0  0  0  0  0  0
  1  2  1  0  0  0  0
  1  3  2  0  0  0  0
  1  4  1  0  0  0  0
  4  5  1  0  0  0  0
  4 14  1  0  0  0  0
  4 15  1  0  0  0  0
  5  6  1  0  0  0  0
  5  7  1  0  0  0  0
  5 12  1  0  0  0  0
  6 13  1  0  0  0  0
  7 11  1  0  0  0  0
  7 16  1  0  0  0  0
  7 17  1  0  0  0  0
  8 11  1  0  0  0  0
  8 18  1  0  0  0  0
  8 19  1  0  0  0  0
  8 20  1  0  0  0  0
  9 11  1  0  0  0  0
  9 21  1  0  0  0  0
  9 22  1  0  0  0  0
  9 23  1  0  0  0  0
 10 11  1  0  0  0  0
 10 24  1  0  0  0  0
 10 25  1  0  0  0  0
 10 26  1  0  0  0  0
M  END
> <ConfClashScore>
0 

> <ConfOneFourInteractionScore>
-0.963965 

> <ConfScore>
-0.180762 

> <ConfScorePBest>
0.0107725 

> <ConfTolerance>
0.253731 

$$$$
152.****
  PyMOL2.4          3D                             0

 26 25  0  0  0  0  0  0  0  0999 V2000
    0.4066   -1.4380    2.2324 C   0  0  0  1  0  0  0  0  0  0  0  0
   -0.2636   -0.9003    3.2866 O   0  5  0  1  0  0  0  0  0  0  0  0
    1.5630   -1.1638    1.9566 O   0  0  0  1  0  0  0  0  0  0  0  0
   -0.4526   -2.4030    1.4601 C   0  0  0  1  0  0  0  0  0  0  0  0
   -0.5669   -2.0549    0.0106 C   0  0  0  1  0  0  0  0  0  0  0  0
   -1.2752   -3.0937   -0.6340 O   0  0  0  1  0  0  0  0  0  0  0  0
   -0.8613   -0.6155   -0.3484 C   0  0  0  1  0  0  0  0  0  0  0  0
   -2.5023    1.2738   -0.4973 C   0  0  0  1  0  0  0  0  0  0  0  0
   -2.2451    0.1123    1.6135 C   0  0  0  1  0  0  0  0  0  0  0  0
   -3.2290   -1.1230   -0.3341 C   0  0  0  1  0  0  0  0  0  0  0  0
   -2.2077   -0.0883    0.1076 N   0  3  0  1  0  0  0  0  0  0  0  0
    0.4353   -2.1974   -0.3361 H   0  0  0  1  0  0  0  0  0  0  0  0
   -1.1398   -3.0334   -1.5825 H   0  0  0  1  0  0  0  0  0  0  0  0
   -1.4332   -2.4040    1.8885 H   0  0  0  1  0  0  0  0  0  0  0  0
   -0.0258   -3.3807    1.5430 H   0  0  0  1  0  0  0  0  0  0  0  0
   -0.8167   -0.5264   -1.4137 H   0  0  0  1  0  0  0  0  0  0  0  0
   -0.1020   -0.0044    0.0933 H   0  0  0  1  0  0  0  0  0  0  0  0
   -2.6905    1.1662   -1.5451 H   0  0  0  1  0  0  0  0  0  0  0  0
   -1.6610    1.9185   -0.3506 H   0  0  0  1  0  0  0  0  0  0  0  0
   -3.3630    1.6962   -0.0222 H   0  0  0  1  0  0  0  0  0  0  0  0
   -1.9206   -0.7830    2.1013 H   0  0  0  1  0  0  0  0  0  0  0  0
   -3.2450    0.3416    1.9178 H   0  0  0  1  0  0  0  0  0  0  0  0
   -1.5961    0.9197    1.8818 H   0  0  0  1  0  0  0  0  0  0  0  0
   -3.1788   -1.2438   -1.3961 H   0  0  0  1  0  0  0  0  0  0  0  0
   -4.2098   -0.7959   -0.0586 H   0  0  0  1  0  0  0  0  0  0  0  0
   -3.0177   -2.0580    0.1414 H   0  0  0  1  0  0  0  0  0  0  0  0
  1  2  1  0  0  0  0
  1  3  2  0  0  0  0
  1  4  1  0  0  0  0
  4  5  1  0  0  0  0
  4 14  1  0  0  0  0
  4 15  1  0  0  0  0
  5  6  1  0  0  0  0
  5  7  1  0  0  0  0
  5 12  1  0  0  0  0
  6 13  1  0  0  0  0
  7 11  1  0  0  0  0
  7 16  1  0  0  0  0
  7 17  1  0  0  0  0
  8 11  1  0  0  0  0
  8 18  1  0  0  0  0
  8 19  1  0  0  0  0
  8 20  1  0  0  0  0
  9 11  1  0  0  0  0
  9 21  1  0  0  0  0
  9 22  1  0  0  0  0
  9 23  1  0  0  0  0
 10 11  1  0  0  0  0
 10 24  1  0  0  0  0
 10 25  1  0  0  0  0
 10 26  1  0  0  0  0
M  END
> <ConfClashScore>
0 

> <ConfOneFourInteractionScore>
-0.919015 

> <ConfScore>
-0.17862 

> <ConfScorePBest>
0.0106695 

> <ConfTolerance>
0.402701 

$$$$
152.****
  PyMOL2.4          3D                             0

 26 25  0  0  0  0  0  0  0  0999 V2000
    1.2130   -0.4707   -3.5767 C   0  0  0  1  0  0  0  0  0  0  0  0
    2.5114   -0.7845   -3.8324 O   0  5  0  1  0  0  0  0  0  0  0  0
    0.4780    0.1405   -4.3347 O   0  0  0  1  0  0  0  0  0  0  0  0
    0.7529   -0.9627   -2.2305 C   0  0  0  1  0  0  0  0  0  0  0  0
   -0.6188   -0.4326   -1.8391 C   0  0  0  1  0  0  0  0  0  0  0  0
   -1.6081   -0.8178   -2.7980 O   0  0  0  1  0  0  0  0  0  0  0  0
   -1.0524   -0.8996   -0.4710 C   0  0  0  1  0  0  0  0  0  0  0  0
   -2.4296    1.1843   -0.6248 C   0  0  0  1  0  0  0  0  0  0  0  0
   -2.0595    0.1694    1.5559 C   0  0  0  1  0  0  0  0  0  0  0  0
   -3.4565   -1.0440   -0.1288 C   0  0  0  1  0  0  0  0  0  0  0  0
   -2.2495   -0.1471    0.0829 N   0  3  0  1  0  0  0  0  0  0  0  0
   -0.5593    0.6355   -1.8140 H   0  0  0  1  0  0  0  0  0  0  0  0
   -2.4744   -0.8127   -2.3843 H   0  0  0  1  0  0  0  0  0  0  0  0
    1.4621   -0.6498   -1.4929 H   0  0  0  1  0  0  0  0  0  0  0  0
    0.7107   -2.0316   -2.2547 H   0  0  0  1  0  0  0  0  0  0  0  0
   -0.2322   -0.7724    0.2043 H   0  0  0  1  0  0  0  0  0  0  0  0
   -1.3058   -1.9372   -0.5336 H   0  0  0  1  0  0  0  0  0  0  0  0
   -3.2997    1.6766   -0.2435 H   0  0  0  1  0  0  0  0  0  0  0  0
   -2.5464    1.0166   -1.6751 H   0  0  0  1  0  0  0  0  0  0  0  0
   -1.5696    1.7977   -0.4544 H   0  0  0  1  0  0  0  0  0  0  0  0
   -1.8710   -0.7358    2.0943 H   0  0  0  1  0  0  0  0  0  0  0  0
   -2.9448    0.6334    1.9378 H   0  0  0  1  0  0  0  0  0  0  0  0
   -1.2290    0.8336    1.6735 H   0  0  0  1  0  0  0  0  0  0  0  0
   -4.3188   -0.5934    0.3164 H   0  0  0  1  0  0  0  0  0  0  0  0
   -3.2772   -1.9961    0.3255 H   0  0  0  1  0  0  0  0  0  0  0  0
   -3.6240   -1.1746   -1.1775 H   0  0  0  1  0  0  0  0  0  0  0  0
  1  2  1  0  0  0  0
  1  3  2  0  0  0  0
  1  4  1  0  0  0  0
  4  5  1  0  0  0  0
  4 14  1  0  0  0  0
  4 15  1  0  0  0  0
  5  6  1  0  0  0  0
  5  7  1  0  0  0  0
  5 12  1  0  0  0  0
  6 13  1  0  0  0  0
  7 11  1  0  0  0  0
  7 16  1  0  0  0  0
  7 17  1  0  0  0  0
  8 11  1  0  0  0  0
  8 18  1  0  0  0  0
  8 19  1  0  0  0  0
  8 20  1  0  0  0  0
  9 11  1  0  0  0  0
  9 21  1  0  0  0  0
  9 22  1  0  0  0  0
  9 23  1  0  0  0  0
 10 11  1  0  0  0  0
 10 24  1  0  0  0  0
 10 25  1  0  0  0  0
 10 26  1  0  0  0  0
M  END
> <ConfClashScore>
0 

> <ConfOneFourInteractionScore>
-0.925451 

> <ConfScore>
-0.176304 

> <ConfScorePBest>
0.0105665 

> <ConfTolerance>
0.254741 

$$$$
152.****
  PyMOL2.4          3D                             0

 26 25  0  0  0  0  0  0  0  0999 V2000
    1.6207   -1.0164    1.6955 C   0  0  0  1  0  0  0  0  0  0  0  0
    2.0785   -1.1585    2.9682 O   0  5  0  1  0  0  0  0  0  0  0  0
    1.8331   -1.8253    0.8073 O   0  0  0  1  0  0  0  0  0  0  0  0
    0.8263    0.2550    1.5270 C   0  0  0  1  0  0  0  0  0  0  0  0
    0.3319    0.3960    0.0967 C   0  0  0  1  0  0  0  0  0  0  0  0
    1.4475    0.1931   -0.7755 O   0  0  0  1  0  0  0  0  0  0  0  0
   -0.8083   -0.5389   -0.2802 C   0  0  0  1  0  0  0  0  0  0  0  0
   -2.4724    1.2622   -0.5360 C   0  0  0  1  0  0  0  0  0  0  0  0
   -2.3012    0.1030    1.6288 C   0  0  0  1  0  0  0  0  0  0  0  0
   -3.2116   -1.1157   -0.3212 C   0  0  0  1  0  0  0  0  0  0  0  0
   -2.1972   -0.0771    0.1246 N   0  3  0  1  0  0  0  0  0  0  0  0
   -0.0203    1.3990   -0.0253 H   0  0  0  1  0  0  0  0  0  0  0  0
    1.5819    0.9778   -1.3119 H   0  0  0  1  0  0  0  0  0  0  0  0
    1.4484    1.0918    1.7672 H   0  0  0  1  0  0  0  0  0  0  0  0
   -0.0145    0.2336    2.1884 H   0  0  0  1  0  0  0  0  0  0  0  0
   -0.6267   -1.4842    0.1870 H   0  0  0  1  0  0  0  0  0  0  0  0
   -0.7981   -0.6581   -1.3435 H   0  0  0  1  0  0  0  0  0  0  0  0
   -2.2850    1.1874   -1.5868 H   0  0  0  1  0  0  0  0  0  0  0  0
   -1.8321    2.0071   -0.1119 H   0  0  0  1  0  0  0  0  0  0  0  0
   -3.4942    1.5358   -0.3749 H   0  0  0  1  0  0  0  0  0  0  0  0
   -2.0897   -0.8263    2.1152 H   0  0  0  1  0  0  0  0  0  0  0  0
   -3.2910    0.4208    1.8821 H   0  0  0  1  0  0  0  0  0  0  0  0
   -1.5960    0.8414    1.9489 H   0  0  0  1  0  0  0  0  0  0  0  0
   -3.2317   -1.1595   -1.3901 H   0  0  0  1  0  0  0  0  0  0  0  0
   -4.1810   -0.8462    0.0428 H   0  0  0  1  0  0  0  0  0  0  0  0
   -2.9367   -2.0730    0.0697 H   0  0  0  1  0  0  0  0  0  0  0  0
  1  2  1  0  0  0  0
  1  3  2  0  0  0  0
  1  4  1  0  0  0  0
  4  5  1  0  0  0  0
  4 14  1  0  0  0  0
  4 15  1  0  0  0  0
  5  6  1  0  0  0  0
  5  7  1  0  0  0  0
  5 12  1  0  0  0  0
  6 13  1  0  0  0  0
  7 11  1  0  0  0  0
  7 16  1  0  0  0  0
  7 17  1  0  0  0  0
  8 11  1  0  0  0  0
  8 18  1  0  0  0  0
  8 19  1  0  0  0  0
  8 20  1  0  0  0  0
  9 11  1  0  0  0  0
  9 21  1  0  0  0  0
  9 22  1  0  0  0  0
  9 23  1  0  0  0  0
 10 11  1  0  0  0  0
 10 24  1  0  0  0  0
 10 25  1  0  0  0  0
 10 26  1  0  0  0  0
M  END
> <ConfClashScore>
0 

> <ConfOneFourInteractionScore>
-0.955465 

> <ConfScore>
-0.171441 

> <ConfScorePBest>
0.0104635 

> <ConfTolerance>
0.533228 

$$$$
152.****
  PyMOL2.4          3D                             0

 26 25  0  0  0  0  0  0  0  0999 V2000
    1.1892   -1.7536   -2.4170 C   0  0  0  1  0  0  0  0  0  0  0  0
    2.2967   -2.4853   -2.7132 O   0  5  0  1  0  0  0  0  0  0  0  0
    1.0517   -0.5815   -2.7263 O   0  0  0  1  0  0  0  0  0  0  0  0
    0.1684   -2.5674   -1.6675 C   0  0  0  1  0  0  0  0  0  0  0  0
   -0.4565   -1.8142   -0.5055 C   0  0  0  1  0  0  0  0  0  0  0  0
    0.5878   -1.4651    0.4077 O   0  0  0  1  0  0  0  0  0  0  0  0
   -1.1462   -0.5332   -0.9186 C   0  0  0  1  0  0  0  0  0  0  0  0
   -2.6111    1.3417   -0.4398 C   0  0  0  1  0  0  0  0  0  0  0  0
   -1.8450   -0.1108    1.4443 C   0  0  0  1  0  0  0  0  0  0  0  0
   -3.4738   -0.9812   -0.1295 C   0  0  0  1  0  0  0  0  0  0  0  0
   -2.2694   -0.0713   -0.0109 N   0  3  0  1  0  0  0  0  0  0  0  0
   -1.1691   -2.4504   -0.0236 H   0  0  0  1  0  0  0  0  0  0  0  0
    0.9747   -0.6261    0.1467 H   0  0  0  1  0  0  0  0  0  0  0  0
    0.6462   -3.4457   -1.2865 H   0  0  0  1  0  0  0  0  0  0  0  0
   -0.6081   -2.8496   -2.3474 H   0  0  0  1  0  0  0  0  0  0  0  0
   -1.5532   -0.6795   -1.8973 H   0  0  0  1  0  0  0  0  0  0  0  0
   -0.4092    0.2418   -0.9504 H   0  0  0  1  0  0  0  0  0  0  0  0
   -3.3619    1.7404    0.2100 H   0  0  0  1  0  0  0  0  0  0  0  0
   -2.9788    1.3302   -1.4445 H   0  0  0  1  0  0  0  0  0  0  0  0
   -1.7338    1.9520   -0.3874 H   0  0  0  1  0  0  0  0  0  0  0  0
   -1.7782   -1.1280    1.7694 H   0  0  0  1  0  0  0  0  0  0  0  0
   -2.5671    0.4071    2.0403 H   0  0  0  1  0  0  0  0  0  0  0  0
   -0.8903    0.3606    1.5501 H   0  0  0  1  0  0  0  0  0  0  0  0
   -3.1919   -1.9816    0.1247 H   0  0  0  1  0  0  0  0  0  0  0  0
   -3.8400   -0.9586   -1.1346 H   0  0  0  1  0  0  0  0  0  0  0  0
   -4.2404   -0.6464    0.5377 H   0  0  0  1  0  0  0  0  0  0  0  0
  1  2  1  0  0  0  0
  1  3  2  0  0  0  0
  1  4  1  0  0  0  0
  4  5  1  0  0  0  0
  4 14  1  0  0  0  0
  4 15  1  0  0  0  0
  5  6  1  0  0  0  0
  5  7  1  0  0  0  0
  5 12  1  0  0  0  0
  6 13  1  0  0  0  0
  7 11  1  0  0  0  0
  7 16  1  0  0  0  0
  7 17  1  0  0  0  0
  8 11  1  0  0  0  0
  8 18  1  0  0  0  0
  8 19  1  0  0  0  0
  8 20  1  0  0  0  0
  9 11  1  0  0  0  0
  9 21  1  0  0  0  0
  9 22  1  0  0  0  0
  9 23  1  0  0  0  0
 10 11  1  0  0  0  0
 10 24  1  0  0  0  0
 10 25  1  0  0  0  0
 10 26  1  0  0  0  0
M  END
> <ConfClashScore>
0 

> <ConfOneFourInteractionScore>
-0.955465 

> <ConfScore>
-0.171014 

> <ConfScorePBest>
0.0103605 

> <ConfTolerance>
0.357888 

$$$$
152.****
  PyMOL2.4          3D                             0

 26 25  0  0  0  0  0  0  0  0999 V2000
   -1.5757   -4.0156    2.4138 C   0  0  0  1  0  0  0  0  0  0  0  0
   -2.0827   -4.2278    3.6578 O   0  5  0  1  0  0  0  0  0  0  0  0
   -1.0724   -4.9048    1.7472 O   0  0  0  1  0  0  0  0  0  0  0  0
   -1.6729   -2.6035    1.9016 C   0  0  0  1  0  0  0  0  0  0  0  0
   -1.1172   -2.4401    0.4930 C   0  0  0  1  0  0  0  0  0  0  0  0
   -1.9457   -3.1948   -0.3961 O   0  0  0  1  0  0  0  0  0  0  0  0
   -1.0055   -1.0091    0.0166 C   0  0  0  1  0  0  0  0  0  0  0  0
   -2.1056    1.0855   -0.6267 C   0  0  0  1  0  0  0  0  0  0  0  0
   -2.4054    0.1784    1.6366 C   0  0  0  1  0  0  0  0  0  0  0  0
   -3.4402   -0.9379   -0.2873 C   0  0  0  1  0  0  0  0  0  0  0  0
   -2.2394   -0.1702    0.1857 N   0  3  0  1  0  0  0  0  0  0  0  0
   -0.1327   -2.8593    0.4841 H   0  0  0  1  0  0  0  0  0  0  0  0
   -1.6916   -4.1200   -0.3632 H   0  0  0  1  0  0  0  0  0  0  0  0
   -1.1241   -1.9636    2.5606 H   0  0  0  1  0  0  0  0  0  0  0  0
   -2.7027   -2.3129    1.8973 H   0  0  0  1  0  0  0  0  0  0  0  0
   -0.7602   -1.0273   -1.0248 H   0  0  0  1  0  0  0  0  0  0  0  0
   -0.2125   -0.5416    0.5621 H   0  0  0  1  0  0  0  0  0  0  0  0
   -1.8843    0.8320   -1.6423 H   0  0  0  1  0  0  0  0  0  0  0  0
   -1.3140    1.6851   -0.2283 H   0  0  0  1  0  0  0  0  0  0  0  0
   -3.0234    1.6343   -0.5882 H   0  0  0  1  0  0  0  0  0  0  0  0
   -2.2694    1.2314    1.7688 H   0  0  0  1  0  0  0  0  0  0  0  0
   -1.6775   -0.3504    2.2158 H   0  0  0  1  0  0  0  0  0  0  0  0
   -3.3875   -0.0974    1.9593 H   0  0  0  1  0  0  0  0  0  0  0  0
   -4.3301   -0.3999   -0.0353 H   0  0  0  1  0  0  0  0  0  0  0  0
   -3.4582   -1.8978    0.1851 H   0  0  0  1  0  0  0  0  0  0  0  0
   -3.3878   -1.0631   -1.3487 H   0  0  0  1  0  0  0  0  0  0  0  0
  1  2  1  0  0  0  0
  1  3  2  0  0  0  0
  1  4  1  0  0  0  0
  4  5  1  0  0  0  0
  4 14  1  0  0  0  0
  4 15  1  0  0  0  0
  5  6  1  0  0  0  0
  5  7  1  0  0  0  0
  5 12  1  0  0  0  0
  6 13  1  0  0  0  0
  7 11  1  0  0  0  0
  7 16  1  0  0  0  0
  7 17  1  0  0  0  0
  8 11  1  0  0  0  0
  8 18  1  0  0  0  0
  8 19  1  0  0  0  0
  8 20  1  0  0  0  0
  9 11  1  0  0  0  0
  9 21  1  0  0  0  0
  9 22  1  0  0  0  0
  9 23  1  0  0  0  0
 10 11  1  0  0  0  0
 10 24  1  0  0  0  0
 10 25  1  0  0  0  0
 10 26  1  0  0  0  0
M  END
> <ConfClashScore>
0 

> <ConfOneFourInteractionScore>
-0.919015 

> <ConfScore>
-0.167593 

> <ConfScorePBest>
0.0102575 

> <ConfTolerance>
0.25 

$$$$
152.****
  PyMOL2.4          3D                             0

 26 25  0  0  0  0  0  0  0  0999 V2000
    2.6187   -1.0497   -0.6256 C   0  0  0  1  0  0  0  0  0  0  0  0
    3.3181   -1.6017   -1.6531 O   0  5  0  1  0  0  0  0  0  0  0  0
    3.0728   -0.1967    0.1190 O   0  0  0  1  0  0  0  0  0  0  0  0
    1.2293   -1.6207   -0.5278 C   0  0  0  1  0  0  0  0  0  0  0  0
    0.1353   -0.5644   -0.6847 C   0  0  0  1  0  0  0  0  0  0  0  0
    0.3185    0.0175   -1.9786 O   0  0  0  1  0  0  0  0  0  0  0  0
   -1.2680   -1.1336   -0.5414 C   0  0  0  1  0  0  0  0  0  0  0  0
   -2.2519    1.1609   -0.6163 C   0  0  0  1  0  0  0  0  0  0  0  0
   -1.9594   -0.0590    1.5377 C   0  0  0  1  0  0  0  0  0  0  0  0
   -3.7001   -0.7542   -0.1087 C   0  0  0  1  0  0  0  0  0  0  0  0
   -2.2983   -0.1962    0.0638 N   0  3  0  1  0  0  0  0  0  0  0  0
    0.2767    0.1817    0.0690 H   0  0  0  1  0  0  0  0  0  0  0  0
   -0.3817    0.6524   -2.1465 H   0  0  0  1  0  0  0  0  0  0  0  0
    1.1189   -2.0858    0.4295 H   0  0  0  1  0  0  0  0  0  0  0  0
    1.1075   -2.3541   -1.2973 H   0  0  0  1  0  0  0  0  0  0  0  0
   -1.2086   -2.0026    0.0800 H   0  0  0  1  0  0  0  0  0  0  0  0
   -1.6103   -1.4139   -1.5156 H   0  0  0  1  0  0  0  0  0  0  0  0
   -2.9227    1.8316   -0.1212 H   0  0  0  1  0  0  0  0  0  0  0  0
   -2.5436    1.0565   -1.6405 H   0  0  0  1  0  0  0  0  0  0  0  0
   -1.2567    1.5508   -0.5663 H   0  0  0  1  0  0  0  0  0  0  0  0
   -2.5915    0.6813    1.9821 H   0  0  0  1  0  0  0  0  0  0  0  0
   -0.9364    0.2366    1.6423 H   0  0  0  1  0  0  0  0  0  0  0  0
   -2.1117   -0.9981    2.0274 H   0  0  0  1  0  0  0  0  0  0  0  0
   -3.8526   -1.0267   -1.1322 H   0  0  0  1  0  0  0  0  0  0  0  0
   -4.4166   -0.0111    0.1728 H   0  0  0  1  0  0  0  0  0  0  0  0
   -3.8187   -1.6179    0.5115 H   0  0  0  1  0  0  0  0  0  0  0  0
  1  2  1  0  0  0  0
  1  3  2  0  0  0  0
  1  4  1  0  0  0  0
  4  5  1  0  0  0  0
  4 14  1  0  0  0  0
  4 15  1  0  0  0  0
  5  6  1  0  0  0  0
  5  7  1  0  0  0  0
  5 12  1  0  0  0  0
  6 13  1  0  0  0  0
  7 11  1  0  0  0  0
  7 16  1  0  0  0  0
  7 17  1  0  0  0  0
  8 11  1  0  0  0  0
  8 18  1  0  0  0  0
  8 19  1  0  0  0  0
  8 20  1  0  0  0  0
  9 11  1  0  0  0  0
  9 21  1  0  0  0  0
  9 22  1  0  0  0  0
  9 23  1  0  0  0  0
 10 11  1  0  0  0  0
 10 24  1  0  0  0  0
 10 25  1  0  0  0  0
 10 26  1  0  0  0  0
M  END
> <ConfClashScore>
0 

> <ConfOneFourInteractionScore>
-0.947927 

> <ConfScore>
-0.157123 

> <ConfScorePBest>
0.0101545 

> <ConfTolerance>
0.279486 

$$$$
152.****
  PyMOL2.4          3D                             0

 26 25  0  0  0  0  0  0  0  0999 V2000
    2.7067    0.4667    0.6937 C   0  0  0  1  0  0  0  0  0  0  0  0
    3.8963    0.8479    0.1560 O   0  5  0  1  0  0  0  0  0  0  0  0
    2.4753    0.5266    1.8901 O   0  0  0  1  0  0  0  0  0  0  0  0
    1.6805   -0.0391   -0.2846 C   0  0  0  1  0  0  0  0  0  0  0  0
    0.2500    0.4665    0.0217 C   0  0  0  1  0  0  0  0  0  0  0  0
    0.1774    1.8147   -0.4467 O   0  0  0  1  0  0  0  0  0  0  0  0
   -0.8545   -0.4222   -0.5004 C   0  0  0  1  0  0  0  0  0  0  0  0
   -2.6345    1.3335   -0.3898 C   0  0  0  1  0  0  0  0  0  0  0  0
   -2.1572    0.0064    1.5935 C   0  0  0  1  0  0  0  0  0  0  0  0
   -3.1862   -1.1081   -0.3967 C   0  0  0  1  0  0  0  0  0  0  0  0
   -2.2082   -0.0472    0.0768 N   0  3  0  1  0  0  0  0  0  0  0  0
    0.1534    0.4813    1.0872 H   0  0  0  1  0  0  0  0  0  0  0  0
   -0.3164    2.3462    0.1820 H   0  0  0  1  0  0  0  0  0  0  0  0
    1.6779   -1.1086   -0.2528 H   0  0  0  1  0  0  0  0  0  0  0  0
    1.9547    0.2884   -1.2656 H   0  0  0  1  0  0  0  0  0  0  0  0
   -0.6357   -1.4359   -0.2369 H   0  0  0  1  0  0  0  0  0  0  0  0
   -0.8964   -0.3311   -1.5657 H   0  0  0  1  0  0  0  0  0  0  0  0
   -2.5709    1.3854   -1.4566 H   0  0  0  1  0  0  0  0  0  0  0  0
   -1.9900    2.0704    0.0421 H   0  0  0  1  0  0  0  0  0  0  0  0
   -3.6431    1.5175   -0.0835 H   0  0  0  1  0  0  0  0  0  0  0  0
   -1.8543   -0.9464    1.9747 H   0  0  0  1  0  0  0  0  0  0  0  0
   -3.1269    0.2508    1.9743 H   0  0  0  1  0  0  0  0  0  0  0  0
   -1.4546    0.7528    1.9004 H   0  0  0  1  0  0  0  0  0  0  0  0
   -2.9007   -2.0598    0.0004 H   0  0  0  1  0  0  0  0  0  0  0  0
   -3.1760   -1.1505   -1.4658 H   0  0  0  1  0  0  0  0  0  0  0  0
   -4.1709   -0.8616   -0.0584 H   0  0  0  1  0  0  0  0  0  0  0  0
  1  2  1  0  0  0  0
  1  3  2  0  0  0  0
  1  4  1  0  0  0  0
  4  5  1  0  0  0  0
  4 14  1  0  0  0  0
  4 15  1  0  0  0  0
  5  6  1  0  0  0  0
  5  7  1  0  0  0  0
  5 12  1  0  0  0  0
  6 13  1  0  0  0  0
  7 11  1  0  0  0  0
  7 16  1  0  0  0  0
  7 17  1  0  0  0  0
  8 11  1  0  0  0  0
  8 18  1  0  0  0  0
  8 19  1  0  0  0  0
  8 20  1  0  0  0  0
  9 11  1  0  0  0  0
  9 21  1  0  0  0  0
  9 22  1  0  0  0  0
  9 23  1  0  0  0  0
 10 11  1  0  0  0  0
 10 24  1  0  0  0  0
 10 25  1  0  0  0  0
 10 26  1  0  0  0  0
M  END
> <ConfClashScore>
0 

> <ConfOneFourInteractionScore>
-0.956427 

> <ConfScore>
-0.148962 

> <ConfScorePBest>
0.0100515 

> <ConfTolerance>
0.41271 

$$$$
152.****
  PyMOL2.4          3D                             0

 26 25  0  0  0  0  0  0  0  0999 V2000
    1.3295    0.6372   -2.1350 C   0  0  0  1  0  0  0  0  0  0  0  0
    1.9998    0.1948   -1.0374 O   0  5  0  1  0  0  0  0  0  0  0  0
    1.4407    1.7659   -2.5846 O   0  0  0  1  0  0  0  0  0  0  0  0
    0.4442   -0.4329   -2.7155 C   0  0  0  1  0  0  0  0  0  0  0  0
   -0.9641   -0.4217   -2.1354 C   0  0  0  1  0  0  0  0  0  0  0  0
   -1.7430   -1.4809   -2.6993 O   0  0  0  1  0  0  0  0  0  0  0  0
   -0.9470   -0.4954   -0.6249 C   0  0  0  1  0  0  0  0  0  0  0  0
   -2.5925    1.2830   -0.4325 C   0  0  0  1  0  0  0  0  0  0  0  0
   -2.0245   -0.0205    1.5443 C   0  0  0  1  0  0  0  0  0  0  0  0
   -3.3421   -1.0254   -0.2838 C   0  0  0  1  0  0  0  0  0  0  0  0
   -2.2205   -0.0874    0.0598 N   0  3  0  1  0  0  0  0  0  0  0  0
   -1.4132    0.5114   -2.4046 H   0  0  0  1  0  0  0  0  0  0  0  0
   -1.7231   -2.2406   -2.1128 H   0  0  0  1  0  0  0  0  0  0  0  0
    0.8870   -1.3864   -2.5163 H   0  0  0  1  0  0  0  0  0  0  0  0
    0.3781   -0.2837   -3.7730 H   0  0  0  1  0  0  0  0  0  0  0  0
   -0.1648    0.1444   -0.2732 H   0  0  0  1  0  0  0  0  0  0  0  0
   -0.7336   -1.5065   -0.3473 H   0  0  0  1  0  0  0  0  0  0  0  0
   -1.7735    1.9535   -0.2755 H   0  0  0  1  0  0  0  0  0  0  0  0
   -3.4488    1.6344    0.1045 H   0  0  0  1  0  0  0  0  0  0  0  0
   -2.8201    1.2369   -1.4770 H   0  0  0  1  0  0  0  0  0  0  0  0
   -1.9264   -1.0112    1.9366 H   0  0  0  1  0  0  0  0  0  0  0  0
   -2.8686    0.4591    1.9940 H   0  0  0  1  0  0  0  0  0  0  0  0
   -1.1383    0.5383    1.7619 H   0  0  0  1  0  0  0  0  0  0  0  0
   -3.2173   -1.9429    0.2522 H   0  0  0  1  0  0  0  0  0  0  0  0
   -3.3322   -1.2228   -1.3354 H   0  0  0  1  0  0  0  0  0  0  0  0
   -4.2760   -0.5786   -0.0131 H   0  0  0  1  0  0  0  0  0  0  0  0
  1  2  1  0  0  0  0
  1  3  2  0  0  0  0
  1  4  1  0  0  0  0
  4  5  1  0  0  0  0
  4 14  1  0  0  0  0
  4 15  1  0  0  0  0
  5  6  1  0  0  0  0
  5  7  1  0  0  0  0
  5 12  1  0  0  0  0
  6 13  1  0  0  0  0
  7 11  1  0  0  0  0
  7 16  1  0  0  0  0
  7 17  1  0  0  0  0
  8 11  1  0  0  0  0
  8 18  1  0  0  0  0
  8 19  1  0  0  0  0
  8 20  1  0  0  0  0
  9 11  1  0  0  0  0
  9 21  1  0  0  0  0
  9 22  1  0  0  0  0
  9 23  1  0  0  0  0
 10 11  1  0  0  0  0
 10 24  1  0  0  0  0
 10 25  1  0  0  0  0
 10 26  1  0  0  0  0
M  END
> <ConfClashScore>
0 

> <ConfOneFourInteractionScore>
-0.956427 

> <ConfScore>
-0.147948 

> <ConfScorePBest>
0.0099485 

> <ConfTolerance>
0.506905 

$$$$
152.****
  PyMOL2.4          3D                             0

 26 25  0  0  0  0  0  0  0  0999 V2000
    1.2873   -3.0260   -0.3092 C   0  0  0  1  0  0  0  0  0  0  0  0
    2.3033   -3.6744   -0.9392 O   0  5  0  1  0  0  0  0  0  0  0  0
    1.3771   -2.5618    0.8154 O   0  0  0  1  0  0  0  0  0  0  0  0
    0.0547   -2.9564   -1.1681 C   0  0  0  1  0  0  0  0  0  0  0  0
   -1.1631   -2.3189   -0.5120 C   0  0  0  1  0  0  0  0  0  0  0  0
   -1.3772   -2.8547    0.7971 O   0  0  0  1  0  0  0  0  0  0  0  0
   -1.0517   -0.8326   -0.4169 C   0  0  0  1  0  0  0  0  0  0  0  0
   -2.2868    1.2543   -0.4699 C   0  0  0  1  0  0  0  0  0  0  0  0
   -2.1772   -0.0786    1.5909 C   0  0  0  1  0  0  0  0  0  0  0  0
   -3.4779   -0.8792   -0.3289 C   0  0  0  1  0  0  0  0  0  0  0  0
   -2.2419   -0.1375    0.0920 N   0  3  0  1  0  0  0  0  0  0  0  0
   -2.0140   -2.5442   -1.1203 H   0  0  0  1  0  0  0  0  0  0  0  0
   -0.5474   -2.8625    1.2798 H   0  0  0  1  0  0  0  0  0  0  0  0
   -0.2074   -3.9545   -1.4509 H   0  0  0  1  0  0  0  0  0  0  0  0
    0.2935   -2.3883   -2.0429 H   0  0  0  1  0  0  0  0  0  0  0  0
   -0.8438   -0.4550   -1.3962 H   0  0  0  1  0  0  0  0  0  0  0  0
   -0.2341   -0.6050    0.2347 H   0  0  0  1  0  0  0  0  0  0  0  0
   -2.3349    1.2069   -1.5378 H   0  0  0  1  0  0  0  0  0  0  0  0
   -1.4060    1.7859   -0.1760 H   0  0  0  1  0  0  0  0  0  0  0  0
   -3.1516    1.7617   -0.0964 H   0  0  0  1  0  0  0  0  0  0  0  0
   -2.9918    0.5085    1.9607 H   0  0  0  1  0  0  0  0  0  0  0  0
   -1.2517    0.3672    1.8904 H   0  0  0  1  0  0  0  0  0  0  0  0
   -2.2420   -1.0694    1.9896 H   0  0  0  1  0  0  0  0  0  0  0  0
   -3.4075   -1.8990   -0.0128 H   0  0  0  1  0  0  0  0  0  0  0  0
   -3.5706   -0.8419   -1.3942 H   0  0  0  1  0  0  0  0  0  0  0  0
   -4.3364   -0.4253    0.1204 H   0  0  0  1  0  0  0  0  0  0  0  0
  1  2  1  0  0  0  0
  1  3  2  0  0  0  0
  1  4  1  0  0  0  0
  4  5  1  0  0  0  0
  4 14  1  0  0  0  0
  4 15  1  0  0  0  0
  5  6  1  0  0  0  0
  5  7  1  0  0  0  0
  5 12  1  0  0  0  0
  6 13  1  0  0  0  0
  7 11  1  0  0  0  0
  7 16  1  0  0  0  0
  7 17  1  0  0  0  0
  8 11  1  0  0  0  0
  8 18  1  0  0  0  0
  8 19  1  0  0  0  0
  8 20  1  0  0  0  0
  9 11  1  0  0  0  0
  9 21  1  0  0  0  0
  9 22  1  0  0  0  0
  9 23  1  0  0  0  0
 10 11  1  0  0  0  0
 10 24  1  0  0  0  0
 10 25  1  0  0  0  0
 10 26  1  0  0  0  0
M  END
> <ConfClashScore>
0 

> <ConfOneFourInteractionScore>
-0.941489 

> <ConfScore>
-0.127824 

> <ConfScorePBest>
0.0098455 

> <ConfTolerance>
0.289738 

$$$$
152.****
  PyMOL2.4          3D                             0

 26 25  0  0  0  0  0  0  0  0999 V2000
    1.2201   -1.3303   -3.4260 C   0  0  0  1  0  0  0  0  0  0  0  0
    0.6033   -2.4328   -3.9296 O   0  5  0  1  0  0  0  0  0  0  0  0
    1.9531   -0.5904   -4.0613 O   0  0  0  1  0  0  0  0  0  0  0  0
    0.9652   -1.0198   -1.9753 C   0  0  0  1  0  0  0  0  0  0  0  0
   -0.4634   -0.5664   -1.7043 C   0  0  0  1  0  0  0  0  0  0  0  0
   -1.3998   -1.4259   -2.3455 O   0  0  0  1  0  0  0  0  0  0  0  0
   -0.7851   -0.5037   -0.2182 C   0  0  0  1  0  0  0  0  0  0  0  0
   -2.5266    1.2544   -0.5380 C   0  0  0  1  0  0  0  0  0  0  0  0
   -2.2547    0.0795    1.6405 C   0  0  0  1  0  0  0  0  0  0  0  0
   -3.2082   -1.0891   -0.3424 C   0  0  0  1  0  0  0  0  0  0  0  0
   -2.1968   -0.0655    0.1302 N   0  3  0  1  0  0  0  0  0  0  0  0
   -0.5709    0.4213   -2.1015 H   0  0  0  1  0  0  0  0  0  0  0  0
   -1.1611   -2.3408   -2.1793 H   0  0  0  1  0  0  0  0  0  0  0  0
    1.6330   -0.2411   -1.6712 H   0  0  0  1  0  0  0  0  0  0  0  0
    1.1579   -1.9007   -1.3994 H   0  0  0  1  0  0  0  0  0  0  0  0
   -0.1049    0.1857    0.2368 H   0  0  0  1  0  0  0  0  0  0  0  0
   -0.6328   -1.4797    0.1929 H   0  0  0  1  0  0  0  0  0  0  0  0
   -2.4000    1.1604   -1.5963 H   0  0  0  1  0  0  0  0  0  0  0  0
   -1.8719    2.0151   -0.1669 H   0  0  0  1  0  0  0  0  0  0  0  0
   -3.5405    1.5195   -0.3224 H   0  0  0  1  0  0  0  0  0  0  0  0
   -1.6552   -0.6810    2.0955 H   0  0  0  1  0  0  0  0  0  0  0  0
   -3.2679   -0.0208    1.9696 H   0  0  0  1  0  0  0  0  0  0  0  0
   -1.8818    1.0425    1.9206 H   0  0  0  1  0  0  0  0  0  0  0  0
   -3.1507   -1.1830   -1.4067 H   0  0  0  1  0  0  0  0  0  0  0  0
   -4.1920   -0.7724   -0.0652 H   0  0  0  1  0  0  0  0  0  0  0  0
   -2.9965   -2.0349    0.1108 H   0  0  0  1  0  0  0  0  0  0  0  0
  1  2  1  0  0  0  0
  1  3  2  0  0  0  0
  1  4  1  0  0  0  0
  4  5  1  0  0  0  0
  4 14  1  0  0  0  0
  4 15  1  0  0  0  0
  5  6  1  0  0  0  0
  5  7  1  0  0  0  0
  5 12  1  0  0  0  0
  6 13  1  0  0  0  0
  7 11  1  0  0  0  0
  7 16  1  0  0  0  0
  7 17  1  0  0  0  0
  8 11  1  0  0  0  0
  8 18  1  0  0  0  0
  8 19  1  0  0  0  0
  8 20  1  0  0  0  0
  9 11  1  0  0  0  0
  9 21  1  0  0  0  0
  9 22  1  0  0  0  0
  9 23  1  0  0  0  0
 10 11  1  0  0  0  0
 10 24  1  0  0  0  0
 10 25  1  0  0  0  0
 10 26  1  0  0  0  0
M  END
> <ConfClashScore>
0 

> <ConfOneFourInteractionScore>
-0.959664 

> <ConfScore>
-0.125593 

> <ConfScorePBest>
0.0097425 

> <ConfTolerance>
0.290654 

$$$$
152.****
  PyMOL2.4          3D                             0

 26 25  0  0  0  0  0  0  0  0999 V2000
    2.4096    0.0291    0.4300 C   0  0  0  1  0  0  0  0  0  0  0  0
    2.8791    0.0174    1.7063 O   0  5  0  1  0  0  0  0  0  0  0  0
    3.0552    0.4327   -0.5233 O   0  0  0  1  0  0  0  0  0  0  0  0
    1.0080   -0.5137    0.3474 C   0  0  0  1  0  0  0  0  0  0  0  0
    0.1758    0.1468   -0.7440 C   0  0  0  1  0  0  0  0  0  0  0  0
    0.8866    0.1229   -1.9852 O   0  0  0  1  0  0  0  0  0  0  0  0
   -1.1497   -0.5618   -0.9124 C   0  0  0  1  0  0  0  0  0  0  0  0
   -2.6361    1.3334   -0.4063 C   0  0  0  1  0  0  0  0  0  0  0  0
   -1.8363   -0.0719    1.4444 C   0  0  0  1  0  0  0  0  0  0  0  0
   -3.4567   -1.0084   -0.1639 C   0  0  0  1  0  0  0  0  0  0  0  0
   -2.2689   -0.0823   -0.0089 N   0  3  0  1  0  0  0  0  0  0  0  0
   -0.0141    1.1601   -0.4575 H   0  0  0  1  0  0  0  0  0  0  0  0
    1.3458    0.9570   -2.1076 H   0  0  0  1  0  0  0  0  0  0  0  0
    0.5246   -0.3532    1.2884 H   0  0  0  1  0  0  0  0  0  0  0  0
    1.0605   -1.5635    0.1473 H   0  0  0  1  0  0  0  0  0  0  0  0
   -0.9934   -1.6024   -0.7186 H   0  0  0  1  0  0  0  0  0  0  0  0
   -1.4662   -0.4309   -1.9261 H   0  0  0  1  0  0  0  0  0  0  0  0
   -3.4618    1.6680    0.1863 H   0  0  0  1  0  0  0  0  0  0  0  0
   -2.9084    1.3540   -1.4408 H   0  0  0  1  0  0  0  0  0  0  0  0
   -1.7973    1.9778   -0.2449 H   0  0  0  1  0  0  0  0  0  0  0  0
   -1.5832   -1.0659    1.7489 H   0  0  0  1  0  0  0  0  0  0  0  0
   -2.6373    0.2940    2.0521 H   0  0  0  1  0  0  0  0  0  0  0  0
   -0.9830    0.5637    1.5577 H   0  0  0  1  0  0  0  0  0  0  0  0
   -3.1794   -1.9979    0.1344 H   0  0  0  1  0  0  0  0  0  0  0  0
   -3.7692   -1.0190   -1.1872 H   0  0  0  1  0  0  0  0  0  0  0  0
   -4.2608   -0.6627    0.4516 H   0  0  0  1  0  0  0  0  0  0  0  0
  1  2  1  0  0  0  0
  1  3  2  0  0  0  0
  1  4  1  0  0  0  0
  4  5  1  0  0  0  0
  4 14  1  0  0  0  0
  4 15  1  0  0  0  0
  5  6  1  0  0  0  0
  5  7  1  0  0  0  0
  5 12  1  0  0  0  0
  6 13  1  0  0  0  0
  7 11  1  0  0  0  0
  7 16  1  0  0  0  0
  7 17  1  0  0  0  0
  8 11  1  0  0  0  0
  8 18  1  0  0  0  0
  8 19  1  0  0  0  0
  8 20  1  0  0  0  0
  9 11  1  0  0  0  0
  9 21  1  0  0  0  0
  9 22  1  0  0  0  0
  9 23  1  0  0  0  0
 10 11  1  0  0  0  0
 10 24  1  0  0  0  0
 10 25  1  0  0  0  0
 10 26  1  0  0  0  0
M  END
> <ConfClashScore>
0 

> <ConfOneFourInteractionScore>
-0.951164 

> <ConfScore>
-0.123081 

> <ConfScorePBest>
0.0096395 

> <ConfTolerance>
0.430636 

$$$$
152.****
  PyMOL2.4          3D                             0

 26 25  0  0  0  0  0  0  0  0999 V2000
   -1.4639   -3.4320   -1.8180 C   0  0  0  1  0  0  0  0  0  0  0  0
   -1.1741   -4.2326   -2.8784 O   0  5  0  1  0  0  0  0  0  0  0  0
   -2.6005   -3.1556   -1.4713 O   0  0  0  1  0  0  0  0  0  0  0  0
   -0.2172   -2.9379   -1.1370 C   0  0  0  1  0  0  0  0  0  0  0  0
   -0.4417   -1.9280   -0.0115 C   0  0  0  1  0  0  0  0  0  0  0  0
    0.8024   -1.8382    0.6890 O   0  0  0  1  0  0  0  0  0  0  0  0
   -0.9192   -0.5877   -0.5243 C   0  0  0  1  0  0  0  0  0  0  0  0
   -2.4851    1.2722   -0.5621 C   0  0  0  1  0  0  0  0  0  0  0  0
   -2.1215    0.0330    1.5827 C   0  0  0  1  0  0  0  0  0  0  0  0
   -3.3607   -1.0466   -0.2096 C   0  0  0  1  0  0  0  0  0  0  0  0
   -2.2216   -0.0825    0.0718 N   0  3  0  1  0  0  0  0  0  0  0  0
   -1.1909   -2.3211    0.6436 H   0  0  0  1  0  0  0  0  0  0  0  0
    0.6877   -2.1555    1.5878 H   0  0  0  1  0  0  0  0  0  0  0  0
    0.4019   -2.4753   -1.8770 H   0  0  0  1  0  0  0  0  0  0  0  0
    0.2911   -3.7843   -0.7245 H   0  0  0  1  0  0  0  0  0  0  0  0
   -1.0516   -0.6687   -1.5830 H   0  0  0  1  0  0  0  0  0  0  0  0
   -0.1588    0.1350   -0.3137 H   0  0  0  1  0  0  0  0  0  0  0  0
   -1.7008    1.9497   -0.2961 H   0  0  0  1  0  0  0  0  0  0  0  0
   -3.4207    1.6544   -0.2105 H   0  0  0  1  0  0  0  0  0  0  0  0
   -2.5195    1.1671   -1.6264 H   0  0  0  1  0  0  0  0  0  0  0  0
   -1.8985   -0.9266    2.0003 H   0  0  0  1  0  0  0  0  0  0  0  0
   -3.0524    0.3851    1.9757 H   0  0  0  1  0  0  0  0  0  0  0  0
   -1.3431    0.7218    1.8367 H   0  0  0  1  0  0  0  0  0  0  0  0
   -3.4084   -1.2463   -1.2597 H   0  0  0  1  0  0  0  0  0  0  0  0
   -4.2837   -0.6116    0.1127 H   0  0  0  1  0  0  0  0  0  0  0  0
   -3.1927   -1.9610    0.3199 H   0  0  0  1  0  0  0  0  0  0  0  0
  1  2  1  0  0  0  0
  1  3  2  0  0  0  0
  1  4  1  0  0  0  0
  4  5  1  0  0  0  0
  4 14  1  0  0  0  0
  4 15  1  0  0  0  0
  5  6  1  0  0  0  0
  5  7  1  0  0  0  0
  5 12  1  0  0  0  0
  6 13  1  0  0  0  0
  7 11  1  0  0  0  0
  7 16  1  0  0  0  0
  7 17  1  0  0  0  0
  8 11  1  0  0  0  0
  8 18  1  0  0  0  0
  8 19  1  0  0  0  0
  8 20  1  0  0  0  0
  9 11  1  0  0  0  0
  9 21  1  0  0  0  0
  9 22  1  0  0  0  0
  9 23  1  0  0  0  0
 10 11  1  0  0  0  0
 10 24  1  0  0  0  0
 10 25  1  0  0  0  0
 10 26  1  0  0  0  0
M  END
> <ConfClashScore>
0 

> <ConfOneFourInteractionScore>
-0.939427 

> <ConfScore>
-0.122116 

> <ConfScorePBest>
0.0095365 

> <ConfTolerance>
0.44851 

$$$$
152.****
  PyMOL2.4          3D                             0

 26 25  0  0  0  0  0  0  0  0999 V2000
    0.1586   -1.8526   -3.9966 C   0  0  0  1  0  0  0  0  0  0  0  0
   -0.3820   -2.8467   -4.7511 O   0  5  0  1  0  0  0  0  0  0  0  0
    0.8174   -0.9243   -4.4354 O   0  0  0  1  0  0  0  0  0  0  0  0
   -0.0875   -1.9240   -2.5099 C   0  0  0  1  0  0  0  0  0  0  0  0
   -0.9420   -0.7562   -2.0489 C   0  0  0  1  0  0  0  0  0  0  0  0
   -2.2198   -0.8520   -2.6463 O   0  0  0  1  0  0  0  0  0  0  0  0
   -0.9916   -0.7325   -0.5375 C   0  0  0  1  0  0  0  0  0  0  0  0
   -2.5454    1.2317   -0.5676 C   0  0  0  1  0  0  0  0  0  0  0  0
   -1.9543    0.0368    1.5539 C   0  0  0  1  0  0  0  0  0  0  0  0
   -3.4558   -0.9863   -0.1733 C   0  0  0  1  0  0  0  0  0  0  0  0
   -2.2359   -0.1131    0.0680 N   0  3  0  1  0  0  0  0  0  0  0  0
   -0.4679    0.1454   -2.3762 H   0  0  0  1  0  0  0  0  0  0  0  0
   -2.2992   -0.1935   -3.3403 H   0  0  0  1  0  0  0  0  0  0  0  0
    0.8513   -1.8956   -1.9972 H   0  0  0  1  0  0  0  0  0  0  0  0
   -0.5918   -2.8395   -2.2813 H   0  0  0  1  0  0  0  0  0  0  0  0
   -0.1453   -0.1780   -0.1893 H   0  0  0  1  0  0  0  0  0  0  0  0
   -0.9245   -1.7423   -0.1902 H   0  0  0  1  0  0  0  0  0  0  0  0
   -3.4755    1.6005   -0.1883 H   0  0  0  1  0  0  0  0  0  0  0  0
   -2.6138    1.1168   -1.6292 H   0  0  0  1  0  0  0  0  0  0  0  0
   -1.7648    1.9249   -0.3329 H   0  0  0  1  0  0  0  0  0  0  0  0
   -1.7370   -0.9227    1.9747 H   0  0  0  1  0  0  0  0  0  0  0  0
   -2.8124    0.4528    2.0391 H   0  0  0  1  0  0  0  0  0  0  0  0
   -1.1151    0.6857    1.6939 H   0  0  0  1  0  0  0  0  0  0  0  0
   -3.6081   -1.1042   -1.2258 H   0  0  0  1  0  0  0  0  0  0  0  0
   -4.3169   -0.5237    0.2618 H   0  0  0  1  0  0  0  0  0  0  0  0
   -3.3013   -1.9458    0.2742 H   0  0  0  1  0  0  0  0  0  0  0  0
  1  2  1  0  0  0  0
  1  3  2  0  0  0  0
  1  4  1  0  0  0  0
  4  5  1  0  0  0  0
  4 14  1  0  0  0  0
  4 15  1  0  0  0  0
  5  6  1  0  0  0  0
  5  7  1  0  0  0  0
  5 12  1  0  0  0  0
  6 13  1  0  0  0  0
  7 11  1  0  0  0  0
  7 16  1  0  0  0  0
  7 17  1  0  0  0  0
  8 11  1  0  0  0  0
  8 18  1  0  0  0  0
  8 19  1  0  0  0  0
  8 20  1  0  0  0  0
  9 11  1  0  0  0  0
  9 21  1  0  0  0  0
  9 22  1  0  0  0  0
  9 23  1  0  0  0  0
 10 11  1  0  0  0  0
 10 24  1  0  0  0  0
 10 25  1  0  0  0  0
 10 26  1  0  0  0  0
M  END
> <ConfClashScore>
0 

> <ConfOneFourInteractionScore>
-0.974231 

> <ConfScore>
-0.120648 

> <ConfScorePBest>
0.00943349 

> <ConfTolerance>
0.338656 

$$$$
152.****
  PyMOL2.4          3D                             0

 26 25  0  0  0  0  0  0  0  0999 V2000
    1.2393   -2.9937   -1.1573 C   0  0  0  1  0  0  0  0  0  0  0  0
    1.9195   -4.1085   -1.5369 O   0  5  0  1  0  0  0  0  0  0  0  0
    1.8096   -1.9638   -0.8372 O   0  0  0  1  0  0  0  0  0  0  0  0
   -0.2463   -3.2290   -1.1958 C   0  0  0  1  0  0  0  0  0  0  0  0
   -1.1114   -2.4169   -0.2458 C   0  0  0  1  0  0  0  0  0  0  0  0
   -0.5474   -2.5264    1.0643 O   0  0  0  1  0  0  0  0  0  0  0  0
   -1.1974   -0.9535   -0.6479 C   0  0  0  1  0  0  0  0  0  0  0  0
   -2.3076    1.2458   -0.5011 C   0  0  0  1  0  0  0  0  0  0  0  0
   -1.9891   -0.1158    1.4904 C   0  0  0  1  0  0  0  0  0  0  0  0
   -3.6247   -0.8138   -0.1659 C   0  0  0  1  0  0  0  0  0  0  0  0
   -2.2851   -0.1606    0.0167 N   0  3  0  1  0  0  0  0  0  0  0  0
   -2.0989   -2.8288   -0.2493 H   0  0  0  1  0  0  0  0  0  0  0  0
    0.0538   -3.2742    1.0929 H   0  0  0  1  0  0  0  0  0  0  0  0
   -0.4125   -4.2628   -0.9757 H   0  0  0  1  0  0  0  0  0  0  0  0
   -0.5782   -3.0178   -2.1908 H   0  0  0  1  0  0  0  0  0  0  0  0
   -1.3587   -0.9117   -1.7048 H   0  0  0  1  0  0  0  0  0  0  0  0
   -0.2618   -0.4917   -0.4108 H   0  0  0  1  0  0  0  0  0  0  0  0
   -1.5753    1.8290    0.0171 H   0  0  0  1  0  0  0  0  0  0  0  0
   -3.2776    1.6686   -0.3422 H   0  0  0  1  0  0  0  0  0  0  0  0
   -2.0860    1.2438   -1.5479 H   0  0  0  1  0  0  0  0  0  0  0  0
   -2.7934    0.3706    2.0017 H   0  0  0  1  0  0  0  0  0  0  0  0
   -1.0818    0.4270    1.6554 H   0  0  0  1  0  0  0  0  0  0  0  0
   -1.8813   -1.1131    1.8628 H   0  0  0  1  0  0  0  0  0  0  0  0
   -3.5968   -1.8048    0.2366 H   0  0  0  1  0  0  0  0  0  0  0  0
   -3.8599   -0.8592   -1.2088 H   0  0  0  1  0  0  0  0  0  0  0  0
   -4.3721   -0.2428    0.3442 H   0  0  0  1  0  0  0  0  0  0  0  0
  1  2  1  0  0  0  0
  1  3  2  0  0  0  0
  1  4  1  0  0  0  0
  4  5  1  0  0  0  0
  4 14  1  0  0  0  0
  4 15  1  0  0  0  0
  5  6  1  0  0  0  0
  5  7  1  0  0  0  0
  5 12  1  0  0  0  0
  6 13  1  0  0  0  0
  7 11  1  0  0  0  0
  7 16  1  0  0  0  0
  7 17  1  0  0  0  0
  8 11  1  0  0  0  0
  8 18  1  0  0  0  0
  8 19  1  0  0  0  0
  8 20  1  0  0  0  0
  9 11  1  0  0  0  0
  9 21  1  0  0  0  0
  9 22  1  0  0  0  0
  9 23  1  0  0  0  0
 10 11  1  0  0  0  0
 10 24  1  0  0  0  0
 10 25  1  0  0  0  0
 10 26  1  0  0  0  0
M  END
> <ConfClashScore>
0 

> <ConfOneFourInteractionScore>
-0.963965 

> <ConfScore>
-0.112969 

> <ConfScorePBest>
0.00933049 

> <ConfTolerance>
0.45396 

$$$$
152.****
  PyMOL2.4          3D                             0

 26 25  0  0  0  0  0  0  0  0999 V2000
   -2.2900   -4.0093   -0.9145 C   0  0  0  1  0  0  0  0  0  0  0  0
   -3.1245   -5.0596   -1.1383 O   0  5  0  1  0  0  0  0  0  0  0  0
   -1.4124   -4.0128   -0.0670 O   0  0  0  1  0  0  0  0  0  0  0  0
   -2.5859   -2.8577   -1.8356 C   0  0  0  1  0  0  0  0  0  0  0  0
   -1.5544   -1.7371   -1.8318 C   0  0  0  1  0  0  0  0  0  0  0  0
   -1.9125   -0.6409   -2.6719 O   0  0  0  1  0  0  0  0  0  0  0  0
   -1.2566   -1.1642   -0.4641 C   0  0  0  1  0  0  0  0  0  0  0  0
   -2.2442    1.1265   -0.6419 C   0  0  0  1  0  0  0  0  0  0  0  0
   -1.9737   -0.0330    1.5562 C   0  0  0  1  0  0  0  0  0  0  0  0
   -3.6940   -0.7411   -0.1134 C   0  0  0  1  0  0  0  0  0  0  0  0
   -2.2923   -0.2035    0.0835 N   0  3  0  1  0  0  0  0  0  0  0  0
   -0.6399   -2.1535   -2.1992 H   0  0  0  1  0  0  0  0  0  0  0  0
   -1.2359   -0.5158   -3.3413 H   0  0  0  1  0  0  0  0  0  0  0  0
   -3.5284   -2.4399   -1.5493 H   0  0  0  1  0  0  0  0  0  0  0  0
   -2.6530   -3.2411   -2.8323 H   0  0  0  1  0  0  0  0  0  0  0  0
   -0.3233   -0.6441   -0.5214 H   0  0  0  1  0  0  0  0  0  0  0  0
   -1.1693   -1.9801    0.2225 H   0  0  0  1  0  0  0  0  0  0  0  0
   -2.9300    1.8082   -0.1838 H   0  0  0  1  0  0  0  0  0  0  0  0
   -2.5152    0.9833   -1.6670 H   0  0  0  1  0  0  0  0  0  0  0  0
   -1.2534    1.5268   -0.5869 H   0  0  0  1  0  0  0  0  0  0  0  0
   -2.6303    0.6969    1.9815 H   0  0  0  1  0  0  0  0  0  0  0  0
   -0.9602    0.2920    1.6663 H   0  0  0  1  0  0  0  0  0  0  0  0
   -2.1057   -0.9678    2.0599 H   0  0  0  1  0  0  0  0  0  0  0  0
   -3.9040   -0.8161   -1.1599 H   0  0  0  1  0  0  0  0  0  0  0  0
   -4.3977   -0.0779    0.3447 H   0  0  0  1  0  0  0  0  0  0  0  0
   -3.7708   -1.7091    0.3359 H   0  0  0  1  0  0  0  0  0  0  0  0
  1  2  1  0  0  0  0
  1  3  2  0  0  0  0
  1  4  1  0  0  0  0
  4  5  1  0  0  0  0
  4 14  1  0  0  0  0
  4 15  1  0  0  0  0
  5  6  1  0  0  0  0
  5  7  1  0  0  0  0
  5 12  1  0  0  0  0
  6 13  1  0  0  0  0
  7 11  1  0  0  0  0
  7 16  1  0  0  0  0
  7 17  1  0  0  0  0
  8 11  1  0  0  0  0
  8 18  1  0  0  0  0
  8 19  1  0  0  0  0
  8 20  1  0  0  0  0
  9 11  1  0  0  0  0
  9 21  1  0  0  0  0
  9 22  1  0  0  0  0
  9 23  1  0  0  0  0
 10 11  1  0  0  0  0
 10 24  1  0  0  0  0
 10 25  1  0  0  0  0
 10 26  1  0  0  0  0
M  END
> <ConfClashScore>
0.00151748 

> <ConfOneFourInteractionScore>
-0.982731 

> <ConfScore>
-0.111987 

> <ConfScorePBest>
0.00922749 

> <ConfTolerance>
0.413185 

$$$$
152.****
  PyMOL2.4          3D                             0

 26 25  0  0  0  0  0  0  0  0999 V2000
    1.1379   -2.9879   -0.4598 C   0  0  0  1  0  0  0  0  0  0  0  0
    1.0937   -2.6011   -1.7629 O   0  5  0  1  0  0  0  0  0  0  0  0
    2.1718   -3.0040    0.1877 O   0  0  0  1  0  0  0  0  0  0  0  0
   -0.1811   -3.4005    0.1450 C   0  0  0  1  0  0  0  0  0  0  0  0
   -0.8339   -2.2292    0.8674 C   0  0  0  1  0  0  0  0  0  0  0  0
   -0.0074   -1.9432    2.0038 O   0  0  0  1  0  0  0  0  0  0  0  0
   -0.9868   -1.0161    0.0008 C   0  0  0  1  0  0  0  0  0  0  0  0
   -2.0350    1.0737   -0.6584 C   0  0  0  1  0  0  0  0  0  0  0  0
   -2.4484    0.1838    1.6419 C   0  0  0  1  0  0  0  0  0  0  0  0
   -3.4727   -0.9291   -0.2579 C   0  0  0  1  0  0  0  0  0  0  0  0
   -2.2365   -0.1720    0.1811 N   0  3  0  1  0  0  0  0  0  0  0  0
   -1.8044   -2.5352    1.1980 H   0  0  0  1  0  0  0  0  0  0  0  0
   -0.5473   -1.9295    2.7974 H   0  0  0  1  0  0  0  0  0  0  0  0
   -0.0141   -4.1941    0.8430 H   0  0  0  1  0  0  0  0  0  0  0  0
   -0.8327   -3.7401   -0.6328 H   0  0  0  1  0  0  0  0  0  0  0  0
   -0.9685   -1.3462   -1.0168 H   0  0  0  1  0  0  0  0  0  0  0  0
   -0.1443   -0.3830    0.1862 H   0  0  0  1  0  0  0  0  0  0  0  0
   -1.9361    0.7986   -1.6877 H   0  0  0  1  0  0  0  0  0  0  0  0
   -1.1484    1.5799   -0.3381 H   0  0  0  1  0  0  0  0  0  0  0  0
   -2.8782    1.7221   -0.5423 H   0  0  0  1  0  0  0  0  0  0  0  0
   -3.3050    0.8183    1.7344 H   0  0  0  1  0  0  0  0  0  0  0  0
   -1.5847    0.6947    2.0132 H   0  0  0  1  0  0  0  0  0  0  0  0
   -2.6048   -0.7109    2.2076 H   0  0  0  1  0  0  0  0  0  0  0  0
   -4.3345   -0.3066   -0.1369 H   0  0  0  1  0  0  0  0  0  0  0  0
   -3.5823   -1.8097    0.3400 H   0  0  0  1  0  0  0  0  0  0  0  0
   -3.3745   -1.2059   -1.2868 H   0  0  0  1  0  0  0  0  0  0  0  0
  1  2  1  0  0  0  0
  1  3  2  0  0  0  0
  1  4  1  0  0  0  0
  4  5  1  0  0  0  0
  4 14  1  0  0  0  0
  4 15  1  0  0  0  0
  5  6  1  0  0  0  0
  5  7  1  0  0  0  0
  5 12  1  0  0  0  0
  6 13  1  0  0  0  0
  7 11  1  0  0  0  0
  7 16  1  0  0  0  0
  7 17  1  0  0  0  0
  8 11  1  0  0  0  0
  8 18  1  0  0  0  0
  8 19  1  0  0  0  0
  8 20  1  0  0  0  0
  9 11  1  0  0  0  0
  9 21  1  0  0  0  0
  9 22  1  0  0  0  0
  9 23  1  0  0  0  0
 10 11  1  0  0  0  0
 10 24  1  0  0  0  0
 10 25  1  0  0  0  0
 10 26  1  0  0  0  0
M  END
> <ConfClashScore>
0 

> <ConfOneFourInteractionScore>
-0.955465 

> <ConfScore>
-0.102387 

> <ConfScorePBest>
0.00912449 

> <ConfTolerance>
0.428732 

$$$$
152.****
  PyMOL2.4          3D                             0

 26 25  0  0  0  0  0  0  0  0999 V2000
    1.9623   -1.9380    0.8471 C   0  0  0  1  0  0  0  0  0  0  0  0
    3.0601   -1.1511    0.6882 O   0  5  0  1  0  0  0  0  0  0  0  0
    1.6589   -2.5106    1.8808 O   0  0  0  1  0  0  0  0  0  0  0  0
    1.0702   -2.0998   -0.3546 C   0  0  0  1  0  0  0  0  0  0  0  0
   -0.4000   -1.8782   -0.0388 C   0  0  0  1  0  0  0  0  0  0  0  0
   -0.5490   -2.1192    1.3610 O   0  0  0  1  0  0  0  0  0  0  0  0
   -0.7991   -0.4491   -0.3318 C   0  0  0  1  0  0  0  0  0  0  0  0
   -2.4934    1.2809   -0.5490 C   0  0  0  1  0  0  0  0  0  0  0  0
   -2.2775    0.0576    1.6243 C   0  0  0  1  0  0  0  0  0  0  0  0
   -3.2160   -1.1024   -0.2957 C   0  0  0  1  0  0  0  0  0  0  0  0
   -2.1964   -0.0534    0.1121 N   0  3  0  1  0  0  0  0  0  0  0  0
   -1.0029   -2.5483   -0.6154 H   0  0  0  1  0  0  0  0  0  0  0  0
   -0.0498   -1.4639    1.8539 H   0  0  0  1  0  0  0  0  0  0  0  0
    1.1906   -3.0919   -0.7369 H   0  0  0  1  0  0  0  0  0  0  0  0
    1.3693   -1.3915   -1.0987 H   0  0  0  1  0  0  0  0  0  0  0  0
   -0.7352   -0.2999   -1.3894 H   0  0  0  1  0  0  0  0  0  0  0  0
   -0.1022    0.1950    0.1625 H   0  0  0  1  0  0  0  0  0  0  0  0
   -2.5975    1.1412   -1.6047 H   0  0  0  1  0  0  0  0  0  0  0  0
   -1.6895    1.9605   -0.3571 H   0  0  0  1  0  0  0  0  0  0  0  0
   -3.4023    1.6814   -0.1511 H   0  0  0  1  0  0  0  0  0  0  0  0
   -1.9348   -0.8537    2.0683 H   0  0  0  1  0  0  0  0  0  0  0  0
   -3.2918    0.2360    1.9147 H   0  0  0  1  0  0  0  0  0  0  0  0
   -1.6632    0.8686    1.9556 H   0  0  0  1  0  0  0  0  0  0  0  0
   -3.1621   -1.2611   -1.3525 H   0  0  0  1  0  0  0  0  0  0  0  0
   -4.1977   -0.7655   -0.0355 H   0  0  0  1  0  0  0  0  0  0  0  0
   -3.0067   -2.0199    0.2135 H   0  0  0  1  0  0  0  0  0  0  0  0
  1  2  1  0  0  0  0
  1  3  2  0  0  0  0
  1  4  1  0  0  0  0
  4  5  1  0  0  0  0
  4 14  1  0  0  0  0
  4 15  1  0  0  0  0
  5  6  1  0  0  0  0
  5  7  1  0  0  0  0
  5 12  1  0  0  0  0
  6 13  1  0  0  0  0
  7 11  1  0  0  0  0
  7 16  1  0  0  0  0
  7 17  1  0  0  0  0
  8 11  1  0  0  0  0
  8 18  1  0  0  0  0
  8 19  1  0  0  0  0
  8 20  1  0  0  0  0
  9 11  1  0  0  0  0
  9 21  1  0  0  0  0
  9 22  1  0  0  0  0
  9 23  1  0  0  0  0
 10 11  1  0  0  0  0
 10 24  1  0  0  0  0
 10 25  1  0  0  0  0
 10 26  1  0  0  0  0
M  END
> <ConfClashScore>
0 

> <ConfOneFourInteractionScore>
-0.96307 

> <ConfScore>
-0.0975872 

> <ConfScorePBest>
0.00902149 

> <ConfTolerance>
0.404965 

$$$$
152.****
  PyMOL2.4          3D                             0

 26 25  0  0  0  0  0  0  0  0999 V2000
   -0.4141    0.6325   -4.1653 C   0  0  0  1  0  0  0  0  0  0  0  0
    0.8251    0.7633   -4.7102 O   0  5  0  1  0  0  0  0  0  0  0  0
   -1.4457    0.6780   -4.8150 O   0  0  0  1  0  0  0  0  0  0  0  0
   -0.3483    0.4273   -2.6768 C   0  0  0  1  0  0  0  0  0  0  0  0
   -1.1016   -0.7842   -2.1523 C   0  0  0  1  0  0  0  0  0  0  0  0
   -0.4608   -1.9329   -2.7150 O   0  0  0  1  0  0  0  0  0  0  0  0
   -1.1185   -0.8641   -0.6334 C   0  0  0  1  0  0  0  0  0  0  0  0
   -2.2809    1.2641   -0.5207 C   0  0  0  1  0  0  0  0  0  0  0  0
   -2.0736   -0.1154    1.5530 C   0  0  0  1  0  0  0  0  0  0  0  0
   -3.5800   -0.8450   -0.2036 C   0  0  0  1  0  0  0  0  0  0  0  0
   -2.2638   -0.1404    0.0488 N   0  3  0  1  0  0  0  0  0  0  0  0
   -2.1123   -0.7305   -2.4993 H   0  0  0  1  0  0  0  0  0  0  0  0
    0.4693   -1.7430   -2.8580 H   0  0  0  1  0  0  0  0  0  0  0  0
   -0.7542    1.2978   -2.2053 H   0  0  0  1  0  0  0  0  0  0  0  0
    0.6806    0.3199   -2.4036 H   0  0  0  1  0  0  0  0  0  0  0  0
   -0.2027   -0.4453   -0.2718 H   0  0  0  1  0  0  0  0  0  0  0  0
   -1.1719   -1.8969   -0.3589 H   0  0  0  1  0  0  0  0  0  0  0  0
   -1.3276    1.7242   -0.3650 H   0  0  0  1  0  0  0  0  0  0  0  0
   -3.0384    1.8386   -0.0297 H   0  0  0  1  0  0  0  0  0  0  0  0
   -2.4889    1.2209   -1.5694 H   0  0  0  1  0  0  0  0  0  0  0  0
   -2.8760    0.4289    2.0055 H   0  0  0  1  0  0  0  0  0  0  0  0
   -1.1439    0.3600    1.7868 H   0  0  0  1  0  0  0  0  0  0  0  0
   -2.0665   -1.1175    1.9280 H   0  0  0  1  0  0  0  0  0  0  0  0
   -3.5482   -1.8251    0.2246 H   0  0  0  1  0  0  0  0  0  0  0  0
   -3.7467   -0.9219   -1.2577 H   0  0  0  1  0  0  0  0  0  0  0  0
   -4.3750   -0.2861    0.2440 H   0  0  0  1  0  0  0  0  0  0  0  0
  1  2  1  0  0  0  0
  1  3  2  0  0  0  0
  1  4  1  0  0  0  0
  4  5  1  0  0  0  0
  4 14  1  0  0  0  0
  4 15  1  0  0  0  0
  5  6  1  0  0  0  0
  5  7  1  0  0  0  0
  5 12  1  0  0  0  0
  6 13  1  0  0  0  0
  7 11  1  0  0  0  0
  7 16  1  0  0  0  0
  7 17  1  0  0  0  0
  8 11  1  0  0  0  0
  8 18  1  0  0  0  0
  8 19  1  0  0  0  0
  8 20  1  0  0  0  0
  9 11  1  0  0  0  0
  9 21  1  0  0  0  0
  9 22  1  0  0  0  0
  9 23  1  0  0  0  0
 10 11  1  0  0  0  0
 10 24  1  0  0  0  0
 10 25  1  0  0  0  0
 10 26  1  0  0  0  0
M  END
> <ConfClashScore>
0 

> <ConfOneFourInteractionScore>
-0.947927 

> <ConfScore>
-0.0939562 

> <ConfScorePBest>
0.00891849 

> <ConfTolerance>
0.386315 

$$$$
152.****
  PyMOL2.4          3D                             0

 26 25  0  0  0  0  0  0  0  0999 V2000
    1.2690   -2.9009    1.8229 C   0  0  0  1  0  0  0  0  0  0  0  0
    2.1977   -2.6350    2.7803 O   0  5  0  1  0  0  0  0  0  0  0  0
    0.9894   -4.0276    1.4478 O   0  0  0  1  0  0  0  0  0  0  0  0
    0.6391   -1.6405    1.2932 C   0  0  0  1  0  0  0  0  0  0  0  0
   -0.4225   -1.9039    0.2333 C   0  0  0  1  0  0  0  0  0  0  0  0
   -1.4914   -2.5879    0.8937 O   0  0  0  1  0  0  0  0  0  0  0  0
   -0.9249   -0.6337   -0.4359 C   0  0  0  1  0  0  0  0  0  0  0  0
   -2.4428    1.2917   -0.4495 C   0  0  0  1  0  0  0  0  0  0  0  0
   -2.1677   -0.0487    1.5908 C   0  0  0  1  0  0  0  0  0  0  0  0
   -3.3536   -0.9777   -0.3455 C   0  0  0  1  0  0  0  0  0  0  0  0
   -2.2224   -0.0918    0.0910 N   0  3  0  1  0  0  0  0  0  0  0  0
    0.0002   -2.5377   -0.5180 H   0  0  0  1  0  0  0  0  0  0  0  0
   -1.4500   -3.5241    0.6854 H   0  0  0  1  0  0  0  0  0  0  0  0
    1.4062   -1.0312    0.8628 H   0  0  0  1  0  0  0  0  0  0  0  0
    0.1839   -1.1184    2.1088 H   0  0  0  1  0  0  0  0  0  0  0  0
   -1.0534   -0.8397   -1.4780 H   0  0  0  1  0  0  0  0  0  0  0  0
   -0.1777    0.1218   -0.3106 H   0  0  0  1  0  0  0  0  0  0  0  0
   -2.3493    1.2779   -1.5153 H   0  0  0  1  0  0  0  0  0  0  0  0
   -1.7130    1.9562   -0.0363 H   0  0  0  1  0  0  0  0  0  0  0  0
   -3.4231    1.6268   -0.1821 H   0  0  0  1  0  0  0  0  0  0  0  0
   -1.3708    0.5945    1.9009 H   0  0  0  1  0  0  0  0  0  0  0  0
   -1.9978   -1.0349    1.9697 H   0  0  0  1  0  0  0  0  0  0  0  0
   -3.0956    0.3249    1.9707 H   0  0  0  1  0  0  0  0  0  0  0  0
   -3.1455   -1.9883   -0.0625 H   0  0  0  1  0  0  0  0  0  0  0  0
   -3.4616   -0.9202   -1.4085 H   0  0  0  1  0  0  0  0  0  0  0  0
   -4.2599   -0.6557    0.1235 H   0  0  0  1  0  0  0  0  0  0  0  0
  1  2  1  0  0  0  0
  1  3  2  0  0  0  0
  1  4  1  0  0  0  0
  4  5  1  0  0  0  0
  4 14  1  0  0  0  0
  4 15  1  0  0  0  0
  5  6  1  0  0  0  0
  5  7  1  0  0  0  0
  5 12  1  0  0  0  0
  6 13  1  0  0  0  0
  7 11  1  0  0  0  0
  7 16  1  0  0  0  0
  7 17  1  0  0  0  0
  8 11  1  0  0  0  0
  8 18  1  0  0  0  0
  8 19  1  0  0  0  0
  8 20  1  0  0  0  0
  9 11  1  0  0  0  0
  9 21  1  0  0  0  0
  9 22  1  0  0  0  0
  9 23  1  0  0  0  0
 10 11  1  0  0  0  0
 10 24  1  0  0  0  0
 10 25  1  0  0  0  0
 10 26  1  0  0  0  0
M  END
> <ConfClashScore>
0.00169226 

> <ConfOneFourInteractionScore>
-0.974231 

> <ConfScore>
-0.0820327 

> <ConfScorePBest>
0.00881549 

> <ConfTolerance>
0.299408 

$$$$
152.****
  PyMOL2.4          3D                             0

 26 25  0  0  0  0  0  0  0  0999 V2000
    2.0979   -1.9395   -0.2615 C   0  0  0  1  0  0  0  0  0  0  0  0
    3.0898   -2.2953   -1.1212 O   0  5  0  1  0  0  0  0  0  0  0  0
    1.8795   -2.5140    0.7924 O   0  0  0  1  0  0  0  0  0  0  0  0
    1.3146   -0.7601   -0.7728 C   0  0  0  1  0  0  0  0  0  0  0  0
    0.2999   -0.3086    0.1547 C   0  0  0  1  0  0  0  0  0  0  0  0
    0.3562    1.1046    0.0731 O   0  0  0  1  0  0  0  0  0  0  0  0
   -0.9984   -0.8201   -0.4287 C   0  0  0  1  0  0  0  0  0  0  0  0
   -2.3214    1.2663   -0.4713 C   0  0  0  1  0  0  0  0  0  0  0  0
   -2.1961   -0.0721    1.5972 C   0  0  0  1  0  0  0  0  0  0  0  0
   -3.4303   -0.8958   -0.3300 C   0  0  0  1  0  0  0  0  0  0  0  0
   -2.2190   -0.1177    0.0979 N   0  3  0  1  0  0  0  0  0  0  0  0
    0.4570   -0.6778    1.1466 H   0  0  0  1  0  0  0  0  0  0  0  0
    0.9289    1.3611   -0.6534 H   0  0  0  1  0  0  0  0  0  0  0  0
    0.8383   -1.0391   -1.6894 H   0  0  0  1  0  0  0  0  0  0  0  0
    1.9934    0.0468   -0.9542 H   0  0  0  1  0  0  0  0  0  0  0  0
   -1.0837   -1.8618   -0.1996 H   0  0  0  1  0  0  0  0  0  0  0  0
   -0.9657   -0.6893   -1.4902 H   0  0  0  1  0  0  0  0  0  0  0  0
   -2.3093    1.2147   -1.5400 H   0  0  0  1  0  0  0  0  0  0  0  0
   -1.4927    1.8528   -0.1334 H   0  0  0  1  0  0  0  0  0  0  0  0
   -3.2351    1.7185   -0.1466 H   0  0  0  1  0  0  0  0  0  0  0  0
   -3.1733    0.1661    1.9622 H   0  0  0  1  0  0  0  0  0  0  0  0
   -1.5027    0.6760    1.9205 H   0  0  0  1  0  0  0  0  0  0  0  0
   -1.8960   -1.0258    1.9783 H   0  0  0  1  0  0  0  0  0  0  0  0
   -3.4041   -1.8696    0.1127 H   0  0  0  1  0  0  0  0  0  0  0  0
   -3.4357   -0.9890   -1.3960 H   0  0  0  1  0  0  0  0  0  0  0  0
   -4.3139   -0.3833   -0.0118 H   0  0  0  1  0  0  0  0  0  0  0  0
  1  2  1  0  0  0  0
  1  3  2  0  0  0  0
  1  4  1  0  0  0  0
  4  5  1  0  0  0  0
  4 14  1  0  0  0  0
  4 15  1  0  0  0  0
  5  6  1  0  0  0  0
  5  7  1  0  0  0  0
  5 12  1  0  0  0  0
  6 13  1  0  0  0  0
  7 11  1  0  0  0  0
  7 16  1  0  0  0  0
  7 17  1  0  0  0  0
  8 11  1  0  0  0  0
  8 18  1  0  0  0  0
  8 19  1  0  0  0  0
  8 20  1  0  0  0  0
  9 11  1  0  0  0  0
  9 21  1  0  0  0  0
  9 22  1  0  0  0  0
  9 23  1  0  0  0  0
 10 11  1  0  0  0  0
 10 24  1  0  0  0  0
 10 25  1  0  0  0  0
 10 26  1  0  0  0  0
M  END
> <ConfClashScore>
0 

> <ConfOneFourInteractionScore>
-0.965731 

> <ConfScore>
-0.0749617 

> <ConfScorePBest>
0.00871249 

> <ConfTolerance>
0.520726 

$$$$
152.****
  PyMOL2.4          3D                             0

 26 25  0  0  0  0  0  0  0  0999 V2000
    2.0806    0.8830    0.5583 C   0  0  0  1  0  0  0  0  0  0  0  0
    2.5570    1.6861    1.5471 O   0  5  0  1  0  0  0  0  0  0  0  0
    2.6590    0.5871   -0.4744 O   0  0  0  1  0  0  0  0  0  0  0  0
    0.7055    0.3056    0.7627 C   0  0  0  1  0  0  0  0  0  0  0  0
    0.2062   -0.4860   -0.4388 C   0  0  0  1  0  0  0  0  0  0  0  0
    1.1598   -1.4967   -0.7929 O   0  0  0  1  0  0  0  0  0  0  0  0
   -1.1335   -1.1415   -0.1360 C   0  0  0  1  0  0  0  0  0  0  0  0
   -2.1022    1.0548   -0.6706 C   0  0  0  1  0  0  0  0  0  0  0  0
   -2.2576    0.1483    1.6154 C   0  0  0  1  0  0  0  0  0  0  0  0
   -3.5706   -0.8549   -0.1979 C   0  0  0  1  0  0  0  0  0  0  0  0
   -2.2663   -0.1996    0.1548 N   0  3  0  1  0  0  0  0  0  0  0  0
    0.0758    0.1889   -1.2589 H   0  0  0  1  0  0  0  0  0  0  0  0
    0.9467   -2.3130   -0.3347 H   0  0  0  1  0  0  0  0  0  0  0  0
    0.0233    1.1086    0.9489 H   0  0  0  1  0  0  0  0  0  0  0  0
    0.7320   -0.3448    1.6119 H   0  0  0  1  0  0  0  0  0  0  0  0
   -1.0047   -1.7745    0.7171 H   0  0  0  1  0  0  0  0  0  0  0  0
   -1.4083   -1.7350   -0.9829 H   0  0  0  1  0  0  0  0  0  0  0  0
   -1.1432    1.4877   -0.4758 H   0  0  0  1  0  0  0  0  0  0  0  0
   -2.8686    1.7549   -0.4112 H   0  0  0  1  0  0  0  0  0  0  0  0
   -2.1785    0.8103   -1.7095 H   0  0  0  1  0  0  0  0  0  0  0  0
   -3.0768    0.8017    1.8318 H   0  0  0  1  0  0  0  0  0  0  0  0
   -1.3377    0.6371    1.8599 H   0  0  0  1  0  0  0  0  0  0  0  0
   -2.3521   -0.7459    2.1954 H   0  0  0  1  0  0  0  0  0  0  0  0
   -4.3594   -0.1343   -0.1402 H   0  0  0  1  0  0  0  0  0  0  0  0
   -3.7657   -1.6526    0.4880 H   0  0  0  1  0  0  0  0  0  0  0  0
   -3.5160   -1.2448   -1.1929 H   0  0  0  1  0  0  0  0  0  0  0  0
  1  2  1  0  0  0  0
  1  3  2  0  0  0  0
  1  4  1  0  0  0  0
  4  5  1  0  0  0  0
  4 14  1  0  0  0  0
  4 15  1  0  0  0  0
  5  6  1  0  0  0  0
  5  7  1  0  0  0  0
  5 12  1  0  0  0  0
  6 13  1  0  0  0  0
  7 11  1  0  0  0  0
  7 16  1  0  0  0  0
  7 17  1  0  0  0  0
  8 11  1  0  0  0  0
  8 18  1  0  0  0  0
  8 19  1  0  0  0  0
  8 20  1  0  0  0  0
  9 11  1  0  0  0  0
  9 21  1  0  0  0  0
  9 22  1  0  0  0  0
  9 23  1  0  0  0  0
 10 11  1  0  0  0  0
 10 24  1  0  0  0  0
 10 25  1  0  0  0  0
 10 26  1  0  0  0  0
M  END
> <ConfClashScore>
0 

> <ConfOneFourInteractionScore>
-0.937188 

> <ConfScore>
-0.0680106 

> <ConfScorePBest>
0.00860949 

> <ConfTolerance>
0.25 

$$$$
152.****
  PyMOL2.4          3D                             0

 26 25  0  0  0  0  0  0  0  0999 V2000
    2.6956   -0.9183   -0.5121 C   0  0  0  1  0  0  0  0  0  0  0  0
    3.5485   -1.9727   -0.6144 O   0  5  0  1  0  0  0  0  0  0  0  0
    2.9968    0.1880   -0.0953 O   0  0  0  1  0  0  0  0  0  0  0  0
    1.3029   -1.2532   -0.9751 C   0  0  0  1  0  0  0  0  0  0  0  0
    0.2270   -0.4692   -0.2415 C   0  0  0  1  0  0  0  0  0  0  0  0
    0.3928    0.9196   -0.5421 O   0  0  0  1  0  0  0  0  0  0  0  0
   -1.1571   -0.8955   -0.6660 C   0  0  0  1  0  0  0  0  0  0  0  0
   -2.3861    1.2357   -0.5619 C   0  0  0  1  0  0  0  0  0  0  0  0
   -1.9758   -0.0035    1.5254 C   0  0  0  1  0  0  0  0  0  0  0  0
   -3.5664   -0.9247   -0.1292 C   0  0  0  1  0  0  0  0  0  0  0  0
   -2.2702   -0.1525    0.0431 N   0  3  0  1  0  0  0  0  0  0  0  0
    0.3332   -0.6344    0.8103 H   0  0  0  1  0  0  0  0  0  0  0  0
    1.2775    1.1977   -0.2939 H   0  0  0  1  0  0  0  0  0  0  0  0
    1.1326   -2.2973   -0.8147 H   0  0  0  1  0  0  0  0  0  0  0  0
    1.2300   -1.0358   -2.0202 H   0  0  0  1  0  0  0  0  0  0  0  0
   -1.2657   -1.9402   -0.4618 H   0  0  0  1  0  0  0  0  0  0  0  0
   -1.2547   -0.7251   -1.7178 H   0  0  0  1  0  0  0  0  0  0  0  0
   -3.1171    1.8006   -0.0221 H   0  0  0  1  0  0  0  0  0  0  0  0
   -2.6838    1.1543   -1.5864 H   0  0  0  1  0  0  0  0  0  0  0  0
   -1.4390    1.7302   -0.5034 H   0  0  0  1  0  0  0  0  0  0  0  0
   -1.0265    0.4729    1.6549 H   0  0  0  1  0  0  0  0  0  0  0  0
   -1.9549   -0.9702    1.9836 H   0  0  0  1  0  0  0  0  0  0  0  0
   -2.7386    0.5919    1.9822 H   0  0  0  1  0  0  0  0  0  0  0  0
   -3.6824   -1.2033   -1.1558 H   0  0  0  1  0  0  0  0  0  0  0  0
   -4.3899   -0.3097    0.1684 H   0  0  0  1  0  0  0  0  0  0  0  0
   -3.5402   -1.8051    0.4783 H   0  0  0  1  0  0  0  0  0  0  0  0
  1  2  1  0  0  0  0
  1  3  2  0  0  0  0
  1  4  1  0  0  0  0
  4  5  1  0  0  0  0
  4 14  1  0  0  0  0
  4 15  1  0  0  0  0
  5  6  1  0  0  0  0
  5  7  1  0  0  0  0
  5 12  1  0  0  0  0
  6 13  1  0  0  0  0
  7 11  1  0  0  0  0
  7 16  1  0  0  0  0
  7 17  1  0  0  0  0
  8 11  1  0  0  0  0
  8 18  1  0  0  0  0
  8 19  1  0  0  0  0
  8 20  1  0  0  0  0
  9 11  1  0  0  0  0
  9 21  1  0  0  0  0
  9 22  1  0  0  0  0
  9 23  1  0  0  0  0
 10 11  1  0  0  0  0
 10 24  1  0  0  0  0
 10 25  1  0  0  0  0
 10 26  1  0  0  0  0
M  END
> <ConfClashScore>
0 

> <ConfOneFourInteractionScore>
-0.933951 

> <ConfScore>
-0.0603859 

> <ConfScorePBest>
0.00850649 

> <ConfTolerance>
0.34334 

$$$$
152.****
  PyMOL2.4          3D                             0

 26 25  0  0  0  0  0  0  0  0999 V2000
    0.4896   -2.9393   -2.0336 C   0  0  0  1  0  0  0  0  0  0  0  0
    1.3134   -3.5755   -2.9089 O   0  5  0  1  0  0  0  0  0  0  0  0
   -0.4145   -3.4949   -1.4316 O   0  0  0  1  0  0  0  0  0  0  0  0
    0.8334   -1.4807   -1.9059 C   0  0  0  1  0  0  0  0  0  0  0  0
   -0.3257   -0.5676   -1.5414 C   0  0  0  1  0  0  0  0  0  0  0  0
   -1.2842   -0.5334   -2.6028 O   0  0  0  1  0  0  0  0  0  0  0  0
   -1.0652   -1.0290   -0.2950 C   0  0  0  1  0  0  0  0  0  0  0  0
   -2.1897    1.2030   -0.5169 C   0  0  0  1  0  0  0  0  0  0  0  0
   -2.2672    0.0639    1.6188 C   0  0  0  1  0  0  0  0  0  0  0  0
   -3.4865   -0.9363   -0.3285 C   0  0  0  1  0  0  0  0  0  0  0  0
   -2.2513   -0.1748    0.1191 N   0  3  0  1  0  0  0  0  0  0  0  0
    0.0568    0.4162   -1.3665 H   0  0  0  1  0  0  0  0  0  0  0  0
   -2.0299   -1.0952   -2.3794 H   0  0  0  1  0  0  0  0  0  0  0  0
    1.2304   -1.1519   -2.8436 H   0  0  0  1  0  0  0  0  0  0  0  0
    1.5816   -1.3832   -1.1473 H   0  0  0  1  0  0  0  0  0  0  0  0
   -0.3678   -1.0391    0.5164 H   0  0  0  1  0  0  0  0  0  0  0  0
   -1.4211   -2.0223   -0.4724 H   0  0  0  1  0  0  0  0  0  0  0  0
   -2.1140    1.1028   -1.5795 H   0  0  0  1  0  0  0  0  0  0  0  0
   -1.3343    1.7286   -0.1466 H   0  0  0  1  0  0  0  0  0  0  0  0
   -3.0773    1.7483   -0.2726 H   0  0  0  1  0  0  0  0  0  0  0  0
   -3.0368    0.7669    1.8604 H   0  0  0  1  0  0  0  0  0  0  0  0
   -1.3195    0.4528    1.9279 H   0  0  0  1  0  0  0  0  0  0  0  0
   -2.4564   -0.8597    2.1247 H   0  0  0  1  0  0  0  0  0  0  0  0
   -3.3843   -1.2092   -1.3581 H   0  0  0  1  0  0  0  0  0  0  0  0
   -4.3504   -0.3165   -0.2081 H   0  0  0  1  0  0  0  0  0  0  0  0
   -3.5952   -1.8198    0.2653 H   0  0  0  1  0  0  0  0  0  0  0  0
  1  2  1  0  0  0  0
  1  3  2  0  0  0  0
  1  4  1  0  0  0  0
  4  5  1  0  0  0  0
  4 14  1  0  0  0  0
  4 15  1  0  0  0  0
  5  6  1  0  0  0  0
  5  7  1  0  0  0  0
  5 12  1  0  0  0  0
  6 13  1  0  0  0  0
  7 11  1  0  0  0  0
  7 16  1  0  0  0  0
  7 17  1  0  0  0  0
  8 11  1  0  0  0  0
  8 18  1  0  0  0  0
  8 19  1  0  0  0  0
  8 20  1  0  0  0  0
  9 11  1  0  0  0  0
  9 21  1  0  0  0  0
  9 22  1  0  0  0  0
  9 23  1  0  0  0  0
 10 11  1  0  0  0  0
 10 24  1  0  0  0  0
 10 25  1  0  0  0  0
 10 26  1  0  0  0  0
M  END
> <ConfClashScore>
0 

> <ConfOneFourInteractionScore>
-0.938247 

> <ConfScore>
-0.0477512 

> <ConfScorePBest>
0.00840348 

> <ConfTolerance>
0.387295 

$$$$
152.****
  PyMOL2.4          3D                             0

 26 25  0  0  0  0  0  0  0  0999 V2000
    2.0282    1.3118    1.2966 C   0  0  0  1  0  0  0  0  0  0  0  0
    1.9830    2.4802    1.9912 O   0  5  0  1  0  0  0  0  0  0  0  0
    3.0549    0.8371    0.8397 O   0  0  0  1  0  0  0  0  0  0  0  0
    0.6648    0.6887    1.1667 C   0  0  0  1  0  0  0  0  0  0  0  0
    0.3147   -0.0046   -0.1855 C   0  0  0  1  0  0  0  0  0  0  0  0
    1.4258   -0.8617   -0.4808 O   0  0  0  1  0  0  0  0  0  0  0  0
   -0.9437   -0.8389   -0.2733 C   0  0  0  1  0  0  0  0  0  0  0  0
   -2.3180    1.2348   -0.5253 C   0  0  0  1  0  0  0  0  0  0  0  0
   -2.2790    0.0947    1.6243 C   0  0  0  1  0  0  0  0  0  0  0  0
   -3.3662   -1.0298   -0.3290 C   0  0  0  1  0  0  0  0  0  0  0  0
   -2.2262   -0.1347    0.1242 N   0  3  0  1  0  0  0  0  0  0  0  0
    0.2508    0.7583   -0.9330 H   0  0  0  1  0  0  0  0  0  0  0  0
    1.1216   -1.6172   -0.9891 H   0  0  0  1  0  0  0  0  0  0  0  0
   -0.0572    1.4621    1.3262 H   0  0  0  1  0  0  0  0  0  0  0  0
    0.5749   -0.0483    1.9371 H   0  0  0  1  0  0  0  0  0  0  0  0
   -0.8217   -1.6868    0.3679 H   0  0  0  1  0  0  0  0  0  0  0  0
   -1.0497   -1.1689   -1.2856 H   0  0  0  1  0  0  0  0  0  0  0  0
   -1.8618    1.2027   -1.4926 H   0  0  0  1  0  0  0  0  0  0  0  0
   -1.8108    1.9531    0.0843 H   0  0  0  1  0  0  0  0  0  0  0  0
   -3.3462    1.5137   -0.6252 H   0  0  0  1  0  0  0  0  0  0  0  0
   -1.4966    0.7661    1.9107 H   0  0  0  1  0  0  0  0  0  0  0  0
   -2.1516   -0.8384    2.1322 H   0  0  0  1  0  0  0  0  0  0  0  0
   -3.2259    0.5180    1.8870 H   0  0  0  1  0  0  0  0  0  0  0  0
   -3.3481   -1.1192   -1.3951 H   0  0  0  1  0  0  0  0  0  0  0  0
   -4.2982   -0.6024   -0.0230 H   0  0  0  1  0  0  0  0  0  0  0  0
   -3.2557   -1.9985    0.1118 H   0  0  0  1  0  0  0  0  0  0  0  0
  1  2  1  0  0  0  0
  1  3  2  0  0  0  0
  1  4  1  0  0  0  0
  4  5  1  0  0  0  0
  4 14  1  0  0  0  0
  4 15  1  0  0  0  0
  5  6  1  0  0  0  0
  5  7  1  0  0  0  0
  5 12  1  0  0  0  0
  6 13  1  0  0  0  0
  7 11  1  0  0  0  0
  7 16  1  0  0  0  0
  7 17  1  0  0  0  0
  8 11  1  0  0  0  0
  8 18  1  0  0  0  0
  8 19  1  0  0  0  0
  8 20  1  0  0  0  0
  9 11  1  0  0  0  0
  9 21  1  0  0  0  0
  9 22  1  0  0  0  0
  9 23  1  0  0  0  0
 10 11  1  0  0  0  0
 10 24  1  0  0  0  0
 10 25  1  0  0  0  0
 10 26  1  0  0  0  0
M  END
> <ConfClashScore>
0 

> <ConfOneFourInteractionScore>
-0.952228 

> <ConfScore>
-0.0367532 

> <ConfScorePBest>
0.00830048 

> <ConfTolerance>
0.364147 

$$$$
152.****
  PyMOL2.4          3D                             0

 26 25  0  0  0  0  0  0  0  0999 V2000
    1.7284    0.3304   -1.3301 C   0  0  0  1  0  0  0  0  0  0  0  0
    0.7596   -0.0828   -2.1906 O   0  5  0  1  0  0  0  0  0  0  0  0
    2.5641    1.1614   -1.6452 O   0  0  0  1  0  0  0  0  0  0  0  0
    1.6045   -0.3673   -0.0035 C   0  0  0  1  0  0  0  0  0  0  0  0
    0.2949   -0.1320    0.7384 C   0  0  0  1  0  0  0  0  0  0  0  0
    0.0416    1.2755    0.7768 O   0  0  0  1  0  0  0  0  0  0  0  0
   -0.8651   -0.8160    0.0499 C   0  0  0  1  0  0  0  0  0  0  0  0
   -2.2681    1.1355   -0.6405 C   0  0  0  1  0  0  0  0  0  0  0  0
   -2.3755    0.1776    1.6687 C   0  0  0  1  0  0  0  0  0  0  0  0
   -3.3323   -1.0173   -0.3106 C   0  0  0  1  0  0  0  0  0  0  0  0
   -2.2098   -0.1293    0.1924 N   0  3  0  1  0  0  0  0  0  0  0  0
    0.3850   -0.5182    1.7321 H   0  0  0  1  0  0  0  0  0  0  0  0
    0.7239    1.7099    1.2939 H   0  0  0  1  0  0  0  0  0  0  0  0
    2.4038   -0.0300    0.6228 H   0  0  0  1  0  0  0  0  0  0  0  0
    1.7033   -1.4191   -0.1732 H   0  0  0  1  0  0  0  0  0  0  0  0
   -0.9542   -1.8017    0.4567 H   0  0  0  1  0  0  0  0  0  0  0  0
   -0.6371   -0.8796   -0.9936 H   0  0  0  1  0  0  0  0  0  0  0  0
   -1.9930    0.9113   -1.6500 H   0  0  0  1  0  0  0  0  0  0  0  0
   -1.5896    1.8586   -0.2384 H   0  0  0  1  0  0  0  0  0  0  0  0
   -3.2627    1.5294   -0.6212 H   0  0  0  1  0  0  0  0  0  0  0  0
   -1.5338    0.7414    2.0130 H   0  0  0  1  0  0  0  0  0  0  0  0
   -2.4399   -0.7383    2.2182 H   0  0  0  1  0  0  0  0  0  0  0  0
   -3.2698    0.7463    1.8163 H   0  0  0  1  0  0  0  0  0  0  0  0
   -4.2708   -0.5253   -0.1621 H   0  0  0  1  0  0  0  0  0  0  0  0
   -3.3249   -1.9413    0.2289 H   0  0  0  1  0  0  0  0  0  0  0  0
   -3.1929   -1.2116   -1.3536 H   0  0  0  1  0  0  0  0  0  0  0  0
  1  2  1  0  0  0  0
  1  3  2  0  0  0  0
  1  4  1  0  0  0  0
  4  5  1  0  0  0  0
  4 14  1  0  0  0  0
  4 15  1  0  0  0  0
  5  6  1  0  0  0  0
  5  7  1  0  0  0  0
  5 12  1  0  0  0  0
  6 13  1  0  0  0  0
  7 11  1  0  0  0  0
  7 16  1  0  0  0  0
  7 17  1  0  0  0  0
  8 11  1  0  0  0  0
  8 18  1  0  0  0  0
  8 19  1  0  0  0  0
  8 20  1  0  0  0  0
  9 11  1  0  0  0  0
  9 21  1  0  0  0  0
  9 22  1  0  0  0  0
  9 23  1  0  0  0  0
 10 11  1  0  0  0  0
 10 24  1  0  0  0  0
 10 25  1  0  0  0  0
 10 26  1  0  0  0  0
M  END
> <ConfClashScore>
0 

> <ConfOneFourInteractionScore>
-0.981769 

> <ConfScore>
-0.0339858 

> <ConfScorePBest>
0.00819748 

> <ConfTolerance>
0.38886 

$$$$
152.****
  PyMOL2.4          3D                             0

 26 25  0  0  0  0  0  0  0  0999 V2000
    1.6501   -3.0996    0.1799 C   0  0  0  1  0  0  0  0  0  0  0  0
    1.5197   -4.4408    0.3640 O   0  5  0  1  0  0  0  0  0  0  0  0
    2.4704   -2.4140    0.7677 O   0  0  0  1  0  0  0  0  0  0  0  0
    0.6634   -2.5778   -0.8301 C   0  0  0  1  0  0  0  0  0  0  0  0
   -0.6324   -2.0854   -0.1991 C   0  0  0  1  0  0  0  0  0  0  0  0
   -0.5725   -2.3459    1.2063 O   0  0  0  1  0  0  0  0  0  0  0  0
   -0.9179   -0.6279   -0.4850 C   0  0  0  1  0  0  0  0  0  0  0  0
   -2.3871    1.3094   -0.4835 C   0  0  0  1  0  0  0  0  0  0  0  0
   -2.1892   -0.0671    1.5978 C   0  0  0  1  0  0  0  0  0  0  0  0
   -3.3913   -0.9771   -0.3098 C   0  0  0  1  0  0  0  0  0  0  0  0
   -2.2214   -0.0908    0.0801 N   0  3  0  1  0  0  0  0  0  0  0  0
   -1.4319   -2.6594   -0.6189 H   0  0  0  1  0  0  0  0  0  0  0  0
    0.2400   -1.9818    1.5654 H   0  0  0  1  0  0  0  0  0  0  0  0
    0.4303   -3.3648   -1.5166 H   0  0  0  1  0  0  0  0  0  0  0  0
    1.1152   -1.7647   -1.3589 H   0  0  0  1  0  0  0  0  0  0  0  0
   -0.9421   -0.4996   -1.5470 H   0  0  0  1  0  0  0  0  0  0  0  0
   -0.1176   -0.0490   -0.0734 H   0  0  0  1  0  0  0  0  0  0  0  0
   -2.3190    1.2752   -1.5508 H   0  0  0  1  0  0  0  0  0  0  0  0
   -1.6158    1.9426   -0.0973 H   0  0  0  1  0  0  0  0  0  0  0  0
   -3.3431    1.6971   -0.1995 H   0  0  0  1  0  0  0  0  0  0  0  0
   -1.5089    0.6896    1.9288 H   0  0  0  1  0  0  0  0  0  0  0  0
   -1.8672   -1.0201    1.9624 H   0  0  0  1  0  0  0  0  0  0  0  0
   -3.1688    0.1460    1.9717 H   0  0  0  1  0  0  0  0  0  0  0  0
   -3.2250   -1.9692    0.0549 H   0  0  0  1  0  0  0  0  0  0  0  0
   -3.4817   -0.9997   -1.3757 H   0  0  0  1  0  0  0  0  0  0  0  0
   -4.2917   -0.5869    0.1168 H   0  0  0  1  0  0  0  0  0  0  0  0
  1  2  1  0  0  0  0
  1  3  2  0  0  0  0
  1  4  1  0  0  0  0
  4  5  1  0  0  0  0
  4 14  1  0  0  0  0
  4 15  1  0  0  0  0
  5  6  1  0  0  0  0
  5  7  1  0  0  0  0
  5 12  1  0  0  0  0
  6 13  1  0  0  0  0
  7 11  1  0  0  0  0
  7 16  1  0  0  0  0
  7 17  1  0  0  0  0
  8 11  1  0  0  0  0
  8 18  1  0  0  0  0
  8 19  1  0  0  0  0
  8 20  1  0  0  0  0
  9 11  1  0  0  0  0
  9 21  1  0  0  0  0
  9 22  1  0  0  0  0
  9 23  1  0  0  0  0
 10 11  1  0  0  0  0
 10 24  1  0  0  0  0
 10 25  1  0  0  0  0
 10 26  1  0  0  0  0
M  END
> <ConfClashScore>
0 

> <ConfOneFourInteractionScore>
-0.96307 

> <ConfScore>
-0.0314346 

> <ConfScorePBest>
0.00809448 

> <ConfTolerance>
0.549272 

$$$$
152.****
  PyMOL2.4          3D                             0

 26 25  0  0  0  0  0  0  0  0999 V2000
   -0.5132   -4.5715   -1.7307 C   0  0  0  1  0  0  0  0  0  0  0  0
   -0.9501   -4.6861   -3.0135 O   0  5  0  1  0  0  0  0  0  0  0  0
   -0.4165   -5.5151   -0.9635 O   0  0  0  1  0  0  0  0  0  0  0  0
   -0.1688   -3.1474   -1.3850 C   0  0  0  1  0  0  0  0  0  0  0  0
   -1.3315   -2.3857   -0.7767 C   0  0  0  1  0  0  0  0  0  0  0  0
   -1.7755   -3.0558    0.4067 O   0  0  0  1  0  0  0  0  0  0  0  0
   -1.1224   -0.8979   -0.6035 C   0  0  0  1  0  0  0  0  0  0  0  0
   -2.3298    1.2102   -0.6219 C   0  0  0  1  0  0  0  0  0  0  0  0
   -2.0307   -0.0016    1.5484 C   0  0  0  1  0  0  0  0  0  0  0  0
   -3.5737   -0.8995   -0.1028 C   0  0  0  1  0  0  0  0  0  0  0  0
   -2.2636   -0.1477    0.0549 N   0  3  0  1  0  0  0  0  0  0  0  0
   -2.1275   -2.4768   -1.4859 H   0  0  0  1  0  0  0  0  0  0  0  0
   -1.7405   -2.4497    1.1503 H   0  0  0  1  0  0  0  0  0  0  0  0
    0.1376   -2.6446   -2.2785 H   0  0  0  1  0  0  0  0  0  0  0  0
    0.6390   -3.1531   -0.6834 H   0  0  0  1  0  0  0  0  0  0  0  0
   -0.9651   -0.4727   -1.5727 H   0  0  0  1  0  0  0  0  0  0  0  0
   -0.2469   -0.7562   -0.0049 H   0  0  0  1  0  0  0  0  0  0  0  0
   -3.1662    1.7585   -0.2415 H   0  0  0  1  0  0  0  0  0  0  0  0
   -2.4411    1.0772   -1.6777 H   0  0  0  1  0  0  0  0  0  0  0  0
   -1.4285    1.7517   -0.4232 H   0  0  0  1  0  0  0  0  0  0  0  0
   -1.1598    0.5966    1.7173 H   0  0  0  1  0  0  0  0  0  0  0  0
   -1.8885   -0.9688    1.9833 H   0  0  0  1  0  0  0  0  0  0  0  0
   -2.8797    0.4704    1.9971 H   0  0  0  1  0  0  0  0  0  0  0  0
   -3.8245   -0.9660   -1.1408 H   0  0  0  1  0  0  0  0  0  0  0  0
   -4.3489   -0.3779    0.4186 H   0  0  0  1  0  0  0  0  0  0  0  0
   -3.4705   -1.8843    0.3028 H   0  0  0  1  0  0  0  0  0  0  0  0
  1  2  1  0  0  0  0
  1  3  2  0  0  0  0
  1  4  1  0  0  0  0
  4  5  1  0  0  0  0
  4 14  1  0  0  0  0
  4 15  1  0  0  0  0
  5  6  1  0  0  0  0
  5  7  1  0  0  0  0
  5 12  1  0  0  0  0
  6 13  1  0  0  0  0
  7 11  1  0  0  0  0
  7 16  1  0  0  0  0
  7 17  1  0  0  0  0
  8 11  1  0  0  0  0
  8 18  1  0  0  0  0
  8 19  1  0  0  0  0
  8 20  1  0  0  0  0
  9 11  1  0  0  0  0
  9 21  1  0  0  0  0
  9 22  1  0  0  0  0
  9 23  1  0  0  0  0
 10 11  1  0  0  0  0
 10 24  1  0  0  0  0
 10 25  1  0  0  0  0
 10 26  1  0  0  0  0
M  END
> <ConfClashScore>
0 

> <ConfOneFourInteractionScore>
-0.933951 

> <ConfScore>
-0.0181099 

> <ConfScorePBest>
0.00799148 

> <ConfTolerance>
0.344381 

$$$$
152.****
  PyMOL2.4          3D                             0

 26 25  0  0  0  0  0  0  0  0999 V2000
    1.0807   -0.1310   -3.3901 C   0  0  0  1  0  0  0  0  0  0  0  0
    0.5762    0.2226   -4.6026 O   0  5  0  1  0  0  0  0  0  0  0  0
    2.1021    0.3561   -2.9342 O   0  0  0  1  0  0  0  0  0  0  0  0
    0.2945   -1.1727   -2.6333 C   0  0  0  1  0  0  0  0  0  0  0  0
   -0.9914   -0.5807   -2.0799 C   0  0  0  1  0  0  0  0  0  0  0  0
   -2.1271   -1.1831   -2.7076 O   0  0  0  1  0  0  0  0  0  0  0  0
   -1.0630   -0.7079   -0.5746 C   0  0  0  1  0  0  0  0  0  0  0  0
   -2.4457    1.2894   -0.4804 C   0  0  0  1  0  0  0  0  0  0  0  0
   -2.0404   -0.0548    1.5537 C   0  0  0  1  0  0  0  0  0  0  0  0
   -3.4610   -0.9546   -0.2527 C   0  0  0  1  0  0  0  0  0  0  0  0
   -2.2732   -0.0966    0.0722 N   0  3  0  1  0  0  0  0  0  0  0  0
   -0.9888    0.4638   -2.3122 H   0  0  0  1  0  0  0  0  0  0  0  0
   -1.9261   -2.0962   -2.9252 H   0  0  0  1  0  0  0  0  0  0  0  0
    0.8886   -1.5404   -1.8229 H   0  0  0  1  0  0  0  0  0  0  0  0
    0.0536   -1.9791   -3.2941 H   0  0  0  1  0  0  0  0  0  0  0  0
   -0.1958   -0.2351   -0.1629 H   0  0  0  1  0  0  0  0  0  0  0  0
   -1.0510   -1.7498   -0.3315 H   0  0  0  1  0  0  0  0  0  0  0  0
   -1.5543    1.8558   -0.3088 H   0  0  0  1  0  0  0  0  0  0  0  0
   -3.2706    1.7668    0.0058 H   0  0  0  1  0  0  0  0  0  0  0  0
   -2.6350    1.2327   -1.5320 H   0  0  0  1  0  0  0  0  0  0  0  0
   -1.1456    0.4948    1.7592 H   0  0  0  1  0  0  0  0  0  0  0  0
   -1.9396   -1.0525    1.9269 H   0  0  0  1  0  0  0  0  0  0  0  0
   -2.8699    0.4232    2.0315 H   0  0  0  1  0  0  0  0  0  0  0  0
   -3.3269   -1.9266    0.1740 H   0  0  0  1  0  0  0  0  0  0  0  0
   -3.5579   -1.0418   -1.3147 H   0  0  0  1  0  0  0  0  0  0  0  0
   -4.3451   -0.5070    0.1510 H   0  0  0  1  0  0  0  0  0  0  0  0
  1  2  1  0  0  0  0
  1  3  2  0  0  0  0
  1  4  1  0  0  0  0
  4  5  1  0  0  0  0
  4 14  1  0  0  0  0
  4 15  1  0  0  0  0
  5  6  1  0  0  0  0
  5  7  1  0  0  0  0
  5 12  1  0  0  0  0
  6 13  1  0  0  0  0
  7 11  1  0  0  0  0
  7 16  1  0  0  0  0
  7 17  1  0  0  0  0
  8 11  1  0  0  0  0
  8 18  1  0  0  0  0
  8 19  1  0  0  0  0
  8 20  1  0  0  0  0
  9 11  1  0  0  0  0
  9 21  1  0  0  0  0
  9 22  1  0  0  0  0
  9 23  1  0  0  0  0
 10 11  1  0  0  0  0
 10 24  1  0  0  0  0
 10 25  1  0  0  0  0
 10 26  1  0  0  0  0
M  END
> <ConfClashScore>
0 

> <ConfOneFourInteractionScore>
-0.951164 

> <ConfScore>
-0.017476 

> <ConfScorePBest>
0.00788848 

> <ConfTolerance>
0.60736 

$$$$
152.****
  PyMOL2.4          3D                             0

 26 25  0  0  0  0  0  0  0  0999 V2000
    1.7810    0.7074    1.6409 C   0  0  0  1  0  0  0  0  0  0  0  0
    1.9873    2.0345    1.8549 O   0  5  0  1  0  0  0  0  0  0  0  0
    2.4207   -0.1508    2.2262 O   0  0  0  1  0  0  0  0  0  0  0  0
    0.6956    0.4874    0.6213 C   0  0  0  1  0  0  0  0  0  0  0  0
    0.1555   -0.9333    0.6237 C   0  0  0  1  0  0  0  0  0  0  0  0
   -0.1399   -1.3634    1.9499 O   0  0  0  1  0  0  0  0  0  0  0  0
   -1.0908   -1.0867   -0.2362 C   0  0  0  1  0  0  0  0  0  0  0  0
   -2.0912    1.0843   -0.6822 C   0  0  0  1  0  0  0  0  0  0  0  0
   -2.2644    0.1161    1.6202 C   0  0  0  1  0  0  0  0  0  0  0  0
   -3.5838   -0.8604   -0.1740 C   0  0  0  1  0  0  0  0  0  0  0  0
   -2.2576   -0.1869    0.1321 N   0  3  0  1  0  0  0  0  0  0  0  0
    0.9124   -1.5691    0.2140 H   0  0  0  1  0  0  0  0  0  0  0  0
   -0.6781   -2.1576    1.9168 H   0  0  0  1  0  0  0  0  0  0  0  0
    1.0923    0.6994   -0.3496 H   0  0  0  1  0  0  0  0  0  0  0  0
   -0.1107    1.1586    0.8321 H   0  0  0  1  0  0  0  0  0  0  0  0
   -1.4208   -2.1016   -0.1591 H   0  0  0  1  0  0  0  0  0  0  0  0
   -0.8194   -0.8754   -1.2494 H   0  0  0  1  0  0  0  0  0  0  0  0
   -1.1316    1.5134   -0.4824 H   0  0  0  1  0  0  0  0  0  0  0  0
   -2.8566    1.7822   -0.4139 H   0  0  0  1  0  0  0  0  0  0  0  0
   -2.1682    0.8528   -1.7240 H   0  0  0  1  0  0  0  0  0  0  0  0
   -3.0399    0.8205    1.8377 H   0  0  0  1  0  0  0  0  0  0  0  0
   -1.3187    0.5282    1.9043 H   0  0  0  1  0  0  0  0  0  0  0  0
   -2.4394   -0.7868    2.1670 H   0  0  0  1  0  0  0  0  0  0  0  0
   -4.3854   -0.2544    0.1937 H   0  0  0  1  0  0  0  0  0  0  0  0
   -3.6148   -1.8187    0.3008 H   0  0  0  1  0  0  0  0  0  0  0  0
   -3.6857   -0.9825   -1.2321 H   0  0  0  1  0  0  0  0  0  0  0  0
  1  2  1  0  0  0  0
  1  3  2  0  0  0  0
  1  4  1  0  0  0  0
  4  5  1  0  0  0  0
  4 14  1  0  0  0  0
  4 15  1  0  0  0  0
  5  6  1  0  0  0  0
  5  7  1  0  0  0  0
  5 12  1  0  0  0  0
  6 13  1  0  0  0  0
  7 11  1  0  0  0  0
  7 16  1  0  0  0  0
  7 17  1  0  0  0  0
  8 11  1  0  0  0  0
  8 18  1  0  0  0  0
  8 19  1  0  0  0  0
  8 20  1  0  0  0  0
  9 11  1  0  0  0  0
  9 21  1  0  0  0  0
  9 22  1  0  0  0  0
  9 23  1  0  0  0  0
 10 11  1  0  0  0  0
 10 24  1  0  0  0  0
 10 25  1  0  0  0  0
 10 26  1  0  0  0  0
M  END
> <ConfClashScore>
0 

> <ConfOneFourInteractionScore>
-0.960255 

> <ConfScore>
-0.00420525 

> <ConfScorePBest>
0.00778548 

> <ConfTolerance>
0.288675 

$$$$
152.****
  PyMOL2.4          3D                             0

 26 25  0  0  0  0  0  0  0  0999 V2000
   -1.9883   -3.7116   -0.0953 C   0  0  0  1  0  0  0  0  0  0  0  0
   -3.0398   -4.5690   -0.0020 O   0  5  0  1  0  0  0  0  0  0  0  0
   -1.3403   -3.5110   -1.1093 O   0  0  0  1  0  0  0  0  0  0  0  0
   -1.6144   -2.9658    1.1577 C   0  0  0  1  0  0  0  0  0  0  0  0
   -0.5554   -1.9024    0.9236 C   0  0  0  1  0  0  0  0  0  0  0  0
    0.6369   -2.6031    0.6126 O   0  0  0  1  0  0  0  0  0  0  0  0
   -0.9527   -0.9172   -0.1584 C   0  0  0  1  0  0  0  0  0  0  0  0
   -2.3026    1.1359   -0.6546 C   0  0  0  1  0  0  0  0  0  0  0  0
   -2.2024    0.1354    1.6389 C   0  0  0  1  0  0  0  0  0  0  0  0
   -3.4569   -0.9589   -0.2331 C   0  0  0  1  0  0  0  0  0  0  0  0
   -2.2285   -0.1514    0.1478 N   0  3  0  1  0  0  0  0  0  0  0  0
   -0.4220   -1.3594    1.8359 H   0  0  0  1  0  0  0  0  0  0  0  0
    1.3868   -2.1491    1.0039 H   0  0  0  1  0  0  0  0  0  0  0  0
   -1.2397   -3.6679    1.8729 H   0  0  0  1  0  0  0  0  0  0  0  0
   -2.4916   -2.4929    1.5472 H   0  0  0  1  0  0  0  0  0  0  0  0
   -1.0947   -1.4577   -1.0709 H   0  0  0  1  0  0  0  0  0  0  0  0
   -0.1573   -0.2121   -0.2809 H   0  0  0  1  0  0  0  0  0  0  0  0
   -1.4079    1.7030   -0.5034 H   0  0  0  1  0  0  0  0  0  0  0  0
   -3.1466    1.7090   -0.3319 H   0  0  0  1  0  0  0  0  0  0  0  0
   -2.4054    0.9027   -1.6938 H   0  0  0  1  0  0  0  0  0  0  0  0
   -1.2874    0.6292    1.8916 H   0  0  0  1  0  0  0  0  0  0  0  0
   -2.2719   -0.7850    2.1802 H   0  0  0  1  0  0  0  0  0  0  0  0
   -3.0293    0.7640    1.8955 H   0  0  0  1  0  0  0  0  0  0  0  0
   -4.3363   -0.4543    0.1089 H   0  0  0  1  0  0  0  0  0  0  0  0
   -3.4022   -1.9265    0.2203 H   0  0  0  1  0  0  0  0  0  0  0  0
   -3.4979   -1.0649   -1.2971 H   0  0  0  1  0  0  0  0  0  0  0  0
  1  2  1  0  0  0  0
  1  3  2  0  0  0  0
  1  4  1  0  0  0  0
  4  5  1  0  0  0  0
  4 14  1  0  0  0  0
  4 15  1  0  0  0  0
  5  6  1  0  0  0  0
  5  7  1  0  0  0  0
  5 12  1  0  0  0  0
  6 13  1  0  0  0  0
  7 11  1  0  0  0  0
  7 16  1  0  0  0  0
  7 17  1  0  0  0  0
  8 11  1  0  0  0  0
  8 18  1  0  0  0  0
  8 19  1  0  0  0  0
  8 20  1  0  0  0  0
  9 11  1  0  0  0  0
  9 21  1  0  0  0  0
  9 22  1  0  0  0  0
  9 23  1  0  0  0  0
 10 11  1  0  0  0  0
 10 24  1  0  0  0  0
 10 25  1  0  0  0  0
 10 26  1  0  0  0  0
M  END
> <ConfClashScore>
0 

> <ConfOneFourInteractionScore>
-0.941489 

> <ConfScore>
-0.00376622 

> <ConfScorePBest>
0.00768248 

> <ConfTolerance>
0.383137 

$$$$
152.****
  PyMOL2.4          3D                             0

 26 25  0  0  0  0  0  0  0  0999 V2000
    1.4447   -1.9337   -1.5427 C   0  0  0  1  0  0  0  0  0  0  0  0
    2.6019   -2.0815   -2.2417 O   0  5  0  1  0  0  0  0  0  0  0  0
    1.3800   -1.9841   -0.3255 O   0  0  0  1  0  0  0  0  0  0  0  0
    0.2693   -1.7029   -2.4543 C   0  0  0  1  0  0  0  0  0  0  0  0
   -0.7189   -0.6865   -1.9059 C   0  0  0  1  0  0  0  0  0  0  0  0
   -1.9450   -0.7386   -2.6412 O   0  0  0  1  0  0  0  0  0  0  0  0
   -1.0691   -0.9380   -0.4474 C   0  0  0  1  0  0  0  0  0  0  0  0
   -2.2581    1.2598   -0.4556 C   0  0  0  1  0  0  0  0  0  0  0  0
   -2.1895   -0.0369    1.5997 C   0  0  0  1  0  0  0  0  0  0  0  0
   -3.4949   -0.9072   -0.3455 C   0  0  0  1  0  0  0  0  0  0  0  0
   -2.2533   -0.1552    0.0873 N   0  3  0  1  0  0  0  0  0  0  0  0
   -0.2871    0.2889   -1.9897 H   0  0  0  1  0  0  0  0  0  0  0  0
   -1.7579   -0.6785   -3.5809 H   0  0  0  1  0  0  0  0  0  0  0  0
   -0.2410   -2.6329   -2.5942 H   0  0  0  1  0  0  0  0  0  0  0  0
    0.6332   -1.3499   -3.3966 H   0  0  0  1  0  0  0  0  0  0  0  0
   -0.2140   -0.6861    0.1444 H   0  0  0  1  0  0  0  0  0  0  0  0
   -1.2861   -1.9799   -0.3361 H   0  0  0  1  0  0  0  0  0  0  0  0
   -2.2717    1.2320   -1.5252 H   0  0  0  1  0  0  0  0  0  0  0  0
   -1.3792    1.7719   -0.1236 H   0  0  0  1  0  0  0  0  0  0  0  0
   -3.1267    1.7746   -0.1015 H   0  0  0  1  0  0  0  0  0  0  0  0
   -2.8956    0.6957    1.9307 H   0  0  0  1  0  0  0  0  0  0  0  0
   -1.2041    0.2598    1.8927 H   0  0  0  1  0  0  0  0  0  0  0  0
   -2.4239   -0.9829    2.0414 H   0  0  0  1  0  0  0  0  0  0  0  0
   -3.4887   -1.8859    0.0870 H   0  0  0  1  0  0  0  0  0  0  0  0
   -3.5083   -0.9890   -1.4122 H   0  0  0  1  0  0  0  0  0  0  0  0
   -4.3648   -0.3778   -0.0169 H   0  0  0  1  0  0  0  0  0  0  0  0
  1  2  1  0  0  0  0
  1  3  2  0  0  0  0
  1  4  1  0  0  0  0
  4  5  1  0  0  0  0
  4 14  1  0  0  0  0
  4 15  1  0  0  0  0
  5  6  1  0  0  0  0
  5  7  1  0  0  0  0
  5 12  1  0  0  0  0
  6 13  1  0  0  0  0
  7 11  1  0  0  0  0
  7 16  1  0  0  0  0
  7 17  1  0  0  0  0
  8 11  1  0  0  0  0
  8 18  1  0  0  0  0
  8 19  1  0  0  0  0
  8 20  1  0  0  0  0
  9 11  1  0  0  0  0
  9 21  1  0  0  0  0
  9 22  1  0  0  0  0
  9 23  1  0  0  0  0
 10 11  1  0  0  0  0
 10 24  1  0  0  0  0
 10 25  1  0  0  0  0
 10 26  1  0  0  0  0
M  END
> <ConfClashScore>
0 

> <ConfOneFourInteractionScore>
-0.948519 

> <ConfScore>
-0.00243137 

> <ConfScorePBest>
0.00757948 

> <ConfTolerance>
0.441443 

$$$$
152.****
  PyMOL2.4          3D                             0

 26 25  0  0  0  0  0  0  0  0999 V2000
    0.9662   -2.5263   -1.7265 C   0  0  0  1  0  0  0  0  0  0  0  0
    0.9065   -3.5520   -0.8354 O   0  5  0  1  0  0  0  0  0  0  0  0
    1.9915   -1.9763   -2.0934 O   0  0  0  1  0  0  0  0  0  0  0  0
   -0.3947   -2.1193   -2.2346 C   0  0  0  1  0  0  0  0  0  0  0  0
   -0.6915   -0.6527   -1.8829 C   0  0  0  1  0  0  0  0  0  0  0  0
   -1.8672   -0.1886   -2.5266 O   0  0  0  1  0  0  0  0  0  0  0  0
   -0.7998   -0.3413   -0.4068 C   0  0  0  1  0  0  0  0  0  0  0  0
   -2.6745    1.3167   -0.4148 C   0  0  0  1  0  0  0  0  0  0  0  0
   -2.1133   -0.0444    1.6128 C   0  0  0  1  0  0  0  0  0  0  0  0
   -3.1988   -1.0536   -0.4061 C   0  0  0  1  0  0  0  0  0  0  0  0
   -2.1956   -0.0304    0.0969 N   0  3  0  1  0  0  0  0  0  0  0  0
    0.1326   -0.0804   -2.2546 H   0  0  0  1  0  0  0  0  0  0  0  0
   -1.6275    0.3111   -3.3104 H   0  0  0  1  0  0  0  0  0  0  0  0
   -1.1381   -2.7449   -1.7865 H   0  0  0  1  0  0  0  0  0  0  0  0
   -0.4220   -2.2375   -3.2977 H   0  0  0  1  0  0  0  0  0  0  0  0
   -0.1801    0.5068   -0.2032 H   0  0  0  1  0  0  0  0  0  0  0  0
   -0.4354   -1.1885    0.1357 H   0  0  0  1  0  0  0  0  0  0  0  0
   -2.7286    1.2942   -1.4832 H   0  0  0  1  0  0  0  0  0  0  0  0
   -1.9885    2.0786   -0.1087 H   0  0  0  1  0  0  0  0  0  0  0  0
   -3.6438    1.5264   -0.0132 H   0  0  0  1  0  0  0  0  0  0  0  0
   -1.8813   -1.0335    1.9488 H   0  0  0  1  0  0  0  0  0  0  0  0
   -3.0532    0.2602    2.0236 H   0  0  0  1  0  0  0  0  0  0  0  0
   -1.3475    0.6301    1.9345 H   0  0  0  1  0  0  0  0  0  0  0  0
   -2.7994   -2.0381   -0.2785 H   0  0  0  1  0  0  0  0  0  0  0  0
   -3.3948   -0.8803   -1.4436 H   0  0  0  1  0  0  0  0  0  0  0  0
   -4.1088   -0.9635    0.1493 H   0  0  0  1  0  0  0  0  0  0  0  0
  1  2  1  0  0  0  0
  1  3  2  0  0  0  0
  1  4  1  0  0  0  0
  4  5  1  0  0  0  0
  4 14  1  0  0  0  0
  4 15  1  0  0  0  0
  5  6  1  0  0  0  0
  5  7  1  0  0  0  0
  5 12  1  0  0  0  0
  6 13  1  0  0  0  0
  7 11  1  0  0  0  0
  7 16  1  0  0  0  0
  7 17  1  0  0  0  0
  8 11  1  0  0  0  0
  8 18  1  0  0  0  0
  8 19  1  0  0  0  0
  8 20  1  0  0  0  0
  9 11  1  0  0  0  0
  9 21  1  0  0  0  0
  9 22  1  0  0  0  0
  9 23  1  0  0  0  0
 10 11  1  0  0  0  0
 10 24  1  0  0  0  0
 10 25  1  0  0  0  0
 10 26  1  0  0  0  0
M  END
> <ConfClashScore>
0.000146634 

> <ConfOneFourInteractionScore>
-0.974231 

> <ConfScore>
-0.00149659 

> <ConfScorePBest>
0.00747648 

> <ConfTolerance>
0.415017 

$$$$
152.****
  PyMOL2.4          3D                             0

 26 25  0  0  0  0  0  0  0  0999 V2000
    1.6796   -1.8711    1.4699 C   0  0  0  1  0  0  0  0  0  0  0  0
    2.5063   -1.7016    2.5364 O   0  5  0  1  0  0  0  0  0  0  0  0
    2.0501   -2.1022    0.3307 O   0  0  0  1  0  0  0  0  0  0  0  0
    0.2033   -1.7610    1.7384 C   0  0  0  1  0  0  0  0  0  0  0  0
   -0.7463   -2.1807    0.6283 C   0  0  0  1  0  0  0  0  0  0  0  0
   -1.9809   -2.6474    1.1802 O   0  0  0  1  0  0  0  0  0  0  0  0
   -1.0875   -1.0426   -0.3075 C   0  0  0  1  0  0  0  0  0  0  0  0
   -2.2901    1.1074   -0.6905 C   0  0  0  1  0  0  0  0  0  0  0  0
   -2.0797    0.1262    1.5883 C   0  0  0  1  0  0  0  0  0  0  0  0
   -3.5705   -0.9010   -0.1232 C   0  0  0  1  0  0  0  0  0  0  0  0
   -2.2603   -0.1782    0.1118 N   0  3  0  1  0  0  0  0  0  0  0  0
   -0.2844   -2.9626    0.0623 H   0  0  0  1  0  0  0  0  0  0  0  0
   -1.9477   -2.5850    2.1376 H   0  0  0  1  0  0  0  0  0  0  0  0
   -0.0049   -0.7369    1.9677 H   0  0  0  1  0  0  0  0  0  0  0  0
   -0.0131   -2.3692    2.5918 H   0  0  0  1  0  0  0  0  0  0  0  0
   -1.3134   -1.4613   -1.2660 H   0  0  0  1  0  0  0  0  0  0  0  0
   -0.2263   -0.4126   -0.3870 H   0  0  0  1  0  0  0  0  0  0  0  0
   -3.1472    1.6834   -0.4104 H   0  0  0  1  0  0  0  0  0  0  0  0
   -2.3420    0.8754   -1.7337 H   0  0  0  1  0  0  0  0  0  0  0  0
   -1.4021    1.6710   -0.4937 H   0  0  0  1  0  0  0  0  0  0  0  0
   -1.1418    0.6186    1.7393 H   0  0  0  1  0  0  0  0  0  0  0  0
   -2.0963   -0.7874    2.1452 H   0  0  0  1  0  0  0  0  0  0  0  0
   -2.8736    0.7617    1.9209 H   0  0  0  1  0  0  0  0  0  0  0  0
   -4.3850   -0.2278    0.0454 H   0  0  0  1  0  0  0  0  0  0  0  0
   -3.6468   -1.7286    0.5507 H   0  0  0  1  0  0  0  0  0  0  0  0
   -3.6053   -1.2571   -1.1316 H   0  0  0  1  0  0  0  0  0  0  0  0
  1  2  1  0  0  0  0
  1  3  2  0  0  0  0
  1  4  1  0  0  0  0
  4  5  1  0  0  0  0
  4 14  1  0  0  0  0
  4 15  1  0  0  0  0
  5  6  1  0  0  0  0
  5  7  1  0  0  0  0
  5 12  1  0  0  0  0
  6 13  1  0  0  0  0
  7 11  1  0  0  0  0
  7 16  1  0  0  0  0
  7 17  1  0  0  0  0
  8 11  1  0  0  0  0
  8 18  1  0  0  0  0
  8 19  1  0  0  0  0
  8 20  1  0  0  0  0
  9 11  1  0  0  0  0
  9 21  1  0  0  0  0
  9 22  1  0  0  0  0
  9 23  1  0  0  0  0
 10 11  1  0  0  0  0
 10 24  1  0  0  0  0
 10 25  1  0  0  0  0
 10 26  1  0  0  0  0
M  END
> <ConfClashScore>
0 

> <ConfOneFourInteractionScore>
-0.965731 

> <ConfScore>
0.00872155 

> <ConfScorePBest>
0.00737347 

> <ConfTolerance>
0.620785 

$$$$
152.****
  PyMOL2.4          3D                             0

 26 25  0  0  0  0  0  0  0  0999 V2000
    1.0423   -1.2982    1.2021 C   0  0  0  1  0  0  0  0  0  0  0  0
    2.1672   -0.7829    1.7668 O   0  5  0  1  0  0  0  0  0  0  0  0
    0.1114   -1.7536    1.8459 O   0  0  0  1  0  0  0  0  0  0  0  0
    1.0945   -1.2343   -0.3009 C   0  0  0  1  0  0  0  0  0  0  0  0
   -0.0064   -0.3736   -0.8989 C   0  0  0  1  0  0  0  0  0  0  0  0
    0.2329   -0.1587   -2.2962 O   0  0  0  1  0  0  0  0  0  0  0  0
   -1.3712   -1.0107   -0.7817 C   0  0  0  1  0  0  0  0  0  0  0  0
   -2.3111    1.2313   -0.5169 C   0  0  0  1  0  0  0  0  0  0  0  0
   -1.8783   -0.1697    1.4541 C   0  0  0  1  0  0  0  0  0  0  0  0
   -3.7022   -0.7357   -0.0857 C   0  0  0  1  0  0  0  0  0  0  0  0
   -2.3142   -0.1719    0.0174 N   0  3  0  1  0  0  0  0  0  0  0  0
   -0.0227    0.5651   -0.3857 H   0  0  0  1  0  0  0  0  0  0  0  0
   -0.6023   -0.1674   -2.7694 H   0  0  0  1  0  0  0  0  0  0  0  0
    0.9984   -2.2274   -0.6875 H   0  0  0  1  0  0  0  0  0  0  0  0
    2.0406   -0.8278   -0.5919 H   0  0  0  1  0  0  0  0  0  0  0  0
   -1.2678   -1.9631   -0.3053 H   0  0  0  1  0  0  0  0  0  0  0  0
   -1.7751   -1.1444   -1.7635 H   0  0  0  1  0  0  0  0  0  0  0  0
   -3.0312    1.8176    0.0148 H   0  0  0  1  0  0  0  0  0  0  0  0
   -2.5612    1.2172   -1.5572 H   0  0  0  1  0  0  0  0  0  0  0  0
   -1.3388    1.6592   -0.3891 H   0  0  0  1  0  0  0  0  0  0  0  0
   -2.5453    0.4384    2.0288 H   0  0  0  1  0  0  0  0  0  0  0  0
   -0.8861    0.2246    1.5249 H   0  0  0  1  0  0  0  0  0  0  0  0
   -1.8928   -1.1704    1.8325 H   0  0  0  1  0  0  0  0  0  0  0  0
   -3.7050   -1.7451    0.2694 H   0  0  0  1  0  0  0  0  0  0  0  0
   -4.0198   -0.7165   -1.1074 H   0  0  0  1  0  0  0  0  0  0  0  0
   -4.3709   -0.1474    0.5072 H   0  0  0  1  0  0  0  0  0  0  0  0
  1  2  1  0  0  0  0
  1  3  2  0  0  0  0
  1  4  1  0  0  0  0
  4  5  1  0  0  0  0
  4 14  1  0  0  0  0
  4 15  1  0  0  0  0
  5  6  1  0  0  0  0
  5  7  1  0  0  0  0
  5 12  1  0  0  0  0
  6 13  1  0  0  0  0
  7 11  1  0  0  0  0
  7 16  1  0  0  0  0
  7 17  1  0  0  0  0
  8 11  1  0  0  0  0
  8 18  1  0  0  0  0
  8 19  1  0  0  0  0
  8 20  1  0  0  0  0
  9 11  1  0  0  0  0
  9 21  1  0  0  0  0
  9 22  1  0  0  0  0
  9 23  1  0  0  0  0
 10 11  1  0  0  0  0
 10 24  1  0  0  0  0
 10 25  1  0  0  0  0
 10 26  1  0  0  0  0
M  END
> <ConfClashScore>
0 

> <ConfOneFourInteractionScore>
-0.931242 

> <ConfScore>
0.0162519 

> <ConfScorePBest>
0.00727047 

> <ConfTolerance>
0.657645 

$$$$
152.****
  PyMOL2.4          3D                             0

 26 25  0  0  0  0  0  0  0  0999 V2000
   -1.1928   -1.7386   -4.1831 C   0  0  0  1  0  0  0  0  0  0  0  0
   -1.4696   -0.5475   -4.7782 O   0  5  0  1  0  0  0  0  0  0  0  0
   -0.7044   -2.6897   -4.7709 O   0  0  0  1  0  0  0  0  0  0  0  0
   -1.5624   -1.7312   -2.7239 C   0  0  0  1  0  0  0  0  0  0  0  0
   -0.7734   -0.7440   -1.9249 C   0  0  0  1  0  0  0  0  0  0  0  0
   -0.7647    0.4809   -2.6290 O   0  0  0  1  0  0  0  0  0  0  0  0
   -0.9593   -0.7415   -0.4240 C   0  0  0  1  0  0  0  0  0  0  0  0
   -2.3791    1.2785   -0.4697 C   0  0  0  1  0  0  0  0  0  0  0  0
   -2.1728   -0.0287    1.5719 C   0  0  0  1  0  0  0  0  0  0  0  0
   -3.4071   -0.9673   -0.3134 C   0  0  0  1  0  0  0  0  0  0  0  0
   -2.2316   -0.1172    0.0716 N   0  3  0  1  0  0  0  0  0  0  0  0
    0.2279   -1.0997   -2.0507 H   0  0  0  1  0  0  0  0  0  0  0  0
   -1.6236    0.6244   -3.0332 H   0  0  0  1  0  0  0  0  0  0  0  0
   -1.3900   -2.7086   -2.3240 H   0  0  0  1  0  0  0  0  0  0  0  0
   -2.6007   -1.4877   -2.6369 H   0  0  0  1  0  0  0  0  0  0  0  0
   -0.1400   -0.2059    0.0081 H   0  0  0  1  0  0  0  0  0  0  0  0
   -0.9387   -1.7573   -0.0882 H   0  0  0  1  0  0  0  0  0  0  0  0
   -2.5999    1.2344   -1.5157 H   0  0  0  1  0  0  0  0  0  0  0  0
   -1.4666    1.8169   -0.3204 H   0  0  0  1  0  0  0  0  0  0  0  0
   -3.1757    1.7769    0.0421 H   0  0  0  1  0  0  0  0  0  0  0  0
   -1.4801    0.7351    1.8578 H   0  0  0  1  0  0  0  0  0  0  0  0
   -1.8527   -0.9680    1.9721 H   0  0  0  1  0  0  0  0  0  0  0  0
   -3.1437    0.2098    1.9532 H   0  0  0  1  0  0  0  0  0  0  0  0
   -3.0948   -1.7118   -1.0156 H   0  0  0  1  0  0  0  0  0  0  0  0
   -4.1614   -0.3522   -0.7579 H   0  0  0  1  0  0  0  0  0  0  0  0
   -3.8031   -1.4440    0.5589 H   0  0  0  1  0  0  0  0  0  0  0  0
  1  2  1  0  0  0  0
  1  3  2  0  0  0  0
  1  4  1  0  0  0  0
  4  5  1  0  0  0  0
  4 14  1  0  0  0  0
  4 15  1  0  0  0  0
  5  6  1  0  0  0  0
  5  7  1  0  0  0  0
  5 12  1  0  0  0  0
  6 13  1  0  0  0  0
  7 11  1  0  0  0  0
  7 16  1  0  0  0  0
  7 17  1  0  0  0  0
  8 11  1  0  0  0  0
  8 18  1  0  0  0  0
  8 19  1  0  0  0  0
  8 20  1  0  0  0  0
  9 11  1  0  0  0  0
  9 21  1  0  0  0  0
  9 22  1  0  0  0  0
  9 23  1  0  0  0  0
 10 11  1  0  0  0  0
 10 24  1  0  0  0  0
 10 25  1  0  0  0  0
 10 26  1  0  0  0  0
M  END
> <ConfClashScore>
0 

> <ConfOneFourInteractionScore>
-0.982731 

> <ConfScore>
0.0168824 

> <ConfScorePBest>
0.00716747 

> <ConfTolerance>
0.353434 

$$$$
152.****
  PyMOL2.4          3D                             0

 26 25  0  0  0  0  0  0  0  0999 V2000
    0.3591   -2.4439   -3.5204 C   0  0  0  1  0  0  0  0  0  0  0  0
    1.6145   -2.4309   -4.0433 O   0  5  0  1  0  0  0  0  0  0  0  0
   -0.3496   -3.4362   -3.5603 O   0  0  0  1  0  0  0  0  0  0  0  0
    0.0108   -1.1083   -2.9197 C   0  0  0  1  0  0  0  0  0  0  0  0
   -1.2911   -1.1340   -2.1146 C   0  0  0  1  0  0  0  0  0  0  0  0
   -1.8738   -2.4399   -2.1534 O   0  0  0  1  0  0  0  0  0  0  0  0
   -1.0798   -0.7895   -0.6483 C   0  0  0  1  0  0  0  0  0  0  0  0
   -2.4417    1.3004   -0.4461 C   0  0  0  1  0  0  0  0  0  0  0  0
   -2.0241   -0.0364    1.5441 C   0  0  0  1  0  0  0  0  0  0  0  0
   -3.4755   -0.9723   -0.2669 C   0  0  0  1  0  0  0  0  0  0  0  0
   -2.2552   -0.1241    0.0459 N   0  3  0  1  0  0  0  0  0  0  0  0
   -1.9672   -0.4216   -2.5392 H   0  0  0  1  0  0  0  0  0  0  0  0
   -2.3152   -2.6188   -1.3199 H   0  0  0  1  0  0  0  0  0  0  0  0
   -0.0921   -0.3954   -3.7110 H   0  0  0  1  0  0  0  0  0  0  0  0
    0.8069   -0.8088   -2.2705 H   0  0  0  1  0  0  0  0  0  0  0  0
   -0.2417   -0.1275   -0.5834 H   0  0  0  1  0  0  0  0  0  0  0  0
   -0.8597   -1.6968   -0.1256 H   0  0  0  1  0  0  0  0  0  0  0  0
   -1.5624    1.8707   -0.2304 H   0  0  0  1  0  0  0  0  0  0  0  0
   -3.2824    1.7409    0.0479 H   0  0  0  1  0  0  0  0  0  0  0  0
   -2.6116    1.2932   -1.5025 H   0  0  0  1  0  0  0  0  0  0  0  0
   -1.1465    0.5447    1.7367 H   0  0  0  1  0  0  0  0  0  0  0  0
   -1.8943   -1.0208    1.9429 H   0  0  0  1  0  0  0  0  0  0  0  0
   -2.8685    0.4286    2.0084 H   0  0  0  1  0  0  0  0  0  0  0  0
   -3.2626   -1.9981   -0.0494 H   0  0  0  1  0  0  0  0  0  0  0  0
   -3.7235   -0.8716   -1.3028 H   0  0  0  1  0  0  0  0  0  0  0  0
   -4.3000   -0.6448    0.3313 H   0  0  0  1  0  0  0  0  0  0  0  0
  1  2  1  0  0  0  0
  1  3  2  0  0  0  0
  1  4  1  0  0  0  0
  4  5  1  0  0  0  0
  4 14  1  0  0  0  0
  4 15  1  0  0  0  0
  5  6  1  0  0  0  0
  5  7  1  0  0  0  0
  5 12  1  0  0  0  0
  6 13  1  0  0  0  0
  7 11  1  0  0  0  0
  7 16  1  0  0  0  0
  7 17  1  0  0  0  0
  8 11  1  0  0  0  0
  8 18  1  0  0  0  0
  8 19  1  0  0  0  0
  8 20  1  0  0  0  0
  9 11  1  0  0  0  0
  9 21  1  0  0  0  0
  9 22  1  0  0  0  0
  9 23  1  0  0  0  0
 10 11  1  0  0  0  0
 10 24  1  0  0  0  0
 10 25  1  0  0  0  0
 10 26  1  0  0  0  0
M  END
> <ConfClashScore>
0 

> <ConfOneFourInteractionScore>
-0.946965 

> <ConfScore>
0.0174682 

> <ConfScorePBest>
0.00706447 

> <ConfTolerance>
0.627925 

$$$$
152.****
  PyMOL2.4          3D                             0

 26 25  0  0  0  0  0  0  0  0999 V2000
   -1.7448   -1.9429   -3.8924 C   0  0  0  1  0  0  0  0  0  0  0  0
   -1.4090   -1.3348   -5.0616 O   0  5  0  1  0  0  0  0  0  0  0  0
   -2.2675   -3.0435   -3.8295 O   0  0  0  1  0  0  0  0  0  0  0  0
   -1.3925   -1.0933   -2.7024 C   0  0  0  1  0  0  0  0  0  0  0  0
   -1.1179   -1.8553   -1.4162 C   0  0  0  1  0  0  0  0  0  0  0  0
    0.0978   -2.5887   -1.5911 O   0  0  0  1  0  0  0  0  0  0  0  0
   -0.9954   -0.9398   -0.2187 C   0  0  0  1  0  0  0  0  0  0  0  0
   -2.1906    1.1491   -0.5502 C   0  0  0  1  0  0  0  0  0  0  0  0
   -2.2928    0.0638    1.6284 C   0  0  0  1  0  0  0  0  0  0  0  0
   -3.4696   -0.9039   -0.3148 C   0  0  0  1  0  0  0  0  0  0  0  0
   -2.2382   -0.1795    0.1478 N   0  3  0  1  0  0  0  0  0  0  0  0
   -1.9274   -2.5334   -1.2432 H   0  0  0  1  0  0  0  0  0  0  0  0
   -0.1061   -3.4888   -1.8555 H   0  0  0  1  0  0  0  0  0  0  0  0
   -2.2075   -0.4239   -2.5219 H   0  0  0  1  0  0  0  0  0  0  0  0
   -0.5156   -0.5308   -2.9464 H   0  0  0  1  0  0  0  0  0  0  0  0
   -0.2236   -0.2283   -0.4261 H   0  0  0  1  0  0  0  0  0  0  0  0
   -0.7141   -1.5363    0.6240 H   0  0  0  1  0  0  0  0  0  0  0  0
   -2.0445    0.9965   -1.5991 H   0  0  0  1  0  0  0  0  0  0  0  0
   -1.3811    1.7288   -0.1582 H   0  0  0  1  0  0  0  0  0  0  0  0
   -3.1122    1.6688   -0.3905 H   0  0  0  1  0  0  0  0  0  0  0  0
   -3.1136    0.7123    1.8538 H   0  0  0  1  0  0  0  0  0  0  0  0
   -1.3796    0.5204    1.9484 H   0  0  0  1  0  0  0  0  0  0  0  0
   -2.4242   -0.8677    2.1381 H   0  0  0  1  0  0  0  0  0  0  0  0
   -3.4469   -1.0028   -1.3800 H   0  0  0  1  0  0  0  0  0  0  0  0
   -4.3385   -0.3497   -0.0268 H   0  0  0  1  0  0  0  0  0  0  0  0
   -3.5010   -1.8752    0.1328 H   0  0  0  1  0  0  0  0  0  0  0  0
  1  2  1  0  0  0  0
  1  3  2  0  0  0  0
  1  4  1  0  0  0  0
  4  5  1  0  0  0  0
  4 14  1  0  0  0  0
  4 15  1  0  0  0  0
  5  6  1  0  0  0  0
  5  7  1  0  0  0  0
  5 12  1  0  0  0  0
  6 13  1  0  0  0  0
  7 11  1  0  0  0  0
  7 16  1  0  0  0  0
  7 17  1  0  0  0  0
  8 11  1  0  0  0  0
  8 18  1  0  0  0  0
  8 19  1  0  0  0  0
  8 20  1  0  0  0  0
  9 11  1  0  0  0  0
  9 21  1  0  0  0  0
  9 22  1  0  0  0  0
  9 23  1  0  0  0  0
 10 11  1  0  0  0  0
 10 24  1  0  0  0  0
 10 25  1  0  0  0  0
 10 26  1  0  0  0  0
M  END
> <ConfClashScore>
0 

> <ConfOneFourInteractionScore>
-0.933951 

> <ConfScore>
0.0212274 

> <ConfScorePBest>
0.00696147 

> <ConfTolerance>
0.296119 

$$$$
152.****
  PyMOL2.4          3D                             0

 26 25  0  0  0  0  0  0  0  0999 V2000
   -1.5199   -3.9174    2.4748 C   0  0  0  1  0  0  0  0  0  0  0  0
   -2.7262   -4.2767    2.9899 O   0  5  0  1  0  0  0  0  0  0  0  0
   -0.5496   -4.6565    2.4489 O   0  0  0  1  0  0  0  0  0  0  0  0
   -1.5372   -2.5075    1.9478 C   0  0  0  1  0  0  0  0  0  0  0  0
   -1.0018   -2.3953    0.5297 C   0  0  0  1  0  0  0  0  0  0  0  0
   -1.7955   -3.2410   -0.3073 O   0  0  0  1  0  0  0  0  0  0  0  0
   -0.9687   -0.9825   -0.0300 C   0  0  0  1  0  0  0  0  0  0  0  0
   -2.0654    1.0956   -0.6551 C   0  0  0  1  0  0  0  0  0  0  0  0
   -2.4318    0.1712    1.6425 C   0  0  0  1  0  0  0  0  0  0  0  0
   -3.4620   -0.9438   -0.2571 C   0  0  0  1  0  0  0  0  0  0  0  0
   -2.2320   -0.1651    0.1753 N   0  3  0  1  0  0  0  0  0  0  0  0
    0.0028   -2.7636    0.5345 H   0  0  0  1  0  0  0  0  0  0  0  0
   -1.7149   -4.1509   -0.0120 H   0  0  0  1  0  0  0  0  0  0  0  0
   -0.9356   -1.8970    2.5883 H   0  0  0  1  0  0  0  0  0  0  0  0
   -2.5463   -2.1518    1.9599 H   0  0  0  1  0  0  0  0  0  0  0  0
   -0.7877   -1.0497   -1.0824 H   0  0  0  1  0  0  0  0  0  0  0  0
   -0.1601   -0.4617    0.4390 H   0  0  0  1  0  0  0  0  0  0  0  0
   -1.8507    0.8297   -1.6690 H   0  0  0  1  0  0  0  0  0  0  0  0
   -1.2590    1.6780   -0.2609 H   0  0  0  1  0  0  0  0  0  0  0  0
   -2.9692    1.6673   -0.6203 H   0  0  0  1  0  0  0  0  0  0  0  0
   -2.4450    1.2338    1.7669 H   0  0  0  1  0  0  0  0  0  0  0  0
   -1.6300   -0.2448    2.2159 H   0  0  0  1  0  0  0  0  0  0  0  0
   -3.3614   -0.2386    1.9787 H   0  0  0  1  0  0  0  0  0  0  0  0
   -4.3345   -0.3408   -0.1155 H   0  0  0  1  0  0  0  0  0  0  0  0
   -3.5449   -1.8342    0.3304 H   0  0  0  1  0  0  0  0  0  0  0  0
   -3.3733   -1.2050   -1.2909 H   0  0  0  1  0  0  0  0  0  0  0  0
  1  2  1  0  0  0  0
  1  3  2  0  0  0  0
  1  4  1  0  0  0  0
  4  5  1  0  0  0  0
  4 14  1  0  0  0  0
  4 15  1  0  0  0  0
  5  6  1  0  0  0  0
  5  7  1  0  0  0  0
  5 12  1  0  0  0  0
  6 13  1  0  0  0  0
  7 11  1  0  0  0  0
  7 16  1  0  0  0  0
  7 17  1  0  0  0  0
  8 11  1  0  0  0  0
  8 18  1  0  0  0  0
  8 19  1  0  0  0  0
  8 20  1  0  0  0  0
  9 11  1  0  0  0  0
  9 21  1  0  0  0  0
  9 22  1  0  0  0  0
  9 23  1  0  0  0  0
 10 11  1  0  0  0  0
 10 24  1  0  0  0  0
 10 25  1  0  0  0  0
 10 26  1  0  0  0  0
M  END
> <ConfClashScore>
0 

> <ConfOneFourInteractionScore>
-0.919015 

> <ConfScore>
0.0457205 

> <ConfScorePBest>
0.00685847 

> <ConfTolerance>
0.25 

$$$$
152.****
  PyMOL2.4          3D                             0

 26 25  0  0  0  0  0  0  0  0999 V2000
    0.9585   -4.0494    0.1967 C   0  0  0  1  0  0  0  0  0  0  0  0
    2.2664   -4.2323   -0.1281 O   0  5  0  1  0  0  0  0  0  0  0  0
    0.1827   -4.9652    0.4155 O   0  0  0  1  0  0  0  0  0  0  0  0
    0.5974   -2.5904    0.2501 C   0  0  0  1  0  0  0  0  0  0  0  0
   -0.8639   -2.2687   -0.0340 C   0  0  0  1  0  0  0  0  0  0  0  0
   -1.6429   -2.6132    1.0944 O   0  0  0  1  0  0  0  0  0  0  0  0
   -0.9935   -0.8166   -0.4246 C   0  0  0  1  0  0  0  0  0  0  0  0
   -2.3559    1.1934   -0.5498 C   0  0  0  1  0  0  0  0  0  0  0  0
   -2.1363    0.0463    1.5869 C   0  0  0  1  0  0  0  0  0  0  0  0
   -3.4606   -0.9506   -0.2408 C   0  0  0  1  0  0  0  0  0  0  0  0
   -2.2350   -0.1541    0.1047 N   0  3  0  1  0  0  0  0  0  0  0  0
   -1.1728   -2.8614   -0.8696 H   0  0  0  1  0  0  0  0  0  0  0  0
   -1.7400   -3.5673    1.1375 H   0  0  0  1  0  0  0  0  0  0  0  0
    1.1953   -2.0757   -0.4727 H   0  0  0  1  0  0  0  0  0  0  0  0
    0.8307   -2.2283    1.2296 H   0  0  0  1  0  0  0  0  0  0  0  0
   -1.0074   -0.7547   -1.4927 H   0  0  0  1  0  0  0  0  0  0  0  0
   -0.1426   -0.2888   -0.0473 H   0  0  0  1  0  0  0  0  0  0  0  0
   -1.4439    1.7374   -0.4184 H   0  0  0  1  0  0  0  0  0  0  0  0
   -3.1622    1.7360   -0.1023 H   0  0  0  1  0  0  0  0  0  0  0  0
   -2.5475    1.0661   -1.5948 H   0  0  0  1  0  0  0  0  0  0  0  0
   -1.2832    0.6527    1.8092 H   0  0  0  1  0  0  0  0  0  0  0  0
   -2.0339   -0.9034    2.0689 H   0  0  0  1  0  0  0  0  0  0  0  0
   -3.0212    0.5328    1.9405 H   0  0  0  1  0  0  0  0  0  0  0  0
   -3.5124   -1.0844   -1.3011 H   0  0  0  1  0  0  0  0  0  0  0  0
   -4.3317   -0.4281    0.0955 H   0  0  0  1  0  0  0  0  0  0  0  0
   -3.4108   -1.9066    0.2371 H   0  0  0  1  0  0  0  0  0  0  0  0
  1  2  1  0  0  0  0
  1  3  2  0  0  0  0
  1  4  1  0  0  0  0
  4  5  1  0  0  0  0
  4 14  1  0  0  0  0
  4 15  1  0  0  0  0
  5  6  1  0  0  0  0
  5  7  1  0  0  0  0
  5 12  1  0  0  0  0
  6 13  1  0  0  0  0
  7 11  1  0  0  0  0
  7 16  1  0  0  0  0
  7 17  1  0  0  0  0
  8 11  1  0  0  0  0
  8 18  1  0  0  0  0
  8 19  1  0  0  0  0
  8 20  1  0  0  0  0
  9 11  1  0  0  0  0
  9 21  1  0  0  0  0
  9 22  1  0  0  0  0
  9 23  1  0  0  0  0
 10 11  1  0  0  0  0
 10 24  1  0  0  0  0
 10 25  1  0  0  0  0
 10 26  1  0  0  0  0
M  END
> <ConfClashScore>
0 

> <ConfOneFourInteractionScore>
-0.965731 

> <ConfScore>
0.0571775 

> <ConfScorePBest>
0.00675547 

> <ConfTolerance>
0.578197 

$$$$
152.****
  PyMOL2.4          3D                             0

 26 25  0  0  0  0  0  0  0  0999 V2000
    0.2743   -0.2860   -3.9506 C   0  0  0  1  0  0  0  0  0  0  0  0
    0.1815   -1.1819   -4.9696 O   0  5  0  1  0  0  0  0  0  0  0  0
    0.3638    0.9193   -4.1171 O   0  0  0  1  0  0  0  0  0  0  0  0
    0.2524   -0.9654   -2.6090 C   0  0  0  1  0  0  0  0  0  0  0  0
   -1.1162   -1.0763   -1.9571 C   0  0  0  1  0  0  0  0  0  0  0  0
   -1.7293   -2.3382   -2.2372 O   0  0  0  1  0  0  0  0  0  0  0  0
   -1.0679   -0.9401   -0.4533 C   0  0  0  1  0  0  0  0  0  0  0  0
   -2.2622    1.2660   -0.4464 C   0  0  0  1  0  0  0  0  0  0  0  0
   -2.1918   -0.0296    1.5977 C   0  0  0  1  0  0  0  0  0  0  0  0
   -3.4889   -0.9202   -0.3522 C   0  0  0  1  0  0  0  0  0  0  0  0
   -2.2518   -0.1561    0.0860 N   0  3  0  1  0  0  0  0  0  0  0  0
   -1.7325   -0.2909   -2.3420 H   0  0  0  1  0  0  0  0  0  0  0  0
   -2.4388   -2.4960   -1.6101 H   0  0  0  1  0  0  0  0  0  0  0  0
    0.8886   -0.4135   -1.9491 H   0  0  0  1  0  0  0  0  0  0  0  0
    0.6397   -1.9550   -2.7338 H   0  0  0  1  0  0  0  0  0  0  0  0
   -0.1656   -0.4334   -0.1814 H   0  0  0  1  0  0  0  0  0  0  0  0
   -1.0739   -1.9175   -0.0178 H   0  0  0  1  0  0  0  0  0  0  0  0
   -2.2257    1.2473   -1.5156 H   0  0  0  1  0  0  0  0  0  0  0  0
   -1.4110    1.7937   -0.0699 H   0  0  0  1  0  0  0  0  0  0  0  0
   -3.1573    1.7589   -0.1289 H   0  0  0  1  0  0  0  0  0  0  0  0
   -2.9776    0.6142    1.9338 H   0  0  0  1  0  0  0  0  0  0  0  0
   -1.2466    0.3823    1.8837 H   0  0  0  1  0  0  0  0  0  0  0  0
   -2.3090   -0.9964    2.0412 H   0  0  0  1  0  0  0  0  0  0  0  0
   -3.4658   -1.9058    0.0637 H   0  0  0  1  0  0  0  0  0  0  0  0
   -3.5086   -0.9843   -1.4201 H   0  0  0  1  0  0  0  0  0  0  0  0
   -4.3639   -0.4089   -0.0088 H   0  0  0  1  0  0  0  0  0  0  0  0
  1  2  1  0  0  0  0
  1  3  2  0  0  0  0
  1  4  1  0  0  0  0
  4  5  1  0  0  0  0
  4 14  1  0  0  0  0
  4 15  1  0  0  0  0
  5  6  1  0  0  0  0
  5  7  1  0  0  0  0
  5 12  1  0  0  0  0
  6 13  1  0  0  0  0
  7 11  1  0  0  0  0
  7 16  1  0  0  0  0
  7 17  1  0  0  0  0
  8 11  1  0  0  0  0
  8 18  1  0  0  0  0
  8 19  1  0  0  0  0
  8 20  1  0  0  0  0
  9 11  1  0  0  0  0
  9 21  1  0  0  0  0
  9 22  1  0  0  0  0
  9 23  1  0  0  0  0
 10 11  1  0  0  0  0
 10 24  1  0  0  0  0
 10 25  1  0  0  0  0
 10 26  1  0  0  0  0
M  END
> <ConfClashScore>
0 

> <ConfOneFourInteractionScore>
-0.919505 

> <ConfScore>
0.0795411 

> <ConfScorePBest>
0.00665247 

> <ConfTolerance>
0.768208 

$$$$
152.****
  PyMOL2.4          3D                             0

 26 25  0  0  0  0  0  0  0  0999 V2000
    1.6339    1.8663   -1.7745 C   0  0  0  1  0  0  0  0  0  0  0  0
    1.3533    3.1824   -1.9709 O   0  5  0  1  0  0  0  0  0  0  0  0
    2.7711    1.4505   -1.6244 O   0  0  0  1  0  0  0  0  0  0  0  0
    0.4461    0.9419   -1.7528 C   0  0  0  1  0  0  0  0  0  0  0  0
    0.2718    0.2278   -0.4230 C   0  0  0  1  0  0  0  0  0  0  0  0
    0.2109    1.1722    0.6498 O   0  0  0  1  0  0  0  0  0  0  0  0
   -0.9192   -0.7159   -0.3854 C   0  0  0  1  0  0  0  0  0  0  0  0
   -2.3973    1.1924   -0.6612 C   0  0  0  1  0  0  0  0  0  0  0  0
   -2.1825    0.1365    1.5987 C   0  0  0  1  0  0  0  0  0  0  0  0
   -3.3875   -1.0493   -0.1492 C   0  0  0  1  0  0  0  0  0  0  0  0
   -2.2210   -0.1096    0.1007 N   0  3  0  1  0  0  0  0  0  0  0  0
    1.1452   -0.3735   -0.2799 H   0  0  0  1  0  0  0  0  0  0  0  0
    1.0997    1.3673    0.9558 H   0  0  0  1  0  0  0  0  0  0  0  0
    0.5724    0.2069   -2.5200 H   0  0  0  1  0  0  0  0  0  0  0  0
   -0.4355    1.5156   -1.9494 H   0  0  0  1  0  0  0  0  0  0  0  0
   -0.6732   -1.5304    0.2634 H   0  0  0  1  0  0  0  0  0  0  0  0
   -1.0781   -1.0847   -1.3772 H   0  0  0  1  0  0  0  0  0  0  0  0
   -1.7891    1.9519   -0.2160 H   0  0  0  1  0  0  0  0  0  0  0  0
   -3.4241    1.4908   -0.6242 H   0  0  0  1  0  0  0  0  0  0  0  0
   -2.1027    1.0517   -1.6802 H   0  0  0  1  0  0  0  0  0  0  0  0
   -2.0676   -0.7959    2.1110 H   0  0  0  1  0  0  0  0  0  0  0  0
   -3.0951    0.6024    1.9070 H   0  0  0  1  0  0  0  0  0  0  0  0
   -1.3577    0.7762    1.8337 H   0  0  0  1  0  0  0  0  0  0  0  0
   -4.2802   -0.6283    0.2639 H   0  0  0  1  0  0  0  0  0  0  0  0
   -3.1906   -1.9931    0.3149 H   0  0  0  1  0  0  0  0  0  0  0  0
   -3.5135   -1.1887   -1.2026 H   0  0  0  1  0  0  0  0  0  0  0  0
  1  2  1  0  0  0  0
  1  3  2  0  0  0  0
  1  4  1  0  0  0  0
  4  5  1  0  0  0  0
  4 14  1  0  0  0  0
  4 15  1  0  0  0  0
  5  6  1  0  0  0  0
  5  7  1  0  0  0  0
  5 12  1  0  0  0  0
  6 13  1  0  0  0  0
  7 11  1  0  0  0  0
  7 16  1  0  0  0  0
  7 17  1  0  0  0  0
  8 11  1  0  0  0  0
  8 18  1  0  0  0  0
  8 19  1  0  0  0  0
  8 20  1  0  0  0  0
  9 11  1  0  0  0  0
  9 21  1  0  0  0  0
  9 22  1  0  0  0  0
  9 23  1  0  0  0  0
 10 11  1  0  0  0  0
 10 24  1  0  0  0  0
 10 25  1  0  0  0  0
 10 26  1  0  0  0  0
M  END
> <ConfClashScore>
0 

> <ConfOneFourInteractionScore>
-0.974231 

> <ConfScore>
0.0808467 

> <ConfScorePBest>
0.00654947 

> <ConfTolerance>
0.25 

$$$$
152.****
  PyMOL2.4          3D                             0

 26 25  0  0  0  0  0  0  0  0999 V2000
   -1.7183   -4.5881    0.5847 C   0  0  0  1  0  0  0  0  0  0  0  0
   -1.0755   -5.1304    1.6535 O   0  5  0  1  0  0  0  0  0  0  0  0
   -2.2980   -5.2751   -0.2402 O   0  0  0  1  0  0  0  0  0  0  0  0
   -1.6019   -3.0873    0.5895 C   0  0  0  1  0  0  0  0  0  0  0  0
   -1.5770   -2.4879   -0.8063 C   0  0  0  1  0  0  0  0  0  0  0  0
   -2.8263   -2.8286   -1.4143 O   0  0  0  1  0  0  0  0  0  0  0  0
   -1.3726   -1.0033   -0.8044 C   0  0  0  1  0  0  0  0  0  0  0  0
   -2.3232    1.2376   -0.5111 C   0  0  0  1  0  0  0  0  0  0  0  0
   -1.8658   -0.1750    1.4461 C   0  0  0  1  0  0  0  0  0  0  0  0
   -3.7026   -0.7376   -0.0797 C   0  0  0  1  0  0  0  0  0  0  0  0
   -2.3158   -0.1692    0.0137 N   0  3  0  1  0  0  0  0  0  0  0  0
   -0.7765   -2.9400   -1.3538 H   0  0  0  1  0  0  0  0  0  0  0  0
   -3.1993   -2.0516   -1.8373 H   0  0  0  1  0  0  0  0  0  0  0  0
   -0.6967   -2.8175    1.0921 H   0  0  0  1  0  0  0  0  0  0  0  0
   -2.4389   -2.6824    1.1191 H   0  0  0  1  0  0  0  0  0  0  0  0
   -1.4481   -0.6693   -1.8182 H   0  0  0  1  0  0  0  0  0  0  0  0
   -0.3838   -0.8175   -0.4400 H   0  0  0  1  0  0  0  0  0  0  0  0
   -2.8417    1.8726    0.1766 H   0  0  0  1  0  0  0  0  0  0  0  0
   -2.8171    1.2615   -1.4600 H   0  0  0  1  0  0  0  0  0  0  0  0
   -1.3162    1.5813   -0.6238 H   0  0  0  1  0  0  0  0  0  0  0  0
   -2.5502    0.3964    2.0378 H   0  0  0  1  0  0  0  0  0  0  0  0
   -0.8891    0.2565    1.5146 H   0  0  0  1  0  0  0  0  0  0  0  0
   -1.8375   -1.1820    1.8067 H   0  0  0  1  0  0  0  0  0  0  0  0
   -3.6695   -1.7918    0.1007 H   0  0  0  1  0  0  0  0  0  0  0  0
   -4.0974   -0.5556   -1.0574 H   0  0  0  1  0  0  0  0  0  0  0  0
   -4.3292   -0.2705    0.6511 H   0  0  0  1  0  0  0  0  0  0  0  0
  1  2  1  0  0  0  0
  1  3  2  0  0  0  0
  1  4  1  0  0  0  0
  4  5  1  0  0  0  0
  4 14  1  0  0  0  0
  4 15  1  0  0  0  0
  5  6  1  0  0  0  0
  5  7  1  0  0  0  0
  5 12  1  0  0  0  0
  6 13  1  0  0  0  0
  7 11  1  0  0  0  0
  7 16  1  0  0  0  0
  7 17  1  0  0  0  0
  8 11  1  0  0  0  0
  8 18  1  0  0  0  0
  8 19  1  0  0  0  0
  8 20  1  0  0  0  0
  9 11  1  0  0  0  0
  9 21  1  0  0  0  0
  9 22  1  0  0  0  0
  9 23  1  0  0  0  0
 10 11  1  0  0  0  0
 10 24  1  0  0  0  0
 10 25  1  0  0  0  0
 10 26  1  0  0  0  0
M  END
> <ConfClashScore>
0.000712156 

> <ConfOneFourInteractionScore>
-0.893302 

> <ConfScore>
0.0830556 

> <ConfScorePBest>
0.00644647 

> <ConfTolerance>
0.273587 

$$$$
152.****
  PyMOL2.4          3D                             0

 26 25  0  0  0  0  0  0  0  0999 V2000
    1.8914    0.3508   -2.8696 C   0  0  0  1  0  0  0  0  0  0  0  0
    2.3826   -0.2374   -3.9932 O   0  5  0  1  0  0  0  0  0  0  0  0
    2.1441    1.5118   -2.5930 O   0  0  0  1  0  0  0  0  0  0  0  0
    1.0148   -0.4467   -1.9425 C   0  0  0  1  0  0  0  0  0  0  0  0
   -0.2815    0.1934   -1.4780 C   0  0  0  1  0  0  0  0  0  0  0  0
   -1.0422    0.5734   -2.6074 O   0  0  0  1  0  0  0  0  0  0  0  0
   -1.0141   -0.7590   -0.5596 C   0  0  0  1  0  0  0  0  0  0  0  0
   -2.5389    1.2281   -0.5720 C   0  0  0  1  0  0  0  0  0  0  0  0
   -1.9361    0.0306    1.5449 C   0  0  0  1  0  0  0  0  0  0  0  0
   -3.4768   -0.9720   -0.1562 C   0  0  0  1  0  0  0  0  0  0  0  0
   -2.2409   -0.1177    0.0651 N   0  3  0  1  0  0  0  0  0  0  0  0
   -0.0309    1.0669   -0.9131 H   0  0  0  1  0  0  0  0  0  0  0  0
   -0.7679    1.4456   -2.8998 H   0  0  0  1  0  0  0  0  0  0  0  0
    1.5920   -0.6707   -1.0698 H   0  0  0  1  0  0  0  0  0  0  0  0
    0.7605   -1.3561   -2.4457 H   0  0  0  1  0  0  0  0  0  0  0  0
   -0.3496   -1.0656    0.2210 H   0  0  0  1  0  0  0  0  0  0  0  0
   -1.3214   -1.6148   -1.1237 H   0  0  0  1  0  0  0  0  0  0  0  0
   -3.2637    1.7497    0.0176 H   0  0  0  1  0  0  0  0  0  0  0  0
   -2.9237    1.0779   -1.5590 H   0  0  0  1  0  0  0  0  0  0  0  0
   -1.6393    1.8052   -0.6233 H   0  0  0  1  0  0  0  0  0  0  0  0
   -1.7808   -0.9363    1.9762 H   0  0  0  1  0  0  0  0  0  0  0  0
   -2.7593    0.5101    2.0321 H   0  0  0  1  0  0  0  0  0  0  0  0
   -1.0534    0.6224    1.6695 H   0  0  0  1  0  0  0  0  0  0  0  0
   -3.6484   -1.0868   -1.2061 H   0  0  0  1  0  0  0  0  0  0  0  0
   -4.3236   -0.4970    0.2935 H   0  0  0  1  0  0  0  0  0  0  0  0
   -3.3292   -1.9341    0.2881 H   0  0  0  1  0  0  0  0  0  0  0  0
  1  2  1  0  0  0  0
  1  3  2  0  0  0  0
  1  4  1  0  0  0  0
  4  5  1  0  0  0  0
  4 14  1  0  0  0  0
  4 15  1  0  0  0  0
  5  6  1  0  0  0  0
  5  7  1  0  0  0  0
  5 12  1  0  0  0  0
  6 13  1  0  0  0  0
  7 11  1  0  0  0  0
  7 16  1  0  0  0  0
  7 17  1  0  0  0  0
  8 11  1  0  0  0  0
  8 18  1  0  0  0  0
  8 19  1  0  0  0  0
  8 20  1  0  0  0  0
  9 11  1  0  0  0  0
  9 21  1  0  0  0  0
  9 22  1  0  0  0  0
  9 23  1  0  0  0  0
 10 11  1  0  0  0  0
 10 24  1  0  0  0  0
 10 25  1  0  0  0  0
 10 26  1  0  0  0  0
M  END
> <ConfClashScore>
0 

> <ConfOneFourInteractionScore>
-0.925451 

> <ConfScore>
0.0865528 

> <ConfScorePBest>
0.00634346 

> <ConfTolerance>
0.926124 

$$$$
152.****
  PyMOL2.4          3D                             0

 26 25  0  0  0  0  0  0  0  0999 V2000
    1.9156    1.3676    1.0799 C   0  0  0  1  0  0  0  0  0  0  0  0
    2.7617    0.8654    2.0188 O   0  5  0  1  0  0  0  0  0  0  0  0
    2.2126    2.2738    0.3190 O   0  0  0  1  0  0  0  0  0  0  0  0
    0.5830    0.6695    1.1014 C   0  0  0  1  0  0  0  0  0  0  0  0
    0.3140   -0.3711    0.0183 C   0  0  0  1  0  0  0  0  0  0  0  0
    1.3856   -1.3184    0.0438 O   0  0  0  1  0  0  0  0  0  0  0  0
   -1.0233   -1.0856    0.1374 C   0  0  0  1  0  0  0  0  0  0  0  0
   -2.0701    1.0443   -0.6632 C   0  0  0  1  0  0  0  0  0  0  0  0
   -2.3994    0.1969    1.6716 C   0  0  0  1  0  0  0  0  0  0  0  0
   -3.4808   -0.9014   -0.3054 C   0  0  0  1  0  0  0  0  0  0  0  0
   -2.2424   -0.1872    0.2096 N   0  3  0  1  0  0  0  0  0  0  0  0
    0.3263    0.1353   -0.9242 H   0  0  0  1  0  0  0  0  0  0  0  0
    1.7242   -1.4433   -0.8458 H   0  0  0  1  0  0  0  0  0  0  0  0
   -0.1737    1.4214    1.0179 H   0  0  0  1  0  0  0  0  0  0  0  0
    0.4946    0.1772    2.0473 H   0  0  0  1  0  0  0  0  0  0  0  0
   -1.0001   -1.6809    1.0262 H   0  0  0  1  0  0  0  0  0  0  0  0
   -1.1335   -1.7218   -0.7158 H   0  0  0  1  0  0  0  0  0  0  0  0
   -1.9869    0.7471   -1.6877 H   0  0  0  1  0  0  0  0  0  0  0  0
   -1.1837    1.5672   -0.3707 H   0  0  0  1  0  0  0  0  0  0  0  0
   -2.9184    1.6858   -0.5459 H   0  0  0  1  0  0  0  0  0  0  0  0
   -3.2226    0.8723    1.7771 H   0  0  0  1  0  0  0  0  0  0  0  0
   -1.5033    0.6710    2.0137 H   0  0  0  1  0  0  0  0  0  0  0  0
   -2.5829   -0.6822    2.2534 H   0  0  0  1  0  0  0  0  0  0  0  0
   -4.3071   -0.2218   -0.3148 H   0  0  0  1  0  0  0  0  0  0  0  0
   -3.7070   -1.7287    0.3344 H   0  0  0  1  0  0  0  0  0  0  0  0
   -3.3002   -1.2568   -1.2984 H   0  0  0  1  0  0  0  0  0  0  0  0
  1  2  1  0  0  0  0
  1  3  2  0  0  0  0
  1  4  1  0  0  0  0
  4  5  1  0  0  0  0
  4 14  1  0  0  0  0
  4 15  1  0  0  0  0
  5  6  1  0  0  0  0
  5  7  1  0  0  0  0
  5 12  1  0  0  0  0
  6 13  1  0  0  0  0
  7 11  1  0  0  0  0
  7 16  1  0  0  0  0
  7 17  1  0  0  0  0
  8 11  1  0  0  0  0
  8 18  1  0  0  0  0
  8 19  1  0  0  0  0
  8 20  1  0  0  0  0
  9 11  1  0  0  0  0
  9 21  1  0  0  0  0
  9 22  1  0  0  0  0
  9 23  1  0  0  0  0
 10 11  1  0  0  0  0
 10 24  1  0  0  0  0
 10 25  1  0  0  0  0
 10 26  1  0  0  0  0
M  END
> <ConfClashScore>
0 

> <ConfOneFourInteractionScore>
-0.933951 

> <ConfScore>
0.0891348 

> <ConfScorePBest>
0.00624046 

> <ConfTolerance>
0.588238 

$$$$
152.****
  PyMOL2.4          3D                             0

 26 25  0  0  0  0  0  0  0  0999 V2000
    0.9281   -2.2983   -1.5111 C   0  0  0  1  0  0  0  0  0  0  0  0
    1.5690   -3.4314   -1.1177 O   0  5  0  1  0  0  0  0  0  0  0  0
    0.0589   -2.2767   -2.3669 O   0  0  0  1  0  0  0  0  0  0  0  0
    1.4253   -1.0872   -0.7614 C   0  0  0  1  0  0  0  0  0  0  0  0
    0.2682   -0.1682   -0.3921 C   0  0  0  1  0  0  0  0  0  0  0  0
    0.3157    1.0241   -1.1682 O   0  0  0  1  0  0  0  0  0  0  0  0
   -1.0666   -0.8648   -0.5350 C   0  0  0  1  0  0  0  0  0  0  0  0
   -2.3825    1.2536   -0.5019 C   0  0  0  1  0  0  0  0  0  0  0  0
   -2.0856    0.0232    1.5673 C   0  0  0  1  0  0  0  0  0  0  0  0
   -3.4747   -0.9734   -0.2526 C   0  0  0  1  0  0  0  0  0  0  0  0
   -2.2528   -0.1390    0.0689 N   0  3  0  1  0  0  0  0  0  0  0  0
    0.3836    0.0912    0.6396 H   0  0  0  1  0  0  0  0  0  0  0  0
    1.0417    0.9704   -1.7940 H   0  0  0  1  0  0  0  0  0  0  0  0
    2.1156   -0.5514   -1.3788 H   0  0  0  1  0  0  0  0  0  0  0  0
    1.9190   -1.4063    0.1326 H   0  0  0  1  0  0  0  0  0  0  0  0
   -0.9906   -1.8215   -0.0619 H   0  0  0  1  0  0  0  0  0  0  0  0
   -1.2586   -0.9969   -1.5793 H   0  0  0  1  0  0  0  0  0  0  0  0
   -1.4928    1.8098   -0.2921 H   0  0  0  1  0  0  0  0  0  0  0  0
   -3.2228    1.7443   -0.0570 H   0  0  0  1  0  0  0  0  0  0  0  0
   -2.5236    1.1931   -1.5608 H   0  0  0  1  0  0  0  0  0  0  0  0
   -1.2301    0.6339    1.7671 H   0  0  0  1  0  0  0  0  0  0  0  0
   -1.9502   -0.9382    2.0169 H   0  0  0  1  0  0  0  0  0  0  0  0
   -2.9587    0.4884    1.9750 H   0  0  0  1  0  0  0  0  0  0  0  0
   -3.3401   -1.4540   -1.1991 H   0  0  0  1  0  0  0  0  0  0  0  0
   -4.3372   -0.3415   -0.2932 H   0  0  0  1  0  0  0  0  0  0  0  0
   -3.6102   -1.7144    0.5073 H   0  0  0  1  0  0  0  0  0  0  0  0
  1  2  1  0  0  0  0
  1  3  2  0  0  0  0
  1  4  1  0  0  0  0
  4  5  1  0  0  0  0
  4 14  1  0  0  0  0
  4 15  1  0  0  0  0
  5  6  1  0  0  0  0
  5  7  1  0  0  0  0
  5 12  1  0  0  0  0
  6 13  1  0  0  0  0
  7 11  1  0  0  0  0
  7 16  1  0  0  0  0
  7 17  1  0  0  0  0
  8 11  1  0  0  0  0
  8 18  1  0  0  0  0
  8 19  1  0  0  0  0
  8 20  1  0  0  0  0
  9 11  1  0  0  0  0
  9 21  1  0  0  0  0
  9 22  1  0  0  0  0
  9 23  1  0  0  0  0
 10 11  1  0  0  0  0
 10 24  1  0  0  0  0
 10 25  1  0  0  0  0
 10 26  1  0  0  0  0
M  END
> <ConfClashScore>
5.98732e-05 

> <ConfOneFourInteractionScore>
-0.949556 

> <ConfScore>
0.126828 

> <ConfScorePBest>
0.00613746 

> <ConfTolerance>
0.64863 

$$$$
152.****
  PyMOL2.4          3D                             0

 26 25  0  0  0  0  0  0  0  0999 V2000
    1.9463    1.0972    0.5017 C   0  0  0  1  0  0  0  0  0  0  0  0
    1.8291    1.1511    1.8556 O   0  5  0  1  0  0  0  0  0  0  0  0
    3.0103    1.1883   -0.0881 O   0  0  0  1  0  0  0  0  0  0  0  0
    0.6097    0.9128   -0.1658 C   0  0  0  1  0  0  0  0  0  0  0  0
    0.2252   -0.5509   -0.3371 C   0  0  0  1  0  0  0  0  0  0  0  0
    0.3149   -1.2625    0.8961 O   0  0  0  1  0  0  0  0  0  0  0  0
   -1.1869   -0.7367   -0.8458 C   0  0  0  1  0  0  0  0  0  0  0  0
   -2.4597    1.3047   -0.5065 C   0  0  0  1  0  0  0  0  0  0  0  0
   -1.8934   -0.1193    1.4735 C   0  0  0  1  0  0  0  0  0  0  0  0
   -3.5705   -0.9025   -0.1037 C   0  0  0  1  0  0  0  0  0  0  0  0
   -2.2771   -0.1140    0.0041 N   0  3  0  1  0  0  0  0  0  0  0  0
    0.8956   -0.9884   -1.0472 H   0  0  0  1  0  0  0  0  0  0  0  0
    0.6755   -0.6857    1.5734 H   0  0  0  1  0  0  0  0  0  0  0  0
    0.6455    1.3709   -1.1321 H   0  0  0  1  0  0  0  0  0  0  0  0
   -0.1378    1.3938    0.4300 H   0  0  0  1  0  0  0  0  0  0  0  0
   -1.3785   -1.7875   -0.9084 H   0  0  0  1  0  0  0  0  0  0  0  0
   -1.2442   -0.3044   -1.8229 H   0  0  0  1  0  0  0  0  0  0  0  0
   -3.1776    1.8137    0.1022 H   0  0  0  1  0  0  0  0  0  0  0  0
   -2.8058    1.2774   -1.5186 H   0  0  0  1  0  0  0  0  0  0  0  0
   -1.5243    1.8224   -0.4627 H   0  0  0  1  0  0  0  0  0  0  0  0
   -0.9224    0.3146    1.5906 H   0  0  0  1  0  0  0  0  0  0  0  0
   -1.8798   -1.1264    1.8346 H   0  0  0  1  0  0  0  0  0  0  0  0
   -2.6078    0.4503    2.0304 H   0  0  0  1  0  0  0  0  0  0  0  0
   -3.4392   -1.8666    0.3416 H   0  0  0  1  0  0  0  0  0  0  0  0
   -3.8321   -1.0188   -1.1347 H   0  0  0  1  0  0  0  0  0  0  0  0
   -4.3514   -0.3779    0.4060 H   0  0  0  1  0  0  0  0  0  0  0  0
  1  2  1  0  0  0  0
  1  3  2  0  0  0  0
  1  4  1  0  0  0  0
  4  5  1  0  0  0  0
  4 14  1  0  0  0  0
  4 15  1  0  0  0  0
  5  6  1  0  0  0  0
  5  7  1  0  0  0  0
  5 12  1  0  0  0  0
  6 13  1  0  0  0  0
  7 11  1  0  0  0  0
  7 16  1  0  0  0  0
  7 17  1  0  0  0  0
  8 11  1  0  0  0  0
  8 18  1  0  0  0  0
  8 19  1  0  0  0  0
  8 20  1  0  0  0  0
  9 11  1  0  0  0  0
  9 21  1  0  0  0  0
  9 22  1  0  0  0  0
  9 23  1  0  0  0  0
 10 11  1  0  0  0  0
 10 24  1  0  0  0  0
 10 25  1  0  0  0  0
 10 26  1  0  0  0  0
M  END
> <ConfClashScore>
0.000659648 

> <ConfOneFourInteractionScore>
-0.960255 

> <ConfScore>
0.130451 

> <ConfScorePBest>
0.00603446 

> <ConfTolerance>
0.367565 

$$$$
152.****
  PyMOL2.4          3D                             0

 26 25  0  0  0  0  0  0  0  0999 V2000
    1.3238   -2.4114   -0.6028 C   0  0  0  1  0  0  0  0  0  0  0  0
    2.2627   -3.1079   -1.2978 O   0  5  0  1  0  0  0  0  0  0  0  0
    0.3557   -2.9070   -0.0501 O   0  0  0  1  0  0  0  0  0  0  0  0
    1.5138   -0.9202   -0.5230 C   0  0  0  1  0  0  0  0  0  0  0  0
    0.3138   -0.1971    0.0744 C   0  0  0  1  0  0  0  0  0  0  0  0
    0.4893    1.2229   -0.0217 O   0  0  0  1  0  0  0  0  0  0  0  0
   -0.9790   -0.5277   -0.6374 C   0  0  0  1  0  0  0  0  0  0  0  0
   -2.6009    1.3007   -0.4433 C   0  0  0  1  0  0  0  0  0  0  0  0
   -2.0007   -0.0316    1.5315 C   0  0  0  1  0  0  0  0  0  0  0  0
   -3.3537   -1.0209   -0.2599 C   0  0  0  1  0  0  0  0  0  0  0  0
   -2.2336   -0.0695    0.0487 N   0  3  0  1  0  0  0  0  0  0  0  0
    0.2219   -0.4813    1.1019 H   0  0  0  1  0  0  0  0  0  0  0  0
   -0.2605    1.6665    0.3813 H   0  0  0  1  0  0  0  0  0  0  0  0
    1.6805   -0.5448   -1.5110 H   0  0  0  1  0  0  0  0  0  0  0  0
    2.3706   -0.7181    0.0852 H   0  0  0  1  0  0  0  0  0  0  0  0
   -1.0325   -1.5909   -0.7454 H   0  0  0  1  0  0  0  0  0  0  0  0
   -0.9478   -0.0716   -1.6049 H   0  0  0  1  0  0  0  0  0  0  0  0
   -1.8477    2.0005   -0.1468 H   0  0  0  1  0  0  0  0  0  0  0  0
   -3.5415    1.5900   -0.0230 H   0  0  0  1  0  0  0  0  0  0  0  0
   -2.6754    1.2881   -1.5106 H   0  0  0  1  0  0  0  0  0  0  0  0
   -1.6438   -0.9848    1.8615 H   0  0  0  1  0  0  0  0  0  0  0  0
   -2.9189    0.1975    2.0308 H   0  0  0  1  0  0  0  0  0  0  0  0
   -1.2734    0.7195    1.7590 H   0  0  0  1  0  0  0  0  0  0  0  0
   -2.9771   -1.8421   -0.8332 H   0  0  0  1  0  0  0  0  0  0  0  0
   -4.1095   -0.5118   -0.8205 H   0  0  0  1  0  0  0  0  0  0  0  0
   -3.7726   -1.3868    0.6542 H   0  0  0  1  0  0  0  0  0  0  0  0
  1  2  1  0  0  0  0
  1  3  2  0  0  0  0
  1  4  1  0  0  0  0
  4  5  1  0  0  0  0
  4 14  1  0  0  0  0
  4 15  1  0  0  0  0
  5  6  1  0  0  0  0
  5  7  1  0  0  0  0
  5 12  1  0  0  0  0
  6 13  1  0  0  0  0
  7 11  1  0  0  0  0
  7 16  1  0  0  0  0
  7 17  1  0  0  0  0
  8 11  1  0  0  0  0
  8 18  1  0  0  0  0
  8 19  1  0  0  0  0
  8 20  1  0  0  0  0
  9 11  1  0  0  0  0
  9 21  1  0  0  0  0
  9 22  1  0  0  0  0
  9 23  1  0  0  0  0
 10 11  1  0  0  0  0
 10 24  1  0  0  0  0
 10 25  1  0  0  0  0
 10 26  1  0  0  0  0
M  END
> <ConfClashScore>
0 

> <ConfOneFourInteractionScore>
-0.925451 

> <ConfScore>
0.136851 

> <ConfScorePBest>
0.00593146 

> <ConfTolerance>
0.841655 

$$$$
152.****
  PyMOL2.4          3D                             0

 26 25  0  0  0  0  0  0  0  0999 V2000
    1.4011   -0.5638    1.0125 C   0  0  0  1  0  0  0  0  0  0  0  0
    0.4979   -0.9924    1.9345 O   0  5  0  1  0  0  0  0  0  0  0  0
    2.5511   -0.9671    0.9556 O   0  0  0  1  0  0  0  0  0  0  0  0
    0.8057    0.4587    0.0842 C   0  0  0  1  0  0  0  0  0  0  0  0
    0.0280   -0.1052   -1.0938 C   0  0  0  1  0  0  0  0  0  0  0  0
    0.9027   -0.9418   -1.8564 O   0  0  0  1  0  0  0  0  0  0  0  0
   -1.1613   -0.9325   -0.6339 C   0  0  0  1  0  0  0  0  0  0  0  0
   -2.3510    1.2211   -0.5700 C   0  0  0  1  0  0  0  0  0  0  0  0
   -1.9994   -0.0010    1.5349 C   0  0  0  1  0  0  0  0  0  0  0  0
   -3.5769   -0.9066   -0.1356 C   0  0  0  1  0  0  0  0  0  0  0  0
   -2.2723   -0.1598    0.0497 N   0  3  0  1  0  0  0  0  0  0  0  0
   -0.3252    0.7053   -1.6964 H   0  0  0  1  0  0  0  0  0  0  0  0
    1.7036   -1.1101   -1.3544 H   0  0  0  1  0  0  0  0  0  0  0  0
    1.6036    1.0572   -0.3032 H   0  0  0  1  0  0  0  0  0  0  0  0
    0.1414    1.0745    0.6538 H   0  0  0  1  0  0  0  0  0  0  0  0
   -0.8029   -1.6704    0.0530 H   0  0  0  1  0  0  0  0  0  0  0  0
   -1.5774   -1.4163   -1.4929 H   0  0  0  1  0  0  0  0  0  0  0  0
   -3.2287    1.7213   -0.2173 H   0  0  0  1  0  0  0  0  0  0  0  0
   -2.3956    1.1317   -1.6353 H   0  0  0  1  0  0  0  0  0  0  0  0
   -1.4844    1.7852   -0.2948 H   0  0  0  1  0  0  0  0  0  0  0  0
   -1.1503    0.6347    1.6760 H   0  0  0  1  0  0  0  0  0  0  0  0
   -1.8019   -0.9603    1.9656 H   0  0  0  1  0  0  0  0  0  0  0  0
   -2.8536    0.4347    2.0096 H   0  0  0  1  0  0  0  0  0  0  0  0
   -3.7094   -1.1426   -1.1708 H   0  0  0  1  0  0  0  0  0  0  0  0
   -4.3887   -0.2940    0.1970 H   0  0  0  1  0  0  0  0  0  0  0  0
   -3.5544   -1.8109    0.4360 H   0  0  0  1  0  0  0  0  0  0  0  0
  1  2  1  0  0  0  0
  1  3  2  0  0  0  0
  1  4  1  0  0  0  0
  4  5  1  0  0  0  0
  4 14  1  0  0  0  0
  4 15  1  0  0  0  0
  5  6  1  0  0  0  0
  5  7  1  0  0  0  0
  5 12  1  0  0  0  0
  6 13  1  0  0  0  0
  7 11  1  0  0  0  0
  7 16  1  0  0  0  0
  7 17  1  0  0  0  0
  8 11  1  0  0  0  0
  8 18  1  0  0  0  0
  8 19  1  0  0  0  0
  8 20  1  0  0  0  0
  9 11  1  0  0  0  0
  9 21  1  0  0  0  0
  9 22  1  0  0  0  0
  9 23  1  0  0  0  0
 10 11  1  0  0  0  0
 10 24  1  0  0  0  0
 10 25  1  0  0  0  0
 10 26  1  0  0  0  0
M  END
> <ConfClashScore>
0 

> <ConfOneFourInteractionScore>
-0.932989 

> <ConfScore>
0.144067 

> <ConfScorePBest>
0.00582846 

> <ConfTolerance>
0.485422 

$$$$
152.****
  PyMOL2.4          3D                             0

 26 25  0  0  0  0  0  0  0  0999 V2000
    0.9082    2.6910   -0.9241 C   0  0  0  1  0  0  0  0  0  0  0  0
    1.2760    3.5405    0.0723 O   0  5  0  1  0  0  0  0  0  0  0  0
    0.9799    2.9696   -2.1097 O   0  0  0  1  0  0  0  0  0  0  0  0
    0.4078    1.3794   -0.3809 C   0  0  0  1  0  0  0  0  0  0  0  0
   -0.2169    0.4933   -1.4462 C   0  0  0  1  0  0  0  0  0  0  0  0
    0.8495   -0.0831   -2.2059 O   0  0  0  1  0  0  0  0  0  0  0  0
   -1.0696   -0.5826   -0.7894 C   0  0  0  1  0  0  0  0  0  0  0  0
   -2.6676    1.3098   -0.4299 C   0  0  0  1  0  0  0  0  0  0  0  0
   -1.8078   -0.0825    1.4698 C   0  0  0  1  0  0  0  0  0  0  0  0
   -3.4671   -0.9694   -0.1855 C   0  0  0  1  0  0  0  0  0  0  0  0
   -2.2520   -0.0811    0.0162 N   0  3  0  1  0  0  0  0  0  0  0  0
   -0.8388    1.0930   -2.0773 H   0  0  0  1  0  0  0  0  0  0  0  0
    1.0674   -0.9469   -1.8483 H   0  0  0  1  0  0  0  0  0  0  0  0
   -0.3281    1.5800    0.3696 H   0  0  0  1  0  0  0  0  0  0  0  0
    1.2315    0.8558    0.0576 H   0  0  0  1  0  0  0  0  0  0  0  0
   -0.4400   -1.1466   -0.1334 H   0  0  0  1  0  0  0  0  0  0  0  0
   -1.4448   -1.2217   -1.5613 H   0  0  0  1  0  0  0  0  0  0  0  0
   -3.4539    1.6674    0.2015 H   0  0  0  1  0  0  0  0  0  0  0  0
   -3.0128    1.2712   -1.4420 H   0  0  0  1  0  0  0  0  0  0  0  0
   -1.8288    1.9708   -0.3637 H   0  0  0  1  0  0  0  0  0  0  0  0
   -1.5573   -1.0798    1.7658 H   0  0  0  1  0  0  0  0  0  0  0  0
   -2.6028    0.2830    2.0858 H   0  0  0  1  0  0  0  0  0  0  0  0
   -0.9507    0.5483    1.5812 H   0  0  0  1  0  0  0  0  0  0  0  0
   -3.2447   -1.9605    0.1507 H   0  0  0  1  0  0  0  0  0  0  0  0
   -3.7219   -0.9943   -1.2245 H   0  0  0  1  0  0  0  0  0  0  0  0
   -4.2908   -0.5793    0.3750 H   0  0  0  1  0  0  0  0  0  0  0  0
  1  2  1  0  0  0  0
  1  3  2  0  0  0  0
  1  4  1  0  0  0  0
  4  5  1  0  0  0  0
  4 14  1  0  0  0  0
  4 15  1  0  0  0  0
  5  6  1  0  0  0  0
  5  7  1  0  0  0  0
  5 12  1  0  0  0  0
  6 13  1  0  0  0  0
  7 11  1  0  0  0  0
  7 16  1  0  0  0  0
  7 17  1  0  0  0  0
  8 11  1  0  0  0  0
  8 18  1  0  0  0  0
  8 19  1  0  0  0  0
  8 20  1  0  0  0  0
  9 11  1  0  0  0  0
  9 21  1  0  0  0  0
  9 22  1  0  0  0  0
  9 23  1  0  0  0  0
 10 11  1  0  0  0  0
 10 24  1  0  0  0  0
 10 25  1  0  0  0  0
 10 26  1  0  0  0  0
M  END
> <ConfClashScore>
0 

> <ConfOneFourInteractionScore>
-0.933951 

> <ConfScore>
0.162919 

> <ConfScorePBest>
0.00572546 

> <ConfTolerance>
0.853847 

$$$$
152.****
  PyMOL2.4          3D                             0

 26 25  0  0  0  0  0  0  0  0999 V2000
   -0.1027   -3.7536    1.9981 C   0  0  0  1  0  0  0  0  0  0  0  0
   -0.4864   -3.9728    3.2842 O   0  5  0  1  0  0  0  0  0  0  0  0
    0.5094   -4.5687    1.3277 O   0  0  0  1  0  0  0  0  0  0  0  0
   -0.5254   -2.3932    1.5157 C   0  0  0  1  0  0  0  0  0  0  0  0
   -0.8445   -2.2979    0.0327 C   0  0  0  1  0  0  0  0  0  0  0  0
   -2.0488   -2.9920   -0.2883 O   0  0  0  1  0  0  0  0  0  0  0  0
   -1.0229   -0.8645   -0.4478 C   0  0  0  1  0  0  0  0  0  0  0  0
   -2.2198    1.2480   -0.5264 C   0  0  0  1  0  0  0  0  0  0  0  0
   -2.2115   -0.0668    1.6039 C   0  0  0  1  0  0  0  0  0  0  0  0
   -3.5191   -0.8775   -0.2792 C   0  0  0  1  0  0  0  0  0  0  0  0
   -2.2428   -0.1407    0.0876 N   0  3  0  1  0  0  0  0  0  0  0  0
   -0.0308   -2.7310   -0.5107 H   0  0  0  1  0  0  0  0  0  0  0  0
   -2.2420   -2.8835   -1.2224 H   0  0  0  1  0  0  0  0  0  0  0  0
    0.2676   -1.7068    1.7274 H   0  0  0  1  0  0  0  0  0  0  0  0
   -1.4006   -2.1070    2.0606 H   0  0  0  1  0  0  0  0  0  0  0  0
   -1.0927   -0.8817   -1.5154 H   0  0  0  1  0  0  0  0  0  0  0  0
   -0.1562   -0.3093   -0.1554 H   0  0  0  1  0  0  0  0  0  0  0  0
   -2.4408    1.1803   -1.5711 H   0  0  0  1  0  0  0  0  0  0  0  0
   -1.2498    1.6799   -0.3945 H   0  0  0  1  0  0  0  0  0  0  0  0
   -2.9526    1.8622   -0.0461 H   0  0  0  1  0  0  0  0  0  0  0  0
   -2.7499    0.7983    1.9306 H   0  0  0  1  0  0  0  0  0  0  0  0
   -1.1966   -0.0017    1.9367 H   0  0  0  1  0  0  0  0  0  0  0  0
   -2.6659   -0.9449    2.0130 H   0  0  0  1  0  0  0  0  0  0  0  0
   -3.6636   -1.6977    0.3926 H   0  0  0  1  0  0  0  0  0  0  0  0
   -3.4425   -1.2462   -1.2807 H   0  0  0  1  0  0  0  0  0  0  0  0
   -4.3504   -0.2076   -0.2077 H   0  0  0  1  0  0  0  0  0  0  0  0
  1  2  1  0  0  0  0
  1  3  2  0  0  0  0
  1  4  1  0  0  0  0
  4  5  1  0  0  0  0
  4 14  1  0  0  0  0
  4 15  1  0  0  0  0
  5  6  1  0  0  0  0
  5  7  1  0  0  0  0
  5 12  1  0  0  0  0
  6 13  1  0  0  0  0
  7 11  1  0  0  0  0
  7 16  1  0  0  0  0
  7 17  1  0  0  0  0
  8 11  1  0  0  0  0
  8 18  1  0  0  0  0
  8 19  1  0  0  0  0
  8 20  1  0  0  0  0
  9 11  1  0  0  0  0
  9 21  1  0  0  0  0
  9 22  1  0  0  0  0
  9 23  1  0  0  0  0
 10 11  1  0  0  0  0
 10 24  1  0  0  0  0
 10 25  1  0  0  0  0
 10 26  1  0  0  0  0
M  END
> <ConfClashScore>
0.00105918 

> <ConfOneFourInteractionScore>
-0.982731 

> <ConfScore>
0.193948 

> <ConfScorePBest>
0.00562246 

> <ConfTolerance>
0.496227 

$$$$
152.****
  PyMOL2.4          3D                             0

 26 25  0  0  0  0  0  0  0  0999 V2000
    0.0094    1.1289   -2.4498 C   0  0  0  1  0  0  0  0  0  0  0  0
    0.4687    2.3544   -2.8196 O   0  5  0  1  0  0  0  0  0  0  0  0
   -1.0442    0.6558   -2.8430 O   0  0  0  1  0  0  0  0  0  0  0  0
    0.9576    0.4409   -1.5046 C   0  0  0  1  0  0  0  0  0  0  0  0
    0.3244    0.1080   -0.1635 C   0  0  0  1  0  0  0  0  0  0  0  0
    0.0283    1.2898    0.5874 O   0  0  0  1  0  0  0  0  0  0  0  0
   -0.9055   -0.7783   -0.2599 C   0  0  0  1  0  0  0  0  0  0  0  0
   -2.3904    1.2139   -0.5675 C   0  0  0  1  0  0  0  0  0  0  0  0
   -2.1805    0.0467    1.6316 C   0  0  0  1  0  0  0  0  0  0  0  0
   -3.3982   -0.9708   -0.2965 C   0  0  0  1  0  0  0  0  0  0  0  0
   -2.2197   -0.1224    0.1267 N   0  3  0  1  0  0  0  0  0  0  0  0
    1.0552   -0.4473    0.3864 H   0  0  0  1  0  0  0  0  0  0  0  0
    0.2016    2.0644    0.0475 H   0  0  0  1  0  0  0  0  0  0  0  0
    1.7959    1.0840   -1.3351 H   0  0  0  1  0  0  0  0  0  0  0  0
    1.2912   -0.4686   -1.9589 H   0  0  0  1  0  0  0  0  0  0  0  0
   -0.7559   -1.6198    0.3839 H   0  0  0  1  0  0  0  0  0  0  0  0
   -0.9906   -1.1140   -1.2723 H   0  0  0  1  0  0  0  0  0  0  0  0
   -2.9149    1.0731   -1.4894 H   0  0  0  1  0  0  0  0  0  0  0  0
   -1.4283    1.6379   -0.7659 H   0  0  0  1  0  0  0  0  0  0  0  0
   -2.9486    1.8742    0.0629 H   0  0  0  1  0  0  0  0  0  0  0  0
   -1.3009    0.5902    1.9072 H   0  0  0  1  0  0  0  0  0  0  0  0
   -2.1653   -0.9161    2.0982 H   0  0  0  1  0  0  0  0  0  0  0  0
   -3.0475    0.5855    1.9525 H   0  0  0  1  0  0  0  0  0  0  0  0
   -3.3808   -1.1022   -1.3583 H   0  0  0  1  0  0  0  0  0  0  0  0
   -4.3079   -0.4844   -0.0124 H   0  0  0  1  0  0  0  0  0  0  0  0
   -3.3396   -1.9262    0.1818 H   0  0  0  1  0  0  0  0  0  0  0  0
  1  2  1  0  0  0  0
  1  3  2  0  0  0  0
  1  4  1  0  0  0  0
  4  5  1  0  0  0  0
  4 14  1  0  0  0  0
  4 15  1  0  0  0  0
  5  6  1  0  0  0  0
  5  7  1  0  0  0  0
  5 12  1  0  0  0  0
  6 13  1  0  0  0  0
  7 11  1  0  0  0  0
  7 16  1  0  0  0  0
  7 17  1  0  0  0  0
  8 11  1  0  0  0  0
  8 18  1  0  0  0  0
  8 19  1  0  0  0  0
  8 20  1  0  0  0  0
  9 11  1  0  0  0  0
  9 21  1  0  0  0  0
  9 22  1  0  0  0  0
  9 23  1  0  0  0  0
 10 11  1  0  0  0  0
 10 24  1  0  0  0  0
 10 25  1  0  0  0  0
 10 26  1  0  0  0  0
M  END
> <ConfClashScore>
1.92876e-05 

> <ConfOneFourInteractionScore>
-0.981769 

> <ConfScore>
0.202082 

> <ConfScorePBest>
0.00551946 

> <ConfTolerance>
0.420165 

$$$$
152.****
  PyMOL2.4          3D                             0

 26 25  0  0  0  0  0  0  0  0999 V2000
    1.2338   -1.8937    0.9901 C   0  0  0  1  0  0  0  0  0  0  0  0
    0.3352   -1.4213    1.8950 O   0  5  0  1  0  0  0  0  0  0  0  0
    2.4359   -1.7009    1.0683 O   0  0  0  1  0  0  0  0  0  0  0  0
    0.5610   -2.6754   -0.1065 C   0  0  0  1  0  0  0  0  0  0  0  0
   -0.8898   -2.2750   -0.3191 C   0  0  0  1  0  0  0  0  0  0  0  0
   -1.6748   -2.6542    0.8151 O   0  0  0  1  0  0  0  0  0  0  0  0
   -1.0103   -0.7754   -0.5358 C   0  0  0  1  0  0  0  0  0  0  0  0
   -2.4511    1.2734   -0.4934 C   0  0  0  1  0  0  0  0  0  0  0  0
   -2.0035   -0.0779    1.5706 C   0  0  0  1  0  0  0  0  0  0  0  0
   -3.4980   -0.9062   -0.2642 C   0  0  0  1  0  0  0  0  0  0  0  0
   -2.2399   -0.1210    0.0698 N   0  3  0  1  0  0  0  0  0  0  0  0
   -1.2545   -2.7740   -1.1926 H   0  0  0  1  0  0  0  0  0  0  0  0
   -1.0992   -2.7959    1.5702 H   0  0  0  1  0  0  0  0  0  0  0  0
    0.5940   -3.7145    0.1465 H   0  0  0  1  0  0  0  0  0  0  0  0
    1.0964   -2.5126   -1.0185 H   0  0  0  1  0  0  0  0  0  0  0  0
   -1.0278   -0.5957   -1.5905 H   0  0  0  1  0  0  0  0  0  0  0  0
   -0.1463   -0.3108   -0.1086 H   0  0  0  1  0  0  0  0  0  0  0  0
   -1.6058    1.8856   -0.2575 H   0  0  0  1  0  0  0  0  0  0  0  0
   -3.3324    1.7017   -0.0636 H   0  0  0  1  0  0  0  0  0  0  0  0
   -2.5637    1.2154   -1.5559 H   0  0  0  1  0  0  0  0  0  0  0  0
   -1.1844    0.5766    1.7845 H   0  0  0  1  0  0  0  0  0  0  0  0
   -1.7751   -1.0618    1.9239 H   0  0  0  1  0  0  0  0  0  0  0  0
   -2.8843    0.2818    2.0601 H   0  0  0  1  0  0  0  0  0  0  0  0
   -3.3776   -1.9229    0.0469 H   0  0  0  1  0  0  0  0  0  0  0  0
   -3.6682   -0.8743   -1.3200 H   0  0  0  1  0  0  0  0  0  0  0  0
   -4.3336   -0.4741    0.2456 H   0  0  0  1  0  0  0  0  0  0  0  0
  1  2  1  0  0  0  0
  1  3  2  0  0  0  0
  1  4  1  0  0  0  0
  4  5  1  0  0  0  0
  4 14  1  0  0  0  0
  4 15  1  0  0  0  0
  5  6  1  0  0  0  0
  5  7  1  0  0  0  0
  5 12  1  0  0  0  0
  6 13  1  0  0  0  0
  7 11  1  0  0  0  0
  7 16  1  0  0  0  0
  7 17  1  0  0  0  0
  8 11  1  0  0  0  0
  8 18  1  0  0  0  0
  8 19  1  0  0  0  0
  8 20  1  0  0  0  0
  9 11  1  0  0  0  0
  9 21  1  0  0  0  0
  9 22  1  0  0  0  0
  9 23  1  0  0  0  0
 10 11  1  0  0  0  0
 10 24  1  0  0  0  0
 10 25  1  0  0  0  0
 10 26  1  0  0  0  0
M  END
> <ConfClashScore>
0.00219335 

> <ConfOneFourInteractionScore>
-0.978527 

> <ConfScore>
0.248235 

> <ConfScorePBest>
0.00541646 

> <ConfTolerance>
0.606657 

$$$$
152.****
  PyMOL2.4          3D                             0

 26 25  0  0  0  0  0  0  0  0999 V2000
   -1.7833   -2.0016   -3.0052 C   0  0  0  1  0  0  0  0  0  0  0  0
   -2.6886   -2.3822   -3.9459 O   0  5  0  1  0  0  0  0  0  0  0  0
   -1.1401   -2.7420   -2.2795 O   0  0  0  1  0  0  0  0  0  0  0  0
   -1.5563   -0.5219   -2.8480 C   0  0  0  1  0  0  0  0  0  0  0  0
   -0.4948   -0.1875   -1.8042 C   0  0  0  1  0  0  0  0  0  0  0  0
   -0.2472    1.2212   -1.8311 O   0  0  0  1  0  0  0  0  0  0  0  0
   -0.8548   -0.5638   -0.3842 C   0  0  0  1  0  0  0  0  0  0  0  0
   -2.5304    1.2965   -0.4601 C   0  0  0  1  0  0  0  0  0  0  0  0
   -2.1267   -0.0436    1.6165 C   0  0  0  1  0  0  0  0  0  0  0  0
   -3.3206   -0.9982   -0.3684 C   0  0  0  1  0  0  0  0  0  0  0  0
   -2.2075   -0.0776    0.1004 N   0  3  0  1  0  0  0  0  0  0  0  0
    0.4023   -0.7081   -2.0668 H   0  0  0  1  0  0  0  0  0  0  0  0
    0.2797    1.4392   -2.6034 H   0  0  0  1  0  0  0  0  0  0  0  0
   -2.4783   -0.0652   -2.5544 H   0  0  0  1  0  0  0  0  0  0  0  0
   -1.2444   -0.1231   -3.7907 H   0  0  0  1  0  0  0  0  0  0  0  0
   -0.1072   -0.1561    0.2637 H   0  0  0  1  0  0  0  0  0  0  0  0
   -0.8445   -1.6314   -0.3141 H   0  0  0  1  0  0  0  0  0  0  0  0
   -2.7048    1.2209   -1.5131 H   0  0  0  1  0  0  0  0  0  0  0  0
   -1.7074    1.9566   -0.2817 H   0  0  0  1  0  0  0  0  0  0  0  0
   -3.4065    1.6803    0.0196 H   0  0  0  1  0  0  0  0  0  0  0  0
   -1.1546    0.2890    1.9150 H   0  0  0  1  0  0  0  0  0  0  0  0
   -2.3024   -1.0251    2.0048 H   0  0  0  1  0  0  0  0  0  0  0  0
   -2.8663    0.6290    1.9978 H   0  0  0  1  0  0  0  0  0  0  0  0
   -3.1604   -1.9807    0.0239 H   0  0  0  1  0  0  0  0  0  0  0  0
   -3.3240   -1.0375   -1.4377 H   0  0  0  1  0  0  0  0  0  0  0  0
   -4.2615   -0.6250   -0.0217 H   0  0  0  1  0  0  0  0  0  0  0  0
  1  2  1  0  0  0  0
  1  3  2  0  0  0  0
  1  4  1  0  0  0  0
  4  5  1  0  0  0  0
  4 14  1  0  0  0  0
  4 15  1  0  0  0  0
  5  6  1  0  0  0  0
  5  7  1  0  0  0  0
  5 12  1  0  0  0  0
  6 13  1  0  0  0  0
  7 11  1  0  0  0  0
  7 16  1  0  0  0  0
  7 17  1  0  0  0  0
  8 11  1  0  0  0  0
  8 18  1  0  0  0  0
  8 19  1  0  0  0  0
  8 20  1  0  0  0  0
  9 11  1  0  0  0  0
  9 21  1  0  0  0  0
  9 22  1  0  0  0  0
  9 23  1  0  0  0  0
 10 11  1  0  0  0  0
 10 24  1  0  0  0  0
 10 25  1  0  0  0  0
 10 26  1  0  0  0  0
M  END
> <ConfClashScore>
0.00114593 

> <ConfOneFourInteractionScore>
-0.948519 

> <ConfScore>
0.281227 

> <ConfScorePBest>
0.00531345 

> <ConfTolerance>
0.521611 

$$$$
152.****
  PyMOL2.4          3D                             0

 26 25  0  0  0  0  0  0  0  0999 V2000
   -2.0669   -2.8208   -3.0379 C   0  0  0  1  0  0  0  0  0  0  0  0
   -3.3471   -3.1964   -2.7739 O   0  5  0  1  0  0  0  0  0  0  0  0
   -1.6389   -2.6258   -4.1636 O   0  0  0  1  0  0  0  0  0  0  0  0
   -1.2554   -2.6786   -1.7741 C   0  0  0  1  0  0  0  0  0  0  0  0
   -0.7727   -1.2192   -1.5931 C   0  0  0  1  0  0  0  0  0  0  0  0
   -1.4934   -0.4233   -2.5385 O   0  0  0  1  0  0  0  0  0  0  0  0
   -0.8506   -0.7039   -0.1752 C   0  0  0  1  0  0  0  0  0  0  0  0
   -2.4203    1.1820   -0.6340 C   0  0  0  1  0  0  0  0  0  0  0  0
   -2.2381    0.1632    1.6337 C   0  0  0  1  0  0  0  0  0  0  0  0
   -3.3207   -1.0678   -0.2469 C   0  0  0  1  0  0  0  0  0  0  0  0
   -2.2094   -0.1077    0.1397 N   0  3  0  1  0  0  0  0  0  0  0  0
    0.2611   -1.2034   -1.8686 H   0  0  0  1  0  0  0  0  0  0  0  0
   -1.2903   -0.7205   -3.4285 H   0  0  0  1  0  0  0  0  0  0  0  0
   -0.4046   -3.3253   -1.8289 H   0  0  0  1  0  0  0  0  0  0  0  0
   -1.8604   -2.9545   -0.9358 H   0  0  0  1  0  0  0  0  0  0  0  0
   -0.1033    0.0498   -0.0402 H   0  0  0  1  0  0  0  0  0  0  0  0
   -0.6653   -1.5151    0.4975 H   0  0  0  1  0  0  0  0  0  0  0  0
   -1.5281    1.7715   -0.5957 H   0  0  0  1  0  0  0  0  0  0  0  0
   -3.2290    1.7308   -0.1984 H   0  0  0  1  0  0  0  0  0  0  0  0
   -2.6524    0.9525   -1.6530 H   0  0  0  1  0  0  0  0  0  0  0  0
   -2.0553   -0.7472    2.1654 H   0  0  0  1  0  0  0  0  0  0  0  0
   -3.1976    0.5494    1.9076 H   0  0  0  1  0  0  0  0  0  0  0  0
   -1.4814    0.8783    1.8808 H   0  0  0  1  0  0  0  0  0  0  0  0
   -4.2547   -0.7016    0.1251 H   0  0  0  1  0  0  0  0  0  0  0  0
   -3.1222   -2.0311    0.1747 H   0  0  0  1  0  0  0  0  0  0  0  0
   -3.3682   -1.1474   -1.3128 H   0  0  0  1  0  0  0  0  0  0  0  0
  1  2  1  0  0  0  0
  1  3  2  0  0  0  0
  1  4  1  0  0  0  0
  4  5  1  0  0  0  0
  4 14  1  0  0  0  0
  4 15  1  0  0  0  0
  5  6  1  0  0  0  0
  5  7  1  0  0  0  0
  5 12  1  0  0  0  0
  6 13  1  0  0  0  0
  7 11  1  0  0  0  0
  7 16  1  0  0  0  0
  7 17  1  0  0  0  0
  8 11  1  0  0  0  0
  8 18  1  0  0  0  0
  8 19  1  0  0  0  0
  8 20  1  0  0  0  0
  9 11  1  0  0  0  0
  9 21  1  0  0  0  0
  9 22  1  0  0  0  0
  9 23  1  0  0  0  0
 10 11  1  0  0  0  0
 10 24  1  0  0  0  0
 10 25  1  0  0  0  0
 10 26  1  0  0  0  0
M  END
> <ConfClashScore>
0 

> <ConfOneFourInteractionScore>
-0.986137 

> <ConfScore>
0.305559 

> <ConfScorePBest>
0.00521045 

> <ConfTolerance>
0.660257 

$$$$
152.****
  PyMOL2.4          3D                             0

 26 25  0  0  0  0  0  0  0  0999 V2000
    1.8890   -0.3450   -1.7614 C   0  0  0  1  0  0  0  0  0  0  0  0
    1.2570   -0.9453   -2.8054 O   0  5  0  1  0  0  0  0  0  0  0  0
    2.7009    0.5597   -1.8652 O   0  0  0  1  0  0  0  0  0  0  0  0
    1.5462   -0.8502   -0.3869 C   0  0  0  1  0  0  0  0  0  0  0  0
    0.2607   -0.2988    0.2080 C   0  0  0  1  0  0  0  0  0  0  0  0
    0.4606    1.0930    0.4714 O   0  0  0  1  0  0  0  0  0  0  0  0
   -0.9697   -0.4981   -0.6455 C   0  0  0  1  0  0  0  0  0  0  0  0
   -2.6285    1.3099   -0.4331 C   0  0  0  1  0  0  0  0  0  0  0  0
   -2.0134   -0.0420    1.5365 C   0  0  0  1  0  0  0  0  0  0  0  0
   -3.3104   -1.0211   -0.2732 C   0  0  0  1  0  0  0  0  0  0  0  0
   -2.2128   -0.0480    0.0497 N   0  3  0  1  0  0  0  0  0  0  0  0
    0.0922   -0.8031    1.1366 H   0  0  0  1  0  0  0  0  0  0  0  0
   -0.3885    1.5405    0.4915 H   0  0  0  1  0  0  0  0  0  0  0  0
    2.3509   -0.5926    0.2696 H   0  0  0  1  0  0  0  0  0  0  0  0
    1.4553   -1.9150   -0.4398 H   0  0  0  1  0  0  0  0  0  0  0  0
   -1.0625   -1.5380   -0.8799 H   0  0  0  1  0  0  0  0  0  0  0  0
   -0.8573    0.0632   -1.5496 H   0  0  0  1  0  0  0  0  0  0  0  0
   -1.8389    2.0096   -0.2546 H   0  0  0  1  0  0  0  0  0  0  0  0
   -3.5067    1.6218    0.0926 H   0  0  0  1  0  0  0  0  0  0  0  0
   -2.8364    1.2671   -1.4819 H   0  0  0  1  0  0  0  0  0  0  0  0
   -1.4223   -0.8873    1.8210 H   0  0  0  1  0  0  0  0  0  0  0  0
   -2.9647   -0.0920    2.0239 H   0  0  0  1  0  0  0  0  0  0  0  0
   -1.5111    0.8576    1.8251 H   0  0  0  1  0  0  0  0  0  0  0  0
   -3.0117   -2.0062    0.0187 H   0  0  0  1  0  0  0  0  0  0  0  0
   -3.5034   -1.0043   -1.3255 H   0  0  0  1  0  0  0  0  0  0  0  0
   -4.1981   -0.7460    0.2571 H   0  0  0  1  0  0  0  0  0  0  0  0
  1  2  1  0  0  0  0
  1  3  2  0  0  0  0
  1  4  1  0  0  0  0
  4  5  1  0  0  0  0
  4 14  1  0  0  0  0
  4 15  1  0  0  0  0
  5  6  1  0  0  0  0
  5  7  1  0  0  0  0
  5 12  1  0  0  0  0
  6 13  1  0  0  0  0
  7 11  1  0  0  0  0
  7 16  1  0  0  0  0
  7 17  1  0  0  0  0
  8 11  1  0  0  0  0
  8 18  1  0  0  0  0
  8 19  1  0  0  0  0
  8 20  1  0  0  0  0
  9 11  1  0  0  0  0
  9 21  1  0  0  0  0
  9 22  1  0  0  0  0
  9 23  1  0  0  0  0
 10 11  1  0  0  0  0
 10 24  1  0  0  0  0
 10 25  1  0  0  0  0
 10 26  1  0  0  0  0
M  END
> <ConfClashScore>
0.00148725 

> <ConfOneFourInteractionScore>
-0.932989 

> <ConfScore>
0.375259 

> <ConfScorePBest>
0.00510745 

> <ConfTolerance>
0.913607 

$$$$
152.****
  PyMOL2.4          3D                             0

 26 25  0  0  0  0  0  0  0  0999 V2000
    1.0698    0.7778   -1.4765 C   0  0  0  1  0  0  0  0  0  0  0  0
    0.1582    1.4659   -2.2150 O   0  5  0  1  0  0  0  0  0  0  0  0
    2.1791    0.5164   -1.9119 O   0  0  0  1  0  0  0  0  0  0  0  0
    0.7052    0.3266   -0.0889 C   0  0  0  1  0  0  0  0  0  0  0  0
    0.1191   -1.0725    0.0082 C   0  0  0  1  0  0  0  0  0  0  0  0
    0.0772   -1.5625    1.3385 O   0  0  0  1  0  0  0  0  0  0  0  0
   -1.2670   -1.0828   -0.6154 C   0  0  0  1  0  0  0  0  0  0  0  0
   -2.2077    1.1588   -0.6470 C   0  0  0  1  0  0  0  0  0  0  0  0
   -2.0129   -0.0466    1.5384 C   0  0  0  1  0  0  0  0  0  0  0  0
   -3.6901   -0.7729   -0.0655 C   0  0  0  1  0  0  0  0  0  0  0  0
   -2.2944   -0.1861    0.0527 N   0  3  0  1  0  0  0  0  0  0  0  0
    0.7382   -1.7202   -0.5767 H   0  0  0  1  0  0  0  0  0  0  0  0
    0.8406   -2.1224    1.4980 H   0  0  0  1  0  0  0  0  0  0  0  0
   -0.0149    1.0141    0.3032 H   0  0  0  1  0  0  0  0  0  0  0  0
    1.5906    0.3560    0.5110 H   0  0  0  1  0  0  0  0  0  0  0  0
   -1.6353   -2.0869   -0.5820 H   0  0  0  1  0  0  0  0  0  0  0  0
   -1.1715   -0.7712   -1.6346 H   0  0  0  1  0  0  0  0  0  0  0  0
   -2.5901    1.9223   -0.0021 H   0  0  0  1  0  0  0  0  0  0  0  0
   -2.7856    1.1302   -1.5471 H   0  0  0  1  0  0  0  0  0  0  0  0
   -1.1865    1.3717   -0.8849 H   0  0  0  1  0  0  0  0  0  0  0  0
   -2.7630    0.5700    1.9877 H   0  0  0  1  0  0  0  0  0  0  0  0
   -1.0517    0.4023    1.6784 H   0  0  0  1  0  0  0  0  0  0  0  0
   -2.0254   -1.0138    1.9958 H   0  0  0  1  0  0  0  0  0  0  0  0
   -3.9594   -0.8486   -1.0983 H   0  0  0  1  0  0  0  0  0  0  0  0
   -4.3877   -0.1377    0.4391 H   0  0  0  1  0  0  0  0  0  0  0  0
   -3.7065   -1.7459    0.3793 H   0  0  0  1  0  0  0  0  0  0  0  0
  1  2  1  0  0  0  0
  1  3  2  0  0  0  0
  1  4  1  0  0  0  0
  4  5  1  0  0  0  0
  4 14  1  0  0  0  0
  4 15  1  0  0  0  0
  5  6  1  0  0  0  0
  5  7  1  0  0  0  0
  5 12  1  0  0  0  0
  6 13  1  0  0  0  0
  7 11  1  0  0  0  0
  7 16  1  0  0  0  0
  7 17  1  0  0  0  0
  8 11  1  0  0  0  0
  8 18  1  0  0  0  0
  8 19  1  0  0  0  0
  8 20  1  0  0  0  0
  9 11  1  0  0  0  0
  9 21  1  0  0  0  0
  9 22  1  0  0  0  0
  9 23  1  0  0  0  0
 10 11  1  0  0  0  0
 10 24  1  0  0  0  0
 10 25  1  0  0  0  0
 10 26  1  0  0  0  0
M  END
> <ConfClashScore>
0.00408721 

> <ConfOneFourInteractionScore>
-0.960255 

> <ConfScore>
0.717921 

> <ConfScorePBest>
0.00500445 

> <ConfTolerance>
0.91184 

$$$$
152.****
  PyMOL2.4          3D                             0

 26 25  0  0  0  0  0  0  0  0999 V2000
   -3.4191   -4.0606   -1.8696 C   0  0  0  1  0  0  0  0  0  0  0  0
   -3.8407   -3.2712   -2.8937 O   0  5  0  1  0  0  0  0  0  0  0  0
   -3.6422   -5.2562   -1.7737 O   0  0  0  1  0  0  0  0  0  0  0  0
   -2.6198   -3.3878   -0.7858 C   0  0  0  1  0  0  0  0  0  0  0  0
   -1.7165   -2.2698   -1.3131 C   0  0  0  1  0  0  0  0  0  0  0  0
   -2.3551   -1.5795   -2.3974 O   0  0  0  1  0  0  0  0  0  0  0  0
   -1.2539   -1.2475   -0.2990 C   0  0  0  1  0  0  0  0  0  0  0  0
   -2.1052    1.0172   -0.7354 C   0  0  0  1  0  0  0  0  0  0  0  0
   -2.1024    0.0845    1.5931 C   0  0  0  1  0  0  0  0  0  0  0  0
   -3.7050   -0.7360   -0.0834 C   0  0  0  1  0  0  0  0  0  0  0  0
   -2.2918   -0.2231    0.1203 N   0  3  0  1  0  0  0  0  0  0  0  0
   -0.8367   -2.7417   -1.6981 H   0  0  0  1  0  0  0  0  0  0  0  0
   -2.1561   -2.0265   -3.2233 H   0  0  0  1  0  0  0  0  0  0  0  0
   -2.0075   -4.1235   -0.3077 H   0  0  0  1  0  0  0  0  0  0  0  0
   -3.2984   -2.9693   -0.0721 H   0  0  0  1  0  0  0  0  0  0  0  0
   -0.4225   -0.7207   -0.7186 H   0  0  0  1  0  0  0  0  0  0  0  0
   -0.9379   -1.7734    0.5777 H   0  0  0  1  0  0  0  0  0  0  0  0
   -2.8812    1.7211   -0.5180 H   0  0  0  1  0  0  0  0  0  0  0  0
   -2.1491    0.7465   -1.7697 H   0  0  0  1  0  0  0  0  0  0  0  0
   -1.1540    1.4579   -0.5215 H   0  0  0  1  0  0  0  0  0  0  0  0
   -2.3196    1.1166    1.7732 H   0  0  0  1  0  0  0  0  0  0  0  0
   -1.0903   -0.1209    1.8729 H   0  0  0  1  0  0  0  0  0  0  0  0
   -2.7638   -0.5253    2.1725 H   0  0  0  1  0  0  0  0  0  0  0  0
   -4.4031    0.0461    0.1306 H   0  0  0  1  0  0  0  0  0  0  0  0
   -3.8826   -1.5619    0.5733 H   0  0  0  1  0  0  0  0  0  0  0  0
   -3.8260   -1.0541   -1.0979 H   0  0  0  1  0  0  0  0  0  0  0  0
  1  2  1  0  0  0  0
  1  3  2  0  0  0  0
  1  4  1  0  0  0  0
  4  5  1  0  0  0  0
  4 14  1  0  0  0  0
  4 15  1  0  0  0  0
  5  6  1  0  0  0  0
  5  7  1  0  0  0  0
  5 12  1  0  0  0  0
  6 13  1  0  0  0  0
  7 11  1  0  0  0  0
  7 16  1  0  0  0  0
  7 17  1  0  0  0  0
  8 11  1  0  0  0  0
  8 18  1  0  0  0  0
  8 19  1  0  0  0  0
  8 20  1  0  0  0  0
  9 11  1  0  0  0  0
  9 21  1  0  0  0  0
  9 22  1  0  0  0  0
  9 23  1  0  0  0  0
 10 11  1  0  0  0  0
 10 24  1  0  0  0  0
 10 25  1  0  0  0  0
 10 26  1  0  0  0  0
M  END
> <ConfClashScore>
0.00173294 

> <ConfOneFourInteractionScore>
-0.947556 

> <ConfScore>
0.726477 

> <ConfScorePBest>
0.00490145 

> <ConfTolerance>
1.51937 

$$$$
