# created with PyMOL 2.5.2
@<TRIPOS>MOLECULE
ACO
89 91 1                 
SMALL
USER_CHARGES
@<TRIPOS>ATOM
1	 N1A	4.880	1.108	-10.650	N.2	1	ACO0	0.000	
2	 C2A	3.865	1.949	-10.587	C.2	1	ACO0	0.000	
3	 N3A	2.906	1.834	-9.692	N.2	1	ACO0	0.000	
4	 C4A	2.922	0.844	-8.806	C.2	1	ACO0	0.000	
5	 C5A	3.985	-0.074	-8.828	C.2	1	ACO0	0.000	
6	 C6A	4.984	0.090	-9.802	C.2	1	ACO0	0.000	
7	 N6A	6.052	-0.786	-9.876	N.pl3	1	ACO0	0.000	
8	 N7A	3.765	-0.963	-7.830	N.2	1	ACO0	0.000	
9	 C8A	2.664	-0.653	-7.208	C.2	1	ACO0	0.000	
10	 N9A	2.109	0.457	-7.771	N.pl3	1	ACO0	0.000	
11	 C1B	0.867	1.113	-7.352	C.3	1	ACO0	0.000	
12	 C2B	-0.359	0.446	-8.025	C.3	1	ACO0	0.000	
13	 O2B	-0.607	1.017	-9.312	O.3	1	ACO0	0.000	
14	 C3B	-1.502	0.796	-7.036	C.3	1	ACO0	0.000	
15	 O3B	-2.229	1.937	-7.496	O.3	1	ACO0	0.000	
16	 P3B	-3.762	1.474	-7.665	P.3	1	ACO0	0.000	
17	 O7A	-4.284	1.009	-6.361	O.co2	1	ACO0	0.000	
18	 O8A	-4.644	2.717	-8.184	O.3	1	ACO0	0.000	
19	 O9A	-3.845	0.274	-8.736	O.3	1	ACO0	0.000	
20	 C4B	-0.771	1.110	-5.716	C.3	1	ACO0	0.000	
21	 O4B	0.633	0.905	-5.943	O.3	1	ACO0	0.000	
22	 C5B	-1.262	0.171	-4.613	C.3	1	ACO0	0.000	
23	 O5B	-0.574	0.464	-3.396	O.3	1	ACO0	0.000	
24	 P1A	-1.138	-0.555	-2.285	P.3	1	ACO0	0.000	
25	 O1A	-0.875	-1.947	-2.714	O.co2	1	ACO0	0.000	
26	 O2A	-2.724	-0.337	-2.112	O.3	1	ACO0	0.000	
27	 O3A	-0.401	-0.279	-0.880	O.3	1	ACO0	0.000	
28	 P2A	-1.010	-1.329	0.178	P.3	1	ACO0	0.000	
29	 O4A	-2.470	-1.116	0.299	O.co2	1	ACO0	0.000	
30	 O5A	-0.727	-2.830	-0.330	O.3	1	ACO0	0.000	
31	 O6A	-0.315	-1.108	1.613	O.3	1	ACO0	0.000	
32	 CBP	-0.273	-1.907	3.893	C.3	1	ACO0	0.000	
33	 CCP	-0.894	-2.063	2.504	C.3	1	ACO0	0.000	
34	 CDP	-0.542	-0.494	4.416	C.3	1	ACO0	0.000	
35	 CEP	1.236	-2.140	3.807	C.3	1	ACO0	0.000	
36	 CAP	-0.893	-2.929	4.847	C.3	1	ACO0	0.000	
37	 OAP	-0.744	-4.242	4.302	O.3	1	ACO0	0.000	
38	 C9P	-0.197	-2.858	6.182	C.2	1	ACO0	0.000	
39	 O9P	0.579	-3.730	6.508	O.2	1	ACO0	0.000	
40	 N8P	-0.438	-1.825	7.013	N.pl3	1	ACO0	0.000	
41	 C7P	0.252	-1.745	8.302	C.3	1	ACO0	0.000	
42	 C6P	-0.197	-0.486	9.046	C.3	1	ACO0	0.000	
43	 C5P	0.513	-0.404	10.372	C.2	1	ACO0	0.000	
44	 O5P	1.302	-1.268	10.691	O.2	1	ACO0	0.000	
45	 N4P	0.272	0.628	11.203	N.pl3	1	ACO0	0.000	
46	 C3P	0.963	0.708	12.492	C.3	1	ACO0	0.000	
47	 C2P	0.513	1.968	13.235	C.3	1	ACO0	0.000	
48	 S1P	1.367	2.066	14.828	S.3	1	ACO0	0.000	
49	   C	0.700	3.522	15.434	C.2	1	ACO0	0.000	
50	   O	-0.111	4.137	14.775	O.2	1	ACO0	0.000	
51	 CH3	1.122	4.039	16.785	C.3	1	ACO0	0.000	
52	 H2A	3.819	2.763	-11.296	 H	1	ACO0	0.000	
53	H61A	6.736	-0.662	-10.553	 H	1	ACO0	0.000	
54	H62A	6.117	-1.525	-9.251	 H	1	ACO0	0.000	
55	 H8A	2.251	-1.195	-6.371	 H	1	ACO0	0.000	
56	 H1B	0.900	2.177	-7.583	 H	1	ACO0	0.000	
57	 H2B	-0.224	-0.632	-8.099	 H	1	ACO0	0.000	
58	HO2A	0.177	0.844	-9.850	 H	1	ACO0	0.000	
59	 H3B	-2.170	-0.054	-6.908	 H	1	ACO0	0.000	
60	HOA8	-5.552	2.398	-8.272	 H	1	ACO0	0.000	
61	HOA9	-3.496	0.619	-9.569	 H	1	ACO0	0.000	
62	 H4B	-0.952	2.146	-5.429	 H	1	ACO0	0.000	
63	H51A	-1.067	-0.861	-4.901	 H	1	ACO0	0.000	
64	H52A	-2.334	0.310	-4.468	 H	1	ACO0	0.000	
65	HOA2	-2.851	0.579	-1.832	 H	1	ACO0	0.000	
66	HOA5	0.232	-2.926	-0.395	 H	1	ACO0	0.000	
67	H121	-0.702	-3.070	2.132	 H	1	ACO0	0.000	
68	H122	-1.969	-1.897	2.565	 H	1	ACO0	0.000	
69	H131	-1.609	-0.372	4.602	 H	1	ACO0	0.000	
70	H132	0.008	-0.338	5.343	 H	1	ACO0	0.000	
71	H133	-0.217	0.235	3.674	 H	1	ACO0	0.000	
72	H141	1.427	-3.146	3.435	 H	1	ACO0	0.000	
73	H142	1.677	-1.411	3.127	 H	1	ACO0	0.000	
74	H143	1.678	-2.028	4.797	 H	1	ACO0	0.000	
75	 H10	-1.953	-2.709	4.978	 H	1	ACO0	0.000	
76	 HO1	0.205	-4.396	4.202	 H	1	ACO0	0.000	
77	 HN8	-1.070	-1.134	6.758	 H	1	ACO0	0.000	
78	 H71	1.328	-1.703	8.135	 H	1	ACO0	0.000	
79	 H72	0.011	-2.625	8.899	 H	1	ACO0	0.000	
80	 H61	-1.274	-0.528	9.212	 H	1	ACO0	0.000	
81	 H62	0.043	0.393	8.449	 H	1	ACO0	0.000	
82	 HN4	-0.358	1.319	10.947	 H	1	ACO0	0.000	
83	 H31	2.040	0.750	12.325	 H	1	ACO0	0.000	
84	 H32	0.722	-0.171	13.089	 H	1	ACO0	0.000	
85	 H21	-0.562	1.926	13.402	 H	1	ACO0	0.000	
86	 H22	0.754	2.847	12.638	 H	1	ACO0	0.000	
87	HH31	0.595	4.969	16.998	 H	1	ACO0	0.000	
88	HH32	0.879	3.300	17.549	 H	1	ACO0	0.000	
89	HH33	2.196	4.221	16.785	 H	1	ACO0	0.000	
@<TRIPOS>BOND
1 1 2 1
2 1 6 2
3 2 3 2
4 2 52 1
5 3 4 1
6 4 5 2
7 4 10 1
8 5 6 1
9 5 8 1
10 6 7 1
11 7 53 1
12 7 54 1
13 8 9 2
14 9 10 1
15 9 55 1
16 10 11 1
17 11 12 1
18 11 21 1
19 11 56 1
20 12 13 1
21 12 14 1
22 12 57 1
23 13 58 1
24 14 15 1
25 14 20 1
26 14 59 1
27 15 16 1
28 16 17 2
29 16 18 1
30 16 19 1
31 18 60 1
32 19 61 1
33 20 21 1
34 20 22 1
35 20 62 1
36 22 23 1
37 22 63 1
38 22 64 1
39 23 24 1
40 24 25 2
41 24 26 1
42 24 27 1
43 26 65 1
44 27 28 1
45 28 29 2
46 28 30 1
47 28 31 1
48 30 66 1
49 31 33 1
50 32 33 1
51 32 34 1
52 32 35 1
53 32 36 1
54 33 67 1
55 33 68 1
56 34 69 1
57 34 70 1
58 34 71 1
59 35 72 1
60 35 73 1
61 35 74 1
62 36 37 1
63 36 38 1
64 36 75 1
65 37 76 1
66 38 39 2
67 38 40 1
68 40 41 1
69 40 77 1
70 41 42 1
71 41 78 1
72 41 79 1
73 42 43 1
74 42 80 1
75 42 81 1
76 43 44 2
77 43 45 1
78 45 46 1
79 45 82 1
80 46 47 1
81 46 83 1
82 46 84 1
83 47 48 1
84 47 85 1
85 47 86 1
86 48 49 1
87 49 50 2
88 49 51 1
89 51 87 1
90 51 88 1
91 51 89 1
@<TRIPOS>SUBSTRUCTURE
1	ACO0	1	GROUP	1 ****	ACO
