ACO.****
  PyMOL2.5          3D                             0

 85 87  0  0  0  0  0  0  0  0999 V2000
    4.8839    1.0736  -10.6440 N   0  0  0  1  0  0  0  0  0  0  0  0
    3.8339    1.9027  -10.5339 C   0  0  0  1  0  0  0  0  0  0  0  0
    3.8005    2.6803  -11.2236 H   0  0  0  1  0  0  0  0  0  0  0  0
    2.8324    1.8639   -9.6635 N   0  0  0  1  0  0  0  0  0  0  0  0
    2.9566    0.8335   -8.8258 C   0  0  0  1  0  0  0  0  0  0  0  0
    3.9898   -0.1132   -8.8101 C   0  0  0  1  0  0  0  0  0  0  0  0
    4.9760    0.0597   -9.7768 C   0  0  0  1  0  0  0  0  0  0  0  0
    6.0612   -0.7683   -9.8938 N   0  0  0  1  0  0  0  0  0  0  0  0
    6.6875   -0.6529  -10.6387 H   0  0  0  1  0  0  0  0  0  0  0  0
    6.2112   -1.4759   -9.2326 H   0  0  0  1  0  0  0  0  0  0  0  0
    3.7877   -1.0280   -7.7884 N   0  0  0  1  0  0  0  0  0  0  0  0
    2.6753   -0.6275   -7.2352 C   0  0  0  1  0  0  0  0  0  0  0  0
    2.2440   -1.1196   -6.4268 H   0  0  0  1  0  0  0  0  0  0  0  0
    2.1223    0.4827   -7.7959 N   0  0  0  1  0  0  0  0  0  0  0  0
    0.8906    1.1629   -7.3850 C   0  0  0  1  0  0  0  0  0  0  0  0
    0.7181    2.0051   -8.0220 H   0  0  0  1  0  0  0  0  0  0  0  0
   -0.3008    0.1939   -7.4459 C   0  0  0  1  0  0  0  0  0  0  0  0
    0.0003   -0.8039   -7.2037 H   0  0  0  1  0  0  0  0  0  0  0  0
   -0.9115    0.2076   -8.7389 O   0  0  0  1  0  0  0  0  0  0  0  0
   -1.4603    0.9905   -8.8258 H   0  0  0  1  0  0  0  0  0  0  0  0
   -1.2383    0.7546   -6.3911 C   0  0  0  1  0  0  0  0  0  0  0  0
   -1.8263   -0.0210   -5.9467 H   0  0  0  1  0  0  0  0  0  0  0  0
   -2.1107    1.7594   -6.9521 O   0  0  0  1  0  0  0  0  0  0  0  0
   -3.7377    1.6547   -6.7740 P   0  0  0  1  0  0  0  0  0  0  0  0
   -4.4326    3.0383   -7.3146 O   0  0  0  0  0  0  0  0  0  0  0  0
   -4.2499    0.5012   -7.5471 O   0  0  0  1  0  0  0  0  0  0  0  0
   -4.0921    1.4638   -5.2049 O   0  5  0  1  0  0  0  0  0  0  0  0
   -0.2632    1.3752   -5.3604 C   0  0  0  1  0  0  0  0  0  0  0  0
   -0.6435    2.3111   -5.0078 H   0  0  0  1  0  0  0  0  0  0  0  0
    0.9833    1.5729   -6.0511 O   0  0  0  1  0  0  0  0  0  0  0  0
   -0.0726    0.4476   -4.2058 C   0  0  0  1  0  0  0  0  0  0  0  0
    0.4875   -0.4097   -4.5157 H   0  0  0  1  0  0  0  0  0  0  0  0
   -1.0239    0.1354   -3.8283 H   0  0  0  1  0  0  0  0  0  0  0  0
    0.6544    1.1675   -3.1780 O   0  0  0  1  0  0  0  0  0  0  0  0
    1.0055    0.4610   -1.7539 P   0  0  0  1  0  0  0  0  0  0  0  0
    2.2655   -0.3132   -1.8684 O   0  0  0  0  0  0  0  0  0  0  0  0
   -0.1912   -0.1747   -1.1738 O   0  0  0  1  0  0  0  0  0  0  0  0
    1.2866    1.8762   -1.0472 O   0  0  0  1  0  0  0  0  0  0  0  0
    0.6467    3.3702   -1.2666 P   0  0  0  1  0  0  0  0  0  0  0  0
   -0.7985    3.2542   -1.5638 O   0  0  0  1  0  0  0  0  0  0  0  0
    0.8611    4.2461    0.0792 O   0  5  0  1  0  0  0  0  0  0  0  0
    1.3815    4.0803   -2.4633 O   0  0  0  1  0  0  0  0  0  0  0  0
    3.1432    5.1894   -3.5997 C   0  0  0  1  0  0  0  0  0  0  0  0
    2.7889    4.3944   -2.3863 C   0  0  0  1  0  0  0  0  0  0  0  0
    3.3629    3.4917   -2.3617 H   0  0  0  1  0  0  0  0  0  0  0  0
    2.9867    4.9675   -1.5046 H   0  0  0  1  0  0  0  0  0  0  0  0
    3.0296    4.3105   -4.8483 C   0  0  0  1  0  0  0  0  0  0  0  0
    3.2776    4.8871   -5.7148 H   0  0  0  1  0  0  0  0  0  0  0  0
    2.0275    3.9459   -4.9376 H   0  0  0  1  0  0  0  0  0  0  0  0
    3.7042    3.4841   -4.7651 H   0  0  0  1  0  0  0  0  0  0  0  0
    4.5871    5.7108   -3.4662 C   0  0  0  1  0  0  0  0  0  0  0  0
    5.2648    4.8831   -3.4412 H   0  0  0  1  0  0  0  0  0  0  0  0
    4.6801    6.2751   -2.5619 H   0  0  0  1  0  0  0  0  0  0  0  0
    4.8190    6.3361   -4.3029 H   0  0  0  1  0  0  0  0  0  0  0  0
    2.1882    6.3790   -3.7261 C   0  0  0  1  0  0  0  0  0  0  0  0
    1.8566    6.6454   -2.7443 H   0  0  0  1  0  0  0  0  0  0  0  0
    2.8771    7.4638   -4.3066 O   0  0  0  1  0  0  0  0  0  0  0  0
    3.3198    7.9669   -3.6193 H   0  0  0  1  0  0  0  0  0  0  0  0
    0.9711    5.9850   -4.5492 C   0  0  0  1  0  0  0  0  0  0  0  0
    0.2490    5.0621   -4.2097 O   0  0  0  1  0  0  0  0  0  0  0  0
    0.7544    6.7139   -5.6555 N   0  0  0  1  0  0  0  0  0  0  0  0
    1.3016    7.5119   -5.8108 H   0  0  0  1  0  0  0  0  0  0  0  0
   -0.2648    6.3602   -6.6321 C   0  0  0  1  0  0  0  0  0  0  0  0
   -0.4158    5.3013   -6.6020 H   0  0  0  1  0  0  0  0  0  0  0  0
    0.0790    6.6444   -7.6047 H   0  0  0  1  0  0  0  0  0  0  0  0
   -1.5929    7.0494   -6.3644 C   0  0  0  1  0  0  0  0  0  0  0  0
   -1.4778    8.0961   -6.5543 H   0  0  0  1  0  0  0  0  0  0  0  0
   -1.8537    6.8992   -5.3376 H   0  0  0  1  0  0  0  0  0  0  0  0
   -2.7205    6.5230   -7.2307 C   0  0  0  1  0  0  0  0  0  0  0  0
   -2.5285    5.6440   -8.0547 O   0  0  0  1  0  0  0  0  0  0  0  0
   -3.9171    7.0821   -7.0289 N   0  0  0  1  0  0  0  0  0  0  0  0
   -4.0210    7.7258   -6.2973 H   0  0  0  1  0  0  0  0  0  0  0  0
   -5.0705    6.7687   -7.8571 C   0  0  0  1  0  0  0  0  0  0  0  0
   -5.2782    5.7224   -7.7739 H   0  0  0  1  0  0  0  0  0  0  0  0
   -4.8373    7.0068   -8.8739 H   0  0  0  1  0  0  0  0  0  0  0  0
   -6.3109    7.5457   -7.4471 C   0  0  0  1  0  0  0  0  0  0  0  0
   -7.0783    7.3481   -8.1661 H   0  0  0  1  0  0  0  0  0  0  0  0
   -6.0686    8.5878   -7.4606 H   0  0  0  1  0  0  0  0  0  0  0  0
   -6.9616    7.1431   -5.8084 S   0  0  0  1  0  0  0  0  0  0  0  0
   -8.2698    6.0022   -6.1922 C   0  0  0  1  0  0  0  0  0  0  0  0
   -8.5119    5.6209   -7.3054 O   0  0  0  1  0  0  0  0  0  0  0  0
   -9.0348    5.5726   -4.9618 C   0  0  0  1  0  0  0  0  0  0  0  0
   -8.4049    4.9690   -4.3423 H   0  0  0  1  0  0  0  0  0  0  0  0
   -9.8937    5.0063   -5.2559 H   0  0  0  1  0  0  0  0  0  0  0  0
   -9.3475    6.4383   -4.4162 H   0  0  0  1  0  0  0  0  0  0  0  0
  1  2  1  0  0  0  0
  1  7  2  0  0  0  0
  2  3  1  0  0  0  0
  2  4  2  0  0  0  0
  4  5  1  0  0  0  0
  5  6  2  0  0  0  0
  5 14  1  0  0  0  0
  6  7  1  0  0  0  0
  6 11  1  0  0  0  0
  7  8  1  0  0  0  0
  8  9  1  0  0  0  0
  8 10  1  0  0  0  0
 11 12  2  0  0  0  0
 12 13  1  0  0  0  0
 12 14  1  0  0  0  0
 14 15  1  0  0  0  0
 15 16  1  0  0  0  0
 15 17  1  0  0  0  0
 15 30  1  0  0  0  0
 17 18  1  0  0  0  0
 17 19  1  0  0  0  0
 17 21  1  0  0  0  0
 19 20  1  0  0  0  0
 21 22  1  0  0  0  0
 21 23  1  0  0  0  0
 21 28  1  0  0  0  0
 23 24  1  0  0  0  0
 24 25  1  0  0  0  0
 24 26  2  0  0  0  0
 24 27  1  0  0  0  0
 28 29  1  0  0  0  0
 28 30  1  0  0  0  0
 28 31  1  0  0  0  0
 31 32  1  0  0  0  0
 31 33  1  0  0  0  0
 31 34  1  0  0  0  0
 34 35  1  0  0  0  0
 35 36  1  0  0  0  0
 35 37  2  0  0  0  0
 35 38  1  0  0  0  0
 38 39  1  0  0  0  0
 39 40  2  0  0  0  0
 39 41  1  0  0  0  0
 39 42  1  0  0  0  0
 42 44  1  0  0  0  0
 43 44  1  0  0  0  0
 43 47  1  0  0  0  0
 43 51  1  0  0  0  0
 43 55  1  0  0  0  0
 44 45  1  0  0  0  0
 44 46  1  0  0  0  0
 47 48  1  0  0  0  0
 47 49  1  0  0  0  0
 47 50  1  0  0  0  0
 51 52  1  0  0  0  0
 51 53  1  0  0  0  0
 51 54  1  0  0  0  0
 55 56  1  0  0  0  0
 55 57  1  0  0  0  0
 55 59  1  0  0  0  0
 57 58  1  0  0  0  0
 59 60  2  0  0  0  0
 59 61  1  0  0  0  0
 61 62  1  0  0  0  0
 61 63  1  0  0  0  0
 63 64  1  0  0  0  0
 63 65  1  0  0  0  0
 63 66  1  0  0  0  0
 66 67  1  0  0  0  0
 66 68  1  0  0  0  0
 66 69  1  0  0  0  0
 69 70  2  0  0  0  0
 69 71  1  0  0  0  0
 71 72  1  0  0  0  0
 71 73  1  0  0  0  0
 73 74  1  0  0  0  0
 73 75  1  0  0  0  0
 73 76  1  0  0  0  0
 76 77  1  0  0  0  0
 76 78  1  0  0  0  0
 76 79  1  0  0  0  0
 79 80  1  0  0  0  0
 80 81  2  0  0  0  0
 80 82  1  0  0  0  0
 82 83  1  0  0  0  0
 82 84  1  0  0  0  0
 82 85  1  0  0  0  0
M  BCL ATM N_Tr2TrTrPi C_TrTrTrPi H_S N_Tr2TrTrPi C_TrTrTrPi C_TrTrTrPi C_TrTrTrPi N_TrTrTrPi2 H_S H_S N_Tr2TrTrPi C_TrTrTrPi H_S N_TrTrTrPi2 C_TeTeTeTe H_S C_TeTeTeTe H_S O_Te2Te2TeTe H_S C_TeTeTeTe H_S O_Tr2TrTrPi2 P_TeTeTeTePi O_Te2Te2TeTe O_Tr2Tr2TrPi O_Te2Te2Te2Te C_TeTeTeTe H_S O_Te2Te2TeTe C_TeTeTeTe H_S H_S O_Tr2TrTrPi2 P_TeTeTeTePi O_Te2Te2TeTe O_Tr2Tr2TrPi O_Tr2TrTrPi2 P_TeTeTeTePi O_Tr2Tr2TrPi O_Te2Te2Te2Te O_Tr2TrTrPi2 C_TeTeTeTe C_TeTeTeTe H_S H_S C_TeTeTeTe H_S H_S H_S C_TeTeTeTe H_S H_S H_S C_TeTeTeTe H_S O_Te2Te2TeTe H_S C_TrTrTrPi O_Tr2Tr2TrPi N_TrTrTrPi2 H_S C_TeTeTeTe H_S H_S C_TeTeTeTe H_S H_S C_TrTrTrPi O_Tr2Tr2TrPi N_TrTrTrPi2 H_S C_TeTeTeTe H_S H_S C_TeTeTeTe H_S H_S S_Te2Te2TeTe C_TrTrTrPi O_Tr2Tr2TrPi C_TeTeTeTe H_S H_S H_S
M  BCL BND AromaticSingleBond AromaticDoubleBond NonConjugatedSingleBond AromaticDoubleBond AromaticSingleBond AromaticDoubleBond AromaticSingleBond AromaticSingleBond AromaticSingleBond ConjugatedSingleBond NonConjugatedSingleBond NonConjugatedSingleBond AromaticDoubleBond NonConjugatedSingleBond AromaticSingleBond NonConjugatedSingleBond NonConjugatedSingleBond NonConjugatedSingleBondInRing NonConjugatedSingleBondInRing NonConjugatedSingleBond NonConjugatedSingleBond NonConjugatedSingleBondInRing NonConjugatedSingleBond NonConjugatedSingleBond NonConjugatedSingleBond NonConjugatedSingleBondInRing ConjugatedSingleBond ConjugatedSingleBond ConjugatedDoubleBond ConjugatedSingleBond NonConjugatedSingleBond NonConjugatedSingleBondInRing NonConjugatedSingleBond NonConjugatedSingleBond NonConjugatedSingleBond NonConjugatedSingleBond ConjugatedSingleBond ConjugatedSingleBond ConjugatedDoubleBond ConjugatedSingleBond ConjugatedSingleBond ConjugatedDoubleBond ConjugatedSingleBond ConjugatedSingleBond NonConjugatedSingleBond NonConjugatedSingleBond NonConjugatedSingleBond NonConjugatedSingleBond NonConjugatedSingleBond NonConjugatedSingleBond NonConjugatedSingleBond NonConjugatedSingleBond NonConjugatedSingleBond NonConjugatedSingleBond NonConjugatedSingleBond NonConjugatedSingleBond NonConjugatedSingleBond NonConjugatedSingleBond NonConjugatedSingleBond NonConjugatedSingleBond NonConjugatedSingleBond ConjugatedDoubleBond AmideSingleBond NonConjugatedSingleBond NonConjugatedSingleBond NonConjugatedSingleBond NonConjugatedSingleBond NonConjugatedSingleBond NonConjugatedSingleBond NonConjugatedSingleBond NonConjugatedSingleBond ConjugatedDoubleBond AmideSingleBond NonConjugatedSingleBond NonConjugatedSingleBond NonConjugatedSingleBond NonConjugatedSingleBond NonConjugatedSingleBond NonConjugatedSingleBond NonConjugatedSingleBond NonConjugatedSingleBond ConjugatedSingleBond ConjugatedDoubleBond NonConjugatedSingleBond NonConjugatedSingleBond NonConjugatedSingleBond NonConjugatedSingleBond
M  BCL CHI  15   S  17   S  21   S  24   S  28   R  35   R  39   R  55   S
M  BCL DBI - - - - - - - - - -
M  END
> <ConfClashScore>
0 

> <ConfOneFourInteractionScore>
-0.979473 

> <ConfScore>
-0.0787479 

> <ConfScorePBest>
0.0150985 

> <ConfTolerance>
2.61632 

$$$$
ACO.****
  PyMOL2.5          3D                             0

 85 87  0  0  0  0  0  0  0  0999 V2000
    4.9031    1.0934  -10.6245 N   0  0  0  1  0  0  0  0  0  0  0  0
    3.8463    1.9153  -10.5262 C   0  0  0  1  0  0  0  0  0  0  0  0
    3.8116    2.6884  -11.2210 H   0  0  0  1  0  0  0  0  0  0  0  0
    2.8395    1.8744   -9.6621 N   0  0  0  1  0  0  0  0  0  0  0  0
    2.9659    0.8501   -8.8173 C   0  0  0  1  0  0  0  0  0  0  0  0
    4.0060   -0.0887   -8.7890 C   0  0  0  1  0  0  0  0  0  0  0  0
    4.9972    0.0856   -9.7503 C   0  0  0  1  0  0  0  0  0  0  0  0
    6.0538   -0.7958   -9.9102 N   0  0  0  1  0  0  0  0  0  0  0  0
    6.1249   -1.5852   -9.3339 H   0  0  0  1  0  0  0  0  0  0  0  0
    6.7302   -0.6299  -10.5997 H   0  0  0  1  0  0  0  0  0  0  0  0
    3.8040   -0.9986   -7.7630 N   0  0  0  1  0  0  0  0  0  0  0  0
    2.6851   -0.6030   -7.2195 C   0  0  0  1  0  0  0  0  0  0  0  0
    2.2522   -1.0933   -6.4109 H   0  0  0  1  0  0  0  0  0  0  0  0
    2.1275    0.4995   -7.7907 N   0  0  0  1  0  0  0  0  0  0  0  0
    0.8057    1.0619   -7.4558 C   0  0  0  1  0  0  0  0  0  0  0  0
    0.9032    2.1085   -7.2554 H   0  0  0  1  0  0  0  0  0  0  0  0
   -0.2092    0.8094   -8.5991 C   0  0  0  1  0  0  0  0  0  0  0  0
   -0.0603   -0.1517   -9.0453 H   0  0  0  1  0  0  0  0  0  0  0  0
   -0.1203    1.8218   -9.6051 O   0  0  0  1  0  0  0  0  0  0  0  0
   -0.1307    2.6875   -9.1904 H   0  0  0  1  0  0  0  0  0  0  0  0
   -1.5658    0.8780   -7.8494 C   0  0  0  1  0  0  0  0  0  0  0  0
   -2.2386    0.1292   -8.2118 H   0  0  0  1  0  0  0  0  0  0  0  0
   -2.1734    2.1905   -8.0002 O   0  0  0  1  0  0  0  0  0  0  0  0
   -3.7475    2.3434   -8.4343 P   0  0  0  1  0  0  0  0  0  0  0  0
   -4.1653    3.9255   -8.5437 O   0  0  0  0  0  0  0  0  0  0  0  0
   -3.8986    1.5613   -9.6817 O   0  0  0  1  0  0  0  0  0  0  0  0
   -4.6575    1.6791   -7.2703 O   0  5  0  1  0  0  0  0  0  0  0  0
   -1.1932    0.6132   -6.3775 C   0  0  0  1  0  0  0  0  0  0  0  0
   -1.4404    1.4648   -5.7788 H   0  0  0  1  0  0  0  0  0  0  0  0
    0.2228    0.3734   -6.3291 O   0  0  0  1  0  0  0  0  0  0  0  0
   -1.9308   -0.5827   -5.8717 C   0  0  0  1  0  0  0  0  0  0  0  0
   -1.6660   -0.7698   -4.8520 H   0  0  0  1  0  0  0  0  0  0  0  0
   -1.6886   -1.4386   -6.4664 H   0  0  0  1  0  0  0  0  0  0  0  0
   -3.3272   -0.3033   -5.9679 O   0  0  0  1  0  0  0  0  0  0  0  0
   -4.5530   -1.1482   -5.3894 P   0  0  0  1  0  0  0  0  0  0  0  0
   -4.5448   -1.1148   -3.8908 O   0  0  0  0  0  0  0  0  0  0  0  0
   -4.5739   -2.5098   -6.0127 O   0  0  0  1  0  0  0  0  0  0  0  0
   -5.7903   -0.3276   -6.0050 O   0  0  0  1  0  0  0  0  0  0  0  0
   -6.6173    0.9114   -5.3190 P   0  0  0  1  0  0  0  0  0  0  0  0
   -7.7634    1.4391   -6.0925 O   0  0  0  1  0  0  0  0  0  0  0  0
   -7.0030    0.4771   -3.8067 O   0  5  0  1  0  0  0  0  0  0  0  0
   -5.4022    1.8877   -5.1031 O   0  0  0  1  0  0  0  0  0  0  0  0
   -4.2519    3.7785   -4.1802 C   0  0  0  1  0  0  0  0  0  0  0  0
   -5.4638    2.9392   -4.1152 C   0  0  0  1  0  0  0  0  0  0  0  0
   -5.5387    2.5032   -3.1409 H   0  0  0  1  0  0  0  0  0  0  0  0
   -6.3241    3.5475   -4.3014 H   0  0  0  1  0  0  0  0  0  0  0  0
   -4.0387    4.2409   -5.6258 C   0  0  0  1  0  0  0  0  0  0  0  0
   -3.9135    3.3875   -6.2589 H   0  0  0  1  0  0  0  0  0  0  0  0
   -3.1641    4.8550   -5.6783 H   0  0  0  1  0  0  0  0  0  0  0  0
   -4.8898    4.8029   -5.9494 H   0  0  0  1  0  0  0  0  0  0  0  0
   -3.0154    3.0072   -3.6916 C   0  0  0  1  0  0  0  0  0  0  0  0
   -2.5522    2.5132   -4.5200 H   0  0  0  1  0  0  0  0  0  0  0  0
   -3.3128    2.2807   -2.9644 H   0  0  0  1  0  0  0  0  0  0  0  0
   -2.3204    3.6906   -3.2502 H   0  0  0  1  0  0  0  0  0  0  0  0
   -4.4602    5.0068   -3.3121 C   0  0  0  1  0  0  0  0  0  0  0  0
   -5.2143    5.6234   -3.7548 H   0  0  0  1  0  0  0  0  0  0  0  0
   -4.9170    4.4935   -2.0510 O   0  0  0  1  0  0  0  0  0  0  0  0
   -5.4071    5.1755   -1.5860 H   0  0  0  1  0  0  0  0  0  0  0  0
   -3.1751    5.7979   -3.2015 C   0  0  0  1  0  0  0  0  0  0  0  0
   -2.7229    6.4166   -4.1612 O   0  0  0  1  0  0  0  0  0  0  0  0
   -2.5801    5.7741   -2.0055 N   0  0  0  1  0  0  0  0  0  0  0  0
   -3.0091    5.2838   -1.2734 H   0  0  0  1  0  0  0  0  0  0  0  0
   -1.3170    6.4510   -1.7520 C   0  0  0  1  0  0  0  0  0  0  0  0
   -1.4291    7.4699   -2.0590 H   0  0  0  1  0  0  0  0  0  0  0  0
   -0.5700    5.9769   -2.3538 H   0  0  0  1  0  0  0  0  0  0  0  0
   -0.8141    6.4566   -0.3144 C   0  0  0  1  0  0  0  0  0  0  0  0
   -0.6646    5.4442   -0.0019 H   0  0  0  1  0  0  0  0  0  0  0  0
   -1.5568    6.9154    0.3044 H   0  0  0  1  0  0  0  0  0  0  0  0
    0.4897    7.2118   -0.1441 C   0  0  0  1  0  0  0  0  0  0  0  0
    1.0159    7.7982   -1.0889 O   0  0  0  1  0  0  0  0  0  0  0  0
    1.0148    7.1936    1.0843 N   0  0  0  1  0  0  0  0  0  0  0  0
    0.5157    6.7875    1.8235 H   0  0  0  1  0  0  0  0  0  0  0  0
    2.3253    7.7751    1.3268 C   0  0  0  1  0  0  0  0  0  0  0  0
    2.2892    8.8160    1.0820 H   0  0  0  1  0  0  0  0  0  0  0  0
    3.0394    7.2850    0.6985 H   0  0  0  1  0  0  0  0  0  0  0  0
    2.7655    7.6312    2.7626 C   0  0  0  1  0  0  0  0  0  0  0  0
    2.7211    6.5937    3.0204 H   0  0  0  1  0  0  0  0  0  0  0  0
    2.0821    8.1811    3.3754 H   0  0  0  1  0  0  0  0  0  0  0  0
    4.4362    8.2248    3.1158 S   0  0  0  1  0  0  0  0  0  0  0  0
    5.4926    6.8735    2.6483 C   0  0  0  1  0  0  0  0  0  0  0  0
    5.0807    5.8226    2.2234 O   0  0  0  1  0  0  0  0  0  0  0  0
    6.9559    7.1955    2.8448 C   0  0  0  1  0  0  0  0  0  0  0  0
    7.5474    6.5734    2.2060 H   0  0  0  1  0  0  0  0  0  0  0  0
    7.2260    7.0180    3.8648 H   0  0  0  1  0  0  0  0  0  0  0  0
    7.1303    8.2231    2.6028 H   0  0  0  1  0  0  0  0  0  0  0  0
  1  2  1  0  0  0  0
  1  7  2  0  0  0  0
  2  3  1  0  0  0  0
  2  4  2  0  0  0  0
  4  5  1  0  0  0  0
  5  6  2  0  0  0  0
  5 14  1  0  0  0  0
  6  7  1  0  0  0  0
  6 11  1  0  0  0  0
  7  8  1  0  0  0  0
  8  9  1  0  0  0  0
  8 10  1  0  0  0  0
 11 12  2  0  0  0  0
 12 13  1  0  0  0  0
 12 14  1  0  0  0  0
 14 15  1  0  0  0  0
 15 16  1  0  0  0  0
 15 17  1  0  0  0  0
 15 30  1  0  0  0  0
 17 18  1  0  0  0  0
 17 19  1  0  0  0  0
 17 21  1  0  0  0  0
 19 20  1  0  0  0  0
 21 22  1  0  0  0  0
 21 23  1  0  0  0  0
 21 28  1  0  0  0  0
 23 24  1  0  0  0  0
 24 25  1  0  0  0  0
 24 26  2  0  0  0  0
 24 27  1  0  0  0  0
 28 29  1  0  0  0  0
 28 30  1  0  0  0  0
 28 31  1  0  0  0  0
 31 32  1  0  0  0  0
 31 33  1  0  0  0  0
 31 34  1  0  0  0  0
 34 35  1  0  0  0  0
 35 36  1  0  0  0  0
 35 37  2  0  0  0  0
 35 38  1  0  0  0  0
 38 39  1  0  0  0  0
 39 40  2  0  0  0  0
 39 41  1  0  0  0  0
 39 42  1  0  0  0  0
 42 44  1  0  0  0  0
 43 44  1  0  0  0  0
 43 47  1  0  0  0  0
 43 51  1  0  0  0  0
 43 55  1  0  0  0  0
 44 45  1  0  0  0  0
 44 46  1  0  0  0  0
 47 48  1  0  0  0  0
 47 49  1  0  0  0  0
 47 50  1  0  0  0  0
 51 52  1  0  0  0  0
 51 53  1  0  0  0  0
 51 54  1  0  0  0  0
 55 56  1  0  0  0  0
 55 57  1  0  0  0  0
 55 59  1  0  0  0  0
 57 58  1  0  0  0  0
 59 60  2  0  0  0  0
 59 61  1  0  0  0  0
 61 62  1  0  0  0  0
 61 63  1  0  0  0  0
 63 64  1  0  0  0  0
 63 65  1  0  0  0  0
 63 66  1  0  0  0  0
 66 67  1  0  0  0  0
 66 68  1  0  0  0  0
 66 69  1  0  0  0  0
 69 70  2  0  0  0  0
 69 71  1  0  0  0  0
 71 72  1  0  0  0  0
 71 73  1  0  0  0  0
 73 74  1  0  0  0  0
 73 75  1  0  0  0  0
 73 76  1  0  0  0  0
 76 77  1  0  0  0  0
 76 78  1  0  0  0  0
 76 79  1  0  0  0  0
 79 80  1  0  0  0  0
 80 81  2  0  0  0  0
 80 82  1  0  0  0  0
 82 83  1  0  0  0  0
 82 84  1  0  0  0  0
 82 85  1  0  0  0  0
M  BCL ATM N_Tr2TrTrPi C_TrTrTrPi H_S N_Tr2TrTrPi C_TrTrTrPi C_TrTrTrPi C_TrTrTrPi N_TrTrTrPi2 H_S H_S N_Tr2TrTrPi C_TrTrTrPi H_S N_TrTrTrPi2 C_TeTeTeTe H_S C_TeTeTeTe H_S O_Te2Te2TeTe H_S C_TeTeTeTe H_S O_Tr2TrTrPi2 P_TeTeTeTePi O_Te2Te2TeTe O_Tr2Tr2TrPi O_Te2Te2Te2Te C_TeTeTeTe H_S O_Te2Te2TeTe C_TeTeTeTe H_S H_S O_Tr2TrTrPi2 P_TeTeTeTePi O_Te2Te2TeTe O_Tr2Tr2TrPi O_Tr2TrTrPi2 P_TeTeTeTePi O_Tr2Tr2TrPi O_Te2Te2Te2Te O_Tr2TrTrPi2 C_TeTeTeTe C_TeTeTeTe H_S H_S C_TeTeTeTe H_S H_S H_S C_TeTeTeTe H_S H_S H_S C_TeTeTeTe H_S O_Te2Te2TeTe H_S C_TrTrTrPi O_Tr2Tr2TrPi N_TrTrTrPi2 H_S C_TeTeTeTe H_S H_S C_TeTeTeTe H_S H_S C_TrTrTrPi O_Tr2Tr2TrPi N_TrTrTrPi2 H_S C_TeTeTeTe H_S H_S C_TeTeTeTe H_S H_S S_Te2Te2TeTe C_TrTrTrPi O_Tr2Tr2TrPi C_TeTeTeTe H_S H_S H_S
M  BCL BND AromaticSingleBond AromaticDoubleBond NonConjugatedSingleBond AromaticDoubleBond AromaticSingleBond AromaticDoubleBond AromaticSingleBond AromaticSingleBond AromaticSingleBond ConjugatedSingleBond NonConjugatedSingleBond NonConjugatedSingleBond AromaticDoubleBond NonConjugatedSingleBond AromaticSingleBond NonConjugatedSingleBond NonConjugatedSingleBond NonConjugatedSingleBondInRing NonConjugatedSingleBondInRing NonConjugatedSingleBond NonConjugatedSingleBond NonConjugatedSingleBondInRing NonConjugatedSingleBond NonConjugatedSingleBond NonConjugatedSingleBond NonConjugatedSingleBondInRing ConjugatedSingleBond ConjugatedSingleBond ConjugatedDoubleBond ConjugatedSingleBond NonConjugatedSingleBond NonConjugatedSingleBondInRing NonConjugatedSingleBond NonConjugatedSingleBond NonConjugatedSingleBond NonConjugatedSingleBond ConjugatedSingleBond ConjugatedSingleBond ConjugatedDoubleBond ConjugatedSingleBond ConjugatedSingleBond ConjugatedDoubleBond ConjugatedSingleBond ConjugatedSingleBond NonConjugatedSingleBond NonConjugatedSingleBond NonConjugatedSingleBond NonConjugatedSingleBond NonConjugatedSingleBond NonConjugatedSingleBond NonConjugatedSingleBond NonConjugatedSingleBond NonConjugatedSingleBond NonConjugatedSingleBond NonConjugatedSingleBond NonConjugatedSingleBond NonConjugatedSingleBond NonConjugatedSingleBond NonConjugatedSingleBond NonConjugatedSingleBond NonConjugatedSingleBond ConjugatedDoubleBond AmideSingleBond NonConjugatedSingleBond NonConjugatedSingleBond NonConjugatedSingleBond NonConjugatedSingleBond NonConjugatedSingleBond NonConjugatedSingleBond NonConjugatedSingleBond NonConjugatedSingleBond ConjugatedDoubleBond AmideSingleBond NonConjugatedSingleBond NonConjugatedSingleBond NonConjugatedSingleBond NonConjugatedSingleBond NonConjugatedSingleBond NonConjugatedSingleBond NonConjugatedSingleBond NonConjugatedSingleBond ConjugatedSingleBond ConjugatedDoubleBond NonConjugatedSingleBond NonConjugatedSingleBond NonConjugatedSingleBond NonConjugatedSingleBond
M  BCL CHI  15   S  17   S  21   S  24   S  28   R  35   R  39   R  55   S
M  BCL DBI - - - - - - - - - -
M  END
> <ConfClashScore>
0 

> <ConfOneFourInteractionScore>
-0.978398 

> <ConfScore>
-0.0764113 

> <ConfScorePBest>
0.0149955 

> <ConfTolerance>
2.53277 

$$$$
ACO.****
  PyMOL2.5          3D                             0

 85 87  0  0  0  0  0  0  0  0999 V2000
    4.8809    1.0695  -10.6485 N   0  0  0  1  0  0  0  0  0  0  0  0
    3.8302    1.8978  -10.5388 C   0  0  0  1  0  0  0  0  0  0  0  0
    3.7948    2.6734  -11.2308 H   0  0  0  1  0  0  0  0  0  0  0  0
    2.8304    1.8607   -9.6665 N   0  0  0  1  0  0  0  0  0  0  0  0
    2.9572    0.8329   -8.8260 C   0  0  0  1  0  0  0  0  0  0  0  0
    3.9913   -0.1127   -8.8094 C   0  0  0  1  0  0  0  0  0  0  0  0
    4.9756    0.0583   -9.7783 C   0  0  0  1  0  0  0  0  0  0  0  0
    6.0614   -0.7690   -9.8949 N   0  0  0  1  0  0  0  0  0  0  0  0
    6.6379   -0.7124  -10.6853 H   0  0  0  1  0  0  0  0  0  0  0  0
    6.2615   -1.4173   -9.1878 H   0  0  0  1  0  0  0  0  0  0  0  0
    3.7919   -1.0246   -7.7846 N   0  0  0  1  0  0  0  0  0  0  0  0
    2.6802   -0.6235   -7.2305 C   0  0  0  1  0  0  0  0  0  0  0  0
    2.2509   -1.1136   -6.4199 H   0  0  0  1  0  0  0  0  0  0  0  0
    2.1251    0.4844   -7.7936 N   0  0  0  1  0  0  0  0  0  0  0  0
    0.8837    1.1700   -7.3792 C   0  0  0  1  0  0  0  0  0  0  0  0
    0.6770    1.9737   -8.0547 H   0  0  0  1  0  0  0  0  0  0  0  0
   -0.2910    0.1725   -7.3738 C   0  0  0  1  0  0  0  0  0  0  0  0
    0.0431   -0.8192   -7.1505 H   0  0  0  1  0  0  0  0  0  0  0  0
   -0.9780    0.1736   -8.6280 O   0  0  0  1  0  0  0  0  0  0  0  0
   -0.6288    0.8740   -9.1841 H   0  0  0  1  0  0  0  0  0  0  0  0
   -1.1795    0.7261   -6.2523 C   0  0  0  1  0  0  0  0  0  0  0  0
   -1.7060   -0.0619   -5.7555 H   0  0  0  1  0  0  0  0  0  0  0  0
   -2.1254    1.6877   -6.7678 O   0  0  0  1  0  0  0  0  0  0  0  0
   -3.7497    1.4695   -6.7069 P   0  0  0  1  0  0  0  0  0  0  0  0
   -4.2217    1.1034   -5.1795 O   0  0  0  0  0  0  0  0  0  0  0  0
   -4.3671    2.6885   -7.2755 O   0  0  0  1  0  0  0  0  0  0  0  0
   -4.0918    0.1596   -7.5966 O   0  5  0  1  0  0  0  0  0  0  0  0
   -0.1733    1.3958   -5.3083 C   0  0  0  1  0  0  0  0  0  0  0  0
   -0.5775    2.3116   -4.9303 H   0  0  0  1  0  0  0  0  0  0  0  0
    1.0227    1.6621   -6.0841 O   0  0  0  1  0  0  0  0  0  0  0  0
    0.1465    0.4844   -4.1695 C   0  0  0  1  0  0  0  0  0  0  0  0
    0.3323   -0.5040   -4.5348 H   0  0  0  1  0  0  0  0  0  0  0  0
   -0.6711    0.4623   -3.4797 H   0  0  0  1  0  0  0  0  0  0  0  0
    1.3215    0.9945   -3.5192 O   0  0  0  1  0  0  0  0  0  0  0  0
    1.9315    0.4420   -2.1730 P   0  0  0  1  0  0  0  0  0  0  0  0
    3.0246    1.3471   -1.6629 O   0  0  0  0  0  0  0  0  0  0  0  0
    2.3136   -0.9441   -2.4835 O   0  0  0  1  0  0  0  0  0  0  0  0
    0.6141    0.3837   -1.2390 O   0  0  0  1  0  0  0  0  0  0  0  0
   -0.0769    1.3071   -0.0730 P   0  0  0  1  0  0  0  0  0  0  0  0
    0.6300    0.9685    1.1824 O   0  0  0  1  0  0  0  0  0  0  0  0
    0.1780    2.8395   -0.5324 O   0  5  0  1  0  0  0  0  0  0  0  0
   -1.6040    0.9305   -0.0242 O   0  0  0  1  0  0  0  0  0  0  0  0
   -3.6437    0.5955    1.1387 C   0  0  0  1  0  0  0  0  0  0  0  0
   -2.4792    1.5141    0.9652 C   0  0  0  1  0  0  0  0  0  0  0  0
   -2.8178    2.4729    0.6321 H   0  0  0  1  0  0  0  0  0  0  0  0
   -1.9586    1.6219    1.8938 H   0  0  0  1  0  0  0  0  0  0  0  0
   -3.2529   -0.6591    1.9248 C   0  0  0  1  0  0  0  0  0  0  0  0
   -2.9580   -0.3824    2.9155 H   0  0  0  1  0  0  0  0  0  0  0  0
   -2.4377   -1.1479    1.4336 H   0  0  0  1  0  0  0  0  0  0  0  0
   -4.0901   -1.3235    1.9748 H   0  0  0  1  0  0  0  0  0  0  0  0
   -4.2601    0.1949   -0.2038 C   0  0  0  1  0  0  0  0  0  0  0  0
   -4.4471    1.0723   -0.7869 H   0  0  0  1  0  0  0  0  0  0  0  0
   -5.1810   -0.3224   -0.0329 H   0  0  0  1  0  0  0  0  0  0  0  0
   -3.5831   -0.4452   -0.7300 H   0  0  0  1  0  0  0  0  0  0  0  0
   -4.6898    1.3729    1.9439 C   0  0  0  1  0  0  0  0  0  0  0  0
   -4.2053    1.7338    2.8271 H   0  0  0  1  0  0  0  0  0  0  0  0
   -5.1082    2.5013    1.1634 O   0  0  0  1  0  0  0  0  0  0  0  0
   -4.6717    2.4793    0.3087 H   0  0  0  1  0  0  0  0  0  0  0  0
   -5.8828    0.5572    2.3827 C   0  0  0  1  0  0  0  0  0  0  0  0
   -5.7361   -0.4708    3.0425 O   0  0  0  1  0  0  0  0  0  0  0  0
   -7.1051    0.9873    2.0316 N   0  0  0  1  0  0  0  0  0  0  0  0
   -7.1831    1.8033    1.4946 H   0  0  0  1  0  0  0  0  0  0  0  0
   -8.3182    0.2840    2.4207 C   0  0  0  1  0  0  0  0  0  0  0  0
   -9.1270    0.9841    2.4470 H   0  0  0  1  0  0  0  0  0  0  0  0
   -8.1750   -0.1331    3.3956 H   0  0  0  1  0  0  0  0  0  0  0  0
   -8.6739   -0.8311    1.4643 C   0  0  0  1  0  0  0  0  0  0  0  0
   -9.4433   -1.4212    1.9168 H   0  0  0  1  0  0  0  0  0  0  0  0
   -7.8010   -1.4327    1.3194 H   0  0  0  1  0  0  0  0  0  0  0  0
   -9.1693   -0.3834    0.0937 C   0  0  0  1  0  0  0  0  0  0  0  0
   -9.2756    0.8246   -0.1140 O   0  0  0  1  0  0  0  0  0  0  0  0
   -9.4620   -1.3235   -0.8094 N   0  0  0  1  0  0  0  0  0  0  0  0
   -9.2718   -2.2607   -0.5951 H   0  0  0  1  0  0  0  0  0  0  0  0
  -10.0529   -1.0045   -2.0992 C   0  0  0  1  0  0  0  0  0  0  0  0
  -10.7266   -0.1827   -1.9738 H   0  0  0  1  0  0  0  0  0  0  0  0
  -10.5932   -1.8590   -2.4495 H   0  0  0  1  0  0  0  0  0  0  0  0
   -9.0117   -0.6264   -3.1399 C   0  0  0  1  0  0  0  0  0  0  0  0
   -9.4208   -0.8081   -4.1118 H   0  0  0  1  0  0  0  0  0  0  0  0
   -8.1478   -1.2409   -2.9954 H   0  0  0  1  0  0  0  0  0  0  0  0
   -8.5060    1.1075   -3.0445 S   0  0  0  1  0  0  0  0  0  0  0  0
   -7.2706    1.2039   -4.2884 C   0  0  0  1  0  0  0  0  0  0  0  0
   -6.9911    0.3191   -5.0515 O   0  0  0  1  0  0  0  0  0  0  0  0
   -6.4877    2.5256   -4.2588 C   0  0  0  1  0  0  0  0  0  0  0  0
   -7.1363    3.3311   -4.5334 H   0  0  0  1  0  0  0  0  0  0  0  0
   -5.6727    2.4726   -4.9501 H   0  0  0  1  0  0  0  0  0  0  0  0
   -6.1090    2.6934   -3.2723 H   0  0  0  1  0  0  0  0  0  0  0  0
  1  2  1  0  0  0  0
  1  7  2  0  0  0  0
  2  3  1  0  0  0  0
  2  4  2  0  0  0  0
  4  5  1  0  0  0  0
  5  6  2  0  0  0  0
  5 14  1  0  0  0  0
  6  7  1  0  0  0  0
  6 11  1  0  0  0  0
  7  8  1  0  0  0  0
  8  9  1  0  0  0  0
  8 10  1  0  0  0  0
 11 12  2  0  0  0  0
 12 13  1  0  0  0  0
 12 14  1  0  0  0  0
 14 15  1  0  0  0  0
 15 16  1  0  0  0  0
 15 17  1  0  0  0  0
 15 30  1  0  0  0  0
 17 18  1  0  0  0  0
 17 19  1  0  0  0  0
 17 21  1  0  0  0  0
 19 20  1  0  0  0  0
 21 22  1  0  0  0  0
 21 23  1  0  0  0  0
 21 28  1  0  0  0  0
 23 24  1  0  0  0  0
 24 25  1  0  0  0  0
 24 26  2  0  0  0  0
 24 27  1  0  0  0  0
 28 29  1  0  0  0  0
 28 30  1  0  0  0  0
 28 31  1  0  0  0  0
 31 32  1  0  0  0  0
 31 33  1  0  0  0  0
 31 34  1  0  0  0  0
 34 35  1  0  0  0  0
 35 36  1  0  0  0  0
 35 37  2  0  0  0  0
 35 38  1  0  0  0  0
 38 39  1  0  0  0  0
 39 40  2  0  0  0  0
 39 41  1  0  0  0  0
 39 42  1  0  0  0  0
 42 44  1  0  0  0  0
 43 44  1  0  0  0  0
 43 47  1  0  0  0  0
 43 51  1  0  0  0  0
 43 55  1  0  0  0  0
 44 45  1  0  0  0  0
 44 46  1  0  0  0  0
 47 48  1  0  0  0  0
 47 49  1  0  0  0  0
 47 50  1  0  0  0  0
 51 52  1  0  0  0  0
 51 53  1  0  0  0  0
 51 54  1  0  0  0  0
 55 56  1  0  0  0  0
 55 57  1  0  0  0  0
 55 59  1  0  0  0  0
 57 58  1  0  0  0  0
 59 60  2  0  0  0  0
 59 61  1  0  0  0  0
 61 62  1  0  0  0  0
 61 63  1  0  0  0  0
 63 64  1  0  0  0  0
 63 65  1  0  0  0  0
 63 66  1  0  0  0  0
 66 67  1  0  0  0  0
 66 68  1  0  0  0  0
 66 69  1  0  0  0  0
 69 70  2  0  0  0  0
 69 71  1  0  0  0  0
 71 72  1  0  0  0  0
 71 73  1  0  0  0  0
 73 74  1  0  0  0  0
 73 75  1  0  0  0  0
 73 76  1  0  0  0  0
 76 77  1  0  0  0  0
 76 78  1  0  0  0  0
 76 79  1  0  0  0  0
 79 80  1  0  0  0  0
 80 81  2  0  0  0  0
 80 82  1  0  0  0  0
 82 83  1  0  0  0  0
 82 84  1  0  0  0  0
 82 85  1  0  0  0  0
M  BCL ATM N_Tr2TrTrPi C_TrTrTrPi H_S N_Tr2TrTrPi C_TrTrTrPi C_TrTrTrPi C_TrTrTrPi N_TrTrTrPi2 H_S H_S N_Tr2TrTrPi C_TrTrTrPi H_S N_TrTrTrPi2 C_TeTeTeTe H_S C_TeTeTeTe H_S O_Te2Te2TeTe H_S C_TeTeTeTe H_S O_Tr2TrTrPi2 P_TeTeTeTePi O_Te2Te2TeTe O_Tr2Tr2TrPi O_Te2Te2Te2Te C_TeTeTeTe H_S O_Te2Te2TeTe C_TeTeTeTe H_S H_S O_Tr2TrTrPi2 P_TeTeTeTePi O_Te2Te2TeTe O_Tr2Tr2TrPi O_Tr2TrTrPi2 P_TeTeTeTePi O_Tr2Tr2TrPi O_Te2Te2Te2Te O_Tr2TrTrPi2 C_TeTeTeTe C_TeTeTeTe H_S H_S C_TeTeTeTe H_S H_S H_S C_TeTeTeTe H_S H_S H_S C_TeTeTeTe H_S O_Te2Te2TeTe H_S C_TrTrTrPi O_Tr2Tr2TrPi N_TrTrTrPi2 H_S C_TeTeTeTe H_S H_S C_TeTeTeTe H_S H_S C_TrTrTrPi O_Tr2Tr2TrPi N_TrTrTrPi2 H_S C_TeTeTeTe H_S H_S C_TeTeTeTe H_S H_S S_Te2Te2TeTe C_TrTrTrPi O_Tr2Tr2TrPi C_TeTeTeTe H_S H_S H_S
M  BCL BND AromaticSingleBond AromaticDoubleBond NonConjugatedSingleBond AromaticDoubleBond AromaticSingleBond AromaticDoubleBond AromaticSingleBond AromaticSingleBond AromaticSingleBond ConjugatedSingleBond NonConjugatedSingleBond NonConjugatedSingleBond AromaticDoubleBond NonConjugatedSingleBond AromaticSingleBond NonConjugatedSingleBond NonConjugatedSingleBond NonConjugatedSingleBondInRing NonConjugatedSingleBondInRing NonConjugatedSingleBond NonConjugatedSingleBond NonConjugatedSingleBondInRing NonConjugatedSingleBond NonConjugatedSingleBond NonConjugatedSingleBond NonConjugatedSingleBondInRing ConjugatedSingleBond ConjugatedSingleBond ConjugatedDoubleBond ConjugatedSingleBond NonConjugatedSingleBond NonConjugatedSingleBondInRing NonConjugatedSingleBond NonConjugatedSingleBond NonConjugatedSingleBond NonConjugatedSingleBond ConjugatedSingleBond ConjugatedSingleBond ConjugatedDoubleBond ConjugatedSingleBond ConjugatedSingleBond ConjugatedDoubleBond ConjugatedSingleBond ConjugatedSingleBond NonConjugatedSingleBond NonConjugatedSingleBond NonConjugatedSingleBond NonConjugatedSingleBond NonConjugatedSingleBond NonConjugatedSingleBond NonConjugatedSingleBond NonConjugatedSingleBond NonConjugatedSingleBond NonConjugatedSingleBond NonConjugatedSingleBond NonConjugatedSingleBond NonConjugatedSingleBond NonConjugatedSingleBond NonConjugatedSingleBond NonConjugatedSingleBond NonConjugatedSingleBond ConjugatedDoubleBond AmideSingleBond NonConjugatedSingleBond NonConjugatedSingleBond NonConjugatedSingleBond NonConjugatedSingleBond NonConjugatedSingleBond NonConjugatedSingleBond NonConjugatedSingleBond NonConjugatedSingleBond ConjugatedDoubleBond AmideSingleBond NonConjugatedSingleBond NonConjugatedSingleBond NonConjugatedSingleBond NonConjugatedSingleBond NonConjugatedSingleBond NonConjugatedSingleBond NonConjugatedSingleBond NonConjugatedSingleBond ConjugatedSingleBond ConjugatedDoubleBond NonConjugatedSingleBond NonConjugatedSingleBond NonConjugatedSingleBond NonConjugatedSingleBond
M  BCL CHI  15   S  17   S  21   S  24   S  28   R  35   R  39   R  55   S
M  BCL DBI - - - - - - - - - -
M  END
> <ConfClashScore>
0 

> <ConfOneFourInteractionScore>
-0.981849 

> <ConfScore>
-0.0753912 

> <ConfScorePBest>
0.0148925 

> <ConfTolerance>
2.4104 

$$$$
ACO.****
  PyMOL2.5          3D                             0

 85 87  0  0  0  0  0  0  0  0999 V2000
    4.8934    1.0604  -10.6238 N   0  0  0  1  0  0  0  0  0  0  0  0
    3.8484    1.8967  -10.5218 C   0  0  0  1  0  0  0  0  0  0  0  0
    3.8258    2.6746  -11.2117 H   0  0  0  1  0  0  0  0  0  0  0  0
    2.8400    1.8650   -9.6592 N   0  0  0  1  0  0  0  0  0  0  0  0
    2.9505    0.8337   -8.8206 C   0  0  0  1  0  0  0  0  0  0  0  0
    3.9768   -0.1201   -8.7969 C   0  0  0  1  0  0  0  0  0  0  0  0
    4.9717    0.0459   -9.7558 C   0  0  0  1  0  0  0  0  0  0  0  0
    6.0885   -0.7675   -9.9143 N   0  0  0  1  0  0  0  0  0  0  0  0
    6.2532   -1.5015   -9.2863 H   0  0  0  1  0  0  0  0  0  0  0  0
    6.7108   -0.6067  -10.6541 H   0  0  0  1  0  0  0  0  0  0  0  0
    3.7604   -1.0334   -7.7768 N   0  0  0  1  0  0  0  0  0  0  0  0
    2.6466   -0.6252   -7.2322 C   0  0  0  1  0  0  0  0  0  0  0  0
    2.2056   -1.1142   -6.4273 H   0  0  0  1  0  0  0  0  0  0  0  0
    2.1057    0.4888   -7.7973 N   0  0  0  1  0  0  0  0  0  0  0  0
    0.8756    1.1776   -7.3959 C   0  0  0  1  0  0  0  0  0  0  0  0
    1.0252    2.2358   -7.4490 H   0  0  0  1  0  0  0  0  0  0  0  0
   -0.3175    0.7420   -8.2834 C   0  0  0  1  0  0  0  0  0  0  0  0
   -0.2626   -0.2991   -8.5243 H   0  0  0  1  0  0  0  0  0  0  0  0
   -0.3746    1.5086   -9.4893 O   0  0  0  1  0  0  0  0  0  0  0  0
   -0.5649    0.9278  -10.2295 H   0  0  0  1  0  0  0  0  0  0  0  0
   -1.5314    1.0445   -7.3658 C   0  0  0  1  0  0  0  0  0  0  0  0
   -2.2692    0.2735   -7.4451 H   0  0  0  1  0  0  0  0  0  0  0  0
   -2.1254    2.3166   -7.7037 O   0  0  0  1  0  0  0  0  0  0  0  0
   -3.4236    2.9375   -6.9171 P   0  0  0  1  0  0  0  0  0  0  0  0
   -3.7598    4.2346   -7.8627 O   0  0  0  0  0  0  0  0  0  0  0  0
   -4.5620    1.9917   -6.9161 O   0  0  0  1  0  0  0  0  0  0  0  0
   -2.9432    3.4929   -5.4731 O   0  5  0  1  0  0  0  0  0  0  0  0
   -0.9282    1.0813   -5.9480 C   0  0  0  1  0  0  0  0  0  0  0  0
   -1.0573    2.0539   -5.5210 H   0  0  0  1  0  0  0  0  0  0  0  0
    0.4715    0.7799   -6.0686 O   0  0  0  1  0  0  0  0  0  0  0  0
   -1.5965    0.0642   -5.0826 C   0  0  0  1  0  0  0  0  0  0  0  0
   -1.1174    0.0278   -4.1266 H   0  0  0  1  0  0  0  0  0  0  0  0
   -1.5439   -0.8991   -5.5454 H   0  0  0  1  0  0  0  0  0  0  0  0
   -2.9823    0.4617   -4.9257 O   0  0  0  1  0  0  0  0  0  0  0  0
   -4.0212   -0.3600   -4.0825 P   0  0  0  1  0  0  0  0  0  0  0  0
   -5.3695    0.1436   -4.4892 O   0  0  0  0  0  0  0  0  0  0  0  0
   -3.7308   -0.2949   -2.6381 O   0  0  0  1  0  0  0  0  0  0  0  0
   -3.8721   -1.9092   -4.5236 O   0  0  0  1  0  0  0  0  0  0  0  0
   -4.5257   -3.1785   -3.7165 P   0  0  0  1  0  0  0  0  0  0  0  0
   -3.5038   -3.5204   -2.7021 O   0  0  0  1  0  0  0  0  0  0  0  0
   -6.0190   -2.7648   -3.2439 O   0  5  0  1  0  0  0  0  0  0  0  0
   -4.7158   -4.3167   -4.7863 O   0  0  0  1  0  0  0  0  0  0  0  0
   -5.6516   -6.2741   -5.7444 C   0  0  0  1  0  0  0  0  0  0  0  0
   -5.4783   -5.5035   -4.4771 C   0  0  0  1  0  0  0  0  0  0  0  0
   -6.4349   -5.2297   -4.0834 H   0  0  0  1  0  0  0  0  0  0  0  0
   -4.9530   -6.0972   -3.7585 H   0  0  0  1  0  0  0  0  0  0  0  0
   -6.3340   -5.3828   -6.7859 C   0  0  0  1  0  0  0  0  0  0  0  0
   -7.1856   -4.9072   -6.3460 H   0  0  0  1  0  0  0  0  0  0  0  0
   -6.6486   -5.9808   -7.6155 H   0  0  0  1  0  0  0  0  0  0  0  0
   -5.6446   -4.6375   -7.1238 H   0  0  0  1  0  0  0  0  0  0  0  0
   -6.5577   -7.4717   -5.4661 C   0  0  0  1  0  0  0  0  0  0  0  0
   -7.4788   -7.1315   -5.0409 H   0  0  0  1  0  0  0  0  0  0  0  0
   -6.0720   -8.1344   -4.7807 H   0  0  0  1  0  0  0  0  0  0  0  0
   -6.7571   -7.9881   -6.3818 H   0  0  0  1  0  0  0  0  0  0  0  0
   -4.2968   -6.7675   -6.2581 C   0  0  0  1  0  0  0  0  0  0  0  0
   -3.6765   -5.9070   -6.3983 H   0  0  0  1  0  0  0  0  0  0  0  0
   -3.6742   -7.6314   -5.3278 O   0  0  0  1  0  0  0  0  0  0  0  0
   -4.3405   -8.1714   -4.8963 H   0  0  0  1  0  0  0  0  0  0  0  0
   -4.4885   -7.4180   -7.6197 C   0  0  0  1  0  0  0  0  0  0  0  0
   -4.9664   -6.7981   -8.5690 O   0  0  0  1  0  0  0  0  0  0  0  0
   -4.0914   -8.6994   -7.6663 N   0  0  0  1  0  0  0  0  0  0  0  0
   -3.7494   -9.1186   -6.8491 H   0  0  0  1  0  0  0  0  0  0  0  0
   -4.1510   -9.4879   -8.8880 C   0  0  0  1  0  0  0  0  0  0  0  0
   -3.5240   -9.0287   -9.6234 H   0  0  0  1  0  0  0  0  0  0  0  0
   -5.1619   -9.5012   -9.2385 H   0  0  0  1  0  0  0  0  0  0  0  0
   -3.6870  -10.9264   -8.6794 C   0  0  0  1  0  0  0  0  0  0  0  0
   -4.3381  -11.4070   -7.9795 H   0  0  0  1  0  0  0  0  0  0  0  0
   -2.6892  -10.9206   -8.2931 H   0  0  0  1  0  0  0  0  0  0  0  0
   -3.7094  -11.6936   -9.9871 C   0  0  0  1  0  0  0  0  0  0  0  0
   -4.0174  -11.1446  -11.0441 O   0  0  0  1  0  0  0  0  0  0  0  0
   -3.3764  -12.9850   -9.9082 N   0  0  0  1  0  0  0  0  0  0  0  0
   -3.2504  -13.3878   -9.0237 H   0  0  0  1  0  0  0  0  0  0  0  0
   -3.1943  -13.8138  -11.0890 C   0  0  0  1  0  0  0  0  0  0  0  0
   -2.4988  -14.5931  -10.8570 H   0  0  0  1  0  0  0  0  0  0  0  0
   -2.8003  -13.2063  -11.8768 H   0  0  0  1  0  0  0  0  0  0  0  0
   -4.4878  -14.4429  -11.5621 C   0  0  0  1  0  0  0  0  0  0  0  0
   -4.9690  -14.9021  -10.7239 H   0  0  0  1  0  0  0  0  0  0  0  0
   -4.2556  -15.1887  -12.2933 H   0  0  0  1  0  0  0  0  0  0  0  0
   -5.6315  -13.2515  -12.2995 S   0  0  0  1  0  0  0  0  0  0  0  0
   -6.3699  -12.4449  -10.9218 C   0  0  0  1  0  0  0  0  0  0  0  0
   -6.0925  -12.6657   -9.7774 O   0  0  0  1  0  0  0  0  0  0  0  0
   -7.4507  -11.3805  -11.2546 C   0  0  0  1  0  0  0  0  0  0  0  0
   -7.6194  -11.3610  -12.3110 H   0  0  0  1  0  0  0  0  0  0  0  0
   -7.1150  -10.4179  -10.9294 H   0  0  0  1  0  0  0  0  0  0  0  0
   -8.3623  -11.6291  -10.7526 H   0  0  0  1  0  0  0  0  0  0  0  0
  1  2  1  0  0  0  0
  1  7  2  0  0  0  0
  2  3  1  0  0  0  0
  2  4  2  0  0  0  0
  4  5  1  0  0  0  0
  5  6  2  0  0  0  0
  5 14  1  0  0  0  0
  6  7  1  0  0  0  0
  6 11  1  0  0  0  0
  7  8  1  0  0  0  0
  8  9  1  0  0  0  0
  8 10  1  0  0  0  0
 11 12  2  0  0  0  0
 12 13  1  0  0  0  0
 12 14  1  0  0  0  0
 14 15  1  0  0  0  0
 15 16  1  0  0  0  0
 15 17  1  0  0  0  0
 15 30  1  0  0  0  0
 17 18  1  0  0  0  0
 17 19  1  0  0  0  0
 17 21  1  0  0  0  0
 19 20  1  0  0  0  0
 21 22  1  0  0  0  0
 21 23  1  0  0  0  0
 21 28  1  0  0  0  0
 23 24  1  0  0  0  0
 24 25  1  0  0  0  0
 24 26  2  0  0  0  0
 24 27  1  0  0  0  0
 28 29  1  0  0  0  0
 28 30  1  0  0  0  0
 28 31  1  0  0  0  0
 31 32  1  0  0  0  0
 31 33  1  0  0  0  0
 31 34  1  0  0  0  0
 34 35  1  0  0  0  0
 35 36  1  0  0  0  0
 35 37  2  0  0  0  0
 35 38  1  0  0  0  0
 38 39  1  0  0  0  0
 39 40  2  0  0  0  0
 39 41  1  0  0  0  0
 39 42  1  0  0  0  0
 42 44  1  0  0  0  0
 43 44  1  0  0  0  0
 43 47  1  0  0  0  0
 43 51  1  0  0  0  0
 43 55  1  0  0  0  0
 44 45  1  0  0  0  0
 44 46  1  0  0  0  0
 47 48  1  0  0  0  0
 47 49  1  0  0  0  0
 47 50  1  0  0  0  0
 51 52  1  0  0  0  0
 51 53  1  0  0  0  0
 51 54  1  0  0  0  0
 55 56  1  0  0  0  0
 55 57  1  0  0  0  0
 55 59  1  0  0  0  0
 57 58  1  0  0  0  0
 59 60  2  0  0  0  0
 59 61  1  0  0  0  0
 61 62  1  0  0  0  0
 61 63  1  0  0  0  0
 63 64  1  0  0  0  0
 63 65  1  0  0  0  0
 63 66  1  0  0  0  0
 66 67  1  0  0  0  0
 66 68  1  0  0  0  0
 66 69  1  0  0  0  0
 69 70  2  0  0  0  0
 69 71  1  0  0  0  0
 71 72  1  0  0  0  0
 71 73  1  0  0  0  0
 73 74  1  0  0  0  0
 73 75  1  0  0  0  0
 73 76  1  0  0  0  0
 76 77  1  0  0  0  0
 76 78  1  0  0  0  0
 76 79  1  0  0  0  0
 79 80  1  0  0  0  0
 80 81  2  0  0  0  0
 80 82  1  0  0  0  0
 82 83  1  0  0  0  0
 82 84  1  0  0  0  0
 82 85  1  0  0  0  0
M  BCL ATM N_Tr2TrTrPi C_TrTrTrPi H_S N_Tr2TrTrPi C_TrTrTrPi C_TrTrTrPi C_TrTrTrPi N_TrTrTrPi2 H_S H_S N_Tr2TrTrPi C_TrTrTrPi H_S N_TrTrTrPi2 C_TeTeTeTe H_S C_TeTeTeTe H_S O_Te2Te2TeTe H_S C_TeTeTeTe H_S O_Tr2TrTrPi2 P_TeTeTeTePi O_Te2Te2TeTe O_Tr2Tr2TrPi O_Te2Te2Te2Te C_TeTeTeTe H_S O_Te2Te2TeTe C_TeTeTeTe H_S H_S O_Tr2TrTrPi2 P_TeTeTeTePi O_Te2Te2TeTe O_Tr2Tr2TrPi O_Tr2TrTrPi2 P_TeTeTeTePi O_Tr2Tr2TrPi O_Te2Te2Te2Te O_Tr2TrTrPi2 C_TeTeTeTe C_TeTeTeTe H_S H_S C_TeTeTeTe H_S H_S H_S C_TeTeTeTe H_S H_S H_S C_TeTeTeTe H_S O_Te2Te2TeTe H_S C_TrTrTrPi O_Tr2Tr2TrPi N_TrTrTrPi2 H_S C_TeTeTeTe H_S H_S C_TeTeTeTe H_S H_S C_TrTrTrPi O_Tr2Tr2TrPi N_TrTrTrPi2 H_S C_TeTeTeTe H_S H_S C_TeTeTeTe H_S H_S S_Te2Te2TeTe C_TrTrTrPi O_Tr2Tr2TrPi C_TeTeTeTe H_S H_S H_S
M  BCL BND AromaticSingleBond AromaticDoubleBond NonConjugatedSingleBond AromaticDoubleBond AromaticSingleBond AromaticDoubleBond AromaticSingleBond AromaticSingleBond AromaticSingleBond ConjugatedSingleBond NonConjugatedSingleBond NonConjugatedSingleBond AromaticDoubleBond NonConjugatedSingleBond AromaticSingleBond NonConjugatedSingleBond NonConjugatedSingleBond NonConjugatedSingleBondInRing NonConjugatedSingleBondInRing NonConjugatedSingleBond NonConjugatedSingleBond NonConjugatedSingleBondInRing NonConjugatedSingleBond NonConjugatedSingleBond NonConjugatedSingleBond NonConjugatedSingleBondInRing ConjugatedSingleBond ConjugatedSingleBond ConjugatedDoubleBond ConjugatedSingleBond NonConjugatedSingleBond NonConjugatedSingleBondInRing NonConjugatedSingleBond NonConjugatedSingleBond NonConjugatedSingleBond NonConjugatedSingleBond ConjugatedSingleBond ConjugatedSingleBond ConjugatedDoubleBond ConjugatedSingleBond ConjugatedSingleBond ConjugatedDoubleBond ConjugatedSingleBond ConjugatedSingleBond NonConjugatedSingleBond NonConjugatedSingleBond NonConjugatedSingleBond NonConjugatedSingleBond NonConjugatedSingleBond NonConjugatedSingleBond NonConjugatedSingleBond NonConjugatedSingleBond NonConjugatedSingleBond NonConjugatedSingleBond NonConjugatedSingleBond NonConjugatedSingleBond NonConjugatedSingleBond NonConjugatedSingleBond NonConjugatedSingleBond NonConjugatedSingleBond NonConjugatedSingleBond ConjugatedDoubleBond AmideSingleBond NonConjugatedSingleBond NonConjugatedSingleBond NonConjugatedSingleBond NonConjugatedSingleBond NonConjugatedSingleBond NonConjugatedSingleBond NonConjugatedSingleBond NonConjugatedSingleBond ConjugatedDoubleBond AmideSingleBond NonConjugatedSingleBond NonConjugatedSingleBond NonConjugatedSingleBond NonConjugatedSingleBond NonConjugatedSingleBond NonConjugatedSingleBond NonConjugatedSingleBond NonConjugatedSingleBond ConjugatedSingleBond ConjugatedDoubleBond NonConjugatedSingleBond NonConjugatedSingleBond NonConjugatedSingleBond NonConjugatedSingleBond
M  BCL CHI  15   S  17   S  21   S  24   S  28   R  35   R  39   R  55   S
M  BCL DBI - - - - - - - - - -
M  END
> <ConfClashScore>
0 

> <ConfOneFourInteractionScore>
-0.980828 

> <ConfScore>
-0.0725587 

> <ConfScorePBest>
0.0147895 

> <ConfTolerance>
2.287 

$$$$
ACO.****
  PyMOL2.5          3D                             0

 85 87  0  0  0  0  0  0  0  0999 V2000
    4.8874    1.0470  -10.6203 N   0  0  0  1  0  0  0  0  0  0  0  0
    3.8383    1.8792  -10.5268 C   0  0  0  1  0  0  0  0  0  0  0  0
    3.8147    2.6530  -11.2213 H   0  0  0  1  0  0  0  0  0  0  0  0
    2.8269    1.8479   -9.6677 N   0  0  0  1  0  0  0  0  0  0  0  0
    2.9390    0.8220   -8.8228 C   0  0  0  1  0  0  0  0  0  0  0  0
    3.9695   -0.1271   -8.7899 C   0  0  0  1  0  0  0  0  0  0  0  0
    4.9672    0.0378   -9.7462 C   0  0  0  1  0  0  0  0  0  0  0  0
    6.1072   -0.7497   -9.9315 N   0  0  0  1  0  0  0  0  0  0  0  0
    6.7019   -0.5797  -10.6916 H   0  0  0  1  0  0  0  0  0  0  0  0
    6.3116   -1.4718   -9.3013 H   0  0  0  1  0  0  0  0  0  0  0  0
    3.7535   -1.0355   -7.7653 N   0  0  0  1  0  0  0  0  0  0  0  0
    2.6359   -0.6291   -7.2271 C   0  0  0  1  0  0  0  0  0  0  0  0
    2.1942   -1.1155   -6.4210 H   0  0  0  1  0  0  0  0  0  0  0  0
    2.0921    0.4792   -7.8005 N   0  0  0  1  0  0  0  0  0  0  0  0
    0.9135    1.2163   -7.3407 C   0  0  0  1  0  0  0  0  0  0  0  0
    0.7508    2.0619   -7.9759 H   0  0  0  1  0  0  0  0  0  0  0  0
   -0.2621    0.3438   -7.3543 C   0  0  0  1  0  0  0  0  0  0  0  0
    0.0099   -0.6676   -7.1353 H   0  0  0  1  0  0  0  0  0  0  0  0
   -0.9231    0.3967   -8.6213 O   0  0  0  1  0  0  0  0  0  0  0  0
   -0.2701    0.4771   -9.3204 H   0  0  0  1  0  0  0  0  0  0  0  0
   -1.1277    0.9091   -6.2766 C   0  0  0  1  0  0  0  0  0  0  0  0
   -1.6582    0.1283   -5.7729 H   0  0  0  1  0  0  0  0  0  0  0  0
   -2.0652    1.8497   -6.8245 O   0  0  0  1  0  0  0  0  0  0  0  0
   -3.6826    1.8432   -6.5535 P   0  0  0  1  0  0  0  0  0  0  0  0
   -4.0370    2.0303   -4.9632 O   0  0  0  0  0  0  0  0  0  0  0  0
   -4.5157    2.8033   -7.3115 O   0  0  0  1  0  0  0  0  0  0  0  0
   -4.1087    0.3255   -6.9271 O   0  5  0  1  0  0  0  0  0  0  0  0
   -0.1806    1.5971   -5.3331 C   0  0  0  1  0  0  0  0  0  0  0  0
   -0.5233    2.5887   -5.1226 H   0  0  0  1  0  0  0  0  0  0  0  0
    1.0978    1.6422   -6.0006 O   0  0  0  1  0  0  0  0  0  0  0  0
   -0.0721    0.8357   -4.0738 C   0  0  0  1  0  0  0  0  0  0  0  0
    0.1930   -0.1768   -4.2960 H   0  0  0  1  0  0  0  0  0  0  0  0
   -1.0147    0.8554   -3.5678 H   0  0  0  1  0  0  0  0  0  0  0  0
    0.9423    1.4177   -3.2162 O   0  0  0  1  0  0  0  0  0  0  0  0
    1.2064    0.8393   -1.7526 P   0  0  0  1  0  0  0  0  0  0  0  0
    2.0269    1.7674   -0.9528 O   0  0  0  0  0  0  0  0  0  0  0  0
    1.5456   -0.5437   -1.9000 O   0  0  0  1  0  0  0  0  0  0  0  0
   -0.3074    0.8404   -1.2238 O   0  0  0  1  0  0  0  0  0  0  0  0
   -0.9410    0.2925    0.1861 P   0  0  0  1  0  0  0  0  0  0  0  0
   -1.2238    1.3514    1.1807 O   0  0  0  1  0  0  0  0  0  0  0  0
   -2.3244   -0.5180   -0.0459 O   0  5  0  1  0  0  0  0  0  0  0  0
    0.0075   -0.7764    0.8449 O   0  0  0  1  0  0  0  0  0  0  0  0
    2.0317   -1.6721    1.6967 C   0  0  0  1  0  0  0  0  0  0  0  0
    1.3352   -0.4170    1.2848 C   0  0  0  1  0  0  0  0  0  0  0  0
    1.2744    0.2554    2.1150 H   0  0  0  1  0  0  0  0  0  0  0  0
    1.8700    0.0508    0.4847 H   0  0  0  1  0  0  0  0  0  0  0  0
    2.0338   -2.6703    0.5356 C   0  0  0  1  0  0  0  0  0  0  0  0
    2.4884   -2.2198   -0.3219 H   0  0  0  1  0  0  0  0  0  0  0  0
    1.0270   -2.9467    0.3014 H   0  0  0  1  0  0  0  0  0  0  0  0
    2.5875   -3.5419    0.8160 H   0  0  0  1  0  0  0  0  0  0  0  0
    1.3035   -2.2877    2.9027 C   0  0  0  1  0  0  0  0  0  0  0  0
    0.2797   -1.9764    2.8988 H   0  0  0  1  0  0  0  0  0  0  0  0
    1.7721   -1.9604    3.8072 H   0  0  0  1  0  0  0  0  0  0  0  0
    1.3517   -3.3549    2.8414 H   0  0  0  1  0  0  0  0  0  0  0  0
    3.4629   -1.3505    2.0886 C   0  0  0  1  0  0  0  0  0  0  0  0
    3.4547   -0.6857    2.9270 H   0  0  0  1  0  0  0  0  0  0  0  0
    4.0350   -2.6136    2.4629 O   0  0  0  1  0  0  0  0  0  0  0  0
    4.6298   -2.4884    3.2059 H   0  0  0  1  0  0  0  0  0  0  0  0
    4.1895   -0.6858    0.9357 C   0  0  0  1  0  0  0  0  0  0  0  0
    3.9323    0.4588    0.6008 O   0  0  0  1  0  0  0  0  0  0  0  0
    5.1190   -1.4354    0.3223 N   0  0  0  1  0  0  0  0  0  0  0  0
    5.3021   -2.3442    0.6402 H   0  0  0  1  0  0  0  0  0  0  0  0
    5.8554   -0.9014   -0.8137 C   0  0  0  1  0  0  0  0  0  0  0  0
    5.4100    0.0218   -1.1207 H   0  0  0  1  0  0  0  0  0  0  0  0
    5.8163   -1.6027   -1.6209 H   0  0  0  1  0  0  0  0  0  0  0  0
    7.3060   -0.6560   -0.4322 C   0  0  0  1  0  0  0  0  0  0  0  0
    7.7137   -1.5646   -0.0409 H   0  0  0  1  0  0  0  0  0  0  0  0
    7.3363    0.1028    0.3216 H   0  0  0  1  0  0  0  0  0  0  0  0
    8.1603   -0.2083   -1.6023 C   0  0  0  1  0  0  0  0  0  0  0  0
    7.6560    0.1509   -2.6535 O   0  0  0  1  0  0  0  0  0  0  0  0
    9.4808   -0.2357   -1.4008 N   0  0  0  1  0  0  0  0  0  0  0  0
    9.8198   -0.5137   -0.5244 H   0  0  0  1  0  0  0  0  0  0  0  0
   10.4324    0.1328   -2.4367 C   0  0  0  1  0  0  0  0  0  0  0  0
   11.4165    0.1245   -2.0169 H   0  0  0  1  0  0  0  0  0  0  0  0
   10.1994    1.1187   -2.7813 H   0  0  0  1  0  0  0  0  0  0  0  0
   10.4008   -0.8106   -3.6135 C   0  0  0  1  0  0  0  0  0  0  0  0
    9.3942   -0.8582   -3.9732 H   0  0  0  1  0  0  0  0  0  0  0  0
   10.7037   -1.7780   -3.2709 H   0  0  0  1  0  0  0  0  0  0  0  0
   11.4687   -0.3469   -4.9976 S   0  0  0  1  0  0  0  0  0  0  0  0
   11.4938   -1.7377   -6.1046 C   0  0  0  1  0  0  0  0  0  0  0  0
   10.8901   -2.7567   -5.9032 O   0  0  0  1  0  0  0  0  0  0  0  0
   12.3577   -1.4880   -7.3190 C   0  0  0  1  0  0  0  0  0  0  0  0
   11.9243   -1.9693   -8.1707 H   0  0  0  1  0  0  0  0  0  0  0  0
   13.3373   -1.8824   -7.1468 H   0  0  0  1  0  0  0  0  0  0  0  0
   12.4231   -0.4353   -7.4995 H   0  0  0  1  0  0  0  0  0  0  0  0
  1  2  1  0  0  0  0
  1  7  2  0  0  0  0
  2  3  1  0  0  0  0
  2  4  2  0  0  0  0
  4  5  1  0  0  0  0
  5  6  2  0  0  0  0
  5 14  1  0  0  0  0
  6  7  1  0  0  0  0
  6 11  1  0  0  0  0
  7  8  1  0  0  0  0
  8  9  1  0  0  0  0
  8 10  1  0  0  0  0
 11 12  2  0  0  0  0
 12 13  1  0  0  0  0
 12 14  1  0  0  0  0
 14 15  1  0  0  0  0
 15 16  1  0  0  0  0
 15 17  1  0  0  0  0
 15 30  1  0  0  0  0
 17 18  1  0  0  0  0
 17 19  1  0  0  0  0
 17 21  1  0  0  0  0
 19 20  1  0  0  0  0
 21 22  1  0  0  0  0
 21 23  1  0  0  0  0
 21 28  1  0  0  0  0
 23 24  1  0  0  0  0
 24 25  1  0  0  0  0
 24 26  2  0  0  0  0
 24 27  1  0  0  0  0
 28 29  1  0  0  0  0
 28 30  1  0  0  0  0
 28 31  1  0  0  0  0
 31 32  1  0  0  0  0
 31 33  1  0  0  0  0
 31 34  1  0  0  0  0
 34 35  1  0  0  0  0
 35 36  1  0  0  0  0
 35 37  2  0  0  0  0
 35 38  1  0  0  0  0
 38 39  1  0  0  0  0
 39 40  2  0  0  0  0
 39 41  1  0  0  0  0
 39 42  1  0  0  0  0
 42 44  1  0  0  0  0
 43 44  1  0  0  0  0
 43 47  1  0  0  0  0
 43 51  1  0  0  0  0
 43 55  1  0  0  0  0
 44 45  1  0  0  0  0
 44 46  1  0  0  0  0
 47 48  1  0  0  0  0
 47 49  1  0  0  0  0
 47 50  1  0  0  0  0
 51 52  1  0  0  0  0
 51 53  1  0  0  0  0
 51 54  1  0  0  0  0
 55 56  1  0  0  0  0
 55 57  1  0  0  0  0
 55 59  1  0  0  0  0
 57 58  1  0  0  0  0
 59 60  2  0  0  0  0
 59 61  1  0  0  0  0
 61 62  1  0  0  0  0
 61 63  1  0  0  0  0
 63 64  1  0  0  0  0
 63 65  1  0  0  0  0
 63 66  1  0  0  0  0
 66 67  1  0  0  0  0
 66 68  1  0  0  0  0
 66 69  1  0  0  0  0
 69 70  2  0  0  0  0
 69 71  1  0  0  0  0
 71 72  1  0  0  0  0
 71 73  1  0  0  0  0
 73 74  1  0  0  0  0
 73 75  1  0  0  0  0
 73 76  1  0  0  0  0
 76 77  1  0  0  0  0
 76 78  1  0  0  0  0
 76 79  1  0  0  0  0
 79 80  1  0  0  0  0
 80 81  2  0  0  0  0
 80 82  1  0  0  0  0
 82 83  1  0  0  0  0
 82 84  1  0  0  0  0
 82 85  1  0  0  0  0
M  BCL ATM N_Tr2TrTrPi C_TrTrTrPi H_S N_Tr2TrTrPi C_TrTrTrPi C_TrTrTrPi C_TrTrTrPi N_TrTrTrPi2 H_S H_S N_Tr2TrTrPi C_TrTrTrPi H_S N_TrTrTrPi2 C_TeTeTeTe H_S C_TeTeTeTe H_S O_Te2Te2TeTe H_S C_TeTeTeTe H_S O_Tr2TrTrPi2 P_TeTeTeTePi O_Te2Te2TeTe O_Tr2Tr2TrPi O_Te2Te2Te2Te C_TeTeTeTe H_S O_Te2Te2TeTe C_TeTeTeTe H_S H_S O_Tr2TrTrPi2 P_TeTeTeTePi O_Te2Te2TeTe O_Tr2Tr2TrPi O_Tr2TrTrPi2 P_TeTeTeTePi O_Tr2Tr2TrPi O_Te2Te2Te2Te O_Tr2TrTrPi2 C_TeTeTeTe C_TeTeTeTe H_S H_S C_TeTeTeTe H_S H_S H_S C_TeTeTeTe H_S H_S H_S C_TeTeTeTe H_S O_Te2Te2TeTe H_S C_TrTrTrPi O_Tr2Tr2TrPi N_TrTrTrPi2 H_S C_TeTeTeTe H_S H_S C_TeTeTeTe H_S H_S C_TrTrTrPi O_Tr2Tr2TrPi N_TrTrTrPi2 H_S C_TeTeTeTe H_S H_S C_TeTeTeTe H_S H_S S_Te2Te2TeTe C_TrTrTrPi O_Tr2Tr2TrPi C_TeTeTeTe H_S H_S H_S
M  BCL BND AromaticSingleBond AromaticDoubleBond NonConjugatedSingleBond AromaticDoubleBond AromaticSingleBond AromaticDoubleBond AromaticSingleBond AromaticSingleBond AromaticSingleBond ConjugatedSingleBond NonConjugatedSingleBond NonConjugatedSingleBond AromaticDoubleBond NonConjugatedSingleBond AromaticSingleBond NonConjugatedSingleBond NonConjugatedSingleBond NonConjugatedSingleBondInRing NonConjugatedSingleBondInRing NonConjugatedSingleBond NonConjugatedSingleBond NonConjugatedSingleBondInRing NonConjugatedSingleBond NonConjugatedSingleBond NonConjugatedSingleBond NonConjugatedSingleBondInRing ConjugatedSingleBond ConjugatedSingleBond ConjugatedDoubleBond ConjugatedSingleBond NonConjugatedSingleBond NonConjugatedSingleBondInRing NonConjugatedSingleBond NonConjugatedSingleBond NonConjugatedSingleBond NonConjugatedSingleBond ConjugatedSingleBond ConjugatedSingleBond ConjugatedDoubleBond ConjugatedSingleBond ConjugatedSingleBond ConjugatedDoubleBond ConjugatedSingleBond ConjugatedSingleBond NonConjugatedSingleBond NonConjugatedSingleBond NonConjugatedSingleBond NonConjugatedSingleBond NonConjugatedSingleBond NonConjugatedSingleBond NonConjugatedSingleBond NonConjugatedSingleBond NonConjugatedSingleBond NonConjugatedSingleBond NonConjugatedSingleBond NonConjugatedSingleBond NonConjugatedSingleBond NonConjugatedSingleBond NonConjugatedSingleBond NonConjugatedSingleBond NonConjugatedSingleBond ConjugatedDoubleBond AmideSingleBond NonConjugatedSingleBond NonConjugatedSingleBond NonConjugatedSingleBond NonConjugatedSingleBond NonConjugatedSingleBond NonConjugatedSingleBond NonConjugatedSingleBond NonConjugatedSingleBond ConjugatedDoubleBond AmideSingleBond NonConjugatedSingleBond NonConjugatedSingleBond NonConjugatedSingleBond NonConjugatedSingleBond NonConjugatedSingleBond NonConjugatedSingleBond NonConjugatedSingleBond NonConjugatedSingleBond ConjugatedSingleBond ConjugatedDoubleBond NonConjugatedSingleBond NonConjugatedSingleBond NonConjugatedSingleBond NonConjugatedSingleBond
M  BCL CHI  15   S  17   S  21   S  24   S  28   R  35   R  39   R  55   S
M  BCL DBI - - - - - - - - - -
M  END
> <ConfClashScore>
0 

> <ConfOneFourInteractionScore>
-0.983544 

> <ConfScore>
-0.0640322 

> <ConfScorePBest>
0.0146865 

> <ConfTolerance>
2.34316 

$$$$
ACO.****
  PyMOL2.5          3D                             0

 85 87  0  0  0  0  0  0  0  0999 V2000
    4.8856    1.0757  -10.6418 N   0  0  0  1  0  0  0  0  0  0  0  0
    3.8358    1.9051  -10.5313 C   0  0  0  1  0  0  0  0  0  0  0  0
    3.8035    2.6838  -11.2198 H   0  0  0  1  0  0  0  0  0  0  0  0
    2.8336    1.8654   -9.6619 N   0  0  0  1  0  0  0  0  0  0  0  0
    2.9565    0.8336   -8.8257 C   0  0  0  1  0  0  0  0  0  0  0  0
    3.9892   -0.1136   -8.8106 C   0  0  0  1  0  0  0  0  0  0  0  0
    4.9765    0.0604   -9.7760 C   0  0  0  1  0  0  0  0  0  0  0  0
    6.0614   -0.7679   -9.8934 N   0  0  0  1  0  0  0  0  0  0  0  0
    6.7121   -0.6242  -10.6119 H   0  0  0  1  0  0  0  0  0  0  0  0
    6.1867   -1.5041   -9.2588 H   0  0  0  1  0  0  0  0  0  0  0  0
    3.7857   -1.0298   -7.7905 N   0  0  0  1  0  0  0  0  0  0  0  0
    2.6731   -0.6297   -7.2377 C   0  0  0  1  0  0  0  0  0  0  0  0
    2.2408   -1.1228   -6.4305 H   0  0  0  1  0  0  0  0  0  0  0  0
    2.1211    0.4816   -7.7972 N   0  0  0  1  0  0  0  0  0  0  0  0
    0.8915    1.1606   -7.3870 C   0  0  0  1  0  0  0  0  0  0  0  0
    0.9891    2.2119   -7.5604 H   0  0  0  1  0  0  0  0  0  0  0  0
   -0.3120    0.6007   -8.1617 C   0  0  0  1  0  0  0  0  0  0  0  0
   -0.1858   -0.4411   -8.3710 H   0  0  0  1  0  0  0  0  0  0  0  0
   -0.5142    1.3123   -9.3856 O   0  0  0  1  0  0  0  0  0  0  0  0
   -1.3249    1.8233   -9.3290 H   0  0  0  1  0  0  0  0  0  0  0  0
   -1.4627    0.8304   -7.1978 C   0  0  0  1  0  0  0  0  0  0  0  0
   -2.2220    0.0866   -7.3200 H   0  0  0  1  0  0  0  0  0  0  0  0
   -2.0433    2.1518   -7.3806 O   0  0  0  1  0  0  0  0  0  0  0  0
   -3.5065    2.2009   -8.1197 P   0  0  0  1  0  0  0  0  0  0  0  0
   -4.0563    3.7445   -8.1874 O   0  0  0  0  0  0  0  0  0  0  0  0
   -3.5315    1.7118   -9.5164 O   0  0  0  1  0  0  0  0  0  0  0  0
   -4.5631    1.3383   -7.2457 O   0  5  0  1  0  0  0  0  0  0  0  0
   -0.7798    0.7080   -5.8132 C   0  0  0  1  0  0  0  0  0  0  0  0
   -1.1610    1.4520   -5.1453 H   0  0  0  1  0  0  0  0  0  0  0  0
    0.6266    0.9129   -6.0363 O   0  0  0  1  0  0  0  0  0  0  0  0
   -1.0164   -0.6327   -5.2439 C   0  0  0  1  0  0  0  0  0  0  0  0
   -0.6709   -1.3743   -5.9335 H   0  0  0  1  0  0  0  0  0  0  0  0
   -2.0648   -0.7634   -5.0743 H   0  0  0  1  0  0  0  0  0  0  0  0
   -0.3073   -0.7816   -3.9877 O   0  0  0  1  0  0  0  0  0  0  0  0
    0.0773   -2.1838   -3.4544 P   0  0  0  1  0  0  0  0  0  0  0  0
    1.1693   -2.7188   -4.4135 O   0  0  0  0  0  0  0  0  0  0  0  0
   -1.1019   -3.0297   -3.2658 O   0  0  0  1  0  0  0  0  0  0  0  0
    0.8168   -1.8084   -2.0820 O   0  0  0  1  0  0  0  0  0  0  0  0
    1.8449   -0.5801   -1.7304 P   0  0  0  1  0  0  0  0  0  0  0  0
    3.1036   -0.8916   -1.0168 O   0  0  0  1  0  0  0  0  0  0  0  0
    2.2597    0.2467   -3.0603 O   0  5  0  1  0  0  0  0  0  0  0  0
    1.0452    0.5082   -0.9228 O   0  0  0  1  0  0  0  0  0  0  0  0
    0.4381    2.7653   -0.5203 C   0  0  0  1  0  0  0  0  0  0  0  0
    1.5859    1.8335   -0.7308 C   0  0  0  1  0  0  0  0  0  0  0  0
    2.1414    2.1293   -1.5961 H   0  0  0  1  0  0  0  0  0  0  0  0
    2.2265    1.8450    0.1261 H   0  0  0  1  0  0  0  0  0  0  0  0
   -0.2928    2.3801    0.7688 C   0  0  0  1  0  0  0  0  0  0  0  0
    0.0940    2.9550    1.5842 H   0  0  0  1  0  0  0  0  0  0  0  0
   -0.1446    1.3387    0.9650 H   0  0  0  1  0  0  0  0  0  0  0  0
   -1.3387    2.5774    0.6581 H   0  0  0  1  0  0  0  0  0  0  0  0
   -0.5416    2.6124   -1.6998 C   0  0  0  1  0  0  0  0  0  0  0  0
   -1.0663    1.6842   -1.6103 H   0  0  0  1  0  0  0  0  0  0  0  0
    0.0038    2.6261   -2.6203 H   0  0  0  1  0  0  0  0  0  0  0  0
   -1.2426    3.4207   -1.6880 H   0  0  0  1  0  0  0  0  0  0  0  0
    0.9319    4.2125   -0.4512 C   0  0  0  1  0  0  0  0  0  0  0  0
    1.6186    4.2429    0.3687 H   0  0  0  1  0  0  0  0  0  0  0  0
    1.6486    4.6079   -1.6023 O   0  0  0  1  0  0  0  0  0  0  0  0
    1.9330    5.5197   -1.5053 H   0  0  0  1  0  0  0  0  0  0  0  0
   -0.2033    5.1527   -0.0714 C   0  0  0  1  0  0  0  0  0  0  0  0
   -0.9655    4.8626    0.8360 O   0  0  0  1  0  0  0  0  0  0  0  0
   -0.3718    6.2459   -0.8308 N   0  0  0  1  0  0  0  0  0  0  0  0
    0.3138    6.4403   -1.5036 H   0  0  0  1  0  0  0  0  0  0  0  0
   -1.4959    7.1647   -0.7307 C   0  0  0  1  0  0  0  0  0  0  0  0
   -2.3297    6.6419   -0.3106 H   0  0  0  1  0  0  0  0  0  0  0  0
   -1.7472    7.5073   -1.7127 H   0  0  0  1  0  0  0  0  0  0  0  0
   -1.1868    8.3730    0.1435 C   0  0  0  1  0  0  0  0  0  0  0  0
   -0.9862    8.0317    1.1376 H   0  0  0  1  0  0  0  0  0  0  0  0
   -2.0427    9.0150    0.1521 H   0  0  0  1  0  0  0  0  0  0  0  0
    0.0024    9.1646   -0.3415 C   0  0  0  1  0  0  0  0  0  0  0  0
    0.3332    9.2638   -1.5090 O   0  0  0  1  0  0  0  0  0  0  0  0
    0.6811    9.7639    0.6408 N   0  0  0  1  0  0  0  0  0  0  0  0
    0.3082    9.7553    1.5470 H   0  0  0  1  0  0  0  0  0  0  0  0
    1.9541   10.4286    0.4121 C   0  0  0  1  0  0  0  0  0  0  0  0
    2.3494   10.0801   -0.5191 H   0  0  0  1  0  0  0  0  0  0  0  0
    2.6186   10.1580    1.2059 H   0  0  0  1  0  0  0  0  0  0  0  0
    1.8773   11.9398    0.3559 C   0  0  0  1  0  0  0  0  0  0  0  0
    1.4960   12.2873    1.2933 H   0  0  0  1  0  0  0  0  0  0  0  0
    1.1993   12.2082   -0.4271 H   0  0  0  1  0  0  0  0  0  0  0  0
    3.4469   12.7751    0.0469 S   0  0  0  1  0  0  0  0  0  0  0  0
    3.4527   12.9211   -1.7028 C   0  0  0  1  0  0  0  0  0  0  0  0
    2.5204   12.4955   -2.3233 O   0  0  0  1  0  0  0  0  0  0  0  0
    4.6418   13.5866   -2.4149 C   0  0  0  1  0  0  0  0  0  0  0  0
    4.3000   14.0670   -3.3079 H   0  0  0  1  0  0  0  0  0  0  0  0
    5.3685   12.8426   -2.6663 H   0  0  0  1  0  0  0  0  0  0  0  0
    5.0843   14.3134   -1.7662 H   0  0  0  1  0  0  0  0  0  0  0  0
  1  2  1  0  0  0  0
  1  7  2  0  0  0  0
  2  3  1  0  0  0  0
  2  4  2  0  0  0  0
  4  5  1  0  0  0  0
  5  6  2  0  0  0  0
  5 14  1  0  0  0  0
  6  7  1  0  0  0  0
  6 11  1  0  0  0  0
  7  8  1  0  0  0  0
  8  9  1  0  0  0  0
  8 10  1  0  0  0  0
 11 12  2  0  0  0  0
 12 13  1  0  0  0  0
 12 14  1  0  0  0  0
 14 15  1  0  0  0  0
 15 16  1  0  0  0  0
 15 17  1  0  0  0  0
 15 30  1  0  0  0  0
 17 18  1  0  0  0  0
 17 19  1  0  0  0  0
 17 21  1  0  0  0  0
 19 20  1  0  0  0  0
 21 22  1  0  0  0  0
 21 23  1  0  0  0  0
 21 28  1  0  0  0  0
 23 24  1  0  0  0  0
 24 25  1  0  0  0  0
 24 26  2  0  0  0  0
 24 27  1  0  0  0  0
 28 29  1  0  0  0  0
 28 30  1  0  0  0  0
 28 31  1  0  0  0  0
 31 32  1  0  0  0  0
 31 33  1  0  0  0  0
 31 34  1  0  0  0  0
 34 35  1  0  0  0  0
 35 36  1  0  0  0  0
 35 37  2  0  0  0  0
 35 38  1  0  0  0  0
 38 39  1  0  0  0  0
 39 40  2  0  0  0  0
 39 41  1  0  0  0  0
 39 42  1  0  0  0  0
 42 44  1  0  0  0  0
 43 44  1  0  0  0  0
 43 47  1  0  0  0  0
 43 51  1  0  0  0  0
 43 55  1  0  0  0  0
 44 45  1  0  0  0  0
 44 46  1  0  0  0  0
 47 48  1  0  0  0  0
 47 49  1  0  0  0  0
 47 50  1  0  0  0  0
 51 52  1  0  0  0  0
 51 53  1  0  0  0  0
 51 54  1  0  0  0  0
 55 56  1  0  0  0  0
 55 57  1  0  0  0  0
 55 59  1  0  0  0  0
 57 58  1  0  0  0  0
 59 60  2  0  0  0  0
 59 61  1  0  0  0  0
 61 62  1  0  0  0  0
 61 63  1  0  0  0  0
 63 64  1  0  0  0  0
 63 65  1  0  0  0  0
 63 66  1  0  0  0  0
 66 67  1  0  0  0  0
 66 68  1  0  0  0  0
 66 69  1  0  0  0  0
 69 70  2  0  0  0  0
 69 71  1  0  0  0  0
 71 72  1  0  0  0  0
 71 73  1  0  0  0  0
 73 74  1  0  0  0  0
 73 75  1  0  0  0  0
 73 76  1  0  0  0  0
 76 77  1  0  0  0  0
 76 78  1  0  0  0  0
 76 79  1  0  0  0  0
 79 80  1  0  0  0  0
 80 81  2  0  0  0  0
 80 82  1  0  0  0  0
 82 83  1  0  0  0  0
 82 84  1  0  0  0  0
 82 85  1  0  0  0  0
M  BCL ATM N_Tr2TrTrPi C_TrTrTrPi H_S N_Tr2TrTrPi C_TrTrTrPi C_TrTrTrPi C_TrTrTrPi N_TrTrTrPi2 H_S H_S N_Tr2TrTrPi C_TrTrTrPi H_S N_TrTrTrPi2 C_TeTeTeTe H_S C_TeTeTeTe H_S O_Te2Te2TeTe H_S C_TeTeTeTe H_S O_Tr2TrTrPi2 P_TeTeTeTePi O_Te2Te2TeTe O_Tr2Tr2TrPi O_Te2Te2Te2Te C_TeTeTeTe H_S O_Te2Te2TeTe C_TeTeTeTe H_S H_S O_Tr2TrTrPi2 P_TeTeTeTePi O_Te2Te2TeTe O_Tr2Tr2TrPi O_Tr2TrTrPi2 P_TeTeTeTePi O_Tr2Tr2TrPi O_Te2Te2Te2Te O_Tr2TrTrPi2 C_TeTeTeTe C_TeTeTeTe H_S H_S C_TeTeTeTe H_S H_S H_S C_TeTeTeTe H_S H_S H_S C_TeTeTeTe H_S O_Te2Te2TeTe H_S C_TrTrTrPi O_Tr2Tr2TrPi N_TrTrTrPi2 H_S C_TeTeTeTe H_S H_S C_TeTeTeTe H_S H_S C_TrTrTrPi O_Tr2Tr2TrPi N_TrTrTrPi2 H_S C_TeTeTeTe H_S H_S C_TeTeTeTe H_S H_S S_Te2Te2TeTe C_TrTrTrPi O_Tr2Tr2TrPi C_TeTeTeTe H_S H_S H_S
M  BCL BND AromaticSingleBond AromaticDoubleBond NonConjugatedSingleBond AromaticDoubleBond AromaticSingleBond AromaticDoubleBond AromaticSingleBond AromaticSingleBond AromaticSingleBond ConjugatedSingleBond NonConjugatedSingleBond NonConjugatedSingleBond AromaticDoubleBond NonConjugatedSingleBond AromaticSingleBond NonConjugatedSingleBond NonConjugatedSingleBond NonConjugatedSingleBondInRing NonConjugatedSingleBondInRing NonConjugatedSingleBond NonConjugatedSingleBond NonConjugatedSingleBondInRing NonConjugatedSingleBond NonConjugatedSingleBond NonConjugatedSingleBond NonConjugatedSingleBondInRing ConjugatedSingleBond ConjugatedSingleBond ConjugatedDoubleBond ConjugatedSingleBond NonConjugatedSingleBond NonConjugatedSingleBondInRing NonConjugatedSingleBond NonConjugatedSingleBond NonConjugatedSingleBond NonConjugatedSingleBond ConjugatedSingleBond ConjugatedSingleBond ConjugatedDoubleBond ConjugatedSingleBond ConjugatedSingleBond ConjugatedDoubleBond ConjugatedSingleBond ConjugatedSingleBond NonConjugatedSingleBond NonConjugatedSingleBond NonConjugatedSingleBond NonConjugatedSingleBond NonConjugatedSingleBond NonConjugatedSingleBond NonConjugatedSingleBond NonConjugatedSingleBond NonConjugatedSingleBond NonConjugatedSingleBond NonConjugatedSingleBond NonConjugatedSingleBond NonConjugatedSingleBond NonConjugatedSingleBond NonConjugatedSingleBond NonConjugatedSingleBond NonConjugatedSingleBond ConjugatedDoubleBond AmideSingleBond NonConjugatedSingleBond NonConjugatedSingleBond NonConjugatedSingleBond NonConjugatedSingleBond NonConjugatedSingleBond NonConjugatedSingleBond NonConjugatedSingleBond NonConjugatedSingleBond ConjugatedDoubleBond AmideSingleBond NonConjugatedSingleBond NonConjugatedSingleBond NonConjugatedSingleBond NonConjugatedSingleBond NonConjugatedSingleBond NonConjugatedSingleBond NonConjugatedSingleBond NonConjugatedSingleBond ConjugatedSingleBond ConjugatedDoubleBond NonConjugatedSingleBond NonConjugatedSingleBond NonConjugatedSingleBond NonConjugatedSingleBond
M  BCL CHI  15   S  17   S  21   S  24   S  28   R  35   R  39   R  55   S
M  BCL DBI - - - - - - - - - -
M  END
> <ConfClashScore>
0 

> <ConfOneFourInteractionScore>
-0.986107 

> <ConfScore>
-0.0561189 

> <ConfScorePBest>
0.0145835 

> <ConfTolerance>
2.32548 

$$$$
ACO.****
  PyMOL2.5          3D                             0

 85 87  0  0  0  0  0  0  0  0999 V2000
    4.8865    1.0730  -10.6418 N   0  0  0  1  0  0  0  0  0  0  0  0
    3.8450    1.9117  -10.5236 C   0  0  0  1  0  0  0  0  0  0  0  0
    3.8145    2.6906  -11.2120 H   0  0  0  1  0  0  0  0  0  0  0  0
    2.8490    1.8810   -9.6468 N   0  0  0  1  0  0  0  0  0  0  0  0
    2.9689    0.8482   -8.8114 C   0  0  0  1  0  0  0  0  0  0  0  0
    3.9932   -0.1081   -8.8038 C   0  0  0  1  0  0  0  0  0  0  0  0
    4.9748    0.0570   -9.7766 C   0  0  0  1  0  0  0  0  0  0  0  0
    6.0513   -0.7810   -9.9019 N   0  0  0  1  0  0  0  0  0  0  0  0
    6.1442   -1.5520   -9.3042 H   0  0  0  1  0  0  0  0  0  0  0  0
    6.7285   -0.6093  -10.5891 H   0  0  0  1  0  0  0  0  0  0  0  0
    3.7892   -1.0224   -7.7821 N   0  0  0  1  0  0  0  0  0  0  0  0
    2.6842   -0.6123   -7.2211 C   0  0  0  1  0  0  0  0  0  0  0  0
    2.2536   -1.1016   -6.4106 H   0  0  0  1  0  0  0  0  0  0  0  0
    2.1381    0.5038   -7.7767 N   0  0  0  1  0  0  0  0  0  0  0  0
    0.8319    1.0953   -7.4721 C   0  0  0  1  0  0  0  0  0  0  0  0
    0.3613    0.5382   -6.6892 H   0  0  0  1  0  0  0  0  0  0  0  0
    0.9950    2.5663   -7.0578 C   0  0  0  1  0  0  0  0  0  0  0  0
    1.8092    3.0260   -7.5780 H   0  0  0  1  0  0  0  0  0  0  0  0
    1.2014    2.6854   -5.6477 O   0  0  0  1  0  0  0  0  0  0  0  0
    1.7852    1.9843   -5.3490 H   0  0  0  1  0  0  0  0  0  0  0  0
   -0.3331    3.1761   -7.4705 C   0  0  0  1  0  0  0  0  0  0  0  0
   -0.2184    4.2066   -7.7348 H   0  0  0  1  0  0  0  0  0  0  0  0
   -1.3192    3.0541   -6.4065 O   0  0  0  1  0  0  0  0  0  0  0  0
   -2.0131    4.3855   -5.7466 P   0  0  0  1  0  0  0  0  0  0  0  0
   -1.2511    4.7899   -4.3518 O   0  0  0  0  0  0  0  0  0  0  0  0
   -2.0878    5.4670   -6.7541 O   0  0  0  1  0  0  0  0  0  0  0  0
   -3.5440    3.9457   -5.4510 O   0  5  0  1  0  0  0  0  0  0  0  0
   -0.7330    2.3259   -8.7017 C   0  0  0  1  0  0  0  0  0  0  0  0
   -1.7813    2.1129   -8.6798 H   0  0  0  1  0  0  0  0  0  0  0  0
    0.0248    1.1061   -8.6142 O   0  0  0  1  0  0  0  0  0  0  0  0
   -0.3983    3.0529   -9.9624 C   0  0  0  1  0  0  0  0  0  0  0  0
   -1.1073    3.8364  -10.1305 H   0  0  0  1  0  0  0  0  0  0  0  0
   -0.4132    2.3741  -10.7894 H   0  0  0  1  0  0  0  0  0  0  0  0
    0.9272    3.6126   -9.8082 O   0  0  0  1  0  0  0  0  0  0  0  0
    1.6519    4.4984  -10.9512 P   0  0  0  1  0  0  0  0  0  0  0  0
    2.9918    4.9106  -10.4082 O   0  0  0  0  0  0  0  0  0  0  0  0
    0.7813    5.6165  -11.2604 O   0  0  0  1  0  0  0  0  0  0  0  0
    1.7397    3.4704  -12.1828 O   0  0  0  1  0  0  0  0  0  0  0  0
    2.8673    3.2342  -13.3500 P   0  0  0  1  0  0  0  0  0  0  0  0
    3.8446    4.3455  -13.3656 O   0  0  0  1  0  0  0  0  0  0  0  0
    3.4394    1.7462  -13.0616 O   0  5  0  1  0  0  0  0  0  0  0  0
    2.0691    3.2425  -14.7021 O   0  0  0  1  0  0  0  0  0  0  0  0
    1.9406    3.9030  -17.0063 C   0  0  0  1  0  0  0  0  0  0  0  0
    2.7062    3.1452  -15.9977 C   0  0  0  1  0  0  0  0  0  0  0  0
    2.7537    2.1172  -16.2906 H   0  0  0  1  0  0  0  0  0  0  0  0
    3.6968    3.5447  -15.9341 H   0  0  0  1  0  0  0  0  0  0  0  0
    0.4990    3.3783  -17.0439 C   0  0  0  1  0  0  0  0  0  0  0  0
    0.5082    2.3189  -17.1937 H   0  0  0  1  0  0  0  0  0  0  0  0
   -0.0301    3.8473  -17.8471 H   0  0  0  1  0  0  0  0  0  0  0  0
    0.0136    3.6030  -16.1172 H   0  0  0  1  0  0  0  0  0  0  0  0
    2.5743    3.6697  -18.3742 C   0  0  0  1  0  0  0  0  0  0  0  0
    3.6264    3.8562  -18.3170 H   0  0  0  1  0  0  0  0  0  0  0  0
    2.1333    4.3324  -19.0891 H   0  0  0  1  0  0  0  0  0  0  0  0
    2.4079    2.6567  -18.6760 H   0  0  0  1  0  0  0  0  0  0  0  0
    1.9645    5.4011  -16.6805 C   0  0  0  1  0  0  0  0  0  0  0  0
    1.5338    5.8867  -17.5312 H   0  0  0  1  0  0  0  0  0  0  0  0
    1.1605    5.7389  -15.5631 O   0  0  0  1  0  0  0  0  0  0  0  0
    1.2044    5.0347  -14.9121 H   0  0  0  1  0  0  0  0  0  0  0  0
    3.3935    5.9115  -16.5951 C   0  0  0  1  0  0  0  0  0  0  0  0
    4.2291    5.6361  -17.4552 O   0  0  0  1  0  0  0  0  0  0  0  0
    3.6319    6.6697  -15.5133 N   0  0  0  1  0  0  0  0  0  0  0  0
    2.9020    6.8330  -14.8801 H   0  0  0  1  0  0  0  0  0  0  0  0
    4.9365    7.2576  -15.2482 C   0  0  0  1  0  0  0  0  0  0  0  0
    5.6820    6.6797  -15.7532 H   0  0  0  1  0  0  0  0  0  0  0  0
    5.1170    7.2303  -14.1939 H   0  0  0  1  0  0  0  0  0  0  0  0
    5.0332    8.6906  -15.7192 C   0  0  0  1  0  0  0  0  0  0  0  0
    5.9722    9.0837  -15.3896 H   0  0  0  1  0  0  0  0  0  0  0  0
    4.2362    9.2417  -15.2653 H   0  0  0  1  0  0  0  0  0  0  0  0
    4.9444    8.8874  -17.2076 C   0  0  0  1  0  0  0  0  0  0  0  0
    5.6793    8.2629  -17.9715 O   0  0  0  1  0  0  0  0  0  0  0  0
    4.0453    9.7590  -17.6734 N   0  0  0  1  0  0  0  0  0  0  0  0
    3.4474   10.2063  -17.0388 H   0  0  0  1  0  0  0  0  0  0  0  0
    3.9223   10.0692  -19.1000 C   0  0  0  1  0  0  0  0  0  0  0  0
    3.8677    9.1461  -19.6383 H   0  0  0  1  0  0  0  0  0  0  0  0
    4.7972   10.6068  -19.4007 H   0  0  0  1  0  0  0  0  0  0  0  0
    2.7143   10.8969  -19.4629 C   0  0  0  1  0  0  0  0  0  0  0  0
    2.8588   11.8901  -19.0920 H   0  0  0  1  0  0  0  0  0  0  0  0
    1.8533   10.4638  -18.9981 H   0  0  0  1  0  0  0  0  0  0  0  0
    2.4213   10.9861  -21.2454 S   0  0  0  1  0  0  0  0  0  0  0  0
    3.5431   12.2224  -21.7426 C   0  0  0  1  0  0  0  0  0  0  0  0
    4.2874   12.8150  -20.9713 O   0  0  0  1  0  0  0  0  0  0  0  0
    3.6386   12.4273  -23.2546 C   0  0  0  1  0  0  0  0  0  0  0  0
    4.3926   13.1554  -23.4695 H   0  0  0  1  0  0  0  0  0  0  0  0
    2.6961   12.7693  -23.6282 H   0  0  0  1  0  0  0  0  0  0  0  0
    3.8940   11.5005  -23.7244 H   0  0  0  1  0  0  0  0  0  0  0  0
  1  2  1  0  0  0  0
  1  7  2  0  0  0  0
  2  3  1  0  0  0  0
  2  4  2  0  0  0  0
  4  5  1  0  0  0  0
  5  6  2  0  0  0  0
  5 14  1  0  0  0  0
  6  7  1  0  0  0  0
  6 11  1  0  0  0  0
  7  8  1  0  0  0  0
  8  9  1  0  0  0  0
  8 10  1  0  0  0  0
 11 12  2  0  0  0  0
 12 13  1  0  0  0  0
 12 14  1  0  0  0  0
 14 15  1  0  0  0  0
 15 16  1  0  0  0  0
 15 17  1  0  0  0  0
 15 30  1  0  0  0  0
 17 18  1  0  0  0  0
 17 19  1  0  0  0  0
 17 21  1  0  0  0  0
 19 20  1  0  0  0  0
 21 22  1  0  0  0  0
 21 23  1  0  0  0  0
 21 28  1  0  0  0  0
 23 24  1  0  0  0  0
 24 25  1  0  0  0  0
 24 26  2  0  0  0  0
 24 27  1  0  0  0  0
 28 29  1  0  0  0  0
 28 30  1  0  0  0  0
 28 31  1  0  0  0  0
 31 32  1  0  0  0  0
 31 33  1  0  0  0  0
 31 34  1  0  0  0  0
 34 35  1  0  0  0  0
 35 36  1  0  0  0  0
 35 37  2  0  0  0  0
 35 38  1  0  0  0  0
 38 39  1  0  0  0  0
 39 40  2  0  0  0  0
 39 41  1  0  0  0  0
 39 42  1  0  0  0  0
 42 44  1  0  0  0  0
 43 44  1  0  0  0  0
 43 47  1  0  0  0  0
 43 51  1  0  0  0  0
 43 55  1  0  0  0  0
 44 45  1  0  0  0  0
 44 46  1  0  0  0  0
 47 48  1  0  0  0  0
 47 49  1  0  0  0  0
 47 50  1  0  0  0  0
 51 52  1  0  0  0  0
 51 53  1  0  0  0  0
 51 54  1  0  0  0  0
 55 56  1  0  0  0  0
 55 57  1  0  0  0  0
 55 59  1  0  0  0  0
 57 58  1  0  0  0  0
 59 60  2  0  0  0  0
 59 61  1  0  0  0  0
 61 62  1  0  0  0  0
 61 63  1  0  0  0  0
 63 64  1  0  0  0  0
 63 65  1  0  0  0  0
 63 66  1  0  0  0  0
 66 67  1  0  0  0  0
 66 68  1  0  0  0  0
 66 69  1  0  0  0  0
 69 70  2  0  0  0  0
 69 71  1  0  0  0  0
 71 72  1  0  0  0  0
 71 73  1  0  0  0  0
 73 74  1  0  0  0  0
 73 75  1  0  0  0  0
 73 76  1  0  0  0  0
 76 77  1  0  0  0  0
 76 78  1  0  0  0  0
 76 79  1  0  0  0  0
 79 80  1  0  0  0  0
 80 81  2  0  0  0  0
 80 82  1  0  0  0  0
 82 83  1  0  0  0  0
 82 84  1  0  0  0  0
 82 85  1  0  0  0  0
M  BCL ATM N_Tr2TrTrPi C_TrTrTrPi H_S N_Tr2TrTrPi C_TrTrTrPi C_TrTrTrPi C_TrTrTrPi N_TrTrTrPi2 H_S H_S N_Tr2TrTrPi C_TrTrTrPi H_S N_TrTrTrPi2 C_TeTeTeTe H_S C_TeTeTeTe H_S O_Te2Te2TeTe H_S C_TeTeTeTe H_S O_Tr2TrTrPi2 P_TeTeTeTePi O_Te2Te2TeTe O_Tr2Tr2TrPi O_Te2Te2Te2Te C_TeTeTeTe H_S O_Te2Te2TeTe C_TeTeTeTe H_S H_S O_Tr2TrTrPi2 P_TeTeTeTePi O_Te2Te2TeTe O_Tr2Tr2TrPi O_Tr2TrTrPi2 P_TeTeTeTePi O_Tr2Tr2TrPi O_Te2Te2Te2Te O_Tr2TrTrPi2 C_TeTeTeTe C_TeTeTeTe H_S H_S C_TeTeTeTe H_S H_S H_S C_TeTeTeTe H_S H_S H_S C_TeTeTeTe H_S O_Te2Te2TeTe H_S C_TrTrTrPi O_Tr2Tr2TrPi N_TrTrTrPi2 H_S C_TeTeTeTe H_S H_S C_TeTeTeTe H_S H_S C_TrTrTrPi O_Tr2Tr2TrPi N_TrTrTrPi2 H_S C_TeTeTeTe H_S H_S C_TeTeTeTe H_S H_S S_Te2Te2TeTe C_TrTrTrPi O_Tr2Tr2TrPi C_TeTeTeTe H_S H_S H_S
M  BCL BND AromaticSingleBond AromaticDoubleBond NonConjugatedSingleBond AromaticDoubleBond AromaticSingleBond AromaticDoubleBond AromaticSingleBond AromaticSingleBond AromaticSingleBond ConjugatedSingleBond NonConjugatedSingleBond NonConjugatedSingleBond AromaticDoubleBond NonConjugatedSingleBond AromaticSingleBond NonConjugatedSingleBond NonConjugatedSingleBond NonConjugatedSingleBondInRing NonConjugatedSingleBondInRing NonConjugatedSingleBond NonConjugatedSingleBond NonConjugatedSingleBondInRing NonConjugatedSingleBond NonConjugatedSingleBond NonConjugatedSingleBond NonConjugatedSingleBondInRing ConjugatedSingleBond ConjugatedSingleBond ConjugatedDoubleBond ConjugatedSingleBond NonConjugatedSingleBond NonConjugatedSingleBondInRing NonConjugatedSingleBond NonConjugatedSingleBond NonConjugatedSingleBond NonConjugatedSingleBond ConjugatedSingleBond ConjugatedSingleBond ConjugatedDoubleBond ConjugatedSingleBond ConjugatedSingleBond ConjugatedDoubleBond ConjugatedSingleBond ConjugatedSingleBond NonConjugatedSingleBond NonConjugatedSingleBond NonConjugatedSingleBond NonConjugatedSingleBond NonConjugatedSingleBond NonConjugatedSingleBond NonConjugatedSingleBond NonConjugatedSingleBond NonConjugatedSingleBond NonConjugatedSingleBond NonConjugatedSingleBond NonConjugatedSingleBond NonConjugatedSingleBond NonConjugatedSingleBond NonConjugatedSingleBond NonConjugatedSingleBond NonConjugatedSingleBond ConjugatedDoubleBond AmideSingleBond NonConjugatedSingleBond NonConjugatedSingleBond NonConjugatedSingleBond NonConjugatedSingleBond NonConjugatedSingleBond NonConjugatedSingleBond NonConjugatedSingleBond NonConjugatedSingleBond ConjugatedDoubleBond AmideSingleBond NonConjugatedSingleBond NonConjugatedSingleBond NonConjugatedSingleBond NonConjugatedSingleBond NonConjugatedSingleBond NonConjugatedSingleBond NonConjugatedSingleBond NonConjugatedSingleBond ConjugatedSingleBond ConjugatedDoubleBond NonConjugatedSingleBond NonConjugatedSingleBond NonConjugatedSingleBond NonConjugatedSingleBond
M  BCL CHI  15   S  17   S  21   S  24   S  28   R  35   R  39   R  55   S
M  BCL DBI - - - - - - - - - -
M  END
> <ConfClashScore>
0 

> <ConfOneFourInteractionScore>
-0.984185 

> <ConfScore>
-0.0478568 

> <ConfScorePBest>
0.0144805 

> <ConfTolerance>
2.33342 

$$$$
ACO.****
  PyMOL2.5          3D                             0

 85 87  0  0  0  0  0  0  0  0999 V2000
    4.8958    1.0452  -10.6156 N   0  0  0  1  0  0  0  0  0  0  0  0
    3.8532    1.8852  -10.5195 C   0  0  0  1  0  0  0  0  0  0  0  0
    3.8348    2.6604  -11.2125 H   0  0  0  1  0  0  0  0  0  0  0  0
    2.8425    1.8600   -9.6594 N   0  0  0  1  0  0  0  0  0  0  0  0
    2.9476    0.8317   -8.8165 C   0  0  0  1  0  0  0  0  0  0  0  0
    3.9710   -0.1253   -8.7865 C   0  0  0  1  0  0  0  0  0  0  0  0
    4.9688    0.0339   -9.7435 C   0  0  0  1  0  0  0  0  0  0  0  0
    6.1026   -0.7620   -9.9315 N   0  0  0  1  0  0  0  0  0  0  0  0
    6.2732   -1.5206   -9.3349 H   0  0  0  1  0  0  0  0  0  0  0  0
    6.7268   -0.5614  -10.6599 H   0  0  0  1  0  0  0  0  0  0  0  0
    3.7491   -1.0339   -7.7634 N   0  0  0  1  0  0  0  0  0  0  0  0
    2.6352   -0.6200   -7.2233 C   0  0  0  1  0  0  0  0  0  0  0  0
    2.1906   -1.1046   -6.4175 H   0  0  0  1  0  0  0  0  0  0  0  0
    2.0992    0.4934   -7.7940 N   0  0  0  1  0  0  0  0  0  0  0  0
    0.8626    1.1920   -7.3959 C   0  0  0  1  0  0  0  0  0  0  0  0
    0.9787    2.2434   -7.5567 H   0  0  0  1  0  0  0  0  0  0  0  0
   -0.3347    0.6578   -8.1980 C   0  0  0  1  0  0  0  0  0  0  0  0
   -0.2200   -0.3835   -8.4156 H   0  0  0  1  0  0  0  0  0  0  0  0
   -0.5042    1.3846   -9.4179 O   0  0  0  1  0  0  0  0  0  0  0  0
   -0.8929    0.8103  -10.0817 H   0  0  0  1  0  0  0  0  0  0  0  0
   -1.4992    0.8949   -7.2526 C   0  0  0  1  0  0  0  0  0  0  0  0
   -2.2671    0.1637   -7.3962 H   0  0  0  1  0  0  0  0  0  0  0  0
   -2.0568    2.2261   -7.4322 O   0  0  0  1  0  0  0  0  0  0  0  0
   -3.6064    2.5530   -7.0061 P   0  0  0  1  0  0  0  0  0  0  0  0
   -3.9910    4.0725   -7.4887 O   0  0  0  0  0  0  0  0  0  0  0  0
   -4.6219    1.6148   -7.5342 O   0  0  0  1  0  0  0  0  0  0  0  0
   -3.6807    2.5686   -5.3879 O   0  5  0  1  0  0  0  0  0  0  0  0
   -0.8436    0.7485   -5.8573 C   0  0  0  1  0  0  0  0  0  0  0  0
   -1.2259    1.4913   -5.1888 H   0  0  0  1  0  0  0  0  0  0  0  0
    0.5695    0.9348   -6.0529 O   0  0  0  1  0  0  0  0  0  0  0  0
   -1.1102   -0.5942   -5.3062 C   0  0  0  1  0  0  0  0  0  0  0  0
   -2.1674   -0.7409   -5.2318 H   0  0  0  1  0  0  0  0  0  0  0  0
   -0.6697   -0.6698   -4.3340 H   0  0  0  1  0  0  0  0  0  0  0  0
   -0.5470   -1.6136   -6.1650 O   0  0  0  1  0  0  0  0  0  0  0  0
   -1.0852   -3.1250   -6.2027 P   0  0  0  1  0  0  0  0  0  0  0  0
   -2.5256   -3.1091   -6.5863 O   0  0  0  0  0  0  0  0  0  0  0  0
   -0.6963   -3.7994   -4.9636 O   0  0  0  1  0  0  0  0  0  0  0  0
   -0.1791   -3.7516   -7.3730 O   0  0  0  1  0  0  0  0  0  0  0  0
    0.0113   -3.1973   -8.9047 P   0  0  0  1  0  0  0  0  0  0  0  0
   -1.3232   -2.9704   -9.5030 O   0  0  0  1  0  0  0  0  0  0  0  0
    0.9956   -1.9109   -8.8742 O   0  5  0  1  0  0  0  0  0  0  0  0
    0.7169   -4.4631   -9.5089 O   0  0  0  1  0  0  0  0  0  0  0  0
    0.7139   -6.3729  -10.8762 C   0  0  0  1  0  0  0  0  0  0  0  0
    0.0464   -5.7289   -9.6926 C   0  0  0  1  0  0  0  0  0  0  0  0
   -0.9941   -5.5750   -9.8889 H   0  0  0  1  0  0  0  0  0  0  0  0
    0.1590   -6.3407   -8.8220 H   0  0  0  1  0  0  0  0  0  0  0  0
    2.2014   -6.5272  -10.5473 C   0  0  0  1  0  0  0  0  0  0  0  0
    2.6554   -5.5603  -10.4842 H   0  0  0  1  0  0  0  0  0  0  0  0
    2.6795   -7.0958  -11.3173 H   0  0  0  1  0  0  0  0  0  0  0  0
    2.3087   -7.0332   -9.6107 H   0  0  0  1  0  0  0  0  0  0  0  0
    0.5670   -5.4272  -12.0706 C   0  0  0  1  0  0  0  0  0  0  0  0
    0.8474   -4.4368  -11.7786 H   0  0  0  1  0  0  0  0  0  0  0  0
   -0.4505   -5.4266  -12.4017 H   0  0  0  1  0  0  0  0  0  0  0  0
    1.2013   -5.7572  -12.8666 H   0  0  0  1  0  0  0  0  0  0  0  0
    0.1107   -7.7473  -11.1759 C   0  0  0  1  0  0  0  0  0  0  0  0
    0.5999   -8.1613  -12.0328 H   0  0  0  1  0  0  0  0  0  0  0  0
    0.3349   -8.5596  -10.0361 O   0  0  0  1  0  0  0  0  0  0  0  0
   -0.0725   -9.4185  -10.1696 H   0  0  0  1  0  0  0  0  0  0  0  0
   -1.3620   -7.5836  -11.4763 C   0  0  0  1  0  0  0  0  0  0  0  0
   -1.7466   -6.9526  -12.4600 O   0  0  0  1  0  0  0  0  0  0  0  0
   -2.1975   -8.1627  -10.6127 N   0  0  0  1  0  0  0  0  0  0  0  0
   -1.8322   -8.5571   -9.7933 H   0  0  0  1  0  0  0  0  0  0  0  0
   -3.6358   -8.2294  -10.8454 C   0  0  0  1  0  0  0  0  0  0  0  0
   -4.0168   -9.1169  -10.3849 H   0  0  0  1  0  0  0  0  0  0  0  0
   -3.8108   -8.2710  -11.9002 H   0  0  0  1  0  0  0  0  0  0  0  0
   -4.3763   -7.0269  -10.2749 C   0  0  0  1  0  0  0  0  0  0  0  0
   -5.4002   -7.0809  -10.5809 H   0  0  0  1  0  0  0  0  0  0  0  0
   -3.9326   -6.1360  -10.6677 H   0  0  0  1  0  0  0  0  0  0  0  0
   -4.3280   -6.9635   -8.7684 C   0  0  0  1  0  0  0  0  0  0  0  0
   -5.2832   -7.3264   -8.0832 O   0  0  0  1  0  0  0  0  0  0  0  0
   -3.1931   -6.4931   -8.2433 N   0  0  0  1  0  0  0  0  0  0  0  0
   -2.4833   -6.1888   -8.8467 H   0  0  0  1  0  0  0  0  0  0  0  0
   -2.9737   -6.4168   -6.8034 C   0  0  0  1  0  0  0  0  0  0  0  0
   -3.4149   -7.2762   -6.3433 H   0  0  0  1  0  0  0  0  0  0  0  0
   -3.4448   -5.5311   -6.4313 H   0  0  0  1  0  0  0  0  0  0  0  0
   -1.5102   -6.3735   -6.4428 C   0  0  0  1  0  0  0  0  0  0  0  0
   -1.4243   -6.2910   -5.3794 H   0  0  0  1  0  0  0  0  0  0  0  0
   -1.0716   -5.5136   -6.9044 H   0  0  0  1  0  0  0  0  0  0  0  0
   -0.6003   -7.8412   -6.9805 S   0  0  0  1  0  0  0  0  0  0  0  0
   -0.6880   -8.9367   -5.6071 C   0  0  0  1  0  0  0  0  0  0  0  0
   -1.3431   -8.7296   -4.6216 O   0  0  0  1  0  0  0  0  0  0  0  0
    0.0759  -10.2608   -5.7789 C   0  0  0  1  0  0  0  0  0  0  0  0
   -0.1218  -10.8983   -4.9426 H   0  0  0  1  0  0  0  0  0  0  0  0
    1.1258  -10.0619   -5.8351 H   0  0  0  1  0  0  0  0  0  0  0  0
   -0.2449  -10.7433   -6.6785 H   0  0  0  1  0  0  0  0  0  0  0  0
  1  2  1  0  0  0  0
  1  7  2  0  0  0  0
  2  3  1  0  0  0  0
  2  4  2  0  0  0  0
  4  5  1  0  0  0  0
  5  6  2  0  0  0  0
  5 14  1  0  0  0  0
  6  7  1  0  0  0  0
  6 11  1  0  0  0  0
  7  8  1  0  0  0  0
  8  9  1  0  0  0  0
  8 10  1  0  0  0  0
 11 12  2  0  0  0  0
 12 13  1  0  0  0  0
 12 14  1  0  0  0  0
 14 15  1  0  0  0  0
 15 16  1  0  0  0  0
 15 17  1  0  0  0  0
 15 30  1  0  0  0  0
 17 18  1  0  0  0  0
 17 19  1  0  0  0  0
 17 21  1  0  0  0  0
 19 20  1  0  0  0  0
 21 22  1  0  0  0  0
 21 23  1  0  0  0  0
 21 28  1  0  0  0  0
 23 24  1  0  0  0  0
 24 25  1  0  0  0  0
 24 26  2  0  0  0  0
 24 27  1  0  0  0  0
 28 29  1  0  0  0  0
 28 30  1  0  0  0  0
 28 31  1  0  0  0  0
 31 32  1  0  0  0  0
 31 33  1  0  0  0  0
 31 34  1  0  0  0  0
 34 35  1  0  0  0  0
 35 36  1  0  0  0  0
 35 37  2  0  0  0  0
 35 38  1  0  0  0  0
 38 39  1  0  0  0  0
 39 40  2  0  0  0  0
 39 41  1  0  0  0  0
 39 42  1  0  0  0  0
 42 44  1  0  0  0  0
 43 44  1  0  0  0  0
 43 47  1  0  0  0  0
 43 51  1  0  0  0  0
 43 55  1  0  0  0  0
 44 45  1  0  0  0  0
 44 46  1  0  0  0  0
 47 48  1  0  0  0  0
 47 49  1  0  0  0  0
 47 50  1  0  0  0  0
 51 52  1  0  0  0  0
 51 53  1  0  0  0  0
 51 54  1  0  0  0  0
 55 56  1  0  0  0  0
 55 57  1  0  0  0  0
 55 59  1  0  0  0  0
 57 58  1  0  0  0  0
 59 60  2  0  0  0  0
 59 61  1  0  0  0  0
 61 62  1  0  0  0  0
 61 63  1  0  0  0  0
 63 64  1  0  0  0  0
 63 65  1  0  0  0  0
 63 66  1  0  0  0  0
 66 67  1  0  0  0  0
 66 68  1  0  0  0  0
 66 69  1  0  0  0  0
 69 70  2  0  0  0  0
 69 71  1  0  0  0  0
 71 72  1  0  0  0  0
 71 73  1  0  0  0  0
 73 74  1  0  0  0  0
 73 75  1  0  0  0  0
 73 76  1  0  0  0  0
 76 77  1  0  0  0  0
 76 78  1  0  0  0  0
 76 79  1  0  0  0  0
 79 80  1  0  0  0  0
 80 81  2  0  0  0  0
 80 82  1  0  0  0  0
 82 83  1  0  0  0  0
 82 84  1  0  0  0  0
 82 85  1  0  0  0  0
M  BCL ATM N_Tr2TrTrPi C_TrTrTrPi H_S N_Tr2TrTrPi C_TrTrTrPi C_TrTrTrPi C_TrTrTrPi N_TrTrTrPi2 H_S H_S N_Tr2TrTrPi C_TrTrTrPi H_S N_TrTrTrPi2 C_TeTeTeTe H_S C_TeTeTeTe H_S O_Te2Te2TeTe H_S C_TeTeTeTe H_S O_Tr2TrTrPi2 P_TeTeTeTePi O_Te2Te2TeTe O_Tr2Tr2TrPi O_Te2Te2Te2Te C_TeTeTeTe H_S O_Te2Te2TeTe C_TeTeTeTe H_S H_S O_Tr2TrTrPi2 P_TeTeTeTePi O_Te2Te2TeTe O_Tr2Tr2TrPi O_Tr2TrTrPi2 P_TeTeTeTePi O_Tr2Tr2TrPi O_Te2Te2Te2Te O_Tr2TrTrPi2 C_TeTeTeTe C_TeTeTeTe H_S H_S C_TeTeTeTe H_S H_S H_S C_TeTeTeTe H_S H_S H_S C_TeTeTeTe H_S O_Te2Te2TeTe H_S C_TrTrTrPi O_Tr2Tr2TrPi N_TrTrTrPi2 H_S C_TeTeTeTe H_S H_S C_TeTeTeTe H_S H_S C_TrTrTrPi O_Tr2Tr2TrPi N_TrTrTrPi2 H_S C_TeTeTeTe H_S H_S C_TeTeTeTe H_S H_S S_Te2Te2TeTe C_TrTrTrPi O_Tr2Tr2TrPi C_TeTeTeTe H_S H_S H_S
M  BCL BND AromaticSingleBond AromaticDoubleBond NonConjugatedSingleBond AromaticDoubleBond AromaticSingleBond AromaticDoubleBond AromaticSingleBond AromaticSingleBond AromaticSingleBond ConjugatedSingleBond NonConjugatedSingleBond NonConjugatedSingleBond AromaticDoubleBond NonConjugatedSingleBond AromaticSingleBond NonConjugatedSingleBond NonConjugatedSingleBond NonConjugatedSingleBondInRing NonConjugatedSingleBondInRing NonConjugatedSingleBond NonConjugatedSingleBond NonConjugatedSingleBondInRing NonConjugatedSingleBond NonConjugatedSingleBond NonConjugatedSingleBond NonConjugatedSingleBondInRing ConjugatedSingleBond ConjugatedSingleBond ConjugatedDoubleBond ConjugatedSingleBond NonConjugatedSingleBond NonConjugatedSingleBondInRing NonConjugatedSingleBond NonConjugatedSingleBond NonConjugatedSingleBond NonConjugatedSingleBond ConjugatedSingleBond ConjugatedSingleBond ConjugatedDoubleBond ConjugatedSingleBond ConjugatedSingleBond ConjugatedDoubleBond ConjugatedSingleBond ConjugatedSingleBond NonConjugatedSingleBond NonConjugatedSingleBond NonConjugatedSingleBond NonConjugatedSingleBond NonConjugatedSingleBond NonConjugatedSingleBond NonConjugatedSingleBond NonConjugatedSingleBond NonConjugatedSingleBond NonConjugatedSingleBond NonConjugatedSingleBond NonConjugatedSingleBond NonConjugatedSingleBond NonConjugatedSingleBond NonConjugatedSingleBond NonConjugatedSingleBond NonConjugatedSingleBond ConjugatedDoubleBond AmideSingleBond NonConjugatedSingleBond NonConjugatedSingleBond NonConjugatedSingleBond NonConjugatedSingleBond NonConjugatedSingleBond NonConjugatedSingleBond NonConjugatedSingleBond NonConjugatedSingleBond ConjugatedDoubleBond AmideSingleBond NonConjugatedSingleBond NonConjugatedSingleBond NonConjugatedSingleBond NonConjugatedSingleBond NonConjugatedSingleBond NonConjugatedSingleBond NonConjugatedSingleBond NonConjugatedSingleBond ConjugatedSingleBond ConjugatedDoubleBond NonConjugatedSingleBond NonConjugatedSingleBond NonConjugatedSingleBond NonConjugatedSingleBond
M  BCL CHI  15   S  17   S  21   S  24   S  28   R  35   R  39   R  55   S
M  BCL DBI - - - - - - - - - -
M  END
> <ConfClashScore>
0 

> <ConfOneFourInteractionScore>
-0.978469 

> <ConfScore>
-0.0440422 

> <ConfScorePBest>
0.0143775 

> <ConfTolerance>
2.56447 

$$$$
ACO.****
  PyMOL2.5          3D                             0

 85 87  0  0  0  0  0  0  0  0999 V2000
    4.8959    1.0596  -10.6263 N   0  0  0  1  0  0  0  0  0  0  0  0
    3.8518    1.8974  -10.5266 C   0  0  0  1  0  0  0  0  0  0  0  0
    3.8309    2.6743  -11.2177 H   0  0  0  1  0  0  0  0  0  0  0  0
    2.8424    1.8683   -9.6651 N   0  0  0  1  0  0  0  0  0  0  0  0
    2.9507    0.8381   -8.8248 C   0  0  0  1  0  0  0  0  0  0  0  0
    3.9758   -0.1170   -8.7987 C   0  0  0  1  0  0  0  0  0  0  0  0
    4.9720    0.0463   -9.7568 C   0  0  0  1  0  0  0  0  0  0  0  0
    6.0879   -0.7688   -9.9129 N   0  0  0  1  0  0  0  0  0  0  0  0
    6.2455   -1.5084   -9.2896 H   0  0  0  1  0  0  0  0  0  0  0  0
    6.7167   -0.6034  -10.6462 H   0  0  0  1  0  0  0  0  0  0  0  0
    3.7571   -1.0285   -7.7774 N   0  0  0  1  0  0  0  0  0  0  0  0
    2.6432   -0.6180   -7.2346 C   0  0  0  1  0  0  0  0  0  0  0  0
    2.2008   -1.1053   -6.4294 H   0  0  0  1  0  0  0  0  0  0  0  0
    2.1044    0.4959   -7.8019 N   0  0  0  1  0  0  0  0  0  0  0  0
    0.8780    1.1435   -7.3659 C   0  0  0  1  0  0  0  0  0  0  0  0
    0.4606    0.6012   -6.5434 H   0  0  0  1  0  0  0  0  0  0  0  0
    1.1394    2.6210   -6.9792 C   0  0  0  1  0  0  0  0  0  0  0  0
    1.8584    3.0716   -7.6310 H   0  0  0  1  0  0  0  0  0  0  0  0
    1.5848    2.7313   -5.6316 O   0  0  0  1  0  0  0  0  0  0  0  0
    0.8266    2.7356   -5.0428 H   0  0  0  1  0  0  0  0  0  0  0  0
   -0.2636    3.2572   -7.1625 C   0  0  0  1  0  0  0  0  0  0  0  0
   -0.1856    4.2293   -7.6028 H   0  0  0  1  0  0  0  0  0  0  0  0
   -0.9551    3.3557   -5.8905 O   0  0  0  1  0  0  0  0  0  0  0  0
   -2.5480    3.7406   -5.8270 P   0  0  0  1  0  0  0  0  0  0  0  0
   -2.7686    5.2681   -6.3819 O   0  0  0  0  0  0  0  0  0  0  0  0
   -3.3417    2.7924   -6.6402 O   0  0  0  1  0  0  0  0  0  0  0  0
   -2.9890    3.6313   -4.2720 O   0  5  0  1  0  0  0  0  0  0  0  0
   -0.9943    2.2846   -8.1088 C   0  0  0  1  0  0  0  0  0  0  0  0
   -1.8482    1.8679   -7.6167 H   0  0  0  1  0  0  0  0  0  0  0  0
   -0.0677    1.2414   -8.4520 O   0  0  0  1  0  0  0  0  0  0  0  0
   -1.4265    2.9960   -9.3274 C   0  0  0  1  0  0  0  0  0  0  0  0
   -0.5739    3.4401   -9.7971 H   0  0  0  1  0  0  0  0  0  0  0  0
   -2.1256    3.7605   -9.0597 H   0  0  0  1  0  0  0  0  0  0  0  0
   -2.0569    2.0757  -10.2541 O   0  0  0  1  0  0  0  0  0  0  0  0
   -2.6129    2.5785  -11.6376 P   0  0  0  1  0  0  0  0  0  0  0  0
   -1.4493    2.9542  -12.4773 O   0  0  0  0  0  0  0  0  0  0  0  0
   -3.5305    3.7365  -11.4427 O   0  0  0  1  0  0  0  0  0  0  0  0
   -3.5534    1.4045  -12.2018 O   0  0  0  1  0  0  0  0  0  0  0  0
   -4.9461    1.4208  -13.0677 P   0  0  0  1  0  0  0  0  0  0  0  0
   -5.8311    0.3798  -12.4989 O   0  0  0  1  0  0  0  0  0  0  0  0
   -5.6695    2.8695  -13.1130 O   0  5  0  1  0  0  0  0  0  0  0  0
   -4.5760    0.9755  -14.5309 O   0  0  0  1  0  0  0  0  0  0  0  0
   -3.3135    1.1186  -16.5944 C   0  0  0  1  0  0  0  0  0  0  0  0
   -3.6743    1.7734  -15.3478 C   0  0  0  1  0  0  0  0  0  0  0  0
   -2.7812    1.9593  -14.7886 H   0  0  0  1  0  0  0  0  0  0  0  0
   -4.1527    2.7029  -15.5763 H   0  0  0  1  0  0  0  0  0  0  0  0
   -2.1745    1.8566  -17.3033 C   0  0  0  1  0  0  0  0  0  0  0  0
   -2.3950    2.9030  -17.3396 H   0  0  0  1  0  0  0  0  0  0  0  0
   -2.0709    1.4794  -18.2993 H   0  0  0  1  0  0  0  0  0  0  0  0
   -1.2618    1.7031  -16.7665 H   0  0  0  1  0  0  0  0  0  0  0  0
   -4.5100    0.9863  -17.5364 C   0  0  0  1  0  0  0  0  0  0  0  0
   -4.9791    1.9407  -17.6543 H   0  0  0  1  0  0  0  0  0  0  0  0
   -5.2127    0.2923  -17.1247 H   0  0  0  1  0  0  0  0  0  0  0  0
   -4.1759    0.6332  -18.4896 H   0  0  0  1  0  0  0  0  0  0  0  0
   -2.8291   -0.2869  -16.2190 C   0  0  0  1  0  0  0  0  0  0  0  0
   -3.5676   -0.7353  -15.5878 H   0  0  0  1  0  0  0  0  0  0  0  0
   -2.6781   -1.0508  -17.3922 O   0  0  0  1  0  0  0  0  0  0  0  0
   -3.5432   -1.2963  -17.7282 H   0  0  0  1  0  0  0  0  0  0  0  0
   -1.5263   -0.1979  -15.4386 C   0  0  0  1  0  0  0  0  0  0  0  0
   -1.5003    0.2333  -14.2866 O   0  0  0  1  0  0  0  0  0  0  0  0
   -0.4282   -0.6167  -16.0873 N   0  0  0  1  0  0  0  0  0  0  0  0
   -0.5100   -0.7969  -17.0471 H   0  0  0  1  0  0  0  0  0  0  0  0
    0.8776   -0.8237  -15.4711 C   0  0  0  1  0  0  0  0  0  0  0  0
    1.3820   -1.5975  -16.0112 H   0  0  0  1  0  0  0  0  0  0  0  0
    0.7230   -1.1365  -14.4596 H   0  0  0  1  0  0  0  0  0  0  0  0
    1.7756    0.4064  -15.4552 C   0  0  0  1  0  0  0  0  0  0  0  0
    2.7811    0.0916  -15.2682 H   0  0  0  1  0  0  0  0  0  0  0  0
    1.4519    1.0542  -14.6675 H   0  0  0  1  0  0  0  0  0  0  0  0
    1.7468    1.1743  -16.7495 C   0  0  0  1  0  0  0  0  0  0  0  0
    0.6868    1.5977  -17.2086 O   0  0  0  1  0  0  0  0  0  0  0  0
    2.9049    1.3815  -17.3828 N   0  0  0  1  0  0  0  0  0  0  0  0
    3.7241    0.9945  -17.0093 H   0  0  0  1  0  0  0  0  0  0  0  0
    2.9926    2.1666  -18.6154 C   0  0  0  1  0  0  0  0  0  0  0  0
    3.8646    2.7847  -18.5669 H   0  0  0  1  0  0  0  0  0  0  0  0
    2.1215    2.7832  -18.6919 H   0  0  0  1  0  0  0  0  0  0  0  0
    3.0819    1.2992  -19.8501 C   0  0  0  1  0  0  0  0  0  0  0  0
    2.2384    0.6409  -19.8648 H   0  0  0  1  0  0  0  0  0  0  0  0
    3.9827    0.7242  -19.7972 H   0  0  0  1  0  0  0  0  0  0  0  0
    3.0961    2.2495  -21.3888 S   0  0  0  1  0  0  0  0  0  0  0  0
    1.3896    2.3260  -21.7949 C   0  0  0  1  0  0  0  0  0  0  0  0
    0.4929    1.9014  -21.1036 O   0  0  0  1  0  0  0  0  0  0  0  0
    1.1280    2.9145  -23.1897 C   0  0  0  1  0  0  0  0  0  0  0  0
    1.6564    3.8393  -23.2920 H   0  0  0  1  0  0  0  0  0  0  0  0
    0.0793    3.0876  -23.3126 H   0  0  0  1  0  0  0  0  0  0  0  0
    1.4663    2.2264  -23.9360 H   0  0  0  1  0  0  0  0  0  0  0  0
  1  2  1  0  0  0  0
  1  7  2  0  0  0  0
  2  3  1  0  0  0  0
  2  4  2  0  0  0  0
  4  5  1  0  0  0  0
  5  6  2  0  0  0  0
  5 14  1  0  0  0  0
  6  7  1  0  0  0  0
  6 11  1  0  0  0  0
  7  8  1  0  0  0  0
  8  9  1  0  0  0  0
  8 10  1  0  0  0  0
 11 12  2  0  0  0  0
 12 13  1  0  0  0  0
 12 14  1  0  0  0  0
 14 15  1  0  0  0  0
 15 16  1  0  0  0  0
 15 17  1  0  0  0  0
 15 30  1  0  0  0  0
 17 18  1  0  0  0  0
 17 19  1  0  0  0  0
 17 21  1  0  0  0  0
 19 20  1  0  0  0  0
 21 22  1  0  0  0  0
 21 23  1  0  0  0  0
 21 28  1  0  0  0  0
 23 24  1  0  0  0  0
 24 25  1  0  0  0  0
 24 26  2  0  0  0  0
 24 27  1  0  0  0  0
 28 29  1  0  0  0  0
 28 30  1  0  0  0  0
 28 31  1  0  0  0  0
 31 32  1  0  0  0  0
 31 33  1  0  0  0  0
 31 34  1  0  0  0  0
 34 35  1  0  0  0  0
 35 36  1  0  0  0  0
 35 37  2  0  0  0  0
 35 38  1  0  0  0  0
 38 39  1  0  0  0  0
 39 40  2  0  0  0  0
 39 41  1  0  0  0  0
 39 42  1  0  0  0  0
 42 44  1  0  0  0  0
 43 44  1  0  0  0  0
 43 47  1  0  0  0  0
 43 51  1  0  0  0  0
 43 55  1  0  0  0  0
 44 45  1  0  0  0  0
 44 46  1  0  0  0  0
 47 48  1  0  0  0  0
 47 49  1  0  0  0  0
 47 50  1  0  0  0  0
 51 52  1  0  0  0  0
 51 53  1  0  0  0  0
 51 54  1  0  0  0  0
 55 56  1  0  0  0  0
 55 57  1  0  0  0  0
 55 59  1  0  0  0  0
 57 58  1  0  0  0  0
 59 60  2  0  0  0  0
 59 61  1  0  0  0  0
 61 62  1  0  0  0  0
 61 63  1  0  0  0  0
 63 64  1  0  0  0  0
 63 65  1  0  0  0  0
 63 66  1  0  0  0  0
 66 67  1  0  0  0  0
 66 68  1  0  0  0  0
 66 69  1  0  0  0  0
 69 70  2  0  0  0  0
 69 71  1  0  0  0  0
 71 72  1  0  0  0  0
 71 73  1  0  0  0  0
 73 74  1  0  0  0  0
 73 75  1  0  0  0  0
 73 76  1  0  0  0  0
 76 77  1  0  0  0  0
 76 78  1  0  0  0  0
 76 79  1  0  0  0  0
 79 80  1  0  0  0  0
 80 81  2  0  0  0  0
 80 82  1  0  0  0  0
 82 83  1  0  0  0  0
 82 84  1  0  0  0  0
 82 85  1  0  0  0  0
M  BCL ATM N_Tr2TrTrPi C_TrTrTrPi H_S N_Tr2TrTrPi C_TrTrTrPi C_TrTrTrPi C_TrTrTrPi N_TrTrTrPi2 H_S H_S N_Tr2TrTrPi C_TrTrTrPi H_S N_TrTrTrPi2 C_TeTeTeTe H_S C_TeTeTeTe H_S O_Te2Te2TeTe H_S C_TeTeTeTe H_S O_Tr2TrTrPi2 P_TeTeTeTePi O_Te2Te2TeTe O_Tr2Tr2TrPi O_Te2Te2Te2Te C_TeTeTeTe H_S O_Te2Te2TeTe C_TeTeTeTe H_S H_S O_Tr2TrTrPi2 P_TeTeTeTePi O_Te2Te2TeTe O_Tr2Tr2TrPi O_Tr2TrTrPi2 P_TeTeTeTePi O_Tr2Tr2TrPi O_Te2Te2Te2Te O_Tr2TrTrPi2 C_TeTeTeTe C_TeTeTeTe H_S H_S C_TeTeTeTe H_S H_S H_S C_TeTeTeTe H_S H_S H_S C_TeTeTeTe H_S O_Te2Te2TeTe H_S C_TrTrTrPi O_Tr2Tr2TrPi N_TrTrTrPi2 H_S C_TeTeTeTe H_S H_S C_TeTeTeTe H_S H_S C_TrTrTrPi O_Tr2Tr2TrPi N_TrTrTrPi2 H_S C_TeTeTeTe H_S H_S C_TeTeTeTe H_S H_S S_Te2Te2TeTe C_TrTrTrPi O_Tr2Tr2TrPi C_TeTeTeTe H_S H_S H_S
M  BCL BND AromaticSingleBond AromaticDoubleBond NonConjugatedSingleBond AromaticDoubleBond AromaticSingleBond AromaticDoubleBond AromaticSingleBond AromaticSingleBond AromaticSingleBond ConjugatedSingleBond NonConjugatedSingleBond NonConjugatedSingleBond AromaticDoubleBond NonConjugatedSingleBond AromaticSingleBond NonConjugatedSingleBond NonConjugatedSingleBond NonConjugatedSingleBondInRing NonConjugatedSingleBondInRing NonConjugatedSingleBond NonConjugatedSingleBond NonConjugatedSingleBondInRing NonConjugatedSingleBond NonConjugatedSingleBond NonConjugatedSingleBond NonConjugatedSingleBondInRing ConjugatedSingleBond ConjugatedSingleBond ConjugatedDoubleBond ConjugatedSingleBond NonConjugatedSingleBond NonConjugatedSingleBondInRing NonConjugatedSingleBond NonConjugatedSingleBond NonConjugatedSingleBond NonConjugatedSingleBond ConjugatedSingleBond ConjugatedSingleBond ConjugatedDoubleBond ConjugatedSingleBond ConjugatedSingleBond ConjugatedDoubleBond ConjugatedSingleBond ConjugatedSingleBond NonConjugatedSingleBond NonConjugatedSingleBond NonConjugatedSingleBond NonConjugatedSingleBond NonConjugatedSingleBond NonConjugatedSingleBond NonConjugatedSingleBond NonConjugatedSingleBond NonConjugatedSingleBond NonConjugatedSingleBond NonConjugatedSingleBond NonConjugatedSingleBond NonConjugatedSingleBond NonConjugatedSingleBond NonConjugatedSingleBond NonConjugatedSingleBond NonConjugatedSingleBond ConjugatedDoubleBond AmideSingleBond NonConjugatedSingleBond NonConjugatedSingleBond NonConjugatedSingleBond NonConjugatedSingleBond NonConjugatedSingleBond NonConjugatedSingleBond NonConjugatedSingleBond NonConjugatedSingleBond ConjugatedDoubleBond AmideSingleBond NonConjugatedSingleBond NonConjugatedSingleBond NonConjugatedSingleBond NonConjugatedSingleBond NonConjugatedSingleBond NonConjugatedSingleBond NonConjugatedSingleBond NonConjugatedSingleBond ConjugatedSingleBond ConjugatedDoubleBond NonConjugatedSingleBond NonConjugatedSingleBond NonConjugatedSingleBond NonConjugatedSingleBond
M  BCL CHI  15   S  17   S  21   S  24   S  28   R  35   R  39   R  55   S
M  BCL DBI - - - - - - - - - -
M  END
> <ConfClashScore>
0 

> <ConfOneFourInteractionScore>
-0.987179 

> <ConfScore>
-0.0399111 

> <ConfScorePBest>
0.0142745 

> <ConfTolerance>
2.41553 

$$$$
ACO.****
  PyMOL2.5          3D                             0

 85 87  0  0  0  0  0  0  0  0999 V2000
    4.8939    1.0649  -10.6254 N   0  0  0  1  0  0  0  0  0  0  0  0
    3.8488    1.9010  -10.5225 C   0  0  0  1  0  0  0  0  0  0  0  0
    3.8262    2.6797  -11.2115 H   0  0  0  1  0  0  0  0  0  0  0  0
    2.8403    1.8681   -9.6601 N   0  0  0  1  0  0  0  0  0  0  0  0
    2.9508    0.8359   -8.8227 C   0  0  0  1  0  0  0  0  0  0  0  0
    3.9773   -0.1179   -8.8001 C   0  0  0  1  0  0  0  0  0  0  0  0
    4.9723    0.0494   -9.7587 C   0  0  0  1  0  0  0  0  0  0  0  0
    6.0892   -0.7636   -9.9180 N   0  0  0  1  0  0  0  0  0  0  0  0
    6.7777   -0.5273  -10.5742 H   0  0  0  1  0  0  0  0  0  0  0  0
    6.1879   -1.5729   -9.3741 H   0  0  0  1  0  0  0  0  0  0  0  0
    3.7609   -1.0324   -7.7811 N   0  0  0  1  0  0  0  0  0  0  0  0
    2.6469   -0.6250   -7.2362 C   0  0  0  1  0  0  0  0  0  0  0  0
    2.2059   -1.1150   -6.4318 H   0  0  0  1  0  0  0  0  0  0  0  0
    2.1060    0.4896   -7.7999 N   0  0  0  1  0  0  0  0  0  0  0  0
    0.8690    1.1396   -7.3575 C   0  0  0  1  0  0  0  0  0  0  0  0
    0.1224    1.0417   -8.1177 H   0  0  0  1  0  0  0  0  0  0  0  0
    0.3755    0.4900   -6.0550 C   0  0  0  1  0  0  0  0  0  0  0  0
    1.1541   -0.0753   -5.5869 H   0  0  0  1  0  0  0  0  0  0  0  0
   -0.7508   -0.3576   -6.2964 O   0  0  0  1  0  0  0  0  0  0  0  0
   -1.4426    0.1452   -6.7324 H   0  0  0  1  0  0  0  0  0  0  0  0
   -0.0179    1.7024   -5.2005 C   0  0  0  1  0  0  0  0  0  0  0  0
    0.1352    1.5029   -4.1604 H   0  0  0  1  0  0  0  0  0  0  0  0
   -1.3906    2.0632   -5.4225 O   0  0  0  1  0  0  0  0  0  0  0  0
   -2.5006    2.3379   -4.2470 P   0  0  0  1  0  0  0  0  0  0  0  0
   -4.0004    2.3455   -4.9104 O   0  0  0  0  0  0  0  0  0  0  0  0
   -2.4835    1.3783   -3.1204 O   0  0  0  1  0  0  0  0  0  0  0  0
   -2.2582    3.8357   -3.6794 O   0  5  0  1  0  0  0  0  0  0  0  0
    0.9118    2.7916   -5.6841 C   0  0  0  1  0  0  0  0  0  0  0  0
    0.4642    3.7553   -5.5584 H   0  0  0  1  0  0  0  0  0  0  0  0
    1.1100    2.4942   -7.0998 O   0  0  0  1  0  0  0  0  0  0  0  0
    2.2098    2.7447   -4.9472 C   0  0  0  1  0  0  0  0  0  0  0  0
    2.0721    3.0913   -3.9442 H   0  0  0  1  0  0  0  0  0  0  0  0
    2.9320    3.3601   -5.4417 H   0  0  0  1  0  0  0  0  0  0  0  0
    2.6595    1.3686   -4.9359 O   0  0  0  1  0  0  0  0  0  0  0  0
    3.9052    0.9054   -3.9957 P   0  0  0  1  0  0  0  0  0  0  0  0
    3.4616    0.7929   -2.5840 O   0  0  0  0  0  0  0  0  0  0  0  0
    5.1254    1.6755   -4.3204 O   0  0  0  1  0  0  0  0  0  0  0  0
    3.9626   -0.5488   -4.6763 O   0  0  0  1  0  0  0  0  0  0  0  0
    3.3446   -2.0028   -4.2361 P   0  0  0  1  0  0  0  0  0  0  0  0
    1.9659   -1.7764   -3.7479 O   0  0  0  1  0  0  0  0  0  0  0  0
    3.1295   -2.8700   -5.5874 O   0  5  0  1  0  0  0  0  0  0  0  0
    4.2278   -2.7732   -3.1861 O   0  0  0  1  0  0  0  0  0  0  0  0
    4.8493   -4.6070   -1.7713 C   0  0  0  1  0  0  0  0  0  0  0  0
    3.8328   -4.0739   -2.6988 C   0  0  0  1  0  0  0  0  0  0  0  0
    3.7262   -4.7430   -3.5270 H   0  0  0  1  0  0  0  0  0  0  0  0
    2.8978   -3.9889   -2.1856 H   0  0  0  1  0  0  0  0  0  0  0  0
    4.3895   -5.9175   -1.1267 C   0  0  0  1  0  0  0  0  0  0  0  0
    4.1376   -6.6225   -1.8912 H   0  0  0  1  0  0  0  0  0  0  0  0
    3.5308   -5.7322   -0.5158 H   0  0  0  1  0  0  0  0  0  0  0  0
    5.1788   -6.3137   -0.5226 H   0  0  0  1  0  0  0  0  0  0  0  0
    5.1514   -3.5990   -0.6643 C   0  0  0  1  0  0  0  0  0  0  0  0
    6.2104   -3.4774   -0.5712 H   0  0  0  1  0  0  0  0  0  0  0  0
    4.7508   -3.9557    0.2615 H   0  0  0  1  0  0  0  0  0  0  0  0
    4.7046   -2.6577   -0.9077 H   0  0  0  1  0  0  0  0  0  0  0  0
    6.1201   -4.8513   -2.5925 C   0  0  0  1  0  0  0  0  0  0  0  0
    6.4321   -3.9129   -3.0011 H   0  0  0  1  0  0  0  0  0  0  0  0
    7.1695   -5.3861   -1.7891 O   0  0  0  1  0  0  0  0  0  0  0  0
    7.3727   -6.2782   -2.0798 H   0  0  0  1  0  0  0  0  0  0  0  0
    5.8259   -5.7929   -3.7493 C   0  0  0  1  0  0  0  0  0  0  0  0
    5.8555   -7.0129   -3.5930 O   0  0  0  1  0  0  0  0  0  0  0  0
    5.5351   -5.2561   -4.9377 N   0  0  0  1  0  0  0  0  0  0  0  0
    5.5933   -4.2837   -5.0444 H   0  0  0  1  0  0  0  0  0  0  0  0
    5.1350   -6.0653   -6.0792 C   0  0  0  1  0  0  0  0  0  0  0  0
    4.6724   -5.4294   -6.8049 H   0  0  0  1  0  0  0  0  0  0  0  0
    4.4316   -6.8006   -5.7485 H   0  0  0  1  0  0  0  0  0  0  0  0
    6.3104   -6.7744   -6.7317 C   0  0  0  1  0  0  0  0  0  0  0  0
    6.7349   -7.4537   -6.0223 H   0  0  0  1  0  0  0  0  0  0  0  0
    7.0406   -6.0419   -7.0059 H   0  0  0  1  0  0  0  0  0  0  0  0
    5.9195   -7.5540   -7.9722 C   0  0  0  1  0  0  0  0  0  0  0  0
    4.7867   -7.4746   -8.4456 O   0  0  0  1  0  0  0  0  0  0  0  0
    6.8777   -8.3189   -8.5029 N   0  0  0  1  0  0  0  0  0  0  0  0
    7.7769   -8.2881   -8.1144 H   0  0  0  1  0  0  0  0  0  0  0  0
    6.6329   -9.1956   -9.6369 C   0  0  0  1  0  0  0  0  0  0  0  0
    5.8125   -8.7961  -10.1959 H   0  0  0  1  0  0  0  0  0  0  0  0
    6.3714  -10.1624   -9.2604 H   0  0  0  1  0  0  0  0  0  0  0  0
    7.8049   -9.3571  -10.5731 C   0  0  0  1  0  0  0  0  0  0  0  0
    7.5024   -9.9974  -11.3752 H   0  0  0  1  0  0  0  0  0  0  0  0
    8.6023   -9.8186  -10.0290 H   0  0  0  1  0  0  0  0  0  0  0  0
    8.4318   -7.8202  -11.2895 S   0  0  0  1  0  0  0  0  0  0  0  0
    9.3888   -7.0835   -9.9850 C   0  0  0  1  0  0  0  0  0  0  0  0
    9.5179   -7.5757   -8.9003 O   0  0  0  1  0  0  0  0  0  0  0  0
   10.0150   -5.7734  -10.4033 C   0  0  0  1  0  0  0  0  0  0  0  0
   10.2060   -5.1759   -9.5365 H   0  0  0  1  0  0  0  0  0  0  0  0
    9.3468   -5.2513  -11.0559 H   0  0  0  1  0  0  0  0  0  0  0  0
   10.9356   -5.9653  -10.9139 H   0  0  0  1  0  0  0  0  0  0  0  0
  1  2  1  0  0  0  0
  1  7  2  0  0  0  0
  2  3  1  0  0  0  0
  2  4  2  0  0  0  0
  4  5  1  0  0  0  0
  5  6  2  0  0  0  0
  5 14  1  0  0  0  0
  6  7  1  0  0  0  0
  6 11  1  0  0  0  0
  7  8  1  0  0  0  0
  8  9  1  0  0  0  0
  8 10  1  0  0  0  0
 11 12  2  0  0  0  0
 12 13  1  0  0  0  0
 12 14  1  0  0  0  0
 14 15  1  0  0  0  0
 15 16  1  0  0  0  0
 15 17  1  0  0  0  0
 15 30  1  0  0  0  0
 17 18  1  0  0  0  0
 17 19  1  0  0  0  0
 17 21  1  0  0  0  0
 19 20  1  0  0  0  0
 21 22  1  0  0  0  0
 21 23  1  0  0  0  0
 21 28  1  0  0  0  0
 23 24  1  0  0  0  0
 24 25  1  0  0  0  0
 24 26  2  0  0  0  0
 24 27  1  0  0  0  0
 28 29  1  0  0  0  0
 28 30  1  0  0  0  0
 28 31  1  0  0  0  0
 31 32  1  0  0  0  0
 31 33  1  0  0  0  0
 31 34  1  0  0  0  0
 34 35  1  0  0  0  0
 35 36  1  0  0  0  0
 35 37  2  0  0  0  0
 35 38  1  0  0  0  0
 38 39  1  0  0  0  0
 39 40  2  0  0  0  0
 39 41  1  0  0  0  0
 39 42  1  0  0  0  0
 42 44  1  0  0  0  0
 43 44  1  0  0  0  0
 43 47  1  0  0  0  0
 43 51  1  0  0  0  0
 43 55  1  0  0  0  0
 44 45  1  0  0  0  0
 44 46  1  0  0  0  0
 47 48  1  0  0  0  0
 47 49  1  0  0  0  0
 47 50  1  0  0  0  0
 51 52  1  0  0  0  0
 51 53  1  0  0  0  0
 51 54  1  0  0  0  0
 55 56  1  0  0  0  0
 55 57  1  0  0  0  0
 55 59  1  0  0  0  0
 57 58  1  0  0  0  0
 59 60  2  0  0  0  0
 59 61  1  0  0  0  0
 61 62  1  0  0  0  0
 61 63  1  0  0  0  0
 63 64  1  0  0  0  0
 63 65  1  0  0  0  0
 63 66  1  0  0  0  0
 66 67  1  0  0  0  0
 66 68  1  0  0  0  0
 66 69  1  0  0  0  0
 69 70  2  0  0  0  0
 69 71  1  0  0  0  0
 71 72  1  0  0  0  0
 71 73  1  0  0  0  0
 73 74  1  0  0  0  0
 73 75  1  0  0  0  0
 73 76  1  0  0  0  0
 76 77  1  0  0  0  0
 76 78  1  0  0  0  0
 76 79  1  0  0  0  0
 79 80  1  0  0  0  0
 80 81  2  0  0  0  0
 80 82  1  0  0  0  0
 82 83  1  0  0  0  0
 82 84  1  0  0  0  0
 82 85  1  0  0  0  0
M  BCL ATM N_Tr2TrTrPi C_TrTrTrPi H_S N_Tr2TrTrPi C_TrTrTrPi C_TrTrTrPi C_TrTrTrPi N_TrTrTrPi2 H_S H_S N_Tr2TrTrPi C_TrTrTrPi H_S N_TrTrTrPi2 C_TeTeTeTe H_S C_TeTeTeTe H_S O_Te2Te2TeTe H_S C_TeTeTeTe H_S O_Tr2TrTrPi2 P_TeTeTeTePi O_Te2Te2TeTe O_Tr2Tr2TrPi O_Te2Te2Te2Te C_TeTeTeTe H_S O_Te2Te2TeTe C_TeTeTeTe H_S H_S O_Tr2TrTrPi2 P_TeTeTeTePi O_Te2Te2TeTe O_Tr2Tr2TrPi O_Tr2TrTrPi2 P_TeTeTeTePi O_Tr2Tr2TrPi O_Te2Te2Te2Te O_Tr2TrTrPi2 C_TeTeTeTe C_TeTeTeTe H_S H_S C_TeTeTeTe H_S H_S H_S C_TeTeTeTe H_S H_S H_S C_TeTeTeTe H_S O_Te2Te2TeTe H_S C_TrTrTrPi O_Tr2Tr2TrPi N_TrTrTrPi2 H_S C_TeTeTeTe H_S H_S C_TeTeTeTe H_S H_S C_TrTrTrPi O_Tr2Tr2TrPi N_TrTrTrPi2 H_S C_TeTeTeTe H_S H_S C_TeTeTeTe H_S H_S S_Te2Te2TeTe C_TrTrTrPi O_Tr2Tr2TrPi C_TeTeTeTe H_S H_S H_S
M  BCL BND AromaticSingleBond AromaticDoubleBond NonConjugatedSingleBond AromaticDoubleBond AromaticSingleBond AromaticDoubleBond AromaticSingleBond AromaticSingleBond AromaticSingleBond ConjugatedSingleBond NonConjugatedSingleBond NonConjugatedSingleBond AromaticDoubleBond NonConjugatedSingleBond AromaticSingleBond NonConjugatedSingleBond NonConjugatedSingleBond NonConjugatedSingleBondInRing NonConjugatedSingleBondInRing NonConjugatedSingleBond NonConjugatedSingleBond NonConjugatedSingleBondInRing NonConjugatedSingleBond NonConjugatedSingleBond NonConjugatedSingleBond NonConjugatedSingleBondInRing ConjugatedSingleBond ConjugatedSingleBond ConjugatedDoubleBond ConjugatedSingleBond NonConjugatedSingleBond NonConjugatedSingleBondInRing NonConjugatedSingleBond NonConjugatedSingleBond NonConjugatedSingleBond NonConjugatedSingleBond ConjugatedSingleBond ConjugatedSingleBond ConjugatedDoubleBond ConjugatedSingleBond ConjugatedSingleBond ConjugatedDoubleBond ConjugatedSingleBond ConjugatedSingleBond NonConjugatedSingleBond NonConjugatedSingleBond NonConjugatedSingleBond NonConjugatedSingleBond NonConjugatedSingleBond NonConjugatedSingleBond NonConjugatedSingleBond NonConjugatedSingleBond NonConjugatedSingleBond NonConjugatedSingleBond NonConjugatedSingleBond NonConjugatedSingleBond NonConjugatedSingleBond NonConjugatedSingleBond NonConjugatedSingleBond NonConjugatedSingleBond NonConjugatedSingleBond ConjugatedDoubleBond AmideSingleBond NonConjugatedSingleBond NonConjugatedSingleBond NonConjugatedSingleBond NonConjugatedSingleBond NonConjugatedSingleBond NonConjugatedSingleBond NonConjugatedSingleBond NonConjugatedSingleBond ConjugatedDoubleBond AmideSingleBond NonConjugatedSingleBond NonConjugatedSingleBond NonConjugatedSingleBond NonConjugatedSingleBond NonConjugatedSingleBond NonConjugatedSingleBond NonConjugatedSingleBond NonConjugatedSingleBond ConjugatedSingleBond ConjugatedDoubleBond NonConjugatedSingleBond NonConjugatedSingleBond NonConjugatedSingleBond NonConjugatedSingleBond
M  BCL CHI  15   S  17   S  21   S  24   S  28   R  35   R  39   R  55   S
M  BCL DBI - - - - - - - - - -
M  END
> <ConfClashScore>
0 

> <ConfOneFourInteractionScore>
-0.984502 

> <ConfScore>
-0.0395965 

> <ConfScorePBest>
0.0141715 

> <ConfTolerance>
2.4081 

$$$$
ACO.****
  PyMOL2.5          3D                             0

 85 87  0  0  0  0  0  0  0  0999 V2000
    4.8809    1.0752  -10.6406 N   0  0  0  1  0  0  0  0  0  0  0  0
    3.8300    1.9027  -10.5280 C   0  0  0  1  0  0  0  0  0  0  0  0
    3.7951    2.6817  -11.2162 H   0  0  0  1  0  0  0  0  0  0  0  0
    2.8294    1.8612   -9.6568 N   0  0  0  1  0  0  0  0  0  0  0  0
    2.9556    0.8294   -8.8211 C   0  0  0  1  0  0  0  0  0  0  0  0
    3.9899   -0.1161   -8.8081 C   0  0  0  1  0  0  0  0  0  0  0  0
    4.9751    0.0598   -9.7753 C   0  0  0  1  0  0  0  0  0  0  0  0
    6.0612   -0.7667   -9.8948 N   0  0  0  1  0  0  0  0  0  0  0  0
    6.6972   -0.6370  -10.6290 H   0  0  0  1  0  0  0  0  0  0  0  0
    6.2021   -1.4876   -9.2461 H   0  0  0  1  0  0  0  0  0  0  0  0
    3.7898   -1.0330   -7.7879 N   0  0  0  1  0  0  0  0  0  0  0  0
    2.6775   -0.6349   -7.2329 C   0  0  0  1  0  0  0  0  0  0  0  0
    2.2475   -1.1289   -6.4251 H   0  0  0  1  0  0  0  0  0  0  0  0
    2.1227    0.4757   -7.7911 N   0  0  0  1  0  0  0  0  0  0  0  0
    0.8989    1.1925   -7.4208 C   0  0  0  1  0  0  0  0  0  0  0  0
    0.7000    1.9566   -8.1430 H   0  0  0  1  0  0  0  0  0  0  0  0
   -0.2861    0.2176   -7.3342 C   0  0  0  1  0  0  0  0  0  0  0  0
    0.0303   -0.7450   -6.9905 H   0  0  0  1  0  0  0  0  0  0  0  0
   -0.9363    0.0824   -8.5998 O   0  0  0  1  0  0  0  0  0  0  0  0
   -1.3580    0.9125   -8.8337 H   0  0  0  1  0  0  0  0  0  0  0  0
   -1.1950    0.8899   -6.3203 C   0  0  0  1  0  0  0  0  0  0  0  0
   -1.7627    0.1668   -5.7728 H   0  0  0  1  0  0  0  0  0  0  0  0
   -2.0967    1.8255   -6.9664 O   0  0  0  1  0  0  0  0  0  0  0  0
   -3.7228    1.6179   -7.0120 P   0  0  0  1  0  0  0  0  0  0  0  0
   -3.9173    0.3673   -8.0550 O   0  0  0  0  0  0  0  0  0  0  0  0
   -4.2791    1.3042   -5.6769 O   0  0  0  1  0  0  0  0  0  0  0  0
   -4.2450    2.9816   -7.7135 O   0  5  0  1  0  0  0  0  0  0  0  0
   -0.1933    1.6273   -5.3977 C   0  0  0  1  0  0  0  0  0  0  0  0
   -0.5700    2.5954   -5.1411 H   0  0  0  1  0  0  0  0  0  0  0  0
    1.0296    1.7511   -6.1454 O   0  0  0  1  0  0  0  0  0  0  0  0
    0.0429    0.8280   -4.1380 C   0  0  0  1  0  0  0  0  0  0  0  0
   -0.8805    0.6588   -3.6246 H   0  0  0  1  0  0  0  0  0  0  0  0
    0.7221    1.3430   -3.4911 H   0  0  0  1  0  0  0  0  0  0  0  0
    0.6075   -0.4102   -4.5685 O   0  0  0  1  0  0  0  0  0  0  0  0
    1.1997   -1.6152   -3.6665 P   0  0  0  1  0  0  0  0  0  0  0  0
    0.0557   -2.1717   -2.8655 O   0  0  0  0  0  0  0  0  0  0  0  0
    2.2692   -1.0711   -2.8516 O   0  0  0  1  0  0  0  0  0  0  0  0
    1.7729   -2.6355   -4.7807 O   0  0  0  1  0  0  0  0  0  0  0  0
    2.7580   -3.9430   -4.6827 P   0  0  0  1  0  0  0  0  0  0  0  0
    4.1430   -3.4727   -4.9086 O   0  0  0  1  0  0  0  0  0  0  0  0
    2.3836   -4.7958   -3.3572 O   0  5  0  1  0  0  0  0  0  0  0  0
    2.3444   -4.7843   -5.9423 O   0  0  0  1  0  0  0  0  0  0  0  0
    0.9571   -6.1255   -7.3702 C   0  0  0  1  0  0  0  0  0  0  0  0
    1.0183   -5.3332   -6.1268 C   0  0  0  1  0  0  0  0  0  0  0  0
    0.3105   -4.5327   -6.1838 H   0  0  0  1  0  0  0  0  0  0  0  0
    0.7789   -5.9630   -5.2955 H   0  0  0  1  0  0  0  0  0  0  0  0
    2.1395   -7.0998   -7.4563 C   0  0  0  1  0  0  0  0  0  0  0  0
    2.1628   -7.5483   -8.4275 H   0  0  0  1  0  0  0  0  0  0  0  0
    2.0277   -7.8625   -6.7141 H   0  0  0  1  0  0  0  0  0  0  0  0
    3.0525   -6.5681   -7.2872 H   0  0  0  1  0  0  0  0  0  0  0  0
    1.0133   -5.1478   -8.5441 C   0  0  0  1  0  0  0  0  0  0  0  0
    0.0231   -4.8224   -8.7857 H   0  0  0  1  0  0  0  0  0  0  0  0
    1.4455   -5.6349   -9.3932 H   0  0  0  1  0  0  0  0  0  0  0  0
    1.6108   -4.3019   -8.2752 H   0  0  0  1  0  0  0  0  0  0  0  0
   -0.3727   -6.8821   -7.4159 C   0  0  0  1  0  0  0  0  0  0  0  0
   -0.4548   -7.4775   -6.5307 H   0  0  0  1  0  0  0  0  0  0  0  0
   -1.4209   -5.9052   -7.4424 O   0  0  0  1  0  0  0  0  0  0  0  0
   -2.2190   -6.2812   -7.0639 H   0  0  0  1  0  0  0  0  0  0  0  0
   -0.5083   -7.7925   -8.6271 C   0  0  0  1  0  0  0  0  0  0  0  0
    0.3516   -8.6345   -8.8830 O   0  0  0  1  0  0  0  0  0  0  0  0
   -1.5922   -7.6494   -9.4060 N   0  0  0  1  0  0  0  0  0  0  0  0
   -2.2506   -6.9716   -9.1462 H   0  0  0  1  0  0  0  0  0  0  0  0
   -1.8632   -8.4249  -10.6073 C   0  0  0  1  0  0  0  0  0  0  0  0
   -2.8217   -8.8895  -10.5065 H   0  0  0  1  0  0  0  0  0  0  0  0
   -1.1097   -9.1782  -10.7063 H   0  0  0  1  0  0  0  0  0  0  0  0
   -1.8658   -7.5706  -11.8644 C   0  0  0  1  0  0  0  0  0  0  0  0
   -0.8873   -7.1503  -11.9680 H   0  0  0  1  0  0  0  0  0  0  0  0
   -2.5778   -6.7857  -11.7166 H   0  0  0  1  0  0  0  0  0  0  0  0
   -2.2106   -8.2581  -13.1858 C   0  0  0  1  0  0  0  0  0  0  0  0
   -1.6349   -9.2942  -13.5155 O   0  0  0  1  0  0  0  0  0  0  0  0
   -3.0864   -7.6351  -13.9889 N   0  0  0  1  0  0  0  0  0  0  0  0
   -3.5148   -6.8222  -13.6481 H   0  0  0  1  0  0  0  0  0  0  0  0
   -3.4483   -8.0755  -15.3279 C   0  0  0  1  0  0  0  0  0  0  0  0
   -4.1013   -7.3430  -15.7545 H   0  0  0  1  0  0  0  0  0  0  0  0
   -3.9650   -9.0087  -15.2435 H   0  0  0  1  0  0  0  0  0  0  0  0
   -2.2821   -8.2674  -16.2644 C   0  0  0  1  0  0  0  0  0  0  0  0
   -2.6660   -8.5893  -17.2099 H   0  0  0  1  0  0  0  0  0  0  0  0
   -1.6516   -9.0297  -15.8567 H   0  0  0  1  0  0  0  0  0  0  0  0
   -1.2710   -6.7939  -16.5428 S   0  0  0  1  0  0  0  0  0  0  0  0
    0.0091   -7.0705  -15.3448 C   0  0  0  1  0  0  0  0  0  0  0  0
   -0.0539   -7.9960  -14.5813 O   0  0  0  1  0  0  0  0  0  0  0  0
    1.1481   -6.0776  -15.3637 C   0  0  0  1  0  0  0  0  0  0  0  0
    1.9772   -6.4953  -15.8957 H   0  0  0  1  0  0  0  0  0  0  0  0
    1.4442   -5.8557  -14.3597 H   0  0  0  1  0  0  0  0  0  0  0  0
    0.8294   -5.1788  -15.8490 H   0  0  0  1  0  0  0  0  0  0  0  0
  1  2  1  0  0  0  0
  1  7  2  0  0  0  0
  2  3  1  0  0  0  0
  2  4  2  0  0  0  0
  4  5  1  0  0  0  0
  5  6  2  0  0  0  0
  5 14  1  0  0  0  0
  6  7  1  0  0  0  0
  6 11  1  0  0  0  0
  7  8  1  0  0  0  0
  8  9  1  0  0  0  0
  8 10  1  0  0  0  0
 11 12  2  0  0  0  0
 12 13  1  0  0  0  0
 12 14  1  0  0  0  0
 14 15  1  0  0  0  0
 15 16  1  0  0  0  0
 15 17  1  0  0  0  0
 15 30  1  0  0  0  0
 17 18  1  0  0  0  0
 17 19  1  0  0  0  0
 17 21  1  0  0  0  0
 19 20  1  0  0  0  0
 21 22  1  0  0  0  0
 21 23  1  0  0  0  0
 21 28  1  0  0  0  0
 23 24  1  0  0  0  0
 24 25  1  0  0  0  0
 24 26  2  0  0  0  0
 24 27  1  0  0  0  0
 28 29  1  0  0  0  0
 28 30  1  0  0  0  0
 28 31  1  0  0  0  0
 31 32  1  0  0  0  0
 31 33  1  0  0  0  0
 31 34  1  0  0  0  0
 34 35  1  0  0  0  0
 35 36  1  0  0  0  0
 35 37  2  0  0  0  0
 35 38  1  0  0  0  0
 38 39  1  0  0  0  0
 39 40  2  0  0  0  0
 39 41  1  0  0  0  0
 39 42  1  0  0  0  0
 42 44  1  0  0  0  0
 43 44  1  0  0  0  0
 43 47  1  0  0  0  0
 43 51  1  0  0  0  0
 43 55  1  0  0  0  0
 44 45  1  0  0  0  0
 44 46  1  0  0  0  0
 47 48  1  0  0  0  0
 47 49  1  0  0  0  0
 47 50  1  0  0  0  0
 51 52  1  0  0  0  0
 51 53  1  0  0  0  0
 51 54  1  0  0  0  0
 55 56  1  0  0  0  0
 55 57  1  0  0  0  0
 55 59  1  0  0  0  0
 57 58  1  0  0  0  0
 59 60  2  0  0  0  0
 59 61  1  0  0  0  0
 61 62  1  0  0  0  0
 61 63  1  0  0  0  0
 63 64  1  0  0  0  0
 63 65  1  0  0  0  0
 63 66  1  0  0  0  0
 66 67  1  0  0  0  0
 66 68  1  0  0  0  0
 66 69  1  0  0  0  0
 69 70  2  0  0  0  0
 69 71  1  0  0  0  0
 71 72  1  0  0  0  0
 71 73  1  0  0  0  0
 73 74  1  0  0  0  0
 73 75  1  0  0  0  0
 73 76  1  0  0  0  0
 76 77  1  0  0  0  0
 76 78  1  0  0  0  0
 76 79  1  0  0  0  0
 79 80  1  0  0  0  0
 80 81  2  0  0  0  0
 80 82  1  0  0  0  0
 82 83  1  0  0  0  0
 82 84  1  0  0  0  0
 82 85  1  0  0  0  0
M  BCL ATM N_Tr2TrTrPi C_TrTrTrPi H_S N_Tr2TrTrPi C_TrTrTrPi C_TrTrTrPi C_TrTrTrPi N_TrTrTrPi2 H_S H_S N_Tr2TrTrPi C_TrTrTrPi H_S N_TrTrTrPi2 C_TeTeTeTe H_S C_TeTeTeTe H_S O_Te2Te2TeTe H_S C_TeTeTeTe H_S O_Tr2TrTrPi2 P_TeTeTeTePi O_Te2Te2TeTe O_Tr2Tr2TrPi O_Te2Te2Te2Te C_TeTeTeTe H_S O_Te2Te2TeTe C_TeTeTeTe H_S H_S O_Tr2TrTrPi2 P_TeTeTeTePi O_Te2Te2TeTe O_Tr2Tr2TrPi O_Tr2TrTrPi2 P_TeTeTeTePi O_Tr2Tr2TrPi O_Te2Te2Te2Te O_Tr2TrTrPi2 C_TeTeTeTe C_TeTeTeTe H_S H_S C_TeTeTeTe H_S H_S H_S C_TeTeTeTe H_S H_S H_S C_TeTeTeTe H_S O_Te2Te2TeTe H_S C_TrTrTrPi O_Tr2Tr2TrPi N_TrTrTrPi2 H_S C_TeTeTeTe H_S H_S C_TeTeTeTe H_S H_S C_TrTrTrPi O_Tr2Tr2TrPi N_TrTrTrPi2 H_S C_TeTeTeTe H_S H_S C_TeTeTeTe H_S H_S S_Te2Te2TeTe C_TrTrTrPi O_Tr2Tr2TrPi C_TeTeTeTe H_S H_S H_S
M  BCL BND AromaticSingleBond AromaticDoubleBond NonConjugatedSingleBond AromaticDoubleBond AromaticSingleBond AromaticDoubleBond AromaticSingleBond AromaticSingleBond AromaticSingleBond ConjugatedSingleBond NonConjugatedSingleBond NonConjugatedSingleBond AromaticDoubleBond NonConjugatedSingleBond AromaticSingleBond NonConjugatedSingleBond NonConjugatedSingleBond NonConjugatedSingleBondInRing NonConjugatedSingleBondInRing NonConjugatedSingleBond NonConjugatedSingleBond NonConjugatedSingleBondInRing NonConjugatedSingleBond NonConjugatedSingleBond NonConjugatedSingleBond NonConjugatedSingleBondInRing ConjugatedSingleBond ConjugatedSingleBond ConjugatedDoubleBond ConjugatedSingleBond NonConjugatedSingleBond NonConjugatedSingleBondInRing NonConjugatedSingleBond NonConjugatedSingleBond NonConjugatedSingleBond NonConjugatedSingleBond ConjugatedSingleBond ConjugatedSingleBond ConjugatedDoubleBond ConjugatedSingleBond ConjugatedSingleBond ConjugatedDoubleBond ConjugatedSingleBond ConjugatedSingleBond NonConjugatedSingleBond NonConjugatedSingleBond NonConjugatedSingleBond NonConjugatedSingleBond NonConjugatedSingleBond NonConjugatedSingleBond NonConjugatedSingleBond NonConjugatedSingleBond NonConjugatedSingleBond NonConjugatedSingleBond NonConjugatedSingleBond NonConjugatedSingleBond NonConjugatedSingleBond NonConjugatedSingleBond NonConjugatedSingleBond NonConjugatedSingleBond NonConjugatedSingleBond ConjugatedDoubleBond AmideSingleBond NonConjugatedSingleBond NonConjugatedSingleBond NonConjugatedSingleBond NonConjugatedSingleBond NonConjugatedSingleBond NonConjugatedSingleBond NonConjugatedSingleBond NonConjugatedSingleBond ConjugatedDoubleBond AmideSingleBond NonConjugatedSingleBond NonConjugatedSingleBond NonConjugatedSingleBond NonConjugatedSingleBond NonConjugatedSingleBond NonConjugatedSingleBond NonConjugatedSingleBond NonConjugatedSingleBond ConjugatedSingleBond ConjugatedDoubleBond NonConjugatedSingleBond NonConjugatedSingleBond NonConjugatedSingleBond NonConjugatedSingleBond
M  BCL CHI  15   S  17   S  21   S  24   S  28   R  35   R  39   R  55   S
M  BCL DBI - - - - - - - - - -
M  END
> <ConfClashScore>
0 

> <ConfOneFourInteractionScore>
-0.985349 

> <ConfScore>
-0.0341992 

> <ConfScorePBest>
0.0140685 

> <ConfTolerance>
2.3088 

$$$$
ACO.****
  PyMOL2.5          3D                             0

 85 87  0  0  0  0  0  0  0  0999 V2000
    4.8840    1.0738  -10.6439 N   0  0  0  1  0  0  0  0  0  0  0  0
    3.8340    1.9028  -10.5336 C   0  0  0  1  0  0  0  0  0  0  0  0
    3.8007    2.6806  -11.2233 H   0  0  0  1  0  0  0  0  0  0  0  0
    2.8325    1.8640   -9.6633 N   0  0  0  1  0  0  0  0  0  0  0  0
    2.9566    0.8335   -8.8258 C   0  0  0  1  0  0  0  0  0  0  0  0
    3.9898   -0.1132   -8.8102 C   0  0  0  1  0  0  0  0  0  0  0  0
    4.9761    0.0598   -9.7767 C   0  0  0  1  0  0  0  0  0  0  0  0
    6.0612   -0.7682   -9.8938 N   0  0  0  1  0  0  0  0  0  0  0  0
    6.6895   -0.6505  -10.6366 H   0  0  0  1  0  0  0  0  0  0  0  0
    6.2092   -1.4782   -9.2346 H   0  0  0  1  0  0  0  0  0  0  0  0
    3.7876   -1.0281   -7.7886 N   0  0  0  1  0  0  0  0  0  0  0  0
    2.6751   -0.6277   -7.2354 C   0  0  0  1  0  0  0  0  0  0  0  0
    2.2438   -1.1199   -6.4271 H   0  0  0  1  0  0  0  0  0  0  0  0
    2.1222    0.4826   -7.7960 N   0  0  0  1  0  0  0  0  0  0  0  0
    0.8905    1.1628   -7.3851 C   0  0  0  1  0  0  0  0  0  0  0  0
    0.4662    1.6717   -8.2253 H   0  0  0  1  0  0  0  0  0  0  0  0
   -0.1207    0.1578   -6.7781 C   0  0  0  1  0  0  0  0  0  0  0  0
    0.3765   -0.5894   -6.1956 H   0  0  0  1  0  0  0  0  0  0  0  0
   -0.9014   -0.4724   -7.7970 O   0  0  0  1  0  0  0  0  0  0  0  0
   -1.3911    0.1944   -8.2840 H   0  0  0  1  0  0  0  0  0  0  0  0
   -0.9957    1.0774   -5.8860 C   0  0  0  1  0  0  0  0  0  0  0  0
   -1.2332    0.5951   -4.9608 H   0  0  0  1  0  0  0  0  0  0  0  0
   -2.2131    1.4410   -6.5651 O   0  0  0  1  0  0  0  0  0  0  0  0
   -3.4735    0.3921   -6.5341 P   0  0  0  1  0  0  0  0  0  0  0  0
   -3.8347    0.1290   -4.9562 O   0  0  0  0  0  0  0  0  0  0  0  0
   -4.5921    1.0655   -7.2310 O   0  0  0  1  0  0  0  0  0  0  0  0
   -3.0395   -1.0472   -7.1381 O   0  5  0  1  0  0  0  0  0  0  0  0
   -0.1115    2.3167   -5.6462 C   0  0  0  1  0  0  0  0  0  0  0  0
   -0.5808    3.1858   -6.0577 H   0  0  0  1  0  0  0  0  0  0  0  0
    1.1456    2.0810   -6.3011 O   0  0  0  1  0  0  0  0  0  0  0  0
    0.1025    2.5110   -4.1991 C   0  0  0  1  0  0  0  0  0  0  0  0
    0.6049    1.6551   -3.7992 H   0  0  0  1  0  0  0  0  0  0  0  0
   -0.8448    2.6275   -3.7154 H   0  0  0  1  0  0  0  0  0  0  0  0
    0.9088    3.6926   -3.9608 O   0  0  0  1  0  0  0  0  0  0  0  0
    0.7498    4.5375   -2.6057 P   0  0  0  1  0  0  0  0  0  0  0  0
   -0.6207    5.1027   -2.5566 O   0  0  0  0  0  0  0  0  0  0  0  0
    1.8890    5.4469   -2.4758 O   0  0  0  1  0  0  0  0  0  0  0  0
    0.9471    3.3836   -1.4890 O   0  0  0  1  0  0  0  0  0  0  0  0
   -0.3123    2.5078   -0.9090 P   0  0  0  1  0  0  0  0  0  0  0  0
   -1.3891    3.4463   -0.5216 O   0  0  0  1  0  0  0  0  0  0  0  0
   -0.7488    1.4199   -2.0272 O   0  5  0  1  0  0  0  0  0  0  0  0
    0.2292    1.7186    0.3401 O   0  0  0  1  0  0  0  0  0  0  0  0
   -0.0057    0.4635    2.3699 C   0  0  0  1  0  0  0  0  0  0  0  0
   -0.6163    1.4742    1.4849 C   0  0  0  1  0  0  0  0  0  0  0  0
   -1.5689    1.1200    1.1502 H   0  0  0  1  0  0  0  0  0  0  0  0
   -0.7454    2.3867    2.0287 H   0  0  0  1  0  0  0  0  0  0  0  0
   -1.0006    0.0983    3.4750 C   0  0  0  1  0  0  0  0  0  0  0  0
   -1.9575   -0.1049    3.0414 H   0  0  0  1  0  0  0  0  0  0  0  0
   -1.0865    0.9148    4.1613 H   0  0  0  1  0  0  0  0  0  0  0  0
   -0.6532   -0.7701    3.9947 H   0  0  0  1  0  0  0  0  0  0  0  0
    1.3012    0.9880    2.9953 C   0  0  0  1  0  0  0  0  0  0  0  0
    1.1625    1.1291    4.0469 H   0  0  0  1  0  0  0  0  0  0  0  0
    1.5639    1.9211    2.5421 H   0  0  0  1  0  0  0  0  0  0  0  0
    2.0849    0.2782    2.8313 H   0  0  0  1  0  0  0  0  0  0  0  0
    0.2878   -0.7962    1.5513 C   0  0  0  1  0  0  0  0  0  0  0  0
   -0.6394   -1.1888    1.1891 H   0  0  0  1  0  0  0  0  0  0  0  0
    1.1140   -0.4068    0.4470 O   0  0  0  1  0  0  0  0  0  0  0  0
    1.9426   -0.8903    0.4806 H   0  0  0  1  0  0  0  0  0  0  0  0
    0.9964   -1.8812    2.3462 C   0  0  0  1  0  0  0  0  0  0  0  0
    2.2027   -1.8244    2.5816 O   0  0  0  1  0  0  0  0  0  0  0  0
    0.1883   -2.8693    2.7463 N   0  0  0  1  0  0  0  0  0  0  0  0
   -0.7678   -2.8353    2.5339 H   0  0  0  1  0  0  0  0  0  0  0  0
    0.7339   -4.0112    3.5073 C   0  0  0  1  0  0  0  0  0  0  0  0
    1.7609   -4.1633    3.2483 H   0  0  0  1  0  0  0  0  0  0  0  0
    0.1748   -4.8962    3.2857 H   0  0  0  1  0  0  0  0  0  0  0  0
    0.6174   -3.6837    4.9869 C   0  0  0  1  0  0  0  0  0  0  0  0
   -0.4204   -3.6965    5.2471 H   0  0  0  1  0  0  0  0  0  0  0  0
    1.0118   -2.7007    5.1394 H   0  0  0  1  0  0  0  0  0  0  0  0
    1.3457   -4.6300    5.9214 C   0  0  0  1  0  0  0  0  0  0  0  0
    1.6703   -5.7603    5.5597 O   0  0  0  1  0  0  0  0  0  0  0  0
    1.6034   -4.1557    7.1412 N   0  0  0  1  0  0  0  0  0  0  0  0
    1.3917   -3.2111    7.2935 H   0  0  0  1  0  0  0  0  0  0  0  0
    2.1669   -4.8864    8.2789 C   0  0  0  1  0  0  0  0  0  0  0  0
    1.6928   -5.8437    8.3404 H   0  0  0  1  0  0  0  0  0  0  0  0
    1.9708   -4.3326    9.1732 H   0  0  0  1  0  0  0  0  0  0  0  0
    3.6563   -5.0917    8.1544 C   0  0  0  1  0  0  0  0  0  0  0  0
    4.1195   -4.1291    8.0926 H   0  0  0  1  0  0  0  0  0  0  0  0
    3.8415   -5.6358    7.2518 H   0  0  0  1  0  0  0  0  0  0  0  0
    4.4232   -5.9956    9.5204 S   0  0  0  1  0  0  0  0  0  0  0  0
    4.8676   -4.7011   10.6202 C   0  0  0  1  0  0  0  0  0  0  0  0
    4.6210   -3.5374   10.4514 O   0  0  0  1  0  0  0  0  0  0  0  0
    5.6193   -5.1964   11.8506 C   0  0  0  1  0  0  0  0  0  0  0  0
    6.5843   -5.5553   11.5592 H   0  0  0  1  0  0  0  0  0  0  0  0
    5.0677   -5.9899   12.3098 H   0  0  0  1  0  0  0  0  0  0  0  0
    5.7336   -4.3916   12.5464 H   0  0  0  1  0  0  0  0  0  0  0  0
  1  2  1  0  0  0  0
  1  7  2  0  0  0  0
  2  3  1  0  0  0  0
  2  4  2  0  0  0  0
  4  5  1  0  0  0  0
  5  6  2  0  0  0  0
  5 14  1  0  0  0  0
  6  7  1  0  0  0  0
  6 11  1  0  0  0  0
  7  8  1  0  0  0  0
  8  9  1  0  0  0  0
  8 10  1  0  0  0  0
 11 12  2  0  0  0  0
 12 13  1  0  0  0  0
 12 14  1  0  0  0  0
 14 15  1  0  0  0  0
 15 16  1  0  0  0  0
 15 17  1  0  0  0  0
 15 30  1  0  0  0  0
 17 18  1  0  0  0  0
 17 19  1  0  0  0  0
 17 21  1  0  0  0  0
 19 20  1  0  0  0  0
 21 22  1  0  0  0  0
 21 23  1  0  0  0  0
 21 28  1  0  0  0  0
 23 24  1  0  0  0  0
 24 25  1  0  0  0  0
 24 26  2  0  0  0  0
 24 27  1  0  0  0  0
 28 29  1  0  0  0  0
 28 30  1  0  0  0  0
 28 31  1  0  0  0  0
 31 32  1  0  0  0  0
 31 33  1  0  0  0  0
 31 34  1  0  0  0  0
 34 35  1  0  0  0  0
 35 36  1  0  0  0  0
 35 37  2  0  0  0  0
 35 38  1  0  0  0  0
 38 39  1  0  0  0  0
 39 40  2  0  0  0  0
 39 41  1  0  0  0  0
 39 42  1  0  0  0  0
 42 44  1  0  0  0  0
 43 44  1  0  0  0  0
 43 47  1  0  0  0  0
 43 51  1  0  0  0  0
 43 55  1  0  0  0  0
 44 45  1  0  0  0  0
 44 46  1  0  0  0  0
 47 48  1  0  0  0  0
 47 49  1  0  0  0  0
 47 50  1  0  0  0  0
 51 52  1  0  0  0  0
 51 53  1  0  0  0  0
 51 54  1  0  0  0  0
 55 56  1  0  0  0  0
 55 57  1  0  0  0  0
 55 59  1  0  0  0  0
 57 58  1  0  0  0  0
 59 60  2  0  0  0  0
 59 61  1  0  0  0  0
 61 62  1  0  0  0  0
 61 63  1  0  0  0  0
 63 64  1  0  0  0  0
 63 65  1  0  0  0  0
 63 66  1  0  0  0  0
 66 67  1  0  0  0  0
 66 68  1  0  0  0  0
 66 69  1  0  0  0  0
 69 70  2  0  0  0  0
 69 71  1  0  0  0  0
 71 72  1  0  0  0  0
 71 73  1  0  0  0  0
 73 74  1  0  0  0  0
 73 75  1  0  0  0  0
 73 76  1  0  0  0  0
 76 77  1  0  0  0  0
 76 78  1  0  0  0  0
 76 79  1  0  0  0  0
 79 80  1  0  0  0  0
 80 81  2  0  0  0  0
 80 82  1  0  0  0  0
 82 83  1  0  0  0  0
 82 84  1  0  0  0  0
 82 85  1  0  0  0  0
M  BCL ATM N_Tr2TrTrPi C_TrTrTrPi H_S N_Tr2TrTrPi C_TrTrTrPi C_TrTrTrPi C_TrTrTrPi N_TrTrTrPi2 H_S H_S N_Tr2TrTrPi C_TrTrTrPi H_S N_TrTrTrPi2 C_TeTeTeTe H_S C_TeTeTeTe H_S O_Te2Te2TeTe H_S C_TeTeTeTe H_S O_Tr2TrTrPi2 P_TeTeTeTePi O_Te2Te2TeTe O_Tr2Tr2TrPi O_Te2Te2Te2Te C_TeTeTeTe H_S O_Te2Te2TeTe C_TeTeTeTe H_S H_S O_Tr2TrTrPi2 P_TeTeTeTePi O_Te2Te2TeTe O_Tr2Tr2TrPi O_Tr2TrTrPi2 P_TeTeTeTePi O_Tr2Tr2TrPi O_Te2Te2Te2Te O_Tr2TrTrPi2 C_TeTeTeTe C_TeTeTeTe H_S H_S C_TeTeTeTe H_S H_S H_S C_TeTeTeTe H_S H_S H_S C_TeTeTeTe H_S O_Te2Te2TeTe H_S C_TrTrTrPi O_Tr2Tr2TrPi N_TrTrTrPi2 H_S C_TeTeTeTe H_S H_S C_TeTeTeTe H_S H_S C_TrTrTrPi O_Tr2Tr2TrPi N_TrTrTrPi2 H_S C_TeTeTeTe H_S H_S C_TeTeTeTe H_S H_S S_Te2Te2TeTe C_TrTrTrPi O_Tr2Tr2TrPi C_TeTeTeTe H_S H_S H_S
M  BCL BND AromaticSingleBond AromaticDoubleBond NonConjugatedSingleBond AromaticDoubleBond AromaticSingleBond AromaticDoubleBond AromaticSingleBond AromaticSingleBond AromaticSingleBond ConjugatedSingleBond NonConjugatedSingleBond NonConjugatedSingleBond AromaticDoubleBond NonConjugatedSingleBond AromaticSingleBond NonConjugatedSingleBond NonConjugatedSingleBond NonConjugatedSingleBondInRing NonConjugatedSingleBondInRing NonConjugatedSingleBond NonConjugatedSingleBond NonConjugatedSingleBondInRing NonConjugatedSingleBond NonConjugatedSingleBond NonConjugatedSingleBond NonConjugatedSingleBondInRing ConjugatedSingleBond ConjugatedSingleBond ConjugatedDoubleBond ConjugatedSingleBond NonConjugatedSingleBond NonConjugatedSingleBondInRing NonConjugatedSingleBond NonConjugatedSingleBond NonConjugatedSingleBond NonConjugatedSingleBond ConjugatedSingleBond ConjugatedSingleBond ConjugatedDoubleBond ConjugatedSingleBond ConjugatedSingleBond ConjugatedDoubleBond ConjugatedSingleBond ConjugatedSingleBond NonConjugatedSingleBond NonConjugatedSingleBond NonConjugatedSingleBond NonConjugatedSingleBond NonConjugatedSingleBond NonConjugatedSingleBond NonConjugatedSingleBond NonConjugatedSingleBond NonConjugatedSingleBond NonConjugatedSingleBond NonConjugatedSingleBond NonConjugatedSingleBond NonConjugatedSingleBond NonConjugatedSingleBond NonConjugatedSingleBond NonConjugatedSingleBond NonConjugatedSingleBond ConjugatedDoubleBond AmideSingleBond NonConjugatedSingleBond NonConjugatedSingleBond NonConjugatedSingleBond NonConjugatedSingleBond NonConjugatedSingleBond NonConjugatedSingleBond NonConjugatedSingleBond NonConjugatedSingleBond ConjugatedDoubleBond AmideSingleBond NonConjugatedSingleBond NonConjugatedSingleBond NonConjugatedSingleBond NonConjugatedSingleBond NonConjugatedSingleBond NonConjugatedSingleBond NonConjugatedSingleBond NonConjugatedSingleBond ConjugatedSingleBond ConjugatedDoubleBond NonConjugatedSingleBond NonConjugatedSingleBond NonConjugatedSingleBond NonConjugatedSingleBond
M  BCL CHI  15   S  17   S  21   S  24   S  28   R  35   R  39   R  55   S
M  BCL DBI - - - - - - - - - -
M  END
> <ConfClashScore>
0 

> <ConfOneFourInteractionScore>
-0.979623 

> <ConfScore>
-0.0324578 

> <ConfScorePBest>
0.0139655 

> <ConfTolerance>
2.23226 

$$$$
ACO.****
  PyMOL2.5          3D                             0

 85 87  0  0  0  0  0  0  0  0999 V2000
    4.8908    1.0776  -10.6372 N   0  0  0  1  0  0  0  0  0  0  0  0
    3.8382    1.9041  -10.5334 C   0  0  0  1  0  0  0  0  0  0  0  0
    3.8090    2.6838  -11.2210 H   0  0  0  1  0  0  0  0  0  0  0  0
    2.8295    1.8607   -9.6716 N   0  0  0  1  0  0  0  0  0  0  0  0
    2.9489    0.8281   -8.8359 C   0  0  0  1  0  0  0  0  0  0  0  0
    3.9838   -0.1165   -8.8144 C   0  0  0  1  0  0  0  0  0  0  0  0
    4.9778    0.0613   -9.7721 C   0  0  0  1  0  0  0  0  0  0  0  0
    6.0657   -0.7640   -9.8824 N   0  0  0  1  0  0  0  0  0  0  0  0
    6.1919   -1.4964   -9.2437 H   0  0  0  1  0  0  0  0  0  0  0  0
    6.7177   -0.6220  -10.6001 H   0  0  0  1  0  0  0  0  0  0  0  0
    3.7751   -1.0347   -7.7971 N   0  0  0  1  0  0  0  0  0  0  0  0
    2.6572   -0.6382   -7.2520 C   0  0  0  1  0  0  0  0  0  0  0  0
    2.2202   -1.1335   -6.4488 H   0  0  0  1  0  0  0  0  0  0  0  0
    2.1066    0.4725   -7.8142 N   0  0  0  1  0  0  0  0  0  0  0  0
    0.9405    1.1913   -7.3502 C   0  0  0  1  0  0  0  0  0  0  0  0
    0.1778    1.1564   -8.0998 H   0  0  0  1  0  0  0  0  0  0  0  0
    0.4220    0.5596   -6.0486 C   0  0  0  1  0  0  0  0  0  0  0  0
    1.1660   -0.0652   -5.6001 H   0  0  0  1  0  0  0  0  0  0  0  0
   -0.7533   -0.1969   -6.2810 O   0  0  0  1  0  0  0  0  0  0  0  0
   -1.4612    0.3885   -6.5601 H   0  0  0  1  0  0  0  0  0  0  0  0
    0.1271    1.7844   -5.1724 C   0  0  0  1  0  0  0  0  0  0  0  0
    0.2812    1.5602   -4.1376 H   0  0  0  1  0  0  0  0  0  0  0  0
   -1.2271    2.2455   -5.3692 O   0  0  0  1  0  0  0  0  0  0  0  0
   -2.1944    2.5842   -4.0889 P   0  0  0  1  0  0  0  0  0  0  0  0
   -1.5220    3.7498   -3.1515 O   0  0  0  0  0  0  0  0  0  0  0  0
   -3.5263    3.1047   -4.4706 O   0  0  0  1  0  0  0  0  0  0  0  0
   -2.4459    1.2665   -3.1806 O   0  5  0  1  0  0  0  0  0  0  0  0
    1.1235    2.8127   -5.6565 C   0  0  0  1  0  0  0  0  0  0  0  0
    0.7464    3.8034   -5.5113 H   0  0  0  1  0  0  0  0  0  0  0  0
    1.2795    2.5221   -7.0788 O   0  0  0  1  0  0  0  0  0  0  0  0
    2.4258    2.6651   -4.9407 C   0  0  0  1  0  0  0  0  0  0  0  0
    2.3173    2.9692   -3.9205 H   0  0  0  1  0  0  0  0  0  0  0  0
    3.1727    3.2667   -5.4152 H   0  0  0  1  0  0  0  0  0  0  0  0
    2.8049    1.2700   -5.0014 O   0  0  0  1  0  0  0  0  0  0  0  0
    4.0325    0.7310   -4.1776 P   0  0  0  1  0  0  0  0  0  0  0  0
    4.2996   -0.6200   -4.7235 O   0  0  0  0  0  0  0  0  0  0  0  0
    3.8115    0.8979   -2.7291 O   0  0  0  1  0  0  0  0  0  0  0  0
    5.2538    1.6661   -4.6788 O   0  0  0  1  0  0  0  0  0  0  0  0
    5.6317    1.8295   -6.2663 P   0  0  0  1  0  0  0  0  0  0  0  0
    4.4123    2.0149   -7.0844 O   0  0  0  1  0  0  0  0  0  0  0  0
    6.7377    2.9993   -6.4471 O   0  5  0  1  0  0  0  0  0  0  0  0
    6.3257    0.4811   -6.7171 O   0  0  0  1  0  0  0  0  0  0  0  0
    8.5745   -0.1141   -7.3092 C   0  0  0  1  0  0  0  0  0  0  0  0
    7.6424    0.1732   -6.2019 C   0  0  0  1  0  0  0  0  0  0  0  0
    7.5795   -0.6829   -5.5632 H   0  0  0  1  0  0  0  0  0  0  0  0
    8.0065    1.0099   -5.6430 H   0  0  0  1  0  0  0  0  0  0  0  0
    8.5911    1.0366   -8.3214 C   0  0  0  1  0  0  0  0  0  0  0  0
    9.1117    0.7284   -9.2040 H   0  0  0  1  0  0  0  0  0  0  0  0
    9.0871    1.8819   -7.8920 H   0  0  0  1  0  0  0  0  0  0  0  0
    7.5863    1.3028   -8.5750 H   0  0  0  1  0  0  0  0  0  0  0  0
    8.0923   -1.4007   -8.0006 C   0  0  0  1  0  0  0  0  0  0  0  0
    8.2224   -1.3080   -9.0586 H   0  0  0  1  0  0  0  0  0  0  0  0
    7.0567   -1.5567   -7.7811 H   0  0  0  1  0  0  0  0  0  0  0  0
    8.6624   -2.2326   -7.6430 H   0  0  0  1  0  0  0  0  0  0  0  0
    9.9758   -0.3519   -6.7352 C   0  0  0  1  0  0  0  0  0  0  0  0
   10.3161    0.5738   -6.3203 H   0  0  0  1  0  0  0  0  0  0  0  0
    9.8503   -1.3102   -5.6871 O   0  0  0  1  0  0  0  0  0  0  0  0
   10.0048   -0.8826   -4.8417 H   0  0  0  1  0  0  0  0  0  0  0  0
   10.9735   -0.7837   -7.7700 C   0  0  0  1  0  0  0  0  0  0  0  0
   11.3503   -1.9349   -7.9155 O   0  0  0  1  0  0  0  0  0  0  0  0
   11.4527    0.1827   -8.5583 N   0  0  0  1  0  0  0  0  0  0  0  0
   11.1386    1.1013   -8.4247 H   0  0  0  1  0  0  0  0  0  0  0  0
   12.4249   -0.0814   -9.6086 C   0  0  0  1  0  0  0  0  0  0  0  0
   13.0381   -0.9009   -9.2966 H   0  0  0  1  0  0  0  0  0  0  0  0
   13.0307    0.7923   -9.7292 H   0  0  0  1  0  0  0  0  0  0  0  0
   11.8201   -0.4299  -10.9623 C   0  0  0  1  0  0  0  0  0  0  0  0
   11.3237    0.4365  -11.3467 H   0  0  0  1  0  0  0  0  0  0  0  0
   11.1090   -1.2175  -10.8250 H   0  0  0  1  0  0  0  0  0  0  0  0
   12.8532   -0.8835  -11.9753 C   0  0  0  1  0  0  0  0  0  0  0  0
   13.8774   -1.4637  -11.6250 O   0  0  0  1  0  0  0  0  0  0  0  0
   12.5723   -0.6106  -13.2527 N   0  0  0  1  0  0  0  0  0  0  0  0
   11.7545   -0.1125  -13.4612 H   0  0  0  1  0  0  0  0  0  0  0  0
   13.4514   -1.0335  -14.3614 C   0  0  0  1  0  0  0  0  0  0  0  0
   12.8645   -1.2419  -15.2315 H   0  0  0  1  0  0  0  0  0  0  0  0
   13.9960   -1.9103  -14.0795 H   0  0  0  1  0  0  0  0  0  0  0  0
   14.4199    0.1070  -14.6510 C   0  0  0  1  0  0  0  0  0  0  0  0
   15.0556    0.2717  -13.8062 H   0  0  0  1  0  0  0  0  0  0  0  0
   13.8768    1.0028  -14.8694 H   0  0  0  1  0  0  0  0  0  0  0  0
   15.4081   -0.3837  -16.0841 S   0  0  0  1  0  0  0  0  0  0  0  0
   14.1794   -0.3570  -17.4276 C   0  0  0  1  0  0  0  0  0  0  0  0
   13.0420    0.0124  -17.2862 O   0  0  0  1  0  0  0  0  0  0  0  0
   14.7249   -1.0075  -18.6876 C   0  0  0  1  0  0  0  0  0  0  0  0
   14.9327   -2.0394  -18.4956 H   0  0  0  1  0  0  0  0  0  0  0  0
   15.6258   -0.5116  -18.9833 H   0  0  0  1  0  0  0  0  0  0  0  0
   14.0005   -0.9295  -19.4712 H   0  0  0  1  0  0  0  0  0  0  0  0
  1  2  1  0  0  0  0
  1  7  2  0  0  0  0
  2  3  1  0  0  0  0
  2  4  2  0  0  0  0
  4  5  1  0  0  0  0
  5  6  2  0  0  0  0
  5 14  1  0  0  0  0
  6  7  1  0  0  0  0
  6 11  1  0  0  0  0
  7  8  1  0  0  0  0
  8  9  1  0  0  0  0
  8 10  1  0  0  0  0
 11 12  2  0  0  0  0
 12 13  1  0  0  0  0
 12 14  1  0  0  0  0
 14 15  1  0  0  0  0
 15 16  1  0  0  0  0
 15 17  1  0  0  0  0
 15 30  1  0  0  0  0
 17 18  1  0  0  0  0
 17 19  1  0  0  0  0
 17 21  1  0  0  0  0
 19 20  1  0  0  0  0
 21 22  1  0  0  0  0
 21 23  1  0  0  0  0
 21 28  1  0  0  0  0
 23 24  1  0  0  0  0
 24 25  1  0  0  0  0
 24 26  2  0  0  0  0
 24 27  1  0  0  0  0
 28 29  1  0  0  0  0
 28 30  1  0  0  0  0
 28 31  1  0  0  0  0
 31 32  1  0  0  0  0
 31 33  1  0  0  0  0
 31 34  1  0  0  0  0
 34 35  1  0  0  0  0
 35 36  1  0  0  0  0
 35 37  2  0  0  0  0
 35 38  1  0  0  0  0
 38 39  1  0  0  0  0
 39 40  2  0  0  0  0
 39 41  1  0  0  0  0
 39 42  1  0  0  0  0
 42 44  1  0  0  0  0
 43 44  1  0  0  0  0
 43 47  1  0  0  0  0
 43 51  1  0  0  0  0
 43 55  1  0  0  0  0
 44 45  1  0  0  0  0
 44 46  1  0  0  0  0
 47 48  1  0  0  0  0
 47 49  1  0  0  0  0
 47 50  1  0  0  0  0
 51 52  1  0  0  0  0
 51 53  1  0  0  0  0
 51 54  1  0  0  0  0
 55 56  1  0  0  0  0
 55 57  1  0  0  0  0
 55 59  1  0  0  0  0
 57 58  1  0  0  0  0
 59 60  2  0  0  0  0
 59 61  1  0  0  0  0
 61 62  1  0  0  0  0
 61 63  1  0  0  0  0
 63 64  1  0  0  0  0
 63 65  1  0  0  0  0
 63 66  1  0  0  0  0
 66 67  1  0  0  0  0
 66 68  1  0  0  0  0
 66 69  1  0  0  0  0
 69 70  2  0  0  0  0
 69 71  1  0  0  0  0
 71 72  1  0  0  0  0
 71 73  1  0  0  0  0
 73 74  1  0  0  0  0
 73 75  1  0  0  0  0
 73 76  1  0  0  0  0
 76 77  1  0  0  0  0
 76 78  1  0  0  0  0
 76 79  1  0  0  0  0
 79 80  1  0  0  0  0
 80 81  2  0  0  0  0
 80 82  1  0  0  0  0
 82 83  1  0  0  0  0
 82 84  1  0  0  0  0
 82 85  1  0  0  0  0
M  BCL ATM N_Tr2TrTrPi C_TrTrTrPi H_S N_Tr2TrTrPi C_TrTrTrPi C_TrTrTrPi C_TrTrTrPi N_TrTrTrPi2 H_S H_S N_Tr2TrTrPi C_TrTrTrPi H_S N_TrTrTrPi2 C_TeTeTeTe H_S C_TeTeTeTe H_S O_Te2Te2TeTe H_S C_TeTeTeTe H_S O_Tr2TrTrPi2 P_TeTeTeTePi O_Te2Te2TeTe O_Tr2Tr2TrPi O_Te2Te2Te2Te C_TeTeTeTe H_S O_Te2Te2TeTe C_TeTeTeTe H_S H_S O_Tr2TrTrPi2 P_TeTeTeTePi O_Te2Te2TeTe O_Tr2Tr2TrPi O_Tr2TrTrPi2 P_TeTeTeTePi O_Tr2Tr2TrPi O_Te2Te2Te2Te O_Tr2TrTrPi2 C_TeTeTeTe C_TeTeTeTe H_S H_S C_TeTeTeTe H_S H_S H_S C_TeTeTeTe H_S H_S H_S C_TeTeTeTe H_S O_Te2Te2TeTe H_S C_TrTrTrPi O_Tr2Tr2TrPi N_TrTrTrPi2 H_S C_TeTeTeTe H_S H_S C_TeTeTeTe H_S H_S C_TrTrTrPi O_Tr2Tr2TrPi N_TrTrTrPi2 H_S C_TeTeTeTe H_S H_S C_TeTeTeTe H_S H_S S_Te2Te2TeTe C_TrTrTrPi O_Tr2Tr2TrPi C_TeTeTeTe H_S H_S H_S
M  BCL BND AromaticSingleBond AromaticDoubleBond NonConjugatedSingleBond AromaticDoubleBond AromaticSingleBond AromaticDoubleBond AromaticSingleBond AromaticSingleBond AromaticSingleBond ConjugatedSingleBond NonConjugatedSingleBond NonConjugatedSingleBond AromaticDoubleBond NonConjugatedSingleBond AromaticSingleBond NonConjugatedSingleBond NonConjugatedSingleBond NonConjugatedSingleBondInRing NonConjugatedSingleBondInRing NonConjugatedSingleBond NonConjugatedSingleBond NonConjugatedSingleBondInRing NonConjugatedSingleBond NonConjugatedSingleBond NonConjugatedSingleBond NonConjugatedSingleBondInRing ConjugatedSingleBond ConjugatedSingleBond ConjugatedDoubleBond ConjugatedSingleBond NonConjugatedSingleBond NonConjugatedSingleBondInRing NonConjugatedSingleBond NonConjugatedSingleBond NonConjugatedSingleBond NonConjugatedSingleBond ConjugatedSingleBond ConjugatedSingleBond ConjugatedDoubleBond ConjugatedSingleBond ConjugatedSingleBond ConjugatedDoubleBond ConjugatedSingleBond ConjugatedSingleBond NonConjugatedSingleBond NonConjugatedSingleBond NonConjugatedSingleBond NonConjugatedSingleBond NonConjugatedSingleBond NonConjugatedSingleBond NonConjugatedSingleBond NonConjugatedSingleBond NonConjugatedSingleBond NonConjugatedSingleBond NonConjugatedSingleBond NonConjugatedSingleBond NonConjugatedSingleBond NonConjugatedSingleBond NonConjugatedSingleBond NonConjugatedSingleBond NonConjugatedSingleBond ConjugatedDoubleBond AmideSingleBond NonConjugatedSingleBond NonConjugatedSingleBond NonConjugatedSingleBond NonConjugatedSingleBond NonConjugatedSingleBond NonConjugatedSingleBond NonConjugatedSingleBond NonConjugatedSingleBond ConjugatedDoubleBond AmideSingleBond NonConjugatedSingleBond NonConjugatedSingleBond NonConjugatedSingleBond NonConjugatedSingleBond NonConjugatedSingleBond NonConjugatedSingleBond NonConjugatedSingleBond NonConjugatedSingleBond ConjugatedSingleBond ConjugatedDoubleBond NonConjugatedSingleBond NonConjugatedSingleBond NonConjugatedSingleBond NonConjugatedSingleBond
M  BCL CHI  15   S  17   S  21   S  24   S  28   R  35   R  39   R  55   S
M  BCL DBI - - - - - - - - - -
M  END
> <ConfClashScore>
0 

> <ConfOneFourInteractionScore>
-0.978987 

> <ConfScore>
-0.0317447 

> <ConfScorePBest>
0.0138625 

> <ConfTolerance>
2.45011 

$$$$
ACO.****
  PyMOL2.5          3D                             0

 85 87  0  0  0  0  0  0  0  0999 V2000
    4.8790    1.0918  -10.6516 N   0  0  0  1  0  0  0  0  0  0  0  0
    3.8256    1.9153  -10.5327 C   0  0  0  1  0  0  0  0  0  0  0  0
    3.7859    2.6967  -11.2178 H   0  0  0  1  0  0  0  0  0  0  0  0
    2.8277    1.8670   -9.6587 N   0  0  0  1  0  0  0  0  0  0  0  0
    2.9599    0.8324   -8.8273 C   0  0  0  1  0  0  0  0  0  0  0  0
    3.9975   -0.1095   -8.8210 C   0  0  0  1  0  0  0  0  0  0  0  0
    4.9792    0.0735   -9.7904 C   0  0  0  1  0  0  0  0  0  0  0  0
    6.0438   -0.7761   -9.8715 N   0  0  0  1  0  0  0  0  0  0  0  0
    6.7097   -0.6609  -10.5812 H   0  0  0  1  0  0  0  0  0  0  0  0
    6.1425   -1.5015   -9.2200 H   0  0  0  1  0  0  0  0  0  0  0  0
    3.8036   -1.0310   -7.8037 N   0  0  0  1  0  0  0  0  0  0  0  0
    2.6915   -0.6388   -7.2440 C   0  0  0  1  0  0  0  0  0  0  0  0
    2.2656   -1.1375   -6.4368 H   0  0  0  1  0  0  0  0  0  0  0  0
    2.1312    0.4719   -7.7963 N   0  0  0  1  0  0  0  0  0  0  0  0
    0.9102    1.1807   -7.4210 C   0  0  0  1  0  0  0  0  0  0  0  0
    0.5096    0.7526   -6.5259 H   0  0  0  1  0  0  0  0  0  0  0  0
    1.2020    2.6754   -7.2143 C   0  0  0  1  0  0  0  0  0  0  0  0
    1.9701    3.0142   -7.8778 H   0  0  0  1  0  0  0  0  0  0  0  0
    1.5856    2.9443   -5.8632 O   0  0  0  1  0  0  0  0  0  0  0  0
    2.4154    3.4270   -5.8556 H   0  0  0  1  0  0  0  0  0  0  0  0
   -0.1317    3.3222   -7.5443 C   0  0  0  1  0  0  0  0  0  0  0  0
    0.0053    4.3043   -7.9461 H   0  0  0  1  0  0  0  0  0  0  0  0
   -0.9825    3.3932   -6.3710 O   0  0  0  1  0  0  0  0  0  0  0  0
   -1.9846    4.6807   -6.2038 P   0  0  0  1  0  0  0  0  0  0  0  0
   -2.8037    4.9655   -7.5958 O   0  0  0  0  0  0  0  0  0  0  0  0
   -2.9260    4.6733   -5.0619 O   0  0  0  1  0  0  0  0  0  0  0  0
   -0.9037    5.8782   -6.0557 O   0  5  0  1  0  0  0  0  0  0  0  0
   -0.7246    2.3631   -8.6059 C   0  0  0  1  0  0  0  0  0  0  0  0
   -1.7724    2.2264   -8.4373 H   0  0  0  1  0  0  0  0  0  0  0  0
   -0.0288    1.1129   -8.4551 O   0  0  0  1  0  0  0  0  0  0  0  0
   -0.5079    2.9128   -9.9774 C   0  0  0  1  0  0  0  0  0  0  0  0
   -1.2642    2.5472  -10.6402 H   0  0  0  1  0  0  0  0  0  0  0  0
    0.4557    2.6205  -10.3391 H   0  0  0  1  0  0  0  0  0  0  0  0
   -0.5850    4.3583   -9.8896 O   0  0  0  1  0  0  0  0  0  0  0  0
   -0.4636    5.2169  -11.1268 P   0  0  0  1  0  0  0  0  0  0  0  0
   -1.6083    4.9799  -12.0993 O   0  0  0  0  0  0  0  0  0  0  0  0
    0.8968    5.1940  -11.7773 O   0  0  0  1  0  0  0  0  0  0  0  0
   -0.7287    6.7512  -10.6880 O   0  0  0  1  0  0  0  0  0  0  0  0
   -2.2060    7.3950  -10.3835 P   0  0  0  1  0  0  0  0  0  0  0  0
   -3.3342    6.7153  -11.0583 O   0  0  0  1  0  0  0  0  0  0  0  0
   -2.5163    7.3553   -8.7940 O   0  5  0  1  0  0  0  0  0  0  0  0
   -2.1125    8.9050  -10.8039 O   0  0  0  1  0  0  0  0  0  0  0  0
   -2.2434   10.8841  -12.2782 C   0  0  0  1  0  0  0  0  0  0  0  0
   -2.0385    9.3396  -12.1821 C   0  0  0  1  0  0  0  0  0  0  0  0
   -2.8013    8.8471  -12.7483 H   0  0  0  1  0  0  0  0  0  0  0  0
   -1.0783    9.0861  -12.5804 H   0  0  0  1  0  0  0  0  0  0  0  0
   -2.3326   11.2937  -13.7684 C   0  0  0  1  0  0  0  0  0  0  0  0
   -2.4978   12.3484  -13.8396 H   0  0  0  1  0  0  0  0  0  0  0  0
   -3.1442   10.7736  -14.2329 H   0  0  0  1  0  0  0  0  0  0  0  0
   -1.4176   11.0420  -14.2626 H   0  0  0  1  0  0  0  0  0  0  0  0
   -1.0380   11.5713  -11.6633 C   0  0  0  1  0  0  0  0  0  0  0  0
   -0.1926   11.4546  -12.3087 H   0  0  0  1  0  0  0  0  0  0  0  0
   -0.8235   11.1310  -10.7119 H   0  0  0  1  0  0  0  0  0  0  0  0
   -1.2480   12.6127  -11.5357 H   0  0  0  1  0  0  0  0  0  0  0  0
   -3.4525   11.2835  -11.5583 C   0  0  0  1  0  0  0  0  0  0  0  0
   -4.2964   10.8675  -12.0678 H   0  0  0  1  0  0  0  0  0  0  0  0
   -3.3946   10.7753  -10.2377 O   0  0  0  1  0  0  0  0  0  0  0  0
   -3.8243    9.9174  -10.2054 H   0  0  0  1  0  0  0  0  0  0  0  0
   -3.5872   12.7850  -11.5685 C   0  0  0  1  0  0  0  0  0  0  0  0
   -3.7959   13.4503  -12.5661 O   0  0  0  1  0  0  0  0  0  0  0  0
   -3.4556   13.3399  -10.3627 N   0  0  0  1  0  0  0  0  0  0  0  0
   -3.2431   12.7471   -9.6118 H   0  0  0  1  0  0  0  0  0  0  0  0
   -3.6036   14.7595  -10.0782 C   0  0  0  1  0  0  0  0  0  0  0  0
   -4.4449   14.9044   -9.4332 H   0  0  0  1  0  0  0  0  0  0  0  0
   -3.7608   15.2887  -10.9947 H   0  0  0  1  0  0  0  0  0  0  0  0
   -2.3530   15.2933   -9.3989 C   0  0  0  1  0  0  0  0  0  0  0  0
   -2.2182   14.7713   -8.4747 H   0  0  0  1  0  0  0  0  0  0  0  0
   -2.4905   16.3362   -9.2033 H   0  0  0  1  0  0  0  0  0  0  0  0
   -1.0895   15.1187  -10.2459 C   0  0  0  1  0  0  0  0  0  0  0  0
   -1.1913   15.2612  -11.4636 O   0  0  0  1  0  0  0  0  0  0  0  0
    0.0281   14.8235   -9.5851 N   0  0  0  1  0  0  0  0  0  0  0  0
   -0.0274   14.8442   -8.6069 H   0  0  0  1  0  0  0  0  0  0  0  0
    1.3312   14.4712  -10.1541 C   0  0  0  1  0  0  0  0  0  0  0  0
    1.4428   14.9738  -11.0921 H   0  0  0  1  0  0  0  0  0  0  0  0
    1.3625   13.4130  -10.3099 H   0  0  0  1  0  0  0  0  0  0  0  0
    2.4834   14.8633   -9.2534 C   0  0  0  1  0  0  0  0  0  0  0  0
    3.4051   14.6161   -9.7375 H   0  0  0  1  0  0  0  0  0  0  0  0
    2.4071   14.3228   -8.3331 H   0  0  0  1  0  0  0  0  0  0  0  0
    2.4588   16.6370   -8.9004 S   0  0  0  1  0  0  0  0  0  0  0  0
    1.3886   16.7245   -7.4836 C   0  0  0  1  0  0  0  0  0  0  0  0
    0.8003   15.7697   -7.0315 O   0  0  0  1  0  0  0  0  0  0  0  0
    1.3022   18.1223   -6.9162 C   0  0  0  1  0  0  0  0  0  0  0  0
    0.2754   18.4119   -6.8347 H   0  0  0  1  0  0  0  0  0  0  0  0
    1.8140   18.8025   -7.5646 H   0  0  0  1  0  0  0  0  0  0  0  0
    1.7562   18.1424   -5.9474 H   0  0  0  1  0  0  0  0  0  0  0  0
  1  2  1  0  0  0  0
  1  7  2  0  0  0  0
  2  3  1  0  0  0  0
  2  4  2  0  0  0  0
  4  5  1  0  0  0  0
  5  6  2  0  0  0  0
  5 14  1  0  0  0  0
  6  7  1  0  0  0  0
  6 11  1  0  0  0  0
  7  8  1  0  0  0  0
  8  9  1  0  0  0  0
  8 10  1  0  0  0  0
 11 12  2  0  0  0  0
 12 13  1  0  0  0  0
 12 14  1  0  0  0  0
 14 15  1  0  0  0  0
 15 16  1  0  0  0  0
 15 17  1  0  0  0  0
 15 30  1  0  0  0  0
 17 18  1  0  0  0  0
 17 19  1  0  0  0  0
 17 21  1  0  0  0  0
 19 20  1  0  0  0  0
 21 22  1  0  0  0  0
 21 23  1  0  0  0  0
 21 28  1  0  0  0  0
 23 24  1  0  0  0  0
 24 25  1  0  0  0  0
 24 26  2  0  0  0  0
 24 27  1  0  0  0  0
 28 29  1  0  0  0  0
 28 30  1  0  0  0  0
 28 31  1  0  0  0  0
 31 32  1  0  0  0  0
 31 33  1  0  0  0  0
 31 34  1  0  0  0  0
 34 35  1  0  0  0  0
 35 36  1  0  0  0  0
 35 37  2  0  0  0  0
 35 38  1  0  0  0  0
 38 39  1  0  0  0  0
 39 40  2  0  0  0  0
 39 41  1  0  0  0  0
 39 42  1  0  0  0  0
 42 44  1  0  0  0  0
 43 44  1  0  0  0  0
 43 47  1  0  0  0  0
 43 51  1  0  0  0  0
 43 55  1  0  0  0  0
 44 45  1  0  0  0  0
 44 46  1  0  0  0  0
 47 48  1  0  0  0  0
 47 49  1  0  0  0  0
 47 50  1  0  0  0  0
 51 52  1  0  0  0  0
 51 53  1  0  0  0  0
 51 54  1  0  0  0  0
 55 56  1  0  0  0  0
 55 57  1  0  0  0  0
 55 59  1  0  0  0  0
 57 58  1  0  0  0  0
 59 60  2  0  0  0  0
 59 61  1  0  0  0  0
 61 62  1  0  0  0  0
 61 63  1  0  0  0  0
 63 64  1  0  0  0  0
 63 65  1  0  0  0  0
 63 66  1  0  0  0  0
 66 67  1  0  0  0  0
 66 68  1  0  0  0  0
 66 69  1  0  0  0  0
 69 70  2  0  0  0  0
 69 71  1  0  0  0  0
 71 72  1  0  0  0  0
 71 73  1  0  0  0  0
 73 74  1  0  0  0  0
 73 75  1  0  0  0  0
 73 76  1  0  0  0  0
 76 77  1  0  0  0  0
 76 78  1  0  0  0  0
 76 79  1  0  0  0  0
 79 80  1  0  0  0  0
 80 81  2  0  0  0  0
 80 82  1  0  0  0  0
 82 83  1  0  0  0  0
 82 84  1  0  0  0  0
 82 85  1  0  0  0  0
M  BCL ATM N_Tr2TrTrPi C_TrTrTrPi H_S N_Tr2TrTrPi C_TrTrTrPi C_TrTrTrPi C_TrTrTrPi N_TrTrTrPi2 H_S H_S N_Tr2TrTrPi C_TrTrTrPi H_S N_TrTrTrPi2 C_TeTeTeTe H_S C_TeTeTeTe H_S O_Te2Te2TeTe H_S C_TeTeTeTe H_S O_Tr2TrTrPi2 P_TeTeTeTePi O_Te2Te2TeTe O_Tr2Tr2TrPi O_Te2Te2Te2Te C_TeTeTeTe H_S O_Te2Te2TeTe C_TeTeTeTe H_S H_S O_Tr2TrTrPi2 P_TeTeTeTePi O_Te2Te2TeTe O_Tr2Tr2TrPi O_Tr2TrTrPi2 P_TeTeTeTePi O_Tr2Tr2TrPi O_Te2Te2Te2Te O_Tr2TrTrPi2 C_TeTeTeTe C_TeTeTeTe H_S H_S C_TeTeTeTe H_S H_S H_S C_TeTeTeTe H_S H_S H_S C_TeTeTeTe H_S O_Te2Te2TeTe H_S C_TrTrTrPi O_Tr2Tr2TrPi N_TrTrTrPi2 H_S C_TeTeTeTe H_S H_S C_TeTeTeTe H_S H_S C_TrTrTrPi O_Tr2Tr2TrPi N_TrTrTrPi2 H_S C_TeTeTeTe H_S H_S C_TeTeTeTe H_S H_S S_Te2Te2TeTe C_TrTrTrPi O_Tr2Tr2TrPi C_TeTeTeTe H_S H_S H_S
M  BCL BND AromaticSingleBond AromaticDoubleBond NonConjugatedSingleBond AromaticDoubleBond AromaticSingleBond AromaticDoubleBond AromaticSingleBond AromaticSingleBond AromaticSingleBond ConjugatedSingleBond NonConjugatedSingleBond NonConjugatedSingleBond AromaticDoubleBond NonConjugatedSingleBond AromaticSingleBond NonConjugatedSingleBond NonConjugatedSingleBond NonConjugatedSingleBondInRing NonConjugatedSingleBondInRing NonConjugatedSingleBond NonConjugatedSingleBond NonConjugatedSingleBondInRing NonConjugatedSingleBond NonConjugatedSingleBond NonConjugatedSingleBond NonConjugatedSingleBondInRing ConjugatedSingleBond ConjugatedSingleBond ConjugatedDoubleBond ConjugatedSingleBond NonConjugatedSingleBond NonConjugatedSingleBondInRing NonConjugatedSingleBond NonConjugatedSingleBond NonConjugatedSingleBond NonConjugatedSingleBond ConjugatedSingleBond ConjugatedSingleBond ConjugatedDoubleBond ConjugatedSingleBond ConjugatedSingleBond ConjugatedDoubleBond ConjugatedSingleBond ConjugatedSingleBond NonConjugatedSingleBond NonConjugatedSingleBond NonConjugatedSingleBond NonConjugatedSingleBond NonConjugatedSingleBond NonConjugatedSingleBond NonConjugatedSingleBond NonConjugatedSingleBond NonConjugatedSingleBond NonConjugatedSingleBond NonConjugatedSingleBond NonConjugatedSingleBond NonConjugatedSingleBond NonConjugatedSingleBond NonConjugatedSingleBond NonConjugatedSingleBond NonConjugatedSingleBond ConjugatedDoubleBond AmideSingleBond NonConjugatedSingleBond NonConjugatedSingleBond NonConjugatedSingleBond NonConjugatedSingleBond NonConjugatedSingleBond NonConjugatedSingleBond NonConjugatedSingleBond NonConjugatedSingleBond ConjugatedDoubleBond AmideSingleBond NonConjugatedSingleBond NonConjugatedSingleBond NonConjugatedSingleBond NonConjugatedSingleBond NonConjugatedSingleBond NonConjugatedSingleBond NonConjugatedSingleBond NonConjugatedSingleBond ConjugatedSingleBond ConjugatedDoubleBond NonConjugatedSingleBond NonConjugatedSingleBond NonConjugatedSingleBond NonConjugatedSingleBond
M  BCL CHI  15   S  17   S  21   S  24   S  28   R  35   R  39   R  55   S
M  BCL DBI - - - - - - - - - -
M  END
> <ConfClashScore>
0 

> <ConfOneFourInteractionScore>
-0.979283 

> <ConfScore>
-0.0313528 

> <ConfScorePBest>
0.0137595 

> <ConfTolerance>
2.28851 

$$$$
ACO.****
  PyMOL2.5          3D                             0

 85 87  0  0  0  0  0  0  0  0999 V2000
    4.8864    1.0966  -10.6473 N   0  0  0  1  0  0  0  0  0  0  0  0
    3.8351    1.9230  -10.5307 C   0  0  0  1  0  0  0  0  0  0  0  0
    3.8007    2.7063  -11.2140 H   0  0  0  1  0  0  0  0  0  0  0  0
    2.8334    1.8756   -9.6610 N   0  0  0  1  0  0  0  0  0  0  0  0
    2.9589    0.8385   -8.8318 C   0  0  0  1  0  0  0  0  0  0  0  0
    3.9936   -0.1067   -8.8236 C   0  0  0  1  0  0  0  0  0  0  0  0
    4.9799    0.0757   -9.7884 C   0  0  0  1  0  0  0  0  0  0  0  0
    6.0422   -0.7770   -9.8672 N   0  0  0  1  0  0  0  0  0  0  0  0
    6.1625   -1.4738   -9.1888 H   0  0  0  1  0  0  0  0  0  0  0  0
    6.6848   -0.6925  -10.6023 H   0  0  0  1  0  0  0  0  0  0  0  0
    3.7925   -1.0301   -7.8095 N   0  0  0  1  0  0  0  0  0  0  0  0
    2.6794   -0.6360   -7.2533 C   0  0  0  1  0  0  0  0  0  0  0  0
    2.2486   -1.1354   -6.4492 H   0  0  0  1  0  0  0  0  0  0  0  0
    2.1248    0.4779   -7.8051 N   0  0  0  1  0  0  0  0  0  0  0  0
    0.9303    1.1318   -7.4020 C   0  0  0  1  0  0  0  0  0  0  0  0
    0.1937    1.0366   -8.1722 H   0  0  0  1  0  0  0  0  0  0  0  0
    0.4083    0.5543   -6.0623 C   0  0  0  1  0  0  0  0  0  0  0  0
    1.2153    0.3154   -5.4016 H   0  0  0  1  0  0  0  0  0  0  0  0
   -0.3940   -0.6100   -6.2764 O   0  0  0  1  0  0  0  0  0  0  0  0
   -0.0089   -1.1399   -6.9782 H   0  0  0  1  0  0  0  0  0  0  0  0
   -0.4412    1.7300   -5.5116 C   0  0  0  1  0  0  0  0  0  0  0  0
   -0.3077    1.8331   -4.4550 H   0  0  0  1  0  0  0  0  0  0  0  0
   -1.8415    1.5318   -5.8035 O   0  0  0  1  0  0  0  0  0  0  0  0
   -2.8910    2.7507   -5.4834 P   0  0  0  1  0  0  0  0  0  0  0  0
   -4.3496    2.1096   -5.8721 O   0  0  0  0  0  0  0  0  0  0  0  0
   -2.8500    3.1166   -4.0499 O   0  0  0  1  0  0  0  0  0  0  0  0
   -2.5923    3.9028   -6.5825 O   0  5  0  1  0  0  0  0  0  0  0  0
    0.1036    2.9651   -6.2553 C   0  0  0  1  0  0  0  0  0  0  0  0
   -0.6693    3.4029   -6.8519 H   0  0  0  1  0  0  0  0  0  0  0  0
    1.1804    2.5201   -7.0962 O   0  0  0  1  0  0  0  0  0  0  0  0
    0.5998    3.9597   -5.2847 C   0  0  0  1  0  0  0  0  0  0  0  0
    1.4077    3.5347   -4.7265 H   0  0  0  1  0  0  0  0  0  0  0  0
   -0.1931    4.2275   -4.6180 H   0  0  0  1  0  0  0  0  0  0  0  0
    1.0675    5.1480   -5.9720 O   0  0  0  1  0  0  0  0  0  0  0  0
    1.6048    6.4732   -5.1939 P   0  0  0  1  0  0  0  0  0  0  0  0
    2.9257    6.1975   -4.5729 O   0  0  0  0  0  0  0  0  0  0  0  0
    0.5306    7.0797   -4.3857 O   0  0  0  1  0  0  0  0  0  0  0  0
    1.7979    7.2878   -6.5782 O   0  0  0  1  0  0  0  0  0  0  0  0
    3.1339    7.1130   -7.5132 P   0  0  0  1  0  0  0  0  0  0  0  0
    3.5475    5.6920   -7.5312 O   0  0  0  1  0  0  0  0  0  0  0  0
    2.9033    7.7685   -8.9765 O   0  5  0  1  0  0  0  0  0  0  0  0
    4.1710    7.9662   -6.6931 O   0  0  0  1  0  0  0  0  0  0  0  0
    5.2065    9.8620   -5.7709 C   0  0  0  1  0  0  0  0  0  0  0  0
    4.0897    9.4078   -6.6697 C   0  0  0  1  0  0  0  0  0  0  0  0
    3.1446    9.7221   -6.2786 H   0  0  0  1  0  0  0  0  0  0  0  0
    4.2185    9.8050   -7.6548 H   0  0  0  1  0  0  0  0  0  0  0  0
    6.5741    9.4614   -6.3508 C   0  0  0  1  0  0  0  0  0  0  0  0
    7.1314   10.3423   -6.5926 H   0  0  0  1  0  0  0  0  0  0  0  0
    6.4289    8.8775   -7.2356 H   0  0  0  1  0  0  0  0  0  0  0  0
    7.1132    8.8859   -5.6275 H   0  0  0  1  0  0  0  0  0  0  0  0
    5.0093    9.1874   -4.4113 C   0  0  0  1  0  0  0  0  0  0  0  0
    5.2690    8.1520   -4.4853 H   0  0  0  1  0  0  0  0  0  0  0  0
    3.9855    9.2777   -4.1137 H   0  0  0  1  0  0  0  0  0  0  0  0
    5.6356    9.6609   -3.6843 H   0  0  0  1  0  0  0  0  0  0  0  0
    5.1179   11.3795   -5.5910 C   0  0  0  1  0  0  0  0  0  0  0  0
    4.1687   11.6086   -5.1534 H   0  0  0  1  0  0  0  0  0  0  0  0
    6.1572   11.8054   -4.7263 O   0  0  0  1  0  0  0  0  0  0  0  0
    5.8895   12.6095   -4.2753 H   0  0  0  1  0  0  0  0  0  0  0  0
    5.1983   12.0706   -6.9448 C   0  0  0  1  0  0  0  0  0  0  0  0
    4.3279   11.9184   -7.7860 O   0  0  0  1  0  0  0  0  0  0  0  0
    6.2772   12.8450   -7.1410 N   0  0  0  1  0  0  0  0  0  0  0  0
    6.9050   12.9779   -6.4004 H   0  0  0  1  0  0  0  0  0  0  0  0
    6.5475   13.4954   -8.4183 C   0  0  0  1  0  0  0  0  0  0  0  0
    7.2185   14.3100   -8.2420 H   0  0  0  1  0  0  0  0  0  0  0  0
    5.6226   13.8715   -8.8030 H   0  0  0  1  0  0  0  0  0  0  0  0
    7.1674   12.5901   -9.4746 C   0  0  0  1  0  0  0  0  0  0  0  0
    6.4667   11.8182   -9.7154 H   0  0  0  1  0  0  0  0  0  0  0  0
    8.0557   12.1524   -9.0692 H   0  0  0  1  0  0  0  0  0  0  0  0
    7.5341   13.3334  -10.7604 C   0  0  0  1  0  0  0  0  0  0  0  0
    6.6718   13.9228  -11.4106 O   0  0  0  1  0  0  0  0  0  0  0  0
    8.8379   13.3522  -11.0414 N   0  0  0  1  0  0  0  0  0  0  0  0
    9.4722   12.8951  -10.4505 H   0  0  0  1  0  0  0  0  0  0  0  0
    9.3202   14.0496  -12.2228 C   0  0  0  1  0  0  0  0  0  0  0  0
   10.3301   14.3582  -12.0504 H   0  0  0  1  0  0  0  0  0  0  0  0
    8.7067   14.9108  -12.3868 H   0  0  0  1  0  0  0  0  0  0  0  0
    9.2825   13.1802  -13.4690 C   0  0  0  1  0  0  0  0  0  0  0  0
    9.5592   13.7802  -14.3106 H   0  0  0  1  0  0  0  0  0  0  0  0
    8.2842   12.8184  -13.6011 H   0  0  0  1  0  0  0  0  0  0  0  0
   10.4010   11.7616  -13.3820 S   0  0  0  1  0  0  0  0  0  0  0  0
   10.6116   11.3420  -15.0967 C   0  0  0  1  0  0  0  0  0  0  0  0
   10.1618   11.9949  -15.9993 O   0  0  0  1  0  0  0  0  0  0  0  0
   11.4170   10.0770  -15.2823 C   0  0  0  1  0  0  0  0  0  0  0  0
   10.8229    9.2314  -15.0049 H   0  0  0  1  0  0  0  0  0  0  0  0
   12.2904   10.1167  -14.6654 H   0  0  0  1  0  0  0  0  0  0  0  0
   11.7080    9.9870  -16.3080 H   0  0  0  1  0  0  0  0  0  0  0  0
  1  2  1  0  0  0  0
  1  7  2  0  0  0  0
  2  3  1  0  0  0  0
  2  4  2  0  0  0  0
  4  5  1  0  0  0  0
  5  6  2  0  0  0  0
  5 14  1  0  0  0  0
  6  7  1  0  0  0  0
  6 11  1  0  0  0  0
  7  8  1  0  0  0  0
  8  9  1  0  0  0  0
  8 10  1  0  0  0  0
 11 12  2  0  0  0  0
 12 13  1  0  0  0  0
 12 14  1  0  0  0  0
 14 15  1  0  0  0  0
 15 16  1  0  0  0  0
 15 17  1  0  0  0  0
 15 30  1  0  0  0  0
 17 18  1  0  0  0  0
 17 19  1  0  0  0  0
 17 21  1  0  0  0  0
 19 20  1  0  0  0  0
 21 22  1  0  0  0  0
 21 23  1  0  0  0  0
 21 28  1  0  0  0  0
 23 24  1  0  0  0  0
 24 25  1  0  0  0  0
 24 26  2  0  0  0  0
 24 27  1  0  0  0  0
 28 29  1  0  0  0  0
 28 30  1  0  0  0  0
 28 31  1  0  0  0  0
 31 32  1  0  0  0  0
 31 33  1  0  0  0  0
 31 34  1  0  0  0  0
 34 35  1  0  0  0  0
 35 36  1  0  0  0  0
 35 37  2  0  0  0  0
 35 38  1  0  0  0  0
 38 39  1  0  0  0  0
 39 40  2  0  0  0  0
 39 41  1  0  0  0  0
 39 42  1  0  0  0  0
 42 44  1  0  0  0  0
 43 44  1  0  0  0  0
 43 47  1  0  0  0  0
 43 51  1  0  0  0  0
 43 55  1  0  0  0  0
 44 45  1  0  0  0  0
 44 46  1  0  0  0  0
 47 48  1  0  0  0  0
 47 49  1  0  0  0  0
 47 50  1  0  0  0  0
 51 52  1  0  0  0  0
 51 53  1  0  0  0  0
 51 54  1  0  0  0  0
 55 56  1  0  0  0  0
 55 57  1  0  0  0  0
 55 59  1  0  0  0  0
 57 58  1  0  0  0  0
 59 60  2  0  0  0  0
 59 61  1  0  0  0  0
 61 62  1  0  0  0  0
 61 63  1  0  0  0  0
 63 64  1  0  0  0  0
 63 65  1  0  0  0  0
 63 66  1  0  0  0  0
 66 67  1  0  0  0  0
 66 68  1  0  0  0  0
 66 69  1  0  0  0  0
 69 70  2  0  0  0  0
 69 71  1  0  0  0  0
 71 72  1  0  0  0  0
 71 73  1  0  0  0  0
 73 74  1  0  0  0  0
 73 75  1  0  0  0  0
 73 76  1  0  0  0  0
 76 77  1  0  0  0  0
 76 78  1  0  0  0  0
 76 79  1  0  0  0  0
 79 80  1  0  0  0  0
 80 81  2  0  0  0  0
 80 82  1  0  0  0  0
 82 83  1  0  0  0  0
 82 84  1  0  0  0  0
 82 85  1  0  0  0  0
M  BCL ATM N_Tr2TrTrPi C_TrTrTrPi H_S N_Tr2TrTrPi C_TrTrTrPi C_TrTrTrPi C_TrTrTrPi N_TrTrTrPi2 H_S H_S N_Tr2TrTrPi C_TrTrTrPi H_S N_TrTrTrPi2 C_TeTeTeTe H_S C_TeTeTeTe H_S O_Te2Te2TeTe H_S C_TeTeTeTe H_S O_Tr2TrTrPi2 P_TeTeTeTePi O_Te2Te2TeTe O_Tr2Tr2TrPi O_Te2Te2Te2Te C_TeTeTeTe H_S O_Te2Te2TeTe C_TeTeTeTe H_S H_S O_Tr2TrTrPi2 P_TeTeTeTePi O_Te2Te2TeTe O_Tr2Tr2TrPi O_Tr2TrTrPi2 P_TeTeTeTePi O_Tr2Tr2TrPi O_Te2Te2Te2Te O_Tr2TrTrPi2 C_TeTeTeTe C_TeTeTeTe H_S H_S C_TeTeTeTe H_S H_S H_S C_TeTeTeTe H_S H_S H_S C_TeTeTeTe H_S O_Te2Te2TeTe H_S C_TrTrTrPi O_Tr2Tr2TrPi N_TrTrTrPi2 H_S C_TeTeTeTe H_S H_S C_TeTeTeTe H_S H_S C_TrTrTrPi O_Tr2Tr2TrPi N_TrTrTrPi2 H_S C_TeTeTeTe H_S H_S C_TeTeTeTe H_S H_S S_Te2Te2TeTe C_TrTrTrPi O_Tr2Tr2TrPi C_TeTeTeTe H_S H_S H_S
M  BCL BND AromaticSingleBond AromaticDoubleBond NonConjugatedSingleBond AromaticDoubleBond AromaticSingleBond AromaticDoubleBond AromaticSingleBond AromaticSingleBond AromaticSingleBond ConjugatedSingleBond NonConjugatedSingleBond NonConjugatedSingleBond AromaticDoubleBond NonConjugatedSingleBond AromaticSingleBond NonConjugatedSingleBond NonConjugatedSingleBond NonConjugatedSingleBondInRing NonConjugatedSingleBondInRing NonConjugatedSingleBond NonConjugatedSingleBond NonConjugatedSingleBondInRing NonConjugatedSingleBond NonConjugatedSingleBond NonConjugatedSingleBond NonConjugatedSingleBondInRing ConjugatedSingleBond ConjugatedSingleBond ConjugatedDoubleBond ConjugatedSingleBond NonConjugatedSingleBond NonConjugatedSingleBondInRing NonConjugatedSingleBond NonConjugatedSingleBond NonConjugatedSingleBond NonConjugatedSingleBond ConjugatedSingleBond ConjugatedSingleBond ConjugatedDoubleBond ConjugatedSingleBond ConjugatedSingleBond ConjugatedDoubleBond ConjugatedSingleBond ConjugatedSingleBond NonConjugatedSingleBond NonConjugatedSingleBond NonConjugatedSingleBond NonConjugatedSingleBond NonConjugatedSingleBond NonConjugatedSingleBond NonConjugatedSingleBond NonConjugatedSingleBond NonConjugatedSingleBond NonConjugatedSingleBond NonConjugatedSingleBond NonConjugatedSingleBond NonConjugatedSingleBond NonConjugatedSingleBond NonConjugatedSingleBond NonConjugatedSingleBond NonConjugatedSingleBond ConjugatedDoubleBond AmideSingleBond NonConjugatedSingleBond NonConjugatedSingleBond NonConjugatedSingleBond NonConjugatedSingleBond NonConjugatedSingleBond NonConjugatedSingleBond NonConjugatedSingleBond NonConjugatedSingleBond ConjugatedDoubleBond AmideSingleBond NonConjugatedSingleBond NonConjugatedSingleBond NonConjugatedSingleBond NonConjugatedSingleBond NonConjugatedSingleBond NonConjugatedSingleBond NonConjugatedSingleBond NonConjugatedSingleBond ConjugatedSingleBond ConjugatedDoubleBond NonConjugatedSingleBond NonConjugatedSingleBond NonConjugatedSingleBond NonConjugatedSingleBond
M  BCL CHI  15   S  17   S  21   S  24   S  28   R  35   R  39   R  55   S
M  BCL DBI - - - - - - - - - -
M  END
> <ConfClashScore>
0 

> <ConfOneFourInteractionScore>
-0.9787 

> <ConfScore>
-0.030674 

> <ConfScorePBest>
0.0136565 

> <ConfTolerance>
2.3043 

$$$$
ACO.****
  PyMOL2.5          3D                             0

 85 87  0  0  0  0  0  0  0  0999 V2000
    4.8879    1.0783  -10.6390 N   0  0  0  1  0  0  0  0  0  0  0  0
    3.8385    1.9080  -10.5281 C   0  0  0  1  0  0  0  0  0  0  0  0
    3.8074    2.6882  -11.2151 H   0  0  0  1  0  0  0  0  0  0  0  0
    2.8352    1.8672   -9.6599 N   0  0  0  1  0  0  0  0  0  0  0  0
    2.9566    0.8337   -8.8257 C   0  0  0  1  0  0  0  0  0  0  0  0
    3.9887   -0.1141   -8.8113 C   0  0  0  1  0  0  0  0  0  0  0  0
    4.9772    0.0612   -9.7752 C   0  0  0  1  0  0  0  0  0  0  0  0
    6.0617   -0.7675   -9.8929 N   0  0  0  1  0  0  0  0  0  0  0  0
    6.7425   -0.5897  -10.5751 H   0  0  0  1  0  0  0  0  0  0  0  0
    6.1568   -1.5381   -9.2950 H   0  0  0  1  0  0  0  0  0  0  0  0
    3.7835   -1.0323   -7.7932 N   0  0  0  1  0  0  0  0  0  0  0  0
    2.6704   -0.6327   -7.2409 C   0  0  0  1  0  0  0  0  0  0  0  0
    2.2369   -1.1272   -6.4352 H   0  0  0  1  0  0  0  0  0  0  0  0
    2.1198    0.4801   -7.7988 N   0  0  0  1  0  0  0  0  0  0  0  0
    0.8901    1.1589   -7.3887 C   0  0  0  1  0  0  0  0  0  0  0  0
    1.1271    2.1344   -7.0182 H   0  0  0  1  0  0  0  0  0  0  0  0
   -0.0532    1.2648   -8.5529 C   0  0  0  1  0  0  0  0  0  0  0  0
    0.4360    0.9787   -9.4605 H   0  0  0  1  0  0  0  0  0  0  0  0
   -0.5489    2.6002   -8.6783 O   0  0  0  1  0  0  0  0  0  0  0  0
   -0.8727    2.7393   -9.5713 H   0  0  0  1  0  0  0  0  0  0  0  0
   -1.1769    0.3098   -8.2323 C   0  0  0  1  0  0  0  0  0  0  0  0
   -1.3811   -0.3286   -9.0664 H   0  0  0  1  0  0  0  0  0  0  0  0
   -2.3748    1.0321   -7.8734 O   0  0  0  1  0  0  0  0  0  0  0  0
   -3.8257    0.6297   -8.5236 P   0  0  0  1  0  0  0  0  0  0  0  0
   -5.0148    1.3958   -7.6936 O   0  0  0  0  0  0  0  0  0  0  0  0
   -3.8151    0.9322   -9.9723 O   0  0  0  1  0  0  0  0  0  0  0  0
   -4.0043   -0.9376   -8.1546 O   0  5  0  1  0  0  0  0  0  0  0  0
   -0.6698   -0.4816   -7.0728 C   0  0  0  1  0  0  0  0  0  0  0  0
   -1.4774   -0.7718   -6.4338 H   0  0  0  1  0  0  0  0  0  0  0  0
    0.2269    0.4024   -6.3827 O   0  0  0  1  0  0  0  0  0  0  0  0
    0.0594   -1.7080   -7.5487 C   0  0  0  1  0  0  0  0  0  0  0  0
    0.5192   -2.2122   -6.7245 H   0  0  0  1  0  0  0  0  0  0  0  0
    0.8068   -1.4427   -8.2670 H   0  0  0  1  0  0  0  0  0  0  0  0
   -0.9413   -2.5435   -8.1522 O   0  0  0  1  0  0  0  0  0  0  0  0
   -1.0060   -4.1662   -8.0383 P   0  0  0  1  0  0  0  0  0  0  0  0
    0.2817   -4.7579   -8.4786 O   0  0  0  0  0  0  0  0  0  0  0  0
   -2.2721   -4.6813   -8.5899 O   0  0  0  1  0  0  0  0  0  0  0  0
   -1.0730   -4.1157   -6.4333 O   0  0  0  1  0  0  0  0  0  0  0  0
   -1.7444   -5.2156   -5.4188 P   0  0  0  1  0  0  0  0  0  0  0  0
   -3.2058   -4.9891   -5.4763 O   0  0  0  1  0  0  0  0  0  0  0  0
   -1.2371   -6.6604   -5.9476 O   0  5  0  1  0  0  0  0  0  0  0  0
   -1.1890   -4.8605   -3.9900 O   0  0  0  1  0  0  0  0  0  0  0  0
   -2.6727   -3.7621   -2.4341 C   0  0  0  1  0  0  0  0  0  0  0  0
   -2.0188   -5.0027   -2.8168 C   0  0  0  1  0  0  0  0  0  0  0  0
   -1.4064   -5.3311   -2.0031 H   0  0  0  1  0  0  0  0  0  0  0  0
   -2.7706   -5.7373   -3.0172 H   0  0  0  1  0  0  0  0  0  0  0  0
   -3.6699   -4.0277   -1.3028 C   0  0  0  1  0  0  0  0  0  0  0  0
   -3.4682   -3.3662   -0.4863 H   0  0  0  1  0  0  0  0  0  0  0  0
   -3.5730   -5.0410   -0.9729 H   0  0  0  1  0  0  0  0  0  0  0  0
   -4.6652   -3.8616   -1.6587 H   0  0  0  1  0  0  0  0  0  0  0  0
   -3.4172   -3.1797   -3.6510 C   0  0  0  1  0  0  0  0  0  0  0  0
   -3.9591   -2.3063   -3.3537 H   0  0  0  1  0  0  0  0  0  0  0  0
   -4.0997   -3.9094   -4.0340 H   0  0  0  1  0  0  0  0  0  0  0  0
   -2.7098   -2.9190   -4.4103 H   0  0  0  1  0  0  0  0  0  0  0  0
   -1.6187   -2.7552   -1.9586 C   0  0  0  1  0  0  0  0  0  0  0  0
   -1.1546   -3.1573   -1.0824 H   0  0  0  1  0  0  0  0  0  0  0  0
   -0.6306   -2.5273   -2.9490 O   0  0  0  1  0  0  0  0  0  0  0  0
   -1.0411   -2.5254   -3.8168 H   0  0  0  1  0  0  0  0  0  0  0  0
   -2.2771   -1.4475   -1.5813 C   0  0  0  1  0  0  0  0  0  0  0  0
   -3.1562   -1.3999   -0.7220 O   0  0  0  1  0  0  0  0  0  0  0  0
   -1.8400   -0.3629   -2.2407 N   0  0  0  1  0  0  0  0  0  0  0  0
   -1.1332   -0.4699   -2.9111 H   0  0  0  1  0  0  0  0  0  0  0  0
   -2.3792    0.9662   -1.9946 C   0  0  0  1  0  0  0  0  0  0  0  0
   -3.4236    0.8781   -1.7794 H   0  0  0  1  0  0  0  0  0  0  0  0
   -2.2447    1.5592   -2.8750 H   0  0  0  1  0  0  0  0  0  0  0  0
   -1.6975    1.6660   -0.8260 C   0  0  0  1  0  0  0  0  0  0  0  0
   -1.7733    1.0389    0.0376 H   0  0  0  1  0  0  0  0  0  0  0  0
   -2.2027    2.5909   -0.6413 H   0  0  0  1  0  0  0  0  0  0  0  0
   -0.2395    1.9578   -1.0811 C   0  0  0  1  0  0  0  0  0  0  0  0
    0.1369    2.3862   -2.1709 O   0  0  0  1  0  0  0  0  0  0  0  0
    0.6353    1.7354   -0.0809 N   0  0  0  1  0  0  0  0  0  0  0  0
    0.3205    1.3689    0.7717 H   0  0  0  1  0  0  0  0  0  0  0  0
    2.0469    2.0383   -0.2640 C   0  0  0  1  0  0  0  0  0  0  0  0
    2.2825    1.9587   -1.3047 H   0  0  0  1  0  0  0  0  0  0  0  0
    2.6247    1.3269    0.2884 H   0  0  0  1  0  0  0  0  0  0  0  0
    2.4083    3.4288    0.2099 C   0  0  0  1  0  0  0  0  0  0  0  0
    2.0900    3.5255    1.2269 H   0  0  0  1  0  0  0  0  0  0  0  0
    1.8804    4.1336   -0.3980 H   0  0  0  1  0  0  0  0  0  0  0  0
    4.1697    3.8319    0.1336 S   0  0  0  1  0  0  0  0  0  0  0  0
    4.4352    3.9966   -1.5693 C   0  0  0  1  0  0  0  0  0  0  0  0
    3.5394    3.8233   -2.3799 O   0  0  0  1  0  0  0  0  0  0  0  0
    5.8151    4.1968   -2.0103 C   0  0  0  1  0  0  0  0  0  0  0  0
    6.4812    3.7014   -1.3352 H   0  0  0  1  0  0  0  0  0  0  0  0
    6.0362    5.2436   -2.0252 H   0  0  0  1  0  0  0  0  0  0  0  0
    5.9375    3.7918   -2.9931 H   0  0  0  1  0  0  0  0  0  0  0  0
  1  2  1  0  0  0  0
  1  7  2  0  0  0  0
  2  3  1  0  0  0  0
  2  4  2  0  0  0  0
  4  5  1  0  0  0  0
  5  6  2  0  0  0  0
  5 14  1  0  0  0  0
  6  7  1  0  0  0  0
  6 11  1  0  0  0  0
  7  8  1  0  0  0  0
  8  9  1  0  0  0  0
  8 10  1  0  0  0  0
 11 12  2  0  0  0  0
 12 13  1  0  0  0  0
 12 14  1  0  0  0  0
 14 15  1  0  0  0  0
 15 16  1  0  0  0  0
 15 17  1  0  0  0  0
 15 30  1  0  0  0  0
 17 18  1  0  0  0  0
 17 19  1  0  0  0  0
 17 21  1  0  0  0  0
 19 20  1  0  0  0  0
 21 22  1  0  0  0  0
 21 23  1  0  0  0  0
 21 28  1  0  0  0  0
 23 24  1  0  0  0  0
 24 25  1  0  0  0  0
 24 26  2  0  0  0  0
 24 27  1  0  0  0  0
 28 29  1  0  0  0  0
 28 30  1  0  0  0  0
 28 31  1  0  0  0  0
 31 32  1  0  0  0  0
 31 33  1  0  0  0  0
 31 34  1  0  0  0  0
 34 35  1  0  0  0  0
 35 36  1  0  0  0  0
 35 37  2  0  0  0  0
 35 38  1  0  0  0  0
 38 39  1  0  0  0  0
 39 40  2  0  0  0  0
 39 41  1  0  0  0  0
 39 42  1  0  0  0  0
 42 44  1  0  0  0  0
 43 44  1  0  0  0  0
 43 47  1  0  0  0  0
 43 51  1  0  0  0  0
 43 55  1  0  0  0  0
 44 45  1  0  0  0  0
 44 46  1  0  0  0  0
 47 48  1  0  0  0  0
 47 49  1  0  0  0  0
 47 50  1  0  0  0  0
 51 52  1  0  0  0  0
 51 53  1  0  0  0  0
 51 54  1  0  0  0  0
 55 56  1  0  0  0  0
 55 57  1  0  0  0  0
 55 59  1  0  0  0  0
 57 58  1  0  0  0  0
 59 60  2  0  0  0  0
 59 61  1  0  0  0  0
 61 62  1  0  0  0  0
 61 63  1  0  0  0  0
 63 64  1  0  0  0  0
 63 65  1  0  0  0  0
 63 66  1  0  0  0  0
 66 67  1  0  0  0  0
 66 68  1  0  0  0  0
 66 69  1  0  0  0  0
 69 70  2  0  0  0  0
 69 71  1  0  0  0  0
 71 72  1  0  0  0  0
 71 73  1  0  0  0  0
 73 74  1  0  0  0  0
 73 75  1  0  0  0  0
 73 76  1  0  0  0  0
 76 77  1  0  0  0  0
 76 78  1  0  0  0  0
 76 79  1  0  0  0  0
 79 80  1  0  0  0  0
 80 81  2  0  0  0  0
 80 82  1  0  0  0  0
 82 83  1  0  0  0  0
 82 84  1  0  0  0  0
 82 85  1  0  0  0  0
M  BCL ATM N_Tr2TrTrPi C_TrTrTrPi H_S N_Tr2TrTrPi C_TrTrTrPi C_TrTrTrPi C_TrTrTrPi N_TrTrTrPi2 H_S H_S N_Tr2TrTrPi C_TrTrTrPi H_S N_TrTrTrPi2 C_TeTeTeTe H_S C_TeTeTeTe H_S O_Te2Te2TeTe H_S C_TeTeTeTe H_S O_Tr2TrTrPi2 P_TeTeTeTePi O_Te2Te2TeTe O_Tr2Tr2TrPi O_Te2Te2Te2Te C_TeTeTeTe H_S O_Te2Te2TeTe C_TeTeTeTe H_S H_S O_Tr2TrTrPi2 P_TeTeTeTePi O_Te2Te2TeTe O_Tr2Tr2TrPi O_Tr2TrTrPi2 P_TeTeTeTePi O_Tr2Tr2TrPi O_Te2Te2Te2Te O_Tr2TrTrPi2 C_TeTeTeTe C_TeTeTeTe H_S H_S C_TeTeTeTe H_S H_S H_S C_TeTeTeTe H_S H_S H_S C_TeTeTeTe H_S O_Te2Te2TeTe H_S C_TrTrTrPi O_Tr2Tr2TrPi N_TrTrTrPi2 H_S C_TeTeTeTe H_S H_S C_TeTeTeTe H_S H_S C_TrTrTrPi O_Tr2Tr2TrPi N_TrTrTrPi2 H_S C_TeTeTeTe H_S H_S C_TeTeTeTe H_S H_S S_Te2Te2TeTe C_TrTrTrPi O_Tr2Tr2TrPi C_TeTeTeTe H_S H_S H_S
M  BCL BND AromaticSingleBond AromaticDoubleBond NonConjugatedSingleBond AromaticDoubleBond AromaticSingleBond AromaticDoubleBond AromaticSingleBond AromaticSingleBond AromaticSingleBond ConjugatedSingleBond NonConjugatedSingleBond NonConjugatedSingleBond AromaticDoubleBond NonConjugatedSingleBond AromaticSingleBond NonConjugatedSingleBond NonConjugatedSingleBond NonConjugatedSingleBondInRing NonConjugatedSingleBondInRing NonConjugatedSingleBond NonConjugatedSingleBond NonConjugatedSingleBondInRing NonConjugatedSingleBond NonConjugatedSingleBond NonConjugatedSingleBond NonConjugatedSingleBondInRing ConjugatedSingleBond ConjugatedSingleBond ConjugatedDoubleBond ConjugatedSingleBond NonConjugatedSingleBond NonConjugatedSingleBondInRing NonConjugatedSingleBond NonConjugatedSingleBond NonConjugatedSingleBond NonConjugatedSingleBond ConjugatedSingleBond ConjugatedSingleBond ConjugatedDoubleBond ConjugatedSingleBond ConjugatedSingleBond ConjugatedDoubleBond ConjugatedSingleBond ConjugatedSingleBond NonConjugatedSingleBond NonConjugatedSingleBond NonConjugatedSingleBond NonConjugatedSingleBond NonConjugatedSingleBond NonConjugatedSingleBond NonConjugatedSingleBond NonConjugatedSingleBond NonConjugatedSingleBond NonConjugatedSingleBond NonConjugatedSingleBond NonConjugatedSingleBond NonConjugatedSingleBond NonConjugatedSingleBond NonConjugatedSingleBond NonConjugatedSingleBond NonConjugatedSingleBond ConjugatedDoubleBond AmideSingleBond NonConjugatedSingleBond NonConjugatedSingleBond NonConjugatedSingleBond NonConjugatedSingleBond NonConjugatedSingleBond NonConjugatedSingleBond NonConjugatedSingleBond NonConjugatedSingleBond ConjugatedDoubleBond AmideSingleBond NonConjugatedSingleBond NonConjugatedSingleBond NonConjugatedSingleBond NonConjugatedSingleBond NonConjugatedSingleBond NonConjugatedSingleBond NonConjugatedSingleBond NonConjugatedSingleBond ConjugatedSingleBond ConjugatedDoubleBond NonConjugatedSingleBond NonConjugatedSingleBond NonConjugatedSingleBond NonConjugatedSingleBond
M  BCL CHI  15   S  17   S  21   S  24   S  28   R  35   R  39   R  55   S
M  BCL DBI - - - - - - - - - -
M  END
> <ConfClashScore>
0 

> <ConfOneFourInteractionScore>
-0.982975 

> <ConfScore>
-0.0287986 

> <ConfScorePBest>
0.0135535 

> <ConfTolerance>
2.42104 

$$$$
ACO.****
  PyMOL2.5          3D                             0

 85 87  0  0  0  0  0  0  0  0999 V2000
    4.8854    1.0754  -10.6423 N   0  0  0  1  0  0  0  0  0  0  0  0
    3.8313    1.9000  -10.5375 C   0  0  0  1  0  0  0  0  0  0  0  0
    3.7986    2.6779  -11.2271 H   0  0  0  1  0  0  0  0  0  0  0  0
    2.8252    1.8567   -9.6728 N   0  0  0  1  0  0  0  0  0  0  0  0
    2.9490    0.8264   -8.8349 C   0  0  0  1  0  0  0  0  0  0  0  0
    3.9860   -0.1160   -8.8139 C   0  0  0  1  0  0  0  0  0  0  0  0
    4.9769    0.0614   -9.7750 C   0  0  0  1  0  0  0  0  0  0  0  0
    6.0661   -0.7620   -9.8863 N   0  0  0  1  0  0  0  0  0  0  0  0
    6.7060   -0.6320  -10.6171 H   0  0  0  1  0  0  0  0  0  0  0  0
    6.2054   -1.4810   -9.2351 H   0  0  0  1  0  0  0  0  0  0  0  0
    3.7819   -1.0321   -7.7938 N   0  0  0  1  0  0  0  0  0  0  0  0
    2.6648   -0.6365   -7.2466 C   0  0  0  1  0  0  0  0  0  0  0  0
    2.2311   -1.1308   -6.4409 H   0  0  0  1  0  0  0  0  0  0  0  0
    2.1104    0.4717   -7.8099 N   0  0  0  1  0  0  0  0  0  0  0  0
    0.9349    1.1949   -7.3407 C   0  0  0  1  0  0  0  0  0  0  0  0
    1.1140    2.2479   -7.4053 H   0  0  0  1  0  0  0  0  0  0  0  0
   -0.2974    0.8103   -8.1748 C   0  0  0  1  0  0  0  0  0  0  0  0
   -0.2476   -0.2114   -8.4887 H   0  0  0  1  0  0  0  0  0  0  0  0
   -0.4292    1.6558   -9.3206 O   0  0  0  1  0  0  0  0  0  0  0  0
    0.4295    2.0163   -9.5534 H   0  0  0  1  0  0  0  0  0  0  0  0
   -1.4397    1.0286   -7.1985 C   0  0  0  1  0  0  0  0  0  0  0  0
   -2.2516    0.3613   -7.3999 H   0  0  0  1  0  0  0  0  0  0  0  0
   -1.9152    2.3989   -7.2482 O   0  0  0  1  0  0  0  0  0  0  0  0
   -2.6077    3.0967   -5.9355 P   0  0  0  1  0  0  0  0  0  0  0  0
   -3.2384    4.4920   -6.5230 O   0  0  0  0  0  0  0  0  0  0  0  0
   -3.5875    2.1227   -5.4049 O   0  0  0  1  0  0  0  0  0  0  0  0
   -1.4597    3.5276   -4.8769 O   0  5  0  1  0  0  0  0  0  0  0  0
   -0.7861    0.7144   -5.8301 C   0  0  0  1  0  0  0  0  0  0  0  0
   -1.1186    1.4138   -5.0917 H   0  0  0  1  0  0  0  0  0  0  0  0
    0.6345    0.8326   -6.0238 O   0  0  0  1  0  0  0  0  0  0  0  0
   -1.1350   -0.6715   -5.3968 C   0  0  0  1  0  0  0  0  0  0  0  0
   -0.6584   -0.8927   -4.4647 H   0  0  0  1  0  0  0  0  0  0  0  0
   -0.8166   -1.3756   -6.1368 H   0  0  0  1  0  0  0  0  0  0  0  0
   -2.5620   -0.7344   -5.2436 O   0  0  0  1  0  0  0  0  0  0  0  0
   -3.4171   -2.0779   -5.0866 P   0  0  0  1  0  0  0  0  0  0  0  0
   -4.8656   -1.7945   -5.1489 O   0  0  0  0  0  0  0  0  0  0  0  0
   -2.8435   -2.7620   -3.9164 O   0  0  0  1  0  0  0  0  0  0  0  0
   -3.1180   -2.9057   -6.4306 O   0  0  0  1  0  0  0  0  0  0  0  0
   -1.8629   -3.8883   -6.8164 P   0  0  0  1  0  0  0  0  0  0  0  0
   -0.5187   -3.2874   -6.6664 O   0  0  0  1  0  0  0  0  0  0  0  0
   -2.2247   -5.1592   -5.8793 O   0  5  0  1  0  0  0  0  0  0  0  0
   -2.1252   -4.3245   -8.3053 O   0  0  0  1  0  0  0  0  0  0  0  0
   -2.8024   -3.9389  -10.5732 C   0  0  0  1  0  0  0  0  0  0  0  0
   -2.2099   -3.3423   -9.3606 C   0  0  0  1  0  0  0  0  0  0  0  0
   -1.2277   -2.9840   -9.5880 H   0  0  0  1  0  0  0  0  0  0  0  0
   -2.8210   -2.5268   -9.0345 H   0  0  0  1  0  0  0  0  0  0  0  0
   -3.0666   -2.8326  -11.5983 C   0  0  0  1  0  0  0  0  0  0  0  0
   -4.0776   -2.8985  -11.9424 H   0  0  0  1  0  0  0  0  0  0  0  0
   -2.3998   -2.9480  -12.4272 H   0  0  0  1  0  0  0  0  0  0  0  0
   -2.9070   -1.8782  -11.1417 H   0  0  0  1  0  0  0  0  0  0  0  0
   -4.1143   -4.6727  -10.2474 C   0  0  0  1  0  0  0  0  0  0  0  0
   -4.7757   -4.0092   -9.7305 H   0  0  0  1  0  0  0  0  0  0  0  0
   -3.9045   -5.5202   -9.6288 H   0  0  0  1  0  0  0  0  0  0  0  0
   -4.5753   -4.9991  -11.1561 H   0  0  0  1  0  0  0  0  0  0  0  0
   -1.7979   -4.9279  -11.1792 C   0  0  0  1  0  0  0  0  0  0  0  0
   -2.1641   -5.2299  -12.1381 H   0  0  0  1  0  0  0  0  0  0  0  0
   -0.5378   -4.2785  -11.3312 O   0  0  0  1  0  0  0  0  0  0  0  0
   -0.1949   -4.4464  -12.2120 H   0  0  0  1  0  0  0  0  0  0  0  0
   -1.6872   -6.1642  -10.2983 C   0  0  0  1  0  0  0  0  0  0  0  0
   -2.4741   -7.1002  -10.4118 O   0  0  0  1  0  0  0  0  0  0  0  0
   -0.6851   -6.1559   -9.4051 N   0  0  0  1  0  0  0  0  0  0  0  0
   -0.0839   -5.3838   -9.3517 H   0  0  0  1  0  0  0  0  0  0  0  0
   -0.4895   -7.2912   -8.5158 C   0  0  0  1  0  0  0  0  0  0  0  0
    0.5562   -7.3910   -8.3121 H   0  0  0  1  0  0  0  0  0  0  0  0
   -0.8440   -8.1746   -9.0046 H   0  0  0  1  0  0  0  0  0  0  0  0
   -1.2311   -7.1332   -7.1949 C   0  0  0  1  0  0  0  0  0  0  0  0
   -2.2532   -6.8959   -7.4045 H   0  0  0  1  0  0  0  0  0  0  0  0
   -0.7833   -6.3308   -6.6468 H   0  0  0  1  0  0  0  0  0  0  0  0
   -1.1918   -8.3838   -6.3384 C   0  0  0  1  0  0  0  0  0  0  0  0
   -0.2375   -9.1590   -6.3838 O   0  0  0  1  0  0  0  0  0  0  0  0
   -2.2498   -8.5780   -5.5460 N   0  0  0  1  0  0  0  0  0  0  0  0
   -2.9609   -7.9040   -5.5663 H   0  0  0  1  0  0  0  0  0  0  0  0
   -2.4262   -9.7177   -4.6529 C   0  0  0  1  0  0  0  0  0  0  0  0
   -1.7158  -10.4692   -4.9274 H   0  0  0  1  0  0  0  0  0  0  0  0
   -3.4176  -10.0969   -4.7883 H   0  0  0  1  0  0  0  0  0  0  0  0
   -2.2383   -9.4060   -3.1888 C   0  0  0  1  0  0  0  0  0  0  0  0
   -2.3895  -10.3045   -2.6278 H   0  0  0  1  0  0  0  0  0  0  0  0
   -2.9671   -8.6777   -2.9001 H   0  0  0  1  0  0  0  0  0  0  0  0
   -0.5944   -8.7578   -2.8037 S   0  0  0  1  0  0  0  0  0  0  0  0
   -0.6597   -7.1081   -3.5123 C   0  0  0  1  0  0  0  0  0  0  0  0
   -1.6425   -6.6926   -4.0740 O   0  0  0  1  0  0  0  0  0  0  0  0
    0.5696   -6.2774   -3.2256 C   0  0  0  1  0  0  0  0  0  0  0  0
    0.3595   -5.2476   -3.4262 H   0  0  0  1  0  0  0  0  0  0  0  0
    1.3746   -6.6050   -3.8497 H   0  0  0  1  0  0  0  0  0  0  0  0
    0.8451   -6.3914   -2.1980 H   0  0  0  1  0  0  0  0  0  0  0  0
  1  2  1  0  0  0  0
  1  7  2  0  0  0  0
  2  3  1  0  0  0  0
  2  4  2  0  0  0  0
  4  5  1  0  0  0  0
  5  6  2  0  0  0  0
  5 14  1  0  0  0  0
  6  7  1  0  0  0  0
  6 11  1  0  0  0  0
  7  8  1  0  0  0  0
  8  9  1  0  0  0  0
  8 10  1  0  0  0  0
 11 12  2  0  0  0  0
 12 13  1  0  0  0  0
 12 14  1  0  0  0  0
 14 15  1  0  0  0  0
 15 16  1  0  0  0  0
 15 17  1  0  0  0  0
 15 30  1  0  0  0  0
 17 18  1  0  0  0  0
 17 19  1  0  0  0  0
 17 21  1  0  0  0  0
 19 20  1  0  0  0  0
 21 22  1  0  0  0  0
 21 23  1  0  0  0  0
 21 28  1  0  0  0  0
 23 24  1  0  0  0  0
 24 25  1  0  0  0  0
 24 26  2  0  0  0  0
 24 27  1  0  0  0  0
 28 29  1  0  0  0  0
 28 30  1  0  0  0  0
 28 31  1  0  0  0  0
 31 32  1  0  0  0  0
 31 33  1  0  0  0  0
 31 34  1  0  0  0  0
 34 35  1  0  0  0  0
 35 36  1  0  0  0  0
 35 37  2  0  0  0  0
 35 38  1  0  0  0  0
 38 39  1  0  0  0  0
 39 40  2  0  0  0  0
 39 41  1  0  0  0  0
 39 42  1  0  0  0  0
 42 44  1  0  0  0  0
 43 44  1  0  0  0  0
 43 47  1  0  0  0  0
 43 51  1  0  0  0  0
 43 55  1  0  0  0  0
 44 45  1  0  0  0  0
 44 46  1  0  0  0  0
 47 48  1  0  0  0  0
 47 49  1  0  0  0  0
 47 50  1  0  0  0  0
 51 52  1  0  0  0  0
 51 53  1  0  0  0  0
 51 54  1  0  0  0  0
 55 56  1  0  0  0  0
 55 57  1  0  0  0  0
 55 59  1  0  0  0  0
 57 58  1  0  0  0  0
 59 60  2  0  0  0  0
 59 61  1  0  0  0  0
 61 62  1  0  0  0  0
 61 63  1  0  0  0  0
 63 64  1  0  0  0  0
 63 65  1  0  0  0  0
 63 66  1  0  0  0  0
 66 67  1  0  0  0  0
 66 68  1  0  0  0  0
 66 69  1  0  0  0  0
 69 70  2  0  0  0  0
 69 71  1  0  0  0  0
 71 72  1  0  0  0  0
 71 73  1  0  0  0  0
 73 74  1  0  0  0  0
 73 75  1  0  0  0  0
 73 76  1  0  0  0  0
 76 77  1  0  0  0  0
 76 78  1  0  0  0  0
 76 79  1  0  0  0  0
 79 80  1  0  0  0  0
 80 81  2  0  0  0  0
 80 82  1  0  0  0  0
 82 83  1  0  0  0  0
 82 84  1  0  0  0  0
 82 85  1  0  0  0  0
M  BCL ATM N_Tr2TrTrPi C_TrTrTrPi H_S N_Tr2TrTrPi C_TrTrTrPi C_TrTrTrPi C_TrTrTrPi N_TrTrTrPi2 H_S H_S N_Tr2TrTrPi C_TrTrTrPi H_S N_TrTrTrPi2 C_TeTeTeTe H_S C_TeTeTeTe H_S O_Te2Te2TeTe H_S C_TeTeTeTe H_S O_Tr2TrTrPi2 P_TeTeTeTePi O_Te2Te2TeTe O_Tr2Tr2TrPi O_Te2Te2Te2Te C_TeTeTeTe H_S O_Te2Te2TeTe C_TeTeTeTe H_S H_S O_Tr2TrTrPi2 P_TeTeTeTePi O_Te2Te2TeTe O_Tr2Tr2TrPi O_Tr2TrTrPi2 P_TeTeTeTePi O_Tr2Tr2TrPi O_Te2Te2Te2Te O_Tr2TrTrPi2 C_TeTeTeTe C_TeTeTeTe H_S H_S C_TeTeTeTe H_S H_S H_S C_TeTeTeTe H_S H_S H_S C_TeTeTeTe H_S O_Te2Te2TeTe H_S C_TrTrTrPi O_Tr2Tr2TrPi N_TrTrTrPi2 H_S C_TeTeTeTe H_S H_S C_TeTeTeTe H_S H_S C_TrTrTrPi O_Tr2Tr2TrPi N_TrTrTrPi2 H_S C_TeTeTeTe H_S H_S C_TeTeTeTe H_S H_S S_Te2Te2TeTe C_TrTrTrPi O_Tr2Tr2TrPi C_TeTeTeTe H_S H_S H_S
M  BCL BND AromaticSingleBond AromaticDoubleBond NonConjugatedSingleBond AromaticDoubleBond AromaticSingleBond AromaticDoubleBond AromaticSingleBond AromaticSingleBond AromaticSingleBond ConjugatedSingleBond NonConjugatedSingleBond NonConjugatedSingleBond AromaticDoubleBond NonConjugatedSingleBond AromaticSingleBond NonConjugatedSingleBond NonConjugatedSingleBond NonConjugatedSingleBondInRing NonConjugatedSingleBondInRing NonConjugatedSingleBond NonConjugatedSingleBond NonConjugatedSingleBondInRing NonConjugatedSingleBond NonConjugatedSingleBond NonConjugatedSingleBond NonConjugatedSingleBondInRing ConjugatedSingleBond ConjugatedSingleBond ConjugatedDoubleBond ConjugatedSingleBond NonConjugatedSingleBond NonConjugatedSingleBondInRing NonConjugatedSingleBond NonConjugatedSingleBond NonConjugatedSingleBond NonConjugatedSingleBond ConjugatedSingleBond ConjugatedSingleBond ConjugatedDoubleBond ConjugatedSingleBond ConjugatedSingleBond ConjugatedDoubleBond ConjugatedSingleBond ConjugatedSingleBond NonConjugatedSingleBond NonConjugatedSingleBond NonConjugatedSingleBond NonConjugatedSingleBond NonConjugatedSingleBond NonConjugatedSingleBond NonConjugatedSingleBond NonConjugatedSingleBond NonConjugatedSingleBond NonConjugatedSingleBond NonConjugatedSingleBond NonConjugatedSingleBond NonConjugatedSingleBond NonConjugatedSingleBond NonConjugatedSingleBond NonConjugatedSingleBond NonConjugatedSingleBond ConjugatedDoubleBond AmideSingleBond NonConjugatedSingleBond NonConjugatedSingleBond NonConjugatedSingleBond NonConjugatedSingleBond NonConjugatedSingleBond NonConjugatedSingleBond NonConjugatedSingleBond NonConjugatedSingleBond ConjugatedDoubleBond AmideSingleBond NonConjugatedSingleBond NonConjugatedSingleBond NonConjugatedSingleBond NonConjugatedSingleBond NonConjugatedSingleBond NonConjugatedSingleBond NonConjugatedSingleBond NonConjugatedSingleBond ConjugatedSingleBond ConjugatedDoubleBond NonConjugatedSingleBond NonConjugatedSingleBond NonConjugatedSingleBond NonConjugatedSingleBond
M  BCL CHI  15   S  17   S  21   S  24   S  28   R  35   R  39   R  55   S
M  BCL DBI - - - - - - - - - -
M  END
> <ConfClashScore>
0 

> <ConfOneFourInteractionScore>
-0.978522 

> <ConfScore>
-0.0281114 

> <ConfScorePBest>
0.0134505 

> <ConfTolerance>
2.5415 

$$$$
ACO.****
  PyMOL2.5          3D                             0

 85 87  0  0  0  0  0  0  0  0999 V2000
    4.8873    1.0541  -10.6303 N   0  0  0  1  0  0  0  0  0  0  0  0
    3.8457    1.8943  -10.5240 C   0  0  0  1  0  0  0  0  0  0  0  0
    3.8204    2.6692  -11.2172 H   0  0  0  1  0  0  0  0  0  0  0  0
    2.8437    1.8695   -9.6538 N   0  0  0  1  0  0  0  0  0  0  0  0
    2.9573    0.8415   -8.8116 C   0  0  0  1  0  0  0  0  0  0  0  0
    3.9808   -0.1155   -8.7915 C   0  0  0  1  0  0  0  0  0  0  0  0
    4.9690    0.0431   -9.7586 C   0  0  0  1  0  0  0  0  0  0  0  0
    6.0819   -0.7745   -9.9220 N   0  0  0  1  0  0  0  0  0  0  0  0
    6.1794   -1.5839   -9.3782 H   0  0  0  1  0  0  0  0  0  0  0  0
    6.7688   -0.5412  -10.5809 H   0  0  0  1  0  0  0  0  0  0  0  0
    3.7691   -1.0237   -7.7659 N   0  0  0  1  0  0  0  0  0  0  0  0
    2.6607   -0.6096   -7.2147 C   0  0  0  1  0  0  0  0  0  0  0  0
    2.2243   -1.0937   -6.4043 H   0  0  0  1  0  0  0  0  0  0  0  0
    2.1192    0.5037   -7.7805 N   0  0  0  1  0  0  0  0  0  0  0  0
    0.8454    1.1408   -7.4405 C   0  0  0  1  0  0  0  0  0  0  0  0
    0.2226    0.4408   -6.9240 H   0  0  0  1  0  0  0  0  0  0  0  0
    1.0856    2.3854   -6.5713 C   0  0  0  1  0  0  0  0  0  0  0  0
    2.0024    2.8697   -6.8355 H   0  0  0  1  0  0  0  0  0  0  0  0
    1.1072    2.0479   -5.1818 O   0  0  0  1  0  0  0  0  0  0  0  0
    1.6648    2.6705   -4.7094 H   0  0  0  1  0  0  0  0  0  0  0  0
   -0.1112    3.2585   -6.9046 C   0  0  0  1  0  0  0  0  0  0  0  0
    0.1334    4.2966   -6.8191 H   0  0  0  1  0  0  0  0  0  0  0  0
   -1.2348    2.9541   -6.0432 O   0  0  0  1  0  0  0  0  0  0  0  0
   -2.1049    4.1538   -5.3407 P   0  0  0  1  0  0  0  0  0  0  0  0
   -1.0099    5.1441   -4.6266 O   0  0  0  0  0  0  0  0  0  0  0  0
   -2.8286    4.9254   -6.3757 O   0  0  0  1  0  0  0  0  0  0  0  0
   -3.0393    3.4874   -4.1974 O   0  5  0  1  0  0  0  0  0  0  0  0
   -0.4158    2.8765   -8.3742 C   0  0  0  1  0  0  0  0  0  0  0  0
   -1.4724    2.8053   -8.5269 H   0  0  0  1  0  0  0  0  0  0  0  0
    0.2068    1.5988   -8.5973 O   0  0  0  1  0  0  0  0  0  0  0  0
    0.1571    3.9033   -9.3071 C   0  0  0  1  0  0  0  0  0  0  0  0
   -0.4153    4.8056   -9.2518 H   0  0  0  1  0  0  0  0  0  0  0  0
    0.1429    3.5322  -10.3105 H   0  0  0  1  0  0  0  0  0  0  0  0
    1.5206    4.1587   -8.8954 O   0  0  0  1  0  0  0  0  0  0  0  0
    2.5818    4.7110   -9.9176 P   0  0  0  1  0  0  0  0  0  0  0  0
    2.5092    6.2017   -9.8189 O   0  0  0  0  0  0  0  0  0  0  0  0
    2.3828    4.1545  -11.2732 O   0  0  0  1  0  0  0  0  0  0  0  0
    4.0345    4.2104   -9.4115 O   0  0  0  1  0  0  0  0  0  0  0  0
    4.9595    4.9912   -8.3051 P   0  0  0  1  0  0  0  0  0  0  0  0
    4.1502    5.4951   -7.1731 O   0  0  0  1  0  0  0  0  0  0  0  0
    6.1759    3.9952   -7.9143 O   0  5  0  1  0  0  0  0  0  0  0  0
    5.7142    6.0601   -9.1791 O   0  0  0  1  0  0  0  0  0  0  0  0
    5.9141    8.0838  -10.4544 C   0  0  0  1  0  0  0  0  0  0  0  0
    4.9836    7.0886   -9.8878 C   0  0  0  1  0  0  0  0  0  0  0  0
    4.3156    7.5770   -9.2095 H   0  0  0  1  0  0  0  0  0  0  0  0
    4.4225    6.6394  -10.6805 H   0  0  0  1  0  0  0  0  0  0  0  0
    6.8936    7.3754  -11.3967 C   0  0  0  1  0  0  0  0  0  0  0  0
    6.3539    6.7123  -12.0401 H   0  0  0  1  0  0  0  0  0  0  0  0
    7.6008    6.8160  -10.8207 H   0  0  0  1  0  0  0  0  0  0  0  0
    7.4098    8.1032  -11.9871 H   0  0  0  1  0  0  0  0  0  0  0  0
    6.6916    8.8123   -9.3451 C   0  0  0  1  0  0  0  0  0  0  0  0
    6.9245    8.1231   -8.5605 H   0  0  0  1  0  0  0  0  0  0  0  0
    6.0929    9.6084   -8.9542 H   0  0  0  1  0  0  0  0  0  0  0  0
    7.5982    9.2123   -9.7489 H   0  0  0  1  0  0  0  0  0  0  0  0
    5.1110    9.1020  -11.2713 C   0  0  0  1  0  0  0  0  0  0  0  0
    4.6312    8.5844  -12.0755 H   0  0  0  1  0  0  0  0  0  0  0  0
    4.1238    9.6012  -10.3628 O   0  0  0  1  0  0  0  0  0  0  0  0
    4.4682    9.5714   -9.4672 H   0  0  0  1  0  0  0  0  0  0  0  0
    5.9558   10.2111  -11.8486 C   0  0  0  1  0  0  0  0  0  0  0  0
    6.8532    9.9669  -12.6540 O   0  0  0  1  0  0  0  0  0  0  0  0
    5.6999   11.4632  -11.4591 N   0  0  0  1  0  0  0  0  0  0  0  0
    4.9954   11.6176  -10.7956 H   0  0  0  1  0  0  0  0  0  0  0  0
    6.4310   12.6060  -11.9860 C   0  0  0  1  0  0  0  0  0  0  0  0
    7.0579   12.2725  -12.7864 H   0  0  0  1  0  0  0  0  0  0  0  0
    7.0366   13.0154  -11.2047 H   0  0  0  1  0  0  0  0  0  0  0  0
    5.5102   13.6957  -12.5103 C   0  0  0  1  0  0  0  0  0  0  0  0
    6.1007   14.4168  -13.0359 H   0  0  0  1  0  0  0  0  0  0  0  0
    5.0303   14.1659  -11.6775 H   0  0  0  1  0  0  0  0  0  0  0  0
    4.4360   13.1670  -13.4543 C   0  0  0  1  0  0  0  0  0  0  0  0
    4.5943   12.0466  -13.9371 O   0  0  0  1  0  0  0  0  0  0  0  0
    3.3805   13.9457  -13.7082 N   0  0  0  1  0  0  0  0  0  0  0  0
    3.2909   14.7934  -13.2247 H   0  0  0  1  0  0  0  0  0  0  0  0
    2.3524   13.5764  -14.6841 C   0  0  0  1  0  0  0  0  0  0  0  0
    2.6125   12.6324  -15.1156 H   0  0  0  1  0  0  0  0  0  0  0  0
    2.3226   14.3231  -15.4499 H   0  0  0  1  0  0  0  0  0  0  0  0
    0.9671   13.4624  -14.0591 C   0  0  0  1  0  0  0  0  0  0  0  0
    0.2591   13.1388  -14.7931 H   0  0  0  1  0  0  0  0  0  0  0  0
    0.6642   14.4095  -13.6638 H   0  0  0  1  0  0  0  0  0  0  0  0
    1.0814   12.2431  -12.7282 S   0  0  0  1  0  0  0  0  0  0  0  0
    1.0077   10.7059  -13.6181 C   0  0  0  1  0  0  0  0  0  0  0  0
    0.8705   10.6349  -14.8142 O   0  0  0  1  0  0  0  0  0  0  0  0
    1.1365    9.5086  -12.7053 C   0  0  0  1  0  0  0  0  0  0  0  0
    1.3287    8.6330  -13.2896 H   0  0  0  1  0  0  0  0  0  0  0  0
    0.2267    9.3787  -12.1573 H   0  0  0  1  0  0  0  0  0  0  0  0
    1.9453    9.6661  -12.0227 H   0  0  0  1  0  0  0  0  0  0  0  0
  1  2  1  0  0  0  0
  1  7  2  0  0  0  0
  2  3  1  0  0  0  0
  2  4  2  0  0  0  0
  4  5  1  0  0  0  0
  5  6  2  0  0  0  0
  5 14  1  0  0  0  0
  6  7  1  0  0  0  0
  6 11  1  0  0  0  0
  7  8  1  0  0  0  0
  8  9  1  0  0  0  0
  8 10  1  0  0  0  0
 11 12  2  0  0  0  0
 12 13  1  0  0  0  0
 12 14  1  0  0  0  0
 14 15  1  0  0  0  0
 15 16  1  0  0  0  0
 15 17  1  0  0  0  0
 15 30  1  0  0  0  0
 17 18  1  0  0  0  0
 17 19  1  0  0  0  0
 17 21  1  0  0  0  0
 19 20  1  0  0  0  0
 21 22  1  0  0  0  0
 21 23  1  0  0  0  0
 21 28  1  0  0  0  0
 23 24  1  0  0  0  0
 24 25  1  0  0  0  0
 24 26  2  0  0  0  0
 24 27  1  0  0  0  0
 28 29  1  0  0  0  0
 28 30  1  0  0  0  0
 28 31  1  0  0  0  0
 31 32  1  0  0  0  0
 31 33  1  0  0  0  0
 31 34  1  0  0  0  0
 34 35  1  0  0  0  0
 35 36  1  0  0  0  0
 35 37  2  0  0  0  0
 35 38  1  0  0  0  0
 38 39  1  0  0  0  0
 39 40  2  0  0  0  0
 39 41  1  0  0  0  0
 39 42  1  0  0  0  0
 42 44  1  0  0  0  0
 43 44  1  0  0  0  0
 43 47  1  0  0  0  0
 43 51  1  0  0  0  0
 43 55  1  0  0  0  0
 44 45  1  0  0  0  0
 44 46  1  0  0  0  0
 47 48  1  0  0  0  0
 47 49  1  0  0  0  0
 47 50  1  0  0  0  0
 51 52  1  0  0  0  0
 51 53  1  0  0  0  0
 51 54  1  0  0  0  0
 55 56  1  0  0  0  0
 55 57  1  0  0  0  0
 55 59  1  0  0  0  0
 57 58  1  0  0  0  0
 59 60  2  0  0  0  0
 59 61  1  0  0  0  0
 61 62  1  0  0  0  0
 61 63  1  0  0  0  0
 63 64  1  0  0  0  0
 63 65  1  0  0  0  0
 63 66  1  0  0  0  0
 66 67  1  0  0  0  0
 66 68  1  0  0  0  0
 66 69  1  0  0  0  0
 69 70  2  0  0  0  0
 69 71  1  0  0  0  0
 71 72  1  0  0  0  0
 71 73  1  0  0  0  0
 73 74  1  0  0  0  0
 73 75  1  0  0  0  0
 73 76  1  0  0  0  0
 76 77  1  0  0  0  0
 76 78  1  0  0  0  0
 76 79  1  0  0  0  0
 79 80  1  0  0  0  0
 80 81  2  0  0  0  0
 80 82  1  0  0  0  0
 82 83  1  0  0  0  0
 82 84  1  0  0  0  0
 82 85  1  0  0  0  0
M  BCL ATM N_Tr2TrTrPi C_TrTrTrPi H_S N_Tr2TrTrPi C_TrTrTrPi C_TrTrTrPi C_TrTrTrPi N_TrTrTrPi2 H_S H_S N_Tr2TrTrPi C_TrTrTrPi H_S N_TrTrTrPi2 C_TeTeTeTe H_S C_TeTeTeTe H_S O_Te2Te2TeTe H_S C_TeTeTeTe H_S O_Tr2TrTrPi2 P_TeTeTeTePi O_Te2Te2TeTe O_Tr2Tr2TrPi O_Te2Te2Te2Te C_TeTeTeTe H_S O_Te2Te2TeTe C_TeTeTeTe H_S H_S O_Tr2TrTrPi2 P_TeTeTeTePi O_Te2Te2TeTe O_Tr2Tr2TrPi O_Tr2TrTrPi2 P_TeTeTeTePi O_Tr2Tr2TrPi O_Te2Te2Te2Te O_Tr2TrTrPi2 C_TeTeTeTe C_TeTeTeTe H_S H_S C_TeTeTeTe H_S H_S H_S C_TeTeTeTe H_S H_S H_S C_TeTeTeTe H_S O_Te2Te2TeTe H_S C_TrTrTrPi O_Tr2Tr2TrPi N_TrTrTrPi2 H_S C_TeTeTeTe H_S H_S C_TeTeTeTe H_S H_S C_TrTrTrPi O_Tr2Tr2TrPi N_TrTrTrPi2 H_S C_TeTeTeTe H_S H_S C_TeTeTeTe H_S H_S S_Te2Te2TeTe C_TrTrTrPi O_Tr2Tr2TrPi C_TeTeTeTe H_S H_S H_S
M  BCL BND AromaticSingleBond AromaticDoubleBond NonConjugatedSingleBond AromaticDoubleBond AromaticSingleBond AromaticDoubleBond AromaticSingleBond AromaticSingleBond AromaticSingleBond ConjugatedSingleBond NonConjugatedSingleBond NonConjugatedSingleBond AromaticDoubleBond NonConjugatedSingleBond AromaticSingleBond NonConjugatedSingleBond NonConjugatedSingleBond NonConjugatedSingleBondInRing NonConjugatedSingleBondInRing NonConjugatedSingleBond NonConjugatedSingleBond NonConjugatedSingleBondInRing NonConjugatedSingleBond NonConjugatedSingleBond NonConjugatedSingleBond NonConjugatedSingleBondInRing ConjugatedSingleBond ConjugatedSingleBond ConjugatedDoubleBond ConjugatedSingleBond NonConjugatedSingleBond NonConjugatedSingleBondInRing NonConjugatedSingleBond NonConjugatedSingleBond NonConjugatedSingleBond NonConjugatedSingleBond ConjugatedSingleBond ConjugatedSingleBond ConjugatedDoubleBond ConjugatedSingleBond ConjugatedSingleBond ConjugatedDoubleBond ConjugatedSingleBond ConjugatedSingleBond NonConjugatedSingleBond NonConjugatedSingleBond NonConjugatedSingleBond NonConjugatedSingleBond NonConjugatedSingleBond NonConjugatedSingleBond NonConjugatedSingleBond NonConjugatedSingleBond NonConjugatedSingleBond NonConjugatedSingleBond NonConjugatedSingleBond NonConjugatedSingleBond NonConjugatedSingleBond NonConjugatedSingleBond NonConjugatedSingleBond NonConjugatedSingleBond NonConjugatedSingleBond ConjugatedDoubleBond AmideSingleBond NonConjugatedSingleBond NonConjugatedSingleBond NonConjugatedSingleBond NonConjugatedSingleBond NonConjugatedSingleBond NonConjugatedSingleBond NonConjugatedSingleBond NonConjugatedSingleBond ConjugatedDoubleBond AmideSingleBond NonConjugatedSingleBond NonConjugatedSingleBond NonConjugatedSingleBond NonConjugatedSingleBond NonConjugatedSingleBond NonConjugatedSingleBond NonConjugatedSingleBond NonConjugatedSingleBond ConjugatedSingleBond ConjugatedDoubleBond NonConjugatedSingleBond NonConjugatedSingleBond NonConjugatedSingleBond NonConjugatedSingleBond
M  BCL CHI  15   S  17   S  21   S  24   S  28   R  35   R  39   R  55   S
M  BCL DBI - - - - - - - - - -
M  END
> <ConfClashScore>
0 

> <ConfOneFourInteractionScore>
-0.986785 

> <ConfScore>
-0.0249793 

> <ConfScorePBest>
0.0133475 

> <ConfTolerance>
2.5087 

$$$$
ACO.****
  PyMOL2.5          3D                             0

 85 87  0  0  0  0  0  0  0  0999 V2000
    4.8703    1.0618  -10.6525 N   0  0  0  1  0  0  0  0  0  0  0  0
    3.8359    1.9078  -10.5254 C   0  0  0  1  0  0  0  0  0  0  0  0
    3.8112    2.6935  -11.2063 H   0  0  0  1  0  0  0  0  0  0  0  0
    2.8402    1.8769   -9.6481 N   0  0  0  1  0  0  0  0  0  0  0  0
    2.9524    0.8352   -8.8227 C   0  0  0  1  0  0  0  0  0  0  0  0
    3.9688   -0.1295   -8.8251 C   0  0  0  1  0  0  0  0  0  0  0  0
    4.9509    0.0368   -9.7971 C   0  0  0  1  0  0  0  0  0  0  0  0
    6.0881   -0.7653   -9.8926 N   0  0  0  1  0  0  0  0  0  0  0  0
    6.7948   -0.5393  -10.5328 H   0  0  0  1  0  0  0  0  0  0  0  0
    6.1803   -1.5549   -9.3195 H   0  0  0  1  0  0  0  0  0  0  0  0
    3.7580   -1.0518   -7.8120 N   0  0  0  1  0  0  0  0  0  0  0  0
    2.6569   -0.6381   -7.2461 C   0  0  0  1  0  0  0  0  0  0  0  0
    2.2229   -1.1315   -6.4400 H   0  0  0  1  0  0  0  0  0  0  0  0
    2.1195    0.4877   -7.7906 N   0  0  0  1  0  0  0  0  0  0  0  0
    0.9029    1.1848   -7.3631 C   0  0  0  1  0  0  0  0  0  0  0  0
    0.5930    1.8647   -8.1289 H   0  0  0  1  0  0  0  0  0  0  0  0
   -0.2247    0.1759   -7.0291 C   0  0  0  1  0  0  0  0  0  0  0  0
    0.1656   -0.6992   -6.5530 H   0  0  0  1  0  0  0  0  0  0  0  0
   -0.9470   -0.2015   -8.2022 O   0  0  0  1  0  0  0  0  0  0  0  0
   -1.8740   -0.3210   -7.9831 H   0  0  0  1  0  0  0  0  0  0  0  0
   -1.1156    0.9952   -6.0584 C   0  0  0  1  0  0  0  0  0  0  0  0
   -1.4693    0.3808   -5.2570 H   0  0  0  1  0  0  0  0  0  0  0  0
   -2.2458    1.5735   -6.7603 O   0  0  0  1  0  0  0  0  0  0  0  0
   -3.7327    0.8877   -6.6689 P   0  0  0  1  0  0  0  0  0  0  0  0
   -3.5872   -0.7072   -7.0222 O   0  0  0  0  0  0  0  0  0  0  0  0
   -4.2718    1.2219   -5.3317 O   0  0  0  1  0  0  0  0  0  0  0  0
   -4.5955    1.7162   -7.7614 O   0  5  0  1  0  0  0  0  0  0  0  0
   -0.1770    2.0975   -5.5300 C   0  0  0  1  0  0  0  0  0  0  0  0
   -0.5474    3.0603   -5.8144 H   0  0  0  1  0  0  0  0  0  0  0  0
    1.1169    1.8769   -6.1147 O   0  0  0  1  0  0  0  0  0  0  0  0
   -0.0845    2.0187   -4.0417 C   0  0  0  1  0  0  0  0  0  0  0  0
    0.5458    2.8012   -3.6738 H   0  0  0  1  0  0  0  0  0  0  0  0
    0.3170    1.0703   -3.7512 H   0  0  0  1  0  0  0  0  0  0  0  0
   -1.4244    2.1719   -3.5084 O   0  0  0  1  0  0  0  0  0  0  0  0
   -1.6804    2.1921   -1.9361 P   0  0  0  1  0  0  0  0  0  0  0  0
   -1.2410    0.9257   -1.3010 O   0  0  0  0  0  0  0  0  0  0  0  0
   -3.0418    2.6906   -1.6723 O   0  0  0  1  0  0  0  0  0  0  0  0
   -0.6191    3.3511   -1.6097 O   0  0  0  1  0  0  0  0  0  0  0  0
   -0.2312    4.1397   -0.2250 P   0  0  0  1  0  0  0  0  0  0  0  0
   -0.8625    5.4409    0.0890 O   0  0  0  1  0  0  0  0  0  0  0  0
   -0.4404    3.1758    1.0601 O   0  5  0  1  0  0  0  0  0  0  0  0
    1.3348    4.3114   -0.1520 O   0  0  0  1  0  0  0  0  0  0  0  0
    2.8488    3.9809    1.6466 C   0  0  0  1  0  0  0  0  0  0  0  0
    1.8527    4.9221    1.0534 C   0  0  0  1  0  0  0  0  0  0  0  0
    1.0557    5.0935    1.7464 H   0  0  0  1  0  0  0  0  0  0  0  0
    2.3261    5.8519    0.8163 H   0  0  0  1  0  0  0  0  0  0  0  0
    2.2165    2.5969    1.8152 C   0  0  0  1  0  0  0  0  0  0  0  0
    1.8661    2.2463    0.8669 H   0  0  0  1  0  0  0  0  0  0  0  0
    1.3946    2.6612    2.4973 H   0  0  0  1  0  0  0  0  0  0  0  0
    2.9469    1.9157    2.1992 H   0  0  0  1  0  0  0  0  0  0  0  0
    3.2822    4.5594    3.0001 C   0  0  0  1  0  0  0  0  0  0  0  0
    2.4243    4.6801    3.6281 H   0  0  0  1  0  0  0  0  0  0  0  0
    3.7494    5.5100    2.8483 H   0  0  0  1  0  0  0  0  0  0  0  0
    3.9751    3.8915    3.4678 H   0  0  0  1  0  0  0  0  0  0  0  0
    4.0774    3.8436    0.7412 C   0  0  0  1  0  0  0  0  0  0  0  0
    3.7482    3.4569   -0.2006 H   0  0  0  1  0  0  0  0  0  0  0  0
    4.7440    5.0652    0.5390 O   0  0  0  1  0  0  0  0  0  0  0  0
    4.7943    5.2509   -0.4016 H   0  0  0  1  0  0  0  0  0  0  0  0
    5.0819    2.8631    1.3249 C   0  0  0  1  0  0  0  0  0  0  0  0
    4.8231    1.6640    1.4190 O   0  0  0  1  0  0  0  0  0  0  0  0
    6.2499    3.3922    1.7224 N   0  0  0  1  0  0  0  0  0  0  0  0
    6.4191    4.3432    1.5568 H   0  0  0  1  0  0  0  0  0  0  0  0
    7.2736    2.6027    2.3906 C   0  0  0  1  0  0  0  0  0  0  0  0
    8.2293    3.0573    2.2326 H   0  0  0  1  0  0  0  0  0  0  0  0
    7.2774    1.6128    1.9842 H   0  0  0  1  0  0  0  0  0  0  0  0
    6.9927    2.5312    3.8826 C   0  0  0  1  0  0  0  0  0  0  0  0
    7.7484    1.9297    4.3430 H   0  0  0  1  0  0  0  0  0  0  0  0
    6.0357    2.0752    4.0276 H   0  0  0  1  0  0  0  0  0  0  0  0
    6.9851    3.8920    4.5514 C   0  0  0  1  0  0  0  0  0  0  0  0
    6.1431    4.7297    4.2728 O   0  0  0  1  0  0  0  0  0  0  0  0
    7.9543    4.1028    5.4551 N   0  0  0  1  0  0  0  0  0  0  0  0
    8.5469    3.3676    5.7170 H   0  0  0  1  0  0  0  0  0  0  0  0
    8.1272    5.4199    6.0465 C   0  0  0  1  0  0  0  0  0  0  0  0
    7.6842    6.1474    5.3988 H   0  0  0  1  0  0  0  0  0  0  0  0
    9.1744    5.6178    6.1426 H   0  0  0  1  0  0  0  0  0  0  0  0
    7.4860    5.5316    7.4107 C   0  0  0  1  0  0  0  0  0  0  0  0
    7.9558    4.8474    8.0859 H   0  0  0  1  0  0  0  0  0  0  0  0
    6.4434    5.3022    7.3378 H   0  0  0  1  0  0  0  0  0  0  0  0
    7.6954    7.2230    8.0157 S   0  0  0  1  0  0  0  0  0  0  0  0
    6.1856    7.9500    7.4220 C   0  0  0  1  0  0  0  0  0  0  0  0
    5.4085    7.3751    6.6933 O   0  0  0  1  0  0  0  0  0  0  0  0
    5.9893    9.3592    7.9308 C   0  0  0  1  0  0  0  0  0  0  0  0
    5.2306    9.3641    8.6853 H   0  0  0  1  0  0  0  0  0  0  0  0
    5.6909    9.9921    7.1212 H   0  0  0  1  0  0  0  0  0  0  0  0
    6.9073    9.7194    8.3461 H   0  0  0  1  0  0  0  0  0  0  0  0
  1  2  1  0  0  0  0
  1  7  2  0  0  0  0
  2  3  1  0  0  0  0
  2  4  2  0  0  0  0
  4  5  1  0  0  0  0
  5  6  2  0  0  0  0
  5 14  1  0  0  0  0
  6  7  1  0  0  0  0
  6 11  1  0  0  0  0
  7  8  1  0  0  0  0
  8  9  1  0  0  0  0
  8 10  1  0  0  0  0
 11 12  2  0  0  0  0
 12 13  1  0  0  0  0
 12 14  1  0  0  0  0
 14 15  1  0  0  0  0
 15 16  1  0  0  0  0
 15 17  1  0  0  0  0
 15 30  1  0  0  0  0
 17 18  1  0  0  0  0
 17 19  1  0  0  0  0
 17 21  1  0  0  0  0
 19 20  1  0  0  0  0
 21 22  1  0  0  0  0
 21 23  1  0  0  0  0
 21 28  1  0  0  0  0
 23 24  1  0  0  0  0
 24 25  1  0  0  0  0
 24 26  2  0  0  0  0
 24 27  1  0  0  0  0
 28 29  1  0  0  0  0
 28 30  1  0  0  0  0
 28 31  1  0  0  0  0
 31 32  1  0  0  0  0
 31 33  1  0  0  0  0
 31 34  1  0  0  0  0
 34 35  1  0  0  0  0
 35 36  1  0  0  0  0
 35 37  2  0  0  0  0
 35 38  1  0  0  0  0
 38 39  1  0  0  0  0
 39 40  2  0  0  0  0
 39 41  1  0  0  0  0
 39 42  1  0  0  0  0
 42 44  1  0  0  0  0
 43 44  1  0  0  0  0
 43 47  1  0  0  0  0
 43 51  1  0  0  0  0
 43 55  1  0  0  0  0
 44 45  1  0  0  0  0
 44 46  1  0  0  0  0
 47 48  1  0  0  0  0
 47 49  1  0  0  0  0
 47 50  1  0  0  0  0
 51 52  1  0  0  0  0
 51 53  1  0  0  0  0
 51 54  1  0  0  0  0
 55 56  1  0  0  0  0
 55 57  1  0  0  0  0
 55 59  1  0  0  0  0
 57 58  1  0  0  0  0
 59 60  2  0  0  0  0
 59 61  1  0  0  0  0
 61 62  1  0  0  0  0
 61 63  1  0  0  0  0
 63 64  1  0  0  0  0
 63 65  1  0  0  0  0
 63 66  1  0  0  0  0
 66 67  1  0  0  0  0
 66 68  1  0  0  0  0
 66 69  1  0  0  0  0
 69 70  2  0  0  0  0
 69 71  1  0  0  0  0
 71 72  1  0  0  0  0
 71 73  1  0  0  0  0
 73 74  1  0  0  0  0
 73 75  1  0  0  0  0
 73 76  1  0  0  0  0
 76 77  1  0  0  0  0
 76 78  1  0  0  0  0
 76 79  1  0  0  0  0
 79 80  1  0  0  0  0
 80 81  2  0  0  0  0
 80 82  1  0  0  0  0
 82 83  1  0  0  0  0
 82 84  1  0  0  0  0
 82 85  1  0  0  0  0
M  BCL ATM N_Tr2TrTrPi C_TrTrTrPi H_S N_Tr2TrTrPi C_TrTrTrPi C_TrTrTrPi C_TrTrTrPi N_TrTrTrPi2 H_S H_S N_Tr2TrTrPi C_TrTrTrPi H_S N_TrTrTrPi2 C_TeTeTeTe H_S C_TeTeTeTe H_S O_Te2Te2TeTe H_S C_TeTeTeTe H_S O_Tr2TrTrPi2 P_TeTeTeTePi O_Te2Te2TeTe O_Tr2Tr2TrPi O_Te2Te2Te2Te C_TeTeTeTe H_S O_Te2Te2TeTe C_TeTeTeTe H_S H_S O_Tr2TrTrPi2 P_TeTeTeTePi O_Te2Te2TeTe O_Tr2Tr2TrPi O_Tr2TrTrPi2 P_TeTeTeTePi O_Tr2Tr2TrPi O_Te2Te2Te2Te O_Tr2TrTrPi2 C_TeTeTeTe C_TeTeTeTe H_S H_S C_TeTeTeTe H_S H_S H_S C_TeTeTeTe H_S H_S H_S C_TeTeTeTe H_S O_Te2Te2TeTe H_S C_TrTrTrPi O_Tr2Tr2TrPi N_TrTrTrPi2 H_S C_TeTeTeTe H_S H_S C_TeTeTeTe H_S H_S C_TrTrTrPi O_Tr2Tr2TrPi N_TrTrTrPi2 H_S C_TeTeTeTe H_S H_S C_TeTeTeTe H_S H_S S_Te2Te2TeTe C_TrTrTrPi O_Tr2Tr2TrPi C_TeTeTeTe H_S H_S H_S
M  BCL BND AromaticSingleBond AromaticDoubleBond NonConjugatedSingleBond AromaticDoubleBond AromaticSingleBond AromaticDoubleBond AromaticSingleBond AromaticSingleBond AromaticSingleBond ConjugatedSingleBond NonConjugatedSingleBond NonConjugatedSingleBond AromaticDoubleBond NonConjugatedSingleBond AromaticSingleBond NonConjugatedSingleBond NonConjugatedSingleBond NonConjugatedSingleBondInRing NonConjugatedSingleBondInRing NonConjugatedSingleBond NonConjugatedSingleBond NonConjugatedSingleBondInRing NonConjugatedSingleBond NonConjugatedSingleBond NonConjugatedSingleBond NonConjugatedSingleBondInRing ConjugatedSingleBond ConjugatedSingleBond ConjugatedDoubleBond ConjugatedSingleBond NonConjugatedSingleBond NonConjugatedSingleBondInRing NonConjugatedSingleBond NonConjugatedSingleBond NonConjugatedSingleBond NonConjugatedSingleBond ConjugatedSingleBond ConjugatedSingleBond ConjugatedDoubleBond ConjugatedSingleBond ConjugatedSingleBond ConjugatedDoubleBond ConjugatedSingleBond ConjugatedSingleBond NonConjugatedSingleBond NonConjugatedSingleBond NonConjugatedSingleBond NonConjugatedSingleBond NonConjugatedSingleBond NonConjugatedSingleBond NonConjugatedSingleBond NonConjugatedSingleBond NonConjugatedSingleBond NonConjugatedSingleBond NonConjugatedSingleBond NonConjugatedSingleBond NonConjugatedSingleBond NonConjugatedSingleBond NonConjugatedSingleBond NonConjugatedSingleBond NonConjugatedSingleBond ConjugatedDoubleBond AmideSingleBond NonConjugatedSingleBond NonConjugatedSingleBond NonConjugatedSingleBond NonConjugatedSingleBond NonConjugatedSingleBond NonConjugatedSingleBond NonConjugatedSingleBond NonConjugatedSingleBond ConjugatedDoubleBond AmideSingleBond NonConjugatedSingleBond NonConjugatedSingleBond NonConjugatedSingleBond NonConjugatedSingleBond NonConjugatedSingleBond NonConjugatedSingleBond NonConjugatedSingleBond NonConjugatedSingleBond ConjugatedSingleBond ConjugatedDoubleBond NonConjugatedSingleBond NonConjugatedSingleBond NonConjugatedSingleBond NonConjugatedSingleBond
M  BCL CHI  15   S  17   S  21   S  24   S  28   R  35   R  39   R  55   S
M  BCL DBI - - - - - - - - - -
M  END
> <ConfClashScore>
0 

> <ConfOneFourInteractionScore>
-0.984951 

> <ConfScore>
-0.023014 

> <ConfScorePBest>
0.0132445 

> <ConfTolerance>
2.27673 

$$$$
ACO.****
  PyMOL2.5          3D                             0

 85 87  0  0  0  0  0  0  0  0999 V2000
    4.8885    1.0776  -10.6431 N   0  0  0  1  0  0  0  0  0  0  0  0
    3.8354    1.9037  -10.5402 C   0  0  0  1  0  0  0  0  0  0  0  0
    3.8049    2.6817  -11.2296 H   0  0  0  1  0  0  0  0  0  0  0  0
    2.8277    1.8616   -9.6772 N   0  0  0  1  0  0  0  0  0  0  0  0
    2.9486    0.8310   -8.8392 C   0  0  0  1  0  0  0  0  0  0  0  0
    3.9842   -0.1128   -8.8165 C   0  0  0  1  0  0  0  0  0  0  0  0
    4.9770    0.0634   -9.7758 C   0  0  0  1  0  0  0  0  0  0  0  0
    6.0728   -0.7672   -9.8860 N   0  0  0  1  0  0  0  0  0  0  0  0
    6.7298   -0.6197  -10.5981 H   0  0  0  1  0  0  0  0  0  0  0  0
    6.1943   -1.5048   -9.2524 H   0  0  0  1  0  0  0  0  0  0  0  0
    3.7771   -1.0287   -7.7969 N   0  0  0  1  0  0  0  0  0  0  0  0
    2.6596   -0.6317   -7.2516 C   0  0  0  1  0  0  0  0  0  0  0  0
    2.2237   -1.1254   -6.4467 H   0  0  0  1  0  0  0  0  0  0  0  0
    2.1076    0.4773   -7.8158 N   0  0  0  1  0  0  0  0  0  0  0  0
    0.9218    1.1681   -7.3049 C   0  0  0  1  0  0  0  0  0  0  0  0
    0.5392    0.6407   -6.4561 H   0  0  0  1  0  0  0  0  0  0  0  0
    1.2510    2.6378   -6.9411 C   0  0  0  1  0  0  0  0  0  0  0  0
    1.9421    3.0648   -7.6374 H   0  0  0  1  0  0  0  0  0  0  0  0
    1.7834    2.7382   -5.6176 O   0  0  0  1  0  0  0  0  0  0  0  0
    1.0671    2.8770   -4.9937 H   0  0  0  1  0  0  0  0  0  0  0  0
   -0.1408    3.3161   -7.0411 C   0  0  0  1  0  0  0  0  0  0  0  0
   -0.0604    4.2843   -7.4895 H   0  0  0  1  0  0  0  0  0  0  0  0
   -0.7470    3.4381   -5.7361 O   0  0  0  1  0  0  0  0  0  0  0  0
   -1.9008    4.5489   -5.3834 P   0  0  0  1  0  0  0  0  0  0  0  0
   -1.2329    6.0268   -5.6266 O   0  0  0  0  0  0  0  0  0  0  0  0
   -3.0613    4.4135   -6.2918 O   0  0  0  1  0  0  0  0  0  0  0  0
   -2.2755    4.4665   -3.8095 O   0  5  0  1  0  0  0  0  0  0  0  0
   -0.9570    2.3640   -7.9370 C   0  0  0  1  0  0  0  0  0  0  0  0
   -1.7914    1.9746   -7.3920 H   0  0  0  1  0  0  0  0  0  0  0  0
   -0.0851    1.2921   -8.3316 O   0  0  0  1  0  0  0  0  0  0  0  0
   -1.4411    3.0852   -9.1299 C   0  0  0  1  0  0  0  0  0  0  0  0
   -2.0315    2.4222   -9.7271 H   0  0  0  1  0  0  0  0  0  0  0  0
   -0.6022    3.4274   -9.6993 H   0  0  0  1  0  0  0  0  0  0  0  0
   -2.2496    4.2241   -8.7394 O   0  0  0  1  0  0  0  0  0  0  0  0
   -3.1525    5.0326   -9.7551 P   0  0  0  1  0  0  0  0  0  0  0  0
   -2.2766    5.3020  -10.9190 O   0  0  0  0  0  0  0  0  0  0  0  0
   -3.8304    6.1557   -9.0815 O   0  0  0  1  0  0  0  0  0  0  0  0
   -4.2220    3.9392  -10.2468 O   0  0  0  1  0  0  0  0  0  0  0  0
   -5.3266    3.9376  -11.4590 P   0  0  0  1  0  0  0  0  0  0  0  0
   -5.1137    2.8355  -12.4236 O   0  0  0  1  0  0  0  0  0  0  0  0
   -6.8343    4.0118  -10.8711 O   0  5  0  1  0  0  0  0  0  0  0  0
   -5.0650    5.2318  -12.3307 O   0  0  0  1  0  0  0  0  0  0  0  0
   -5.0791    7.5987  -12.7299 C   0  0  0  1  0  0  0  0  0  0  0  0
   -5.4021    6.5234  -11.7723 C   0  0  0  1  0  0  0  0  0  0  0  0
   -4.8442    6.6744  -10.8718 H   0  0  0  1  0  0  0  0  0  0  0  0
   -6.4489    6.5500  -11.5526 H   0  0  0  1  0  0  0  0  0  0  0  0
   -5.7365    7.3543  -14.0927 C   0  0  0  1  0  0  0  0  0  0  0  0
   -5.4179    6.4085  -14.4784 H   0  0  0  1  0  0  0  0  0  0  0  0
   -5.4500    8.1307  -14.7710 H   0  0  0  1  0  0  0  0  0  0  0  0
   -6.8005    7.3531  -13.9800 H   0  0  0  1  0  0  0  0  0  0  0  0
   -3.5657    7.7081  -12.9302 C   0  0  0  1  0  0  0  0  0  0  0  0
   -3.3490    8.5399  -13.5675 H   0  0  0  1  0  0  0  0  0  0  0  0
   -3.2000    6.8091  -13.3808 H   0  0  0  1  0  0  0  0  0  0  0  0
   -3.0902    7.8517  -11.9825 H   0  0  0  1  0  0  0  0  0  0  0  0
   -5.6043    8.9053  -12.1288 C   0  0  0  1  0  0  0  0  0  0  0  0
   -5.5095    9.6651  -12.8761 H   0  0  0  1  0  0  0  0  0  0  0  0
   -6.9776    8.7151  -11.8357 O   0  0  0  1  0  0  0  0  0  0  0  0
   -7.3849    8.1951  -12.5323 H   0  0  0  1  0  0  0  0  0  0  0  0
   -4.8241    9.3583  -10.9086 C   0  0  0  1  0  0  0  0  0  0  0  0
   -3.6576    9.6981  -10.9869 O   0  0  0  1  0  0  0  0  0  0  0  0
   -5.5404    9.3424   -9.7741 N   0  0  0  1  0  0  0  0  0  0  0  0
   -6.4899    9.1040   -9.8176 H   0  0  0  1  0  0  0  0  0  0  0  0
   -4.9562    9.6669   -8.4814 C   0  0  0  1  0  0  0  0  0  0  0  0
   -4.5306   10.6467   -8.5445 H   0  0  0  1  0  0  0  0  0  0  0  0
   -4.1843    8.9548   -8.2763 H   0  0  0  1  0  0  0  0  0  0  0  0
   -5.9362    9.6505   -7.3197 C   0  0  0  1  0  0  0  0  0  0  0  0
   -6.3639   10.6276   -7.2348 H   0  0  0  1  0  0  0  0  0  0  0  0
   -5.3888    9.4215   -6.4293 H   0  0  0  1  0  0  0  0  0  0  0  0
   -7.0790    8.6450   -7.4417 C   0  0  0  1  0  0  0  0  0  0  0  0
   -7.8331    8.6640   -8.4005 O   0  0  0  1  0  0  0  0  0  0  0  0
   -7.2243    7.8251   -6.3996 N   0  0  0  1  0  0  0  0  0  0  0  0
   -6.6552    7.9552   -5.6125 H   0  0  0  1  0  0  0  0  0  0  0  0
   -8.2051    6.7368   -6.3909 C   0  0  0  1  0  0  0  0  0  0  0  0
   -7.7063    5.8137   -6.1811 H   0  0  0  1  0  0  0  0  0  0  0  0
   -8.6761    6.6783   -7.3499 H   0  0  0  1  0  0  0  0  0  0  0  0
   -9.2616    6.9890   -5.3277 C   0  0  0  1  0  0  0  0  0  0  0  0
   -9.6972    7.9528   -5.4896 H   0  0  0  1  0  0  0  0  0  0  0  0
   -8.7996    6.9634   -4.3629 H   0  0  0  1  0  0  0  0  0  0  0  0
  -10.5627    5.7344   -5.3929 S   0  0  0  1  0  0  0  0  0  0  0  0
   -9.7141    4.2847   -4.8374 C   0  0  0  1  0  0  0  0  0  0  0  0
   -8.5845    4.2395   -4.4505 O   0  0  0  1  0  0  0  0  0  0  0  0
  -10.6100    3.0561   -4.9076 C   0  0  0  1  0  0  0  0  0  0  0  0
  -10.0252    2.1772   -4.7329 H   0  0  0  1  0  0  0  0  0  0  0  0
  -11.0599    2.9980   -5.8767 H   0  0  0  1  0  0  0  0  0  0  0  0
  -11.3745    3.1294   -4.1627 H   0  0  0  1  0  0  0  0  0  0  0  0
  1  2  1  0  0  0  0
  1  7  2  0  0  0  0
  2  3  1  0  0  0  0
  2  4  2  0  0  0  0
  4  5  1  0  0  0  0
  5  6  2  0  0  0  0
  5 14  1  0  0  0  0
  6  7  1  0  0  0  0
  6 11  1  0  0  0  0
  7  8  1  0  0  0  0
  8  9  1  0  0  0  0
  8 10  1  0  0  0  0
 11 12  2  0  0  0  0
 12 13  1  0  0  0  0
 12 14  1  0  0  0  0
 14 15  1  0  0  0  0
 15 16  1  0  0  0  0
 15 17  1  0  0  0  0
 15 30  1  0  0  0  0
 17 18  1  0  0  0  0
 17 19  1  0  0  0  0
 17 21  1  0  0  0  0
 19 20  1  0  0  0  0
 21 22  1  0  0  0  0
 21 23  1  0  0  0  0
 21 28  1  0  0  0  0
 23 24  1  0  0  0  0
 24 25  1  0  0  0  0
 24 26  2  0  0  0  0
 24 27  1  0  0  0  0
 28 29  1  0  0  0  0
 28 30  1  0  0  0  0
 28 31  1  0  0  0  0
 31 32  1  0  0  0  0
 31 33  1  0  0  0  0
 31 34  1  0  0  0  0
 34 35  1  0  0  0  0
 35 36  1  0  0  0  0
 35 37  2  0  0  0  0
 35 38  1  0  0  0  0
 38 39  1  0  0  0  0
 39 40  2  0  0  0  0
 39 41  1  0  0  0  0
 39 42  1  0  0  0  0
 42 44  1  0  0  0  0
 43 44  1  0  0  0  0
 43 47  1  0  0  0  0
 43 51  1  0  0  0  0
 43 55  1  0  0  0  0
 44 45  1  0  0  0  0
 44 46  1  0  0  0  0
 47 48  1  0  0  0  0
 47 49  1  0  0  0  0
 47 50  1  0  0  0  0
 51 52  1  0  0  0  0
 51 53  1  0  0  0  0
 51 54  1  0  0  0  0
 55 56  1  0  0  0  0
 55 57  1  0  0  0  0
 55 59  1  0  0  0  0
 57 58  1  0  0  0  0
 59 60  2  0  0  0  0
 59 61  1  0  0  0  0
 61 62  1  0  0  0  0
 61 63  1  0  0  0  0
 63 64  1  0  0  0  0
 63 65  1  0  0  0  0
 63 66  1  0  0  0  0
 66 67  1  0  0  0  0
 66 68  1  0  0  0  0
 66 69  1  0  0  0  0
 69 70  2  0  0  0  0
 69 71  1  0  0  0  0
 71 72  1  0  0  0  0
 71 73  1  0  0  0  0
 73 74  1  0  0  0  0
 73 75  1  0  0  0  0
 73 76  1  0  0  0  0
 76 77  1  0  0  0  0
 76 78  1  0  0  0  0
 76 79  1  0  0  0  0
 79 80  1  0  0  0  0
 80 81  2  0  0  0  0
 80 82  1  0  0  0  0
 82 83  1  0  0  0  0
 82 84  1  0  0  0  0
 82 85  1  0  0  0  0
M  BCL ATM N_Tr2TrTrPi C_TrTrTrPi H_S N_Tr2TrTrPi C_TrTrTrPi C_TrTrTrPi C_TrTrTrPi N_TrTrTrPi2 H_S H_S N_Tr2TrTrPi C_TrTrTrPi H_S N_TrTrTrPi2 C_TeTeTeTe H_S C_TeTeTeTe H_S O_Te2Te2TeTe H_S C_TeTeTeTe H_S O_Tr2TrTrPi2 P_TeTeTeTePi O_Te2Te2TeTe O_Tr2Tr2TrPi O_Te2Te2Te2Te C_TeTeTeTe H_S O_Te2Te2TeTe C_TeTeTeTe H_S H_S O_Tr2TrTrPi2 P_TeTeTeTePi O_Te2Te2TeTe O_Tr2Tr2TrPi O_Tr2TrTrPi2 P_TeTeTeTePi O_Tr2Tr2TrPi O_Te2Te2Te2Te O_Tr2TrTrPi2 C_TeTeTeTe C_TeTeTeTe H_S H_S C_TeTeTeTe H_S H_S H_S C_TeTeTeTe H_S H_S H_S C_TeTeTeTe H_S O_Te2Te2TeTe H_S C_TrTrTrPi O_Tr2Tr2TrPi N_TrTrTrPi2 H_S C_TeTeTeTe H_S H_S C_TeTeTeTe H_S H_S C_TrTrTrPi O_Tr2Tr2TrPi N_TrTrTrPi2 H_S C_TeTeTeTe H_S H_S C_TeTeTeTe H_S H_S S_Te2Te2TeTe C_TrTrTrPi O_Tr2Tr2TrPi C_TeTeTeTe H_S H_S H_S
M  BCL BND AromaticSingleBond AromaticDoubleBond NonConjugatedSingleBond AromaticDoubleBond AromaticSingleBond AromaticDoubleBond AromaticSingleBond AromaticSingleBond AromaticSingleBond ConjugatedSingleBond NonConjugatedSingleBond NonConjugatedSingleBond AromaticDoubleBond NonConjugatedSingleBond AromaticSingleBond NonConjugatedSingleBond NonConjugatedSingleBond NonConjugatedSingleBondInRing NonConjugatedSingleBondInRing NonConjugatedSingleBond NonConjugatedSingleBond NonConjugatedSingleBondInRing NonConjugatedSingleBond NonConjugatedSingleBond NonConjugatedSingleBond NonConjugatedSingleBondInRing ConjugatedSingleBond ConjugatedSingleBond ConjugatedDoubleBond ConjugatedSingleBond NonConjugatedSingleBond NonConjugatedSingleBondInRing NonConjugatedSingleBond NonConjugatedSingleBond NonConjugatedSingleBond NonConjugatedSingleBond ConjugatedSingleBond ConjugatedSingleBond ConjugatedDoubleBond ConjugatedSingleBond ConjugatedSingleBond ConjugatedDoubleBond ConjugatedSingleBond ConjugatedSingleBond NonConjugatedSingleBond NonConjugatedSingleBond NonConjugatedSingleBond NonConjugatedSingleBond NonConjugatedSingleBond NonConjugatedSingleBond NonConjugatedSingleBond NonConjugatedSingleBond NonConjugatedSingleBond NonConjugatedSingleBond NonConjugatedSingleBond NonConjugatedSingleBond NonConjugatedSingleBond NonConjugatedSingleBond NonConjugatedSingleBond NonConjugatedSingleBond NonConjugatedSingleBond ConjugatedDoubleBond AmideSingleBond NonConjugatedSingleBond NonConjugatedSingleBond NonConjugatedSingleBond NonConjugatedSingleBond NonConjugatedSingleBond NonConjugatedSingleBond NonConjugatedSingleBond NonConjugatedSingleBond ConjugatedDoubleBond AmideSingleBond NonConjugatedSingleBond NonConjugatedSingleBond NonConjugatedSingleBond NonConjugatedSingleBond NonConjugatedSingleBond NonConjugatedSingleBond NonConjugatedSingleBond NonConjugatedSingleBond ConjugatedSingleBond ConjugatedDoubleBond NonConjugatedSingleBond NonConjugatedSingleBond NonConjugatedSingleBond NonConjugatedSingleBond
M  BCL CHI  15   S  17   S  21   S  24   S  28   R  35   R  39   R  55   S
M  BCL DBI - - - - - - - - - -
M  END
> <ConfClashScore>
0 

> <ConfOneFourInteractionScore>
-0.982155 

> <ConfScore>
-0.0200571 

> <ConfScorePBest>
0.0131415 

> <ConfTolerance>
2.43572 

$$$$
ACO.****
  PyMOL2.5          3D                             0

 85 87  0  0  0  0  0  0  0  0999 V2000
    4.8905    1.0447  -10.6141 N   0  0  0  1  0  0  0  0  0  0  0  0
    3.8512    1.8880  -10.5107 C   0  0  0  1  0  0  0  0  0  0  0  0
    3.8309    2.6639  -11.2030 H   0  0  0  1  0  0  0  0  0  0  0  0
    2.8460    1.8654   -9.6442 N   0  0  0  1  0  0  0  0  0  0  0  0
    2.9532    0.8362   -8.8027 C   0  0  0  1  0  0  0  0  0  0  0  0
    3.9736   -0.1241   -8.7800 C   0  0  0  1  0  0  0  0  0  0  0  0
    4.9658    0.0325   -9.7433 C   0  0  0  1  0  0  0  0  0  0  0  0
    6.0958   -0.7669   -9.9391 N   0  0  0  1  0  0  0  0  0  0  0  0
    6.2603   -1.5348   -9.3529 H   0  0  0  1  0  0  0  0  0  0  0  0
    6.7234   -0.5594  -10.6625 H   0  0  0  1  0  0  0  0  0  0  0  0
    3.7553   -1.0328   -7.7561 N   0  0  0  1  0  0  0  0  0  0  0  0
    2.6462   -0.6157   -7.2086 C   0  0  0  1  0  0  0  0  0  0  0  0
    2.2053   -1.0994   -6.4003 H   0  0  0  1  0  0  0  0  0  0  0  0
    2.1103    0.4999   -7.7750 N   0  0  0  1  0  0  0  0  0  0  0  0
    0.8452    1.1765   -7.4815 C   0  0  0  1  0  0  0  0  0  0  0  0
    0.9566    2.2282   -7.6441 H   0  0  0  1  0  0  0  0  0  0  0  0
   -0.3041    0.6013   -8.3470 C   0  0  0  1  0  0  0  0  0  0  0  0
   -0.2032   -0.4564   -8.4733 H   0  0  0  1  0  0  0  0  0  0  0  0
   -0.3542    1.2325   -9.6293 O   0  0  0  1  0  0  0  0  0  0  0  0
   -1.1177    1.8129   -9.6712 H   0  0  0  1  0  0  0  0  0  0  0  0
   -1.5550    0.9503   -7.4983 C   0  0  0  1  0  0  0  0  0  0  0  0
   -2.2607    0.1462   -7.5130 H   0  0  0  1  0  0  0  0  0  0  0  0
   -2.1889    2.1598   -7.9880 O   0  0  0  1  0  0  0  0  0  0  0  0
   -3.7935    2.2641   -8.3104 P   0  0  0  1  0  0  0  0  0  0  0  0
   -4.0260    3.6341   -9.1814 O   0  0  0  0  0  0  0  0  0  0  0  0
   -4.4523    1.1083   -8.9588 O   0  0  0  1  0  0  0  0  0  0  0  0
   -4.6204    2.5162   -6.9404 O   0  5  0  1  0  0  0  0  0  0  0  0
   -0.9957    1.1620   -6.0778 C   0  0  0  1  0  0  0  0  0  0  0  0
   -1.1737    2.1684   -5.7611 H   0  0  0  1  0  0  0  0  0  0  0  0
    0.4173    0.9062   -6.1298 O   0  0  0  1  0  0  0  0  0  0  0  0
   -1.6430    0.2276   -5.1367 C   0  0  0  1  0  0  0  0  0  0  0  0
   -1.8581   -0.6900   -5.6433 H   0  0  0  1  0  0  0  0  0  0  0  0
   -2.5541    0.6611   -4.7805 H   0  0  0  1  0  0  0  0  0  0  0  0
   -0.7721   -0.0414   -4.0129 O   0  0  0  1  0  0  0  0  0  0  0  0
   -1.3555   -0.1184   -2.5199 P   0  0  0  1  0  0  0  0  0  0  0  0
   -1.9968    1.1780   -2.1936 O   0  0  0  0  0  0  0  0  0  0  0  0
   -0.3143   -0.6304   -1.6281 O   0  0  0  1  0  0  0  0  0  0  0  0
   -2.4554   -1.2925   -2.6711 O   0  0  0  1  0  0  0  0  0  0  0  0
   -3.2959   -2.2903   -1.6773 P   0  0  0  1  0  0  0  0  0  0  0  0
   -3.5957   -1.7085   -0.3499 O   0  0  0  1  0  0  0  0  0  0  0  0
   -4.7271   -2.6918   -2.3214 O   0  5  0  1  0  0  0  0  0  0  0  0
   -2.5326   -3.6680   -1.5285 O   0  0  0  1  0  0  0  0  0  0  0  0
   -2.2599   -5.7817   -0.4291 C   0  0  0  1  0  0  0  0  0  0  0  0
   -2.5800   -4.3514   -0.2573 C   0  0  0  1  0  0  0  0  0  0  0  0
   -3.5621   -4.2575    0.1569 H   0  0  0  1  0  0  0  0  0  0  0  0
   -1.8682   -3.9085    0.4076 H   0  0  0  1  0  0  0  0  0  0  0  0
   -2.2232   -6.4556    0.9453 C   0  0  0  1  0  0  0  0  0  0  0  0
   -3.0091   -6.0636    1.5565 H   0  0  0  1  0  0  0  0  0  0  0  0
   -1.2794   -6.2633    1.4115 H   0  0  0  1  0  0  0  0  0  0  0  0
   -2.3553   -7.5110    0.8284 H   0  0  0  1  0  0  0  0  0  0  0  0
   -0.9139   -5.9662   -1.1341 C   0  0  0  1  0  0  0  0  0  0  0  0
   -0.6326   -6.9980   -1.1025 H   0  0  0  1  0  0  0  0  0  0  0  0
   -0.1690   -5.3784   -0.6397 H   0  0  0  1  0  0  0  0  0  0  0  0
   -0.9992   -5.6511   -2.1531 H   0  0  0  1  0  0  0  0  0  0  0  0
   -3.3683   -6.4399   -1.2591 C   0  0  0  1  0  0  0  0  0  0  0  0
   -4.2471   -6.5247   -0.6545 H   0  0  0  1  0  0  0  0  0  0  0  0
   -3.6394   -5.6589   -2.4168 O   0  0  0  1  0  0  0  0  0  0  0  0
   -2.8678   -5.6541   -2.9880 H   0  0  0  1  0  0  0  0  0  0  0  0
   -2.9151   -7.8273   -1.6682 C   0  0  0  1  0  0  0  0  0  0  0  0
   -2.3862   -8.5820   -0.8687 O   0  0  0  1  0  0  0  0  0  0  0  0
   -3.1344   -8.1579   -2.9507 N   0  0  0  1  0  0  0  0  0  0  0  0
   -3.5900   -7.5399   -3.5596 H   0  0  0  1  0  0  0  0  0  0  0  0
   -2.6762   -9.4603   -3.4109 C   0  0  0  1  0  0  0  0  0  0  0  0
   -3.4394   -9.8961   -4.0213 H   0  0  0  1  0  0  0  0  0  0  0  0
   -2.5014  -10.0831   -2.5586 H   0  0  0  1  0  0  0  0  0  0  0  0
   -1.3912   -9.3737   -4.2239 C   0  0  0  1  0  0  0  0  0  0  0  0
   -0.7040   -8.7362   -3.7078 H   0  0  0  1  0  0  0  0  0  0  0  0
   -1.6208   -8.9517   -5.1800 H   0  0  0  1  0  0  0  0  0  0  0  0
   -0.7267  -10.7316   -4.4388 C   0  0  0  1  0  0  0  0  0  0  0  0
   -1.2993  -11.7742   -4.1247 O   0  0  0  1  0  0  0  0  0  0  0  0
    0.5241  -10.6824   -4.9059 N   0  0  0  1  0  0  0  0  0  0  0  0
    0.9756   -9.8182   -5.0043 H   0  0  0  1  0  0  0  0  0  0  0  0
    1.2168  -11.9084   -5.2685 C   0  0  0  1  0  0  0  0  0  0  0  0
    1.3205  -11.9417   -6.3329 H   0  0  0  1  0  0  0  0  0  0  0  0
    0.6323  -12.7424   -4.9403 H   0  0  0  1  0  0  0  0  0  0  0  0
    2.5878  -12.0041   -4.6461 C   0  0  0  1  0  0  0  0  0  0  0  0
    2.5022  -11.7919   -3.6009 H   0  0  0  1  0  0  0  0  0  0  0  0
    3.2222  -11.2764   -5.1076 H   0  0  0  1  0  0  0  0  0  0  0  0
    3.3465  -13.6343   -4.8412 S   0  0  0  1  0  0  0  0  0  0  0  0
    4.9029  -13.4166   -4.0583 C   0  0  0  1  0  0  0  0  0  0  0  0
    5.3217  -12.3669   -3.6282 O   0  0  0  1  0  0  0  0  0  0  0  0
    5.7555  -14.6946   -4.0469 C   0  0  0  1  0  0  0  0  0  0  0  0
    6.7278  -14.4718   -3.6596 H   0  0  0  1  0  0  0  0  0  0  0  0
    5.8469  -15.0710   -5.0443 H   0  0  0  1  0  0  0  0  0  0  0  0
    5.2858  -15.4310   -3.4289 H   0  0  0  1  0  0  0  0  0  0  0  0
  1  2  1  0  0  0  0
  1  7  2  0  0  0  0
  2  3  1  0  0  0  0
  2  4  2  0  0  0  0
  4  5  1  0  0  0  0
  5  6  2  0  0  0  0
  5 14  1  0  0  0  0
  6  7  1  0  0  0  0
  6 11  1  0  0  0  0
  7  8  1  0  0  0  0
  8  9  1  0  0  0  0
  8 10  1  0  0  0  0
 11 12  2  0  0  0  0
 12 13  1  0  0  0  0
 12 14  1  0  0  0  0
 14 15  1  0  0  0  0
 15 16  1  0  0  0  0
 15 17  1  0  0  0  0
 15 30  1  0  0  0  0
 17 18  1  0  0  0  0
 17 19  1  0  0  0  0
 17 21  1  0  0  0  0
 19 20  1  0  0  0  0
 21 22  1  0  0  0  0
 21 23  1  0  0  0  0
 21 28  1  0  0  0  0
 23 24  1  0  0  0  0
 24 25  1  0  0  0  0
 24 26  2  0  0  0  0
 24 27  1  0  0  0  0
 28 29  1  0  0  0  0
 28 30  1  0  0  0  0
 28 31  1  0  0  0  0
 31 32  1  0  0  0  0
 31 33  1  0  0  0  0
 31 34  1  0  0  0  0
 34 35  1  0  0  0  0
 35 36  1  0  0  0  0
 35 37  2  0  0  0  0
 35 38  1  0  0  0  0
 38 39  1  0  0  0  0
 39 40  2  0  0  0  0
 39 41  1  0  0  0  0
 39 42  1  0  0  0  0
 42 44  1  0  0  0  0
 43 44  1  0  0  0  0
 43 47  1  0  0  0  0
 43 51  1  0  0  0  0
 43 55  1  0  0  0  0
 44 45  1  0  0  0  0
 44 46  1  0  0  0  0
 47 48  1  0  0  0  0
 47 49  1  0  0  0  0
 47 50  1  0  0  0  0
 51 52  1  0  0  0  0
 51 53  1  0  0  0  0
 51 54  1  0  0  0  0
 55 56  1  0  0  0  0
 55 57  1  0  0  0  0
 55 59  1  0  0  0  0
 57 58  1  0  0  0  0
 59 60  2  0  0  0  0
 59 61  1  0  0  0  0
 61 62  1  0  0  0  0
 61 63  1  0  0  0  0
 63 64  1  0  0  0  0
 63 65  1  0  0  0  0
 63 66  1  0  0  0  0
 66 67  1  0  0  0  0
 66 68  1  0  0  0  0
 66 69  1  0  0  0  0
 69 70  2  0  0  0  0
 69 71  1  0  0  0  0
 71 72  1  0  0  0  0
 71 73  1  0  0  0  0
 73 74  1  0  0  0  0
 73 75  1  0  0  0  0
 73 76  1  0  0  0  0
 76 77  1  0  0  0  0
 76 78  1  0  0  0  0
 76 79  1  0  0  0  0
 79 80  1  0  0  0  0
 80 81  2  0  0  0  0
 80 82  1  0  0  0  0
 82 83  1  0  0  0  0
 82 84  1  0  0  0  0
 82 85  1  0  0  0  0
M  BCL ATM N_Tr2TrTrPi C_TrTrTrPi H_S N_Tr2TrTrPi C_TrTrTrPi C_TrTrTrPi C_TrTrTrPi N_TrTrTrPi2 H_S H_S N_Tr2TrTrPi C_TrTrTrPi H_S N_TrTrTrPi2 C_TeTeTeTe H_S C_TeTeTeTe H_S O_Te2Te2TeTe H_S C_TeTeTeTe H_S O_Tr2TrTrPi2 P_TeTeTeTePi O_Te2Te2TeTe O_Tr2Tr2TrPi O_Te2Te2Te2Te C_TeTeTeTe H_S O_Te2Te2TeTe C_TeTeTeTe H_S H_S O_Tr2TrTrPi2 P_TeTeTeTePi O_Te2Te2TeTe O_Tr2Tr2TrPi O_Tr2TrTrPi2 P_TeTeTeTePi O_Tr2Tr2TrPi O_Te2Te2Te2Te O_Tr2TrTrPi2 C_TeTeTeTe C_TeTeTeTe H_S H_S C_TeTeTeTe H_S H_S H_S C_TeTeTeTe H_S H_S H_S C_TeTeTeTe H_S O_Te2Te2TeTe H_S C_TrTrTrPi O_Tr2Tr2TrPi N_TrTrTrPi2 H_S C_TeTeTeTe H_S H_S C_TeTeTeTe H_S H_S C_TrTrTrPi O_Tr2Tr2TrPi N_TrTrTrPi2 H_S C_TeTeTeTe H_S H_S C_TeTeTeTe H_S H_S S_Te2Te2TeTe C_TrTrTrPi O_Tr2Tr2TrPi C_TeTeTeTe H_S H_S H_S
M  BCL BND AromaticSingleBond AromaticDoubleBond NonConjugatedSingleBond AromaticDoubleBond AromaticSingleBond AromaticDoubleBond AromaticSingleBond AromaticSingleBond AromaticSingleBond ConjugatedSingleBond NonConjugatedSingleBond NonConjugatedSingleBond AromaticDoubleBond NonConjugatedSingleBond AromaticSingleBond NonConjugatedSingleBond NonConjugatedSingleBond NonConjugatedSingleBondInRing NonConjugatedSingleBondInRing NonConjugatedSingleBond NonConjugatedSingleBond NonConjugatedSingleBondInRing NonConjugatedSingleBond NonConjugatedSingleBond NonConjugatedSingleBond NonConjugatedSingleBondInRing ConjugatedSingleBond ConjugatedSingleBond ConjugatedDoubleBond ConjugatedSingleBond NonConjugatedSingleBond NonConjugatedSingleBondInRing NonConjugatedSingleBond NonConjugatedSingleBond NonConjugatedSingleBond NonConjugatedSingleBond ConjugatedSingleBond ConjugatedSingleBond ConjugatedDoubleBond ConjugatedSingleBond ConjugatedSingleBond ConjugatedDoubleBond ConjugatedSingleBond ConjugatedSingleBond NonConjugatedSingleBond NonConjugatedSingleBond NonConjugatedSingleBond NonConjugatedSingleBond NonConjugatedSingleBond NonConjugatedSingleBond NonConjugatedSingleBond NonConjugatedSingleBond NonConjugatedSingleBond NonConjugatedSingleBond NonConjugatedSingleBond NonConjugatedSingleBond NonConjugatedSingleBond NonConjugatedSingleBond NonConjugatedSingleBond NonConjugatedSingleBond NonConjugatedSingleBond ConjugatedDoubleBond AmideSingleBond NonConjugatedSingleBond NonConjugatedSingleBond NonConjugatedSingleBond NonConjugatedSingleBond NonConjugatedSingleBond NonConjugatedSingleBond NonConjugatedSingleBond NonConjugatedSingleBond ConjugatedDoubleBond AmideSingleBond NonConjugatedSingleBond NonConjugatedSingleBond NonConjugatedSingleBond NonConjugatedSingleBond NonConjugatedSingleBond NonConjugatedSingleBond NonConjugatedSingleBond NonConjugatedSingleBond ConjugatedSingleBond ConjugatedDoubleBond NonConjugatedSingleBond NonConjugatedSingleBond NonConjugatedSingleBond NonConjugatedSingleBond
M  BCL CHI  15   S  17   S  21   S  24   S  28   R  35   R  39   R  55   S
M  BCL DBI - - - - - - - - - -
M  END
> <ConfClashScore>
0 

> <ConfOneFourInteractionScore>
-0.983299 

> <ConfScore>
-0.0155723 

> <ConfScorePBest>
0.0130385 

> <ConfTolerance>
2.40299 

$$$$
ACO.****
  PyMOL2.5          3D                             0

 85 87  0  0  0  0  0  0  0  0999 V2000
    4.8649    1.0605  -10.6519 N   0  0  0  1  0  0  0  0  0  0  0  0
    3.8292    1.9047  -10.5230 C   0  0  0  1  0  0  0  0  0  0  0  0
    3.8017    2.6902  -11.2041 H   0  0  0  1  0  0  0  0  0  0  0  0
    2.8354    1.8724   -9.6436 N   0  0  0  1  0  0  0  0  0  0  0  0
    2.9511    0.8312   -8.8181 C   0  0  0  1  0  0  0  0  0  0  0  0
    3.9692   -0.1317   -8.8223 C   0  0  0  1  0  0  0  0  0  0  0  0
    4.9490    0.0360   -9.7963 C   0  0  0  1  0  0  0  0  0  0  0  0
    6.0874   -0.7641   -9.8939 N   0  0  0  1  0  0  0  0  0  0  0  0
    6.7736   -0.5605  -10.5632 H   0  0  0  1  0  0  0  0  0  0  0  0
    6.2009   -1.5300   -9.2931 H   0  0  0  1  0  0  0  0  0  0  0  0
    3.7622   -1.0540   -7.8084 N   0  0  0  1  0  0  0  0  0  0  0  0
    2.6615   -0.6421   -7.2404 C   0  0  0  1  0  0  0  0  0  0  0  0
    2.2300   -1.1360   -6.4333 H   0  0  0  1  0  0  0  0  0  0  0  0
    2.1209    0.4826   -7.7842 N   0  0  0  1  0  0  0  0  0  0  0  0
    0.9162    1.2146   -7.3982 C   0  0  0  1  0  0  0  0  0  0  0  0
    0.5629    0.8498   -6.4564 H   0  0  0  1  0  0  0  0  0  0  0  0
    1.1910    2.7382   -7.3338 C   0  0  0  1  0  0  0  0  0  0  0  0
    1.8580    3.0458   -8.1119 H   0  0  0  1  0  0  0  0  0  0  0  0
    1.7280    3.1122   -6.0737 O   0  0  0  1  0  0  0  0  0  0  0  0
    1.0706    2.9671   -5.3893 H   0  0  0  1  0  0  0  0  0  0  0  0
   -0.2273    3.3324   -7.5403 C   0  0  0  1  0  0  0  0  0  0  0  0
   -0.1893    4.1965   -8.1703 H   0  0  0  1  0  0  0  0  0  0  0  0
   -0.8280    3.6867   -6.2678 O   0  0  0  1  0  0  0  0  0  0  0  0
   -2.3885    4.1907   -6.2488 P   0  0  0  1  0  0  0  0  0  0  0  0
   -2.8168    4.4173   -4.6820 O   0  0  0  0  0  0  0  0  0  0  0  0
   -2.6436    5.4030   -7.0585 O   0  0  0  1  0  0  0  0  0  0  0  0
   -3.2972    2.9389   -6.7300 O   0  5  0  1  0  0  0  0  0  0  0  0
   -1.0141    2.1942   -8.2191 C   0  0  0  1  0  0  0  0  0  0  0  0
   -1.8273    1.8887   -7.5943 H   0  0  0  1  0  0  0  0  0  0  0  0
   -0.1047    1.0986   -8.4120 O   0  0  0  1  0  0  0  0  0  0  0  0
   -1.5377    2.6501   -9.5213 C   0  0  0  1  0  0  0  0  0  0  0  0
   -0.7183    2.8946  -10.1644 H   0  0  0  1  0  0  0  0  0  0  0  0
   -2.1461    3.5176   -9.3722 H   0  0  0  1  0  0  0  0  0  0  0  0
   -2.3276    1.6179  -10.1333 O   0  0  0  1  0  0  0  0  0  0  0  0
   -3.8767    1.6948  -10.3984 P   0  0  0  1  0  0  0  0  0  0  0  0
   -4.4471    2.3410   -9.1461 O   0  0  0  0  0  0  0  0  0  0  0  0
   -4.4856    0.3704  -10.7276 O   0  0  0  1  0  0  0  0  0  0  0  0
   -4.1259    2.6593  -11.6589 O   0  0  0  1  0  0  0  0  0  0  0  0
   -3.6800    2.5609  -13.2340 P   0  0  0  1  0  0  0  0  0  0  0  0
   -3.0414    1.2326  -13.3696 O   0  0  0  1  0  0  0  0  0  0  0  0
   -4.9592    2.7809  -14.2033 O   0  5  0  1  0  0  0  0  0  0  0  0
   -2.5770    3.6491  -13.5002 O   0  0  0  1  0  0  0  0  0  0  0  0
   -1.4019    5.5380  -12.5915 C   0  0  0  1  0  0  0  0  0  0  0  0
   -1.4914    4.0657  -12.6336 C   0  0  0  1  0  0  0  0  0  0  0  0
   -0.5707    3.6673  -13.0058 H   0  0  0  1  0  0  0  0  0  0  0  0
   -1.6673    3.6951  -11.6453 H   0  0  0  1  0  0  0  0  0  0  0  0
   -0.3713    6.0492  -11.5655 C   0  0  0  1  0  0  0  0  0  0  0  0
   -0.6503    5.7221  -10.5857 H   0  0  0  1  0  0  0  0  0  0  0  0
   -0.3443    7.1186  -11.5900 H   0  0  0  1  0  0  0  0  0  0  0  0
    0.5960    5.6618  -11.8087 H   0  0  0  1  0  0  0  0  0  0  0  0
   -2.7566    6.2246  -12.3310 C   0  0  0  1  0  0  0  0  0  0  0  0
   -3.4510    5.9462  -13.0959 H   0  0  0  1  0  0  0  0  0  0  0  0
   -2.6252    7.2865  -12.3382 H   0  0  0  1  0  0  0  0  0  0  0  0
   -3.1342    5.9179  -11.3780 H   0  0  0  1  0  0  0  0  0  0  0  0
   -0.9203    5.9736  -13.9777 C   0  0  0  1  0  0  0  0  0  0  0  0
    0.0768    5.6106  -14.1147 H   0  0  0  1  0  0  0  0  0  0  0  0
   -1.7882    5.3564  -14.9209 O   0  0  0  1  0  0  0  0  0  0  0  0
   -2.6823    5.3413  -14.5717 H   0  0  0  1  0  0  0  0  0  0  0  0
   -0.8972    7.4722  -14.0890 C   0  0  0  1  0  0  0  0  0  0  0  0
   -0.2769    8.1739  -13.3111 O   0  0  0  1  0  0  0  0  0  0  0  0
   -1.5830    8.0632  -15.0794 N   0  0  0  1  0  0  0  0  0  0  0  0
   -1.9474    7.5233  -15.8116 H   0  0  0  1  0  0  0  0  0  0  0  0
   -1.7867    9.5041  -15.0685 C   0  0  0  1  0  0  0  0  0  0  0  0
   -0.8448    9.9948  -15.1988 H   0  0  0  1  0  0  0  0  0  0  0  0
   -2.2134    9.7932  -14.1309 H   0  0  0  1  0  0  0  0  0  0  0  0
   -2.7263    9.9123  -16.1956 C   0  0  0  1  0  0  0  0  0  0  0  0
   -3.5962    9.2906  -16.1558 H   0  0  0  1  0  0  0  0  0  0  0  0
   -2.2237    9.7641  -17.1285 H   0  0  0  1  0  0  0  0  0  0  0  0
   -3.1679   11.3735  -16.1075 C   0  0  0  1  0  0  0  0  0  0  0  0
   -2.7401   12.0983  -15.2108 O   0  0  0  1  0  0  0  0  0  0  0  0
   -4.0958   11.7856  -16.9846 N   0  0  0  1  0  0  0  0  0  0  0  0
   -4.4298   11.1514  -17.6528 H   0  0  0  1  0  0  0  0  0  0  0  0
   -4.6272   13.1509  -16.9780 C   0  0  0  1  0  0  0  0  0  0  0  0
   -4.5903   13.5284  -15.9775 H   0  0  0  1  0  0  0  0  0  0  0  0
   -5.6431   13.1251  -17.3128 H   0  0  0  1  0  0  0  0  0  0  0  0
   -3.8436   14.0834  -17.8776 C   0  0  0  1  0  0  0  0  0  0  0  0
   -4.0457   13.8491  -18.9018 H   0  0  0  1  0  0  0  0  0  0  0  0
   -2.7967   13.9727  -17.6857 H   0  0  0  1  0  0  0  0  0  0  0  0
   -4.3480   15.7856  -17.5325 S   0  0  0  1  0  0  0  0  0  0  0  0
   -5.7392   15.9216  -18.6311 C   0  0  0  1  0  0  0  0  0  0  0  0
   -6.1485   14.9892  -19.2971 O   0  0  0  1  0  0  0  0  0  0  0  0
   -6.3826   17.2720  -18.6854 C   0  0  0  1  0  0  0  0  0  0  0  0
   -5.7648   17.9396  -19.2489 H   0  0  0  1  0  0  0  0  0  0  0  0
   -6.5021   17.6501  -17.6916 H   0  0  0  1  0  0  0  0  0  0  0  0
   -7.3409   17.1916  -19.1546 H   0  0  0  1  0  0  0  0  0  0  0  0
  1  2  1  0  0  0  0
  1  7  2  0  0  0  0
  2  3  1  0  0  0  0
  2  4  2  0  0  0  0
  4  5  1  0  0  0  0
  5  6  2  0  0  0  0
  5 14  1  0  0  0  0
  6  7  1  0  0  0  0
  6 11  1  0  0  0  0
  7  8  1  0  0  0  0
  8  9  1  0  0  0  0
  8 10  1  0  0  0  0
 11 12  2  0  0  0  0
 12 13  1  0  0  0  0
 12 14  1  0  0  0  0
 14 15  1  0  0  0  0
 15 16  1  0  0  0  0
 15 17  1  0  0  0  0
 15 30  1  0  0  0  0
 17 18  1  0  0  0  0
 17 19  1  0  0  0  0
 17 21  1  0  0  0  0
 19 20  1  0  0  0  0
 21 22  1  0  0  0  0
 21 23  1  0  0  0  0
 21 28  1  0  0  0  0
 23 24  1  0  0  0  0
 24 25  1  0  0  0  0
 24 26  2  0  0  0  0
 24 27  1  0  0  0  0
 28 29  1  0  0  0  0
 28 30  1  0  0  0  0
 28 31  1  0  0  0  0
 31 32  1  0  0  0  0
 31 33  1  0  0  0  0
 31 34  1  0  0  0  0
 34 35  1  0  0  0  0
 35 36  1  0  0  0  0
 35 37  2  0  0  0  0
 35 38  1  0  0  0  0
 38 39  1  0  0  0  0
 39 40  2  0  0  0  0
 39 41  1  0  0  0  0
 39 42  1  0  0  0  0
 42 44  1  0  0  0  0
 43 44  1  0  0  0  0
 43 47  1  0  0  0  0
 43 51  1  0  0  0  0
 43 55  1  0  0  0  0
 44 45  1  0  0  0  0
 44 46  1  0  0  0  0
 47 48  1  0  0  0  0
 47 49  1  0  0  0  0
 47 50  1  0  0  0  0
 51 52  1  0  0  0  0
 51 53  1  0  0  0  0
 51 54  1  0  0  0  0
 55 56  1  0  0  0  0
 55 57  1  0  0  0  0
 55 59  1  0  0  0  0
 57 58  1  0  0  0  0
 59 60  2  0  0  0  0
 59 61  1  0  0  0  0
 61 62  1  0  0  0  0
 61 63  1  0  0  0  0
 63 64  1  0  0  0  0
 63 65  1  0  0  0  0
 63 66  1  0  0  0  0
 66 67  1  0  0  0  0
 66 68  1  0  0  0  0
 66 69  1  0  0  0  0
 69 70  2  0  0  0  0
 69 71  1  0  0  0  0
 71 72  1  0  0  0  0
 71 73  1  0  0  0  0
 73 74  1  0  0  0  0
 73 75  1  0  0  0  0
 73 76  1  0  0  0  0
 76 77  1  0  0  0  0
 76 78  1  0  0  0  0
 76 79  1  0  0  0  0
 79 80  1  0  0  0  0
 80 81  2  0  0  0  0
 80 82  1  0  0  0  0
 82 83  1  0  0  0  0
 82 84  1  0  0  0  0
 82 85  1  0  0  0  0
M  BCL ATM N_Tr2TrTrPi C_TrTrTrPi H_S N_Tr2TrTrPi C_TrTrTrPi C_TrTrTrPi C_TrTrTrPi N_TrTrTrPi2 H_S H_S N_Tr2TrTrPi C_TrTrTrPi H_S N_TrTrTrPi2 C_TeTeTeTe H_S C_TeTeTeTe H_S O_Te2Te2TeTe H_S C_TeTeTeTe H_S O_Tr2TrTrPi2 P_TeTeTeTePi O_Te2Te2TeTe O_Tr2Tr2TrPi O_Te2Te2Te2Te C_TeTeTeTe H_S O_Te2Te2TeTe C_TeTeTeTe H_S H_S O_Tr2TrTrPi2 P_TeTeTeTePi O_Te2Te2TeTe O_Tr2Tr2TrPi O_Tr2TrTrPi2 P_TeTeTeTePi O_Tr2Tr2TrPi O_Te2Te2Te2Te O_Tr2TrTrPi2 C_TeTeTeTe C_TeTeTeTe H_S H_S C_TeTeTeTe H_S H_S H_S C_TeTeTeTe H_S H_S H_S C_TeTeTeTe H_S O_Te2Te2TeTe H_S C_TrTrTrPi O_Tr2Tr2TrPi N_TrTrTrPi2 H_S C_TeTeTeTe H_S H_S C_TeTeTeTe H_S H_S C_TrTrTrPi O_Tr2Tr2TrPi N_TrTrTrPi2 H_S C_TeTeTeTe H_S H_S C_TeTeTeTe H_S H_S S_Te2Te2TeTe C_TrTrTrPi O_Tr2Tr2TrPi C_TeTeTeTe H_S H_S H_S
M  BCL BND AromaticSingleBond AromaticDoubleBond NonConjugatedSingleBond AromaticDoubleBond AromaticSingleBond AromaticDoubleBond AromaticSingleBond AromaticSingleBond AromaticSingleBond ConjugatedSingleBond NonConjugatedSingleBond NonConjugatedSingleBond AromaticDoubleBond NonConjugatedSingleBond AromaticSingleBond NonConjugatedSingleBond NonConjugatedSingleBond NonConjugatedSingleBondInRing NonConjugatedSingleBondInRing NonConjugatedSingleBond NonConjugatedSingleBond NonConjugatedSingleBondInRing NonConjugatedSingleBond NonConjugatedSingleBond NonConjugatedSingleBond NonConjugatedSingleBondInRing ConjugatedSingleBond ConjugatedSingleBond ConjugatedDoubleBond ConjugatedSingleBond NonConjugatedSingleBond NonConjugatedSingleBondInRing NonConjugatedSingleBond NonConjugatedSingleBond NonConjugatedSingleBond NonConjugatedSingleBond ConjugatedSingleBond ConjugatedSingleBond ConjugatedDoubleBond ConjugatedSingleBond ConjugatedSingleBond ConjugatedDoubleBond ConjugatedSingleBond ConjugatedSingleBond NonConjugatedSingleBond NonConjugatedSingleBond NonConjugatedSingleBond NonConjugatedSingleBond NonConjugatedSingleBond NonConjugatedSingleBond NonConjugatedSingleBond NonConjugatedSingleBond NonConjugatedSingleBond NonConjugatedSingleBond NonConjugatedSingleBond NonConjugatedSingleBond NonConjugatedSingleBond NonConjugatedSingleBond NonConjugatedSingleBond NonConjugatedSingleBond NonConjugatedSingleBond ConjugatedDoubleBond AmideSingleBond NonConjugatedSingleBond NonConjugatedSingleBond NonConjugatedSingleBond NonConjugatedSingleBond NonConjugatedSingleBond NonConjugatedSingleBond NonConjugatedSingleBond NonConjugatedSingleBond ConjugatedDoubleBond AmideSingleBond NonConjugatedSingleBond NonConjugatedSingleBond NonConjugatedSingleBond NonConjugatedSingleBond NonConjugatedSingleBond NonConjugatedSingleBond NonConjugatedSingleBond NonConjugatedSingleBond ConjugatedSingleBond ConjugatedDoubleBond NonConjugatedSingleBond NonConjugatedSingleBond NonConjugatedSingleBond NonConjugatedSingleBond
M  BCL CHI  15   S  17   S  21   S  24   S  28   R  35   R  39   R  55   S
M  BCL DBI - - - - - - - - - -
M  END
> <ConfClashScore>
0 

> <ConfOneFourInteractionScore>
-0.975262 

> <ConfScore>
-0.0152777 

> <ConfScorePBest>
0.0129355 

> <ConfTolerance>
2.29675 

$$$$
ACO.****
  PyMOL2.5          3D                             0

 85 87  0  0  0  0  0  0  0  0999 V2000
    4.8851    1.0753  -10.6423 N   0  0  0  1  0  0  0  0  0  0  0  0
    3.8354    1.9046  -10.5318 C   0  0  0  1  0  0  0  0  0  0  0  0
    3.8028    2.6831  -11.2206 H   0  0  0  1  0  0  0  0  0  0  0  0
    2.8333    1.8651   -9.6622 N   0  0  0  1  0  0  0  0  0  0  0  0
    2.9565    0.8336   -8.8257 C   0  0  0  1  0  0  0  0  0  0  0  0
    3.9892   -0.1134   -8.8105 C   0  0  0  1  0  0  0  0  0  0  0  0
    4.9763    0.0603   -9.7762 C   0  0  0  1  0  0  0  0  0  0  0  0
    6.0612   -0.7680   -9.8934 N   0  0  0  1  0  0  0  0  0  0  0  0
    6.7068   -0.6303  -10.6177 H   0  0  0  1  0  0  0  0  0  0  0  0
    6.1917   -1.4982   -9.2529 H   0  0  0  1  0  0  0  0  0  0  0  0
    3.7860   -1.0294   -7.7900 N   0  0  0  1  0  0  0  0  0  0  0  0
    2.6734   -0.6291   -7.2371 C   0  0  0  1  0  0  0  0  0  0  0  0
    2.2413   -1.1220   -6.4296 H   0  0  0  1  0  0  0  0  0  0  0  0
    2.1212    0.4820   -7.7969 N   0  0  0  1  0  0  0  0  0  0  0  0
    0.8927    1.1604   -7.3871 C   0  0  0  1  0  0  0  0  0  0  0  0
    0.9939    2.2128   -7.5516 H   0  0  0  1  0  0  0  0  0  0  0  0
   -0.3322    0.5961   -8.1501 C   0  0  0  1  0  0  0  0  0  0  0  0
   -0.2479   -0.4611   -8.2923 H   0  0  0  1  0  0  0  0  0  0  0  0
   -0.4941    1.2369   -9.4183 O   0  0  0  1  0  0  0  0  0  0  0  0
   -1.2875    0.9060   -9.8455 H   0  0  0  1  0  0  0  0  0  0  0  0
   -1.5004    0.9438   -7.1902 C   0  0  0  1  0  0  0  0  0  0  0  0
   -2.2083    0.1426   -7.1472 H   0  0  0  1  0  0  0  0  0  0  0  0
   -2.1670    2.1538   -7.6107 O   0  0  0  1  0  0  0  0  0  0  0  0
   -3.3728    2.8058   -6.7105 P   0  0  0  1  0  0  0  0  0  0  0  0
   -2.7954    2.8794   -5.1773 O   0  0  0  0  0  0  0  0  0  0  0  0
   -3.9386    4.1112   -7.1181 O   0  0  0  1  0  0  0  0  0  0  0  0
   -4.5336    1.6799   -6.6131 O   0  5  0  1  0  0  0  0  0  0  0  0
   -0.8151    1.1427   -5.8241 C   0  0  0  1  0  0  0  0  0  0  0  0
   -0.9593    2.1475   -5.4857 H   0  0  0  1  0  0  0  0  0  0  0  0
    0.5864    0.8817   -6.0044 O   0  0  0  1  0  0  0  0  0  0  0  0
   -1.3864    0.1928   -4.8235 C   0  0  0  1  0  0  0  0  0  0  0  0
   -1.1856   -0.8150   -5.1217 H   0  0  0  1  0  0  0  0  0  0  0  0
   -2.4436    0.3382   -4.7453 H   0  0  0  1  0  0  0  0  0  0  0  0
   -0.7561    0.4647   -3.5497 O   0  0  0  1  0  0  0  0  0  0  0  0
   -1.5528    1.1677   -2.3891 P   0  0  0  1  0  0  0  0  0  0  0  0
   -0.5638    1.3040   -1.2968 O   0  0  0  0  0  0  0  0  0  0  0  0
   -2.8594    0.5330   -2.0942 O   0  0  0  1  0  0  0  0  0  0  0  0
   -1.8240    2.5835   -3.0820 O   0  0  0  1  0  0  0  0  0  0  0  0
   -0.9907    3.9893   -3.2191 P   0  0  0  1  0  0  0  0  0  0  0  0
   -0.5616    4.6474   -1.9648 O   0  0  0  1  0  0  0  0  0  0  0  0
    0.2642    3.7744   -4.2209 O   0  5  0  1  0  0  0  0  0  0  0  0
   -1.9314    5.0481   -3.9240 O   0  0  0  1  0  0  0  0  0  0  0  0
   -2.4160    7.0562   -5.0893 C   0  0  0  1  0  0  0  0  0  0  0  0
   -1.3668    6.3142   -4.3286 C   0  0  0  1  0  0  0  0  0  0  0  0
   -0.5127    6.1497   -4.9518 H   0  0  0  1  0  0  0  0  0  0  0  0
   -1.0764    6.8761   -3.4656 H   0  0  0  1  0  0  0  0  0  0  0  0
   -3.7046    7.2693   -4.2604 C   0  0  0  1  0  0  0  0  0  0  0  0
   -4.4676    7.6829   -4.8863 H   0  0  0  1  0  0  0  0  0  0  0  0
   -3.5021    7.9420   -3.4534 H   0  0  0  1  0  0  0  0  0  0  0  0
   -4.0355    6.3304   -3.8683 H   0  0  0  1  0  0  0  0  0  0  0  0
   -2.7091    6.2723   -6.3739 C   0  0  0  1  0  0  0  0  0  0  0  0
   -3.7569    6.3140   -6.5866 H   0  0  0  1  0  0  0  0  0  0  0  0
   -2.4119    5.2525   -6.2448 H   0  0  0  1  0  0  0  0  0  0  0  0
   -2.1630    6.7033   -7.1869 H   0  0  0  1  0  0  0  0  0  0  0  0
   -1.8231    8.4159   -5.4671 C   0  0  0  1  0  0  0  0  0  0  0  0
   -0.8465    8.2534   -5.8730 H   0  0  0  1  0  0  0  0  0  0  0  0
   -2.6503    9.0277   -6.4422 O   0  0  0  1  0  0  0  0  0  0  0  0
   -3.5644    8.7776   -6.2894 H   0  0  0  1  0  0  0  0  0  0  0  0
   -1.6842    9.2808   -4.2348 C   0  0  0  1  0  0  0  0  0  0  0  0
   -2.6289    9.9556   -3.8277 O   0  0  0  1  0  0  0  0  0  0  0  0
   -0.4953    9.2898   -3.5969 N   0  0  0  1  0  0  0  0  0  0  0  0
    0.2493    8.7548   -3.9429 H   0  0  0  1  0  0  0  0  0  0  0  0
   -0.3165   10.0922   -2.3960 C   0  0  0  1  0  0  0  0  0  0  0  0
   -1.1365    9.8943   -1.7378 H   0  0  0  1  0  0  0  0  0  0  0  0
   -0.3273   11.1238   -2.6799 H   0  0  0  1  0  0  0  0  0  0  0  0
    0.9764    9.8225   -1.6374 C   0  0  0  1  0  0  0  0  0  0  0  0
    1.7993   10.1403   -2.2430 H   0  0  0  1  0  0  0  0  0  0  0  0
    1.0517    8.7707   -1.4560 H   0  0  0  1  0  0  0  0  0  0  0  0
    1.0478   10.5539   -0.2967 C   0  0  0  1  0  0  0  0  0  0  0  0
    0.8061   11.7480   -0.2330 O   0  0  0  1  0  0  0  0  0  0  0  0
    1.4682    9.8525    0.7564 N   0  0  0  1  0  0  0  0  0  0  0  0
    1.6910    8.9058    0.6357 H   0  0  0  1  0  0  0  0  0  0  0  0
    1.6076   10.4433    2.0778 C   0  0  0  1  0  0  0  0  0  0  0  0
    1.6478    9.6570    2.8024 H   0  0  0  1  0  0  0  0  0  0  0  0
    0.7554   11.0616    2.2685 H   0  0  0  1  0  0  0  0  0  0  0  0
    2.8629   11.2904    2.2081 C   0  0  0  1  0  0  0  0  0  0  0  0
    2.8133   12.0985    1.5085 H   0  0  0  1  0  0  0  0  0  0  0  0
    3.7177   10.6838    1.9931 H   0  0  0  1  0  0  0  0  0  0  0  0
    3.0222   11.9646    3.8788 S   0  0  0  1  0  0  0  0  0  0  0  0
    2.2374   13.5562    3.7203 C   0  0  0  1  0  0  0  0  0  0  0  0
    1.8569   13.9711    2.6590 O   0  0  0  1  0  0  0  0  0  0  0  0
    2.0510   14.2393    5.0553 C   0  0  0  1  0  0  0  0  0  0  0  0
    1.6457   15.2177    4.9023 H   0  0  0  1  0  0  0  0  0  0  0  0
    2.9963   14.3185    5.5502 H   0  0  0  1  0  0  0  0  0  0  0  0
    1.3789   13.6654    5.6585 H   0  0  0  1  0  0  0  0  0  0  0  0
  1  2  1  0  0  0  0
  1  7  2  0  0  0  0
  2  3  1  0  0  0  0
  2  4  2  0  0  0  0
  4  5  1  0  0  0  0
  5  6  2  0  0  0  0
  5 14  1  0  0  0  0
  6  7  1  0  0  0  0
  6 11  1  0  0  0  0
  7  8  1  0  0  0  0
  8  9  1  0  0  0  0
  8 10  1  0  0  0  0
 11 12  2  0  0  0  0
 12 13  1  0  0  0  0
 12 14  1  0  0  0  0
 14 15  1  0  0  0  0
 15 16  1  0  0  0  0
 15 17  1  0  0  0  0
 15 30  1  0  0  0  0
 17 18  1  0  0  0  0
 17 19  1  0  0  0  0
 17 21  1  0  0  0  0
 19 20  1  0  0  0  0
 21 22  1  0  0  0  0
 21 23  1  0  0  0  0
 21 28  1  0  0  0  0
 23 24  1  0  0  0  0
 24 25  1  0  0  0  0
 24 26  2  0  0  0  0
 24 27  1  0  0  0  0
 28 29  1  0  0  0  0
 28 30  1  0  0  0  0
 28 31  1  0  0  0  0
 31 32  1  0  0  0  0
 31 33  1  0  0  0  0
 31 34  1  0  0  0  0
 34 35  1  0  0  0  0
 35 36  1  0  0  0  0
 35 37  2  0  0  0  0
 35 38  1  0  0  0  0
 38 39  1  0  0  0  0
 39 40  2  0  0  0  0
 39 41  1  0  0  0  0
 39 42  1  0  0  0  0
 42 44  1  0  0  0  0
 43 44  1  0  0  0  0
 43 47  1  0  0  0  0
 43 51  1  0  0  0  0
 43 55  1  0  0  0  0
 44 45  1  0  0  0  0
 44 46  1  0  0  0  0
 47 48  1  0  0  0  0
 47 49  1  0  0  0  0
 47 50  1  0  0  0  0
 51 52  1  0  0  0  0
 51 53  1  0  0  0  0
 51 54  1  0  0  0  0
 55 56  1  0  0  0  0
 55 57  1  0  0  0  0
 55 59  1  0  0  0  0
 57 58  1  0  0  0  0
 59 60  2  0  0  0  0
 59 61  1  0  0  0  0
 61 62  1  0  0  0  0
 61 63  1  0  0  0  0
 63 64  1  0  0  0  0
 63 65  1  0  0  0  0
 63 66  1  0  0  0  0
 66 67  1  0  0  0  0
 66 68  1  0  0  0  0
 66 69  1  0  0  0  0
 69 70  2  0  0  0  0
 69 71  1  0  0  0  0
 71 72  1  0  0  0  0
 71 73  1  0  0  0  0
 73 74  1  0  0  0  0
 73 75  1  0  0  0  0
 73 76  1  0  0  0  0
 76 77  1  0  0  0  0
 76 78  1  0  0  0  0
 76 79  1  0  0  0  0
 79 80  1  0  0  0  0
 80 81  2  0  0  0  0
 80 82  1  0  0  0  0
 82 83  1  0  0  0  0
 82 84  1  0  0  0  0
 82 85  1  0  0  0  0
M  BCL ATM N_Tr2TrTrPi C_TrTrTrPi H_S N_Tr2TrTrPi C_TrTrTrPi C_TrTrTrPi C_TrTrTrPi N_TrTrTrPi2 H_S H_S N_Tr2TrTrPi C_TrTrTrPi H_S N_TrTrTrPi2 C_TeTeTeTe H_S C_TeTeTeTe H_S O_Te2Te2TeTe H_S C_TeTeTeTe H_S O_Tr2TrTrPi2 P_TeTeTeTePi O_Te2Te2TeTe O_Tr2Tr2TrPi O_Te2Te2Te2Te C_TeTeTeTe H_S O_Te2Te2TeTe C_TeTeTeTe H_S H_S O_Tr2TrTrPi2 P_TeTeTeTePi O_Te2Te2TeTe O_Tr2Tr2TrPi O_Tr2TrTrPi2 P_TeTeTeTePi O_Tr2Tr2TrPi O_Te2Te2Te2Te O_Tr2TrTrPi2 C_TeTeTeTe C_TeTeTeTe H_S H_S C_TeTeTeTe H_S H_S H_S C_TeTeTeTe H_S H_S H_S C_TeTeTeTe H_S O_Te2Te2TeTe H_S C_TrTrTrPi O_Tr2Tr2TrPi N_TrTrTrPi2 H_S C_TeTeTeTe H_S H_S C_TeTeTeTe H_S H_S C_TrTrTrPi O_Tr2Tr2TrPi N_TrTrTrPi2 H_S C_TeTeTeTe H_S H_S C_TeTeTeTe H_S H_S S_Te2Te2TeTe C_TrTrTrPi O_Tr2Tr2TrPi C_TeTeTeTe H_S H_S H_S
M  BCL BND AromaticSingleBond AromaticDoubleBond NonConjugatedSingleBond AromaticDoubleBond AromaticSingleBond AromaticDoubleBond AromaticSingleBond AromaticSingleBond AromaticSingleBond ConjugatedSingleBond NonConjugatedSingleBond NonConjugatedSingleBond AromaticDoubleBond NonConjugatedSingleBond AromaticSingleBond NonConjugatedSingleBond NonConjugatedSingleBond NonConjugatedSingleBondInRing NonConjugatedSingleBondInRing NonConjugatedSingleBond NonConjugatedSingleBond NonConjugatedSingleBondInRing NonConjugatedSingleBond NonConjugatedSingleBond NonConjugatedSingleBond NonConjugatedSingleBondInRing ConjugatedSingleBond ConjugatedSingleBond ConjugatedDoubleBond ConjugatedSingleBond NonConjugatedSingleBond NonConjugatedSingleBondInRing NonConjugatedSingleBond NonConjugatedSingleBond NonConjugatedSingleBond NonConjugatedSingleBond ConjugatedSingleBond ConjugatedSingleBond ConjugatedDoubleBond ConjugatedSingleBond ConjugatedSingleBond ConjugatedDoubleBond ConjugatedSingleBond ConjugatedSingleBond NonConjugatedSingleBond NonConjugatedSingleBond NonConjugatedSingleBond NonConjugatedSingleBond NonConjugatedSingleBond NonConjugatedSingleBond NonConjugatedSingleBond NonConjugatedSingleBond NonConjugatedSingleBond NonConjugatedSingleBond NonConjugatedSingleBond NonConjugatedSingleBond NonConjugatedSingleBond NonConjugatedSingleBond NonConjugatedSingleBond NonConjugatedSingleBond NonConjugatedSingleBond ConjugatedDoubleBond AmideSingleBond NonConjugatedSingleBond NonConjugatedSingleBond NonConjugatedSingleBond NonConjugatedSingleBond NonConjugatedSingleBond NonConjugatedSingleBond NonConjugatedSingleBond NonConjugatedSingleBond ConjugatedDoubleBond AmideSingleBond NonConjugatedSingleBond NonConjugatedSingleBond NonConjugatedSingleBond NonConjugatedSingleBond NonConjugatedSingleBond NonConjugatedSingleBond NonConjugatedSingleBond NonConjugatedSingleBond ConjugatedSingleBond ConjugatedDoubleBond NonConjugatedSingleBond NonConjugatedSingleBond NonConjugatedSingleBond NonConjugatedSingleBond
M  BCL CHI  15   S  17   S  21   S  24   S  28   R  35   R  39   R  55   S
M  BCL DBI - - - - - - - - - -
M  END
> <ConfClashScore>
0 

> <ConfOneFourInteractionScore>
-0.980444 

> <ConfScore>
-0.0142494 

> <ConfScorePBest>
0.0128325 

> <ConfTolerance>
2.49293 

$$$$
ACO.****
  PyMOL2.5          3D                             0

 85 87  0  0  0  0  0  0  0  0999 V2000
    4.8866    1.0774  -10.6399 N   0  0  0  1  0  0  0  0  0  0  0  0
    3.8371    1.9071  -10.5292 C   0  0  0  1  0  0  0  0  0  0  0  0
    3.8056    2.6867  -11.2169 H   0  0  0  1  0  0  0  0  0  0  0  0
    2.8342    1.8668   -9.6607 N   0  0  0  1  0  0  0  0  0  0  0  0
    2.9561    0.8340   -8.8256 C   0  0  0  1  0  0  0  0  0  0  0  0
    3.9883   -0.1136   -8.8108 C   0  0  0  1  0  0  0  0  0  0  0  0
    4.9764    0.0610   -9.7753 C   0  0  0  1  0  0  0  0  0  0  0  0
    6.0610   -0.7676   -9.8927 N   0  0  0  1  0  0  0  0  0  0  0  0
    6.7303   -0.6029  -10.5894 H   0  0  0  1  0  0  0  0  0  0  0  0
    6.1676   -1.5250   -9.2801 H   0  0  0  1  0  0  0  0  0  0  0  0
    3.7837   -1.0310   -7.7919 N   0  0  0  1  0  0  0  0  0  0  0  0
    2.6707   -0.6310   -7.2395 C   0  0  0  1  0  0  0  0  0  0  0  0
    2.2377   -1.1249   -6.4332 H   0  0  0  1  0  0  0  0  0  0  0  0
    2.1197    0.4812   -7.7981 N   0  0  0  1  0  0  0  0  0  0  0  0
    0.8980    1.1558   -7.3908 C   0  0  0  1  0  0  0  0  0  0  0  0
    0.6872    1.9545   -8.0709 H   0  0  0  1  0  0  0  0  0  0  0  0
   -0.2874    0.1603   -7.3216 C   0  0  0  1  0  0  0  0  0  0  0  0
    0.0266   -0.7921   -6.9484 H   0  0  0  1  0  0  0  0  0  0  0  0
   -0.8995   -0.0072   -8.6019 O   0  0  0  1  0  0  0  0  0  0  0  0
   -1.7841   -0.3629   -8.4902 H   0  0  0  1  0  0  0  0  0  0  0  0
   -1.2462    0.8665   -6.3271 C   0  0  0  1  0  0  0  0  0  0  0  0
   -1.6969    0.1571   -5.6649 H   0  0  0  1  0  0  0  0  0  0  0  0
   -2.2775    1.5889   -7.0342 O   0  0  0  1  0  0  0  0  0  0  0  0
   -3.7802    1.7481   -6.3968 P   0  0  0  1  0  0  0  0  0  0  0  0
   -4.6468    2.7987   -7.3106 O   0  0  0  0  0  0  0  0  0  0  0  0
   -4.5486    0.4906   -6.2599 O   0  0  0  1  0  0  0  0  0  0  0  0
   -3.6283    2.4449   -4.9423 O   0  5  0  1  0  0  0  0  0  0  0  0
   -0.3326    1.8357   -5.5515 C   0  0  0  1  0  0  0  0  0  0  0  0
   -0.6434    2.8455   -5.7208 H   0  0  0  1  0  0  0  0  0  0  0  0
    1.0062    1.6460   -6.0375 O   0  0  0  1  0  0  0  0  0  0  0  0
   -0.3918    1.5376   -4.1074 C   0  0  0  1  0  0  0  0  0  0  0  0
    0.1598    2.2814   -3.5713 H   0  0  0  1  0  0  0  0  0  0  0  0
    0.0395    0.5749   -3.9285 H   0  0  0  1  0  0  0  0  0  0  0  0
   -1.7668    1.5380   -3.6464 O   0  0  0  1  0  0  0  0  0  0  0  0
   -2.1369    1.9823   -2.1231 P   0  0  0  1  0  0  0  0  0  0  0  0
   -1.3953    1.1186   -1.1737 O   0  0  0  0  0  0  0  0  0  0  0  0
   -3.6106    2.1212   -2.0150 O   0  0  0  1  0  0  0  0  0  0  0  0
   -1.5211    3.4666   -2.1532 O   0  0  0  1  0  0  0  0  0  0  0  0
   -0.2020    4.0253   -1.3547 P   0  0  0  1  0  0  0  0  0  0  0  0
   -0.4897    3.7759    0.0754 O   0  0  0  1  0  0  0  0  0  0  0  0
    1.0499    3.4132   -2.1809 O   0  5  0  1  0  0  0  0  0  0  0  0
   -0.3302    5.5638   -1.6771 O   0  0  0  1  0  0  0  0  0  0  0  0
   -0.1814    7.8609   -1.0963 C   0  0  0  1  0  0  0  0  0  0  0  0
    0.1226    6.4705   -0.6443 C   0  0  0  1  0  0  0  0  0  0  0  0
    1.1763    6.3575   -0.4966 H   0  0  0  1  0  0  0  0  0  0  0  0
   -0.3905    6.2647    0.2718 H   0  0  0  1  0  0  0  0  0  0  0  0
   -1.6310    7.9020   -1.5944 C   0  0  0  1  0  0  0  0  0  0  0  0
   -2.2907    8.0366   -0.7628 H   0  0  0  1  0  0  0  0  0  0  0  0
   -1.8641    6.9823   -2.0891 H   0  0  0  1  0  0  0  0  0  0  0  0
   -1.7497    8.7158   -2.2789 H   0  0  0  1  0  0  0  0  0  0  0  0
    0.7418    8.2463   -2.2523 C   0  0  0  1  0  0  0  0  0  0  0  0
    0.5004    9.2330   -2.5885 H   0  0  0  1  0  0  0  0  0  0  0  0
    0.6127    7.5538   -3.0577 H   0  0  0  1  0  0  0  0  0  0  0  0
    1.7586    8.2219   -1.9198 H   0  0  0  1  0  0  0  0  0  0  0  0
   -0.0180    8.8667    0.0459 C   0  0  0  1  0  0  0  0  0  0  0  0
   -0.6129    8.5349    0.8711 H   0  0  0  1  0  0  0  0  0  0  0  0
    1.3651    8.8447    0.4143 O   0  0  0  1  0  0  0  0  0  0  0  0
    1.6027    7.9645    0.7151 H   0  0  0  1  0  0  0  0  0  0  0  0
   -0.4988   10.2349   -0.3708 C   0  0  0  1  0  0  0  0  0  0  0  0
    0.0177   10.8580   -1.2804 O   0  0  0  1  0  0  0  0  0  0  0  0
   -1.5279   10.7871    0.2782 N   0  0  0  1  0  0  0  0  0  0  0  0
   -1.9495   10.2874    1.0083 H   0  0  0  1  0  0  0  0  0  0  0  0
   -2.0443   12.1046   -0.0612 C   0  0  0  1  0  0  0  0  0  0  0  0
   -3.0109   12.2189    0.3833 H   0  0  0  1  0  0  0  0  0  0  0  0
   -2.1299   12.1755   -1.1254 H   0  0  0  1  0  0  0  0  0  0  0  0
   -1.1441   13.2298    0.4321 C   0  0  0  1  0  0  0  0  0  0  0  0
   -0.1289   12.9768    0.2080 H   0  0  0  1  0  0  0  0  0  0  0  0
   -1.2637   13.3221    1.4913 H   0  0  0  1  0  0  0  0  0  0  0  0
   -1.4606   14.5676   -0.2078 C   0  0  0  1  0  0  0  0  0  0  0  0
   -2.2868   14.6620   -1.1146 O   0  0  0  1  0  0  0  0  0  0  0  0
   -0.7862   15.6205    0.2787 N   0  0  0  1  0  0  0  0  0  0  0  0
   -0.1640   15.4997    1.0262 H   0  0  0  1  0  0  0  0  0  0  0  0
   -0.9764   16.9405   -0.3009 C   0  0  0  1  0  0  0  0  0  0  0  0
   -1.9730   17.2675   -0.0892 H   0  0  0  1  0  0  0  0  0  0  0  0
   -0.8401   16.8728   -1.3600 H   0  0  0  1  0  0  0  0  0  0  0  0
    0.0003   17.9659    0.2513 C   0  0  0  1  0  0  0  0  0  0  0  0
    1.0002   17.7081   -0.0291 H   0  0  0  1  0  0  0  0  0  0  0  0
   -0.0727   18.0046    1.3181 H   0  0  0  1  0  0  0  0  0  0  0  0
   -0.4494   19.5671   -0.4594 S   0  0  0  1  0  0  0  0  0  0  0  0
   -1.7121   20.1334    0.6565 C   0  0  0  1  0  0  0  0  0  0  0  0
   -2.0722   19.5132    1.6204 O   0  0  0  1  0  0  0  0  0  0  0  0
   -2.2741   21.4765    0.2519 C   0  0  0  1  0  0  0  0  0  0  0  0
   -2.3055   21.5436   -0.8155 H   0  0  0  1  0  0  0  0  0  0  0  0
   -1.6510   22.2551    0.6398 H   0  0  0  1  0  0  0  0  0  0  0  0
   -3.2637   21.5818    0.6449 H   0  0  0  1  0  0  0  0  0  0  0  0
  1  2  1  0  0  0  0
  1  7  2  0  0  0  0
  2  3  1  0  0  0  0
  2  4  2  0  0  0  0
  4  5  1  0  0  0  0
  5  6  2  0  0  0  0
  5 14  1  0  0  0  0
  6  7  1  0  0  0  0
  6 11  1  0  0  0  0
  7  8  1  0  0  0  0
  8  9  1  0  0  0  0
  8 10  1  0  0  0  0
 11 12  2  0  0  0  0
 12 13  1  0  0  0  0
 12 14  1  0  0  0  0
 14 15  1  0  0  0  0
 15 16  1  0  0  0  0
 15 17  1  0  0  0  0
 15 30  1  0  0  0  0
 17 18  1  0  0  0  0
 17 19  1  0  0  0  0
 17 21  1  0  0  0  0
 19 20  1  0  0  0  0
 21 22  1  0  0  0  0
 21 23  1  0  0  0  0
 21 28  1  0  0  0  0
 23 24  1  0  0  0  0
 24 25  1  0  0  0  0
 24 26  2  0  0  0  0
 24 27  1  0  0  0  0
 28 29  1  0  0  0  0
 28 30  1  0  0  0  0
 28 31  1  0  0  0  0
 31 32  1  0  0  0  0
 31 33  1  0  0  0  0
 31 34  1  0  0  0  0
 34 35  1  0  0  0  0
 35 36  1  0  0  0  0
 35 37  2  0  0  0  0
 35 38  1  0  0  0  0
 38 39  1  0  0  0  0
 39 40  2  0  0  0  0
 39 41  1  0  0  0  0
 39 42  1  0  0  0  0
 42 44  1  0  0  0  0
 43 44  1  0  0  0  0
 43 47  1  0  0  0  0
 43 51  1  0  0  0  0
 43 55  1  0  0  0  0
 44 45  1  0  0  0  0
 44 46  1  0  0  0  0
 47 48  1  0  0  0  0
 47 49  1  0  0  0  0
 47 50  1  0  0  0  0
 51 52  1  0  0  0  0
 51 53  1  0  0  0  0
 51 54  1  0  0  0  0
 55 56  1  0  0  0  0
 55 57  1  0  0  0  0
 55 59  1  0  0  0  0
 57 58  1  0  0  0  0
 59 60  2  0  0  0  0
 59 61  1  0  0  0  0
 61 62  1  0  0  0  0
 61 63  1  0  0  0  0
 63 64  1  0  0  0  0
 63 65  1  0  0  0  0
 63 66  1  0  0  0  0
 66 67  1  0  0  0  0
 66 68  1  0  0  0  0
 66 69  1  0  0  0  0
 69 70  2  0  0  0  0
 69 71  1  0  0  0  0
 71 72  1  0  0  0  0
 71 73  1  0  0  0  0
 73 74  1  0  0  0  0
 73 75  1  0  0  0  0
 73 76  1  0  0  0  0
 76 77  1  0  0  0  0
 76 78  1  0  0  0  0
 76 79  1  0  0  0  0
 79 80  1  0  0  0  0
 80 81  2  0  0  0  0
 80 82  1  0  0  0  0
 82 83  1  0  0  0  0
 82 84  1  0  0  0  0
 82 85  1  0  0  0  0
M  BCL ATM N_Tr2TrTrPi C_TrTrTrPi H_S N_Tr2TrTrPi C_TrTrTrPi C_TrTrTrPi C_TrTrTrPi N_TrTrTrPi2 H_S H_S N_Tr2TrTrPi C_TrTrTrPi H_S N_TrTrTrPi2 C_TeTeTeTe H_S C_TeTeTeTe H_S O_Te2Te2TeTe H_S C_TeTeTeTe H_S O_Tr2TrTrPi2 P_TeTeTeTePi O_Te2Te2TeTe O_Tr2Tr2TrPi O_Te2Te2Te2Te C_TeTeTeTe H_S O_Te2Te2TeTe C_TeTeTeTe H_S H_S O_Tr2TrTrPi2 P_TeTeTeTePi O_Te2Te2TeTe O_Tr2Tr2TrPi O_Tr2TrTrPi2 P_TeTeTeTePi O_Tr2Tr2TrPi O_Te2Te2Te2Te O_Tr2TrTrPi2 C_TeTeTeTe C_TeTeTeTe H_S H_S C_TeTeTeTe H_S H_S H_S C_TeTeTeTe H_S H_S H_S C_TeTeTeTe H_S O_Te2Te2TeTe H_S C_TrTrTrPi O_Tr2Tr2TrPi N_TrTrTrPi2 H_S C_TeTeTeTe H_S H_S C_TeTeTeTe H_S H_S C_TrTrTrPi O_Tr2Tr2TrPi N_TrTrTrPi2 H_S C_TeTeTeTe H_S H_S C_TeTeTeTe H_S H_S S_Te2Te2TeTe C_TrTrTrPi O_Tr2Tr2TrPi C_TeTeTeTe H_S H_S H_S
M  BCL BND AromaticSingleBond AromaticDoubleBond NonConjugatedSingleBond AromaticDoubleBond AromaticSingleBond AromaticDoubleBond AromaticSingleBond AromaticSingleBond AromaticSingleBond ConjugatedSingleBond NonConjugatedSingleBond NonConjugatedSingleBond AromaticDoubleBond NonConjugatedSingleBond AromaticSingleBond NonConjugatedSingleBond NonConjugatedSingleBond NonConjugatedSingleBondInRing NonConjugatedSingleBondInRing NonConjugatedSingleBond NonConjugatedSingleBond NonConjugatedSingleBondInRing NonConjugatedSingleBond NonConjugatedSingleBond NonConjugatedSingleBond NonConjugatedSingleBondInRing ConjugatedSingleBond ConjugatedSingleBond ConjugatedDoubleBond ConjugatedSingleBond NonConjugatedSingleBond NonConjugatedSingleBondInRing NonConjugatedSingleBond NonConjugatedSingleBond NonConjugatedSingleBond NonConjugatedSingleBond ConjugatedSingleBond ConjugatedSingleBond ConjugatedDoubleBond ConjugatedSingleBond ConjugatedSingleBond ConjugatedDoubleBond ConjugatedSingleBond ConjugatedSingleBond NonConjugatedSingleBond NonConjugatedSingleBond NonConjugatedSingleBond NonConjugatedSingleBond NonConjugatedSingleBond NonConjugatedSingleBond NonConjugatedSingleBond NonConjugatedSingleBond NonConjugatedSingleBond NonConjugatedSingleBond NonConjugatedSingleBond NonConjugatedSingleBond NonConjugatedSingleBond NonConjugatedSingleBond NonConjugatedSingleBond NonConjugatedSingleBond NonConjugatedSingleBond ConjugatedDoubleBond AmideSingleBond NonConjugatedSingleBond NonConjugatedSingleBond NonConjugatedSingleBond NonConjugatedSingleBond NonConjugatedSingleBond NonConjugatedSingleBond NonConjugatedSingleBond NonConjugatedSingleBond ConjugatedDoubleBond AmideSingleBond NonConjugatedSingleBond NonConjugatedSingleBond NonConjugatedSingleBond NonConjugatedSingleBond NonConjugatedSingleBond NonConjugatedSingleBond NonConjugatedSingleBond NonConjugatedSingleBond ConjugatedSingleBond ConjugatedDoubleBond NonConjugatedSingleBond NonConjugatedSingleBond NonConjugatedSingleBond NonConjugatedSingleBond
M  BCL CHI  15   S  17   S  21   S  24   S  28   R  35   R  39   R  55   S
M  BCL DBI - - - - - - - - - -
M  END
> <ConfClashScore>
0 

> <ConfOneFourInteractionScore>
-0.979567 

> <ConfScore>
-0.00662344 

> <ConfScorePBest>
0.0127295 

> <ConfTolerance>
2.31474 

$$$$
ACO.****
  PyMOL2.5          3D                             0

 85 87  0  0  0  0  0  0  0  0999 V2000
    4.8926    1.0764  -10.6396 N   0  0  0  1  0  0  0  0  0  0  0  0
    3.8512    1.9155  -10.5238 C   0  0  0  1  0  0  0  0  0  0  0  0
    3.8238    2.6958  -11.2107 H   0  0  0  1  0  0  0  0  0  0  0  0
    2.8517    1.8838   -9.6509 N   0  0  0  1  0  0  0  0  0  0  0  0
    2.9677    0.8493   -8.8171 C   0  0  0  1  0  0  0  0  0  0  0  0
    3.9914   -0.1077   -8.8074 C   0  0  0  1  0  0  0  0  0  0  0  0
    4.9768    0.0586   -9.7760 C   0  0  0  1  0  0  0  0  0  0  0  0
    6.0534   -0.7797   -9.8987 N   0  0  0  1  0  0  0  0  0  0  0  0
    6.1887   -1.5016   -9.2498 H   0  0  0  1  0  0  0  0  0  0  0  0
    6.6881   -0.6576  -10.6352 H   0  0  0  1  0  0  0  0  0  0  0  0
    3.7828   -1.0239   -7.7882 N   0  0  0  1  0  0  0  0  0  0  0  0
    2.6759   -0.6142   -7.2307 C   0  0  0  1  0  0  0  0  0  0  0  0
    2.2418   -1.1048   -6.4229 H   0  0  0  1  0  0  0  0  0  0  0  0
    2.1326    0.5033   -7.7863 N   0  0  0  1  0  0  0  0  0  0  0  0
    0.8344    1.0808   -7.4367 C   0  0  0  1  0  0  0  0  0  0  0  0
    0.1965    1.0719   -8.2958 H   0  0  0  1  0  0  0  0  0  0  0  0
    0.1948    0.3085   -6.2836 C   0  0  0  1  0  0  0  0  0  0  0  0
    0.4838   -0.7217   -6.2959 H   0  0  0  1  0  0  0  0  0  0  0  0
   -1.2316    0.4046   -6.3189 O   0  0  0  1  0  0  0  0  0  0  0  0
   -1.4964    0.9773   -7.0424 H   0  0  0  1  0  0  0  0  0  0  0  0
    0.7648    1.0253   -5.0869 C   0  0  0  1  0  0  0  0  0  0  0  0
    1.7591    0.6925   -4.8736 H   0  0  0  1  0  0  0  0  0  0  0  0
   -0.0689    0.8378   -3.9177 O   0  0  0  1  0  0  0  0  0  0  0  0
    0.5872   -0.0392   -2.6970 P   0  0  0  1  0  0  0  0  0  0  0  0
    1.7782    0.8303   -1.9793 O   0  0  0  0  0  0  0  0  0  0  0  0
   -0.3457   -0.4926   -1.6412 O   0  0  0  1  0  0  0  0  0  0  0  0
    1.2446   -1.2763   -3.5105 O   0  5  0  1  0  0  0  0  0  0  0  0
    0.7559    2.4736   -5.5413 C   0  0  0  1  0  0  0  0  0  0  0  0
   -0.1935    2.9232   -5.3380 H   0  0  0  1  0  0  0  0  0  0  0  0
    0.9953    2.4346   -6.9324 O   0  0  0  1  0  0  0  0  0  0  0  0
    1.8311    3.2442   -4.8485 C   0  0  0  1  0  0  0  0  0  0  0  0
    1.8236    3.0201   -3.8022 H   0  0  0  1  0  0  0  0  0  0  0  0
    1.6764    4.2935   -4.9901 H   0  0  0  1  0  0  0  0  0  0  0  0
    3.0999    2.8492   -5.4291 O   0  0  0  1  0  0  0  0  0  0  0  0
    4.5052    3.5964   -5.0894 P   0  0  0  1  0  0  0  0  0  0  0  0
    5.6235    3.0431   -5.8899 O   0  0  0  0  0  0  0  0  0  0  0  0
    4.5753    3.5552   -3.6405 O   0  0  0  1  0  0  0  0  0  0  0  0
    4.3004    5.0980   -5.6246 O   0  0  0  1  0  0  0  0  0  0  0  0
    2.9895    5.9009   -6.1960 P   0  0  0  1  0  0  0  0  0  0  0  0
    2.9103    4.6844   -7.0352 O   0  0  0  1  0  0  0  0  0  0  0  0
    1.9298    6.3348   -5.0502 O   0  5  0  1  0  0  0  0  0  0  0  0
    3.2960    7.0183   -7.2557 O   0  0  0  1  0  0  0  0  0  0  0  0
    3.0826    8.3736   -9.1934 C   0  0  0  1  0  0  0  0  0  0  0  0
    2.5016    7.2167   -8.4490 C   0  0  0  1  0  0  0  0  0  0  0  0
    1.4876    7.4282   -8.1807 H   0  0  0  1  0  0  0  0  0  0  0  0
    2.5339    6.3379   -9.0586 H   0  0  0  1  0  0  0  0  0  0  0  0
    2.9693    9.6330   -8.3299 C   0  0  0  1  0  0  0  0  0  0  0  0
    3.5786   10.4077   -8.7464 H   0  0  0  1  0  0  0  0  0  0  0  0
    3.3003    9.4148   -7.3361 H   0  0  0  1  0  0  0  0  0  0  0  0
    1.9497    9.9567   -8.3038 H   0  0  0  1  0  0  0  0  0  0  0  0
    2.3577    8.5927  -10.5353 C   0  0  0  1  0  0  0  0  0  0  0  0
    1.3758    8.9764  -10.3524 H   0  0  0  1  0  0  0  0  0  0  0  0
    2.2850    7.6615  -11.0573 H   0  0  0  1  0  0  0  0  0  0  0  0
    2.9090    9.2924  -11.1281 H   0  0  0  1  0  0  0  0  0  0  0  0
    4.5517    8.1019   -9.4490 C   0  0  0  1  0  0  0  0  0  0  0  0
    5.0628    8.1415   -8.5098 H   0  0  0  1  0  0  0  0  0  0  0  0
    4.6932    6.7898  -10.0031 O   0  0  0  1  0  0  0  0  0  0  0  0
    4.0596    6.6725  -10.7148 H   0  0  0  1  0  0  0  0  0  0  0  0
    5.1021    9.2138  -10.3277 C   0  0  0  1  0  0  0  0  0  0  0  0
    5.2123   10.3644   -9.9070 O   0  0  0  1  0  0  0  0  0  0  0  0
    5.4521    8.8540  -11.5727 N   0  0  0  1  0  0  0  0  0  0  0  0
    5.2611    7.9353  -11.8556 H   0  0  0  1  0  0  0  0  0  0  0  0
    6.0972    9.7412  -12.5291 C   0  0  0  1  0  0  0  0  0  0  0  0
    6.1846   10.7131  -12.0902 H   0  0  0  1  0  0  0  0  0  0  0  0
    5.4887    9.7993  -13.4073 H   0  0  0  1  0  0  0  0  0  0  0  0
    7.4752    9.2630  -12.9254 C   0  0  0  1  0  0  0  0  0  0  0  0
    7.3484    8.4873  -13.6514 H   0  0  0  1  0  0  0  0  0  0  0  0
    7.9385    8.8598  -12.0491 H   0  0  0  1  0  0  0  0  0  0  0  0
    8.4293   10.2839  -13.5141 C   0  0  0  1  0  0  0  0  0  0  0  0
    8.1025   10.9866  -14.4696 O   0  0  0  1  0  0  0  0  0  0  0  0
    9.6340   10.3629  -12.9269 N   0  0  0  1  0  0  0  0  0  0  0  0
    9.7967    9.8464  -12.1101 H   0  0  0  1  0  0  0  0  0  0  0  0
   10.7056   11.1881  -13.4606 C   0  0  0  1  0  0  0  0  0  0  0  0
   11.3539   11.4560  -12.6526 H   0  0  0  1  0  0  0  0  0  0  0  0
   10.2697   12.0722  -13.8769 H   0  0  0  1  0  0  0  0  0  0  0  0
   11.5407   10.5234  -14.5346 C   0  0  0  1  0  0  0  0  0  0  0  0
   10.9271   10.3426  -15.3924 H   0  0  0  1  0  0  0  0  0  0  0  0
   11.9149    9.5933  -14.1607 H   0  0  0  1  0  0  0  0  0  0  0  0
   12.9348   11.5703  -15.0159 S   0  0  0  1  0  0  0  0  0  0  0  0
   14.2055   10.9998  -13.9656 C   0  0  0  1  0  0  0  0  0  0  0  0
   14.0877   10.0637  -13.2274 O   0  0  0  1  0  0  0  0  0  0  0  0
   15.4999   11.7550  -14.1599 C   0  0  0  1  0  0  0  0  0  0  0  0
   15.7159   11.8305  -15.2052 H   0  0  0  1  0  0  0  0  0  0  0  0
   16.2943   11.2330  -13.6687 H   0  0  0  1  0  0  0  0  0  0  0  0
   15.4060   12.7362  -13.7436 H   0  0  0  1  0  0  0  0  0  0  0  0
  1  2  1  0  0  0  0
  1  7  2  0  0  0  0
  2  3  1  0  0  0  0
  2  4  2  0  0  0  0
  4  5  1  0  0  0  0
  5  6  2  0  0  0  0
  5 14  1  0  0  0  0
  6  7  1  0  0  0  0
  6 11  1  0  0  0  0
  7  8  1  0  0  0  0
  8  9  1  0  0  0  0
  8 10  1  0  0  0  0
 11 12  2  0  0  0  0
 12 13  1  0  0  0  0
 12 14  1  0  0  0  0
 14 15  1  0  0  0  0
 15 16  1  0  0  0  0
 15 17  1  0  0  0  0
 15 30  1  0  0  0  0
 17 18  1  0  0  0  0
 17 19  1  0  0  0  0
 17 21  1  0  0  0  0
 19 20  1  0  0  0  0
 21 22  1  0  0  0  0
 21 23  1  0  0  0  0
 21 28  1  0  0  0  0
 23 24  1  0  0  0  0
 24 25  1  0  0  0  0
 24 26  2  0  0  0  0
 24 27  1  0  0  0  0
 28 29  1  0  0  0  0
 28 30  1  0  0  0  0
 28 31  1  0  0  0  0
 31 32  1  0  0  0  0
 31 33  1  0  0  0  0
 31 34  1  0  0  0  0
 34 35  1  0  0  0  0
 35 36  1  0  0  0  0
 35 37  2  0  0  0  0
 35 38  1  0  0  0  0
 38 39  1  0  0  0  0
 39 40  2  0  0  0  0
 39 41  1  0  0  0  0
 39 42  1  0  0  0  0
 42 44  1  0  0  0  0
 43 44  1  0  0  0  0
 43 47  1  0  0  0  0
 43 51  1  0  0  0  0
 43 55  1  0  0  0  0
 44 45  1  0  0  0  0
 44 46  1  0  0  0  0
 47 48  1  0  0  0  0
 47 49  1  0  0  0  0
 47 50  1  0  0  0  0
 51 52  1  0  0  0  0
 51 53  1  0  0  0  0
 51 54  1  0  0  0  0
 55 56  1  0  0  0  0
 55 57  1  0  0  0  0
 55 59  1  0  0  0  0
 57 58  1  0  0  0  0
 59 60  2  0  0  0  0
 59 61  1  0  0  0  0
 61 62  1  0  0  0  0
 61 63  1  0  0  0  0
 63 64  1  0  0  0  0
 63 65  1  0  0  0  0
 63 66  1  0  0  0  0
 66 67  1  0  0  0  0
 66 68  1  0  0  0  0
 66 69  1  0  0  0  0
 69 70  2  0  0  0  0
 69 71  1  0  0  0  0
 71 72  1  0  0  0  0
 71 73  1  0  0  0  0
 73 74  1  0  0  0  0
 73 75  1  0  0  0  0
 73 76  1  0  0  0  0
 76 77  1  0  0  0  0
 76 78  1  0  0  0  0
 76 79  1  0  0  0  0
 79 80  1  0  0  0  0
 80 81  2  0  0  0  0
 80 82  1  0  0  0  0
 82 83  1  0  0  0  0
 82 84  1  0  0  0  0
 82 85  1  0  0  0  0
M  BCL ATM N_Tr2TrTrPi C_TrTrTrPi H_S N_Tr2TrTrPi C_TrTrTrPi C_TrTrTrPi C_TrTrTrPi N_TrTrTrPi2 H_S H_S N_Tr2TrTrPi C_TrTrTrPi H_S N_TrTrTrPi2 C_TeTeTeTe H_S C_TeTeTeTe H_S O_Te2Te2TeTe H_S C_TeTeTeTe H_S O_Tr2TrTrPi2 P_TeTeTeTePi O_Te2Te2TeTe O_Tr2Tr2TrPi O_Te2Te2Te2Te C_TeTeTeTe H_S O_Te2Te2TeTe C_TeTeTeTe H_S H_S O_Tr2TrTrPi2 P_TeTeTeTePi O_Te2Te2TeTe O_Tr2Tr2TrPi O_Tr2TrTrPi2 P_TeTeTeTePi O_Tr2Tr2TrPi O_Te2Te2Te2Te O_Tr2TrTrPi2 C_TeTeTeTe C_TeTeTeTe H_S H_S C_TeTeTeTe H_S H_S H_S C_TeTeTeTe H_S H_S H_S C_TeTeTeTe H_S O_Te2Te2TeTe H_S C_TrTrTrPi O_Tr2Tr2TrPi N_TrTrTrPi2 H_S C_TeTeTeTe H_S H_S C_TeTeTeTe H_S H_S C_TrTrTrPi O_Tr2Tr2TrPi N_TrTrTrPi2 H_S C_TeTeTeTe H_S H_S C_TeTeTeTe H_S H_S S_Te2Te2TeTe C_TrTrTrPi O_Tr2Tr2TrPi C_TeTeTeTe H_S H_S H_S
M  BCL BND AromaticSingleBond AromaticDoubleBond NonConjugatedSingleBond AromaticDoubleBond AromaticSingleBond AromaticDoubleBond AromaticSingleBond AromaticSingleBond AromaticSingleBond ConjugatedSingleBond NonConjugatedSingleBond NonConjugatedSingleBond AromaticDoubleBond NonConjugatedSingleBond AromaticSingleBond NonConjugatedSingleBond NonConjugatedSingleBond NonConjugatedSingleBondInRing NonConjugatedSingleBondInRing NonConjugatedSingleBond NonConjugatedSingleBond NonConjugatedSingleBondInRing NonConjugatedSingleBond NonConjugatedSingleBond NonConjugatedSingleBond NonConjugatedSingleBondInRing ConjugatedSingleBond ConjugatedSingleBond ConjugatedDoubleBond ConjugatedSingleBond NonConjugatedSingleBond NonConjugatedSingleBondInRing NonConjugatedSingleBond NonConjugatedSingleBond NonConjugatedSingleBond NonConjugatedSingleBond ConjugatedSingleBond ConjugatedSingleBond ConjugatedDoubleBond ConjugatedSingleBond ConjugatedSingleBond ConjugatedDoubleBond ConjugatedSingleBond ConjugatedSingleBond NonConjugatedSingleBond NonConjugatedSingleBond NonConjugatedSingleBond NonConjugatedSingleBond NonConjugatedSingleBond NonConjugatedSingleBond NonConjugatedSingleBond NonConjugatedSingleBond NonConjugatedSingleBond NonConjugatedSingleBond NonConjugatedSingleBond NonConjugatedSingleBond NonConjugatedSingleBond NonConjugatedSingleBond NonConjugatedSingleBond NonConjugatedSingleBond NonConjugatedSingleBond ConjugatedDoubleBond AmideSingleBond NonConjugatedSingleBond NonConjugatedSingleBond NonConjugatedSingleBond NonConjugatedSingleBond NonConjugatedSingleBond NonConjugatedSingleBond NonConjugatedSingleBond NonConjugatedSingleBond ConjugatedDoubleBond AmideSingleBond NonConjugatedSingleBond NonConjugatedSingleBond NonConjugatedSingleBond NonConjugatedSingleBond NonConjugatedSingleBond NonConjugatedSingleBond NonConjugatedSingleBond NonConjugatedSingleBond ConjugatedSingleBond ConjugatedDoubleBond NonConjugatedSingleBond NonConjugatedSingleBond NonConjugatedSingleBond NonConjugatedSingleBond
M  BCL CHI  15   S  17   S  21   S  24   S  28   R  35   R  39   R  55   S
M  BCL DBI - - - - - - - - - -
M  END
> <ConfClashScore>
0 

> <ConfOneFourInteractionScore>
-0.976308 

> <ConfScore>
-0.00191674 

> <ConfScorePBest>
0.0126265 

> <ConfTolerance>
2.3635 

$$$$
ACO.****
  PyMOL2.5          3D                             0

 85 87  0  0  0  0  0  0  0  0999 V2000
    4.8860    1.0597  -10.6294 N   0  0  0  1  0  0  0  0  0  0  0  0
    3.8389    1.8933  -10.5252 C   0  0  0  1  0  0  0  0  0  0  0  0
    3.8115    2.6696  -11.2167 H   0  0  0  1  0  0  0  0  0  0  0  0
    2.8338    1.8604   -9.6588 N   0  0  0  1  0  0  0  0  0  0  0  0
    2.9504    0.8312   -8.8185 C   0  0  0  1  0  0  0  0  0  0  0  0
    3.9796   -0.1196   -8.7967 C   0  0  0  1  0  0  0  0  0  0  0  0
    4.9705    0.0473   -9.7597 C   0  0  0  1  0  0  0  0  0  0  0  0
    6.0890   -0.7632   -9.9207 N   0  0  0  1  0  0  0  0  0  0  0  0
    6.7111   -0.5986  -10.6598 H   0  0  0  1  0  0  0  0  0  0  0  0
    6.2551   -1.4990   -9.2950 H   0  0  0  1  0  0  0  0  0  0  0  0
    3.7696   -1.0314   -7.7739 N   0  0  0  1  0  0  0  0  0  0  0  0
    2.6567   -0.6253   -7.2261 C   0  0  0  1  0  0  0  0  0  0  0  0
    2.2201   -1.1139   -6.4185 H   0  0  0  1  0  0  0  0  0  0  0  0
    2.1105    0.4860   -7.7914 N   0  0  0  1  0  0  0  0  0  0  0  0
    0.8702    1.1775   -7.3837 C   0  0  0  1  0  0  0  0  0  0  0  0
    0.3202    1.4676   -8.2545 H   0  0  0  1  0  0  0  0  0  0  0  0
    0.0114    0.2759   -6.4614 C   0  0  0  1  0  0  0  0  0  0  0  0
    0.6248   -0.2987   -5.7993 H   0  0  0  1  0  0  0  0  0  0  0  0
   -0.8138   -0.5942   -7.2163 O   0  0  0  1  0  0  0  0  0  0  0  0
   -0.9999   -1.3843   -6.7037 H   0  0  0  1  0  0  0  0  0  0  0  0
   -0.8333    1.3192   -5.6835 C   0  0  0  1  0  0  0  0  0  0  0  0
   -0.9324    1.0379   -4.6559 H   0  0  0  1  0  0  0  0  0  0  0  0
   -2.1440    1.4605   -6.2731 O   0  0  0  1  0  0  0  0  0  0  0  0
   -3.3977    2.1901   -5.5080 P   0  0  0  1  0  0  0  0  0  0  0  0
   -2.9296    3.7181   -5.1399 O   0  0  0  0  0  0  0  0  0  0  0  0
   -4.5373    2.1843   -6.4523 O   0  0  0  1  0  0  0  0  0  0  0  0
   -3.7439    1.4373   -4.1160 O   0  5  0  1  0  0  0  0  0  0  0  0
   -0.0287    2.6268   -5.8181 C   0  0  0  1  0  0  0  0  0  0  0  0
   -0.6059    3.3588   -6.3433 H   0  0  0  1  0  0  0  0  0  0  0  0
    1.1662    2.3221   -6.5557 O   0  0  0  1  0  0  0  0  0  0  0  0
    0.3221    3.1428   -4.4808 C   0  0  0  1  0  0  0  0  0  0  0  0
    0.9733    3.9851   -4.5879 H   0  0  0  1  0  0  0  0  0  0  0  0
    0.8198    2.3748   -3.9263 H   0  0  0  1  0  0  0  0  0  0  0  0
   -0.8722    3.5503   -3.7661 O   0  0  0  1  0  0  0  0  0  0  0  0
   -1.1899    5.0990   -3.3720 P   0  0  0  1  0  0  0  0  0  0  0  0
   -2.0073    5.7151   -4.4484 O   0  0  0  0  0  0  0  0  0  0  0  0
    0.0713    5.7430   -2.9275 O   0  0  0  1  0  0  0  0  0  0  0  0
   -2.0812    4.8300   -2.0489 O   0  0  0  1  0  0  0  0  0  0  0  0
   -1.4023    4.5007   -0.5928 P   0  0  0  1  0  0  0  0  0  0  0  0
   -1.9589    3.2998    0.0693 O   0  0  0  1  0  0  0  0  0  0  0  0
    0.1853    4.2873   -0.8343 O   0  5  0  1  0  0  0  0  0  0  0  0
   -1.4901    5.7408    0.3720 O   0  0  0  1  0  0  0  0  0  0  0  0
    0.2492    7.2520    0.9339 C   0  0  0  1  0  0  0  0  0  0  0  0
   -0.8961    7.0056    0.0078 C   0  0  0  1  0  0  0  0  0  0  0  0
   -1.6184    7.7890    0.1051 H   0  0  0  1  0  0  0  0  0  0  0  0
   -0.5458    6.9663   -1.0025 H   0  0  0  1  0  0  0  0  0  0  0  0
    1.2416    6.0894    0.8441 C   0  0  0  1  0  0  0  0  0  0  0  0
    2.0265    6.2339    1.5568 H   0  0  0  1  0  0  0  0  0  0  0  0
    1.6574    6.0510   -0.1411 H   0  0  0  1  0  0  0  0  0  0  0  0
    0.7344    5.1709    1.0538 H   0  0  0  1  0  0  0  0  0  0  0  0
   -0.3090    7.4223    2.3467 C   0  0  0  1  0  0  0  0  0  0  0  0
   -0.7706    6.5095    2.6608 H   0  0  0  1  0  0  0  0  0  0  0  0
   -1.0348    8.2085    2.3508 H   0  0  0  1  0  0  0  0  0  0  0  0
    0.4876    7.6680    3.0175 H   0  0  0  1  0  0  0  0  0  0  0  0
    0.9792    8.5148    0.5015 C   0  0  0  1  0  0  0  0  0  0  0  0
    0.2775    9.3223    0.4781 H   0  0  0  1  0  0  0  0  0  0  0  0
    1.9909    8.7815    1.4808 O   0  0  0  1  0  0  0  0  0  0  0  0
    2.3671    7.9529    1.7868 H   0  0  0  1  0  0  0  0  0  0  0  0
    1.6275    8.3978   -0.8643 C   0  0  0  1  0  0  0  0  0  0  0  0
    0.9576    8.1500   -1.8660 O   0  0  0  1  0  0  0  0  0  0  0  0
    2.9414    8.6661   -0.9248 N   0  0  0  1  0  0  0  0  0  0  0  0
    3.4067    8.9385   -0.1064 H   0  0  0  1  0  0  0  0  0  0  0  0
    3.6990    8.5664   -2.1634 C   0  0  0  1  0  0  0  0  0  0  0  0
    3.2810    7.7818   -2.7587 H   0  0  0  1  0  0  0  0  0  0  0  0
    4.7154    8.3316   -1.9256 H   0  0  0  1  0  0  0  0  0  0  0  0
    3.6723    9.8604   -2.9714 C   0  0  0  1  0  0  0  0  0  0  0  0
    2.6557   10.1315   -3.1662 H   0  0  0  1  0  0  0  0  0  0  0  0
    4.1847    9.7061   -3.8979 H   0  0  0  1  0  0  0  0  0  0  0  0
    4.3457   10.9780   -2.2140 C   0  0  0  1  0  0  0  0  0  0  0  0
    4.7465   10.8084   -1.0632 O   0  0  0  1  0  0  0  0  0  0  0  0
    4.4945   12.1660   -2.8358 N   0  0  0  1  0  0  0  0  0  0  0  0
    4.2827   12.2489   -3.7890 H   0  0  0  1  0  0  0  0  0  0  0  0
    4.9686   13.3237   -2.0946 C   0  0  0  1  0  0  0  0  0  0  0  0
    4.9365   13.0876   -1.0515 H   0  0  0  1  0  0  0  0  0  0  0  0
    4.3087   14.1415   -2.2961 H   0  0  0  1  0  0  0  0  0  0  0  0
    6.3727   13.7581   -2.4350 C   0  0  0  1  0  0  0  0  0  0  0  0
    6.6745   14.5464   -1.7774 H   0  0  0  1  0  0  0  0  0  0  0  0
    6.4066   14.1044   -3.4468 H   0  0  0  1  0  0  0  0  0  0  0  0
    7.4832   12.3442   -2.2389 S   0  0  0  1  0  0  0  0  0  0  0  0
    8.0021   12.5089   -0.5842 C   0  0  0  1  0  0  0  0  0  0  0  0
    7.6180   13.4000    0.1631 O   0  0  0  1  0  0  0  0  0  0  0  0
    8.8795   11.3659   -0.0734 C   0  0  0  1  0  0  0  0  0  0  0  0
    9.8983   11.5493   -0.3441 H   0  0  0  1  0  0  0  0  0  0  0  0
    8.5548   10.4447   -0.5103 H   0  0  0  1  0  0  0  0  0  0  0  0
    8.7993   11.3038    0.9918 H   0  0  0  1  0  0  0  0  0  0  0  0
  1  2  1  0  0  0  0
  1  7  2  0  0  0  0
  2  3  1  0  0  0  0
  2  4  2  0  0  0  0
  4  5  1  0  0  0  0
  5  6  2  0  0  0  0
  5 14  1  0  0  0  0
  6  7  1  0  0  0  0
  6 11  1  0  0  0  0
  7  8  1  0  0  0  0
  8  9  1  0  0  0  0
  8 10  1  0  0  0  0
 11 12  2  0  0  0  0
 12 13  1  0  0  0  0
 12 14  1  0  0  0  0
 14 15  1  0  0  0  0
 15 16  1  0  0  0  0
 15 17  1  0  0  0  0
 15 30  1  0  0  0  0
 17 18  1  0  0  0  0
 17 19  1  0  0  0  0
 17 21  1  0  0  0  0
 19 20  1  0  0  0  0
 21 22  1  0  0  0  0
 21 23  1  0  0  0  0
 21 28  1  0  0  0  0
 23 24  1  0  0  0  0
 24 25  1  0  0  0  0
 24 26  2  0  0  0  0
 24 27  1  0  0  0  0
 28 29  1  0  0  0  0
 28 30  1  0  0  0  0
 28 31  1  0  0  0  0
 31 32  1  0  0  0  0
 31 33  1  0  0  0  0
 31 34  1  0  0  0  0
 34 35  1  0  0  0  0
 35 36  1  0  0  0  0
 35 37  2  0  0  0  0
 35 38  1  0  0  0  0
 38 39  1  0  0  0  0
 39 40  2  0  0  0  0
 39 41  1  0  0  0  0
 39 42  1  0  0  0  0
 42 44  1  0  0  0  0
 43 44  1  0  0  0  0
 43 47  1  0  0  0  0
 43 51  1  0  0  0  0
 43 55  1  0  0  0  0
 44 45  1  0  0  0  0
 44 46  1  0  0  0  0
 47 48  1  0  0  0  0
 47 49  1  0  0  0  0
 47 50  1  0  0  0  0
 51 52  1  0  0  0  0
 51 53  1  0  0  0  0
 51 54  1  0  0  0  0
 55 56  1  0  0  0  0
 55 57  1  0  0  0  0
 55 59  1  0  0  0  0
 57 58  1  0  0  0  0
 59 60  2  0  0  0  0
 59 61  1  0  0  0  0
 61 62  1  0  0  0  0
 61 63  1  0  0  0  0
 63 64  1  0  0  0  0
 63 65  1  0  0  0  0
 63 66  1  0  0  0  0
 66 67  1  0  0  0  0
 66 68  1  0  0  0  0
 66 69  1  0  0  0  0
 69 70  2  0  0  0  0
 69 71  1  0  0  0  0
 71 72  1  0  0  0  0
 71 73  1  0  0  0  0
 73 74  1  0  0  0  0
 73 75  1  0  0  0  0
 73 76  1  0  0  0  0
 76 77  1  0  0  0  0
 76 78  1  0  0  0  0
 76 79  1  0  0  0  0
 79 80  1  0  0  0  0
 80 81  2  0  0  0  0
 80 82  1  0  0  0  0
 82 83  1  0  0  0  0
 82 84  1  0  0  0  0
 82 85  1  0  0  0  0
M  BCL ATM N_Tr2TrTrPi C_TrTrTrPi H_S N_Tr2TrTrPi C_TrTrTrPi C_TrTrTrPi C_TrTrTrPi N_TrTrTrPi2 H_S H_S N_Tr2TrTrPi C_TrTrTrPi H_S N_TrTrTrPi2 C_TeTeTeTe H_S C_TeTeTeTe H_S O_Te2Te2TeTe H_S C_TeTeTeTe H_S O_Tr2TrTrPi2 P_TeTeTeTePi O_Te2Te2TeTe O_Tr2Tr2TrPi O_Te2Te2Te2Te C_TeTeTeTe H_S O_Te2Te2TeTe C_TeTeTeTe H_S H_S O_Tr2TrTrPi2 P_TeTeTeTePi O_Te2Te2TeTe O_Tr2Tr2TrPi O_Tr2TrTrPi2 P_TeTeTeTePi O_Tr2Tr2TrPi O_Te2Te2Te2Te O_Tr2TrTrPi2 C_TeTeTeTe C_TeTeTeTe H_S H_S C_TeTeTeTe H_S H_S H_S C_TeTeTeTe H_S H_S H_S C_TeTeTeTe H_S O_Te2Te2TeTe H_S C_TrTrTrPi O_Tr2Tr2TrPi N_TrTrTrPi2 H_S C_TeTeTeTe H_S H_S C_TeTeTeTe H_S H_S C_TrTrTrPi O_Tr2Tr2TrPi N_TrTrTrPi2 H_S C_TeTeTeTe H_S H_S C_TeTeTeTe H_S H_S S_Te2Te2TeTe C_TrTrTrPi O_Tr2Tr2TrPi C_TeTeTeTe H_S H_S H_S
M  BCL BND AromaticSingleBond AromaticDoubleBond NonConjugatedSingleBond AromaticDoubleBond AromaticSingleBond AromaticDoubleBond AromaticSingleBond AromaticSingleBond AromaticSingleBond ConjugatedSingleBond NonConjugatedSingleBond NonConjugatedSingleBond AromaticDoubleBond NonConjugatedSingleBond AromaticSingleBond NonConjugatedSingleBond NonConjugatedSingleBond NonConjugatedSingleBondInRing NonConjugatedSingleBondInRing NonConjugatedSingleBond NonConjugatedSingleBond NonConjugatedSingleBondInRing NonConjugatedSingleBond NonConjugatedSingleBond NonConjugatedSingleBond NonConjugatedSingleBondInRing ConjugatedSingleBond ConjugatedSingleBond ConjugatedDoubleBond ConjugatedSingleBond NonConjugatedSingleBond NonConjugatedSingleBondInRing NonConjugatedSingleBond NonConjugatedSingleBond NonConjugatedSingleBond NonConjugatedSingleBond ConjugatedSingleBond ConjugatedSingleBond ConjugatedDoubleBond ConjugatedSingleBond ConjugatedSingleBond ConjugatedDoubleBond ConjugatedSingleBond ConjugatedSingleBond NonConjugatedSingleBond NonConjugatedSingleBond NonConjugatedSingleBond NonConjugatedSingleBond NonConjugatedSingleBond NonConjugatedSingleBond NonConjugatedSingleBond NonConjugatedSingleBond NonConjugatedSingleBond NonConjugatedSingleBond NonConjugatedSingleBond NonConjugatedSingleBond NonConjugatedSingleBond NonConjugatedSingleBond NonConjugatedSingleBond NonConjugatedSingleBond NonConjugatedSingleBond ConjugatedDoubleBond AmideSingleBond NonConjugatedSingleBond NonConjugatedSingleBond NonConjugatedSingleBond NonConjugatedSingleBond NonConjugatedSingleBond NonConjugatedSingleBond NonConjugatedSingleBond NonConjugatedSingleBond ConjugatedDoubleBond AmideSingleBond NonConjugatedSingleBond NonConjugatedSingleBond NonConjugatedSingleBond NonConjugatedSingleBond NonConjugatedSingleBond NonConjugatedSingleBond NonConjugatedSingleBond NonConjugatedSingleBond ConjugatedSingleBond ConjugatedDoubleBond NonConjugatedSingleBond NonConjugatedSingleBond NonConjugatedSingleBond NonConjugatedSingleBond
M  BCL CHI  15   S  17   S  21   S  24   S  28   R  35   R  39   R  55   S
M  BCL DBI - - - - - - - - - -
M  END
> <ConfClashScore>
0 

> <ConfOneFourInteractionScore>
-0.984499 

> <ConfScore>
-0.00157965 

> <ConfScorePBest>
0.0125235 

> <ConfTolerance>
2.38234 

$$$$
ACO.****
  PyMOL2.5          3D                             0

 85 87  0  0  0  0  0  0  0  0999 V2000
    4.8921    1.0781  -10.6368 N   0  0  0  1  0  0  0  0  0  0  0  0
    3.8334    1.8978  -10.5403 C   0  0  0  1  0  0  0  0  0  0  0  0
    3.8037    2.6770  -11.2284 H   0  0  0  1  0  0  0  0  0  0  0  0
    2.8194    1.8480   -9.6852 N   0  0  0  1  0  0  0  0  0  0  0  0
    2.9399    0.8164   -8.8484 C   0  0  0  1  0  0  0  0  0  0  0  0
    3.9808   -0.1213   -8.8196 C   0  0  0  1  0  0  0  0  0  0  0  0
    4.9799    0.0627   -9.7708 C   0  0  0  1  0  0  0  0  0  0  0  0
    6.0739   -0.7556   -9.8736 N   0  0  0  1  0  0  0  0  0  0  0  0
    6.1976   -1.4905   -9.2371 H   0  0  0  1  0  0  0  0  0  0  0  0
    6.7326   -0.6062  -10.5836 H   0  0  0  1  0  0  0  0  0  0  0  0
    3.7712   -1.0406   -7.8034 N   0  0  0  1  0  0  0  0  0  0  0  0
    2.6472   -0.6512   -7.2660 C   0  0  0  1  0  0  0  0  0  0  0  0
    2.2081   -1.1491   -6.4655 H   0  0  0  1  0  0  0  0  0  0  0  0
    2.0932    0.4557   -7.8321 N   0  0  0  1  0  0  0  0  0  0  0  0
    0.9800    1.2528   -7.2831 C   0  0  0  1  0  0  0  0  0  0  0  0
    0.2963    1.4997   -8.0682 H   0  0  0  1  0  0  0  0  0  0  0  0
    0.2633    0.4760   -6.1770 C   0  0  0  1  0  0  0  0  0  0  0  0
    0.3335   -0.5807   -6.3303 H   0  0  0  1  0  0  0  0  0  0  0  0
   -1.1124    0.8535   -6.0772 O   0  0  0  1  0  0  0  0  0  0  0  0
   -1.6573    0.1990   -6.5204 H   0  0  0  1  0  0  0  0  0  0  0  0
    1.0536    0.9167   -4.9537 C   0  0  0  1  0  0  0  0  0  0  0  0
    1.9155    0.2966   -4.8210 H   0  0  0  1  0  0  0  0  0  0  0  0
    0.2290    0.8557   -3.7699 O   0  0  0  1  0  0  0  0  0  0  0  0
    0.9398    1.0586   -2.3059 P   0  0  0  1  0  0  0  0  0  0  0  0
   -0.3065    1.0006   -1.2415 O   0  0  0  0  0  0  0  0  0  0  0  0
    2.0379    0.1623   -1.8800 O   0  0  0  1  0  0  0  0  0  0  0  0
    1.3529    2.6143   -2.1232 O   0  5  0  1  0  0  0  0  0  0  0  0
    1.4541    2.3007   -5.2301 C   0  0  0  1  0  0  0  0  0  0  0  0
    0.7479    2.9816   -4.8030 H   0  0  0  1  0  0  0  0  0  0  0  0
    1.4778    2.4435   -6.6623 O   0  0  0  1  0  0  0  0  0  0  0  0
    2.7936    2.5645   -4.6700 C   0  0  0  1  0  0  0  0  0  0  0  0
    2.7162    2.6743   -3.6085 H   0  0  0  1  0  0  0  0  0  0  0  0
    3.1818    3.4665   -5.0950 H   0  0  0  1  0  0  0  0  0  0  0  0
    3.6936    1.4683   -4.9723 O   0  0  0  1  0  0  0  0  0  0  0  0
    4.9920    1.8395   -5.8395 P   0  0  0  1  0  0  0  0  0  0  0  0
    4.5694    2.6644   -6.9976 O   0  0  0  0  0  0  0  0  0  0  0  0
    5.7612    0.6200   -6.0899 O   0  0  0  1  0  0  0  0  0  0  0  0
    5.8343    2.7070   -4.7863 O   0  0  0  1  0  0  0  0  0  0  0  0
    6.5248    2.2734   -3.3634 P   0  0  0  1  0  0  0  0  0  0  0  0
    5.4379    2.1514   -2.3663 O   0  0  0  1  0  0  0  0  0  0  0  0
    7.4013    0.9453   -3.6672 O   0  5  0  1  0  0  0  0  0  0  0  0
    7.4490    3.5369   -3.1348 O   0  0  0  1  0  0  0  0  0  0  0  0
    7.9568    5.6606   -4.0608 C   0  0  0  1  0  0  0  0  0  0  0  0
    6.9008    4.8493   -3.3849 C   0  0  0  1  0  0  0  0  0  0  0  0
    6.6230    5.3105   -2.4602 H   0  0  0  1  0  0  0  0  0  0  0  0
    6.0412    4.7707   -4.0172 H   0  0  0  1  0  0  0  0  0  0  0  0
    7.6090    7.1513   -4.0956 C   0  0  0  1  0  0  0  0  0  0  0  0
    8.4012    7.6920   -4.5700 H   0  0  0  1  0  0  0  0  0  0  0  0
    7.4808    7.5109   -3.0960 H   0  0  0  1  0  0  0  0  0  0  0  0
    6.7019    7.2929   -4.6451 H   0  0  0  1  0  0  0  0  0  0  0  0
    8.1425    5.1451   -5.5009 C   0  0  0  1  0  0  0  0  0  0  0  0
    7.2009    5.1579   -6.0091 H   0  0  0  1  0  0  0  0  0  0  0  0
    8.5201    4.1442   -5.4753 H   0  0  0  1  0  0  0  0  0  0  0  0
    8.8354    5.7751   -6.0185 H   0  0  0  1  0  0  0  0  0  0  0  0
    9.2810    5.4733   -3.3161 C   0  0  0  1  0  0  0  0  0  0  0  0
    9.6359    4.4807   -3.4998 H   0  0  0  1  0  0  0  0  0  0  0  0
   10.2098    6.4266   -3.8474 O   0  0  0  1  0  0  0  0  0  0  0  0
   11.0925    6.0491   -3.8460 H   0  0  0  1  0  0  0  0  0  0  0  0
    9.1627    5.6758   -1.8131 C   0  0  0  1  0  0  0  0  0  0  0  0
    8.5420    4.8749   -1.1155 O   0  0  0  1  0  0  0  0  0  0  0  0
    9.7550    6.7526   -1.2729 N   0  0  0  1  0  0  0  0  0  0  0  0
   10.1874    7.4020   -1.8660 H   0  0  0  1  0  0  0  0  0  0  0  0
    9.7773    6.9891    0.1629 C   0  0  0  1  0  0  0  0  0  0  0  0
    8.8946    6.5566    0.5856 H   0  0  0  1  0  0  0  0  0  0  0  0
    9.7706    8.0465    0.3265 H   0  0  0  1  0  0  0  0  0  0  0  0
   10.9843    6.4050    0.8852 C   0  0  0  1  0  0  0  0  0  0  0  0
   11.8717    6.8272    0.4618 H   0  0  0  1  0  0  0  0  0  0  0  0
   10.9884    5.3450    0.7393 H   0  0  0  1  0  0  0  0  0  0  0  0
   10.9789    6.6872    2.3750 C   0  0  0  1  0  0  0  0  0  0  0  0
   10.7882    7.8127    2.8054 O   0  0  0  1  0  0  0  0  0  0  0  0
   11.1943    5.6325    3.1663 N   0  0  0  1  0  0  0  0  0  0  0  0
   11.2649    4.7433    2.7604 H   0  0  0  1  0  0  0  0  0  0  0  0
   11.3285    5.7590    4.6197 C   0  0  0  1  0  0  0  0  0  0  0  0
   10.8893    4.8991    5.0807 H   0  0  0  1  0  0  0  0  0  0  0  0
   10.8088    6.6389    4.9367 H   0  0  0  1  0  0  0  0  0  0  0  0
   12.7783    5.8629    5.0644 C   0  0  0  1  0  0  0  0  0  0  0  0
   12.8129    5.9223    6.1322 H   0  0  0  1  0  0  0  0  0  0  0  0
   13.2104    6.7466    4.6433 H   0  0  0  1  0  0  0  0  0  0  0  0
   13.7300    4.4239    4.5218 S   0  0  0  1  0  0  0  0  0  0  0  0
   15.4232    4.9720    4.7683 C   0  0  0  1  0  0  0  0  0  0  0  0
   15.6819    6.0205    5.2888 O   0  0  0  1  0  0  0  0  0  0  0  0
   16.4596    3.9381    4.3730 C   0  0  0  1  0  0  0  0  0  0  0  0
   16.9529    4.2515    3.4767 H   0  0  0  1  0  0  0  0  0  0  0  0
   15.9785    2.9973    4.2048 H   0  0  0  1  0  0  0  0  0  0  0  0
   17.1789    3.8361    5.1586 H   0  0  0  1  0  0  0  0  0  0  0  0
  1  2  1  0  0  0  0
  1  7  2  0  0  0  0
  2  3  1  0  0  0  0
  2  4  2  0  0  0  0
  4  5  1  0  0  0  0
  5  6  2  0  0  0  0
  5 14  1  0  0  0  0
  6  7  1  0  0  0  0
  6 11  1  0  0  0  0
  7  8  1  0  0  0  0
  8  9  1  0  0  0  0
  8 10  1  0  0  0  0
 11 12  2  0  0  0  0
 12 13  1  0  0  0  0
 12 14  1  0  0  0  0
 14 15  1  0  0  0  0
 15 16  1  0  0  0  0
 15 17  1  0  0  0  0
 15 30  1  0  0  0  0
 17 18  1  0  0  0  0
 17 19  1  0  0  0  0
 17 21  1  0  0  0  0
 19 20  1  0  0  0  0
 21 22  1  0  0  0  0
 21 23  1  0  0  0  0
 21 28  1  0  0  0  0
 23 24  1  0  0  0  0
 24 25  1  0  0  0  0
 24 26  2  0  0  0  0
 24 27  1  0  0  0  0
 28 29  1  0  0  0  0
 28 30  1  0  0  0  0
 28 31  1  0  0  0  0
 31 32  1  0  0  0  0
 31 33  1  0  0  0  0
 31 34  1  0  0  0  0
 34 35  1  0  0  0  0
 35 36  1  0  0  0  0
 35 37  2  0  0  0  0
 35 38  1  0  0  0  0
 38 39  1  0  0  0  0
 39 40  2  0  0  0  0
 39 41  1  0  0  0  0
 39 42  1  0  0  0  0
 42 44  1  0  0  0  0
 43 44  1  0  0  0  0
 43 47  1  0  0  0  0
 43 51  1  0  0  0  0
 43 55  1  0  0  0  0
 44 45  1  0  0  0  0
 44 46  1  0  0  0  0
 47 48  1  0  0  0  0
 47 49  1  0  0  0  0
 47 50  1  0  0  0  0
 51 52  1  0  0  0  0
 51 53  1  0  0  0  0
 51 54  1  0  0  0  0
 55 56  1  0  0  0  0
 55 57  1  0  0  0  0
 55 59  1  0  0  0  0
 57 58  1  0  0  0  0
 59 60  2  0  0  0  0
 59 61  1  0  0  0  0
 61 62  1  0  0  0  0
 61 63  1  0  0  0  0
 63 64  1  0  0  0  0
 63 65  1  0  0  0  0
 63 66  1  0  0  0  0
 66 67  1  0  0  0  0
 66 68  1  0  0  0  0
 66 69  1  0  0  0  0
 69 70  2  0  0  0  0
 69 71  1  0  0  0  0
 71 72  1  0  0  0  0
 71 73  1  0  0  0  0
 73 74  1  0  0  0  0
 73 75  1  0  0  0  0
 73 76  1  0  0  0  0
 76 77  1  0  0  0  0
 76 78  1  0  0  0  0
 76 79  1  0  0  0  0
 79 80  1  0  0  0  0
 80 81  2  0  0  0  0
 80 82  1  0  0  0  0
 82 83  1  0  0  0  0
 82 84  1  0  0  0  0
 82 85  1  0  0  0  0
M  BCL ATM N_Tr2TrTrPi C_TrTrTrPi H_S N_Tr2TrTrPi C_TrTrTrPi C_TrTrTrPi C_TrTrTrPi N_TrTrTrPi2 H_S H_S N_Tr2TrTrPi C_TrTrTrPi H_S N_TrTrTrPi2 C_TeTeTeTe H_S C_TeTeTeTe H_S O_Te2Te2TeTe H_S C_TeTeTeTe H_S O_Tr2TrTrPi2 P_TeTeTeTePi O_Te2Te2TeTe O_Tr2Tr2TrPi O_Te2Te2Te2Te C_TeTeTeTe H_S O_Te2Te2TeTe C_TeTeTeTe H_S H_S O_Tr2TrTrPi2 P_TeTeTeTePi O_Te2Te2TeTe O_Tr2Tr2TrPi O_Tr2TrTrPi2 P_TeTeTeTePi O_Tr2Tr2TrPi O_Te2Te2Te2Te O_Tr2TrTrPi2 C_TeTeTeTe C_TeTeTeTe H_S H_S C_TeTeTeTe H_S H_S H_S C_TeTeTeTe H_S H_S H_S C_TeTeTeTe H_S O_Te2Te2TeTe H_S C_TrTrTrPi O_Tr2Tr2TrPi N_TrTrTrPi2 H_S C_TeTeTeTe H_S H_S C_TeTeTeTe H_S H_S C_TrTrTrPi O_Tr2Tr2TrPi N_TrTrTrPi2 H_S C_TeTeTeTe H_S H_S C_TeTeTeTe H_S H_S S_Te2Te2TeTe C_TrTrTrPi O_Tr2Tr2TrPi C_TeTeTeTe H_S H_S H_S
M  BCL BND AromaticSingleBond AromaticDoubleBond NonConjugatedSingleBond AromaticDoubleBond AromaticSingleBond AromaticDoubleBond AromaticSingleBond AromaticSingleBond AromaticSingleBond ConjugatedSingleBond NonConjugatedSingleBond NonConjugatedSingleBond AromaticDoubleBond NonConjugatedSingleBond AromaticSingleBond NonConjugatedSingleBond NonConjugatedSingleBond NonConjugatedSingleBondInRing NonConjugatedSingleBondInRing NonConjugatedSingleBond NonConjugatedSingleBond NonConjugatedSingleBondInRing NonConjugatedSingleBond NonConjugatedSingleBond NonConjugatedSingleBond NonConjugatedSingleBondInRing ConjugatedSingleBond ConjugatedSingleBond ConjugatedDoubleBond ConjugatedSingleBond NonConjugatedSingleBond NonConjugatedSingleBondInRing NonConjugatedSingleBond NonConjugatedSingleBond NonConjugatedSingleBond NonConjugatedSingleBond ConjugatedSingleBond ConjugatedSingleBond ConjugatedDoubleBond ConjugatedSingleBond ConjugatedSingleBond ConjugatedDoubleBond ConjugatedSingleBond ConjugatedSingleBond NonConjugatedSingleBond NonConjugatedSingleBond NonConjugatedSingleBond NonConjugatedSingleBond NonConjugatedSingleBond NonConjugatedSingleBond NonConjugatedSingleBond NonConjugatedSingleBond NonConjugatedSingleBond NonConjugatedSingleBond NonConjugatedSingleBond NonConjugatedSingleBond NonConjugatedSingleBond NonConjugatedSingleBond NonConjugatedSingleBond NonConjugatedSingleBond NonConjugatedSingleBond ConjugatedDoubleBond AmideSingleBond NonConjugatedSingleBond NonConjugatedSingleBond NonConjugatedSingleBond NonConjugatedSingleBond NonConjugatedSingleBond NonConjugatedSingleBond NonConjugatedSingleBond NonConjugatedSingleBond ConjugatedDoubleBond AmideSingleBond NonConjugatedSingleBond NonConjugatedSingleBond NonConjugatedSingleBond NonConjugatedSingleBond NonConjugatedSingleBond NonConjugatedSingleBond NonConjugatedSingleBond NonConjugatedSingleBond ConjugatedSingleBond ConjugatedDoubleBond NonConjugatedSingleBond NonConjugatedSingleBond NonConjugatedSingleBond NonConjugatedSingleBond
M  BCL CHI  15   S  17   S  21   S  24   S  28   R  35   R  39   R  55   S
M  BCL DBI - - - - - - - - - -
M  END
> <ConfClashScore>
0 

> <ConfOneFourInteractionScore>
-0.982149 

> <ConfScore>
-0.000871865 

> <ConfScorePBest>
0.0124205 

> <ConfTolerance>
2.3443 

$$$$
ACO.****
  PyMOL2.5          3D                             0

 85 87  0  0  0  0  0  0  0  0999 V2000
    4.8920    1.0783  -10.6364 N   0  0  0  1  0  0  0  0  0  0  0  0
    3.8436    1.9094  -10.5266 C   0  0  0  1  0  0  0  0  0  0  0  0
    3.8149    2.6903  -11.2129 H   0  0  0  1  0  0  0  0  0  0  0  0
    2.8386    1.8693   -9.6604 N   0  0  0  1  0  0  0  0  0  0  0  0
    2.9570    0.8348   -8.8268 C   0  0  0  1  0  0  0  0  0  0  0  0
    3.9877   -0.1145   -8.8114 C   0  0  0  1  0  0  0  0  0  0  0  0
    4.9782    0.0602   -9.7733 C   0  0  0  1  0  0  0  0  0  0  0  0
    6.0617   -0.7699   -9.8898 N   0  0  0  1  0  0  0  0  0  0  0  0
    6.2063   -1.4821   -9.2323 H   0  0  0  1  0  0  0  0  0  0  0  0
    6.6923   -0.6516  -10.6306 H   0  0  0  1  0  0  0  0  0  0  0  0
    3.7792   -1.0334   -7.7946 N   0  0  0  1  0  0  0  0  0  0  0  0
    2.6657   -0.6326   -7.2440 C   0  0  0  1  0  0  0  0  0  0  0  0
    2.2300   -1.1272   -6.4395 H   0  0  0  1  0  0  0  0  0  0  0  0
    2.1177    0.4815   -7.8019 N   0  0  0  1  0  0  0  0  0  0  0  0
    0.8882    1.1617   -7.3935 C   0  0  0  1  0  0  0  0  0  0  0  0
    0.9211    2.1820   -7.7141 H   0  0  0  1  0  0  0  0  0  0  0  0
   -0.3376    0.4537   -7.9782 C   0  0  0  1  0  0  0  0  0  0  0  0
   -0.0731   -0.1224   -8.8402 H   0  0  0  1  0  0  0  0  0  0  0  0
   -1.3464    1.3866   -8.3240 O   0  0  0  1  0  0  0  0  0  0  0  0
   -0.9394    2.1927   -8.6499 H   0  0  0  1  0  0  0  0  0  0  0  0
   -0.7891   -0.4371   -6.8507 C   0  0  0  1  0  0  0  0  0  0  0  0
   -0.2537   -1.3635   -6.8529 H   0  0  0  1  0  0  0  0  0  0  0  0
   -2.1905   -0.6965   -6.9295 O   0  0  0  1  0  0  0  0  0  0  0  0
   -2.9852   -2.1057   -6.6608 P   0  0  0  1  0  0  0  0  0  0  0  0
   -2.1776   -3.0588   -7.7233 O   0  0  0  0  0  0  0  0  0  0  0  0
   -2.7818   -2.5677   -5.2695 O   0  0  0  1  0  0  0  0  0  0  0  0
   -4.4812   -1.8315   -7.2187 O   0  5  0  1  0  0  0  0  0  0  0  0
   -0.4494    0.3956   -5.6062 C   0  0  0  1  0  0  0  0  0  0  0  0
   -1.2403    1.0800   -5.3805 H   0  0  0  1  0  0  0  0  0  0  0  0
    0.7184    1.0856   -5.9601 O   0  0  0  1  0  0  0  0  0  0  0  0
   -0.2046   -0.4891   -4.4283 C   0  0  0  1  0  0  0  0  0  0  0  0
   -1.1237   -0.9358   -4.1109 H   0  0  0  1  0  0  0  0  0  0  0  0
    0.2116    0.0812   -3.6244 H   0  0  0  1  0  0  0  0  0  0  0  0
    0.7276   -1.5174   -4.8374 O   0  0  0  1  0  0  0  0  0  0  0  0
    1.4528   -2.4424   -3.7559 P   0  0  0  1  0  0  0  0  0  0  0  0
    2.0992   -3.6165   -4.4273 O   0  0  0  0  0  0  0  0  0  0  0  0
    0.5043   -2.7665   -2.6431 O   0  0  0  1  0  0  0  0  0  0  0  0
    2.5338   -1.4133   -3.1695 O   0  0  0  1  0  0  0  0  0  0  0  0
    2.9670   -1.0956   -1.6200 P   0  0  0  1  0  0  0  0  0  0  0  0
    1.8209   -0.7603   -0.7457 O   0  0  0  1  0  0  0  0  0  0  0  0
    3.6112   -2.4640   -1.0397 O   0  5  0  1  0  0  0  0  0  0  0  0
    4.0821    0.0237   -1.5372 O   0  0  0  1  0  0  0  0  0  0  0  0
    6.2584    0.9091   -1.8820 C   0  0  0  1  0  0  0  0  0  0  0  0
    5.2913   -0.1428   -2.3158 C   0  0  0  1  0  0  0  0  0  0  0  0
    5.0727   -0.0297   -3.3571 H   0  0  0  1  0  0  0  0  0  0  0  0
    5.7062   -1.1136   -2.1413 H   0  0  0  1  0  0  0  0  0  0  0  0
    5.6788    2.2942   -2.1820 C   0  0  0  1  0  0  0  0  0  0  0  0
    6.3847    3.0462   -1.8970 H   0  0  0  1  0  0  0  0  0  0  0  0
    4.7724    2.4286   -1.6296 H   0  0  0  1  0  0  0  0  0  0  0  0
    5.4744    2.3758   -3.2291 H   0  0  0  1  0  0  0  0  0  0  0  0
    7.5943    0.6876   -2.5912 C   0  0  0  1  0  0  0  0  0  0  0  0
    7.4635    0.8113   -3.6460 H   0  0  0  1  0  0  0  0  0  0  0  0
    7.9451   -0.3029   -2.3893 H   0  0  0  1  0  0  0  0  0  0  0  0
    8.3093    1.3994   -2.2348 H   0  0  0  1  0  0  0  0  0  0  0  0
    6.4665    0.7612   -0.3704 C   0  0  0  1  0  0  0  0  0  0  0  0
    7.1787    1.4970   -0.0601 H   0  0  0  1  0  0  0  0  0  0  0  0
    5.1981    1.0634    0.1858 O   0  0  0  1  0  0  0  0  0  0  0  0
    5.2604    1.0648    1.1437 H   0  0  0  1  0  0  0  0  0  0  0  0
    6.9985   -0.6091    0.0189 C   0  0  0  1  0  0  0  0  0  0  0  0
    8.0080   -1.0719   -0.5100 O   0  0  0  1  0  0  0  0  0  0  0  0
    6.3639   -1.2294    1.0176 N   0  0  0  1  0  0  0  0  0  0  0  0
    5.5730   -0.8051    1.4113 H   0  0  0  1  0  0  0  0  0  0  0  0
    6.8062   -2.5131    1.5413 C   0  0  0  1  0  0  0  0  0  0  0  0
    7.8487   -2.6289    1.3297 H   0  0  0  1  0  0  0  0  0  0  0  0
    6.2546   -3.2903    1.0549 H   0  0  0  1  0  0  0  0  0  0  0  0
    6.5987   -2.6330    3.0337 C   0  0  0  1  0  0  0  0  0  0  0  0
    7.0824   -1.8015    3.5021 H   0  0  0  1  0  0  0  0  0  0  0  0
    7.0582   -3.5430    3.3588 H   0  0  0  1  0  0  0  0  0  0  0  0
    5.1643   -2.6503    3.4858 C   0  0  0  1  0  0  0  0  0  0  0  0
    4.4347   -3.6082    3.2332 O   0  0  0  1  0  0  0  0  0  0  0  0
    4.7081   -1.5963    4.1683 N   0  0  0  1  0  0  0  0  0  0  0  0
    5.3096   -0.8388    4.3263 H   0  0  0  1  0  0  0  0  0  0  0  0
    3.3410   -1.5334    4.6882 C   0  0  0  1  0  0  0  0  0  0  0  0
    3.0078   -2.5383    4.8434 H   0  0  0  1  0  0  0  0  0  0  0  0
    2.7327   -1.0666    3.9419 H   0  0  0  1  0  0  0  0  0  0  0  0
    3.1350   -0.7791    5.9824 C   0  0  0  1  0  0  0  0  0  0  0  0
    2.3769   -1.2846    6.5434 H   0  0  0  1  0  0  0  0  0  0  0  0
    2.8019    0.2086    5.7408 H   0  0  0  1  0  0  0  0  0  0  0  0
    4.6033   -0.6348    7.0284 S   0  0  0  1  0  0  0  0  0  0  0  0
    5.3546    0.7685    6.1951 C   0  0  0  1  0  0  0  0  0  0  0  0
    4.8426    1.2919    5.2459 O   0  0  0  1  0  0  0  0  0  0  0  0
    6.6013    1.2812    6.8779 C   0  0  0  1  0  0  0  0  0  0  0  0
    7.1276    1.9364    6.2156 H   0  0  0  1  0  0  0  0  0  0  0  0
    7.2308    0.4556    7.1372 H   0  0  0  1  0  0  0  0  0  0  0  0
    6.3285    1.8145    7.7645 H   0  0  0  1  0  0  0  0  0  0  0  0
  1  2  1  0  0  0  0
  1  7  2  0  0  0  0
  2  3  1  0  0  0  0
  2  4  2  0  0  0  0
  4  5  1  0  0  0  0
  5  6  2  0  0  0  0
  5 14  1  0  0  0  0
  6  7  1  0  0  0  0
  6 11  1  0  0  0  0
  7  8  1  0  0  0  0
  8  9  1  0  0  0  0
  8 10  1  0  0  0  0
 11 12  2  0  0  0  0
 12 13  1  0  0  0  0
 12 14  1  0  0  0  0
 14 15  1  0  0  0  0
 15 16  1  0  0  0  0
 15 17  1  0  0  0  0
 15 30  1  0  0  0  0
 17 18  1  0  0  0  0
 17 19  1  0  0  0  0
 17 21  1  0  0  0  0
 19 20  1  0  0  0  0
 21 22  1  0  0  0  0
 21 23  1  0  0  0  0
 21 28  1  0  0  0  0
 23 24  1  0  0  0  0
 24 25  1  0  0  0  0
 24 26  2  0  0  0  0
 24 27  1  0  0  0  0
 28 29  1  0  0  0  0
 28 30  1  0  0  0  0
 28 31  1  0  0  0  0
 31 32  1  0  0  0  0
 31 33  1  0  0  0  0
 31 34  1  0  0  0  0
 34 35  1  0  0  0  0
 35 36  1  0  0  0  0
 35 37  2  0  0  0  0
 35 38  1  0  0  0  0
 38 39  1  0  0  0  0
 39 40  2  0  0  0  0
 39 41  1  0  0  0  0
 39 42  1  0  0  0  0
 42 44  1  0  0  0  0
 43 44  1  0  0  0  0
 43 47  1  0  0  0  0
 43 51  1  0  0  0  0
 43 55  1  0  0  0  0
 44 45  1  0  0  0  0
 44 46  1  0  0  0  0
 47 48  1  0  0  0  0
 47 49  1  0  0  0  0
 47 50  1  0  0  0  0
 51 52  1  0  0  0  0
 51 53  1  0  0  0  0
 51 54  1  0  0  0  0
 55 56  1  0  0  0  0
 55 57  1  0  0  0  0
 55 59  1  0  0  0  0
 57 58  1  0  0  0  0
 59 60  2  0  0  0  0
 59 61  1  0  0  0  0
 61 62  1  0  0  0  0
 61 63  1  0  0  0  0
 63 64  1  0  0  0  0
 63 65  1  0  0  0  0
 63 66  1  0  0  0  0
 66 67  1  0  0  0  0
 66 68  1  0  0  0  0
 66 69  1  0  0  0  0
 69 70  2  0  0  0  0
 69 71  1  0  0  0  0
 71 72  1  0  0  0  0
 71 73  1  0  0  0  0
 73 74  1  0  0  0  0
 73 75  1  0  0  0  0
 73 76  1  0  0  0  0
 76 77  1  0  0  0  0
 76 78  1  0  0  0  0
 76 79  1  0  0  0  0
 79 80  1  0  0  0  0
 80 81  2  0  0  0  0
 80 82  1  0  0  0  0
 82 83  1  0  0  0  0
 82 84  1  0  0  0  0
 82 85  1  0  0  0  0
M  BCL ATM N_Tr2TrTrPi C_TrTrTrPi H_S N_Tr2TrTrPi C_TrTrTrPi C_TrTrTrPi C_TrTrTrPi N_TrTrTrPi2 H_S H_S N_Tr2TrTrPi C_TrTrTrPi H_S N_TrTrTrPi2 C_TeTeTeTe H_S C_TeTeTeTe H_S O_Te2Te2TeTe H_S C_TeTeTeTe H_S O_Tr2TrTrPi2 P_TeTeTeTePi O_Te2Te2TeTe O_Tr2Tr2TrPi O_Te2Te2Te2Te C_TeTeTeTe H_S O_Te2Te2TeTe C_TeTeTeTe H_S H_S O_Tr2TrTrPi2 P_TeTeTeTePi O_Te2Te2TeTe O_Tr2Tr2TrPi O_Tr2TrTrPi2 P_TeTeTeTePi O_Tr2Tr2TrPi O_Te2Te2Te2Te O_Tr2TrTrPi2 C_TeTeTeTe C_TeTeTeTe H_S H_S C_TeTeTeTe H_S H_S H_S C_TeTeTeTe H_S H_S H_S C_TeTeTeTe H_S O_Te2Te2TeTe H_S C_TrTrTrPi O_Tr2Tr2TrPi N_TrTrTrPi2 H_S C_TeTeTeTe H_S H_S C_TeTeTeTe H_S H_S C_TrTrTrPi O_Tr2Tr2TrPi N_TrTrTrPi2 H_S C_TeTeTeTe H_S H_S C_TeTeTeTe H_S H_S S_Te2Te2TeTe C_TrTrTrPi O_Tr2Tr2TrPi C_TeTeTeTe H_S H_S H_S
M  BCL BND AromaticSingleBond AromaticDoubleBond NonConjugatedSingleBond AromaticDoubleBond AromaticSingleBond AromaticDoubleBond AromaticSingleBond AromaticSingleBond AromaticSingleBond ConjugatedSingleBond NonConjugatedSingleBond NonConjugatedSingleBond AromaticDoubleBond NonConjugatedSingleBond AromaticSingleBond NonConjugatedSingleBond NonConjugatedSingleBond NonConjugatedSingleBondInRing NonConjugatedSingleBondInRing NonConjugatedSingleBond NonConjugatedSingleBond NonConjugatedSingleBondInRing NonConjugatedSingleBond NonConjugatedSingleBond NonConjugatedSingleBond NonConjugatedSingleBondInRing ConjugatedSingleBond ConjugatedSingleBond ConjugatedDoubleBond ConjugatedSingleBond NonConjugatedSingleBond NonConjugatedSingleBondInRing NonConjugatedSingleBond NonConjugatedSingleBond NonConjugatedSingleBond NonConjugatedSingleBond ConjugatedSingleBond ConjugatedSingleBond ConjugatedDoubleBond ConjugatedSingleBond ConjugatedSingleBond ConjugatedDoubleBond ConjugatedSingleBond ConjugatedSingleBond NonConjugatedSingleBond NonConjugatedSingleBond NonConjugatedSingleBond NonConjugatedSingleBond NonConjugatedSingleBond NonConjugatedSingleBond NonConjugatedSingleBond NonConjugatedSingleBond NonConjugatedSingleBond NonConjugatedSingleBond NonConjugatedSingleBond NonConjugatedSingleBond NonConjugatedSingleBond NonConjugatedSingleBond NonConjugatedSingleBond NonConjugatedSingleBond NonConjugatedSingleBond ConjugatedDoubleBond AmideSingleBond NonConjugatedSingleBond NonConjugatedSingleBond NonConjugatedSingleBond NonConjugatedSingleBond NonConjugatedSingleBond NonConjugatedSingleBond NonConjugatedSingleBond NonConjugatedSingleBond ConjugatedDoubleBond AmideSingleBond NonConjugatedSingleBond NonConjugatedSingleBond NonConjugatedSingleBond NonConjugatedSingleBond NonConjugatedSingleBond NonConjugatedSingleBond NonConjugatedSingleBond NonConjugatedSingleBond ConjugatedSingleBond ConjugatedDoubleBond NonConjugatedSingleBond NonConjugatedSingleBond NonConjugatedSingleBond NonConjugatedSingleBond
M  BCL CHI  15   S  17   S  21   S  24   S  28   R  35   R  39   R  55   S
M  BCL DBI - - - - - - - - - -
M  END
> <ConfClashScore>
0 

> <ConfOneFourInteractionScore>
-0.985331 

> <ConfScore>
0.00112857 

> <ConfScorePBest>
0.0123175 

> <ConfTolerance>
2.46145 

$$$$
ACO.****
  PyMOL2.5          3D                             0

 85 87  0  0  0  0  0  0  0  0999 V2000
    4.8930    1.0794  -10.6395 N   0  0  0  1  0  0  0  0  0  0  0  0
    3.8449    1.9110  -10.5304 C   0  0  0  1  0  0  0  0  0  0  0  0
    3.8165    2.6914  -11.2172 H   0  0  0  1  0  0  0  0  0  0  0  0
    2.8398    1.8717   -9.6643 N   0  0  0  1  0  0  0  0  0  0  0  0
    2.9577    0.8376   -8.8301 C   0  0  0  1  0  0  0  0  0  0  0  0
    3.9881   -0.1120   -8.8139 C   0  0  0  1  0  0  0  0  0  0  0  0
    4.9788    0.0619   -9.7758 C   0  0  0  1  0  0  0  0  0  0  0  0
    6.0621   -0.7686   -9.8915 N   0  0  0  1  0  0  0  0  0  0  0  0
    6.7641   -0.5701  -10.5459 H   0  0  0  1  0  0  0  0  0  0  0  0
    6.1351   -1.5613   -9.3199 H   0  0  0  1  0  0  0  0  0  0  0  0
    3.7792   -1.0301   -7.7965 N   0  0  0  1  0  0  0  0  0  0  0  0
    2.6657   -0.6286   -7.2463 C   0  0  0  1  0  0  0  0  0  0  0  0
    2.2297   -1.1226   -6.4416 H   0  0  0  1  0  0  0  0  0  0  0  0
    2.1181    0.4852   -7.8050 N   0  0  0  1  0  0  0  0  0  0  0  0
    0.8802    1.1290   -7.3562 C   0  0  0  1  0  0  0  0  0  0  0  0
    0.1958    1.1977   -8.1758 H   0  0  0  1  0  0  0  0  0  0  0  0
    0.2501    0.3524   -6.1726 C   0  0  0  1  0  0  0  0  0  0  0  0
    1.0023   -0.0292   -5.5141 H   0  0  0  1  0  0  0  0  0  0  0  0
   -0.5697   -0.7239   -6.6356 O   0  0  0  1  0  0  0  0  0  0  0  0
   -0.2617   -1.5488   -6.2532 H   0  0  0  1  0  0  0  0  0  0  0  0
   -0.5998    1.4504   -5.4803 C   0  0  0  1  0  0  0  0  0  0  0  0
   -0.5364    1.3652   -4.4156 H   0  0  0  1  0  0  0  0  0  0  0  0
   -1.9859    1.3628   -5.8906 O   0  0  0  1  0  0  0  0  0  0  0  0
   -3.1689    2.0880   -5.0163 P   0  0  0  1  0  0  0  0  0  0  0  0
   -3.2447    1.2945   -3.5831 O   0  0  0  0  0  0  0  0  0  0  0  0
   -2.9033    3.5424   -4.9486 O   0  0  0  1  0  0  0  0  0  0  0  0
   -4.5335    1.8527   -5.8571 O   0  5  0  1  0  0  0  0  0  0  0  0
    0.0314    2.7712   -5.9625 C   0  0  0  1  0  0  0  0  0  0  0  0
   -0.6852    3.3362   -6.5212 H   0  0  0  1  0  0  0  0  0  0  0  0
    1.1498    2.4328   -6.7988 O   0  0  0  1  0  0  0  0  0  0  0  0
    0.4945    3.5729   -4.7908 C   0  0  0  1  0  0  0  0  0  0  0  0
   -0.3423    3.8457   -4.1823 H   0  0  0  1  0  0  0  0  0  0  0  0
    0.9937    4.4570   -5.1287 H   0  0  0  1  0  0  0  0  0  0  0  0
    1.4099    2.7504   -4.0298 O   0  0  0  1  0  0  0  0  0  0  0  0
    1.8590    3.1716   -2.5734 P   0  0  0  1  0  0  0  0  0  0  0  0
    2.3800    4.5487   -2.6559 O   0  0  0  0  0  0  0  0  0  0  0  0
    2.7035    2.1222   -1.9631 O   0  0  0  1  0  0  0  0  0  0  0  0
    0.4752    3.1659   -1.7390 O   0  0  0  1  0  0  0  0  0  0  0  0
   -0.0034    2.8472   -0.2031 P   0  0  0  1  0  0  0  0  0  0  0  0
    1.0258    3.1842    0.8057 O   0  0  0  1  0  0  0  0  0  0  0  0
   -1.4990    3.3665    0.1403 O   0  5  0  1  0  0  0  0  0  0  0  0
   -0.1950    1.2774   -0.1609 O   0  0  0  1  0  0  0  0  0  0  0  0
   -1.7423   -0.4525    0.3384 C   0  0  0  1  0  0  0  0  0  0  0  0
   -1.4773    0.7250   -0.5409 C   0  0  0  1  0  0  0  0  0  0  0  0
   -1.4521    0.4166   -1.5652 H   0  0  0  1  0  0  0  0  0  0  0  0
   -2.2442    1.4592   -0.4077 H   0  0  0  1  0  0  0  0  0  0  0  0
   -3.0520   -1.0985   -0.1654 C   0  0  0  1  0  0  0  0  0  0  0  0
   -2.9811   -1.2753   -1.2183 H   0  0  0  1  0  0  0  0  0  0  0  0
   -3.8726   -0.4405    0.0310 H   0  0  0  1  0  0  0  0  0  0  0  0
   -3.2096   -2.0272    0.3421 H   0  0  0  1  0  0  0  0  0  0  0  0
   -1.8820    0.0451    1.7871 C   0  0  0  1  0  0  0  0  0  0  0  0
   -1.9510   -0.7937    2.4478 H   0  0  0  1  0  0  0  0  0  0  0  0
   -2.7656    0.6420    1.8753 H   0  0  0  1  0  0  0  0  0  0  0  0
   -1.0264    0.6332    2.0460 H   0  0  0  1  0  0  0  0  0  0  0  0
   -0.5501   -1.4113    0.2476 C   0  0  0  1  0  0  0  0  0  0  0  0
    0.3147   -0.8893    0.6005 H   0  0  0  1  0  0  0  0  0  0  0  0
   -0.7775   -2.5444    1.0684 O   0  0  0  1  0  0  0  0  0  0  0  0
   -1.3231   -2.2933    1.8173 H   0  0  0  1  0  0  0  0  0  0  0  0
   -0.2778   -1.8520   -1.1799 C   0  0  0  1  0  0  0  0  0  0  0  0
   -0.9712   -1.4530   -2.1145 O   0  0  0  1  0  0  0  0  0  0  0  0
    0.7508   -2.6889   -1.3428 N   0  0  0  1  0  0  0  0  0  0  0  0
    1.2172   -3.0252   -0.5492 H   0  0  0  1  0  0  0  0  0  0  0  0
    1.2027   -3.1186   -2.6578 C   0  0  0  1  0  0  0  0  0  0  0  0
    0.9473   -2.3636   -3.3717 H   0  0  0  1  0  0  0  0  0  0  0  0
    0.7050   -4.0316   -2.9099 H   0  0  0  1  0  0  0  0  0  0  0  0
    2.7038   -3.3513   -2.7110 C   0  0  0  1  0  0  0  0  0  0  0  0
    2.9454   -4.1119   -1.9982 H   0  0  0  1  0  0  0  0  0  0  0  0
    3.1893   -2.4380   -2.4373 H   0  0  0  1  0  0  0  0  0  0  0  0
    3.2442   -3.7818   -4.0521 C   0  0  0  1  0  0  0  0  0  0  0  0
    2.5226   -3.8237   -5.0477 O   0  0  0  1  0  0  0  0  0  0  0  0
    4.5396   -4.1080   -4.0783 N   0  0  0  1  0  0  0  0  0  0  0  0
    5.0492   -4.0887   -3.2415 H   0  0  0  1  0  0  0  0  0  0  0  0
    5.2246   -4.4935   -5.3145 C   0  0  0  1  0  0  0  0  0  0  0  0
    5.2026   -3.6577   -5.9822 H   0  0  0  1  0  0  0  0  0  0  0  0
    4.6910   -5.3125   -5.7497 H   0  0  0  1  0  0  0  0  0  0  0  0
    6.6625   -4.9127   -5.1336 C   0  0  0  1  0  0  0  0  0  0  0  0
    6.7063   -5.6539   -4.3632 H   0  0  0  1  0  0  0  0  0  0  0  0
    7.2317   -4.0562   -4.8380 H   0  0  0  1  0  0  0  0  0  0  0  0
    7.3983   -5.6009   -6.6356 S   0  0  0  1  0  0  0  0  0  0  0  0
    8.8270   -6.3664   -6.0270 C   0  0  0  1  0  0  0  0  0  0  0  0
    9.1469   -6.2901   -4.8518 O   0  0  0  1  0  0  0  0  0  0  0  0
    9.7228   -6.9773   -7.0084 C   0  0  0  1  0  0  0  0  0  0  0  0
    9.3254   -6.8355   -7.9917 H   0  0  0  1  0  0  0  0  0  0  0  0
    9.8108   -8.0245   -6.8072 H   0  0  0  1  0  0  0  0  0  0  0  0
   10.6875   -6.5189   -6.9443 H   0  0  0  1  0  0  0  0  0  0  0  0
  1  2  1  0  0  0  0
  1  7  2  0  0  0  0
  2  3  1  0  0  0  0
  2  4  2  0  0  0  0
  4  5  1  0  0  0  0
  5  6  2  0  0  0  0
  5 14  1  0  0  0  0
  6  7  1  0  0  0  0
  6 11  1  0  0  0  0
  7  8  1  0  0  0  0
  8  9  1  0  0  0  0
  8 10  1  0  0  0  0
 11 12  2  0  0  0  0
 12 13  1  0  0  0  0
 12 14  1  0  0  0  0
 14 15  1  0  0  0  0
 15 16  1  0  0  0  0
 15 17  1  0  0  0  0
 15 30  1  0  0  0  0
 17 18  1  0  0  0  0
 17 19  1  0  0  0  0
 17 21  1  0  0  0  0
 19 20  1  0  0  0  0
 21 22  1  0  0  0  0
 21 23  1  0  0  0  0
 21 28  1  0  0  0  0
 23 24  1  0  0  0  0
 24 25  1  0  0  0  0
 24 26  2  0  0  0  0
 24 27  1  0  0  0  0
 28 29  1  0  0  0  0
 28 30  1  0  0  0  0
 28 31  1  0  0  0  0
 31 32  1  0  0  0  0
 31 33  1  0  0  0  0
 31 34  1  0  0  0  0
 34 35  1  0  0  0  0
 35 36  1  0  0  0  0
 35 37  2  0  0  0  0
 35 38  1  0  0  0  0
 38 39  1  0  0  0  0
 39 40  2  0  0  0  0
 39 41  1  0  0  0  0
 39 42  1  0  0  0  0
 42 44  1  0  0  0  0
 43 44  1  0  0  0  0
 43 47  1  0  0  0  0
 43 51  1  0  0  0  0
 43 55  1  0  0  0  0
 44 45  1  0  0  0  0
 44 46  1  0  0  0  0
 47 48  1  0  0  0  0
 47 49  1  0  0  0  0
 47 50  1  0  0  0  0
 51 52  1  0  0  0  0
 51 53  1  0  0  0  0
 51 54  1  0  0  0  0
 55 56  1  0  0  0  0
 55 57  1  0  0  0  0
 55 59  1  0  0  0  0
 57 58  1  0  0  0  0
 59 60  2  0  0  0  0
 59 61  1  0  0  0  0
 61 62  1  0  0  0  0
 61 63  1  0  0  0  0
 63 64  1  0  0  0  0
 63 65  1  0  0  0  0
 63 66  1  0  0  0  0
 66 67  1  0  0  0  0
 66 68  1  0  0  0  0
 66 69  1  0  0  0  0
 69 70  2  0  0  0  0
 69 71  1  0  0  0  0
 71 72  1  0  0  0  0
 71 73  1  0  0  0  0
 73 74  1  0  0  0  0
 73 75  1  0  0  0  0
 73 76  1  0  0  0  0
 76 77  1  0  0  0  0
 76 78  1  0  0  0  0
 76 79  1  0  0  0  0
 79 80  1  0  0  0  0
 80 81  2  0  0  0  0
 80 82  1  0  0  0  0
 82 83  1  0  0  0  0
 82 84  1  0  0  0  0
 82 85  1  0  0  0  0
M  BCL ATM N_Tr2TrTrPi C_TrTrTrPi H_S N_Tr2TrTrPi C_TrTrTrPi C_TrTrTrPi C_TrTrTrPi N_TrTrTrPi2 H_S H_S N_Tr2TrTrPi C_TrTrTrPi H_S N_TrTrTrPi2 C_TeTeTeTe H_S C_TeTeTeTe H_S O_Te2Te2TeTe H_S C_TeTeTeTe H_S O_Tr2TrTrPi2 P_TeTeTeTePi O_Te2Te2TeTe O_Tr2Tr2TrPi O_Te2Te2Te2Te C_TeTeTeTe H_S O_Te2Te2TeTe C_TeTeTeTe H_S H_S O_Tr2TrTrPi2 P_TeTeTeTePi O_Te2Te2TeTe O_Tr2Tr2TrPi O_Tr2TrTrPi2 P_TeTeTeTePi O_Tr2Tr2TrPi O_Te2Te2Te2Te O_Tr2TrTrPi2 C_TeTeTeTe C_TeTeTeTe H_S H_S C_TeTeTeTe H_S H_S H_S C_TeTeTeTe H_S H_S H_S C_TeTeTeTe H_S O_Te2Te2TeTe H_S C_TrTrTrPi O_Tr2Tr2TrPi N_TrTrTrPi2 H_S C_TeTeTeTe H_S H_S C_TeTeTeTe H_S H_S C_TrTrTrPi O_Tr2Tr2TrPi N_TrTrTrPi2 H_S C_TeTeTeTe H_S H_S C_TeTeTeTe H_S H_S S_Te2Te2TeTe C_TrTrTrPi O_Tr2Tr2TrPi C_TeTeTeTe H_S H_S H_S
M  BCL BND AromaticSingleBond AromaticDoubleBond NonConjugatedSingleBond AromaticDoubleBond AromaticSingleBond AromaticDoubleBond AromaticSingleBond AromaticSingleBond AromaticSingleBond ConjugatedSingleBond NonConjugatedSingleBond NonConjugatedSingleBond AromaticDoubleBond NonConjugatedSingleBond AromaticSingleBond NonConjugatedSingleBond NonConjugatedSingleBond NonConjugatedSingleBondInRing NonConjugatedSingleBondInRing NonConjugatedSingleBond NonConjugatedSingleBond NonConjugatedSingleBondInRing NonConjugatedSingleBond NonConjugatedSingleBond NonConjugatedSingleBond NonConjugatedSingleBondInRing ConjugatedSingleBond ConjugatedSingleBond ConjugatedDoubleBond ConjugatedSingleBond NonConjugatedSingleBond NonConjugatedSingleBondInRing NonConjugatedSingleBond NonConjugatedSingleBond NonConjugatedSingleBond NonConjugatedSingleBond ConjugatedSingleBond ConjugatedSingleBond ConjugatedDoubleBond ConjugatedSingleBond ConjugatedSingleBond ConjugatedDoubleBond ConjugatedSingleBond ConjugatedSingleBond NonConjugatedSingleBond NonConjugatedSingleBond NonConjugatedSingleBond NonConjugatedSingleBond NonConjugatedSingleBond NonConjugatedSingleBond NonConjugatedSingleBond NonConjugatedSingleBond NonConjugatedSingleBond NonConjugatedSingleBond NonConjugatedSingleBond NonConjugatedSingleBond NonConjugatedSingleBond NonConjugatedSingleBond NonConjugatedSingleBond NonConjugatedSingleBond NonConjugatedSingleBond ConjugatedDoubleBond AmideSingleBond NonConjugatedSingleBond NonConjugatedSingleBond NonConjugatedSingleBond NonConjugatedSingleBond NonConjugatedSingleBond NonConjugatedSingleBond NonConjugatedSingleBond NonConjugatedSingleBond ConjugatedDoubleBond AmideSingleBond NonConjugatedSingleBond NonConjugatedSingleBond NonConjugatedSingleBond NonConjugatedSingleBond NonConjugatedSingleBond NonConjugatedSingleBond NonConjugatedSingleBond NonConjugatedSingleBond ConjugatedSingleBond ConjugatedDoubleBond NonConjugatedSingleBond NonConjugatedSingleBond NonConjugatedSingleBond NonConjugatedSingleBond
M  BCL CHI  15   S  17   S  21   S  24   S  28   R  35   R  39   R  55   S
M  BCL DBI - - - - - - - - - -
M  END
> <ConfClashScore>
0 

> <ConfOneFourInteractionScore>
-0.982383 

> <ConfScore>
0.00118181 

> <ConfScorePBest>
0.0122145 

> <ConfTolerance>
2.63965 

$$$$
ACO.****
  PyMOL2.5          3D                             0

 85 87  0  0  0  0  0  0  0  0999 V2000
    4.8933    1.0474  -10.6113 N   0  0  0  1  0  0  0  0  0  0  0  0
    3.8499    1.8863  -10.5128 C   0  0  0  1  0  0  0  0  0  0  0  0
    3.8305    2.6631  -11.2040 H   0  0  0  1  0  0  0  0  0  0  0  0
    2.8397    1.8582   -9.6523 N   0  0  0  1  0  0  0  0  0  0  0  0
    2.9461    0.8280   -8.8118 C   0  0  0  1  0  0  0  0  0  0  0  0
    3.9703   -0.1281   -8.7845 C   0  0  0  1  0  0  0  0  0  0  0  0
    4.9676    0.0342   -9.7416 C   0  0  0  1  0  0  0  0  0  0  0  0
    6.1020   -0.7603   -9.9319 N   0  0  0  1  0  0  0  0  0  0  0  0
    6.2933   -1.4972   -9.3148 H   0  0  0  1  0  0  0  0  0  0  0  0
    6.7060   -0.5803  -10.6824 H   0  0  0  1  0  0  0  0  0  0  0  0
    3.7497   -1.0393   -7.7634 N   0  0  0  1  0  0  0  0  0  0  0  0
    2.6357   -0.6277   -7.2217 C   0  0  0  1  0  0  0  0  0  0  0  0
    2.1920   -1.1144   -6.4169 H   0  0  0  1  0  0  0  0  0  0  0  0
    2.0985    0.4866   -7.7897 N   0  0  0  1  0  0  0  0  0  0  0  0
    0.8784    1.2174   -7.4350 C   0  0  0  1  0  0  0  0  0  0  0  0
    1.0962    2.2625   -7.3627 H   0  0  0  1  0  0  0  0  0  0  0  0
   -0.2442    0.9563   -8.4707 C   0  0  0  1  0  0  0  0  0  0  0  0
   -0.2285   -0.0573   -8.8131 H   0  0  0  1  0  0  0  0  0  0  0  0
   -0.1346    1.8336   -9.5817 O   0  0  0  1  0  0  0  0  0  0  0  0
   -0.3636    1.3623  -10.3861 H   0  0  0  1  0  0  0  0  0  0  0  0
   -1.5233    1.2517   -7.6438 C   0  0  0  1  0  0  0  0  0  0  0  0
   -2.2946    0.5460   -7.8719 H   0  0  0  1  0  0  0  0  0  0  0  0
   -2.0038    2.5932   -7.9013 O   0  0  0  1  0  0  0  0  0  0  0  0
   -3.6075    2.8950   -8.0647 P   0  0  0  1  0  0  0  0  0  0  0  0
   -4.1397    1.9927   -9.3265 O   0  0  0  0  0  0  0  0  0  0  0  0
   -4.3368    2.5563   -6.8222 O   0  0  0  1  0  0  0  0  0  0  0  0
   -3.7739    4.4572   -8.4599 O   0  5  0  1  0  0  0  0  0  0  0  0
   -1.0638    1.1063   -6.1799 C   0  0  0  1  0  0  0  0  0  0  0  0
   -1.1759    2.0388   -5.6672 H   0  0  0  1  0  0  0  0  0  0  0  0
    0.3202    0.7205   -6.2001 O   0  0  0  1  0  0  0  0  0  0  0  0
   -1.8756    0.0586   -5.4919 C   0  0  0  1  0  0  0  0  0  0  0  0
   -1.5792   -0.9124   -5.8301 H   0  0  0  1  0  0  0  0  0  0  0  0
   -2.9145    0.2076   -5.7000 H   0  0  0  1  0  0  0  0  0  0  0  0
   -1.6354    0.1798   -4.0702 O   0  0  0  1  0  0  0  0  0  0  0  0
   -1.6964   -1.1068   -3.1128 P   0  0  0  1  0  0  0  0  0  0  0  0
   -0.6854   -2.0904   -3.5741 O   0  0  0  0  0  0  0  0  0  0  0  0
   -3.0887   -1.5389   -2.9851 O   0  0  0  1  0  0  0  0  0  0  0  0
   -1.2807   -0.4660   -1.6994 O   0  0  0  1  0  0  0  0  0  0  0  0
   -1.2986   -1.0543   -0.1686 P   0  0  0  1  0  0  0  0  0  0  0  0
   -2.6190   -1.5745    0.2514 O   0  0  0  1  0  0  0  0  0  0  0  0
   -0.3493   -2.3660   -0.2214 O   0  5  0  1  0  0  0  0  0  0  0  0
   -0.6210   -0.1131    0.8899 O   0  0  0  1  0  0  0  0  0  0  0  0
   -0.9179    1.1681    2.8387 C   0  0  0  1  0  0  0  0  0  0  0  0
   -0.8382   -0.2392    2.3149 C   0  0  0  1  0  0  0  0  0  0  0  0
   -0.0239   -0.7619    2.7717 H   0  0  0  1  0  0  0  0  0  0  0  0
   -1.7516   -0.7618    2.5085 H   0  0  0  1  0  0  0  0  0  0  0  0
    0.4421    1.8332    2.5955 C   0  0  0  1  0  0  0  0  0  0  0  0
    1.0821    1.1558    2.0698 H   0  0  0  1  0  0  0  0  0  0  0  0
    0.8873    2.0880    3.5346 H   0  0  0  1  0  0  0  0  0  0  0  0
    0.3060    2.7200    2.0124 H   0  0  0  1  0  0  0  0  0  0  0  0
   -1.2207    1.1362    4.3464 C   0  0  0  1  0  0  0  0  0  0  0  0
   -0.4793    0.5493    4.8472 H   0  0  0  1  0  0  0  0  0  0  0  0
   -2.1861    0.7036    4.5070 H   0  0  0  1  0  0  0  0  0  0  0  0
   -1.2073    2.1335    4.7338 H   0  0  0  1  0  0  0  0  0  0  0  0
   -1.9954    1.9381    2.0671 C   0  0  0  1  0  0  0  0  0  0  0  0
   -2.0631    2.9217    2.4828 H   0  0  0  1  0  0  0  0  0  0  0  0
   -1.6182    2.0222    0.7033 O   0  0  0  1  0  0  0  0  0  0  0  0
   -1.9330    2.8506    0.3343 H   0  0  0  1  0  0  0  0  0  0  0  0
   -3.3366    1.2580    2.2319 C   0  0  0  1  0  0  0  0  0  0  0  0
   -3.9327    1.2761    3.3056 O   0  0  0  1  0  0  0  0  0  0  0  0
   -3.8155    0.6478    1.1441 N   0  0  0  1  0  0  0  0  0  0  0  0
   -3.2943    0.6476    0.3142 H   0  0  0  1  0  0  0  0  0  0  0  0
   -5.1095   -0.0165    1.1890 C   0  0  0  1  0  0  0  0  0  0  0  0
   -5.5197    0.0755    2.1730 H   0  0  0  1  0  0  0  0  0  0  0  0
   -4.9834   -1.0519    0.9501 H   0  0  0  1  0  0  0  0  0  0  0  0
   -6.0633    0.6183    0.1855 C   0  0  0  1  0  0  0  0  0  0  0  0
   -5.6353    0.5340   -0.7915 H   0  0  0  1  0  0  0  0  0  0  0  0
   -6.1822    1.6519    0.4354 H   0  0  0  1  0  0  0  0  0  0  0  0
   -7.4378   -0.0382    0.1710 C   0  0  0  1  0  0  0  0  0  0  0  0
   -7.5681   -1.2611    0.1368 O   0  0  0  1  0  0  0  0  0  0  0  0
   -8.4582    0.8411    0.1988 N   0  0  0  1  0  0  0  0  0  0  0  0
   -8.2740    1.8029    0.2364 H   0  0  0  1  0  0  0  0  0  0  0  0
   -9.8323    0.3661    0.1730 C   0  0  0  1  0  0  0  0  0  0  0  0
   -9.9981   -0.2504    1.0317 H   0  0  0  1  0  0  0  0  0  0  0  0
   -9.9786   -0.2120   -0.7154 H   0  0  0  1  0  0  0  0  0  0  0  0
  -10.8365    1.4957    0.1866 C   0  0  0  1  0  0  0  0  0  0  0  0
  -10.6586    2.1077   -0.6729 H   0  0  0  1  0  0  0  0  0  0  0  0
  -10.6759    2.0712    1.0743 H   0  0  0  1  0  0  0  0  0  0  0  0
  -12.5713    0.9812    0.1587 S   0  0  0  1  0  0  0  0  0  0  0  0
  -12.9428    1.0621    1.8953 C   0  0  0  1  0  0  0  0  0  0  0  0
  -12.2042    1.5464    2.7098 O   0  0  0  1  0  0  0  0  0  0  0  0
  -14.2870    0.4542    2.2226 C   0  0  0  1  0  0  0  0  0  0  0  0
  -14.7050    0.9492    3.0742 H   0  0  0  1  0  0  0  0  0  0  0  0
  -14.1643   -0.5863    2.4399 H   0  0  0  1  0  0  0  0  0  0  0  0
  -14.9436    0.5693    1.3856 H   0  0  0  1  0  0  0  0  0  0  0  0
  1  2  1  0  0  0  0
  1  7  2  0  0  0  0
  2  3  1  0  0  0  0
  2  4  2  0  0  0  0
  4  5  1  0  0  0  0
  5  6  2  0  0  0  0
  5 14  1  0  0  0  0
  6  7  1  0  0  0  0
  6 11  1  0  0  0  0
  7  8  1  0  0  0  0
  8  9  1  0  0  0  0
  8 10  1  0  0  0  0
 11 12  2  0  0  0  0
 12 13  1  0  0  0  0
 12 14  1  0  0  0  0
 14 15  1  0  0  0  0
 15 16  1  0  0  0  0
 15 17  1  0  0  0  0
 15 30  1  0  0  0  0
 17 18  1  0  0  0  0
 17 19  1  0  0  0  0
 17 21  1  0  0  0  0
 19 20  1  0  0  0  0
 21 22  1  0  0  0  0
 21 23  1  0  0  0  0
 21 28  1  0  0  0  0
 23 24  1  0  0  0  0
 24 25  1  0  0  0  0
 24 26  2  0  0  0  0
 24 27  1  0  0  0  0
 28 29  1  0  0  0  0
 28 30  1  0  0  0  0
 28 31  1  0  0  0  0
 31 32  1  0  0  0  0
 31 33  1  0  0  0  0
 31 34  1  0  0  0  0
 34 35  1  0  0  0  0
 35 36  1  0  0  0  0
 35 37  2  0  0  0  0
 35 38  1  0  0  0  0
 38 39  1  0  0  0  0
 39 40  2  0  0  0  0
 39 41  1  0  0  0  0
 39 42  1  0  0  0  0
 42 44  1  0  0  0  0
 43 44  1  0  0  0  0
 43 47  1  0  0  0  0
 43 51  1  0  0  0  0
 43 55  1  0  0  0  0
 44 45  1  0  0  0  0
 44 46  1  0  0  0  0
 47 48  1  0  0  0  0
 47 49  1  0  0  0  0
 47 50  1  0  0  0  0
 51 52  1  0  0  0  0
 51 53  1  0  0  0  0
 51 54  1  0  0  0  0
 55 56  1  0  0  0  0
 55 57  1  0  0  0  0
 55 59  1  0  0  0  0
 57 58  1  0  0  0  0
 59 60  2  0  0  0  0
 59 61  1  0  0  0  0
 61 62  1  0  0  0  0
 61 63  1  0  0  0  0
 63 64  1  0  0  0  0
 63 65  1  0  0  0  0
 63 66  1  0  0  0  0
 66 67  1  0  0  0  0
 66 68  1  0  0  0  0
 66 69  1  0  0  0  0
 69 70  2  0  0  0  0
 69 71  1  0  0  0  0
 71 72  1  0  0  0  0
 71 73  1  0  0  0  0
 73 74  1  0  0  0  0
 73 75  1  0  0  0  0
 73 76  1  0  0  0  0
 76 77  1  0  0  0  0
 76 78  1  0  0  0  0
 76 79  1  0  0  0  0
 79 80  1  0  0  0  0
 80 81  2  0  0  0  0
 80 82  1  0  0  0  0
 82 83  1  0  0  0  0
 82 84  1  0  0  0  0
 82 85  1  0  0  0  0
M  BCL ATM N_Tr2TrTrPi C_TrTrTrPi H_S N_Tr2TrTrPi C_TrTrTrPi C_TrTrTrPi C_TrTrTrPi N_TrTrTrPi2 H_S H_S N_Tr2TrTrPi C_TrTrTrPi H_S N_TrTrTrPi2 C_TeTeTeTe H_S C_TeTeTeTe H_S O_Te2Te2TeTe H_S C_TeTeTeTe H_S O_Tr2TrTrPi2 P_TeTeTeTePi O_Te2Te2TeTe O_Tr2Tr2TrPi O_Te2Te2Te2Te C_TeTeTeTe H_S O_Te2Te2TeTe C_TeTeTeTe H_S H_S O_Tr2TrTrPi2 P_TeTeTeTePi O_Te2Te2TeTe O_Tr2Tr2TrPi O_Tr2TrTrPi2 P_TeTeTeTePi O_Tr2Tr2TrPi O_Te2Te2Te2Te O_Tr2TrTrPi2 C_TeTeTeTe C_TeTeTeTe H_S H_S C_TeTeTeTe H_S H_S H_S C_TeTeTeTe H_S H_S H_S C_TeTeTeTe H_S O_Te2Te2TeTe H_S C_TrTrTrPi O_Tr2Tr2TrPi N_TrTrTrPi2 H_S C_TeTeTeTe H_S H_S C_TeTeTeTe H_S H_S C_TrTrTrPi O_Tr2Tr2TrPi N_TrTrTrPi2 H_S C_TeTeTeTe H_S H_S C_TeTeTeTe H_S H_S S_Te2Te2TeTe C_TrTrTrPi O_Tr2Tr2TrPi C_TeTeTeTe H_S H_S H_S
M  BCL BND AromaticSingleBond AromaticDoubleBond NonConjugatedSingleBond AromaticDoubleBond AromaticSingleBond AromaticDoubleBond AromaticSingleBond AromaticSingleBond AromaticSingleBond ConjugatedSingleBond NonConjugatedSingleBond NonConjugatedSingleBond AromaticDoubleBond NonConjugatedSingleBond AromaticSingleBond NonConjugatedSingleBond NonConjugatedSingleBond NonConjugatedSingleBondInRing NonConjugatedSingleBondInRing NonConjugatedSingleBond NonConjugatedSingleBond NonConjugatedSingleBondInRing NonConjugatedSingleBond NonConjugatedSingleBond NonConjugatedSingleBond NonConjugatedSingleBondInRing ConjugatedSingleBond ConjugatedSingleBond ConjugatedDoubleBond ConjugatedSingleBond NonConjugatedSingleBond NonConjugatedSingleBondInRing NonConjugatedSingleBond NonConjugatedSingleBond NonConjugatedSingleBond NonConjugatedSingleBond ConjugatedSingleBond ConjugatedSingleBond ConjugatedDoubleBond ConjugatedSingleBond ConjugatedSingleBond ConjugatedDoubleBond ConjugatedSingleBond ConjugatedSingleBond NonConjugatedSingleBond NonConjugatedSingleBond NonConjugatedSingleBond NonConjugatedSingleBond NonConjugatedSingleBond NonConjugatedSingleBond NonConjugatedSingleBond NonConjugatedSingleBond NonConjugatedSingleBond NonConjugatedSingleBond NonConjugatedSingleBond NonConjugatedSingleBond NonConjugatedSingleBond NonConjugatedSingleBond NonConjugatedSingleBond NonConjugatedSingleBond NonConjugatedSingleBond ConjugatedDoubleBond AmideSingleBond NonConjugatedSingleBond NonConjugatedSingleBond NonConjugatedSingleBond NonConjugatedSingleBond NonConjugatedSingleBond NonConjugatedSingleBond NonConjugatedSingleBond NonConjugatedSingleBond ConjugatedDoubleBond AmideSingleBond NonConjugatedSingleBond NonConjugatedSingleBond NonConjugatedSingleBond NonConjugatedSingleBond NonConjugatedSingleBond NonConjugatedSingleBond NonConjugatedSingleBond NonConjugatedSingleBond ConjugatedSingleBond ConjugatedDoubleBond NonConjugatedSingleBond NonConjugatedSingleBond NonConjugatedSingleBond NonConjugatedSingleBond
M  BCL CHI  15   S  17   S  21   S  24   S  28   R  35   R  39   R  55   S
M  BCL DBI - - - - - - - - - -
M  END
> <ConfClashScore>
0 

> <ConfOneFourInteractionScore>
-0.977611 

> <ConfScore>
0.00308813 

> <ConfScorePBest>
0.0121115 

> <ConfTolerance>
2.28283 

$$$$
ACO.****
  PyMOL2.5          3D                             0

 85 87  0  0  0  0  0  0  0  0999 V2000
    4.8905    1.0791  -10.6384 N   0  0  0  1  0  0  0  0  0  0  0  0
    3.8411    1.9087  -10.5267 C   0  0  0  1  0  0  0  0  0  0  0  0
    3.8102    2.6898  -11.2127 H   0  0  0  1  0  0  0  0  0  0  0  0
    2.8375    1.8668   -9.6590 N   0  0  0  1  0  0  0  0  0  0  0  0
    2.9586    0.8322   -8.8260 C   0  0  0  1  0  0  0  0  0  0  0  0
    3.9908   -0.1156   -8.8124 C   0  0  0  1  0  0  0  0  0  0  0  0
    4.9795    0.0609   -9.7758 C   0  0  0  1  0  0  0  0  0  0  0  0
    6.0641   -0.7676   -9.8942 N   0  0  0  1  0  0  0  0  0  0  0  0
    6.7596   -0.5728  -10.5566 H   0  0  0  1  0  0  0  0  0  0  0  0
    6.1445   -1.5551   -9.3165 H   0  0  0  1  0  0  0  0  0  0  0  0
    3.7852   -1.0351   -7.7956 N   0  0  0  1  0  0  0  0  0  0  0  0
    2.6719   -0.6361   -7.2432 C   0  0  0  1  0  0  0  0  0  0  0  0
    2.2382   -1.1317   -6.4382 H   0  0  0  1  0  0  0  0  0  0  0  0
    2.1214    0.4773   -7.7999 N   0  0  0  1  0  0  0  0  0  0  0  0
    0.8598    1.1732   -7.3787 C   0  0  0  1  0  0  0  0  0  0  0  0
    1.0802    2.1885   -7.1229 H   0  0  0  1  0  0  0  0  0  0  0  0
   -0.1722    1.1186   -8.4905 C   0  0  0  1  0  0  0  0  0  0  0  0
    0.2943    1.1396   -9.4532 H   0  0  0  1  0  0  0  0  0  0  0  0
   -1.1020    2.2002   -8.3871 O   0  0  0  1  0  0  0  0  0  0  0  0
   -1.8965    1.8982   -7.9408 H   0  0  0  1  0  0  0  0  0  0  0  0
   -0.8463   -0.2057   -8.2399 C   0  0  0  1  0  0  0  0  0  0  0  0
   -0.2663   -1.0181   -8.6254 H   0  0  0  1  0  0  0  0  0  0  0  0
   -2.1624   -0.2411   -8.8145 O   0  0  0  1  0  0  0  0  0  0  0  0
   -2.9434   -1.5946   -9.3121 P   0  0  0  1  0  0  0  0  0  0  0  0
   -4.4521   -1.1351   -9.7618 O   0  0  0  0  0  0  0  0  0  0  0  0
   -2.1790   -2.1146  -10.4678 O   0  0  0  1  0  0  0  0  0  0  0  0
   -3.1409   -2.6304   -8.0822 O   0  5  0  1  0  0  0  0  0  0  0  0
   -0.9033   -0.2364   -6.7132 C   0  0  0  1  0  0  0  0  0  0  0  0
   -1.7970    0.2343   -6.3600 H   0  0  0  1  0  0  0  0  0  0  0  0
    0.2704    0.5054   -6.2830 O   0  0  0  1  0  0  0  0  0  0  0  0
   -0.8501   -1.6258   -6.2190 C   0  0  0  1  0  0  0  0  0  0  0  0
   -0.3295   -2.2329   -6.9299 H   0  0  0  1  0  0  0  0  0  0  0  0
   -1.8470   -1.9946   -6.0964 H   0  0  0  1  0  0  0  0  0  0  0  0
   -0.1609   -1.6837   -4.9479 O   0  0  0  1  0  0  0  0  0  0  0  0
    0.5239   -3.0501   -4.4418 P   0  0  0  1  0  0  0  0  0  0  0  0
    1.5712   -3.3297   -5.4545 O   0  0  0  0  0  0  0  0  0  0  0  0
   -0.5034   -4.0702   -4.1303 O   0  0  0  1  0  0  0  0  0  0  0  0
    1.2136   -2.5013   -3.1071 O   0  0  0  1  0  0  0  0  0  0  0  0
    0.8319   -1.3714   -1.9814 P   0  0  0  1  0  0  0  0  0  0  0  0
    1.0994   -0.0504   -2.5928 O   0  0  0  1  0  0  0  0  0  0  0  0
   -0.7385   -1.5562   -1.6290 O   0  5  0  1  0  0  0  0  0  0  0  0
    1.6087   -1.6513   -0.6318 O   0  0  0  1  0  0  0  0  0  0  0  0
    3.3256   -2.9083    0.4156 C   0  0  0  1  0  0  0  0  0  0  0  0
    3.0180   -1.9597   -0.6959 C   0  0  0  1  0  0  0  0  0  0  0  0
    3.5925   -1.0644   -0.5805 H   0  0  0  1  0  0  0  0  0  0  0  0
    3.2493   -2.4136   -1.6369 H   0  0  0  1  0  0  0  0  0  0  0  0
    3.0618   -2.2256    1.7606 C   0  0  0  1  0  0  0  0  0  0  0  0
    2.0541   -1.8666    1.7874 H   0  0  0  1  0  0  0  0  0  0  0  0
    3.7362   -1.4038    1.8816 H   0  0  0  1  0  0  0  0  0  0  0  0
    3.2106   -2.9294    2.5528 H   0  0  0  1  0  0  0  0  0  0  0  0
    4.7778   -3.3759    0.2915 C   0  0  0  1  0  0  0  0  0  0  0  0
    4.9299   -4.2364    0.9090 H   0  0  0  1  0  0  0  0  0  0  0  0
    5.4332   -2.5909    0.6063 H   0  0  0  1  0  0  0  0  0  0  0  0
    4.9854   -3.6273   -0.7276 H   0  0  0  1  0  0  0  0  0  0  0  0
    2.3985   -4.1192    0.2695 C   0  0  0  1  0  0  0  0  0  0  0  0
    1.3974   -3.7984    0.4686 H   0  0  0  1  0  0  0  0  0  0  0  0
    2.4865   -4.6133   -1.0562 O   0  0  0  1  0  0  0  0  0  0  0  0
    2.2477   -5.5430   -1.0682 H   0  0  0  1  0  0  0  0  0  0  0  0
    2.7696   -5.1861    1.2897 C   0  0  0  1  0  0  0  0  0  0  0  0
    2.6007   -5.0035    2.4946 O   0  0  0  1  0  0  0  0  0  0  0  0
    3.2846   -6.3187    0.7875 N   0  0  0  1  0  0  0  0  0  0  0  0
    3.4290   -6.3846   -0.1795 H   0  0  0  1  0  0  0  0  0  0  0  0
    3.6362   -7.4528    1.6290 C   0  0  0  1  0  0  0  0  0  0  0  0
    3.0314   -8.2933    1.3595 H   0  0  0  1  0  0  0  0  0  0  0  0
    3.4604   -7.2001    2.6537 H   0  0  0  1  0  0  0  0  0  0  0  0
    5.1021   -7.8101    1.4450 C   0  0  0  1  0  0  0  0  0  0  0  0
    5.6674   -6.9018    1.4583 H   0  0  0  1  0  0  0  0  0  0  0  0
    5.2092   -8.2836    0.4915 H   0  0  0  1  0  0  0  0  0  0  0  0
    5.6818   -8.7373    2.4954 C   0  0  0  1  0  0  0  0  0  0  0  0
    5.7829   -8.3875    3.6684 O   0  0  0  1  0  0  0  0  0  0  0  0
    6.0673   -9.9398    2.0591 N   0  0  0  1  0  0  0  0  0  0  0  0
    5.9900  -10.1627    1.1079 H   0  0  0  1  0  0  0  0  0  0  0  0
    6.6013  -10.9185    2.9926 C   0  0  0  1  0  0  0  0  0  0  0  0
    5.8867  -11.0727    3.7739 H   0  0  0  1  0  0  0  0  0  0  0  0
    7.5091  -10.5350    3.4094 H   0  0  0  1  0  0  0  0  0  0  0  0
    6.8934  -12.2450    2.3360 C   0  0  0  1  0  0  0  0  0  0  0  0
    7.4556  -12.8394    3.0257 H   0  0  0  1  0  0  0  0  0  0  0  0
    7.4820  -12.0596    1.4619 H   0  0  0  1  0  0  0  0  0  0  0  0
    5.4354  -13.1927    1.8388 S   0  0  0  1  0  0  0  0  0  0  0  0
    5.0553  -13.9996    3.3766 C   0  0  0  1  0  0  0  0  0  0  0  0
    5.6318  -13.7435    4.4172 O   0  0  0  1  0  0  0  0  0  0  0  0
    3.9682  -15.0263    3.3095 C   0  0  0  1  0  0  0  0  0  0  0  0
    3.2074  -14.6973    2.6329 H   0  0  0  1  0  0  0  0  0  0  0  0
    3.5451  -15.1617    4.2829 H   0  0  0  1  0  0  0  0  0  0  0  0
    4.3749  -15.9540    2.9647 H   0  0  0  1  0  0  0  0  0  0  0  0
  1  2  1  0  0  0  0
  1  7  2  0  0  0  0
  2  3  1  0  0  0  0
  2  4  2  0  0  0  0
  4  5  1  0  0  0  0
  5  6  2  0  0  0  0
  5 14  1  0  0  0  0
  6  7  1  0  0  0  0
  6 11  1  0  0  0  0
  7  8  1  0  0  0  0
  8  9  1  0  0  0  0
  8 10  1  0  0  0  0
 11 12  2  0  0  0  0
 12 13  1  0  0  0  0
 12 14  1  0  0  0  0
 14 15  1  0  0  0  0
 15 16  1  0  0  0  0
 15 17  1  0  0  0  0
 15 30  1  0  0  0  0
 17 18  1  0  0  0  0
 17 19  1  0  0  0  0
 17 21  1  0  0  0  0
 19 20  1  0  0  0  0
 21 22  1  0  0  0  0
 21 23  1  0  0  0  0
 21 28  1  0  0  0  0
 23 24  1  0  0  0  0
 24 25  1  0  0  0  0
 24 26  2  0  0  0  0
 24 27  1  0  0  0  0
 28 29  1  0  0  0  0
 28 30  1  0  0  0  0
 28 31  1  0  0  0  0
 31 32  1  0  0  0  0
 31 33  1  0  0  0  0
 31 34  1  0  0  0  0
 34 35  1  0  0  0  0
 35 36  1  0  0  0  0
 35 37  2  0  0  0  0
 35 38  1  0  0  0  0
 38 39  1  0  0  0  0
 39 40  2  0  0  0  0
 39 41  1  0  0  0  0
 39 42  1  0  0  0  0
 42 44  1  0  0  0  0
 43 44  1  0  0  0  0
 43 47  1  0  0  0  0
 43 51  1  0  0  0  0
 43 55  1  0  0  0  0
 44 45  1  0  0  0  0
 44 46  1  0  0  0  0
 47 48  1  0  0  0  0
 47 49  1  0  0  0  0
 47 50  1  0  0  0  0
 51 52  1  0  0  0  0
 51 53  1  0  0  0  0
 51 54  1  0  0  0  0
 55 56  1  0  0  0  0
 55 57  1  0  0  0  0
 55 59  1  0  0  0  0
 57 58  1  0  0  0  0
 59 60  2  0  0  0  0
 59 61  1  0  0  0  0
 61 62  1  0  0  0  0
 61 63  1  0  0  0  0
 63 64  1  0  0  0  0
 63 65  1  0  0  0  0
 63 66  1  0  0  0  0
 66 67  1  0  0  0  0
 66 68  1  0  0  0  0
 66 69  1  0  0  0  0
 69 70  2  0  0  0  0
 69 71  1  0  0  0  0
 71 72  1  0  0  0  0
 71 73  1  0  0  0  0
 73 74  1  0  0  0  0
 73 75  1  0  0  0  0
 73 76  1  0  0  0  0
 76 77  1  0  0  0  0
 76 78  1  0  0  0  0
 76 79  1  0  0  0  0
 79 80  1  0  0  0  0
 80 81  2  0  0  0  0
 80 82  1  0  0  0  0
 82 83  1  0  0  0  0
 82 84  1  0  0  0  0
 82 85  1  0  0  0  0
M  BCL ATM N_Tr2TrTrPi C_TrTrTrPi H_S N_Tr2TrTrPi C_TrTrTrPi C_TrTrTrPi C_TrTrTrPi N_TrTrTrPi2 H_S H_S N_Tr2TrTrPi C_TrTrTrPi H_S N_TrTrTrPi2 C_TeTeTeTe H_S C_TeTeTeTe H_S O_Te2Te2TeTe H_S C_TeTeTeTe H_S O_Tr2TrTrPi2 P_TeTeTeTePi O_Te2Te2TeTe O_Tr2Tr2TrPi O_Te2Te2Te2Te C_TeTeTeTe H_S O_Te2Te2TeTe C_TeTeTeTe H_S H_S O_Tr2TrTrPi2 P_TeTeTeTePi O_Te2Te2TeTe O_Tr2Tr2TrPi O_Tr2TrTrPi2 P_TeTeTeTePi O_Tr2Tr2TrPi O_Te2Te2Te2Te O_Tr2TrTrPi2 C_TeTeTeTe C_TeTeTeTe H_S H_S C_TeTeTeTe H_S H_S H_S C_TeTeTeTe H_S H_S H_S C_TeTeTeTe H_S O_Te2Te2TeTe H_S C_TrTrTrPi O_Tr2Tr2TrPi N_TrTrTrPi2 H_S C_TeTeTeTe H_S H_S C_TeTeTeTe H_S H_S C_TrTrTrPi O_Tr2Tr2TrPi N_TrTrTrPi2 H_S C_TeTeTeTe H_S H_S C_TeTeTeTe H_S H_S S_Te2Te2TeTe C_TrTrTrPi O_Tr2Tr2TrPi C_TeTeTeTe H_S H_S H_S
M  BCL BND AromaticSingleBond AromaticDoubleBond NonConjugatedSingleBond AromaticDoubleBond AromaticSingleBond AromaticDoubleBond AromaticSingleBond AromaticSingleBond AromaticSingleBond ConjugatedSingleBond NonConjugatedSingleBond NonConjugatedSingleBond AromaticDoubleBond NonConjugatedSingleBond AromaticSingleBond NonConjugatedSingleBond NonConjugatedSingleBond NonConjugatedSingleBondInRing NonConjugatedSingleBondInRing NonConjugatedSingleBond NonConjugatedSingleBond NonConjugatedSingleBondInRing NonConjugatedSingleBond NonConjugatedSingleBond NonConjugatedSingleBond NonConjugatedSingleBondInRing ConjugatedSingleBond ConjugatedSingleBond ConjugatedDoubleBond ConjugatedSingleBond NonConjugatedSingleBond NonConjugatedSingleBondInRing NonConjugatedSingleBond NonConjugatedSingleBond NonConjugatedSingleBond NonConjugatedSingleBond ConjugatedSingleBond ConjugatedSingleBond ConjugatedDoubleBond ConjugatedSingleBond ConjugatedSingleBond ConjugatedDoubleBond ConjugatedSingleBond ConjugatedSingleBond NonConjugatedSingleBond NonConjugatedSingleBond NonConjugatedSingleBond NonConjugatedSingleBond NonConjugatedSingleBond NonConjugatedSingleBond NonConjugatedSingleBond NonConjugatedSingleBond NonConjugatedSingleBond NonConjugatedSingleBond NonConjugatedSingleBond NonConjugatedSingleBond NonConjugatedSingleBond NonConjugatedSingleBond NonConjugatedSingleBond NonConjugatedSingleBond NonConjugatedSingleBond ConjugatedDoubleBond AmideSingleBond NonConjugatedSingleBond NonConjugatedSingleBond NonConjugatedSingleBond NonConjugatedSingleBond NonConjugatedSingleBond NonConjugatedSingleBond NonConjugatedSingleBond NonConjugatedSingleBond ConjugatedDoubleBond AmideSingleBond NonConjugatedSingleBond NonConjugatedSingleBond NonConjugatedSingleBond NonConjugatedSingleBond NonConjugatedSingleBond NonConjugatedSingleBond NonConjugatedSingleBond NonConjugatedSingleBond ConjugatedSingleBond ConjugatedDoubleBond NonConjugatedSingleBond NonConjugatedSingleBond NonConjugatedSingleBond NonConjugatedSingleBond
M  BCL CHI  15   S  17   S  21   S  24   S  28   R  35   R  39   R  55   S
M  BCL DBI - - - - - - - - - -
M  END
> <ConfClashScore>
0 

> <ConfOneFourInteractionScore>
-0.9837 

> <ConfScore>
0.00329825 

> <ConfScorePBest>
0.0120085 

> <ConfTolerance>
2.26077 

$$$$
ACO.****
  PyMOL2.5          3D                             0

 85 87  0  0  0  0  0  0  0  0999 V2000
    4.8961    1.0608  -10.6226 N   0  0  0  1  0  0  0  0  0  0  0  0
    3.8513    1.8973  -10.5203 C   0  0  0  1  0  0  0  0  0  0  0  0
    3.8293    2.6759  -11.2094 H   0  0  0  1  0  0  0  0  0  0  0  0
    2.8423    1.8649   -9.6584 N   0  0  0  1  0  0  0  0  0  0  0  0
    2.9520    0.8327   -8.8209 C   0  0  0  1  0  0  0  0  0  0  0  0
    3.9781   -0.1214   -8.7976 C   0  0  0  1  0  0  0  0  0  0  0  0
    4.9736    0.0453   -9.7558 C   0  0  0  1  0  0  0  0  0  0  0  0
    6.0859   -0.7651   -9.9139 N   0  0  0  1  0  0  0  0  0  0  0  0
    6.2676   -1.4793   -9.2680 H   0  0  0  1  0  0  0  0  0  0  0  0
    6.6912   -0.6241  -10.6716 H   0  0  0  1  0  0  0  0  0  0  0  0
    3.7607   -1.0358   -7.7786 N   0  0  0  1  0  0  0  0  0  0  0  0
    2.6467   -0.6278   -7.2343 C   0  0  0  1  0  0  0  0  0  0  0  0
    2.2051   -1.1176   -6.4302 H   0  0  0  1  0  0  0  0  0  0  0  0
    2.1065    0.4870   -7.7985 N   0  0  0  1  0  0  0  0  0  0  0  0
    0.8667    1.1811   -7.3939 C   0  0  0  1  0  0  0  0  0  0  0  0
    0.5519    0.8212   -6.4367 H   0  0  0  1  0  0  0  0  0  0  0  0
    1.0753    2.7162   -7.3669 C   0  0  0  1  0  0  0  0  0  0  0  0
    1.7097    3.0361   -8.1670 H   0  0  0  1  0  0  0  0  0  0  0  0
    1.6285    3.1430   -6.1192 O   0  0  0  1  0  0  0  0  0  0  0  0
    1.0627    2.8504   -5.4010 H   0  0  0  1  0  0  0  0  0  0  0  0
   -0.3722    3.2434   -7.5509 C   0  0  0  1  0  0  0  0  0  0  0  0
   -0.3872    4.0947   -8.1989 H   0  0  0  1  0  0  0  0  0  0  0  0
   -0.9553    3.5963   -6.2778 O   0  0  0  1  0  0  0  0  0  0  0  0
   -1.1902    5.1468   -5.7978 P   0  0  0  1  0  0  0  0  0  0  0  0
    0.2722    5.8791   -5.6767 O   0  0  0  0  0  0  0  0  0  0  0  0
   -2.1298    5.8805   -6.6748 O   0  0  0  1  0  0  0  0  0  0  0  0
   -1.8565    5.1185   -4.3214 O   0  5  0  1  0  0  0  0  0  0  0  0
   -1.1237    2.0578   -8.1874 C   0  0  0  1  0  0  0  0  0  0  0  0
   -1.9077    1.7304   -7.5370 H   0  0  0  1  0  0  0  0  0  0  0  0
   -0.1714    0.9991   -8.3801 O   0  0  0  1  0  0  0  0  0  0  0  0
   -1.7040    2.4675   -9.5009 C   0  0  0  1  0  0  0  0  0  0  0  0
   -2.3148    3.3368   -9.3742 H   0  0  0  1  0  0  0  0  0  0  0  0
   -2.2951    1.6710   -9.9024 H   0  0  0  1  0  0  0  0  0  0  0  0
   -0.6045    2.7636  -10.3938 O   0  0  0  1  0  0  0  0  0  0  0  0
   -0.8430    2.9088  -11.9662 P   0  0  0  1  0  0  0  0  0  0  0  0
   -1.9018    3.9391  -12.0549 O   0  0  0  0  0  0  0  0  0  0  0  0
   -1.0091    1.5987  -12.6142 O   0  0  0  1  0  0  0  0  0  0  0  0
    0.5699    3.4386  -12.5132 O   0  0  0  1  0  0  0  0  0  0  0  0
    1.2503    4.1598  -13.8196 P   0  0  0  1  0  0  0  0  0  0  0  0
    0.8097    3.3752  -14.9945 O   0  0  0  1  0  0  0  0  0  0  0  0
    0.8639    5.7324  -13.8638 O   0  5  0  1  0  0  0  0  0  0  0  0
    2.8026    3.9823  -13.6040 O   0  0  0  1  0  0  0  0  0  0  0  0
    4.9076    5.1144  -13.3145 C   0  0  0  1  0  0  0  0  0  0  0  0
    3.6434    5.0737  -14.0745 C   0  0  0  1  0  0  0  0  0  0  0  0
    3.1239    6.0000  -13.9442 H   0  0  0  1  0  0  0  0  0  0  0  0
    3.8606    4.9289  -15.1122 H   0  0  0  1  0  0  0  0  0  0  0  0
    5.6518    3.7923  -13.5317 C   0  0  0  1  0  0  0  0  0  0  0  0
    5.0085    2.9749  -13.2807 H   0  0  0  1  0  0  0  0  0  0  0  0
    6.5211    3.7661  -12.9085 H   0  0  0  1  0  0  0  0  0  0  0  0
    5.9452    3.7128  -14.5576 H   0  0  0  1  0  0  0  0  0  0  0  0
    4.5159    5.3206  -11.8354 C   0  0  0  1  0  0  0  0  0  0  0  0
    3.8899    4.5138  -11.5159 H   0  0  0  1  0  0  0  0  0  0  0  0
    3.9867    6.2448  -11.7324 H   0  0  0  1  0  0  0  0  0  0  0  0
    5.3998    5.3460  -11.2329 H   0  0  0  1  0  0  0  0  0  0  0  0
    5.7574    6.2706  -13.8475 C   0  0  0  1  0  0  0  0  0  0  0  0
    6.5948    6.4124  -13.1966 H   0  0  0  1  0  0  0  0  0  0  0  0
    6.2014    5.9809  -15.1677 O   0  0  0  1  0  0  0  0  0  0  0  0
    5.8173    5.1511  -15.4601 H   0  0  0  1  0  0  0  0  0  0  0  0
    4.9144    7.5397  -13.8516 C   0  0  0  1  0  0  0  0  0  0  0  0
    4.8952    8.2952  -12.8835 O   0  0  0  1  0  0  0  0  0  0  0  0
    4.2077    7.7668  -14.9701 N   0  0  0  1  0  0  0  0  0  0  0  0
    4.2833    7.1335  -15.7142 H   0  0  0  1  0  0  0  0  0  0  0  0
    3.3331    8.9208  -15.1163 C   0  0  0  1  0  0  0  0  0  0  0  0
    3.2022    9.1095  -16.1613 H   0  0  0  1  0  0  0  0  0  0  0  0
    3.8114    9.7615  -14.6587 H   0  0  0  1  0  0  0  0  0  0  0  0
    1.9659    8.7598  -14.4922 C   0  0  0  1  0  0  0  0  0  0  0  0
    2.0879    8.7455  -13.4292 H   0  0  0  1  0  0  0  0  0  0  0  0
    1.5624    7.8239  -14.8180 H   0  0  0  1  0  0  0  0  0  0  0  0
    0.9637    9.8453  -14.8334 C   0  0  0  1  0  0  0  0  0  0  0  0
    0.2933    9.7942  -15.8634 O   0  0  0  1  0  0  0  0  0  0  0  0
    0.8647   10.8424  -13.9497 N   0  0  0  1  0  0  0  0  0  0  0  0
    1.3097   10.7508  -13.0814 H   0  0  0  1  0  0  0  0  0  0  0  0
    0.1172   12.0626  -14.2322 C   0  0  0  1  0  0  0  0  0  0  0  0
    0.0327   12.1509  -15.2952 H   0  0  0  1  0  0  0  0  0  0  0  0
    0.6847   12.8851  -13.8495 H   0  0  0  1  0  0  0  0  0  0  0  0
   -1.2763   12.1610  -13.6538 C   0  0  0  1  0  0  0  0  0  0  0  0
   -1.8896   11.4320  -14.1411 H   0  0  0  1  0  0  0  0  0  0  0  0
   -1.6529   13.1408  -13.8615 H   0  0  0  1  0  0  0  0  0  0  0  0
   -1.3879   11.8846  -11.8699 S   0  0  0  1  0  0  0  0  0  0  0  0
   -3.1185   12.1643  -11.5519 C   0  0  0  1  0  0  0  0  0  0  0  0
   -3.9008   12.3652  -12.4413 O   0  0  0  1  0  0  0  0  0  0  0  0
   -3.4599   12.0356  -10.0882 C   0  0  0  1  0  0  0  0  0  0  0  0
   -2.9694   11.1761   -9.6813 H   0  0  0  1  0  0  0  0  0  0  0  0
   -4.5186   11.9276   -9.9773 H   0  0  0  1  0  0  0  0  0  0  0  0
   -3.1337   12.9117   -9.5678 H   0  0  0  1  0  0  0  0  0  0  0  0
  1  2  1  0  0  0  0
  1  7  2  0  0  0  0
  2  3  1  0  0  0  0
  2  4  2  0  0  0  0
  4  5  1  0  0  0  0
  5  6  2  0  0  0  0
  5 14  1  0  0  0  0
  6  7  1  0  0  0  0
  6 11  1  0  0  0  0
  7  8  1  0  0  0  0
  8  9  1  0  0  0  0
  8 10  1  0  0  0  0
 11 12  2  0  0  0  0
 12 13  1  0  0  0  0
 12 14  1  0  0  0  0
 14 15  1  0  0  0  0
 15 16  1  0  0  0  0
 15 17  1  0  0  0  0
 15 30  1  0  0  0  0
 17 18  1  0  0  0  0
 17 19  1  0  0  0  0
 17 21  1  0  0  0  0
 19 20  1  0  0  0  0
 21 22  1  0  0  0  0
 21 23  1  0  0  0  0
 21 28  1  0  0  0  0
 23 24  1  0  0  0  0
 24 25  1  0  0  0  0
 24 26  2  0  0  0  0
 24 27  1  0  0  0  0
 28 29  1  0  0  0  0
 28 30  1  0  0  0  0
 28 31  1  0  0  0  0
 31 32  1  0  0  0  0
 31 33  1  0  0  0  0
 31 34  1  0  0  0  0
 34 35  1  0  0  0  0
 35 36  1  0  0  0  0
 35 37  2  0  0  0  0
 35 38  1  0  0  0  0
 38 39  1  0  0  0  0
 39 40  2  0  0  0  0
 39 41  1  0  0  0  0
 39 42  1  0  0  0  0
 42 44  1  0  0  0  0
 43 44  1  0  0  0  0
 43 47  1  0  0  0  0
 43 51  1  0  0  0  0
 43 55  1  0  0  0  0
 44 45  1  0  0  0  0
 44 46  1  0  0  0  0
 47 48  1  0  0  0  0
 47 49  1  0  0  0  0
 47 50  1  0  0  0  0
 51 52  1  0  0  0  0
 51 53  1  0  0  0  0
 51 54  1  0  0  0  0
 55 56  1  0  0  0  0
 55 57  1  0  0  0  0
 55 59  1  0  0  0  0
 57 58  1  0  0  0  0
 59 60  2  0  0  0  0
 59 61  1  0  0  0  0
 61 62  1  0  0  0  0
 61 63  1  0  0  0  0
 63 64  1  0  0  0  0
 63 65  1  0  0  0  0
 63 66  1  0  0  0  0
 66 67  1  0  0  0  0
 66 68  1  0  0  0  0
 66 69  1  0  0  0  0
 69 70  2  0  0  0  0
 69 71  1  0  0  0  0
 71 72  1  0  0  0  0
 71 73  1  0  0  0  0
 73 74  1  0  0  0  0
 73 75  1  0  0  0  0
 73 76  1  0  0  0  0
 76 77  1  0  0  0  0
 76 78  1  0  0  0  0
 76 79  1  0  0  0  0
 79 80  1  0  0  0  0
 80 81  2  0  0  0  0
 80 82  1  0  0  0  0
 82 83  1  0  0  0  0
 82 84  1  0  0  0  0
 82 85  1  0  0  0  0
M  BCL ATM N_Tr2TrTrPi C_TrTrTrPi H_S N_Tr2TrTrPi C_TrTrTrPi C_TrTrTrPi C_TrTrTrPi N_TrTrTrPi2 H_S H_S N_Tr2TrTrPi C_TrTrTrPi H_S N_TrTrTrPi2 C_TeTeTeTe H_S C_TeTeTeTe H_S O_Te2Te2TeTe H_S C_TeTeTeTe H_S O_Tr2TrTrPi2 P_TeTeTeTePi O_Te2Te2TeTe O_Tr2Tr2TrPi O_Te2Te2Te2Te C_TeTeTeTe H_S O_Te2Te2TeTe C_TeTeTeTe H_S H_S O_Tr2TrTrPi2 P_TeTeTeTePi O_Te2Te2TeTe O_Tr2Tr2TrPi O_Tr2TrTrPi2 P_TeTeTeTePi O_Tr2Tr2TrPi O_Te2Te2Te2Te O_Tr2TrTrPi2 C_TeTeTeTe C_TeTeTeTe H_S H_S C_TeTeTeTe H_S H_S H_S C_TeTeTeTe H_S H_S H_S C_TeTeTeTe H_S O_Te2Te2TeTe H_S C_TrTrTrPi O_Tr2Tr2TrPi N_TrTrTrPi2 H_S C_TeTeTeTe H_S H_S C_TeTeTeTe H_S H_S C_TrTrTrPi O_Tr2Tr2TrPi N_TrTrTrPi2 H_S C_TeTeTeTe H_S H_S C_TeTeTeTe H_S H_S S_Te2Te2TeTe C_TrTrTrPi O_Tr2Tr2TrPi C_TeTeTeTe H_S H_S H_S
M  BCL BND AromaticSingleBond AromaticDoubleBond NonConjugatedSingleBond AromaticDoubleBond AromaticSingleBond AromaticDoubleBond AromaticSingleBond AromaticSingleBond AromaticSingleBond ConjugatedSingleBond NonConjugatedSingleBond NonConjugatedSingleBond AromaticDoubleBond NonConjugatedSingleBond AromaticSingleBond NonConjugatedSingleBond NonConjugatedSingleBond NonConjugatedSingleBondInRing NonConjugatedSingleBondInRing NonConjugatedSingleBond NonConjugatedSingleBond NonConjugatedSingleBondInRing NonConjugatedSingleBond NonConjugatedSingleBond NonConjugatedSingleBond NonConjugatedSingleBondInRing ConjugatedSingleBond ConjugatedSingleBond ConjugatedDoubleBond ConjugatedSingleBond NonConjugatedSingleBond NonConjugatedSingleBondInRing NonConjugatedSingleBond NonConjugatedSingleBond NonConjugatedSingleBond NonConjugatedSingleBond ConjugatedSingleBond ConjugatedSingleBond ConjugatedDoubleBond ConjugatedSingleBond ConjugatedSingleBond ConjugatedDoubleBond ConjugatedSingleBond ConjugatedSingleBond NonConjugatedSingleBond NonConjugatedSingleBond NonConjugatedSingleBond NonConjugatedSingleBond NonConjugatedSingleBond NonConjugatedSingleBond NonConjugatedSingleBond NonConjugatedSingleBond NonConjugatedSingleBond NonConjugatedSingleBond NonConjugatedSingleBond NonConjugatedSingleBond NonConjugatedSingleBond NonConjugatedSingleBond NonConjugatedSingleBond NonConjugatedSingleBond NonConjugatedSingleBond ConjugatedDoubleBond AmideSingleBond NonConjugatedSingleBond NonConjugatedSingleBond NonConjugatedSingleBond NonConjugatedSingleBond NonConjugatedSingleBond NonConjugatedSingleBond NonConjugatedSingleBond NonConjugatedSingleBond ConjugatedDoubleBond AmideSingleBond NonConjugatedSingleBond NonConjugatedSingleBond NonConjugatedSingleBond NonConjugatedSingleBond NonConjugatedSingleBond NonConjugatedSingleBond NonConjugatedSingleBond NonConjugatedSingleBond ConjugatedSingleBond ConjugatedDoubleBond NonConjugatedSingleBond NonConjugatedSingleBond NonConjugatedSingleBond NonConjugatedSingleBond
M  BCL CHI  15   S  17   S  21   S  24   S  28   R  35   R  39   R  55   S
M  BCL DBI - - - - - - - - - -
M  END
> <ConfClashScore>
0 

> <ConfOneFourInteractionScore>
-0.980634 

> <ConfScore>
0.00489503 

> <ConfScorePBest>
0.0119055 

> <ConfTolerance>
2.50935 

$$$$
ACO.****
  PyMOL2.5          3D                             0

 85 87  0  0  0  0  0  0  0  0999 V2000
    4.8906    1.0814  -10.6357 N   0  0  0  1  0  0  0  0  0  0  0  0
    3.8417    1.9116  -10.5241 C   0  0  0  1  0  0  0  0  0  0  0  0
    3.8121    2.6935  -11.2092 H   0  0  0  1  0  0  0  0  0  0  0  0
    2.8372    1.8694   -9.6575 N   0  0  0  1  0  0  0  0  0  0  0  0
    2.9567    0.8337   -8.8256 C   0  0  0  1  0  0  0  0  0  0  0  0
    3.9881   -0.1148   -8.8121 C   0  0  0  1  0  0  0  0  0  0  0  0
    4.9780    0.0621   -9.7742 C   0  0  0  1  0  0  0  0  0  0  0  0
    6.0621   -0.7670   -9.8924 N   0  0  0  1  0  0  0  0  0  0  0  0
    6.7777   -0.5507  -10.5261 H   0  0  0  1  0  0  0  0  0  0  0  0
    6.1221   -1.5765   -9.3433 H   0  0  0  1  0  0  0  0  0  0  0  0
    3.7808   -1.0354   -7.7966 N   0  0  0  1  0  0  0  0  0  0  0  0
    2.6672   -0.6362   -7.2448 C   0  0  0  1  0  0  0  0  0  0  0  0
    2.2322   -1.1324   -6.4409 H   0  0  0  1  0  0  0  0  0  0  0  0
    2.1181    0.4783   -7.8008 N   0  0  0  1  0  0  0  0  0  0  0  0
    0.8883    1.1570   -7.3908 C   0  0  0  1  0  0  0  0  0  0  0  0
    0.0711    0.4672   -7.4256 H   0  0  0  1  0  0  0  0  0  0  0  0
    1.0466    1.7067   -5.9643 C   0  0  0  1  0  0  0  0  0  0  0  0
    2.0772    1.7497   -5.6798 H   0  0  0  1  0  0  0  0  0  0  0  0
    0.3241    0.9099   -5.0219 O   0  0  0  1  0  0  0  0  0  0  0  0
    0.9300    0.5675   -4.3606 H   0  0  0  1  0  0  0  0  0  0  0  0
    0.4444    3.1137   -6.0754 C   0  0  0  1  0  0  0  0  0  0  0  0
    0.9279    3.7907   -5.4025 H   0  0  0  1  0  0  0  0  0  0  0  0
   -0.9862    3.0912   -5.7986 O   0  0  0  1  0  0  0  0  0  0  0  0
   -1.7605    4.4347   -5.2646 P   0  0  0  1  0  0  0  0  0  0  0  0
   -3.3719    4.1330   -5.2213 O   0  0  0  0  0  0  0  0  0  0  0  0
   -1.1406    4.8482   -3.9859 O   0  0  0  1  0  0  0  0  0  0  0  0
   -1.5499    5.5969   -6.3734 O   0  5  0  1  0  0  0  0  0  0  0  0
    0.7104    3.4988   -7.5127 C   0  0  0  1  0  0  0  0  0  0  0  0
   -0.0308    4.1857   -7.8643 H   0  0  0  1  0  0  0  0  0  0  0  0
    0.6348    2.2374   -8.2439 O   0  0  0  1  0  0  0  0  0  0  0  0
    2.0649    4.1117   -7.6540 C   0  0  0  1  0  0  0  0  0  0  0  0
    2.2755    4.2959   -8.6867 H   0  0  0  1  0  0  0  0  0  0  0  0
    2.8062    3.4543   -7.2500 H   0  0  0  1  0  0  0  0  0  0  0  0
    2.0611    5.3624   -6.9199 O   0  0  0  1  0  0  0  0  0  0  0  0
    3.3668    6.3257   -6.7960 P   0  0  0  1  0  0  0  0  0  0  0  0
    3.0961    7.5015   -5.9366 O   0  0  0  0  0  0  0  0  0  0  0  0
    3.7776    6.5272   -8.1733 O   0  0  0  1  0  0  0  0  0  0  0  0
    4.4364    5.4471   -5.9891 O   0  0  0  1  0  0  0  0  0  0  0  0
    4.5333    4.1897   -4.9407 P   0  0  0  1  0  0  0  0  0  0  0  0
    5.4423    4.3576   -3.7849 O   0  0  0  1  0  0  0  0  0  0  0  0
    3.0462    3.7601   -4.4627 O   0  5  0  1  0  0  0  0  0  0  0  0
    5.1130    2.9515   -5.7128 O   0  0  0  1  0  0  0  0  0  0  0  0
    7.3176    2.1599   -5.3413 C   0  0  0  1  0  0  0  0  0  0  0  0
    5.8716    1.9043   -5.0700 C   0  0  0  1  0  0  0  0  0  0  0  0
    5.5888    0.9524   -5.4685 H   0  0  0  1  0  0  0  0  0  0  0  0
    5.6906    1.9181   -4.0155 H   0  0  0  1  0  0  0  0  0  0  0  0
    7.5132    2.3890   -6.8440 C   0  0  0  1  0  0  0  0  0  0  0  0
    6.6813    1.9807   -7.3788 H   0  0  0  1  0  0  0  0  0  0  0  0
    8.4136    1.9072   -7.1637 H   0  0  0  1  0  0  0  0  0  0  0  0
    7.5815    3.4389   -7.0387 H   0  0  0  1  0  0  0  0  0  0  0  0
    8.1830    0.9858   -4.8779 C   0  0  0  1  0  0  0  0  0  0  0  0
    9.1776    1.3297   -4.6841 H   0  0  0  1  0  0  0  0  0  0  0  0
    8.2073    0.2374   -5.6423 H   0  0  0  1  0  0  0  0  0  0  0  0
    7.7693    0.5693   -3.9833 H   0  0  0  1  0  0  0  0  0  0  0  0
    7.7410    3.4315   -4.6017 C   0  0  0  1  0  0  0  0  0  0  0  0
    7.1736    4.2438   -5.0055 H   0  0  0  1  0  0  0  0  0  0  0  0
    7.3988    3.2622   -3.2380 O   0  0  0  1  0  0  0  0  0  0  0  0
    7.8819    3.8980   -2.7050 H   0  0  0  1  0  0  0  0  0  0  0  0
    9.2147    3.7651   -4.7781 C   0  0  0  1  0  0  0  0  0  0  0  0
   10.0189    3.5714   -3.8674 O   0  0  0  1  0  0  0  0  0  0  0  0
    9.6096    4.2760   -5.9550 N   0  0  0  1  0  0  0  0  0  0  0  0
    8.9468    4.3886   -6.6680 H   0  0  0  1  0  0  0  0  0  0  0  0
   10.9878    4.6685   -6.2089 C   0  0  0  1  0  0  0  0  0  0  0  0
   11.4438    4.9395   -5.2796 H   0  0  0  1  0  0  0  0  0  0  0  0
   10.9883    5.5126   -6.8665 H   0  0  0  1  0  0  0  0  0  0  0  0
   11.8033    3.5548   -6.8452 C   0  0  0  1  0  0  0  0  0  0  0  0
   11.4870    3.4235   -7.8589 H   0  0  0  1  0  0  0  0  0  0  0  0
   11.6433    2.6477   -6.3007 H   0  0  0  1  0  0  0  0  0  0  0  0
   13.2946    3.8952   -6.8253 C   0  0  0  1  0  0  0  0  0  0  0  0
   13.6824    4.9605   -6.3745 O   0  0  0  1  0  0  0  0  0  0  0  0
   14.0973    2.9146   -7.2484 N   0  0  0  1  0  0  0  0  0  0  0  0
   13.6974    2.1215   -7.6626 H   0  0  0  1  0  0  0  0  0  0  0  0
   15.5437    2.9830   -7.1157 C   0  0  0  1  0  0  0  0  0  0  0  0
   15.8406    4.0110   -7.1248 H   0  0  0  1  0  0  0  0  0  0  0  0
   15.9886    2.4753   -7.9459 H   0  0  0  1  0  0  0  0  0  0  0  0
   16.0384    2.3484   -5.8395 C   0  0  0  1  0  0  0  0  0  0  0  0
   17.1052    2.2704   -5.8667 H   0  0  0  1  0  0  0  0  0  0  0  0
   15.6116    1.3728   -5.7342 H   0  0  0  1  0  0  0  0  0  0  0  0
   15.5400    3.3839   -4.4430 S   0  0  0  1  0  0  0  0  0  0  0  0
   16.0061    2.3873   -3.0503 C   0  0  0  1  0  0  0  0  0  0  0  0
   16.4599    1.2860   -3.2076 O   0  0  0  1  0  0  0  0  0  0  0  0
   15.7920    3.0180   -1.6939 C   0  0  0  1  0  0  0  0  0  0  0  0
   16.6604    2.8651   -1.0878 H   0  0  0  1  0  0  0  0  0  0  0  0
   14.9439    2.5680   -1.2215 H   0  0  0  1  0  0  0  0  0  0  0  0
   15.6200    4.0675   -1.8120 H   0  0  0  1  0  0  0  0  0  0  0  0
  1  2  1  0  0  0  0
  1  7  2  0  0  0  0
  2  3  1  0  0  0  0
  2  4  2  0  0  0  0
  4  5  1  0  0  0  0
  5  6  2  0  0  0  0
  5 14  1  0  0  0  0
  6  7  1  0  0  0  0
  6 11  1  0  0  0  0
  7  8  1  0  0  0  0
  8  9  1  0  0  0  0
  8 10  1  0  0  0  0
 11 12  2  0  0  0  0
 12 13  1  0  0  0  0
 12 14  1  0  0  0  0
 14 15  1  0  0  0  0
 15 16  1  0  0  0  0
 15 17  1  0  0  0  0
 15 30  1  0  0  0  0
 17 18  1  0  0  0  0
 17 19  1  0  0  0  0
 17 21  1  0  0  0  0
 19 20  1  0  0  0  0
 21 22  1  0  0  0  0
 21 23  1  0  0  0  0
 21 28  1  0  0  0  0
 23 24  1  0  0  0  0
 24 25  1  0  0  0  0
 24 26  2  0  0  0  0
 24 27  1  0  0  0  0
 28 29  1  0  0  0  0
 28 30  1  0  0  0  0
 28 31  1  0  0  0  0
 31 32  1  0  0  0  0
 31 33  1  0  0  0  0
 31 34  1  0  0  0  0
 34 35  1  0  0  0  0
 35 36  1  0  0  0  0
 35 37  2  0  0  0  0
 35 38  1  0  0  0  0
 38 39  1  0  0  0  0
 39 40  2  0  0  0  0
 39 41  1  0  0  0  0
 39 42  1  0  0  0  0
 42 44  1  0  0  0  0
 43 44  1  0  0  0  0
 43 47  1  0  0  0  0
 43 51  1  0  0  0  0
 43 55  1  0  0  0  0
 44 45  1  0  0  0  0
 44 46  1  0  0  0  0
 47 48  1  0  0  0  0
 47 49  1  0  0  0  0
 47 50  1  0  0  0  0
 51 52  1  0  0  0  0
 51 53  1  0  0  0  0
 51 54  1  0  0  0  0
 55 56  1  0  0  0  0
 55 57  1  0  0  0  0
 55 59  1  0  0  0  0
 57 58  1  0  0  0  0
 59 60  2  0  0  0  0
 59 61  1  0  0  0  0
 61 62  1  0  0  0  0
 61 63  1  0  0  0  0
 63 64  1  0  0  0  0
 63 65  1  0  0  0  0
 63 66  1  0  0  0  0
 66 67  1  0  0  0  0
 66 68  1  0  0  0  0
 66 69  1  0  0  0  0
 69 70  2  0  0  0  0
 69 71  1  0  0  0  0
 71 72  1  0  0  0  0
 71 73  1  0  0  0  0
 73 74  1  0  0  0  0
 73 75  1  0  0  0  0
 73 76  1  0  0  0  0
 76 77  1  0  0  0  0
 76 78  1  0  0  0  0
 76 79  1  0  0  0  0
 79 80  1  0  0  0  0
 80 81  2  0  0  0  0
 80 82  1  0  0  0  0
 82 83  1  0  0  0  0
 82 84  1  0  0  0  0
 82 85  1  0  0  0  0
M  BCL ATM N_Tr2TrTrPi C_TrTrTrPi H_S N_Tr2TrTrPi C_TrTrTrPi C_TrTrTrPi C_TrTrTrPi N_TrTrTrPi2 H_S H_S N_Tr2TrTrPi C_TrTrTrPi H_S N_TrTrTrPi2 C_TeTeTeTe H_S C_TeTeTeTe H_S O_Te2Te2TeTe H_S C_TeTeTeTe H_S O_Tr2TrTrPi2 P_TeTeTeTePi O_Te2Te2TeTe O_Tr2Tr2TrPi O_Te2Te2Te2Te C_TeTeTeTe H_S O_Te2Te2TeTe C_TeTeTeTe H_S H_S O_Tr2TrTrPi2 P_TeTeTeTePi O_Te2Te2TeTe O_Tr2Tr2TrPi O_Tr2TrTrPi2 P_TeTeTeTePi O_Tr2Tr2TrPi O_Te2Te2Te2Te O_Tr2TrTrPi2 C_TeTeTeTe C_TeTeTeTe H_S H_S C_TeTeTeTe H_S H_S H_S C_TeTeTeTe H_S H_S H_S C_TeTeTeTe H_S O_Te2Te2TeTe H_S C_TrTrTrPi O_Tr2Tr2TrPi N_TrTrTrPi2 H_S C_TeTeTeTe H_S H_S C_TeTeTeTe H_S H_S C_TrTrTrPi O_Tr2Tr2TrPi N_TrTrTrPi2 H_S C_TeTeTeTe H_S H_S C_TeTeTeTe H_S H_S S_Te2Te2TeTe C_TrTrTrPi O_Tr2Tr2TrPi C_TeTeTeTe H_S H_S H_S
M  BCL BND AromaticSingleBond AromaticDoubleBond NonConjugatedSingleBond AromaticDoubleBond AromaticSingleBond AromaticDoubleBond AromaticSingleBond AromaticSingleBond AromaticSingleBond ConjugatedSingleBond NonConjugatedSingleBond NonConjugatedSingleBond AromaticDoubleBond NonConjugatedSingleBond AromaticSingleBond NonConjugatedSingleBond NonConjugatedSingleBond NonConjugatedSingleBondInRing NonConjugatedSingleBondInRing NonConjugatedSingleBond NonConjugatedSingleBond NonConjugatedSingleBondInRing NonConjugatedSingleBond NonConjugatedSingleBond NonConjugatedSingleBond NonConjugatedSingleBondInRing ConjugatedSingleBond ConjugatedSingleBond ConjugatedDoubleBond ConjugatedSingleBond NonConjugatedSingleBond NonConjugatedSingleBondInRing NonConjugatedSingleBond NonConjugatedSingleBond NonConjugatedSingleBond NonConjugatedSingleBond ConjugatedSingleBond ConjugatedSingleBond ConjugatedDoubleBond ConjugatedSingleBond ConjugatedSingleBond ConjugatedDoubleBond ConjugatedSingleBond ConjugatedSingleBond NonConjugatedSingleBond NonConjugatedSingleBond NonConjugatedSingleBond NonConjugatedSingleBond NonConjugatedSingleBond NonConjugatedSingleBond NonConjugatedSingleBond NonConjugatedSingleBond NonConjugatedSingleBond NonConjugatedSingleBond NonConjugatedSingleBond NonConjugatedSingleBond NonConjugatedSingleBond NonConjugatedSingleBond NonConjugatedSingleBond NonConjugatedSingleBond NonConjugatedSingleBond ConjugatedDoubleBond AmideSingleBond NonConjugatedSingleBond NonConjugatedSingleBond NonConjugatedSingleBond NonConjugatedSingleBond NonConjugatedSingleBond NonConjugatedSingleBond NonConjugatedSingleBond NonConjugatedSingleBond ConjugatedDoubleBond AmideSingleBond NonConjugatedSingleBond NonConjugatedSingleBond NonConjugatedSingleBond NonConjugatedSingleBond NonConjugatedSingleBond NonConjugatedSingleBond NonConjugatedSingleBond NonConjugatedSingleBond ConjugatedSingleBond ConjugatedDoubleBond NonConjugatedSingleBond NonConjugatedSingleBond NonConjugatedSingleBond NonConjugatedSingleBond
M  BCL CHI  15   S  17   S  21   S  24   S  28   R  35   R  39   R  55   S
M  BCL DBI - - - - - - - - - -
M  END
> <ConfClashScore>
0 

> <ConfOneFourInteractionScore>
-0.977662 

> <ConfScore>
0.00781695 

> <ConfScorePBest>
0.0118025 

> <ConfTolerance>
2.47768 

$$$$
ACO.****
  PyMOL2.5          3D                             0

 85 87  0  0  0  0  0  0  0  0999 V2000
    4.8936    1.0607  -10.6314 N   0  0  0  1  0  0  0  0  0  0  0  0
    3.8488    1.8975  -10.5312 C   0  0  0  1  0  0  0  0  0  0  0  0
    3.8260    2.6735  -11.2233 H   0  0  0  1  0  0  0  0  0  0  0  0
    2.8407    1.8683   -9.6681 N   0  0  0  1  0  0  0  0  0  0  0  0
    2.9514    0.8394   -8.8268 C   0  0  0  1  0  0  0  0  0  0  0  0
    3.9776   -0.1146   -8.8009 C   0  0  0  1  0  0  0  0  0  0  0  0
    4.9721    0.0486   -9.7607 C   0  0  0  1  0  0  0  0  0  0  0  0
    6.0887   -0.7654   -9.9175 N   0  0  0  1  0  0  0  0  0  0  0  0
    6.7356   -0.5781  -10.6295 H   0  0  0  1  0  0  0  0  0  0  0  0
    6.2287   -1.5264   -9.3161 H   0  0  0  1  0  0  0  0  0  0  0  0
    3.7615   -1.0250   -7.7782 N   0  0  0  1  0  0  0  0  0  0  0  0
    2.6480   -0.6151   -7.2343 C   0  0  0  1  0  0  0  0  0  0  0  0
    2.2073   -1.1018   -6.4278 H   0  0  0  1  0  0  0  0  0  0  0  0
    2.1071    0.4974   -7.8021 N   0  0  0  1  0  0  0  0  0  0  0  0
    0.8659    1.1151   -7.3260 C   0  0  0  1  0  0  0  0  0  0  0  0
    0.6377    1.9691   -7.9289 H   0  0  0  1  0  0  0  0  0  0  0  0
   -0.3017    0.0966   -7.3442 C   0  0  0  1  0  0  0  0  0  0  0  0
    0.0307   -0.8804   -7.0614 H   0  0  0  1  0  0  0  0  0  0  0  0
   -0.9124    0.0372   -8.6214 O   0  0  0  1  0  0  0  0  0  0  0  0
   -1.1278    0.9254   -8.9152 H   0  0  0  1  0  0  0  0  0  0  0  0
   -1.2672    0.6914   -6.2853 C   0  0  0  1  0  0  0  0  0  0  0  0
   -1.7020   -0.0838   -5.6896 H   0  0  0  1  0  0  0  0  0  0  0  0
   -2.3146    1.4573   -6.9191 O   0  0  0  1  0  0  0  0  0  0  0  0
   -3.9096    1.1321   -6.7197 P   0  0  0  1  0  0  0  0  0  0  0  0
   -4.7861    2.3653   -7.3526 O   0  0  0  0  0  0  0  0  0  0  0  0
   -4.6137   -0.0433   -7.2795 O   0  0  0  1  0  0  0  0  0  0  0  0
   -4.1838    1.2697   -5.1290 O   0  5  0  1  0  0  0  0  0  0  0  0
   -0.3663    1.6011   -5.4273 C   0  0  0  1  0  0  0  0  0  0  0  0
   -0.6954    2.6165   -5.5018 H   0  0  0  1  0  0  0  0  0  0  0  0
    0.9730    1.4806   -5.9337 O   0  0  0  1  0  0  0  0  0  0  0  0
   -0.4132    1.1654   -3.9997 C   0  0  0  1  0  0  0  0  0  0  0  0
    0.0659    1.8946   -3.3803 H   0  0  0  1  0  0  0  0  0  0  0  0
    0.0816    0.2231   -3.8899 H   0  0  0  1  0  0  0  0  0  0  0  0
   -1.8080    1.0377   -3.6238 O   0  0  0  1  0  0  0  0  0  0  0  0
   -2.2836    0.4753   -2.2029 P   0  0  0  1  0  0  0  0  0  0  0  0
   -1.7201   -0.8954   -2.0013 O   0  0  0  0  0  0  0  0  0  0  0  0
   -3.7352    0.7122   -2.0974 O   0  0  0  1  0  0  0  0  0  0  0  0
   -1.5675    1.4694   -1.1711 O   0  0  0  1  0  0  0  0  0  0  0  0
   -0.0874    1.8545   -0.5790 P   0  0  0  1  0  0  0  0  0  0  0  0
    0.9894    1.8457   -1.5943 O   0  0  0  1  0  0  0  0  0  0  0  0
   -0.0883    3.3243    0.1022 O   0  5  0  1  0  0  0  0  0  0  0  0
    0.1825    0.8021    0.5547 O   0  0  0  1  0  0  0  0  0  0  0  0
    0.7758    0.4792    2.8282 C   0  0  0  1  0  0  0  0  0  0  0  0
    1.2774    0.9118    1.4898 C   0  0  0  1  0  0  0  0  0  0  0  0
    1.6155    1.9258    1.5377 H   0  0  0  1  0  0  0  0  0  0  0  0
    2.0845    0.2804    1.1816 H   0  0  0  1  0  0  0  0  0  0  0  0
    1.8835    0.6357    3.8737 C   0  0  0  1  0  0  0  0  0  0  0  0
    2.2285    1.6485    3.8797 H   0  0  0  1  0  0  0  0  0  0  0  0
    2.6966   -0.0164    3.6319 H   0  0  0  1  0  0  0  0  0  0  0  0
    1.4993    0.3843    4.8403 H   0  0  0  1  0  0  0  0  0  0  0  0
    0.3383   -0.9966    2.7580 C   0  0  0  1  0  0  0  0  0  0  0  0
    1.1870   -1.6287    2.9163 H   0  0  0  1  0  0  0  0  0  0  0  0
   -0.0818   -1.1984    1.7948 H   0  0  0  1  0  0  0  0  0  0  0  0
   -0.3942   -1.1875    3.5142 H   0  0  0  1  0  0  0  0  0  0  0  0
   -0.4247    1.3417    3.2255 C   0  0  0  1  0  0  0  0  0  0  0  0
   -1.1574    1.2557    2.4506 H   0  0  0  1  0  0  0  0  0  0  0  0
   -0.9725    0.8739    4.4376 O   0  0  0  1  0  0  0  0  0  0  0  0
   -1.6633    0.2338    4.2511 H   0  0  0  1  0  0  0  0  0  0  0  0
   -0.0560    2.8118    3.3558 C   0  0  0  1  0  0  0  0  0  0  0  0
    0.5549    3.3919    2.4734 O   0  0  0  1  0  0  0  0  0  0  0  0
   -0.4451    3.4121    4.4917 N   0  0  0  1  0  0  0  0  0  0  0  0
   -1.0197    2.9020    5.1000 H   0  0  0  1  0  0  0  0  0  0  0  0
   -0.0779    4.7635    4.8879 C   0  0  0  1  0  0  0  0  0  0  0  0
   -0.7921    5.4468    4.4783 H   0  0  0  1  0  0  0  0  0  0  0  0
    0.8930    4.9838    4.4958 H   0  0  0  1  0  0  0  0  0  0  0  0
   -0.0452    4.9399    6.3973 C   0  0  0  1  0  0  0  0  0  0  0  0
    0.4055    5.8819    6.6307 H   0  0  0  1  0  0  0  0  0  0  0  0
    0.5328    4.1504    6.8303 H   0  0  0  1  0  0  0  0  0  0  0  0
   -1.4402    4.9034    6.9705 C   0  0  0  1  0  0  0  0  0  0  0  0
   -2.3592    4.3393    6.3783 O   0  0  0  1  0  0  0  0  0  0  0  0
   -1.6016    5.5203    8.1518 N   0  0  0  1  0  0  0  0  0  0  0  0
   -0.8060    5.8893    8.5892 H   0  0  0  1  0  0  0  0  0  0  0  0
   -2.8817    5.6757    8.8239 C   0  0  0  1  0  0  0  0  0  0  0  0
   -2.7561    5.4385    9.8597 H   0  0  0  1  0  0  0  0  0  0  0  0
   -3.5839    4.9980    8.3849 H   0  0  0  1  0  0  0  0  0  0  0  0
   -3.4297    7.0827    8.7112 C   0  0  0  1  0  0  0  0  0  0  0  0
   -2.7347    7.7475    9.1800 H   0  0  0  1  0  0  0  0  0  0  0  0
   -4.3638    7.1171    9.2320 H   0  0  0  1  0  0  0  0  0  0  0  0
   -3.7088    7.6644    7.0216 S   0  0  0  1  0  0  0  0  0  0  0  0
   -4.7153    9.0635    7.2743 C   0  0  0  1  0  0  0  0  0  0  0  0
   -5.0635    9.4596    8.3796 O   0  0  0  1  0  0  0  0  0  0  0  0
   -5.0273    9.8581    6.0140 C   0  0  0  1  0  0  0  0  0  0  0  0
   -4.1679   10.4284    5.7294 H   0  0  0  1  0  0  0  0  0  0  0  0
   -5.8470   10.5193    6.2034 H   0  0  0  1  0  0  0  0  0  0  0  0
   -5.2864    9.1853    5.2234 H   0  0  0  1  0  0  0  0  0  0  0  0
  1  2  1  0  0  0  0
  1  7  2  0  0  0  0
  2  3  1  0  0  0  0
  2  4  2  0  0  0  0
  4  5  1  0  0  0  0
  5  6  2  0  0  0  0
  5 14  1  0  0  0  0
  6  7  1  0  0  0  0
  6 11  1  0  0  0  0
  7  8  1  0  0  0  0
  8  9  1  0  0  0  0
  8 10  1  0  0  0  0
 11 12  2  0  0  0  0
 12 13  1  0  0  0  0
 12 14  1  0  0  0  0
 14 15  1  0  0  0  0
 15 16  1  0  0  0  0
 15 17  1  0  0  0  0
 15 30  1  0  0  0  0
 17 18  1  0  0  0  0
 17 19  1  0  0  0  0
 17 21  1  0  0  0  0
 19 20  1  0  0  0  0
 21 22  1  0  0  0  0
 21 23  1  0  0  0  0
 21 28  1  0  0  0  0
 23 24  1  0  0  0  0
 24 25  1  0  0  0  0
 24 26  2  0  0  0  0
 24 27  1  0  0  0  0
 28 29  1  0  0  0  0
 28 30  1  0  0  0  0
 28 31  1  0  0  0  0
 31 32  1  0  0  0  0
 31 33  1  0  0  0  0
 31 34  1  0  0  0  0
 34 35  1  0  0  0  0
 35 36  1  0  0  0  0
 35 37  2  0  0  0  0
 35 38  1  0  0  0  0
 38 39  1  0  0  0  0
 39 40  2  0  0  0  0
 39 41  1  0  0  0  0
 39 42  1  0  0  0  0
 42 44  1  0  0  0  0
 43 44  1  0  0  0  0
 43 47  1  0  0  0  0
 43 51  1  0  0  0  0
 43 55  1  0  0  0  0
 44 45  1  0  0  0  0
 44 46  1  0  0  0  0
 47 48  1  0  0  0  0
 47 49  1  0  0  0  0
 47 50  1  0  0  0  0
 51 52  1  0  0  0  0
 51 53  1  0  0  0  0
 51 54  1  0  0  0  0
 55 56  1  0  0  0  0
 55 57  1  0  0  0  0
 55 59  1  0  0  0  0
 57 58  1  0  0  0  0
 59 60  2  0  0  0  0
 59 61  1  0  0  0  0
 61 62  1  0  0  0  0
 61 63  1  0  0  0  0
 63 64  1  0  0  0  0
 63 65  1  0  0  0  0
 63 66  1  0  0  0  0
 66 67  1  0  0  0  0
 66 68  1  0  0  0  0
 66 69  1  0  0  0  0
 69 70  2  0  0  0  0
 69 71  1  0  0  0  0
 71 72  1  0  0  0  0
 71 73  1  0  0  0  0
 73 74  1  0  0  0  0
 73 75  1  0  0  0  0
 73 76  1  0  0  0  0
 76 77  1  0  0  0  0
 76 78  1  0  0  0  0
 76 79  1  0  0  0  0
 79 80  1  0  0  0  0
 80 81  2  0  0  0  0
 80 82  1  0  0  0  0
 82 83  1  0  0  0  0
 82 84  1  0  0  0  0
 82 85  1  0  0  0  0
M  BCL ATM N_Tr2TrTrPi C_TrTrTrPi H_S N_Tr2TrTrPi C_TrTrTrPi C_TrTrTrPi C_TrTrTrPi N_TrTrTrPi2 H_S H_S N_Tr2TrTrPi C_TrTrTrPi H_S N_TrTrTrPi2 C_TeTeTeTe H_S C_TeTeTeTe H_S O_Te2Te2TeTe H_S C_TeTeTeTe H_S O_Tr2TrTrPi2 P_TeTeTeTePi O_Te2Te2TeTe O_Tr2Tr2TrPi O_Te2Te2Te2Te C_TeTeTeTe H_S O_Te2Te2TeTe C_TeTeTeTe H_S H_S O_Tr2TrTrPi2 P_TeTeTeTePi O_Te2Te2TeTe O_Tr2Tr2TrPi O_Tr2TrTrPi2 P_TeTeTeTePi O_Tr2Tr2TrPi O_Te2Te2Te2Te O_Tr2TrTrPi2 C_TeTeTeTe C_TeTeTeTe H_S H_S C_TeTeTeTe H_S H_S H_S C_TeTeTeTe H_S H_S H_S C_TeTeTeTe H_S O_Te2Te2TeTe H_S C_TrTrTrPi O_Tr2Tr2TrPi N_TrTrTrPi2 H_S C_TeTeTeTe H_S H_S C_TeTeTeTe H_S H_S C_TrTrTrPi O_Tr2Tr2TrPi N_TrTrTrPi2 H_S C_TeTeTeTe H_S H_S C_TeTeTeTe H_S H_S S_Te2Te2TeTe C_TrTrTrPi O_Tr2Tr2TrPi C_TeTeTeTe H_S H_S H_S
M  BCL BND AromaticSingleBond AromaticDoubleBond NonConjugatedSingleBond AromaticDoubleBond AromaticSingleBond AromaticDoubleBond AromaticSingleBond AromaticSingleBond AromaticSingleBond ConjugatedSingleBond NonConjugatedSingleBond NonConjugatedSingleBond AromaticDoubleBond NonConjugatedSingleBond AromaticSingleBond NonConjugatedSingleBond NonConjugatedSingleBond NonConjugatedSingleBondInRing NonConjugatedSingleBondInRing NonConjugatedSingleBond NonConjugatedSingleBond NonConjugatedSingleBondInRing NonConjugatedSingleBond NonConjugatedSingleBond NonConjugatedSingleBond NonConjugatedSingleBondInRing ConjugatedSingleBond ConjugatedSingleBond ConjugatedDoubleBond ConjugatedSingleBond NonConjugatedSingleBond NonConjugatedSingleBondInRing NonConjugatedSingleBond NonConjugatedSingleBond NonConjugatedSingleBond NonConjugatedSingleBond ConjugatedSingleBond ConjugatedSingleBond ConjugatedDoubleBond ConjugatedSingleBond ConjugatedSingleBond ConjugatedDoubleBond ConjugatedSingleBond ConjugatedSingleBond NonConjugatedSingleBond NonConjugatedSingleBond NonConjugatedSingleBond NonConjugatedSingleBond NonConjugatedSingleBond NonConjugatedSingleBond NonConjugatedSingleBond NonConjugatedSingleBond NonConjugatedSingleBond NonConjugatedSingleBond NonConjugatedSingleBond NonConjugatedSingleBond NonConjugatedSingleBond NonConjugatedSingleBond NonConjugatedSingleBond NonConjugatedSingleBond NonConjugatedSingleBond ConjugatedDoubleBond AmideSingleBond NonConjugatedSingleBond NonConjugatedSingleBond NonConjugatedSingleBond NonConjugatedSingleBond NonConjugatedSingleBond NonConjugatedSingleBond NonConjugatedSingleBond NonConjugatedSingleBond ConjugatedDoubleBond AmideSingleBond NonConjugatedSingleBond NonConjugatedSingleBond NonConjugatedSingleBond NonConjugatedSingleBond NonConjugatedSingleBond NonConjugatedSingleBond NonConjugatedSingleBond NonConjugatedSingleBond ConjugatedSingleBond ConjugatedDoubleBond NonConjugatedSingleBond NonConjugatedSingleBond NonConjugatedSingleBond NonConjugatedSingleBond
M  BCL CHI  15   S  17   S  21   S  24   S  28   R  35   R  39   R  55   S
M  BCL DBI - - - - - - - - - -
M  END
> <ConfClashScore>
0 

> <ConfOneFourInteractionScore>
-0.984055 

> <ConfScore>
0.00940528 

> <ConfScorePBest>
0.0116995 

> <ConfTolerance>
2.23113 

$$$$
ACO.****
  PyMOL2.5          3D                             0

 85 87  0  0  0  0  0  0  0  0999 V2000
    4.8943    1.0568  -10.6296 N   0  0  0  1  0  0  0  0  0  0  0  0
    3.8454    1.8893  -10.5360 C   0  0  0  1  0  0  0  0  0  0  0  0
    3.8229    2.6641  -11.2294 H   0  0  0  1  0  0  0  0  0  0  0  0
    2.8331    1.8572   -9.6781 N   0  0  0  1  0  0  0  0  0  0  0  0
    2.9438    0.8301   -8.8345 C   0  0  0  1  0  0  0  0  0  0  0  0
    3.9739   -0.1195   -8.8019 C   0  0  0  1  0  0  0  0  0  0  0  0
    4.9726    0.0464   -9.7569 C   0  0  0  1  0  0  0  0  0  0  0  0
    6.0934   -0.7632   -9.9066 N   0  0  0  1  0  0  0  0  0  0  0  0
    6.2133   -1.5457   -9.3290 H   0  0  0  1  0  0  0  0  0  0  0  0
    6.7632   -0.5511  -10.5898 H   0  0  0  1  0  0  0  0  0  0  0  0
    3.7563   -1.0292   -7.7789 N   0  0  0  1  0  0  0  0  0  0  0  0
    2.6384   -0.6231   -7.2413 C   0  0  0  1  0  0  0  0  0  0  0  0
    2.1956   -1.1105   -6.4362 H   0  0  0  1  0  0  0  0  0  0  0  0
    2.0957    0.4862   -7.8136 N   0  0  0  1  0  0  0  0  0  0  0  0
    0.9111    1.1862   -7.3122 C   0  0  0  1  0  0  0  0  0  0  0  0
    0.2228    1.3444   -8.1160 H   0  0  0  1  0  0  0  0  0  0  0  0
    0.2401    0.3546   -6.2016 C   0  0  0  1  0  0  0  0  0  0  0  0
    0.9589   -0.2308   -5.6673 H   0  0  0  1  0  0  0  0  0  0  0  0
   -0.7720   -0.5029   -6.7356 O   0  0  0  1  0  0  0  0  0  0  0  0
   -1.0559   -0.1701   -7.5902 H   0  0  0  1  0  0  0  0  0  0  0  0
   -0.3676    1.4423   -5.3065 C   0  0  0  1  0  0  0  0  0  0  0  0
   -0.3851    1.1314   -4.2828 H   0  0  0  1  0  0  0  0  0  0  0  0
   -1.7133    1.7766   -5.7343 O   0  0  0  1  0  0  0  0  0  0  0  0
   -1.9752    2.9645   -6.8342 P   0  0  0  1  0  0  0  0  0  0  0  0
   -2.0967    4.4008   -6.0520 O   0  0  0  0  0  0  0  0  0  0  0  0
   -1.0541    3.1296   -7.9808 O   0  0  0  1  0  0  0  0  0  0  0  0
   -3.4792    2.8721   -7.4290 O   0  5  0  1  0  0  0  0  0  0  0  0
    0.5833    2.6291   -5.5046 C   0  0  0  1  0  0  0  0  0  0  0  0
    0.0271    3.5420   -5.5504 H   0  0  0  1  0  0  0  0  0  0  0  0
    1.2813    2.4080   -6.7564 O   0  0  0  1  0  0  0  0  0  0  0  0
    1.5607    2.6968   -4.3776 C   0  0  0  1  0  0  0  0  0  0  0  0
    2.0367    1.7470   -4.2505 H   0  0  0  1  0  0  0  0  0  0  0  0
    1.0562    2.9673   -3.4735 H   0  0  0  1  0  0  0  0  0  0  0  0
    2.5470    3.7016   -4.7111 O   0  0  0  1  0  0  0  0  0  0  0  0
    3.6984    4.0677   -3.7030 P   0  0  0  1  0  0  0  0  0  0  0  0
    4.4938    2.8440   -3.3229 O   0  0  0  0  0  0  0  0  0  0  0  0
    3.0165    4.7804   -2.6069 O   0  0  0  1  0  0  0  0  0  0  0  0
    4.5060    5.1485   -4.5447 O   0  0  0  1  0  0  0  0  0  0  0  0
    5.4877    6.4350   -4.2782 P   0  0  0  1  0  0  0  0  0  0  0  0
    4.7549    7.4185   -3.4499 O   0  0  0  1  0  0  0  0  0  0  0  0
    6.7596    5.8381   -3.4717 O   0  5  0  1  0  0  0  0  0  0  0  0
    6.1039    6.9513   -5.6309 O   0  0  0  1  0  0  0  0  0  0  0  0
    6.2754    8.2509   -7.6102 C   0  0  0  1  0  0  0  0  0  0  0  0
    5.4145    7.9413   -6.4300 C   0  0  0  1  0  0  0  0  0  0  0  0
    5.2545    8.8281   -5.8530 H   0  0  0  1  0  0  0  0  0  0  0  0
    4.4726    7.5536   -6.7576 H   0  0  0  1  0  0  0  0  0  0  0  0
    5.5575    9.3168   -8.4427 C   0  0  0  1  0  0  0  0  0  0  0  0
    4.5999    8.9482   -8.7459 H   0  0  0  1  0  0  0  0  0  0  0  0
    6.1420    9.5458   -9.3092 H   0  0  0  1  0  0  0  0  0  0  0  0
    5.4289   10.2015   -7.8546 H   0  0  0  1  0  0  0  0  0  0  0  0
    6.4698    6.9745   -8.4513 C   0  0  0  1  0  0  0  0  0  0  0  0
    7.0221    7.2109   -9.3368 H   0  0  0  1  0  0  0  0  0  0  0  0
    5.5140    6.5776   -8.7228 H   0  0  0  1  0  0  0  0  0  0  0  0
    7.0084    6.2488   -7.8785 H   0  0  0  1  0  0  0  0  0  0  0  0
    7.6175    8.8140   -7.1279 C   0  0  0  1  0  0  0  0  0  0  0  0
    8.0009    8.1607   -6.3721 H   0  0  0  1  0  0  0  0  0  0  0  0
    8.5197    8.8621   -8.2202 O   0  0  0  1  0  0  0  0  0  0  0  0
    9.2382    8.2435   -8.0699 H   0  0  0  1  0  0  0  0  0  0  0  0
    7.4133   10.1930   -6.5085 C   0  0  0  1  0  0  0  0  0  0  0  0
    6.3447   10.5060   -5.9852 O   0  0  0  1  0  0  0  0  0  0  0  0
    8.4655   11.0240   -6.5753 N   0  0  0  1  0  0  0  0  0  0  0  0
    9.2511   10.7516   -7.0940 H   0  0  0  1  0  0  0  0  0  0  0  0
    8.4802   12.3152   -5.9042 C   0  0  0  1  0  0  0  0  0  0  0  0
    7.4936   12.5455   -5.5601 H   0  0  0  1  0  0  0  0  0  0  0  0
    8.8028   13.0676   -6.5933 H   0  0  0  1  0  0  0  0  0  0  0  0
    9.4300   12.2810   -4.7180 C   0  0  0  1  0  0  0  0  0  0  0  0
    9.0618   11.5710   -4.0072 H   0  0  0  1  0  0  0  0  0  0  0  0
    9.4532   13.2535   -4.2722 H   0  0  0  1  0  0  0  0  0  0  0  0
   10.8446   11.8917   -5.1007 C   0  0  0  1  0  0  0  0  0  0  0  0
   11.2994   12.1519   -6.2138 O   0  0  0  1  0  0  0  0  0  0  0  0
   11.5502   11.2545   -4.1539 N   0  0  0  1  0  0  0  0  0  0  0  0
   11.1307   11.0861   -3.2844 H   0  0  0  1  0  0  0  0  0  0  0  0
   12.9168   10.8049   -4.3733 C   0  0  0  1  0  0  0  0  0  0  0  0
   13.4186   10.7279   -3.4314 H   0  0  0  1  0  0  0  0  0  0  0  0
   13.4263   11.5130   -4.9927 H   0  0  0  1  0  0  0  0  0  0  0  0
   12.9207    9.4577   -5.0507 C   0  0  0  1  0  0  0  0  0  0  0  0
   13.9345    9.2069   -5.2836 H   0  0  0  1  0  0  0  0  0  0  0  0
   12.3562    9.5403   -5.9559 H   0  0  0  1  0  0  0  0  0  0  0  0
   12.2195    8.1061   -4.0748 S   0  0  0  1  0  0  0  0  0  0  0  0
   13.5950    7.4759   -3.1414 C   0  0  0  1  0  0  0  0  0  0  0  0
   14.6923    7.9470   -3.1842 O   0  0  0  1  0  0  0  0  0  0  0  0
   13.2133    6.2791   -2.2912 C   0  0  0  1  0  0  0  0  0  0  0  0
   13.8245    5.4422   -2.5577 H   0  0  0  1  0  0  0  0  0  0  0  0
   12.1846    6.0367   -2.4583 H   0  0  0  1  0  0  0  0  0  0  0  0
   13.3616    6.5140   -1.2579 H   0  0  0  1  0  0  0  0  0  0  0  0
  1  2  1  0  0  0  0
  1  7  2  0  0  0  0
  2  3  1  0  0  0  0
  2  4  2  0  0  0  0
  4  5  1  0  0  0  0
  5  6  2  0  0  0  0
  5 14  1  0  0  0  0
  6  7  1  0  0  0  0
  6 11  1  0  0  0  0
  7  8  1  0  0  0  0
  8  9  1  0  0  0  0
  8 10  1  0  0  0  0
 11 12  2  0  0  0  0
 12 13  1  0  0  0  0
 12 14  1  0  0  0  0
 14 15  1  0  0  0  0
 15 16  1  0  0  0  0
 15 17  1  0  0  0  0
 15 30  1  0  0  0  0
 17 18  1  0  0  0  0
 17 19  1  0  0  0  0
 17 21  1  0  0  0  0
 19 20  1  0  0  0  0
 21 22  1  0  0  0  0
 21 23  1  0  0  0  0
 21 28  1  0  0  0  0
 23 24  1  0  0  0  0
 24 25  1  0  0  0  0
 24 26  2  0  0  0  0
 24 27  1  0  0  0  0
 28 29  1  0  0  0  0
 28 30  1  0  0  0  0
 28 31  1  0  0  0  0
 31 32  1  0  0  0  0
 31 33  1  0  0  0  0
 31 34  1  0  0  0  0
 34 35  1  0  0  0  0
 35 36  1  0  0  0  0
 35 37  2  0  0  0  0
 35 38  1  0  0  0  0
 38 39  1  0  0  0  0
 39 40  2  0  0  0  0
 39 41  1  0  0  0  0
 39 42  1  0  0  0  0
 42 44  1  0  0  0  0
 43 44  1  0  0  0  0
 43 47  1  0  0  0  0
 43 51  1  0  0  0  0
 43 55  1  0  0  0  0
 44 45  1  0  0  0  0
 44 46  1  0  0  0  0
 47 48  1  0  0  0  0
 47 49  1  0  0  0  0
 47 50  1  0  0  0  0
 51 52  1  0  0  0  0
 51 53  1  0  0  0  0
 51 54  1  0  0  0  0
 55 56  1  0  0  0  0
 55 57  1  0  0  0  0
 55 59  1  0  0  0  0
 57 58  1  0  0  0  0
 59 60  2  0  0  0  0
 59 61  1  0  0  0  0
 61 62  1  0  0  0  0
 61 63  1  0  0  0  0
 63 64  1  0  0  0  0
 63 65  1  0  0  0  0
 63 66  1  0  0  0  0
 66 67  1  0  0  0  0
 66 68  1  0  0  0  0
 66 69  1  0  0  0  0
 69 70  2  0  0  0  0
 69 71  1  0  0  0  0
 71 72  1  0  0  0  0
 71 73  1  0  0  0  0
 73 74  1  0  0  0  0
 73 75  1  0  0  0  0
 73 76  1  0  0  0  0
 76 77  1  0  0  0  0
 76 78  1  0  0  0  0
 76 79  1  0  0  0  0
 79 80  1  0  0  0  0
 80 81  2  0  0  0  0
 80 82  1  0  0  0  0
 82 83  1  0  0  0  0
 82 84  1  0  0  0  0
 82 85  1  0  0  0  0
M  BCL ATM N_Tr2TrTrPi C_TrTrTrPi H_S N_Tr2TrTrPi C_TrTrTrPi C_TrTrTrPi C_TrTrTrPi N_TrTrTrPi2 H_S H_S N_Tr2TrTrPi C_TrTrTrPi H_S N_TrTrTrPi2 C_TeTeTeTe H_S C_TeTeTeTe H_S O_Te2Te2TeTe H_S C_TeTeTeTe H_S O_Tr2TrTrPi2 P_TeTeTeTePi O_Te2Te2TeTe O_Tr2Tr2TrPi O_Te2Te2Te2Te C_TeTeTeTe H_S O_Te2Te2TeTe C_TeTeTeTe H_S H_S O_Tr2TrTrPi2 P_TeTeTeTePi O_Te2Te2TeTe O_Tr2Tr2TrPi O_Tr2TrTrPi2 P_TeTeTeTePi O_Tr2Tr2TrPi O_Te2Te2Te2Te O_Tr2TrTrPi2 C_TeTeTeTe C_TeTeTeTe H_S H_S C_TeTeTeTe H_S H_S H_S C_TeTeTeTe H_S H_S H_S C_TeTeTeTe H_S O_Te2Te2TeTe H_S C_TrTrTrPi O_Tr2Tr2TrPi N_TrTrTrPi2 H_S C_TeTeTeTe H_S H_S C_TeTeTeTe H_S H_S C_TrTrTrPi O_Tr2Tr2TrPi N_TrTrTrPi2 H_S C_TeTeTeTe H_S H_S C_TeTeTeTe H_S H_S S_Te2Te2TeTe C_TrTrTrPi O_Tr2Tr2TrPi C_TeTeTeTe H_S H_S H_S
M  BCL BND AromaticSingleBond AromaticDoubleBond NonConjugatedSingleBond AromaticDoubleBond AromaticSingleBond AromaticDoubleBond AromaticSingleBond AromaticSingleBond AromaticSingleBond ConjugatedSingleBond NonConjugatedSingleBond NonConjugatedSingleBond AromaticDoubleBond NonConjugatedSingleBond AromaticSingleBond NonConjugatedSingleBond NonConjugatedSingleBond NonConjugatedSingleBondInRing NonConjugatedSingleBondInRing NonConjugatedSingleBond NonConjugatedSingleBond NonConjugatedSingleBondInRing NonConjugatedSingleBond NonConjugatedSingleBond NonConjugatedSingleBond NonConjugatedSingleBondInRing ConjugatedSingleBond ConjugatedSingleBond ConjugatedDoubleBond ConjugatedSingleBond NonConjugatedSingleBond NonConjugatedSingleBondInRing NonConjugatedSingleBond NonConjugatedSingleBond NonConjugatedSingleBond NonConjugatedSingleBond ConjugatedSingleBond ConjugatedSingleBond ConjugatedDoubleBond ConjugatedSingleBond ConjugatedSingleBond ConjugatedDoubleBond ConjugatedSingleBond ConjugatedSingleBond NonConjugatedSingleBond NonConjugatedSingleBond NonConjugatedSingleBond NonConjugatedSingleBond NonConjugatedSingleBond NonConjugatedSingleBond NonConjugatedSingleBond NonConjugatedSingleBond NonConjugatedSingleBond NonConjugatedSingleBond NonConjugatedSingleBond NonConjugatedSingleBond NonConjugatedSingleBond NonConjugatedSingleBond NonConjugatedSingleBond NonConjugatedSingleBond NonConjugatedSingleBond ConjugatedDoubleBond AmideSingleBond NonConjugatedSingleBond NonConjugatedSingleBond NonConjugatedSingleBond NonConjugatedSingleBond NonConjugatedSingleBond NonConjugatedSingleBond NonConjugatedSingleBond NonConjugatedSingleBond ConjugatedDoubleBond AmideSingleBond NonConjugatedSingleBond NonConjugatedSingleBond NonConjugatedSingleBond NonConjugatedSingleBond NonConjugatedSingleBond NonConjugatedSingleBond NonConjugatedSingleBond NonConjugatedSingleBond ConjugatedSingleBond ConjugatedDoubleBond NonConjugatedSingleBond NonConjugatedSingleBond NonConjugatedSingleBond NonConjugatedSingleBond
M  BCL CHI  15   S  17   S  21   S  24   S  28   R  35   R  39   R  55   S
M  BCL DBI - - - - - - - - - -
M  END
> <ConfClashScore>
0 

> <ConfOneFourInteractionScore>
-0.979284 

> <ConfScore>
0.0139778 

> <ConfScorePBest>
0.0115965 

> <ConfTolerance>
2.51755 

$$$$
ACO.****
  PyMOL2.5          3D                             0

 85 87  0  0  0  0  0  0  0  0999 V2000
    4.8791    1.0881  -10.6571 N   0  0  0  1  0  0  0  0  0  0  0  0
    3.8340    1.9211  -10.5316 C   0  0  0  1  0  0  0  0  0  0  0  0
    3.7956    2.7012  -11.2184 H   0  0  0  1  0  0  0  0  0  0  0  0
    2.8430    1.8837   -9.6494 N   0  0  0  1  0  0  0  0  0  0  0  0
    2.9729    0.8500   -8.8166 C   0  0  0  1  0  0  0  0  0  0  0  0
    4.0022   -0.1009   -8.8164 C   0  0  0  1  0  0  0  0  0  0  0  0
    4.9775    0.0710   -9.7943 C   0  0  0  1  0  0  0  0  0  0  0  0
    6.0339   -0.7881   -9.8819 N   0  0  0  1  0  0  0  0  0  0  0  0
    6.6750   -0.7029  -10.6182 H   0  0  0  1  0  0  0  0  0  0  0  0
    6.1516   -1.4903   -9.2086 H   0  0  0  1  0  0  0  0  0  0  0  0
    3.8086   -1.0182   -7.7952 N   0  0  0  1  0  0  0  0  0  0  0  0
    2.7046   -0.6149   -7.2274 C   0  0  0  1  0  0  0  0  0  0  0  0
    2.2811   -1.1078   -6.4154 H   0  0  0  1  0  0  0  0  0  0  0  0
    2.1496    0.4994   -7.7779 N   0  0  0  1  0  0  0  0  0  0  0  0
    0.8444    1.0825   -7.4656 C   0  0  0  1  0  0  0  0  0  0  0  0
    0.3042    0.4233   -6.8188 H   0  0  0  1  0  0  0  0  0  0  0  0
    1.0185    2.4580   -6.8024 C   0  0  0  1  0  0  0  0  0  0  0  0
    1.8800    2.9646   -7.1845 H   0  0  0  1  0  0  0  0  0  0  0  0
    1.1269    2.3366   -5.3918 O   0  0  0  1  0  0  0  0  0  0  0  0
    0.2703    2.4982   -4.9895 H   0  0  0  1  0  0  0  0  0  0  0  0
   -0.2596    3.1788   -7.1937 C   0  0  0  1  0  0  0  0  0  0  0  0
   -0.0978    4.2334   -7.2746 H   0  0  0  1  0  0  0  0  0  0  0  0
   -1.3152    2.9240   -6.2374 O   0  0  0  1  0  0  0  0  0  0  0  0
   -1.6213    3.9811   -5.0215 P   0  0  0  1  0  0  0  0  0  0  0  0
   -0.2567    4.2356   -4.1481 O   0  0  0  0  0  0  0  0  0  0  0  0
   -2.1933    5.2838   -5.4291 O   0  0  0  1  0  0  0  0  0  0  0  0
   -2.6913    3.3342   -3.9914 O   0  5  0  1  0  0  0  0  0  0  0  0
   -0.5946    2.5586   -8.5726 C   0  0  0  1  0  0  0  0  0  0  0  0
   -1.6474    2.3861   -8.6550 H   0  0  0  1  0  0  0  0  0  0  0  0
    0.1209    1.3123   -8.6402 O   0  0  0  1  0  0  0  0  0  0  0  0
   -0.1566    3.4583   -9.6572 C   0  0  0  1  0  0  0  0  0  0  0  0
    0.8868    3.3076   -9.8401 H   0  0  0  1  0  0  0  0  0  0  0  0
   -0.3246    4.4731   -9.3625 H   0  0  0  1  0  0  0  0  0  0  0  0
   -0.8988    3.1848  -10.8726 O   0  0  0  1  0  0  0  0  0  0  0  0
   -0.1674    2.7306  -12.1691 P   0  0  0  1  0  0  0  0  0  0  0  0
    0.6105    3.9087  -12.7631 O   0  0  0  0  0  0  0  0  0  0  0  0
   -1.1880    2.1715  -13.0859 O   0  0  0  1  0  0  0  0  0  0  0  0
    0.9585    1.6560  -11.7707 O   0  0  0  1  0  0  0  0  0  0  0  0
    2.0632    0.8290  -12.6569 P   0  0  0  1  0  0  0  0  0  0  0  0
    2.9606    1.6433  -13.5066 O   0  0  0  1  0  0  0  0  0  0  0  0
    2.8519   -0.1753  -11.6601 O   0  5  0  1  0  0  0  0  0  0  0  0
    1.0670   -0.1296  -13.4014 O   0  0  0  1  0  0  0  0  0  0  0  0
    0.3533   -2.0718  -14.5605 C   0  0  0  1  0  0  0  0  0  0  0  0
    1.4949   -1.1330  -14.3477 C   0  0  0  1  0  0  0  0  0  0  0  0
    2.3371   -1.6657  -13.9581 H   0  0  0  1  0  0  0  0  0  0  0  0
    1.7630   -0.6694  -15.2741 H   0  0  0  1  0  0  0  0  0  0  0  0
    0.7292   -3.0833  -15.6488 C   0  0  0  1  0  0  0  0  0  0  0  0
    1.1812   -2.5707  -16.4721 H   0  0  0  1  0  0  0  0  0  0  0  0
   -0.1517   -3.5895  -15.9845 H   0  0  0  1  0  0  0  0  0  0  0  0
    1.4205   -3.7958  -15.2498 H   0  0  0  1  0  0  0  0  0  0  0  0
   -0.8559   -1.2679  -15.0442 C   0  0  0  1  0  0  0  0  0  0  0  0
   -0.6486   -0.8574  -16.0103 H   0  0  0  1  0  0  0  0  0  0  0  0
   -1.0551   -0.4741  -14.3549 H   0  0  0  1  0  0  0  0  0  0  0  0
   -1.7095   -1.9102  -15.1056 H   0  0  0  1  0  0  0  0  0  0  0  0
    0.0000   -2.7894  -13.2509 C   0  0  0  1  0  0  0  0  0  0  0  0
    0.8838   -3.2692  -12.8854 H   0  0  0  1  0  0  0  0  0  0  0  0
   -0.4504   -1.8343  -12.3059 O   0  0  0  1  0  0  0  0  0  0  0  0
   -0.9321   -1.1382  -12.7585 H   0  0  0  1  0  0  0  0  0  0  0  0
   -1.0446   -3.8518  -13.5080 C   0  0  0  1  0  0  0  0  0  0  0  0
   -0.8287   -4.7712  -14.2965 O   0  0  0  1  0  0  0  0  0  0  0  0
   -2.2062   -3.7617  -12.8542 N   0  0  0  1  0  0  0  0  0  0  0  0
   -2.3263   -3.0416  -12.2004 H   0  0  0  1  0  0  0  0  0  0  0  0
   -3.2994   -4.6956  -13.0792 C   0  0  0  1  0  0  0  0  0  0  0  0
   -3.8781   -4.7685  -12.1822 H   0  0  0  1  0  0  0  0  0  0  0  0
   -2.8879   -5.6541  -13.3177 H   0  0  0  1  0  0  0  0  0  0  0  0
   -4.2126   -4.2616  -14.2141 C   0  0  0  1  0  0  0  0  0  0  0  0
   -4.8512   -5.0812  -14.4697 H   0  0  0  1  0  0  0  0  0  0  0  0
   -3.6078   -4.0033  -15.0581 H   0  0  0  1  0  0  0  0  0  0  0  0
   -5.0716   -3.0774  -13.8597 C   0  0  0  1  0  0  0  0  0  0  0  0
   -5.7610   -3.0802  -12.8407 O   0  0  0  1  0  0  0  0  0  0  0  0
   -5.0624   -2.0258  -14.6838 N   0  0  0  1  0  0  0  0  0  0  0  0
   -4.5767   -2.0939  -15.5322 H   0  0  0  1  0  0  0  0  0  0  0  0
   -5.7481   -0.7836  -14.3656 C   0  0  0  1  0  0  0  0  0  0  0  0
   -5.1204    0.0362  -14.6464 H   0  0  0  1  0  0  0  0  0  0  0  0
   -5.9274   -0.7513  -13.3112 H   0  0  0  1  0  0  0  0  0  0  0  0
   -7.0677   -0.6504  -15.0846 C   0  0  0  1  0  0  0  0  0  0  0  0
   -7.7425   -1.3729  -14.6753 H   0  0  0  1  0  0  0  0  0  0  0  0
   -6.9033   -0.8619  -16.1206 H   0  0  0  1  0  0  0  0  0  0  0  0
   -7.8475    0.9768  -14.9621 S   0  0  0  1  0  0  0  0  0  0  0  0
   -9.3130    0.7675  -15.9463 C   0  0  0  1  0  0  0  0  0  0  0  0
   -9.5953   -0.2556  -16.5038 O   0  0  0  1  0  0  0  0  0  0  0  0
  -10.1567    2.0265  -15.9965 C   0  0  0  1  0  0  0  0  0  0  0  0
  -10.8427    1.9643  -16.8153 H   0  0  0  1  0  0  0  0  0  0  0  0
   -9.5206    2.8767  -16.1282 H   0  0  0  1  0  0  0  0  0  0  0  0
  -10.7021    2.1267  -15.0814 H   0  0  0  1  0  0  0  0  0  0  0  0
  1  2  1  0  0  0  0
  1  7  2  0  0  0  0
  2  3  1  0  0  0  0
  2  4  2  0  0  0  0
  4  5  1  0  0  0  0
  5  6  2  0  0  0  0
  5 14  1  0  0  0  0
  6  7  1  0  0  0  0
  6 11  1  0  0  0  0
  7  8  1  0  0  0  0
  8  9  1  0  0  0  0
  8 10  1  0  0  0  0
 11 12  2  0  0  0  0
 12 13  1  0  0  0  0
 12 14  1  0  0  0  0
 14 15  1  0  0  0  0
 15 16  1  0  0  0  0
 15 17  1  0  0  0  0
 15 30  1  0  0  0  0
 17 18  1  0  0  0  0
 17 19  1  0  0  0  0
 17 21  1  0  0  0  0
 19 20  1  0  0  0  0
 21 22  1  0  0  0  0
 21 23  1  0  0  0  0
 21 28  1  0  0  0  0
 23 24  1  0  0  0  0
 24 25  1  0  0  0  0
 24 26  2  0  0  0  0
 24 27  1  0  0  0  0
 28 29  1  0  0  0  0
 28 30  1  0  0  0  0
 28 31  1  0  0  0  0
 31 32  1  0  0  0  0
 31 33  1  0  0  0  0
 31 34  1  0  0  0  0
 34 35  1  0  0  0  0
 35 36  1  0  0  0  0
 35 37  2  0  0  0  0
 35 38  1  0  0  0  0
 38 39  1  0  0  0  0
 39 40  2  0  0  0  0
 39 41  1  0  0  0  0
 39 42  1  0  0  0  0
 42 44  1  0  0  0  0
 43 44  1  0  0  0  0
 43 47  1  0  0  0  0
 43 51  1  0  0  0  0
 43 55  1  0  0  0  0
 44 45  1  0  0  0  0
 44 46  1  0  0  0  0
 47 48  1  0  0  0  0
 47 49  1  0  0  0  0
 47 50  1  0  0  0  0
 51 52  1  0  0  0  0
 51 53  1  0  0  0  0
 51 54  1  0  0  0  0
 55 56  1  0  0  0  0
 55 57  1  0  0  0  0
 55 59  1  0  0  0  0
 57 58  1  0  0  0  0
 59 60  2  0  0  0  0
 59 61  1  0  0  0  0
 61 62  1  0  0  0  0
 61 63  1  0  0  0  0
 63 64  1  0  0  0  0
 63 65  1  0  0  0  0
 63 66  1  0  0  0  0
 66 67  1  0  0  0  0
 66 68  1  0  0  0  0
 66 69  1  0  0  0  0
 69 70  2  0  0  0  0
 69 71  1  0  0  0  0
 71 72  1  0  0  0  0
 71 73  1  0  0  0  0
 73 74  1  0  0  0  0
 73 75  1  0  0  0  0
 73 76  1  0  0  0  0
 76 77  1  0  0  0  0
 76 78  1  0  0  0  0
 76 79  1  0  0  0  0
 79 80  1  0  0  0  0
 80 81  2  0  0  0  0
 80 82  1  0  0  0  0
 82 83  1  0  0  0  0
 82 84  1  0  0  0  0
 82 85  1  0  0  0  0
M  BCL ATM N_Tr2TrTrPi C_TrTrTrPi H_S N_Tr2TrTrPi C_TrTrTrPi C_TrTrTrPi C_TrTrTrPi N_TrTrTrPi2 H_S H_S N_Tr2TrTrPi C_TrTrTrPi H_S N_TrTrTrPi2 C_TeTeTeTe H_S C_TeTeTeTe H_S O_Te2Te2TeTe H_S C_TeTeTeTe H_S O_Tr2TrTrPi2 P_TeTeTeTePi O_Te2Te2TeTe O_Tr2Tr2TrPi O_Te2Te2Te2Te C_TeTeTeTe H_S O_Te2Te2TeTe C_TeTeTeTe H_S H_S O_Tr2TrTrPi2 P_TeTeTeTePi O_Te2Te2TeTe O_Tr2Tr2TrPi O_Tr2TrTrPi2 P_TeTeTeTePi O_Tr2Tr2TrPi O_Te2Te2Te2Te O_Tr2TrTrPi2 C_TeTeTeTe C_TeTeTeTe H_S H_S C_TeTeTeTe H_S H_S H_S C_TeTeTeTe H_S H_S H_S C_TeTeTeTe H_S O_Te2Te2TeTe H_S C_TrTrTrPi O_Tr2Tr2TrPi N_TrTrTrPi2 H_S C_TeTeTeTe H_S H_S C_TeTeTeTe H_S H_S C_TrTrTrPi O_Tr2Tr2TrPi N_TrTrTrPi2 H_S C_TeTeTeTe H_S H_S C_TeTeTeTe H_S H_S S_Te2Te2TeTe C_TrTrTrPi O_Tr2Tr2TrPi C_TeTeTeTe H_S H_S H_S
M  BCL BND AromaticSingleBond AromaticDoubleBond NonConjugatedSingleBond AromaticDoubleBond AromaticSingleBond AromaticDoubleBond AromaticSingleBond AromaticSingleBond AromaticSingleBond ConjugatedSingleBond NonConjugatedSingleBond NonConjugatedSingleBond AromaticDoubleBond NonConjugatedSingleBond AromaticSingleBond NonConjugatedSingleBond NonConjugatedSingleBond NonConjugatedSingleBondInRing NonConjugatedSingleBondInRing NonConjugatedSingleBond NonConjugatedSingleBond NonConjugatedSingleBondInRing NonConjugatedSingleBond NonConjugatedSingleBond NonConjugatedSingleBond NonConjugatedSingleBondInRing ConjugatedSingleBond ConjugatedSingleBond ConjugatedDoubleBond ConjugatedSingleBond NonConjugatedSingleBond NonConjugatedSingleBondInRing NonConjugatedSingleBond NonConjugatedSingleBond NonConjugatedSingleBond NonConjugatedSingleBond ConjugatedSingleBond ConjugatedSingleBond ConjugatedDoubleBond ConjugatedSingleBond ConjugatedSingleBond ConjugatedDoubleBond ConjugatedSingleBond ConjugatedSingleBond NonConjugatedSingleBond NonConjugatedSingleBond NonConjugatedSingleBond NonConjugatedSingleBond NonConjugatedSingleBond NonConjugatedSingleBond NonConjugatedSingleBond NonConjugatedSingleBond NonConjugatedSingleBond NonConjugatedSingleBond NonConjugatedSingleBond NonConjugatedSingleBond NonConjugatedSingleBond NonConjugatedSingleBond NonConjugatedSingleBond NonConjugatedSingleBond NonConjugatedSingleBond ConjugatedDoubleBond AmideSingleBond NonConjugatedSingleBond NonConjugatedSingleBond NonConjugatedSingleBond NonConjugatedSingleBond NonConjugatedSingleBond NonConjugatedSingleBond NonConjugatedSingleBond NonConjugatedSingleBond ConjugatedDoubleBond AmideSingleBond NonConjugatedSingleBond NonConjugatedSingleBond NonConjugatedSingleBond NonConjugatedSingleBond NonConjugatedSingleBond NonConjugatedSingleBond NonConjugatedSingleBond NonConjugatedSingleBond ConjugatedSingleBond ConjugatedDoubleBond NonConjugatedSingleBond NonConjugatedSingleBond NonConjugatedSingleBond NonConjugatedSingleBond
M  BCL CHI  15   S  17   S  21   S  24   S  28   R  35   R  39   R  55   S
M  BCL DBI - - - - - - - - - -
M  END
> <ConfClashScore>
0 

> <ConfOneFourInteractionScore>
-0.978036 

> <ConfScore>
0.0140366 

> <ConfScorePBest>
0.0114935 

> <ConfTolerance>
2.54687 

$$$$
ACO.****
  PyMOL2.5          3D                             0

 85 87  0  0  0  0  0  0  0  0999 V2000
    4.8848    1.0594  -10.6211 N   0  0  0  1  0  0  0  0  0  0  0  0
    3.8375    1.8925  -10.5151 C   0  0  0  1  0  0  0  0  0  0  0  0
    3.8103    2.6707  -11.2045 H   0  0  0  1  0  0  0  0  0  0  0  0
    2.8321    1.8571   -9.6492 N   0  0  0  1  0  0  0  0  0  0  0  0
    2.9485    0.8256   -8.8117 C   0  0  0  1  0  0  0  0  0  0  0  0
    3.9779   -0.1250   -8.7920 C   0  0  0  1  0  0  0  0  0  0  0  0
    4.9691    0.0446   -9.7541 C   0  0  0  1  0  0  0  0  0  0  0  0
    6.0879   -0.7652   -9.9168 N   0  0  0  1  0  0  0  0  0  0  0  0
    6.2329   -1.5267   -9.3172 H   0  0  0  1  0  0  0  0  0  0  0  0
    6.7312   -0.5744  -10.6310 H   0  0  0  1  0  0  0  0  0  0  0  0
    3.7676   -1.0396   -7.7718 N   0  0  0  1  0  0  0  0  0  0  0  0
    2.6544   -0.6352   -7.2233 C   0  0  0  1  0  0  0  0  0  0  0  0
    2.2176   -1.1261   -6.4171 H   0  0  0  1  0  0  0  0  0  0  0  0
    2.1082    0.4775   -7.7858 N   0  0  0  1  0  0  0  0  0  0  0  0
    0.8930    1.2387   -7.4633 C   0  0  0  1  0  0  0  0  0  0  0  0
    0.4426    0.8353   -6.5806 H   0  0  0  1  0  0  0  0  0  0  0  0
    1.2142    2.7437   -7.2827 C   0  0  0  1  0  0  0  0  0  0  0  0
    1.9599    3.0679   -7.9782 H   0  0  0  1  0  0  0  0  0  0  0  0
    1.6499    3.0252   -5.9500 O   0  0  0  1  0  0  0  0  0  0  0  0
    2.2007    3.8115   -5.9523 H   0  0  0  1  0  0  0  0  0  0  0  0
   -0.1574    3.4057   -7.5784 C   0  0  0  1  0  0  0  0  0  0  0  0
   -0.0317    4.3021   -8.1490 H   0  0  0  1  0  0  0  0  0  0  0  0
   -0.8556    3.7094   -6.3513 O   0  0  0  1  0  0  0  0  0  0  0  0
   -1.4101    5.2235   -6.0521 P   0  0  0  1  0  0  0  0  0  0  0  0
   -2.2569    5.2371   -4.6477 O   0  0  0  0  0  0  0  0  0  0  0  0
   -0.1887    6.0544   -6.1420 O   0  0  0  1  0  0  0  0  0  0  0  0
   -2.3606    5.5684   -7.3178 O   0  5  0  1  0  0  0  0  0  0  0  0
   -0.9186    2.3409   -8.3922 C   0  0  0  1  0  0  0  0  0  0  0  0
   -1.7956    2.0335   -7.8619 H   0  0  0  1  0  0  0  0  0  0  0  0
   -0.0344    1.2221   -8.5692 O   0  0  0  1  0  0  0  0  0  0  0  0
   -1.3094    2.8977   -9.7216 C   0  0  0  1  0  0  0  0  0  0  0  0
   -0.4487    3.2962  -10.2170 H   0  0  0  1  0  0  0  0  0  0  0  0
   -2.0375    3.6712   -9.5929 H   0  0  0  1  0  0  0  0  0  0  0  0
   -1.8712    1.8170  -10.5026 O   0  0  0  1  0  0  0  0  0  0  0  0
   -3.2617    1.9791  -11.2213 P   0  0  0  1  0  0  0  0  0  0  0  0
   -3.5982    0.7155  -11.9490 O   0  0  0  0  0  0  0  0  0  0  0  0
   -3.1716    3.2319  -12.0177 O   0  0  0  1  0  0  0  0  0  0  0  0
   -4.2692    2.1153   -9.9773 O   0  0  0  1  0  0  0  0  0  0  0  0
   -5.8916    2.3371   -9.8853 P   0  0  0  1  0  0  0  0  0  0  0  0
   -6.5015    2.0246  -11.1971 O   0  0  0  1  0  0  0  0  0  0  0  0
   -6.5053    1.6560   -8.5497 O   0  5  0  1  0  0  0  0  0  0  0  0
   -5.8323    3.8984   -9.6985 O   0  0  0  1  0  0  0  0  0  0  0  0
   -5.4640    5.9578   -8.6308 C   0  0  0  1  0  0  0  0  0  0  0  0
   -5.1874    4.4821   -8.5457 C   0  0  0  1  0  0  0  0  0  0  0  0
   -4.1338    4.2976   -8.5741 H   0  0  0  1  0  0  0  0  0  0  0  0
   -5.5969    4.0770   -7.6440 H   0  0  0  1  0  0  0  0  0  0  0  0
   -5.1272    6.4513  -10.0443 C   0  0  0  1  0  0  0  0  0  0  0  0
   -6.0320    6.5984  -10.5963 H   0  0  0  1  0  0  0  0  0  0  0  0
   -4.5211    5.7229  -10.5412 H   0  0  0  1  0  0  0  0  0  0  0  0
   -4.5939    7.3767   -9.9811 H   0  0  0  1  0  0  0  0  0  0  0  0
   -4.6346    6.7415   -7.5908 C   0  0  0  1  0  0  0  0  0  0  0  0
   -5.2566    7.4692   -7.1128 H   0  0  0  1  0  0  0  0  0  0  0  0
   -3.8217    7.2346   -8.0816 H   0  0  0  1  0  0  0  0  0  0  0  0
   -4.2506    6.0638   -6.8572 H   0  0  0  1  0  0  0  0  0  0  0  0
   -6.9553    6.1954   -8.3808 C   0  0  0  1  0  0  0  0  0  0  0  0
   -7.1703    7.2282   -8.5596 H   0  0  0  1  0  0  0  0  0  0  0  0
   -7.7480    5.3779   -9.2335 O   0  0  0  1  0  0  0  0  0  0  0  0
   -7.7690    4.4819   -8.8895 H   0  0  0  1  0  0  0  0  0  0  0  0
   -7.3276    5.8619   -6.9441 C   0  0  0  1  0  0  0  0  0  0  0  0
   -6.6421    5.0956   -6.2684 O   0  0  0  1  0  0  0  0  0  0  0  0
   -8.4362    6.4530   -6.4777 N   0  0  0  1  0  0  0  0  0  0  0  0
   -8.9364    7.0355   -7.0867 H   0  0  0  1  0  0  0  0  0  0  0  0
   -8.9442    6.2852   -5.1256 C   0  0  0  1  0  0  0  0  0  0  0  0
   -8.4056    6.9404   -4.4732 H   0  0  0  1  0  0  0  0  0  0  0  0
   -8.7861    5.2710   -4.8233 H   0  0  0  1  0  0  0  0  0  0  0  0
  -10.4302    6.6009   -5.0164 C   0  0  0  1  0  0  0  0  0  0  0  0
  -10.9731    5.8926   -5.6066 H   0  0  0  1  0  0  0  0  0  0  0  0
  -10.5978    7.5866   -5.3975 H   0  0  0  1  0  0  0  0  0  0  0  0
  -10.9436    6.5401   -3.6026 C   0  0  0  1  0  0  0  0  0  0  0  0
  -10.7960    5.5268   -2.9207 O   0  0  0  1  0  0  0  0  0  0  0  0
  -11.5629    7.6177   -3.1124 N   0  0  0  1  0  0  0  0  0  0  0  0
  -11.7093    8.3876   -3.7008 H   0  0  0  1  0  0  0  0  0  0  0  0
  -12.0277    7.6879   -1.7351 C   0  0  0  1  0  0  0  0  0  0  0  0
  -12.0648    8.7151   -1.4377 H   0  0  0  1  0  0  0  0  0  0  0  0
  -11.3355    7.1606   -1.1124 H   0  0  0  1  0  0  0  0  0  0  0  0
  -13.3972    7.0829   -1.5553 C   0  0  0  1  0  0  0  0  0  0  0  0
  -13.3055    6.0212   -1.6508 H   0  0  0  1  0  0  0  0  0  0  0  0
  -14.0298    7.4582   -2.3324 H   0  0  0  1  0  0  0  0  0  0  0  0
  -14.1897    7.4361    0.0316 S   0  0  0  1  0  0  0  0  0  0  0  0
  -14.7315    9.0923   -0.1834 C   0  0  0  1  0  0  0  0  0  0  0  0
  -14.5026    9.7735   -1.1462 O   0  0  0  1  0  0  0  0  0  0  0  0
  -15.5456    9.6108    0.9967 C   0  0  0  1  0  0  0  0  0  0  0  0
  -15.9687    8.7848    1.5292 H   0  0  0  1  0  0  0  0  0  0  0  0
  -16.3306   10.2432    0.6378 H   0  0  0  1  0  0  0  0  0  0  0  0
  -14.9089   10.1685    1.6514 H   0  0  0  1  0  0  0  0  0  0  0  0
  1  2  1  0  0  0  0
  1  7  2  0  0  0  0
  2  3  1  0  0  0  0
  2  4  2  0  0  0  0
  4  5  1  0  0  0  0
  5  6  2  0  0  0  0
  5 14  1  0  0  0  0
  6  7  1  0  0  0  0
  6 11  1  0  0  0  0
  7  8  1  0  0  0  0
  8  9  1  0  0  0  0
  8 10  1  0  0  0  0
 11 12  2  0  0  0  0
 12 13  1  0  0  0  0
 12 14  1  0  0  0  0
 14 15  1  0  0  0  0
 15 16  1  0  0  0  0
 15 17  1  0  0  0  0
 15 30  1  0  0  0  0
 17 18  1  0  0  0  0
 17 19  1  0  0  0  0
 17 21  1  0  0  0  0
 19 20  1  0  0  0  0
 21 22  1  0  0  0  0
 21 23  1  0  0  0  0
 21 28  1  0  0  0  0
 23 24  1  0  0  0  0
 24 25  1  0  0  0  0
 24 26  2  0  0  0  0
 24 27  1  0  0  0  0
 28 29  1  0  0  0  0
 28 30  1  0  0  0  0
 28 31  1  0  0  0  0
 31 32  1  0  0  0  0
 31 33  1  0  0  0  0
 31 34  1  0  0  0  0
 34 35  1  0  0  0  0
 35 36  1  0  0  0  0
 35 37  2  0  0  0  0
 35 38  1  0  0  0  0
 38 39  1  0  0  0  0
 39 40  2  0  0  0  0
 39 41  1  0  0  0  0
 39 42  1  0  0  0  0
 42 44  1  0  0  0  0
 43 44  1  0  0  0  0
 43 47  1  0  0  0  0
 43 51  1  0  0  0  0
 43 55  1  0  0  0  0
 44 45  1  0  0  0  0
 44 46  1  0  0  0  0
 47 48  1  0  0  0  0
 47 49  1  0  0  0  0
 47 50  1  0  0  0  0
 51 52  1  0  0  0  0
 51 53  1  0  0  0  0
 51 54  1  0  0  0  0
 55 56  1  0  0  0  0
 55 57  1  0  0  0  0
 55 59  1  0  0  0  0
 57 58  1  0  0  0  0
 59 60  2  0  0  0  0
 59 61  1  0  0  0  0
 61 62  1  0  0  0  0
 61 63  1  0  0  0  0
 63 64  1  0  0  0  0
 63 65  1  0  0  0  0
 63 66  1  0  0  0  0
 66 67  1  0  0  0  0
 66 68  1  0  0  0  0
 66 69  1  0  0  0  0
 69 70  2  0  0  0  0
 69 71  1  0  0  0  0
 71 72  1  0  0  0  0
 71 73  1  0  0  0  0
 73 74  1  0  0  0  0
 73 75  1  0  0  0  0
 73 76  1  0  0  0  0
 76 77  1  0  0  0  0
 76 78  1  0  0  0  0
 76 79  1  0  0  0  0
 79 80  1  0  0  0  0
 80 81  2  0  0  0  0
 80 82  1  0  0  0  0
 82 83  1  0  0  0  0
 82 84  1  0  0  0  0
 82 85  1  0  0  0  0
M  BCL ATM N_Tr2TrTrPi C_TrTrTrPi H_S N_Tr2TrTrPi C_TrTrTrPi C_TrTrTrPi C_TrTrTrPi N_TrTrTrPi2 H_S H_S N_Tr2TrTrPi C_TrTrTrPi H_S N_TrTrTrPi2 C_TeTeTeTe H_S C_TeTeTeTe H_S O_Te2Te2TeTe H_S C_TeTeTeTe H_S O_Tr2TrTrPi2 P_TeTeTeTePi O_Te2Te2TeTe O_Tr2Tr2TrPi O_Te2Te2Te2Te C_TeTeTeTe H_S O_Te2Te2TeTe C_TeTeTeTe H_S H_S O_Tr2TrTrPi2 P_TeTeTeTePi O_Te2Te2TeTe O_Tr2Tr2TrPi O_Tr2TrTrPi2 P_TeTeTeTePi O_Tr2Tr2TrPi O_Te2Te2Te2Te O_Tr2TrTrPi2 C_TeTeTeTe C_TeTeTeTe H_S H_S C_TeTeTeTe H_S H_S H_S C_TeTeTeTe H_S H_S H_S C_TeTeTeTe H_S O_Te2Te2TeTe H_S C_TrTrTrPi O_Tr2Tr2TrPi N_TrTrTrPi2 H_S C_TeTeTeTe H_S H_S C_TeTeTeTe H_S H_S C_TrTrTrPi O_Tr2Tr2TrPi N_TrTrTrPi2 H_S C_TeTeTeTe H_S H_S C_TeTeTeTe H_S H_S S_Te2Te2TeTe C_TrTrTrPi O_Tr2Tr2TrPi C_TeTeTeTe H_S H_S H_S
M  BCL BND AromaticSingleBond AromaticDoubleBond NonConjugatedSingleBond AromaticDoubleBond AromaticSingleBond AromaticDoubleBond AromaticSingleBond AromaticSingleBond AromaticSingleBond ConjugatedSingleBond NonConjugatedSingleBond NonConjugatedSingleBond AromaticDoubleBond NonConjugatedSingleBond AromaticSingleBond NonConjugatedSingleBond NonConjugatedSingleBond NonConjugatedSingleBondInRing NonConjugatedSingleBondInRing NonConjugatedSingleBond NonConjugatedSingleBond NonConjugatedSingleBondInRing NonConjugatedSingleBond NonConjugatedSingleBond NonConjugatedSingleBond NonConjugatedSingleBondInRing ConjugatedSingleBond ConjugatedSingleBond ConjugatedDoubleBond ConjugatedSingleBond NonConjugatedSingleBond NonConjugatedSingleBondInRing NonConjugatedSingleBond NonConjugatedSingleBond NonConjugatedSingleBond NonConjugatedSingleBond ConjugatedSingleBond ConjugatedSingleBond ConjugatedDoubleBond ConjugatedSingleBond ConjugatedSingleBond ConjugatedDoubleBond ConjugatedSingleBond ConjugatedSingleBond NonConjugatedSingleBond NonConjugatedSingleBond NonConjugatedSingleBond NonConjugatedSingleBond NonConjugatedSingleBond NonConjugatedSingleBond NonConjugatedSingleBond NonConjugatedSingleBond NonConjugatedSingleBond NonConjugatedSingleBond NonConjugatedSingleBond NonConjugatedSingleBond NonConjugatedSingleBond NonConjugatedSingleBond NonConjugatedSingleBond NonConjugatedSingleBond NonConjugatedSingleBond ConjugatedDoubleBond AmideSingleBond NonConjugatedSingleBond NonConjugatedSingleBond NonConjugatedSingleBond NonConjugatedSingleBond NonConjugatedSingleBond NonConjugatedSingleBond NonConjugatedSingleBond NonConjugatedSingleBond ConjugatedDoubleBond AmideSingleBond NonConjugatedSingleBond NonConjugatedSingleBond NonConjugatedSingleBond NonConjugatedSingleBond NonConjugatedSingleBond NonConjugatedSingleBond NonConjugatedSingleBond NonConjugatedSingleBond ConjugatedSingleBond ConjugatedDoubleBond NonConjugatedSingleBond NonConjugatedSingleBond NonConjugatedSingleBond NonConjugatedSingleBond
M  BCL CHI  15   S  17   S  21   S  24   S  28   R  35   R  39   R  55   S
M  BCL DBI - - - - - - - - - -
M  END
> <ConfClashScore>
0 

> <ConfOneFourInteractionScore>
-0.977225 

> <ConfScore>
0.0142905 

> <ConfScorePBest>
0.0113905 

> <ConfTolerance>
2.33063 

$$$$
ACO.****
  PyMOL2.5          3D                             0

 85 87  0  0  0  0  0  0  0  0999 V2000
    4.8855    1.0752  -10.6424 N   0  0  0  1  0  0  0  0  0  0  0  0
    3.8357    1.9045  -10.5318 C   0  0  0  1  0  0  0  0  0  0  0  0
    3.8030    2.6831  -11.2205 H   0  0  0  1  0  0  0  0  0  0  0  0
    2.8336    1.8649   -9.6622 N   0  0  0  1  0  0  0  0  0  0  0  0
    2.9569    0.8333   -8.8258 C   0  0  0  1  0  0  0  0  0  0  0  0
    3.9897   -0.1137   -8.8107 C   0  0  0  1  0  0  0  0  0  0  0  0
    4.9767    0.0602   -9.7764 C   0  0  0  1  0  0  0  0  0  0  0  0
    6.0617   -0.7680   -9.8937 N   0  0  0  1  0  0  0  0  0  0  0  0
    6.7079   -0.6295  -10.6173 H   0  0  0  1  0  0  0  0  0  0  0  0
    6.1916   -1.4990   -9.2540 H   0  0  0  1  0  0  0  0  0  0  0  0
    3.7866   -1.0297   -7.7903 N   0  0  0  1  0  0  0  0  0  0  0  0
    2.6740   -0.6296   -7.2373 C   0  0  0  1  0  0  0  0  0  0  0  0
    2.2419   -1.1226   -6.4299 H   0  0  0  1  0  0  0  0  0  0  0  0
    2.1217    0.4815   -7.7970 N   0  0  0  1  0  0  0  0  0  0  0  0
    0.8864    1.1635   -7.3848 C   0  0  0  1  0  0  0  0  0  0  0  0
    0.4525    1.6575   -8.2290 H   0  0  0  1  0  0  0  0  0  0  0  0
   -0.1101    0.1410   -6.8048 C   0  0  0  1  0  0  0  0  0  0  0  0
    0.3997   -0.6777   -6.3413 H   0  0  0  1  0  0  0  0  0  0  0  0
   -0.9908   -0.3560   -7.8160 O   0  0  0  1  0  0  0  0  0  0  0  0
   -1.7183    0.2585   -7.9376 H   0  0  0  1  0  0  0  0  0  0  0  0
   -0.8693    0.9814   -5.7698 C   0  0  0  1  0  0  0  0  0  0  0  0
   -1.1824    0.3798   -4.9422 H   0  0  0  1  0  0  0  0  0  0  0  0
   -2.0141    1.6163   -6.3614 O   0  0  0  1  0  0  0  0  0  0  0  0
   -3.5774    1.2220   -6.0612 P   0  0  0  1  0  0  0  0  0  0  0  0
   -3.8524    0.0646   -7.1902 O   0  0  0  0  0  0  0  0  0  0  0  0
   -3.9023    0.8456   -4.6673 O   0  0  0  1  0  0  0  0  0  0  0  0
   -4.3974    2.4664   -6.6964 O   0  5  0  1  0  0  0  0  0  0  0  0
    0.1710    2.0199   -5.3326 C   0  0  0  1  0  0  0  0  0  0  0  0
   -0.2947    2.9744   -5.2029 H   0  0  0  1  0  0  0  0  0  0  0  0
    1.1668    2.0905   -6.3845 O   0  0  0  1  0  0  0  0  0  0  0  0
    0.8015    1.6030   -4.0652 C   0  0  0  1  0  0  0  0  0  0  0  0
    0.0637    1.5961   -3.2903 H   0  0  0  1  0  0  0  0  0  0  0  0
    1.5775    2.2953   -3.8133 H   0  0  0  1  0  0  0  0  0  0  0  0
    1.3699    0.2752   -4.1953 O   0  0  0  1  0  0  0  0  0  0  0  0
    2.7537   -0.1584   -3.5079 P   0  0  0  1  0  0  0  0  0  0  0  0
    3.8070    0.8044   -3.9128 O   0  0  0  0  0  0  0  0  0  0  0  0
    2.9772   -1.5847   -3.7471 O   0  0  0  1  0  0  0  0  0  0  0  0
    2.3979   -0.0053   -1.9735 O   0  0  0  1  0  0  0  0  0  0  0  0
    2.0886   -0.9637   -0.6791 P   0  0  0  1  0  0  0  0  0  0  0  0
    0.9649   -1.9077   -0.8705 O   0  0  0  1  0  0  0  0  0  0  0  0
    3.4877   -1.7791   -0.6344 O   0  5  0  1  0  0  0  0  0  0  0  0
    1.9800   -0.1217    0.6458 O   0  0  0  1  0  0  0  0  0  0  0  0
    2.4942    1.5867    2.2085 C   0  0  0  1  0  0  0  0  0  0  0  0
    2.8538    1.0036    0.8815 C   0  0  0  1  0  0  0  0  0  0  0  0
    2.7198    1.7362    0.1132 H   0  0  0  1  0  0  0  0  0  0  0  0
    3.8730    0.6780    0.8907 H   0  0  0  1  0  0  0  0  0  0  0  0
    2.7701    0.5646    3.3147 C   0  0  0  1  0  0  0  0  0  0  0  0
    2.1498   -0.2951    3.1694 H   0  0  0  1  0  0  0  0  0  0  0  0
    2.5546    1.0029    4.2667 H   0  0  0  1  0  0  0  0  0  0  0  0
    3.7987    0.2717    3.2809 H   0  0  0  1  0  0  0  0  0  0  0  0
    1.0202    1.9790    2.2326 C   0  0  0  1  0  0  0  0  0  0  0  0
    0.4218    1.1367    1.9545 H   0  0  0  1  0  0  0  0  0  0  0  0
    0.8529    2.7787    1.5417 H   0  0  0  1  0  0  0  0  0  0  0  0
    0.7520    2.2967    3.2185 H   0  0  0  1  0  0  0  0  0  0  0  0
    3.3267    2.8332    2.5312 C   0  0  0  1  0  0  0  0  0  0  0  0
    3.1848    3.5535    1.7527 H   0  0  0  1  0  0  0  0  0  0  0  0
    2.9254    3.3771    3.7865 O   0  0  0  1  0  0  0  0  0  0  0  0
    3.1929    4.2977    3.8371 H   0  0  0  1  0  0  0  0  0  0  0  0
    4.7784    2.4474    2.5824 C   0  0  0  1  0  0  0  0  0  0  0  0
    5.3360    1.8796    1.6577 O   0  0  0  1  0  0  0  0  0  0  0  0
    5.4882    2.7340    3.6773 N   0  0  0  1  0  0  0  0  0  0  0  0
    5.0471    3.1992    4.4186 H   0  0  0  1  0  0  0  0  0  0  0  0
    6.8936    2.3794    3.8076 C   0  0  0  1  0  0  0  0  0  0  0  0
    7.1350    1.6235    3.0899 H   0  0  0  1  0  0  0  0  0  0  0  0
    7.0736    2.0059    4.7940 H   0  0  0  1  0  0  0  0  0  0  0  0
    7.7645    3.5928    3.5667 C   0  0  0  1  0  0  0  0  0  0  0  0
    7.5987    3.9241    2.5629 H   0  0  0  1  0  0  0  0  0  0  0  0
    8.7856    3.2940    3.6802 H   0  0  0  1  0  0  0  0  0  0  0  0
    7.5148    4.7665    4.4938 C   0  0  0  1  0  0  0  0  0  0  0  0
    7.2146    4.5948    5.6745 O   0  0  0  1  0  0  0  0  0  0  0  0
    7.6422    5.9756    3.9451 N   0  0  0  1  0  0  0  0  0  0  0  0
    7.8893    6.0421    2.9991 H   0  0  0  1  0  0  0  0  0  0  0  0
    7.4256    7.2078    4.7076 C   0  0  0  1  0  0  0  0  0  0  0  0
    7.7892    7.0526    5.7019 H   0  0  0  1  0  0  0  0  0  0  0  0
    6.3734    7.4002    4.7380 H   0  0  0  1  0  0  0  0  0  0  0  0
    8.1101    8.4274    4.1420 C   0  0  0  1  0  0  0  0  0  0  0  0
    9.1153    8.1817    3.8697 H   0  0  0  1  0  0  0  0  0  0  0  0
    8.1190    9.2070    4.8748 H   0  0  0  1  0  0  0  0  0  0  0  0
    7.2014    8.9789    2.6787 S   0  0  0  1  0  0  0  0  0  0  0  0
    5.7555    9.7271    3.3928 C   0  0  0  1  0  0  0  0  0  0  0  0
    5.5662    9.8085    4.5793 O   0  0  0  1  0  0  0  0  0  0  0  0
    4.8000   10.2444    2.3426 C   0  0  0  1  0  0  0  0  0  0  0  0
    4.1838   11.0097    2.7663 H   0  0  0  1  0  0  0  0  0  0  0  0
    4.1834    9.4418    1.9954 H   0  0  0  1  0  0  0  0  0  0  0  0
    5.3562   10.6480    1.5225 H   0  0  0  1  0  0  0  0  0  0  0  0
  1  2  1  0  0  0  0
  1  7  2  0  0  0  0
  2  3  1  0  0  0  0
  2  4  2  0  0  0  0
  4  5  1  0  0  0  0
  5  6  2  0  0  0  0
  5 14  1  0  0  0  0
  6  7  1  0  0  0  0
  6 11  1  0  0  0  0
  7  8  1  0  0  0  0
  8  9  1  0  0  0  0
  8 10  1  0  0  0  0
 11 12  2  0  0  0  0
 12 13  1  0  0  0  0
 12 14  1  0  0  0  0
 14 15  1  0  0  0  0
 15 16  1  0  0  0  0
 15 17  1  0  0  0  0
 15 30  1  0  0  0  0
 17 18  1  0  0  0  0
 17 19  1  0  0  0  0
 17 21  1  0  0  0  0
 19 20  1  0  0  0  0
 21 22  1  0  0  0  0
 21 23  1  0  0  0  0
 21 28  1  0  0  0  0
 23 24  1  0  0  0  0
 24 25  1  0  0  0  0
 24 26  2  0  0  0  0
 24 27  1  0  0  0  0
 28 29  1  0  0  0  0
 28 30  1  0  0  0  0
 28 31  1  0  0  0  0
 31 32  1  0  0  0  0
 31 33  1  0  0  0  0
 31 34  1  0  0  0  0
 34 35  1  0  0  0  0
 35 36  1  0  0  0  0
 35 37  2  0  0  0  0
 35 38  1  0  0  0  0
 38 39  1  0  0  0  0
 39 40  2  0  0  0  0
 39 41  1  0  0  0  0
 39 42  1  0  0  0  0
 42 44  1  0  0  0  0
 43 44  1  0  0  0  0
 43 47  1  0  0  0  0
 43 51  1  0  0  0  0
 43 55  1  0  0  0  0
 44 45  1  0  0  0  0
 44 46  1  0  0  0  0
 47 48  1  0  0  0  0
 47 49  1  0  0  0  0
 47 50  1  0  0  0  0
 51 52  1  0  0  0  0
 51 53  1  0  0  0  0
 51 54  1  0  0  0  0
 55 56  1  0  0  0  0
 55 57  1  0  0  0  0
 55 59  1  0  0  0  0
 57 58  1  0  0  0  0
 59 60  2  0  0  0  0
 59 61  1  0  0  0  0
 61 62  1  0  0  0  0
 61 63  1  0  0  0  0
 63 64  1  0  0  0  0
 63 65  1  0  0  0  0
 63 66  1  0  0  0  0
 66 67  1  0  0  0  0
 66 68  1  0  0  0  0
 66 69  1  0  0  0  0
 69 70  2  0  0  0  0
 69 71  1  0  0  0  0
 71 72  1  0  0  0  0
 71 73  1  0  0  0  0
 73 74  1  0  0  0  0
 73 75  1  0  0  0  0
 73 76  1  0  0  0  0
 76 77  1  0  0  0  0
 76 78  1  0  0  0  0
 76 79  1  0  0  0  0
 79 80  1  0  0  0  0
 80 81  2  0  0  0  0
 80 82  1  0  0  0  0
 82 83  1  0  0  0  0
 82 84  1  0  0  0  0
 82 85  1  0  0  0  0
M  BCL ATM N_Tr2TrTrPi C_TrTrTrPi H_S N_Tr2TrTrPi C_TrTrTrPi C_TrTrTrPi C_TrTrTrPi N_TrTrTrPi2 H_S H_S N_Tr2TrTrPi C_TrTrTrPi H_S N_TrTrTrPi2 C_TeTeTeTe H_S C_TeTeTeTe H_S O_Te2Te2TeTe H_S C_TeTeTeTe H_S O_Tr2TrTrPi2 P_TeTeTeTePi O_Te2Te2TeTe O_Tr2Tr2TrPi O_Te2Te2Te2Te C_TeTeTeTe H_S O_Te2Te2TeTe C_TeTeTeTe H_S H_S O_Tr2TrTrPi2 P_TeTeTeTePi O_Te2Te2TeTe O_Tr2Tr2TrPi O_Tr2TrTrPi2 P_TeTeTeTePi O_Tr2Tr2TrPi O_Te2Te2Te2Te O_Tr2TrTrPi2 C_TeTeTeTe C_TeTeTeTe H_S H_S C_TeTeTeTe H_S H_S H_S C_TeTeTeTe H_S H_S H_S C_TeTeTeTe H_S O_Te2Te2TeTe H_S C_TrTrTrPi O_Tr2Tr2TrPi N_TrTrTrPi2 H_S C_TeTeTeTe H_S H_S C_TeTeTeTe H_S H_S C_TrTrTrPi O_Tr2Tr2TrPi N_TrTrTrPi2 H_S C_TeTeTeTe H_S H_S C_TeTeTeTe H_S H_S S_Te2Te2TeTe C_TrTrTrPi O_Tr2Tr2TrPi C_TeTeTeTe H_S H_S H_S
M  BCL BND AromaticSingleBond AromaticDoubleBond NonConjugatedSingleBond AromaticDoubleBond AromaticSingleBond AromaticDoubleBond AromaticSingleBond AromaticSingleBond AromaticSingleBond ConjugatedSingleBond NonConjugatedSingleBond NonConjugatedSingleBond AromaticDoubleBond NonConjugatedSingleBond AromaticSingleBond NonConjugatedSingleBond NonConjugatedSingleBond NonConjugatedSingleBondInRing NonConjugatedSingleBondInRing NonConjugatedSingleBond NonConjugatedSingleBond NonConjugatedSingleBondInRing NonConjugatedSingleBond NonConjugatedSingleBond NonConjugatedSingleBond NonConjugatedSingleBondInRing ConjugatedSingleBond ConjugatedSingleBond ConjugatedDoubleBond ConjugatedSingleBond NonConjugatedSingleBond NonConjugatedSingleBondInRing NonConjugatedSingleBond NonConjugatedSingleBond NonConjugatedSingleBond NonConjugatedSingleBond ConjugatedSingleBond ConjugatedSingleBond ConjugatedDoubleBond ConjugatedSingleBond ConjugatedSingleBond ConjugatedDoubleBond ConjugatedSingleBond ConjugatedSingleBond NonConjugatedSingleBond NonConjugatedSingleBond NonConjugatedSingleBond NonConjugatedSingleBond NonConjugatedSingleBond NonConjugatedSingleBond NonConjugatedSingleBond NonConjugatedSingleBond NonConjugatedSingleBond NonConjugatedSingleBond NonConjugatedSingleBond NonConjugatedSingleBond NonConjugatedSingleBond NonConjugatedSingleBond NonConjugatedSingleBond NonConjugatedSingleBond NonConjugatedSingleBond ConjugatedDoubleBond AmideSingleBond NonConjugatedSingleBond NonConjugatedSingleBond NonConjugatedSingleBond NonConjugatedSingleBond NonConjugatedSingleBond NonConjugatedSingleBond NonConjugatedSingleBond NonConjugatedSingleBond ConjugatedDoubleBond AmideSingleBond NonConjugatedSingleBond NonConjugatedSingleBond NonConjugatedSingleBond NonConjugatedSingleBond NonConjugatedSingleBond NonConjugatedSingleBond NonConjugatedSingleBond NonConjugatedSingleBond ConjugatedSingleBond ConjugatedDoubleBond NonConjugatedSingleBond NonConjugatedSingleBond NonConjugatedSingleBond NonConjugatedSingleBond
M  BCL CHI  15   S  17   S  21   S  24   S  28   R  35   R  39   R  55   S
M  BCL DBI - - - - - - - - - -
M  END
> <ConfClashScore>
0 

> <ConfOneFourInteractionScore>
-0.983028 

> <ConfScore>
0.0144789 

> <ConfScorePBest>
0.0112875 

> <ConfTolerance>
2.33677 

$$$$
ACO.****
  PyMOL2.5          3D                             0

 85 87  0  0  0  0  0  0  0  0999 V2000
    4.8802    1.0901  -10.6561 N   0  0  0  1  0  0  0  0  0  0  0  0
    3.8274    1.9148  -10.5396 C   0  0  0  1  0  0  0  0  0  0  0  0
    3.7886    2.6945  -11.2267 H   0  0  0  1  0  0  0  0  0  0  0  0
    2.8292    1.8695   -9.6658 N   0  0  0  1  0  0  0  0  0  0  0  0
    2.9603    0.8369   -8.8319 C   0  0  0  1  0  0  0  0  0  0  0  0
    3.9970   -0.1059   -8.8229 C   0  0  0  1  0  0  0  0  0  0  0  0
    4.9792    0.0738   -9.7924 C   0  0  0  1  0  0  0  0  0  0  0  0
    6.0474   -0.7803   -9.8713 N   0  0  0  1  0  0  0  0  0  0  0  0
    6.6919   -0.6925  -10.6044 H   0  0  0  1  0  0  0  0  0  0  0  0
    6.1672   -1.4790   -9.1947 H   0  0  0  1  0  0  0  0  0  0  0  0
    3.8020   -1.0247   -7.8034 N   0  0  0  1  0  0  0  0  0  0  0  0
    2.6901   -0.6302   -7.2450 C   0  0  0  1  0  0  0  0  0  0  0  0
    2.2635   -1.1265   -6.4367 H   0  0  0  1  0  0  0  0  0  0  0  0
    2.1309    0.4797   -7.8002 N   0  0  0  1  0  0  0  0  0  0  0  0
    0.8982    1.1538   -7.3828 C   0  0  0  1  0  0  0  0  0  0  0  0
    0.2236    1.2100   -8.2115 H   0  0  0  1  0  0  0  0  0  0  0  0
    0.2646    0.4191   -6.2479 C   0  0  0  1  0  0  0  0  0  0  0  0
    0.5033   -0.6232   -6.2855 H   0  0  0  1  0  0  0  0  0  0  0  0
   -1.1559    0.5843   -6.2605 O   0  0  0  1  0  0  0  0  0  0  0  0
   -1.3729    1.4692   -6.5628 H   0  0  0  1  0  0  0  0  0  0  0  0
    0.8699    1.0656   -5.0363 C   0  0  0  1  0  0  0  0  0  0  0  0
    1.8195    0.6312   -4.8029 H   0  0  0  1  0  0  0  0  0  0  0  0
   -0.0147    0.9494   -3.8840 O   0  0  0  1  0  0  0  0  0  0  0  0
    0.5595    0.4537   -2.4299 P   0  0  0  1  0  0  0  0  0  0  0  0
   -0.6581    0.3380   -1.3373 O   0  0  0  0  0  0  0  0  0  0  0  0
    1.3940   -0.7499   -2.6425 O   0  0  0  1  0  0  0  0  0  0  0  0
    1.4575    1.6873   -1.8856 O   0  5  0  1  0  0  0  0  0  0  0  0
    1.0222    2.5068   -5.4600 C   0  0  0  1  0  0  0  0  0  0  0  0
    0.1474    3.0661   -5.2013 H   0  0  0  1  0  0  0  0  0  0  0  0
    1.1939    2.4767   -6.8869 O   0  0  0  1  0  0  0  0  0  0  0  0
    2.2167    3.1185   -4.8048 C   0  0  0  1  0  0  0  0  0  0  0  0
    2.4928    4.0169   -5.3163 H   0  0  0  1  0  0  0  0  0  0  0  0
    3.0356    2.4301   -4.8247 H   0  0  0  1  0  0  0  0  0  0  0  0
    1.8601    3.4207   -3.4354 O   0  0  0  1  0  0  0  0  0  0  0  0
    2.9739    3.8695   -2.3776 P   0  0  0  1  0  0  0  0  0  0  0  0
    3.5576    5.1755   -2.7446 O   0  0  0  0  0  0  0  0  0  0  0  0
    3.8384    2.6904   -2.2087 O   0  0  0  1  0  0  0  0  0  0  0  0
    2.1468    4.1705   -1.0202 O   0  0  0  1  0  0  0  0  0  0  0  0
    1.5346    5.6542   -0.6835 P   0  0  0  1  0  0  0  0  0  0  0  0
    2.6080    6.5155   -0.1392 O   0  0  0  1  0  0  0  0  0  0  0  0
    1.0636    6.2716   -2.1053 O   0  5  0  1  0  0  0  0  0  0  0  0
    0.3428    5.4000    0.3121 O   0  0  0  1  0  0  0  0  0  0  0  0
   -1.6438    4.4606    1.1672 C   0  0  0  1  0  0  0  0  0  0  0  0
   -0.6839    4.4129    0.0106 C   0  0  0  1  0  0  0  0  0  0  0  0
   -0.2509    3.4382   -0.0751 H   0  0  0  1  0  0  0  0  0  0  0  0
   -1.1853    4.6624   -0.9011 H   0  0  0  1  0  0  0  0  0  0  0  0
   -2.0566    5.9153    1.4168 C   0  0  0  1  0  0  0  0  0  0  0  0
   -2.7027    5.9622    2.2685 H   0  0  0  1  0  0  0  0  0  0  0  0
   -2.5714    6.2921    0.5578 H   0  0  0  1  0  0  0  0  0  0  0  0
   -1.1840    6.5073    1.5984 H   0  0  0  1  0  0  0  0  0  0  0  0
   -1.0105    3.8722    2.4394 C   0  0  0  1  0  0  0  0  0  0  0  0
   -0.4275    4.6242    2.9289 H   0  0  0  1  0  0  0  0  0  0  0  0
   -0.3806    3.0484    2.1758 H   0  0  0  1  0  0  0  0  0  0  0  0
   -1.7827    3.5347    3.0987 H   0  0  0  1  0  0  0  0  0  0  0  0
   -2.8985    3.6597    0.8013 C   0  0  0  1  0  0  0  0  0  0  0  0
   -3.6035    3.7613    1.5998 H   0  0  0  1  0  0  0  0  0  0  0  0
   -3.4565    4.1896   -0.3989 O   0  0  0  1  0  0  0  0  0  0  0  0
   -4.4146    4.1555   -0.3492 H   0  0  0  1  0  0  0  0  0  0  0  0
   -2.5484    2.1738    0.6519 C   0  0  0  1  0  0  0  0  0  0  0  0
   -2.5034    1.6685   -0.4576 O   0  0  0  1  0  0  0  0  0  0  0  0
   -2.2220    1.5180    1.7667 N   0  0  0  1  0  0  0  0  0  0  0  0
   -2.3600    1.9577    2.6316 H   0  0  0  1  0  0  0  0  0  0  0  0
   -1.6681    0.1725    1.7433 C   0  0  0  1  0  0  0  0  0  0  0  0
   -1.2103   -0.0263    2.6897 H   0  0  0  1  0  0  0  0  0  0  0  0
   -0.9294    0.1192    0.9710 H   0  0  0  1  0  0  0  0  0  0  0  0
   -2.7186   -0.8824    1.4823 C   0  0  0  1  0  0  0  0  0  0  0  0
   -2.2239   -1.8277    1.4003 H   0  0  0  1  0  0  0  0  0  0  0  0
   -3.1980   -0.6485    0.5547 H   0  0  0  1  0  0  0  0  0  0  0  0
   -3.7926   -1.0072    2.5454 C   0  0  0  1  0  0  0  0  0  0  0  0
   -4.7300   -0.2125    2.6022 O   0  0  0  1  0  0  0  0  0  0  0  0
   -3.6484   -2.0245    3.3994 N   0  0  0  1  0  0  0  0  0  0  0  0
   -2.9252   -2.6729    3.2699 H   0  0  0  1  0  0  0  0  0  0  0  0
   -4.5625   -2.1715    4.5207 C   0  0  0  1  0  0  0  0  0  0  0  0
   -4.9595   -1.2091    4.7679 H   0  0  0  1  0  0  0  0  0  0  0  0
   -4.0195   -2.5594    5.3571 H   0  0  0  1  0  0  0  0  0  0  0  0
   -5.7089   -3.1031    4.2145 C   0  0  0  1  0  0  0  0  0  0  0  0
   -5.3004   -4.0222    3.8493 H   0  0  0  1  0  0  0  0  0  0  0  0
   -6.3087   -2.6511    3.4524 H   0  0  0  1  0  0  0  0  0  0  0  0
   -6.7825   -3.4862    5.6186 S   0  0  0  1  0  0  0  0  0  0  0  0
   -7.3013   -4.9785    5.1790 C   0  0  0  1  0  0  0  0  0  0  0  0
   -7.0896   -5.7805    4.4885 O   0  0  0  1  0  0  0  0  0  0  0  0
   -8.6085   -5.4290    6.2605 C   0  0  0  1  0  0  0  0  0  0  0  0
   -8.9761   -6.3975    5.9925 H   0  0  0  1  0  0  0  0  0  0  0  0
   -9.3996   -4.7129    6.1810 H   0  0  0  1  0  0  0  0  0  0  0  0
   -8.2466   -5.4512    7.2672 H   0  0  0  1  0  0  0  0  0  0  0  0
  1  2  1  0  0  0  0
  1  7  2  0  0  0  0
  2  3  1  0  0  0  0
  2  4  2  0  0  0  0
  4  5  1  0  0  0  0
  5  6  2  0  0  0  0
  5 14  1  0  0  0  0
  6  7  1  0  0  0  0
  6 11  1  0  0  0  0
  7  8  1  0  0  0  0
  8  9  1  0  0  0  0
  8 10  1  0  0  0  0
 11 12  2  0  0  0  0
 12 13  1  0  0  0  0
 12 14  1  0  0  0  0
 14 15  1  0  0  0  0
 15 16  1  0  0  0  0
 15 17  1  0  0  0  0
 15 30  1  0  0  0  0
 17 18  1  0  0  0  0
 17 19  1  0  0  0  0
 17 21  1  0  0  0  0
 19 20  1  0  0  0  0
 21 22  1  0  0  0  0
 21 23  1  0  0  0  0
 21 28  1  0  0  0  0
 23 24  1  0  0  0  0
 24 25  1  0  0  0  0
 24 26  2  0  0  0  0
 24 27  1  0  0  0  0
 28 29  1  0  0  0  0
 28 30  1  0  0  0  0
 28 31  1  0  0  0  0
 31 32  1  0  0  0  0
 31 33  1  0  0  0  0
 31 34  1  0  0  0  0
 34 35  1  0  0  0  0
 35 36  1  0  0  0  0
 35 37  2  0  0  0  0
 35 38  1  0  0  0  0
 38 39  1  0  0  0  0
 39 40  2  0  0  0  0
 39 41  1  0  0  0  0
 39 42  1  0  0  0  0
 42 44  1  0  0  0  0
 43 44  1  0  0  0  0
 43 47  1  0  0  0  0
 43 51  1  0  0  0  0
 43 55  1  0  0  0  0
 44 45  1  0  0  0  0
 44 46  1  0  0  0  0
 47 48  1  0  0  0  0
 47 49  1  0  0  0  0
 47 50  1  0  0  0  0
 51 52  1  0  0  0  0
 51 53  1  0  0  0  0
 51 54  1  0  0  0  0
 55 56  1  0  0  0  0
 55 57  1  0  0  0  0
 55 59  1  0  0  0  0
 57 58  1  0  0  0  0
 59 60  2  0  0  0  0
 59 61  1  0  0  0  0
 61 62  1  0  0  0  0
 61 63  1  0  0  0  0
 63 64  1  0  0  0  0
 63 65  1  0  0  0  0
 63 66  1  0  0  0  0
 66 67  1  0  0  0  0
 66 68  1  0  0  0  0
 66 69  1  0  0  0  0
 69 70  2  0  0  0  0
 69 71  1  0  0  0  0
 71 72  1  0  0  0  0
 71 73  1  0  0  0  0
 73 74  1  0  0  0  0
 73 75  1  0  0  0  0
 73 76  1  0  0  0  0
 76 77  1  0  0  0  0
 76 78  1  0  0  0  0
 76 79  1  0  0  0  0
 79 80  1  0  0  0  0
 80 81  2  0  0  0  0
 80 82  1  0  0  0  0
 82 83  1  0  0  0  0
 82 84  1  0  0  0  0
 82 85  1  0  0  0  0
M  BCL ATM N_Tr2TrTrPi C_TrTrTrPi H_S N_Tr2TrTrPi C_TrTrTrPi C_TrTrTrPi C_TrTrTrPi N_TrTrTrPi2 H_S H_S N_Tr2TrTrPi C_TrTrTrPi H_S N_TrTrTrPi2 C_TeTeTeTe H_S C_TeTeTeTe H_S O_Te2Te2TeTe H_S C_TeTeTeTe H_S O_Tr2TrTrPi2 P_TeTeTeTePi O_Te2Te2TeTe O_Tr2Tr2TrPi O_Te2Te2Te2Te C_TeTeTeTe H_S O_Te2Te2TeTe C_TeTeTeTe H_S H_S O_Tr2TrTrPi2 P_TeTeTeTePi O_Te2Te2TeTe O_Tr2Tr2TrPi O_Tr2TrTrPi2 P_TeTeTeTePi O_Tr2Tr2TrPi O_Te2Te2Te2Te O_Tr2TrTrPi2 C_TeTeTeTe C_TeTeTeTe H_S H_S C_TeTeTeTe H_S H_S H_S C_TeTeTeTe H_S H_S H_S C_TeTeTeTe H_S O_Te2Te2TeTe H_S C_TrTrTrPi O_Tr2Tr2TrPi N_TrTrTrPi2 H_S C_TeTeTeTe H_S H_S C_TeTeTeTe H_S H_S C_TrTrTrPi O_Tr2Tr2TrPi N_TrTrTrPi2 H_S C_TeTeTeTe H_S H_S C_TeTeTeTe H_S H_S S_Te2Te2TeTe C_TrTrTrPi O_Tr2Tr2TrPi C_TeTeTeTe H_S H_S H_S
M  BCL BND AromaticSingleBond AromaticDoubleBond NonConjugatedSingleBond AromaticDoubleBond AromaticSingleBond AromaticDoubleBond AromaticSingleBond AromaticSingleBond AromaticSingleBond ConjugatedSingleBond NonConjugatedSingleBond NonConjugatedSingleBond AromaticDoubleBond NonConjugatedSingleBond AromaticSingleBond NonConjugatedSingleBond NonConjugatedSingleBond NonConjugatedSingleBondInRing NonConjugatedSingleBondInRing NonConjugatedSingleBond NonConjugatedSingleBond NonConjugatedSingleBondInRing NonConjugatedSingleBond NonConjugatedSingleBond NonConjugatedSingleBond NonConjugatedSingleBondInRing ConjugatedSingleBond ConjugatedSingleBond ConjugatedDoubleBond ConjugatedSingleBond NonConjugatedSingleBond NonConjugatedSingleBondInRing NonConjugatedSingleBond NonConjugatedSingleBond NonConjugatedSingleBond NonConjugatedSingleBond ConjugatedSingleBond ConjugatedSingleBond ConjugatedDoubleBond ConjugatedSingleBond ConjugatedSingleBond ConjugatedDoubleBond ConjugatedSingleBond ConjugatedSingleBond NonConjugatedSingleBond NonConjugatedSingleBond NonConjugatedSingleBond NonConjugatedSingleBond NonConjugatedSingleBond NonConjugatedSingleBond NonConjugatedSingleBond NonConjugatedSingleBond NonConjugatedSingleBond NonConjugatedSingleBond NonConjugatedSingleBond NonConjugatedSingleBond NonConjugatedSingleBond NonConjugatedSingleBond NonConjugatedSingleBond NonConjugatedSingleBond NonConjugatedSingleBond ConjugatedDoubleBond AmideSingleBond NonConjugatedSingleBond NonConjugatedSingleBond NonConjugatedSingleBond NonConjugatedSingleBond NonConjugatedSingleBond NonConjugatedSingleBond NonConjugatedSingleBond NonConjugatedSingleBond ConjugatedDoubleBond AmideSingleBond NonConjugatedSingleBond NonConjugatedSingleBond NonConjugatedSingleBond NonConjugatedSingleBond NonConjugatedSingleBond NonConjugatedSingleBond NonConjugatedSingleBond NonConjugatedSingleBond ConjugatedSingleBond ConjugatedDoubleBond NonConjugatedSingleBond NonConjugatedSingleBond NonConjugatedSingleBond NonConjugatedSingleBond
M  BCL CHI  15   S  17   S  21   S  24   S  28   R  35   R  39   R  55   S
M  BCL DBI - - - - - - - - - -
M  END
> <ConfClashScore>
0 

> <ConfOneFourInteractionScore>
-0.970151 

> <ConfScore>
0.0154674 

> <ConfScorePBest>
0.0111845 

> <ConfTolerance>
2.37063 

$$$$
ACO.****
  PyMOL2.5          3D                             0

 85 87  0  0  0  0  0  0  0  0999 V2000
    4.8945    1.0767  -10.6428 N   0  0  0  1  0  0  0  0  0  0  0  0
    3.8476    1.9103  -10.5372 C   0  0  0  1  0  0  0  0  0  0  0  0
    3.8211    2.6887  -11.2264 H   0  0  0  1  0  0  0  0  0  0  0  0
    2.8415    1.8751   -9.6721 N   0  0  0  1  0  0  0  0  0  0  0  0
    2.9569    0.8433   -8.8348 C   0  0  0  1  0  0  0  0  0  0  0  0
    3.9858   -0.1079   -8.8147 C   0  0  0  1  0  0  0  0  0  0  0  0
    4.9777    0.0616   -9.7761 C   0  0  0  1  0  0  0  0  0  0  0  0
    6.0674   -0.7767   -9.8890 N   0  0  0  1  0  0  0  0  0  0  0  0
    6.1837   -1.5169   -9.2574 H   0  0  0  1  0  0  0  0  0  0  0  0
    6.7252   -0.6321  -10.6009 H   0  0  0  1  0  0  0  0  0  0  0  0
    3.7744   -1.0227   -7.7949 N   0  0  0  1  0  0  0  0  0  0  0  0
    2.6609   -0.6179   -7.2470 C   0  0  0  1  0  0  0  0  0  0  0  0
    2.2233   -1.1088   -6.4414 H   0  0  0  1  0  0  0  0  0  0  0  0
    2.1157    0.4953   -7.8096 N   0  0  0  1  0  0  0  0  0  0  0  0
    0.8773    1.1060   -7.3297 C   0  0  0  1  0  0  0  0  0  0  0  0
    0.9714    2.1715   -7.3552 H   0  0  0  1  0  0  0  0  0  0  0  0
   -0.3345    0.6368   -8.1738 C   0  0  0  1  0  0  0  0  0  0  0  0
   -0.2397   -0.3923   -8.4508 H   0  0  0  1  0  0  0  0  0  0  0  0
   -0.4877    1.4331   -9.3461 O   0  0  0  1  0  0  0  0  0  0  0  0
   -0.4220    0.8742  -10.1239 H   0  0  0  1  0  0  0  0  0  0  0  0
   -1.5158    0.8488   -7.1906 C   0  0  0  1  0  0  0  0  0  0  0  0
   -2.2172    0.0438   -7.2601 H   0  0  0  1  0  0  0  0  0  0  0  0
   -2.1803    2.0840   -7.4553 O   0  0  0  1  0  0  0  0  0  0  0  0
   -3.5930    2.3342   -8.2498 P   0  0  0  1  0  0  0  0  0  0  0  0
   -3.5891    3.9499   -8.5314 O   0  0  0  0  0  0  0  0  0  0  0  0
   -3.4827    1.6739   -9.5698 O   0  0  0  1  0  0  0  0  0  0  0  0
   -4.9036    1.9743   -7.3682 O   0  5  0  1  0  0  0  0  0  0  0  0
   -0.8468    0.8737   -5.8024 C   0  0  0  1  0  0  0  0  0  0  0  0
   -1.0031    1.8250   -5.3382 H   0  0  0  1  0  0  0  0  0  0  0  0
    0.5587    0.6481   -5.9985 O   0  0  0  1  0  0  0  0  0  0  0  0
   -1.4207   -0.2021   -4.9401 C   0  0  0  1  0  0  0  0  0  0  0  0
   -1.2975   -1.1535   -5.4139 H   0  0  0  1  0  0  0  0  0  0  0  0
   -2.4615   -0.0185   -4.7728 H   0  0  0  1  0  0  0  0  0  0  0  0
   -0.7082   -0.1827   -3.6808 O   0  0  0  1  0  0  0  0  0  0  0  0
   -1.4940    0.2895   -2.3572 P   0  0  0  1  0  0  0  0  0  0  0  0
   -2.6297   -0.6587   -2.2499 O   0  0  0  0  0  0  0  0  0  0  0  0
   -1.7413    1.7493   -2.3842 O   0  0  0  1  0  0  0  0  0  0  0  0
   -0.3845   -0.0877   -1.2626 O   0  0  0  1  0  0  0  0  0  0  0  0
   -0.3615    0.1645    0.3577 P   0  0  0  1  0  0  0  0  0  0  0  0
    0.5971   -0.7772    0.9780 O   0  0  0  1  0  0  0  0  0  0  0  0
    0.1475    1.6888    0.5621 O   0  5  0  1  0  0  0  0  0  0  0  0
   -1.8358    0.0693    0.8952 O   0  0  0  1  0  0  0  0  0  0  0  0
   -2.9563   -1.0612    2.6566 C   0  0  0  1  0  0  0  0  0  0  0  0
   -2.3120    0.2241    2.2528 C   0  0  0  1  0  0  0  0  0  0  0  0
   -3.0256    1.0200    2.3002 H   0  0  0  1  0  0  0  0  0  0  0  0
   -1.4914    0.4408    2.9043 H   0  0  0  1  0  0  0  0  0  0  0  0
   -4.1000   -1.3789    1.6894 C   0  0  0  1  0  0  0  0  0  0  0  0
   -3.7154   -1.4536    0.6937 H   0  0  0  1  0  0  0  0  0  0  0  0
   -4.8300   -0.5978    1.7318 H   0  0  0  1  0  0  0  0  0  0  0  0
   -4.5538   -2.3074    1.9668 H   0  0  0  1  0  0  0  0  0  0  0  0
   -3.4058   -1.0694    4.1356 C   0  0  0  1  0  0  0  0  0  0  0  0
   -3.8226   -2.0249    4.3770 H   0  0  0  1  0  0  0  0  0  0  0  0
   -4.1439   -0.3099    4.2880 H   0  0  0  1  0  0  0  0  0  0  0  0
   -2.5622   -0.8791    4.7656 H   0  0  0  1  0  0  0  0  0  0  0  0
   -1.9053   -2.1712    2.5137 C   0  0  0  1  0  0  0  0  0  0  0  0
   -1.4685   -2.0933    1.5401 H   0  0  0  1  0  0  0  0  0  0  0  0
   -0.9148   -1.9216    3.5038 O   0  0  0  1  0  0  0  0  0  0  0  0
   -0.0653   -2.2464    3.1963 H   0  0  0  1  0  0  0  0  0  0  0  0
   -2.5506   -3.5511    2.6441 C   0  0  0  1  0  0  0  0  0  0  0  0
   -3.5673   -3.6957    3.3027 O   0  0  0  1  0  0  0  0  0  0  0  0
   -1.9072   -4.5766    2.0897 N   0  0  0  1  0  0  0  0  0  0  0  0
   -1.0784   -4.4038    1.5962 H   0  0  0  1  0  0  0  0  0  0  0  0
   -2.3920   -5.9450    2.1912 C   0  0  0  1  0  0  0  0  0  0  0  0
   -1.9621   -6.5207    1.3983 H   0  0  0  1  0  0  0  0  0  0  0  0
   -3.4574   -5.9396    2.0916 H   0  0  0  1  0  0  0  0  0  0  0  0
   -2.0294   -6.5963    3.5194 C   0  0  0  1  0  0  0  0  0  0  0  0
   -2.2292   -5.8993    4.3062 H   0  0  0  1  0  0  0  0  0  0  0  0
   -0.9861   -6.8335    3.5087 H   0  0  0  1  0  0  0  0  0  0  0  0
   -2.8066   -7.8608    3.7892 C   0  0  0  1  0  0  0  0  0  0  0  0
   -3.3235   -8.4984    2.8756 O   0  0  0  1  0  0  0  0  0  0  0  0
   -2.8896   -8.2288    5.0709 N   0  0  0  1  0  0  0  0  0  0  0  0
   -2.4000   -7.7277    5.7561 H   0  0  0  1  0  0  0  0  0  0  0  0
   -3.7048   -9.3713    5.4512 C   0  0  0  1  0  0  0  0  0  0  0  0
   -3.3012   -9.7978    6.3457 H   0  0  0  1  0  0  0  0  0  0  0  0
   -3.6701  -10.0946    4.6635 H   0  0  0  1  0  0  0  0  0  0  0  0
   -5.1475   -8.9964    5.7015 C   0  0  0  1  0  0  0  0  0  0  0  0
   -5.6849   -9.8790    5.9790 H   0  0  0  1  0  0  0  0  0  0  0  0
   -5.5572   -8.5984    4.7967 H   0  0  0  1  0  0  0  0  0  0  0  0
   -5.3469   -7.7663    7.0123 S   0  0  0  1  0  0  0  0  0  0  0  0
   -7.0838   -7.3983    6.9227 C   0  0  0  1  0  0  0  0  0  0  0  0
   -7.8442   -7.9632    6.1839 O   0  0  0  1  0  0  0  0  0  0  0  0
   -7.4867   -6.2994    7.8786 C   0  0  0  1  0  0  0  0  0  0  0  0
   -8.2308   -5.6822    7.4200 H   0  0  0  1  0  0  0  0  0  0  0  0
   -6.6302   -5.7053    8.1201 H   0  0  0  1  0  0  0  0  0  0  0  0
   -7.8845   -6.7326    8.7724 H   0  0  0  1  0  0  0  0  0  0  0  0
  1  2  1  0  0  0  0
  1  7  2  0  0  0  0
  2  3  1  0  0  0  0
  2  4  2  0  0  0  0
  4  5  1  0  0  0  0
  5  6  2  0  0  0  0
  5 14  1  0  0  0  0
  6  7  1  0  0  0  0
  6 11  1  0  0  0  0
  7  8  1  0  0  0  0
  8  9  1  0  0  0  0
  8 10  1  0  0  0  0
 11 12  2  0  0  0  0
 12 13  1  0  0  0  0
 12 14  1  0  0  0  0
 14 15  1  0  0  0  0
 15 16  1  0  0  0  0
 15 17  1  0  0  0  0
 15 30  1  0  0  0  0
 17 18  1  0  0  0  0
 17 19  1  0  0  0  0
 17 21  1  0  0  0  0
 19 20  1  0  0  0  0
 21 22  1  0  0  0  0
 21 23  1  0  0  0  0
 21 28  1  0  0  0  0
 23 24  1  0  0  0  0
 24 25  1  0  0  0  0
 24 26  2  0  0  0  0
 24 27  1  0  0  0  0
 28 29  1  0  0  0  0
 28 30  1  0  0  0  0
 28 31  1  0  0  0  0
 31 32  1  0  0  0  0
 31 33  1  0  0  0  0
 31 34  1  0  0  0  0
 34 35  1  0  0  0  0
 35 36  1  0  0  0  0
 35 37  2  0  0  0  0
 35 38  1  0  0  0  0
 38 39  1  0  0  0  0
 39 40  2  0  0  0  0
 39 41  1  0  0  0  0
 39 42  1  0  0  0  0
 42 44  1  0  0  0  0
 43 44  1  0  0  0  0
 43 47  1  0  0  0  0
 43 51  1  0  0  0  0
 43 55  1  0  0  0  0
 44 45  1  0  0  0  0
 44 46  1  0  0  0  0
 47 48  1  0  0  0  0
 47 49  1  0  0  0  0
 47 50  1  0  0  0  0
 51 52  1  0  0  0  0
 51 53  1  0  0  0  0
 51 54  1  0  0  0  0
 55 56  1  0  0  0  0
 55 57  1  0  0  0  0
 55 59  1  0  0  0  0
 57 58  1  0  0  0  0
 59 60  2  0  0  0  0
 59 61  1  0  0  0  0
 61 62  1  0  0  0  0
 61 63  1  0  0  0  0
 63 64  1  0  0  0  0
 63 65  1  0  0  0  0
 63 66  1  0  0  0  0
 66 67  1  0  0  0  0
 66 68  1  0  0  0  0
 66 69  1  0  0  0  0
 69 70  2  0  0  0  0
 69 71  1  0  0  0  0
 71 72  1  0  0  0  0
 71 73  1  0  0  0  0
 73 74  1  0  0  0  0
 73 75  1  0  0  0  0
 73 76  1  0  0  0  0
 76 77  1  0  0  0  0
 76 78  1  0  0  0  0
 76 79  1  0  0  0  0
 79 80  1  0  0  0  0
 80 81  2  0  0  0  0
 80 82  1  0  0  0  0
 82 83  1  0  0  0  0
 82 84  1  0  0  0  0
 82 85  1  0  0  0  0
M  BCL ATM N_Tr2TrTrPi C_TrTrTrPi H_S N_Tr2TrTrPi C_TrTrTrPi C_TrTrTrPi C_TrTrTrPi N_TrTrTrPi2 H_S H_S N_Tr2TrTrPi C_TrTrTrPi H_S N_TrTrTrPi2 C_TeTeTeTe H_S C_TeTeTeTe H_S O_Te2Te2TeTe H_S C_TeTeTeTe H_S O_Tr2TrTrPi2 P_TeTeTeTePi O_Te2Te2TeTe O_Tr2Tr2TrPi O_Te2Te2Te2Te C_TeTeTeTe H_S O_Te2Te2TeTe C_TeTeTeTe H_S H_S O_Tr2TrTrPi2 P_TeTeTeTePi O_Te2Te2TeTe O_Tr2Tr2TrPi O_Tr2TrTrPi2 P_TeTeTeTePi O_Tr2Tr2TrPi O_Te2Te2Te2Te O_Tr2TrTrPi2 C_TeTeTeTe C_TeTeTeTe H_S H_S C_TeTeTeTe H_S H_S H_S C_TeTeTeTe H_S H_S H_S C_TeTeTeTe H_S O_Te2Te2TeTe H_S C_TrTrTrPi O_Tr2Tr2TrPi N_TrTrTrPi2 H_S C_TeTeTeTe H_S H_S C_TeTeTeTe H_S H_S C_TrTrTrPi O_Tr2Tr2TrPi N_TrTrTrPi2 H_S C_TeTeTeTe H_S H_S C_TeTeTeTe H_S H_S S_Te2Te2TeTe C_TrTrTrPi O_Tr2Tr2TrPi C_TeTeTeTe H_S H_S H_S
M  BCL BND AromaticSingleBond AromaticDoubleBond NonConjugatedSingleBond AromaticDoubleBond AromaticSingleBond AromaticDoubleBond AromaticSingleBond AromaticSingleBond AromaticSingleBond ConjugatedSingleBond NonConjugatedSingleBond NonConjugatedSingleBond AromaticDoubleBond NonConjugatedSingleBond AromaticSingleBond NonConjugatedSingleBond NonConjugatedSingleBond NonConjugatedSingleBondInRing NonConjugatedSingleBondInRing NonConjugatedSingleBond NonConjugatedSingleBond NonConjugatedSingleBondInRing NonConjugatedSingleBond NonConjugatedSingleBond NonConjugatedSingleBond NonConjugatedSingleBondInRing ConjugatedSingleBond ConjugatedSingleBond ConjugatedDoubleBond ConjugatedSingleBond NonConjugatedSingleBond NonConjugatedSingleBondInRing NonConjugatedSingleBond NonConjugatedSingleBond NonConjugatedSingleBond NonConjugatedSingleBond ConjugatedSingleBond ConjugatedSingleBond ConjugatedDoubleBond ConjugatedSingleBond ConjugatedSingleBond ConjugatedDoubleBond ConjugatedSingleBond ConjugatedSingleBond NonConjugatedSingleBond NonConjugatedSingleBond NonConjugatedSingleBond NonConjugatedSingleBond NonConjugatedSingleBond NonConjugatedSingleBond NonConjugatedSingleBond NonConjugatedSingleBond NonConjugatedSingleBond NonConjugatedSingleBond NonConjugatedSingleBond NonConjugatedSingleBond NonConjugatedSingleBond NonConjugatedSingleBond NonConjugatedSingleBond NonConjugatedSingleBond NonConjugatedSingleBond ConjugatedDoubleBond AmideSingleBond NonConjugatedSingleBond NonConjugatedSingleBond NonConjugatedSingleBond NonConjugatedSingleBond NonConjugatedSingleBond NonConjugatedSingleBond NonConjugatedSingleBond NonConjugatedSingleBond ConjugatedDoubleBond AmideSingleBond NonConjugatedSingleBond NonConjugatedSingleBond NonConjugatedSingleBond NonConjugatedSingleBond NonConjugatedSingleBond NonConjugatedSingleBond NonConjugatedSingleBond NonConjugatedSingleBond ConjugatedSingleBond ConjugatedDoubleBond NonConjugatedSingleBond NonConjugatedSingleBond NonConjugatedSingleBond NonConjugatedSingleBond
M  BCL CHI  15   S  17   S  21   S  24   S  28   R  35   R  39   R  55   S
M  BCL DBI - - - - - - - - - -
M  END
> <ConfClashScore>
0 

> <ConfOneFourInteractionScore>
-0.982969 

> <ConfScore>
0.0168758 

> <ConfScorePBest>
0.0110815 

> <ConfTolerance>
2.43161 

$$$$
ACO.****
  PyMOL2.5          3D                             0

 85 87  0  0  0  0  0  0  0  0999 V2000
    4.8880    1.0736  -10.6414 N   0  0  0  1  0  0  0  0  0  0  0  0
    3.8390    1.9041  -10.5324 C   0  0  0  1  0  0  0  0  0  0  0  0
    3.8080    2.6825  -11.2214 H   0  0  0  1  0  0  0  0  0  0  0  0
    2.8359    1.8660   -9.6639 N   0  0  0  1  0  0  0  0  0  0  0  0
    2.9570    0.8346   -8.8270 C   0  0  0  1  0  0  0  0  0  0  0  0
    3.9887   -0.1136   -8.8103 C   0  0  0  1  0  0  0  0  0  0  0  0
    4.9771    0.0588   -9.7749 C   0  0  0  1  0  0  0  0  0  0  0  0
    6.0613   -0.7707   -9.8906 N   0  0  0  1  0  0  0  0  0  0  0  0
    6.1519   -1.5445   -9.2962 H   0  0  0  1  0  0  0  0  0  0  0  0
    6.7462   -0.5902  -10.5679 H   0  0  0  1  0  0  0  0  0  0  0  0
    3.7834   -1.0290   -7.7898 N   0  0  0  1  0  0  0  0  0  0  0  0
    2.6706   -0.6275   -7.2383 C   0  0  0  1  0  0  0  0  0  0  0  0
    2.2370   -1.1197   -6.4312 H   0  0  0  1  0  0  0  0  0  0  0  0
    2.1202    0.4841   -7.7990 N   0  0  0  1  0  0  0  0  0  0  0  0
    0.8887    1.1656   -7.3898 C   0  0  0  1  0  0  0  0  0  0  0  0
    0.9280    2.1896   -7.6976 H   0  0  0  1  0  0  0  0  0  0  0  0
   -0.3575    0.4580   -7.9787 C   0  0  0  1  0  0  0  0  0  0  0  0
   -0.2329   -0.6047   -7.9874 H   0  0  0  1  0  0  0  0  0  0  0  0
   -0.6344    0.9124   -9.2920 O   0  0  0  1  0  0  0  0  0  0  0  0
   -0.1936    0.3437   -9.9275 H   0  0  0  1  0  0  0  0  0  0  0  0
   -1.4720    0.8863   -6.9880 C   0  0  0  1  0  0  0  0  0  0  0  0
   -2.1362    0.0717   -6.7878 H   0  0  0  1  0  0  0  0  0  0  0  0
   -2.2250    2.0060   -7.5136 O   0  0  0  1  0  0  0  0  0  0  0  0
   -3.7672    2.2835   -7.0295 P   0  0  0  1  0  0  0  0  0  0  0  0
   -3.7033    3.4028   -5.8325 O   0  0  0  0  0  0  0  0  0  0  0  0
   -4.6220    2.8725   -8.0844 O   0  0  0  1  0  0  0  0  0  0  0  0
   -4.3104    0.8876   -6.4125 O   0  5  0  1  0  0  0  0  0  0  0  0
   -0.7043    1.2923   -5.7147 C   0  0  0  1  0  0  0  0  0  0  0  0
   -0.8725    2.3271   -5.5007 H   0  0  0  1  0  0  0  0  0  0  0  0
    0.6922    1.0631   -5.9635 O   0  0  0  1  0  0  0  0  0  0  0  0
   -1.1539    0.4736   -4.5723 C   0  0  0  1  0  0  0  0  0  0  0  0
   -0.5718    0.7226   -3.7097 H   0  0  0  1  0  0  0  0  0  0  0  0
   -1.0203   -0.5618   -4.8066 H   0  0  0  1  0  0  0  0  0  0  0  0
   -2.5515    0.7222   -4.2918 O   0  0  0  1  0  0  0  0  0  0  0  0
   -3.2099    0.2141   -2.9525 P   0  0  0  1  0  0  0  0  0  0  0  0
   -2.3606    0.7558   -1.8469 O   0  0  0  0  0  0  0  0  0  0  0  0
   -3.3934   -1.2533   -2.9509 O   0  0  0  1  0  0  0  0  0  0  0  0
   -4.6705    0.8671   -2.8688 O   0  0  0  1  0  0  0  0  0  0  0  0
   -6.1089    0.8965   -3.6560 P   0  0  0  1  0  0  0  0  0  0  0  0
   -6.3478   -0.3811   -4.3638 O   0  0  0  1  0  0  0  0  0  0  0  0
   -7.1806    1.0943   -2.4573 O   0  5  0  1  0  0  0  0  0  0  0  0
   -6.1382    2.2355   -4.4820 O   0  0  0  1  0  0  0  0  0  0  0  0
   -7.4287    4.1470   -5.0450 C   0  0  0  1  0  0  0  0  0  0  0  0
   -7.3421    2.6609   -5.1629 C   0  0  0  1  0  0  0  0  0  0  0  0
   -8.1978    2.2086   -4.7068 H   0  0  0  1  0  0  0  0  0  0  0  0
   -7.2963    2.3792   -6.1942 H   0  0  0  1  0  0  0  0  0  0  0  0
   -6.0872    4.7630   -5.4518 C   0  0  0  1  0  0  0  0  0  0  0  0
   -6.2565    5.7089   -5.9225 H   0  0  0  1  0  0  0  0  0  0  0  0
   -5.5874    4.1090   -6.1355 H   0  0  0  1  0  0  0  0  0  0  0  0
   -5.4801    4.9016   -4.5816 H   0  0  0  1  0  0  0  0  0  0  0  0
   -7.7031    4.5072   -3.5750 C   0  0  0  1  0  0  0  0  0  0  0  0
   -6.8992    4.1525   -2.9644 H   0  0  0  1  0  0  0  0  0  0  0  0
   -8.6180    4.0499   -3.2608 H   0  0  0  1  0  0  0  0  0  0  0  0
   -7.7830    5.5697   -3.4774 H   0  0  0  1  0  0  0  0  0  0  0  0
   -8.5622    4.6872   -5.9238 C   0  0  0  1  0  0  0  0  0  0  0  0
   -8.5825    5.7470   -5.7776 H   0  0  0  1  0  0  0  0  0  0  0  0
   -8.3203    4.4409   -7.2986 O   0  0  0  1  0  0  0  0  0  0  0  0
   -8.3927    3.4997   -7.4731 H   0  0  0  1  0  0  0  0  0  0  0  0
   -9.9150    4.1604   -5.4860 C   0  0  0  1  0  0  0  0  0  0  0  0
  -10.2951    4.2731   -4.3323 O   0  0  0  1  0  0  0  0  0  0  0  0
  -10.6493    3.5720   -6.4434 N   0  0  0  1  0  0  0  0  0  0  0  0
  -10.3303    3.5660   -7.3700 H   0  0  0  1  0  0  0  0  0  0  0  0
  -11.9182    2.9430   -6.1082 C   0  0  0  1  0  0  0  0  0  0  0  0
  -12.3845    2.6477   -7.0249 H   0  0  0  1  0  0  0  0  0  0  0  0
  -12.5238    3.6776   -5.6199 H   0  0  0  1  0  0  0  0  0  0  0  0
  -11.8630    1.7181   -5.2048 C   0  0  0  1  0  0  0  0  0  0  0  0
  -11.1473    1.0311   -5.6058 H   0  0  0  1  0  0  0  0  0  0  0  0
  -12.8299    1.2600   -5.1928 H   0  0  0  1  0  0  0  0  0  0  0  0
  -11.4680    2.0490   -3.7788 C   0  0  0  1  0  0  0  0  0  0  0  0
  -11.9215    3.0376   -3.2037 O   0  0  0  1  0  0  0  0  0  0  0  0
  -10.6089    1.2053   -3.2048 N   0  0  0  1  0  0  0  0  0  0  0  0
  -10.3519    0.4064   -3.7108 H   0  0  0  1  0  0  0  0  0  0  0  0
  -10.0231    1.3824   -1.8808 C   0  0  0  1  0  0  0  0  0  0  0  0
   -9.7422    2.4083   -1.7645 H   0  0  0  1  0  0  0  0  0  0  0  0
   -9.1537    0.7632   -1.8049 H   0  0  0  1  0  0  0  0  0  0  0  0
  -10.9768    1.0140   -0.7724 C   0  0  0  1  0  0  0  0  0  0  0  0
  -11.1377   -0.0438   -0.7588 H   0  0  0  1  0  0  0  0  0  0  0  0
  -11.9122    1.5158   -0.9069 H   0  0  0  1  0  0  0  0  0  0  0  0
  -10.1958    1.5484    0.7700 S   0  0  0  1  0  0  0  0  0  0  0  0
  -11.3614    0.9185    1.9354 C   0  0  0  1  0  0  0  0  0  0  0  0
  -12.2580    0.1552    1.6745 O   0  0  0  1  0  0  0  0  0  0  0  0
  -11.1311    1.4394    3.3495 C   0  0  0  1  0  0  0  0  0  0  0  0
  -10.5739    2.3519    3.3077 H   0  0  0  1  0  0  0  0  0  0  0  0
  -10.5832    0.7127    3.9122 H   0  0  0  1  0  0  0  0  0  0  0  0
  -12.0745    1.6192    3.8212 H   0  0  0  1  0  0  0  0  0  0  0  0
  1  2  1  0  0  0  0
  1  7  2  0  0  0  0
  2  3  1  0  0  0  0
  2  4  2  0  0  0  0
  4  5  1  0  0  0  0
  5  6  2  0  0  0  0
  5 14  1  0  0  0  0
  6  7  1  0  0  0  0
  6 11  1  0  0  0  0
  7  8  1  0  0  0  0
  8  9  1  0  0  0  0
  8 10  1  0  0  0  0
 11 12  2  0  0  0  0
 12 13  1  0  0  0  0
 12 14  1  0  0  0  0
 14 15  1  0  0  0  0
 15 16  1  0  0  0  0
 15 17  1  0  0  0  0
 15 30  1  0  0  0  0
 17 18  1  0  0  0  0
 17 19  1  0  0  0  0
 17 21  1  0  0  0  0
 19 20  1  0  0  0  0
 21 22  1  0  0  0  0
 21 23  1  0  0  0  0
 21 28  1  0  0  0  0
 23 24  1  0  0  0  0
 24 25  1  0  0  0  0
 24 26  2  0  0  0  0
 24 27  1  0  0  0  0
 28 29  1  0  0  0  0
 28 30  1  0  0  0  0
 28 31  1  0  0  0  0
 31 32  1  0  0  0  0
 31 33  1  0  0  0  0
 31 34  1  0  0  0  0
 34 35  1  0  0  0  0
 35 36  1  0  0  0  0
 35 37  2  0  0  0  0
 35 38  1  0  0  0  0
 38 39  1  0  0  0  0
 39 40  2  0  0  0  0
 39 41  1  0  0  0  0
 39 42  1  0  0  0  0
 42 44  1  0  0  0  0
 43 44  1  0  0  0  0
 43 47  1  0  0  0  0
 43 51  1  0  0  0  0
 43 55  1  0  0  0  0
 44 45  1  0  0  0  0
 44 46  1  0  0  0  0
 47 48  1  0  0  0  0
 47 49  1  0  0  0  0
 47 50  1  0  0  0  0
 51 52  1  0  0  0  0
 51 53  1  0  0  0  0
 51 54  1  0  0  0  0
 55 56  1  0  0  0  0
 55 57  1  0  0  0  0
 55 59  1  0  0  0  0
 57 58  1  0  0  0  0
 59 60  2  0  0  0  0
 59 61  1  0  0  0  0
 61 62  1  0  0  0  0
 61 63  1  0  0  0  0
 63 64  1  0  0  0  0
 63 65  1  0  0  0  0
 63 66  1  0  0  0  0
 66 67  1  0  0  0  0
 66 68  1  0  0  0  0
 66 69  1  0  0  0  0
 69 70  2  0  0  0  0
 69 71  1  0  0  0  0
 71 72  1  0  0  0  0
 71 73  1  0  0  0  0
 73 74  1  0  0  0  0
 73 75  1  0  0  0  0
 73 76  1  0  0  0  0
 76 77  1  0  0  0  0
 76 78  1  0  0  0  0
 76 79  1  0  0  0  0
 79 80  1  0  0  0  0
 80 81  2  0  0  0  0
 80 82  1  0  0  0  0
 82 83  1  0  0  0  0
 82 84  1  0  0  0  0
 82 85  1  0  0  0  0
M  BCL ATM N_Tr2TrTrPi C_TrTrTrPi H_S N_Tr2TrTrPi C_TrTrTrPi C_TrTrTrPi C_TrTrTrPi N_TrTrTrPi2 H_S H_S N_Tr2TrTrPi C_TrTrTrPi H_S N_TrTrTrPi2 C_TeTeTeTe H_S C_TeTeTeTe H_S O_Te2Te2TeTe H_S C_TeTeTeTe H_S O_Tr2TrTrPi2 P_TeTeTeTePi O_Te2Te2TeTe O_Tr2Tr2TrPi O_Te2Te2Te2Te C_TeTeTeTe H_S O_Te2Te2TeTe C_TeTeTeTe H_S H_S O_Tr2TrTrPi2 P_TeTeTeTePi O_Te2Te2TeTe O_Tr2Tr2TrPi O_Tr2TrTrPi2 P_TeTeTeTePi O_Tr2Tr2TrPi O_Te2Te2Te2Te O_Tr2TrTrPi2 C_TeTeTeTe C_TeTeTeTe H_S H_S C_TeTeTeTe H_S H_S H_S C_TeTeTeTe H_S H_S H_S C_TeTeTeTe H_S O_Te2Te2TeTe H_S C_TrTrTrPi O_Tr2Tr2TrPi N_TrTrTrPi2 H_S C_TeTeTeTe H_S H_S C_TeTeTeTe H_S H_S C_TrTrTrPi O_Tr2Tr2TrPi N_TrTrTrPi2 H_S C_TeTeTeTe H_S H_S C_TeTeTeTe H_S H_S S_Te2Te2TeTe C_TrTrTrPi O_Tr2Tr2TrPi C_TeTeTeTe H_S H_S H_S
M  BCL BND AromaticSingleBond AromaticDoubleBond NonConjugatedSingleBond AromaticDoubleBond AromaticSingleBond AromaticDoubleBond AromaticSingleBond AromaticSingleBond AromaticSingleBond ConjugatedSingleBond NonConjugatedSingleBond NonConjugatedSingleBond AromaticDoubleBond NonConjugatedSingleBond AromaticSingleBond NonConjugatedSingleBond NonConjugatedSingleBond NonConjugatedSingleBondInRing NonConjugatedSingleBondInRing NonConjugatedSingleBond NonConjugatedSingleBond NonConjugatedSingleBondInRing NonConjugatedSingleBond NonConjugatedSingleBond NonConjugatedSingleBond NonConjugatedSingleBondInRing ConjugatedSingleBond ConjugatedSingleBond ConjugatedDoubleBond ConjugatedSingleBond NonConjugatedSingleBond NonConjugatedSingleBondInRing NonConjugatedSingleBond NonConjugatedSingleBond NonConjugatedSingleBond NonConjugatedSingleBond ConjugatedSingleBond ConjugatedSingleBond ConjugatedDoubleBond ConjugatedSingleBond ConjugatedSingleBond ConjugatedDoubleBond ConjugatedSingleBond ConjugatedSingleBond NonConjugatedSingleBond NonConjugatedSingleBond NonConjugatedSingleBond NonConjugatedSingleBond NonConjugatedSingleBond NonConjugatedSingleBond NonConjugatedSingleBond NonConjugatedSingleBond NonConjugatedSingleBond NonConjugatedSingleBond NonConjugatedSingleBond NonConjugatedSingleBond NonConjugatedSingleBond NonConjugatedSingleBond NonConjugatedSingleBond NonConjugatedSingleBond NonConjugatedSingleBond ConjugatedDoubleBond AmideSingleBond NonConjugatedSingleBond NonConjugatedSingleBond NonConjugatedSingleBond NonConjugatedSingleBond NonConjugatedSingleBond NonConjugatedSingleBond NonConjugatedSingleBond NonConjugatedSingleBond ConjugatedDoubleBond AmideSingleBond NonConjugatedSingleBond NonConjugatedSingleBond NonConjugatedSingleBond NonConjugatedSingleBond NonConjugatedSingleBond NonConjugatedSingleBond NonConjugatedSingleBond NonConjugatedSingleBond ConjugatedSingleBond ConjugatedDoubleBond NonConjugatedSingleBond NonConjugatedSingleBond NonConjugatedSingleBond NonConjugatedSingleBond
M  BCL CHI  15   S  17   S  21   S  24   S  28   R  35   R  39   R  55   S
M  BCL DBI - - - - - - - - - -
M  END
> <ConfClashScore>
0 

> <ConfOneFourInteractionScore>
-0.982728 

> <ConfScore>
0.0216766 

> <ConfScorePBest>
0.0109785 

> <ConfTolerance>
2.62026 

$$$$
ACO.****
  PyMOL2.5          3D                             0

 85 87  0  0  0  0  0  0  0  0999 V2000
    4.8872    1.0952  -10.6498 N   0  0  0  1  0  0  0  0  0  0  0  0
    3.8352    1.9208  -10.5323 C   0  0  0  1  0  0  0  0  0  0  0  0
    3.7994    2.7038  -11.2158 H   0  0  0  1  0  0  0  0  0  0  0  0
    2.8345    1.8727   -9.6615 N   0  0  0  1  0  0  0  0  0  0  0  0
    2.9619    0.8360   -8.8321 C   0  0  0  1  0  0  0  0  0  0  0  0
    3.9974   -0.1082   -8.8247 C   0  0  0  1  0  0  0  0  0  0  0  0
    4.9825    0.0747   -9.7906 C   0  0  0  1  0  0  0  0  0  0  0  0
    6.0455   -0.7770   -9.8703 N   0  0  0  1  0  0  0  0  0  0  0  0
    6.7610   -0.6084  -10.5184 H   0  0  0  1  0  0  0  0  0  0  0  0
    6.0935   -1.5573   -9.2794 H   0  0  0  1  0  0  0  0  0  0  0  0
    3.7983   -1.0315   -7.8100 N   0  0  0  1  0  0  0  0  0  0  0  0
    2.6853   -0.6382   -7.2528 C   0  0  0  1  0  0  0  0  0  0  0  0
    2.2559   -1.1377   -6.4481 H   0  0  0  1  0  0  0  0  0  0  0  0
    2.1292    0.4750   -7.8044 N   0  0  0  1  0  0  0  0  0  0  0  0
    0.8864    1.1542   -7.3839 C   0  0  0  1  0  0  0  0  0  0  0  0
    0.5885    1.8528   -8.1377 H   0  0  0  1  0  0  0  0  0  0  0  0
   -0.2228    0.1354   -7.1259 C   0  0  0  1  0  0  0  0  0  0  0  0
   -0.1137   -0.7271   -7.7498 H   0  0  0  1  0  0  0  0  0  0  0  0
   -1.5159    0.7097   -7.3279 O   0  0  0  1  0  0  0  0  0  0  0  0
   -1.9652    0.2458   -8.0381 H   0  0  0  1  0  0  0  0  0  0  0  0
    0.0084   -0.2023   -5.6755 C   0  0  0  1  0  0  0  0  0  0  0  0
    0.8037   -0.9095   -5.5647 H   0  0  0  1  0  0  0  0  0  0  0  0
   -1.1958   -0.7275   -5.0604 O   0  0  0  1  0  0  0  0  0  0  0  0
   -1.8647   -2.1644   -5.4816 P   0  0  0  1  0  0  0  0  0  0  0  0
   -2.2238   -2.0434   -7.0772 O   0  0  0  0  0  0  0  0  0  0  0  0
   -0.7861   -3.1502   -5.2464 O   0  0  0  1  0  0  0  0  0  0  0  0
   -3.2249   -2.3606   -4.6238 O   0  5  0  1  0  0  0  0  0  0  0  0
    0.3845    1.1444   -5.0847 C   0  0  0  1  0  0  0  0  0  0  0  0
   -0.4934    1.6866   -4.8016 H   0  0  0  1  0  0  0  0  0  0  0  0
    1.0766    1.8266   -6.1093 O   0  0  0  1  0  0  0  0  0  0  0  0
    1.2648    0.9632   -3.8920 C   0  0  0  1  0  0  0  0  0  0  0  0
    1.3801    1.8952   -3.3793 H   0  0  0  1  0  0  0  0  0  0  0  0
    2.2245    0.6031   -4.1988 H   0  0  0  1  0  0  0  0  0  0  0  0
    0.6298   -0.0054   -3.0192 O   0  0  0  1  0  0  0  0  0  0  0  0
    1.3816   -1.3955   -2.6282 P   0  0  0  1  0  0  0  0  0  0  0  0
    2.6384   -1.1041   -1.8949 O   0  0  0  0  0  0  0  0  0  0  0  0
    1.4039   -2.3212   -3.7750 O   0  0  0  1  0  0  0  0  0  0  0  0
    0.2211   -1.8087   -1.5968 O   0  0  0  1  0  0  0  0  0  0  0  0
    0.2378   -2.1675    0.0034 P   0  0  0  1  0  0  0  0  0  0  0  0
    0.7274   -3.4907    0.4503 O   0  0  0  1  0  0  0  0  0  0  0  0
    1.0154   -0.9489    0.7347 O   0  5  0  1  0  0  0  0  0  0  0  0
   -1.2430   -2.1163    0.5333 O   0  0  0  1  0  0  0  0  0  0  0  0
   -3.4093   -2.1578   -0.4998 C   0  0  0  1  0  0  0  0  0  0  0  0
   -2.2650   -2.9668   -0.0377 C   0  0  0  1  0  0  0  0  0  0  0  0
   -2.6009   -3.6607    0.7043 H   0  0  0  1  0  0  0  0  0  0  0  0
   -1.8542   -3.5025   -0.8679 H   0  0  0  1  0  0  0  0  0  0  0  0
   -4.4582   -3.0659   -1.1556 C   0  0  0  1  0  0  0  0  0  0  0  0
   -5.0011   -2.5109   -1.8919 H   0  0  0  1  0  0  0  0  0  0  0  0
   -5.1354   -3.4251   -0.4091 H   0  0  0  1  0  0  0  0  0  0  0  0
   -3.9695   -3.8951   -1.6232 H   0  0  0  1  0  0  0  0  0  0  0  0
   -2.9226   -1.1232   -1.5147 C   0  0  0  1  0  0  0  0  0  0  0  0
   -2.3906   -1.6169   -2.3009 H   0  0  0  1  0  0  0  0  0  0  0  0
   -2.2735   -0.4251   -1.0287 H   0  0  0  1  0  0  0  0  0  0  0  0
   -3.7632   -0.6035   -1.9249 H   0  0  0  1  0  0  0  0  0  0  0  0
   -4.0352   -1.4372    0.6900 C   0  0  0  1  0  0  0  0  0  0  0  0
   -3.2515   -0.9349    1.2176 H   0  0  0  1  0  0  0  0  0  0  0  0
   -4.9647   -0.4795    0.2124 O   0  0  0  1  0  0  0  0  0  0  0  0
   -4.5493    0.0609   -0.4636 H   0  0  0  1  0  0  0  0  0  0  0  0
   -4.6341   -2.4779    1.6239 C   0  0  0  1  0  0  0  0  0  0  0  0
   -5.7970   -2.8605    1.5022 O   0  0  0  1  0  0  0  0  0  0  0  0
   -3.7800   -2.9158    2.5625 N   0  0  0  1  0  0  0  0  0  0  0  0
   -2.8900   -2.5066    2.5915 H   0  0  0  1  0  0  0  0  0  0  0  0
   -4.0762   -3.9523    3.5401 C   0  0  0  1  0  0  0  0  0  0  0  0
   -5.1368   -4.0076    3.6705 H   0  0  0  1  0  0  0  0  0  0  0  0
   -3.6153   -3.6890    4.4692 H   0  0  0  1  0  0  0  0  0  0  0  0
   -3.5661   -5.3190    3.1135 C   0  0  0  1  0  0  0  0  0  0  0  0
   -2.5029   -5.2771    3.0005 H   0  0  0  1  0  0  0  0  0  0  0  0
   -4.0143   -5.5847    2.1789 H   0  0  0  1  0  0  0  0  0  0  0  0
   -3.9132   -6.3650    4.1437 C   0  0  0  1  0  0  0  0  0  0  0  0
   -4.6754   -6.1059    5.0740 O   0  0  0  1  0  0  0  0  0  0  0  0
   -3.3664   -7.5835    4.0145 N   0  0  0  1  0  0  0  0  0  0  0  0
   -2.7312   -7.7419    3.2852 H   0  0  0  1  0  0  0  0  0  0  0  0
   -3.6838   -8.6780    4.9196 C   0  0  0  1  0  0  0  0  0  0  0  0
   -4.7423   -8.8345    4.9103 H   0  0  0  1  0  0  0  0  0  0  0  0
   -3.3713   -8.4082    5.9067 H   0  0  0  1  0  0  0  0  0  0  0  0
   -2.9999   -9.9686    4.5308 C   0  0  0  1  0  0  0  0  0  0  0  0
   -1.9473   -9.7953    4.4487 H   0  0  0  1  0  0  0  0  0  0  0  0
   -3.3827  -10.2963    3.5868 H   0  0  0  1  0  0  0  0  0  0  0  0
   -3.2918  -11.2572    5.7659 S   0  0  0  1  0  0  0  0  0  0  0  0
   -5.0408  -11.4946    5.5537 C   0  0  0  1  0  0  0  0  0  0  0  0
   -5.7013  -10.8831    4.7579 O   0  0  0  1  0  0  0  0  0  0  0  0
   -5.5933  -12.5480    6.4855 C   0  0  0  1  0  0  0  0  0  0  0  0
   -4.8096  -12.9145    7.1152 H   0  0  0  1  0  0  0  0  0  0  0  0
   -5.9963  -13.3559    5.9112 H   0  0  0  1  0  0  0  0  0  0  0  0
   -6.3654  -12.1197    7.0900 H   0  0  0  1  0  0  0  0  0  0  0  0
  1  2  1  0  0  0  0
  1  7  2  0  0  0  0
  2  3  1  0  0  0  0
  2  4  2  0  0  0  0
  4  5  1  0  0  0  0
  5  6  2  0  0  0  0
  5 14  1  0  0  0  0
  6  7  1  0  0  0  0
  6 11  1  0  0  0  0
  7  8  1  0  0  0  0
  8  9  1  0  0  0  0
  8 10  1  0  0  0  0
 11 12  2  0  0  0  0
 12 13  1  0  0  0  0
 12 14  1  0  0  0  0
 14 15  1  0  0  0  0
 15 16  1  0  0  0  0
 15 17  1  0  0  0  0
 15 30  1  0  0  0  0
 17 18  1  0  0  0  0
 17 19  1  0  0  0  0
 17 21  1  0  0  0  0
 19 20  1  0  0  0  0
 21 22  1  0  0  0  0
 21 23  1  0  0  0  0
 21 28  1  0  0  0  0
 23 24  1  0  0  0  0
 24 25  1  0  0  0  0
 24 26  2  0  0  0  0
 24 27  1  0  0  0  0
 28 29  1  0  0  0  0
 28 30  1  0  0  0  0
 28 31  1  0  0  0  0
 31 32  1  0  0  0  0
 31 33  1  0  0  0  0
 31 34  1  0  0  0  0
 34 35  1  0  0  0  0
 35 36  1  0  0  0  0
 35 37  2  0  0  0  0
 35 38  1  0  0  0  0
 38 39  1  0  0  0  0
 39 40  2  0  0  0  0
 39 41  1  0  0  0  0
 39 42  1  0  0  0  0
 42 44  1  0  0  0  0
 43 44  1  0  0  0  0
 43 47  1  0  0  0  0
 43 51  1  0  0  0  0
 43 55  1  0  0  0  0
 44 45  1  0  0  0  0
 44 46  1  0  0  0  0
 47 48  1  0  0  0  0
 47 49  1  0  0  0  0
 47 50  1  0  0  0  0
 51 52  1  0  0  0  0
 51 53  1  0  0  0  0
 51 54  1  0  0  0  0
 55 56  1  0  0  0  0
 55 57  1  0  0  0  0
 55 59  1  0  0  0  0
 57 58  1  0  0  0  0
 59 60  2  0  0  0  0
 59 61  1  0  0  0  0
 61 62  1  0  0  0  0
 61 63  1  0  0  0  0
 63 64  1  0  0  0  0
 63 65  1  0  0  0  0
 63 66  1  0  0  0  0
 66 67  1  0  0  0  0
 66 68  1  0  0  0  0
 66 69  1  0  0  0  0
 69 70  2  0  0  0  0
 69 71  1  0  0  0  0
 71 72  1  0  0  0  0
 71 73  1  0  0  0  0
 73 74  1  0  0  0  0
 73 75  1  0  0  0  0
 73 76  1  0  0  0  0
 76 77  1  0  0  0  0
 76 78  1  0  0  0  0
 76 79  1  0  0  0  0
 79 80  1  0  0  0  0
 80 81  2  0  0  0  0
 80 82  1  0  0  0  0
 82 83  1  0  0  0  0
 82 84  1  0  0  0  0
 82 85  1  0  0  0  0
M  BCL ATM N_Tr2TrTrPi C_TrTrTrPi H_S N_Tr2TrTrPi C_TrTrTrPi C_TrTrTrPi C_TrTrTrPi N_TrTrTrPi2 H_S H_S N_Tr2TrTrPi C_TrTrTrPi H_S N_TrTrTrPi2 C_TeTeTeTe H_S C_TeTeTeTe H_S O_Te2Te2TeTe H_S C_TeTeTeTe H_S O_Tr2TrTrPi2 P_TeTeTeTePi O_Te2Te2TeTe O_Tr2Tr2TrPi O_Te2Te2Te2Te C_TeTeTeTe H_S O_Te2Te2TeTe C_TeTeTeTe H_S H_S O_Tr2TrTrPi2 P_TeTeTeTePi O_Te2Te2TeTe O_Tr2Tr2TrPi O_Tr2TrTrPi2 P_TeTeTeTePi O_Tr2Tr2TrPi O_Te2Te2Te2Te O_Tr2TrTrPi2 C_TeTeTeTe C_TeTeTeTe H_S H_S C_TeTeTeTe H_S H_S H_S C_TeTeTeTe H_S H_S H_S C_TeTeTeTe H_S O_Te2Te2TeTe H_S C_TrTrTrPi O_Tr2Tr2TrPi N_TrTrTrPi2 H_S C_TeTeTeTe H_S H_S C_TeTeTeTe H_S H_S C_TrTrTrPi O_Tr2Tr2TrPi N_TrTrTrPi2 H_S C_TeTeTeTe H_S H_S C_TeTeTeTe H_S H_S S_Te2Te2TeTe C_TrTrTrPi O_Tr2Tr2TrPi C_TeTeTeTe H_S H_S H_S
M  BCL BND AromaticSingleBond AromaticDoubleBond NonConjugatedSingleBond AromaticDoubleBond AromaticSingleBond AromaticDoubleBond AromaticSingleBond AromaticSingleBond AromaticSingleBond ConjugatedSingleBond NonConjugatedSingleBond NonConjugatedSingleBond AromaticDoubleBond NonConjugatedSingleBond AromaticSingleBond NonConjugatedSingleBond NonConjugatedSingleBond NonConjugatedSingleBondInRing NonConjugatedSingleBondInRing NonConjugatedSingleBond NonConjugatedSingleBond NonConjugatedSingleBondInRing NonConjugatedSingleBond NonConjugatedSingleBond NonConjugatedSingleBond NonConjugatedSingleBondInRing ConjugatedSingleBond ConjugatedSingleBond ConjugatedDoubleBond ConjugatedSingleBond NonConjugatedSingleBond NonConjugatedSingleBondInRing NonConjugatedSingleBond NonConjugatedSingleBond NonConjugatedSingleBond NonConjugatedSingleBond ConjugatedSingleBond ConjugatedSingleBond ConjugatedDoubleBond ConjugatedSingleBond ConjugatedSingleBond ConjugatedDoubleBond ConjugatedSingleBond ConjugatedSingleBond NonConjugatedSingleBond NonConjugatedSingleBond NonConjugatedSingleBond NonConjugatedSingleBond NonConjugatedSingleBond NonConjugatedSingleBond NonConjugatedSingleBond NonConjugatedSingleBond NonConjugatedSingleBond NonConjugatedSingleBond NonConjugatedSingleBond NonConjugatedSingleBond NonConjugatedSingleBond NonConjugatedSingleBond NonConjugatedSingleBond NonConjugatedSingleBond NonConjugatedSingleBond ConjugatedDoubleBond AmideSingleBond NonConjugatedSingleBond NonConjugatedSingleBond NonConjugatedSingleBond NonConjugatedSingleBond NonConjugatedSingleBond NonConjugatedSingleBond NonConjugatedSingleBond NonConjugatedSingleBond ConjugatedDoubleBond AmideSingleBond NonConjugatedSingleBond NonConjugatedSingleBond NonConjugatedSingleBond NonConjugatedSingleBond NonConjugatedSingleBond NonConjugatedSingleBond NonConjugatedSingleBond NonConjugatedSingleBond ConjugatedSingleBond ConjugatedDoubleBond NonConjugatedSingleBond NonConjugatedSingleBond NonConjugatedSingleBond NonConjugatedSingleBond
M  BCL CHI  15   S  17   S  21   S  24   S  28   R  35   R  39   R  55   S
M  BCL DBI - - - - - - - - - -
M  END
> <ConfClashScore>
0 

> <ConfOneFourInteractionScore>
-0.976256 

> <ConfScore>
0.0257657 

> <ConfScorePBest>
0.0108755 

> <ConfTolerance>
2.44941 

$$$$
ACO.****
  PyMOL2.5          3D                             0

 85 87  0  0  0  0  0  0  0  0999 V2000
    4.8891    1.0637  -10.6252 N   0  0  0  1  0  0  0  0  0  0  0  0
    3.8353    1.8899  -10.5301 C   0  0  0  1  0  0  0  0  0  0  0  0
    3.8094    2.6672  -11.2205 H   0  0  0  1  0  0  0  0  0  0  0  0
    2.8219    1.8487   -9.6738 N   0  0  0  1  0  0  0  0  0  0  0  0
    2.9372    0.8189   -8.8341 C   0  0  0  1  0  0  0  0  0  0  0  0
    3.9726   -0.1249   -8.8035 C   0  0  0  1  0  0  0  0  0  0  0  0
    4.9719    0.0504   -9.7563 C   0  0  0  1  0  0  0  0  0  0  0  0
    6.0975   -0.7521   -9.9075 N   0  0  0  1  0  0  0  0  0  0  0  0
    6.7535   -0.5494  -10.6067 H   0  0  0  1  0  0  0  0  0  0  0  0
    6.2347   -1.5204   -9.3148 H   0  0  0  1  0  0  0  0  0  0  0  0
    3.7588   -1.0398   -7.7844 N   0  0  0  1  0  0  0  0  0  0  0  0
    2.6377   -0.6422   -7.2469 C   0  0  0  1  0  0  0  0  0  0  0  0
    2.1965   -1.1352   -6.4445 H   0  0  0  1  0  0  0  0  0  0  0  0
    2.0895    0.4662   -7.8159 N   0  0  0  1  0  0  0  0  0  0  0  0
    0.9475    1.2330   -7.3097 C   0  0  0  1  0  0  0  0  0  0  0  0
    0.4959    1.7744   -8.1145 H   0  0  0  1  0  0  0  0  0  0  0  0
   -0.0837    0.2812   -6.6726 C   0  0  0  1  0  0  0  0  0  0  0  0
    0.3909   -0.5829   -6.2568 H   0  0  0  1  0  0  0  0  0  0  0  0
   -1.0698   -0.1272   -7.6244 O   0  0  0  1  0  0  0  0  0  0  0  0
   -1.8186    0.4724   -7.5873 H   0  0  0  1  0  0  0  0  0  0  0  0
   -0.6993    1.1597   -5.5758 C   0  0  0  1  0  0  0  0  0  0  0  0
   -1.0003    0.5698   -4.7354 H   0  0  0  1  0  0  0  0  0  0  0  0
   -1.8348    1.8966   -6.0788 O   0  0  0  1  0  0  0  0  0  0  0  0
   -2.9763    2.4826   -5.0574 P   0  0  0  1  0  0  0  0  0  0  0  0
   -4.0811    3.2385   -6.0048 O   0  0  0  0  0  0  0  0  0  0  0  0
   -3.5584    1.2812   -4.4187 O   0  0  0  1  0  0  0  0  0  0  0  0
   -2.2682    3.5691   -4.0865 O   0  5  0  1  0  0  0  0  0  0  0  0
    0.4481    2.1057   -5.2012 C   0  0  0  1  0  0  0  0  0  0  0  0
    0.0697    3.0913   -5.0268 H   0  0  0  1  0  0  0  0  0  0  0  0
    1.3701    2.1172   -6.3206 O   0  0  0  1  0  0  0  0  0  0  0  0
    1.1391    1.6124   -3.9727 C   0  0  0  1  0  0  0  0  0  0  0  0
    0.4651    1.6337   -3.1420 H   0  0  0  1  0  0  0  0  0  0  0  0
    1.9879    2.2282   -3.7599 H   0  0  0  1  0  0  0  0  0  0  0  0
    1.5641    0.2632   -4.2234 O   0  0  0  1  0  0  0  0  0  0  0  0
    2.8612   -0.3992   -3.6471 P   0  0  0  1  0  0  0  0  0  0  0  0
    3.9582    0.6533   -3.5067 O   0  0  0  0  0  0  0  0  0  0  0  0
    3.2292   -1.5279   -4.5494 O   0  0  0  1  0  0  0  0  0  0  0  0
    2.5640   -0.8821   -2.1472 O   0  0  0  1  0  0  0  0  0  0  0  0
    2.6767   -0.0695   -0.7272 P   0  0  0  1  0  0  0  0  0  0  0  0
    2.5309    1.3778   -1.0003 O   0  0  0  1  0  0  0  0  0  0  0  0
    1.7261   -0.7883    0.3701 O   0  5  0  1  0  0  0  0  0  0  0  0
    4.1941   -0.3388   -0.4088 O   0  0  0  1  0  0  0  0  0  0  0  0
    6.4789    0.2851   -0.5329 C   0  0  0  1  0  0  0  0  0  0  0  0
    5.2286    0.0825   -1.3240 C   0  0  0  1  0  0  0  0  0  0  0  0
    4.9448    0.9988   -1.7981 H   0  0  0  1  0  0  0  0  0  0  0  0
    5.3860   -0.6706   -2.0677 H   0  0  0  1  0  0  0  0  0  0  0  0
    7.6528    0.5354   -1.4836 C   0  0  0  1  0  0  0  0  0  0  0  0
    7.3375    1.1775   -2.2793 H   0  0  0  1  0  0  0  0  0  0  0  0
    7.9879   -0.3964   -1.8892 H   0  0  0  1  0  0  0  0  0  0  0  0
    8.4534    0.9998   -0.9468 H   0  0  0  1  0  0  0  0  0  0  0  0
    6.7189   -0.9451    0.3585 C   0  0  0  1  0  0  0  0  0  0  0  0
    5.9446   -1.0096    1.0942 H   0  0  0  1  0  0  0  0  0  0  0  0
    7.6669   -0.8525    0.8460 H   0  0  0  1  0  0  0  0  0  0  0  0
    6.7121   -1.8290   -0.2445 H   0  0  0  1  0  0  0  0  0  0  0  0
    6.2758    1.5151    0.3597 C   0  0  0  1  0  0  0  0  0  0  0  0
    6.2628    2.3896   -0.2568 H   0  0  0  1  0  0  0  0  0  0  0  0
    5.0603    1.3988    1.0769 O   0  0  0  1  0  0  0  0  0  0  0  0
    4.3222    1.5646    0.4858 H   0  0  0  1  0  0  0  0  0  0  0  0
    7.4439    1.6149    1.3330 C   0  0  0  1  0  0  0  0  0  0  0  0
    8.5956    1.6773    0.9355 O   0  0  0  1  0  0  0  0  0  0  0  0
    7.1183    1.6288    2.6352 N   0  0  0  1  0  0  0  0  0  0  0  0
    6.1763    1.5338    2.8883 H   0  0  0  1  0  0  0  0  0  0  0  0
    8.1155    1.7799    3.6843 C   0  0  0  1  0  0  0  0  0  0  0  0
    8.4326    2.8015    3.7113 H   0  0  0  1  0  0  0  0  0  0  0  0
    8.9514    1.1523    3.4557 H   0  0  0  1  0  0  0  0  0  0  0  0
    7.5814    1.3994    5.0556 C   0  0  0  1  0  0  0  0  0  0  0  0
    7.4388    0.3391    5.0717 H   0  0  0  1  0  0  0  0  0  0  0  0
    6.6393    1.8885    5.1902 H   0  0  0  1  0  0  0  0  0  0  0  0
    8.4648    1.7664    6.2161 C   0  0  0  1  0  0  0  0  0  0  0  0
    9.6472    1.4274    6.2410 O   0  0  0  1  0  0  0  0  0  0  0  0
    7.9251    2.4732    7.2208 N   0  0  0  1  0  0  0  0  0  0  0  0
    6.9918    2.7670    7.1658 H   0  0  0  1  0  0  0  0  0  0  0  0
    8.7221    2.8039    8.3912 C   0  0  0  1  0  0  0  0  0  0  0  0
    8.2216    3.5739    8.9404 H   0  0  0  1  0  0  0  0  0  0  0  0
    9.6772    3.1603    8.0661 H   0  0  0  1  0  0  0  0  0  0  0  0
    8.9328    1.6172    9.3034 C   0  0  0  1  0  0  0  0  0  0  0  0
    9.3109    0.8034    8.7206 H   0  0  0  1  0  0  0  0  0  0  0  0
    7.9899    1.3440    9.7290 H   0  0  0  1  0  0  0  0  0  0  0  0
   10.0955    1.9499   10.6482 S   0  0  0  1  0  0  0  0  0  0  0  0
    9.1908    3.0497   11.6557 C   0  0  0  1  0  0  0  0  0  0  0  0
    8.0341    3.3337   11.4659 O   0  0  0  1  0  0  0  0  0  0  0  0
    9.9894    3.5333   12.8512 C   0  0  0  1  0  0  0  0  0  0  0  0
    9.3793    4.1742   13.4528 H   0  0  0  1  0  0  0  0  0  0  0  0
   10.8476    4.0745   12.5112 H   0  0  0  1  0  0  0  0  0  0  0  0
   10.3048    2.6925   13.4329 H   0  0  0  1  0  0  0  0  0  0  0  0
  1  2  1  0  0  0  0
  1  7  2  0  0  0  0
  2  3  1  0  0  0  0
  2  4  2  0  0  0  0
  4  5  1  0  0  0  0
  5  6  2  0  0  0  0
  5 14  1  0  0  0  0
  6  7  1  0  0  0  0
  6 11  1  0  0  0  0
  7  8  1  0  0  0  0
  8  9  1  0  0  0  0
  8 10  1  0  0  0  0
 11 12  2  0  0  0  0
 12 13  1  0  0  0  0
 12 14  1  0  0  0  0
 14 15  1  0  0  0  0
 15 16  1  0  0  0  0
 15 17  1  0  0  0  0
 15 30  1  0  0  0  0
 17 18  1  0  0  0  0
 17 19  1  0  0  0  0
 17 21  1  0  0  0  0
 19 20  1  0  0  0  0
 21 22  1  0  0  0  0
 21 23  1  0  0  0  0
 21 28  1  0  0  0  0
 23 24  1  0  0  0  0
 24 25  1  0  0  0  0
 24 26  2  0  0  0  0
 24 27  1  0  0  0  0
 28 29  1  0  0  0  0
 28 30  1  0  0  0  0
 28 31  1  0  0  0  0
 31 32  1  0  0  0  0
 31 33  1  0  0  0  0
 31 34  1  0  0  0  0
 34 35  1  0  0  0  0
 35 36  1  0  0  0  0
 35 37  2  0  0  0  0
 35 38  1  0  0  0  0
 38 39  1  0  0  0  0
 39 40  2  0  0  0  0
 39 41  1  0  0  0  0
 39 42  1  0  0  0  0
 42 44  1  0  0  0  0
 43 44  1  0  0  0  0
 43 47  1  0  0  0  0
 43 51  1  0  0  0  0
 43 55  1  0  0  0  0
 44 45  1  0  0  0  0
 44 46  1  0  0  0  0
 47 48  1  0  0  0  0
 47 49  1  0  0  0  0
 47 50  1  0  0  0  0
 51 52  1  0  0  0  0
 51 53  1  0  0  0  0
 51 54  1  0  0  0  0
 55 56  1  0  0  0  0
 55 57  1  0  0  0  0
 55 59  1  0  0  0  0
 57 58  1  0  0  0  0
 59 60  2  0  0  0  0
 59 61  1  0  0  0  0
 61 62  1  0  0  0  0
 61 63  1  0  0  0  0
 63 64  1  0  0  0  0
 63 65  1  0  0  0  0
 63 66  1  0  0  0  0
 66 67  1  0  0  0  0
 66 68  1  0  0  0  0
 66 69  1  0  0  0  0
 69 70  2  0  0  0  0
 69 71  1  0  0  0  0
 71 72  1  0  0  0  0
 71 73  1  0  0  0  0
 73 74  1  0  0  0  0
 73 75  1  0  0  0  0
 73 76  1  0  0  0  0
 76 77  1  0  0  0  0
 76 78  1  0  0  0  0
 76 79  1  0  0  0  0
 79 80  1  0  0  0  0
 80 81  2  0  0  0  0
 80 82  1  0  0  0  0
 82 83  1  0  0  0  0
 82 84  1  0  0  0  0
 82 85  1  0  0  0  0
M  BCL ATM N_Tr2TrTrPi C_TrTrTrPi H_S N_Tr2TrTrPi C_TrTrTrPi C_TrTrTrPi C_TrTrTrPi N_TrTrTrPi2 H_S H_S N_Tr2TrTrPi C_TrTrTrPi H_S N_TrTrTrPi2 C_TeTeTeTe H_S C_TeTeTeTe H_S O_Te2Te2TeTe H_S C_TeTeTeTe H_S O_Tr2TrTrPi2 P_TeTeTeTePi O_Te2Te2TeTe O_Tr2Tr2TrPi O_Te2Te2Te2Te C_TeTeTeTe H_S O_Te2Te2TeTe C_TeTeTeTe H_S H_S O_Tr2TrTrPi2 P_TeTeTeTePi O_Te2Te2TeTe O_Tr2Tr2TrPi O_Tr2TrTrPi2 P_TeTeTeTePi O_Tr2Tr2TrPi O_Te2Te2Te2Te O_Tr2TrTrPi2 C_TeTeTeTe C_TeTeTeTe H_S H_S C_TeTeTeTe H_S H_S H_S C_TeTeTeTe H_S H_S H_S C_TeTeTeTe H_S O_Te2Te2TeTe H_S C_TrTrTrPi O_Tr2Tr2TrPi N_TrTrTrPi2 H_S C_TeTeTeTe H_S H_S C_TeTeTeTe H_S H_S C_TrTrTrPi O_Tr2Tr2TrPi N_TrTrTrPi2 H_S C_TeTeTeTe H_S H_S C_TeTeTeTe H_S H_S S_Te2Te2TeTe C_TrTrTrPi O_Tr2Tr2TrPi C_TeTeTeTe H_S H_S H_S
M  BCL BND AromaticSingleBond AromaticDoubleBond NonConjugatedSingleBond AromaticDoubleBond AromaticSingleBond AromaticDoubleBond AromaticSingleBond AromaticSingleBond AromaticSingleBond ConjugatedSingleBond NonConjugatedSingleBond NonConjugatedSingleBond AromaticDoubleBond NonConjugatedSingleBond AromaticSingleBond NonConjugatedSingleBond NonConjugatedSingleBond NonConjugatedSingleBondInRing NonConjugatedSingleBondInRing NonConjugatedSingleBond NonConjugatedSingleBond NonConjugatedSingleBondInRing NonConjugatedSingleBond NonConjugatedSingleBond NonConjugatedSingleBond NonConjugatedSingleBondInRing ConjugatedSingleBond ConjugatedSingleBond ConjugatedDoubleBond ConjugatedSingleBond NonConjugatedSingleBond NonConjugatedSingleBondInRing NonConjugatedSingleBond NonConjugatedSingleBond NonConjugatedSingleBond NonConjugatedSingleBond ConjugatedSingleBond ConjugatedSingleBond ConjugatedDoubleBond ConjugatedSingleBond ConjugatedSingleBond ConjugatedDoubleBond ConjugatedSingleBond ConjugatedSingleBond NonConjugatedSingleBond NonConjugatedSingleBond NonConjugatedSingleBond NonConjugatedSingleBond NonConjugatedSingleBond NonConjugatedSingleBond NonConjugatedSingleBond NonConjugatedSingleBond NonConjugatedSingleBond NonConjugatedSingleBond NonConjugatedSingleBond NonConjugatedSingleBond NonConjugatedSingleBond NonConjugatedSingleBond NonConjugatedSingleBond NonConjugatedSingleBond NonConjugatedSingleBond ConjugatedDoubleBond AmideSingleBond NonConjugatedSingleBond NonConjugatedSingleBond NonConjugatedSingleBond NonConjugatedSingleBond NonConjugatedSingleBond NonConjugatedSingleBond NonConjugatedSingleBond NonConjugatedSingleBond ConjugatedDoubleBond AmideSingleBond NonConjugatedSingleBond NonConjugatedSingleBond NonConjugatedSingleBond NonConjugatedSingleBond NonConjugatedSingleBond NonConjugatedSingleBond NonConjugatedSingleBond NonConjugatedSingleBond ConjugatedSingleBond ConjugatedDoubleBond NonConjugatedSingleBond NonConjugatedSingleBond NonConjugatedSingleBond NonConjugatedSingleBond
M  BCL CHI  15   S  17   S  21   S  24   S  28   R  35   R  39   R  55   S
M  BCL DBI - - - - - - - - - -
M  END
> <ConfClashScore>
0 

> <ConfOneFourInteractionScore>
-0.982233 

> <ConfScore>
0.0267015 

> <ConfScorePBest>
0.0107725 

> <ConfTolerance>
2.27761 

$$$$
ACO.****
  PyMOL2.5          3D                             0

 85 87  0  0  0  0  0  0  0  0999 V2000
    4.8808    1.0698  -10.6470 N   0  0  0  1  0  0  0  0  0  0  0  0
    3.8410    1.9101  -10.5250 C   0  0  0  1  0  0  0  0  0  0  0  0
    3.8074    2.6873  -11.2152 H   0  0  0  1  0  0  0  0  0  0  0  0
    2.8500    1.8829   -9.6423 N   0  0  0  1  0  0  0  0  0  0  0  0
    2.9736    0.8521   -8.8049 C   0  0  0  1  0  0  0  0  0  0  0  0
    3.9968   -0.1054   -8.8008 C   0  0  0  1  0  0  0  0  0  0  0  0
    4.9728    0.0559   -9.7797 C   0  0  0  1  0  0  0  0  0  0  0  0
    6.0433   -0.7803   -9.9085 N   0  0  0  1  0  0  0  0  0  0  0  0
    6.6458   -0.6903  -10.6762 H   0  0  0  1  0  0  0  0  0  0  0  0
    6.2097   -1.4708   -9.2333 H   0  0  0  1  0  0  0  0  0  0  0  0
    3.7975   -1.0169   -7.7756 N   0  0  0  1  0  0  0  0  0  0  0  0
    2.6963   -0.6040   -7.2092 C   0  0  0  1  0  0  0  0  0  0  0  0
    2.2698   -1.0906   -6.3950 H   0  0  0  1  0  0  0  0  0  0  0  0
    2.1483    0.5114   -7.7645 N   0  0  0  1  0  0  0  0  0  0  0  0
    0.8197    1.0628   -7.4968 C   0  0  0  1  0  0  0  0  0  0  0  0
    0.8080    2.1034   -7.7458 H   0  0  0  1  0  0  0  0  0  0  0  0
   -0.2687    0.2925   -8.2861 C   0  0  0  1  0  0  0  0  0  0  0  0
   -0.0496   -0.7539   -8.3294 H   0  0  0  1  0  0  0  0  0  0  0  0
   -0.4078    0.8026   -9.6040 O   0  0  0  1  0  0  0  0  0  0  0  0
    0.4456    0.7915  -10.0436 H   0  0  0  1  0  0  0  0  0  0  0  0
   -1.5391    0.5674   -7.4389 C   0  0  0  1  0  0  0  0  0  0  0  0
   -2.1486   -0.3096   -7.3724 H   0  0  0  1  0  0  0  0  0  0  0  0
   -2.3139    1.6537   -8.0093 O   0  0  0  1  0  0  0  0  0  0  0  0
   -3.9232    1.7808   -7.7200 P   0  0  0  1  0  0  0  0  0  0  0  0
   -4.7052    0.4371   -8.2420 O   0  0  0  0  0  0  0  0  0  0  0  0
   -4.2642    1.9566   -6.2906 O   0  0  0  1  0  0  0  0  0  0  0  0
   -4.4417    3.0308   -8.6107 O   0  5  0  1  0  0  0  0  0  0  0  0
   -0.9874    0.9569   -6.0536 C   0  0  0  1  0  0  0  0  0  0  0  0
   -1.2744    1.9596   -5.8145 H   0  0  0  1  0  0  0  0  0  0  0  0
    0.4447    0.8583   -6.1181 O   0  0  0  1  0  0  0  0  0  0  0  0
   -1.5166    0.0255   -5.0132 C   0  0  0  1  0  0  0  0  0  0  0  0
   -0.7130   -0.3398   -4.4085 H   0  0  0  1  0  0  0  0  0  0  0  0
   -2.0146   -0.7981   -5.4809 H   0  0  0  1  0  0  0  0  0  0  0  0
   -2.4524    0.7670   -4.1943 O   0  0  0  1  0  0  0  0  0  0  0  0
   -3.2508    0.0510   -3.0108 P   0  0  0  1  0  0  0  0  0  0  0  0
   -2.2850    0.0755   -1.8861 O   0  0  0  0  0  0  0  0  0  0  0  0
   -3.8617   -1.2118   -3.4533 O   0  0  0  1  0  0  0  0  0  0  0  0
   -4.5126    1.0312   -2.7581 O   0  0  0  1  0  0  0  0  0  0  0  0
   -5.5271    1.5704   -3.9284 P   0  0  0  1  0  0  0  0  0  0  0  0
   -5.3500    2.9227   -4.5033 O   0  0  0  1  0  0  0  0  0  0  0  0
   -5.6408    0.4515   -5.0944 O   0  5  0  1  0  0  0  0  0  0  0  0
   -6.9687    1.4121   -3.2962 O   0  0  0  1  0  0  0  0  0  0  0  0
   -8.1219   -0.2721   -2.0885 C   0  0  0  1  0  0  0  0  0  0  0  0
   -7.6534    0.1491   -3.4425 C   0  0  0  1  0  0  0  0  0  0  0  0
   -6.9839   -0.5843   -3.8409 H   0  0  0  1  0  0  0  0  0  0  0  0
   -8.4908    0.2624   -4.0989 H   0  0  0  1  0  0  0  0  0  0  0  0
   -8.4832   -1.7597   -2.1236 C   0  0  0  1  0  0  0  0  0  0  0  0
   -9.2593   -1.9219   -2.8422 H   0  0  0  1  0  0  0  0  0  0  0  0
   -8.8230   -2.0668   -1.1566 H   0  0  0  1  0  0  0  0  0  0  0  0
   -7.6199   -2.3298   -2.3966 H   0  0  0  1  0  0  0  0  0  0  0  0
   -9.3420    0.5510   -1.6418 C   0  0  0  1  0  0  0  0  0  0  0  0
   -9.6540    0.2287   -0.6704 H   0  0  0  1  0  0  0  0  0  0  0  0
  -10.1418    0.4094   -2.3383 H   0  0  0  1  0  0  0  0  0  0  0  0
   -9.0789    1.5875   -1.6060 H   0  0  0  1  0  0  0  0  0  0  0  0
   -6.9778   -0.0779   -1.0874 C   0  0  0  1  0  0  0  0  0  0  0  0
   -6.1609   -0.6945   -1.3995 H   0  0  0  1  0  0  0  0  0  0  0  0
   -6.5483    1.2807   -1.0383 O   0  0  0  1  0  0  0  0  0  0  0  0
   -7.3113    1.8603   -1.0973 H   0  0  0  1  0  0  0  0  0  0  0  0
   -7.4069   -0.5311    0.2939 C   0  0  0  1  0  0  0  0  0  0  0  0
   -7.6611   -1.7017    0.5256 O   0  0  0  1  0  0  0  0  0  0  0  0
   -7.4847    0.4275    1.2213 N   0  0  0  1  0  0  0  0  0  0  0  0
   -7.1813    1.3312    0.9939 H   0  0  0  1  0  0  0  0  0  0  0  0
   -8.0044    0.1764    2.5572 C   0  0  0  1  0  0  0  0  0  0  0  0
   -7.4201   -0.5879    3.0254 H   0  0  0  1  0  0  0  0  0  0  0  0
   -9.0222   -0.1456    2.4854 H   0  0  0  1  0  0  0  0  0  0  0  0
   -7.9370    1.4430    3.3947 C   0  0  0  1  0  0  0  0  0  0  0  0
   -8.3850    2.2416    2.8411 H   0  0  0  1  0  0  0  0  0  0  0  0
   -6.9090    1.6721    3.5837 H   0  0  0  1  0  0  0  0  0  0  0  0
   -8.6602    1.3141    4.7334 C   0  0  0  1  0  0  0  0  0  0  0  0
   -9.2922    0.2974    5.0170 O   0  0  0  1  0  0  0  0  0  0  0  0
   -8.6156    2.4017    5.5081 N   0  0  0  1  0  0  0  0  0  0  0  0
   -8.1289    3.1902    5.1889 H   0  0  0  1  0  0  0  0  0  0  0  0
   -9.2642    2.4563    6.8084 C   0  0  0  1  0  0  0  0  0  0  0  0
   -8.6447    3.0296    7.4660 H   0  0  0  1  0  0  0  0  0  0  0  0
   -9.3503    1.4566    7.1800 H   0  0  0  1  0  0  0  0  0  0  0  0
  -10.6401    3.0749    6.8009 C   0  0  0  1  0  0  0  0  0  0  0  0
  -11.2199    2.6279    6.0204 H   0  0  0  1  0  0  0  0  0  0  0  0
  -10.5498    4.1258    6.6216 H   0  0  0  1  0  0  0  0  0  0  0  0
  -11.4785    2.8155    8.3815 S   0  0  0  1  0  0  0  0  0  0  0  0
  -12.3974    1.3575    8.0029 C   0  0  0  1  0  0  0  0  0  0  0  0
  -12.4280    0.8190    6.9241 O   0  0  0  1  0  0  0  0  0  0  0  0
  -13.1765    0.8173    9.1968 C   0  0  0  1  0  0  0  0  0  0  0  0
  -12.5727    0.8852   10.0775 H   0  0  0  1  0  0  0  0  0  0  0  0
  -13.4354   -0.2057    9.0200 H   0  0  0  1  0  0  0  0  0  0  0  0
  -14.0682    1.3934    9.3306 H   0  0  0  1  0  0  0  0  0  0  0  0
  1  2  1  0  0  0  0
  1  7  2  0  0  0  0
  2  3  1  0  0  0  0
  2  4  2  0  0  0  0
  4  5  1  0  0  0  0
  5  6  2  0  0  0  0
  5 14  1  0  0  0  0
  6  7  1  0  0  0  0
  6 11  1  0  0  0  0
  7  8  1  0  0  0  0
  8  9  1  0  0  0  0
  8 10  1  0  0  0  0
 11 12  2  0  0  0  0
 12 13  1  0  0  0  0
 12 14  1  0  0  0  0
 14 15  1  0  0  0  0
 15 16  1  0  0  0  0
 15 17  1  0  0  0  0
 15 30  1  0  0  0  0
 17 18  1  0  0  0  0
 17 19  1  0  0  0  0
 17 21  1  0  0  0  0
 19 20  1  0  0  0  0
 21 22  1  0  0  0  0
 21 23  1  0  0  0  0
 21 28  1  0  0  0  0
 23 24  1  0  0  0  0
 24 25  1  0  0  0  0
 24 26  2  0  0  0  0
 24 27  1  0  0  0  0
 28 29  1  0  0  0  0
 28 30  1  0  0  0  0
 28 31  1  0  0  0  0
 31 32  1  0  0  0  0
 31 33  1  0  0  0  0
 31 34  1  0  0  0  0
 34 35  1  0  0  0  0
 35 36  1  0  0  0  0
 35 37  2  0  0  0  0
 35 38  1  0  0  0  0
 38 39  1  0  0  0  0
 39 40  2  0  0  0  0
 39 41  1  0  0  0  0
 39 42  1  0  0  0  0
 42 44  1  0  0  0  0
 43 44  1  0  0  0  0
 43 47  1  0  0  0  0
 43 51  1  0  0  0  0
 43 55  1  0  0  0  0
 44 45  1  0  0  0  0
 44 46  1  0  0  0  0
 47 48  1  0  0  0  0
 47 49  1  0  0  0  0
 47 50  1  0  0  0  0
 51 52  1  0  0  0  0
 51 53  1  0  0  0  0
 51 54  1  0  0  0  0
 55 56  1  0  0  0  0
 55 57  1  0  0  0  0
 55 59  1  0  0  0  0
 57 58  1  0  0  0  0
 59 60  2  0  0  0  0
 59 61  1  0  0  0  0
 61 62  1  0  0  0  0
 61 63  1  0  0  0  0
 63 64  1  0  0  0  0
 63 65  1  0  0  0  0
 63 66  1  0  0  0  0
 66 67  1  0  0  0  0
 66 68  1  0  0  0  0
 66 69  1  0  0  0  0
 69 70  2  0  0  0  0
 69 71  1  0  0  0  0
 71 72  1  0  0  0  0
 71 73  1  0  0  0  0
 73 74  1  0  0  0  0
 73 75  1  0  0  0  0
 73 76  1  0  0  0  0
 76 77  1  0  0  0  0
 76 78  1  0  0  0  0
 76 79  1  0  0  0  0
 79 80  1  0  0  0  0
 80 81  2  0  0  0  0
 80 82  1  0  0  0  0
 82 83  1  0  0  0  0
 82 84  1  0  0  0  0
 82 85  1  0  0  0  0
M  BCL ATM N_Tr2TrTrPi C_TrTrTrPi H_S N_Tr2TrTrPi C_TrTrTrPi C_TrTrTrPi C_TrTrTrPi N_TrTrTrPi2 H_S H_S N_Tr2TrTrPi C_TrTrTrPi H_S N_TrTrTrPi2 C_TeTeTeTe H_S C_TeTeTeTe H_S O_Te2Te2TeTe H_S C_TeTeTeTe H_S O_Tr2TrTrPi2 P_TeTeTeTePi O_Te2Te2TeTe O_Tr2Tr2TrPi O_Te2Te2Te2Te C_TeTeTeTe H_S O_Te2Te2TeTe C_TeTeTeTe H_S H_S O_Tr2TrTrPi2 P_TeTeTeTePi O_Te2Te2TeTe O_Tr2Tr2TrPi O_Tr2TrTrPi2 P_TeTeTeTePi O_Tr2Tr2TrPi O_Te2Te2Te2Te O_Tr2TrTrPi2 C_TeTeTeTe C_TeTeTeTe H_S H_S C_TeTeTeTe H_S H_S H_S C_TeTeTeTe H_S H_S H_S C_TeTeTeTe H_S O_Te2Te2TeTe H_S C_TrTrTrPi O_Tr2Tr2TrPi N_TrTrTrPi2 H_S C_TeTeTeTe H_S H_S C_TeTeTeTe H_S H_S C_TrTrTrPi O_Tr2Tr2TrPi N_TrTrTrPi2 H_S C_TeTeTeTe H_S H_S C_TeTeTeTe H_S H_S S_Te2Te2TeTe C_TrTrTrPi O_Tr2Tr2TrPi C_TeTeTeTe H_S H_S H_S
M  BCL BND AromaticSingleBond AromaticDoubleBond NonConjugatedSingleBond AromaticDoubleBond AromaticSingleBond AromaticDoubleBond AromaticSingleBond AromaticSingleBond AromaticSingleBond ConjugatedSingleBond NonConjugatedSingleBond NonConjugatedSingleBond AromaticDoubleBond NonConjugatedSingleBond AromaticSingleBond NonConjugatedSingleBond NonConjugatedSingleBond NonConjugatedSingleBondInRing NonConjugatedSingleBondInRing NonConjugatedSingleBond NonConjugatedSingleBond NonConjugatedSingleBondInRing NonConjugatedSingleBond NonConjugatedSingleBond NonConjugatedSingleBond NonConjugatedSingleBondInRing ConjugatedSingleBond ConjugatedSingleBond ConjugatedDoubleBond ConjugatedSingleBond NonConjugatedSingleBond NonConjugatedSingleBondInRing NonConjugatedSingleBond NonConjugatedSingleBond NonConjugatedSingleBond NonConjugatedSingleBond ConjugatedSingleBond ConjugatedSingleBond ConjugatedDoubleBond ConjugatedSingleBond ConjugatedSingleBond ConjugatedDoubleBond ConjugatedSingleBond ConjugatedSingleBond NonConjugatedSingleBond NonConjugatedSingleBond NonConjugatedSingleBond NonConjugatedSingleBond NonConjugatedSingleBond NonConjugatedSingleBond NonConjugatedSingleBond NonConjugatedSingleBond NonConjugatedSingleBond NonConjugatedSingleBond NonConjugatedSingleBond NonConjugatedSingleBond NonConjugatedSingleBond NonConjugatedSingleBond NonConjugatedSingleBond NonConjugatedSingleBond NonConjugatedSingleBond ConjugatedDoubleBond AmideSingleBond NonConjugatedSingleBond NonConjugatedSingleBond NonConjugatedSingleBond NonConjugatedSingleBond NonConjugatedSingleBond NonConjugatedSingleBond NonConjugatedSingleBond NonConjugatedSingleBond ConjugatedDoubleBond AmideSingleBond NonConjugatedSingleBond NonConjugatedSingleBond NonConjugatedSingleBond NonConjugatedSingleBond NonConjugatedSingleBond NonConjugatedSingleBond NonConjugatedSingleBond NonConjugatedSingleBond ConjugatedSingleBond ConjugatedDoubleBond NonConjugatedSingleBond NonConjugatedSingleBond NonConjugatedSingleBond NonConjugatedSingleBond
M  BCL CHI  15   S  17   S  21   S  24   S  28   R  35   R  39   R  55   S
M  BCL DBI - - - - - - - - - -
M  END
> <ConfClashScore>
0 

> <ConfOneFourInteractionScore>
-0.976388 

> <ConfScore>
0.0280159 

> <ConfScorePBest>
0.0106695 

> <ConfTolerance>
2.33428 

$$$$
ACO.****
  PyMOL2.5          3D                             0

 85 87  0  0  0  0  0  0  0  0999 V2000
    4.8893    1.0419  -10.6168 N   0  0  0  1  0  0  0  0  0  0  0  0
    3.8452    1.8800  -10.5194 C   0  0  0  1  0  0  0  0  0  0  0  0
    3.8233    2.6539  -11.2137 H   0  0  0  1  0  0  0  0  0  0  0  0
    2.8369    1.8543   -9.6565 N   0  0  0  1  0  0  0  0  0  0  0  0
    2.9464    0.8277   -8.8120 C   0  0  0  1  0  0  0  0  0  0  0  0
    3.9718   -0.1271   -8.7831 C   0  0  0  1  0  0  0  0  0  0  0  0
    4.9667    0.0323   -9.7431 C   0  0  0  1  0  0  0  0  0  0  0  0
    6.0991   -0.7598   -9.9323 N   0  0  0  1  0  0  0  0  0  0  0  0
    6.2303   -1.5648   -9.3890 H   0  0  0  1  0  0  0  0  0  0  0  0
    6.7635   -0.5114  -10.6085 H   0  0  0  1  0  0  0  0  0  0  0  0
    3.7545   -1.0343   -7.7577 N   0  0  0  1  0  0  0  0  0  0  0  0
    2.6413   -0.6217   -7.2153 C   0  0  0  1  0  0  0  0  0  0  0  0
    2.1999   -1.1057   -6.4074 H   0  0  0  1  0  0  0  0  0  0  0  0
    2.1015    0.4896   -7.7866 N   0  0  0  1  0  0  0  0  0  0  0  0
    0.8835    1.2192   -7.4328 C   0  0  0  1  0  0  0  0  0  0  0  0
    0.7066    1.9899   -8.1536 H   0  0  0  1  0  0  0  0  0  0  0  0
   -0.3157    0.2519   -7.3926 C   0  0  0  1  0  0  0  0  0  0  0  0
   -0.0096   -0.7340   -7.1111 H   0  0  0  1  0  0  0  0  0  0  0  0
   -0.9841    0.2019   -8.6559 O   0  0  0  1  0  0  0  0  0  0  0  0
   -1.1520    1.0950   -8.9652 H   0  0  0  1  0  0  0  0  0  0  0  0
   -1.2064    0.8864   -6.3167 C   0  0  0  1  0  0  0  0  0  0  0  0
   -1.7595    0.1393   -5.7868 H   0  0  0  1  0  0  0  0  0  0  0  0
   -2.1223    1.8433   -6.8992 O   0  0  0  1  0  0  0  0  0  0  0  0
   -3.4187    2.3877   -6.0550 P   0  0  0  1  0  0  0  0  0  0  0  0
   -4.2511    1.1627   -5.3506 O   0  0  0  0  0  0  0  0  0  0  0  0
   -3.0648    3.5173   -5.1668 O   0  0  0  1  0  0  0  0  0  0  0  0
   -4.2810    2.9517   -7.3052 O   0  5  0  1  0  0  0  0  0  0  0  0
   -0.1978    1.5818   -5.3941 C   0  0  0  1  0  0  0  0  0  0  0  0
   -0.5846    2.5260   -5.0722 H   0  0  0  1  0  0  0  0  0  0  0  0
    1.0157    1.7769   -6.1638 O   0  0  0  1  0  0  0  0  0  0  0  0
    0.0826    0.7257   -4.2030 C   0  0  0  1  0  0  0  0  0  0  0  0
    0.6004   -0.1606   -4.5051 H   0  0  0  1  0  0  0  0  0  0  0  0
   -0.8352    0.4572   -3.7231 H   0  0  0  1  0  0  0  0  0  0  0  0
    0.9080    1.4934   -3.2944 O   0  0  0  1  0  0  0  0  0  0  0  0
    0.8744    1.2225   -1.7699 P   0  0  0  1  0  0  0  0  0  0  0  0
    1.1949   -0.2830   -1.5983 O   0  0  0  0  0  0  0  0  0  0  0  0
   -0.3717    1.7024   -1.1646 O   0  0  0  1  0  0  0  0  0  0  0  0
    2.1683    2.0241   -1.2784 O   0  0  0  1  0  0  0  0  0  0  0  0
    2.6918    2.6180    0.1578 P   0  0  0  1  0  0  0  0  0  0  0  0
    1.6201    3.5477    0.5790 O   0  0  0  1  0  0  0  0  0  0  0  0
    2.9945    1.3678    1.1426 O   0  5  0  1  0  0  0  0  0  0  0  0
    4.0347    3.3933   -0.1563 O   0  0  0  1  0  0  0  0  0  0  0  0
    5.3067    5.1723   -1.1399 C   0  0  0  1  0  0  0  0  0  0  0  0
    3.9935    4.5020   -1.0807 C   0  0  0  1  0  0  0  0  0  0  0  0
    3.2539    5.2039   -0.7563 H   0  0  0  1  0  0  0  0  0  0  0  0
    3.7388    4.1393   -2.0546 H   0  0  0  1  0  0  0  0  0  0  0  0
    6.3568    4.1136   -1.4879 C   0  0  0  1  0  0  0  0  0  0  0  0
    6.2938    3.3051   -0.7899 H   0  0  0  1  0  0  0  0  0  0  0  0
    7.3325    4.5502   -1.4406 H   0  0  0  1  0  0  0  0  0  0  0  0
    6.1778    3.7456   -2.4766 H   0  0  0  1  0  0  0  0  0  0  0  0
    5.6131    5.7352    0.2583 C   0  0  0  1  0  0  0  0  0  0  0  0
    6.6685    5.8772    0.3628 H   0  0  0  1  0  0  0  0  0  0  0  0
    5.2706    5.0470    1.0025 H   0  0  0  1  0  0  0  0  0  0  0  0
    5.1133    6.6732    0.3822 H   0  0  0  1  0  0  0  0  0  0  0  0
    5.3213    6.2741   -2.1990 C   0  0  0  1  0  0  0  0  0  0  0  0
    5.2163    5.7720   -3.1380 H   0  0  0  1  0  0  0  0  0  0  0  0
    4.2314    7.1651   -2.0851 O   0  0  0  1  0  0  0  0  0  0  0  0
    3.4339    6.7389   -2.4077 H   0  0  0  1  0  0  0  0  0  0  0  0
    6.6757    6.9541   -2.2489 C   0  0  0  1  0  0  0  0  0  0  0  0
    6.9361    7.9123   -1.5225 O   0  0  0  1  0  0  0  0  0  0  0  0
    7.5528    6.4432   -3.1275 N   0  0  0  1  0  0  0  0  0  0  0  0
    7.2049    5.7661   -3.7447 H   0  0  0  1  0  0  0  0  0  0  0  0
    8.9615    6.7806   -3.2675 C   0  0  0  1  0  0  0  0  0  0  0  0
    9.5357    5.8969   -3.0826 H   0  0  0  1  0  0  0  0  0  0  0  0
    9.2010    7.5221   -2.5343 H   0  0  0  1  0  0  0  0  0  0  0  0
    9.3534    7.3238   -4.6384 C   0  0  0  1  0  0  0  0  0  0  0  0
    8.8154    8.2300   -4.8236 H   0  0  0  1  0  0  0  0  0  0  0  0
    9.1038    6.6009   -5.3867 H   0  0  0  1  0  0  0  0  0  0  0  0
   10.8416    7.6081   -4.6986 C   0  0  0  1  0  0  0  0  0  0  0  0
   11.5917    6.9371   -5.4062 O   0  0  0  1  0  0  0  0  0  0  0  0
   11.2700    8.6218   -3.9409 N   0  0  0  1  0  0  0  0  0  0  0  0
   10.6379    9.1070   -3.3705 H   0  0  0  1  0  0  0  0  0  0  0  0
   12.6722    9.0064   -3.9608 C   0  0  0  1  0  0  0  0  0  0  0  0
   13.2229    8.2667   -4.5034 H   0  0  0  1  0  0  0  0  0  0  0  0
   13.0300    9.0504   -2.9534 H   0  0  0  1  0  0  0  0  0  0  0  0
   12.8947   10.3490   -4.6119 C   0  0  0  1  0  0  0  0  0  0  0  0
   12.2779   11.0661   -4.1117 H   0  0  0  1  0  0  0  0  0  0  0  0
   12.5959   10.2739   -5.6366 H   0  0  0  1  0  0  0  0  0  0  0  0
   14.5963   10.9484   -4.5685 S   0  0  0  1  0  0  0  0  0  0  0  0
   15.2005   10.4681   -6.1455 C   0  0  0  1  0  0  0  0  0  0  0  0
   14.5725    9.8583   -6.9684 O   0  0  0  1  0  0  0  0  0  0  0  0
   16.6402   10.9057   -6.3906 C   0  0  0  1  0  0  0  0  0  0  0  0
   16.8776   11.7285   -5.7490 H   0  0  0  1  0  0  0  0  0  0  0  0
   16.7526   11.2059   -7.4114 H   0  0  0  1  0  0  0  0  0  0  0  0
   17.3009   10.0900   -6.1834 H   0  0  0  1  0  0  0  0  0  0  0  0
  1  2  1  0  0  0  0
  1  7  2  0  0  0  0
  2  3  1  0  0  0  0
  2  4  2  0  0  0  0
  4  5  1  0  0  0  0
  5  6  2  0  0  0  0
  5 14  1  0  0  0  0
  6  7  1  0  0  0  0
  6 11  1  0  0  0  0
  7  8  1  0  0  0  0
  8  9  1  0  0  0  0
  8 10  1  0  0  0  0
 11 12  2  0  0  0  0
 12 13  1  0  0  0  0
 12 14  1  0  0  0  0
 14 15  1  0  0  0  0
 15 16  1  0  0  0  0
 15 17  1  0  0  0  0
 15 30  1  0  0  0  0
 17 18  1  0  0  0  0
 17 19  1  0  0  0  0
 17 21  1  0  0  0  0
 19 20  1  0  0  0  0
 21 22  1  0  0  0  0
 21 23  1  0  0  0  0
 21 28  1  0  0  0  0
 23 24  1  0  0  0  0
 24 25  1  0  0  0  0
 24 26  2  0  0  0  0
 24 27  1  0  0  0  0
 28 29  1  0  0  0  0
 28 30  1  0  0  0  0
 28 31  1  0  0  0  0
 31 32  1  0  0  0  0
 31 33  1  0  0  0  0
 31 34  1  0  0  0  0
 34 35  1  0  0  0  0
 35 36  1  0  0  0  0
 35 37  2  0  0  0  0
 35 38  1  0  0  0  0
 38 39  1  0  0  0  0
 39 40  2  0  0  0  0
 39 41  1  0  0  0  0
 39 42  1  0  0  0  0
 42 44  1  0  0  0  0
 43 44  1  0  0  0  0
 43 47  1  0  0  0  0
 43 51  1  0  0  0  0
 43 55  1  0  0  0  0
 44 45  1  0  0  0  0
 44 46  1  0  0  0  0
 47 48  1  0  0  0  0
 47 49  1  0  0  0  0
 47 50  1  0  0  0  0
 51 52  1  0  0  0  0
 51 53  1  0  0  0  0
 51 54  1  0  0  0  0
 55 56  1  0  0  0  0
 55 57  1  0  0  0  0
 55 59  1  0  0  0  0
 57 58  1  0  0  0  0
 59 60  2  0  0  0  0
 59 61  1  0  0  0  0
 61 62  1  0  0  0  0
 61 63  1  0  0  0  0
 63 64  1  0  0  0  0
 63 65  1  0  0  0  0
 63 66  1  0  0  0  0
 66 67  1  0  0  0  0
 66 68  1  0  0  0  0
 66 69  1  0  0  0  0
 69 70  2  0  0  0  0
 69 71  1  0  0  0  0
 71 72  1  0  0  0  0
 71 73  1  0  0  0  0
 73 74  1  0  0  0  0
 73 75  1  0  0  0  0
 73 76  1  0  0  0  0
 76 77  1  0  0  0  0
 76 78  1  0  0  0  0
 76 79  1  0  0  0  0
 79 80  1  0  0  0  0
 80 81  2  0  0  0  0
 80 82  1  0  0  0  0
 82 83  1  0  0  0  0
 82 84  1  0  0  0  0
 82 85  1  0  0  0  0
M  BCL ATM N_Tr2TrTrPi C_TrTrTrPi H_S N_Tr2TrTrPi C_TrTrTrPi C_TrTrTrPi C_TrTrTrPi N_TrTrTrPi2 H_S H_S N_Tr2TrTrPi C_TrTrTrPi H_S N_TrTrTrPi2 C_TeTeTeTe H_S C_TeTeTeTe H_S O_Te2Te2TeTe H_S C_TeTeTeTe H_S O_Tr2TrTrPi2 P_TeTeTeTePi O_Te2Te2TeTe O_Tr2Tr2TrPi O_Te2Te2Te2Te C_TeTeTeTe H_S O_Te2Te2TeTe C_TeTeTeTe H_S H_S O_Tr2TrTrPi2 P_TeTeTeTePi O_Te2Te2TeTe O_Tr2Tr2TrPi O_Tr2TrTrPi2 P_TeTeTeTePi O_Tr2Tr2TrPi O_Te2Te2Te2Te O_Tr2TrTrPi2 C_TeTeTeTe C_TeTeTeTe H_S H_S C_TeTeTeTe H_S H_S H_S C_TeTeTeTe H_S H_S H_S C_TeTeTeTe H_S O_Te2Te2TeTe H_S C_TrTrTrPi O_Tr2Tr2TrPi N_TrTrTrPi2 H_S C_TeTeTeTe H_S H_S C_TeTeTeTe H_S H_S C_TrTrTrPi O_Tr2Tr2TrPi N_TrTrTrPi2 H_S C_TeTeTeTe H_S H_S C_TeTeTeTe H_S H_S S_Te2Te2TeTe C_TrTrTrPi O_Tr2Tr2TrPi C_TeTeTeTe H_S H_S H_S
M  BCL BND AromaticSingleBond AromaticDoubleBond NonConjugatedSingleBond AromaticDoubleBond AromaticSingleBond AromaticDoubleBond AromaticSingleBond AromaticSingleBond AromaticSingleBond ConjugatedSingleBond NonConjugatedSingleBond NonConjugatedSingleBond AromaticDoubleBond NonConjugatedSingleBond AromaticSingleBond NonConjugatedSingleBond NonConjugatedSingleBond NonConjugatedSingleBondInRing NonConjugatedSingleBondInRing NonConjugatedSingleBond NonConjugatedSingleBond NonConjugatedSingleBondInRing NonConjugatedSingleBond NonConjugatedSingleBond NonConjugatedSingleBond NonConjugatedSingleBondInRing ConjugatedSingleBond ConjugatedSingleBond ConjugatedDoubleBond ConjugatedSingleBond NonConjugatedSingleBond NonConjugatedSingleBondInRing NonConjugatedSingleBond NonConjugatedSingleBond NonConjugatedSingleBond NonConjugatedSingleBond ConjugatedSingleBond ConjugatedSingleBond ConjugatedDoubleBond ConjugatedSingleBond ConjugatedSingleBond ConjugatedDoubleBond ConjugatedSingleBond ConjugatedSingleBond NonConjugatedSingleBond NonConjugatedSingleBond NonConjugatedSingleBond NonConjugatedSingleBond NonConjugatedSingleBond NonConjugatedSingleBond NonConjugatedSingleBond NonConjugatedSingleBond NonConjugatedSingleBond NonConjugatedSingleBond NonConjugatedSingleBond NonConjugatedSingleBond NonConjugatedSingleBond NonConjugatedSingleBond NonConjugatedSingleBond NonConjugatedSingleBond NonConjugatedSingleBond ConjugatedDoubleBond AmideSingleBond NonConjugatedSingleBond NonConjugatedSingleBond NonConjugatedSingleBond NonConjugatedSingleBond NonConjugatedSingleBond NonConjugatedSingleBond NonConjugatedSingleBond NonConjugatedSingleBond ConjugatedDoubleBond AmideSingleBond NonConjugatedSingleBond NonConjugatedSingleBond NonConjugatedSingleBond NonConjugatedSingleBond NonConjugatedSingleBond NonConjugatedSingleBond NonConjugatedSingleBond NonConjugatedSingleBond ConjugatedSingleBond ConjugatedDoubleBond NonConjugatedSingleBond NonConjugatedSingleBond NonConjugatedSingleBond NonConjugatedSingleBond
M  BCL CHI  15   S  17   S  21   S  24   S  28   R  35   R  39   R  55   S
M  BCL DBI - - - - - - - - - -
M  END
> <ConfClashScore>
0 

> <ConfOneFourInteractionScore>
-0.977761 

> <ConfScore>
0.0280382 

> <ConfScorePBest>
0.0105665 

> <ConfTolerance>
2.49831 

$$$$
ACO.****
  PyMOL2.5          3D                             0

 85 87  0  0  0  0  0  0  0  0999 V2000
    4.9053    1.0991  -10.6168 N   0  0  0  1  0  0  0  0  0  0  0  0
    3.8423    1.9136  -10.5242 C   0  0  0  1  0  0  0  0  0  0  0  0
    3.8083    2.6892  -11.2162 H   0  0  0  1  0  0  0  0  0  0  0  0
    2.8286    1.8627   -9.6688 N   0  0  0  1  0  0  0  0  0  0  0  0
    2.9546    0.8360   -8.8269 C   0  0  0  1  0  0  0  0  0  0  0  0
    4.0005   -0.0961   -8.7936 C   0  0  0  1  0  0  0  0  0  0  0  0
    4.9986    0.0885   -9.7458 C   0  0  0  1  0  0  0  0  0  0  0  0
    6.0623   -0.7854   -9.9003 N   0  0  0  1  0  0  0  0  0  0  0  0
    6.1909   -1.5183   -9.2626 H   0  0  0  1  0  0  0  0  0  0  0  0
    6.6862   -0.6707  -10.6473 H   0  0  0  1  0  0  0  0  0  0  0  0
    3.7960   -1.0114   -7.7728 N   0  0  0  1  0  0  0  0  0  0  0  0
    2.6700   -0.6253   -7.2372 C   0  0  0  1  0  0  0  0  0  0  0  0
    2.2336   -1.1216   -6.4342 H   0  0  0  1  0  0  0  0  0  0  0  0
    2.1100    0.4758   -7.8088 N   0  0  0  1  0  0  0  0  0  0  0  0
    0.8659    1.1380   -7.4188 C   0  0  0  1  0  0  0  0  0  0  0  0
    0.3205    0.5071   -6.7484 H   0  0  0  1  0  0  0  0  0  0  0  0
    1.1519    2.5168   -6.7723 C   0  0  0  1  0  0  0  0  0  0  0  0
    1.9698    3.0099   -7.2547 H   0  0  0  1  0  0  0  0  0  0  0  0
    1.4293    2.3875   -5.3753 O   0  0  0  1  0  0  0  0  0  0  0  0
    2.1595    1.7772   -5.2488 H   0  0  0  1  0  0  0  0  0  0  0  0
   -0.1822    3.2711   -7.0140 C   0  0  0  1  0  0  0  0  0  0  0  0
    0.0008    4.2910   -7.2805 H   0  0  0  1  0  0  0  0  0  0  0  0
   -1.0250    3.2225   -5.8297 O   0  0  0  1  0  0  0  0  0  0  0  0
   -2.0908    4.4262   -5.5063 P   0  0  0  1  0  0  0  0  0  0  0  0
   -2.5718    4.0625   -3.9812 O   0  0  0  0  0  0  0  0  0  0  0  0
   -1.5163    5.7896   -5.4679 O   0  0  0  1  0  0  0  0  0  0  0  0
   -3.4529    4.3251   -6.3775 O   0  5  0  1  0  0  0  0  0  0  0  0
   -0.8361    2.5086   -8.1829 C   0  0  0  1  0  0  0  0  0  0  0  0
   -1.7657    2.0829   -7.8673 H   0  0  0  1  0  0  0  0  0  0  0  0
    0.0717    1.4673   -8.5781 O   0  0  0  1  0  0  0  0  0  0  0  0
   -1.0763    3.4376   -9.3272 C   0  0  0  1  0  0  0  0  0  0  0  0
   -1.6948    4.2518   -9.0119 H   0  0  0  1  0  0  0  0  0  0  0  0
   -1.5559    2.9137  -10.1274 H   0  0  0  1  0  0  0  0  0  0  0  0
    0.2094    3.9364   -9.7655 O   0  0  0  1  0  0  0  0  0  0  0  0
    0.2647    4.8896  -11.0499 P   0  0  0  1  0  0  0  0  0  0  0  0
   -0.5545    4.2896  -12.1437 O   0  0  0  0  0  0  0  0  0  0  0  0
    1.6813    5.2421  -11.2791 O   0  0  0  1  0  0  0  0  0  0  0  0
   -0.4817    6.2287  -10.5336 O   0  0  0  1  0  0  0  0  0  0  0  0
   -0.3953    7.6910  -11.2712 P   0  0  0  1  0  0  0  0  0  0  0  0
    0.2197    7.4562  -12.5967 O   0  0  0  1  0  0  0  0  0  0  0  0
   -1.7530    8.5354  -11.0104 O   0  5  0  1  0  0  0  0  0  0  0  0
    0.6279    8.4501  -10.3477 O   0  0  0  1  0  0  0  0  0  0  0  0
    1.3176   10.7262  -10.7178 C   0  0  0  1  0  0  0  0  0  0  0  0
    1.6574    9.3045  -10.9196 C   0  0  0  1  0  0  0  0  0  0  0  0
    1.7370    9.1066  -11.9681 H   0  0  0  1  0  0  0  0  0  0  0  0
    2.5930    9.0950  -10.4446 H   0  0  0  1  0  0  0  0  0  0  0  0
    0.0623   11.0784  -11.5237 C   0  0  0  1  0  0  0  0  0  0  0  0
    0.2906   11.0550  -12.5688 H   0  0  0  1  0  0  0  0  0  0  0  0
   -0.2712   12.0585  -11.2536 H   0  0  0  1  0  0  0  0  0  0  0  0
   -0.7087   10.3675  -11.3112 H   0  0  0  1  0  0  0  0  0  0  0  0
    2.4851   11.6010  -11.1747 C   0  0  0  1  0  0  0  0  0  0  0  0
    2.7149   11.3845  -12.1971 H   0  0  0  1  0  0  0  0  0  0  0  0
    3.3416   11.3986  -10.5663 H   0  0  0  1  0  0  0  0  0  0  0  0
    2.2158   12.6323  -11.0807 H   0  0  0  1  0  0  0  0  0  0  0  0
    1.1245   10.9424   -9.2094 C   0  0  0  1  0  0  0  0  0  0  0  0
    0.8881   11.9710   -9.0335 H   0  0  0  1  0  0  0  0  0  0  0  0
    0.0454   10.1056   -8.7996 O   0  0  0  1  0  0  0  0  0  0  0  0
   -0.7320   10.3039   -9.3268 H   0  0  0  1  0  0  0  0  0  0  0  0
    2.4199   10.5983   -8.4901 C   0  0  0  1  0  0  0  0  0  0  0  0
    2.6201    9.4711   -8.0396 O   0  0  0  1  0  0  0  0  0  0  0  0
    3.3114   11.5964   -8.3850 N   0  0  0  1  0  0  0  0  0  0  0  0
    3.0932   12.4685   -8.7751 H   0  0  0  1  0  0  0  0  0  0  0  0
    4.5907   11.4284   -7.7119 C   0  0  0  1  0  0  0  0  0  0  0  0
    4.4897   10.6391   -6.9965 H   0  0  0  1  0  0  0  0  0  0  0  0
    4.8233   12.3418   -7.2055 H   0  0  0  1  0  0  0  0  0  0  0  0
    5.7545   11.0873   -8.6334 C   0  0  0  1  0  0  0  0  0  0  0  0
    6.6350   10.9630   -8.0383 H   0  0  0  1  0  0  0  0  0  0  0  0
    5.8967   11.8983   -9.3168 H   0  0  0  1  0  0  0  0  0  0  0  0
    5.5280    9.8179   -9.4312 C   0  0  0  1  0  0  0  0  0  0  0  0
    4.3962    9.3767   -9.6206 O   0  0  0  1  0  0  0  0  0  0  0  0
    6.6282    9.2256   -9.9042 N   0  0  0  1  0  0  0  0  0  0  0  0
    7.5033    9.6062   -9.6813 H   0  0  0  1  0  0  0  0  0  0  0  0
    6.5724    8.0358  -10.7384 C   0  0  0  1  0  0  0  0  0  0  0  0
    5.5714    7.6580  -10.7300 H   0  0  0  1  0  0  0  0  0  0  0  0
    7.2351    7.3007  -10.3318 H   0  0  0  1  0  0  0  0  0  0  0  0
    6.9732    8.3111  -12.1665 C   0  0  0  1  0  0  0  0  0  0  0  0
    7.0267    7.3962  -12.7189 H   0  0  0  1  0  0  0  0  0  0  0  0
    7.9234    8.8022  -12.1962 H   0  0  0  1  0  0  0  0  0  0  0  0
    5.6948    9.3825  -12.8553 S   0  0  0  1  0  0  0  0  0  0  0  0
    5.9950    9.2522  -14.6026 C   0  0  0  1  0  0  0  0  0  0  0  0
    6.7902    8.4911  -15.0840 O   0  0  0  1  0  0  0  0  0  0  0  0
    5.1382   10.2048  -15.4039 C   0  0  0  1  0  0  0  0  0  0  0  0
    5.6966   11.0915  -15.6204 H   0  0  0  1  0  0  0  0  0  0  0  0
    4.2666   10.4615  -14.8388 H   0  0  0  1  0  0  0  0  0  0  0  0
    4.8447    9.7358  -16.3198 H   0  0  0  1  0  0  0  0  0  0  0  0
  1  2  1  0  0  0  0
  1  7  2  0  0  0  0
  2  3  1  0  0  0  0
  2  4  2  0  0  0  0
  4  5  1  0  0  0  0
  5  6  2  0  0  0  0
  5 14  1  0  0  0  0
  6  7  1  0  0  0  0
  6 11  1  0  0  0  0
  7  8  1  0  0  0  0
  8  9  1  0  0  0  0
  8 10  1  0  0  0  0
 11 12  2  0  0  0  0
 12 13  1  0  0  0  0
 12 14  1  0  0  0  0
 14 15  1  0  0  0  0
 15 16  1  0  0  0  0
 15 17  1  0  0  0  0
 15 30  1  0  0  0  0
 17 18  1  0  0  0  0
 17 19  1  0  0  0  0
 17 21  1  0  0  0  0
 19 20  1  0  0  0  0
 21 22  1  0  0  0  0
 21 23  1  0  0  0  0
 21 28  1  0  0  0  0
 23 24  1  0  0  0  0
 24 25  1  0  0  0  0
 24 26  2  0  0  0  0
 24 27  1  0  0  0  0
 28 29  1  0  0  0  0
 28 30  1  0  0  0  0
 28 31  1  0  0  0  0
 31 32  1  0  0  0  0
 31 33  1  0  0  0  0
 31 34  1  0  0  0  0
 34 35  1  0  0  0  0
 35 36  1  0  0  0  0
 35 37  2  0  0  0  0
 35 38  1  0  0  0  0
 38 39  1  0  0  0  0
 39 40  2  0  0  0  0
 39 41  1  0  0  0  0
 39 42  1  0  0  0  0
 42 44  1  0  0  0  0
 43 44  1  0  0  0  0
 43 47  1  0  0  0  0
 43 51  1  0  0  0  0
 43 55  1  0  0  0  0
 44 45  1  0  0  0  0
 44 46  1  0  0  0  0
 47 48  1  0  0  0  0
 47 49  1  0  0  0  0
 47 50  1  0  0  0  0
 51 52  1  0  0  0  0
 51 53  1  0  0  0  0
 51 54  1  0  0  0  0
 55 56  1  0  0  0  0
 55 57  1  0  0  0  0
 55 59  1  0  0  0  0
 57 58  1  0  0  0  0
 59 60  2  0  0  0  0
 59 61  1  0  0  0  0
 61 62  1  0  0  0  0
 61 63  1  0  0  0  0
 63 64  1  0  0  0  0
 63 65  1  0  0  0  0
 63 66  1  0  0  0  0
 66 67  1  0  0  0  0
 66 68  1  0  0  0  0
 66 69  1  0  0  0  0
 69 70  2  0  0  0  0
 69 71  1  0  0  0  0
 71 72  1  0  0  0  0
 71 73  1  0  0  0  0
 73 74  1  0  0  0  0
 73 75  1  0  0  0  0
 73 76  1  0  0  0  0
 76 77  1  0  0  0  0
 76 78  1  0  0  0  0
 76 79  1  0  0  0  0
 79 80  1  0  0  0  0
 80 81  2  0  0  0  0
 80 82  1  0  0  0  0
 82 83  1  0  0  0  0
 82 84  1  0  0  0  0
 82 85  1  0  0  0  0
M  BCL ATM N_Tr2TrTrPi C_TrTrTrPi H_S N_Tr2TrTrPi C_TrTrTrPi C_TrTrTrPi C_TrTrTrPi N_TrTrTrPi2 H_S H_S N_Tr2TrTrPi C_TrTrTrPi H_S N_TrTrTrPi2 C_TeTeTeTe H_S C_TeTeTeTe H_S O_Te2Te2TeTe H_S C_TeTeTeTe H_S O_Tr2TrTrPi2 P_TeTeTeTePi O_Te2Te2TeTe O_Tr2Tr2TrPi O_Te2Te2Te2Te C_TeTeTeTe H_S O_Te2Te2TeTe C_TeTeTeTe H_S H_S O_Tr2TrTrPi2 P_TeTeTeTePi O_Te2Te2TeTe O_Tr2Tr2TrPi O_Tr2TrTrPi2 P_TeTeTeTePi O_Tr2Tr2TrPi O_Te2Te2Te2Te O_Tr2TrTrPi2 C_TeTeTeTe C_TeTeTeTe H_S H_S C_TeTeTeTe H_S H_S H_S C_TeTeTeTe H_S H_S H_S C_TeTeTeTe H_S O_Te2Te2TeTe H_S C_TrTrTrPi O_Tr2Tr2TrPi N_TrTrTrPi2 H_S C_TeTeTeTe H_S H_S C_TeTeTeTe H_S H_S C_TrTrTrPi O_Tr2Tr2TrPi N_TrTrTrPi2 H_S C_TeTeTeTe H_S H_S C_TeTeTeTe H_S H_S S_Te2Te2TeTe C_TrTrTrPi O_Tr2Tr2TrPi C_TeTeTeTe H_S H_S H_S
M  BCL BND AromaticSingleBond AromaticDoubleBond NonConjugatedSingleBond AromaticDoubleBond AromaticSingleBond AromaticDoubleBond AromaticSingleBond AromaticSingleBond AromaticSingleBond ConjugatedSingleBond NonConjugatedSingleBond NonConjugatedSingleBond AromaticDoubleBond NonConjugatedSingleBond AromaticSingleBond NonConjugatedSingleBond NonConjugatedSingleBond NonConjugatedSingleBondInRing NonConjugatedSingleBondInRing NonConjugatedSingleBond NonConjugatedSingleBond NonConjugatedSingleBondInRing NonConjugatedSingleBond NonConjugatedSingleBond NonConjugatedSingleBond NonConjugatedSingleBondInRing ConjugatedSingleBond ConjugatedSingleBond ConjugatedDoubleBond ConjugatedSingleBond NonConjugatedSingleBond NonConjugatedSingleBondInRing NonConjugatedSingleBond NonConjugatedSingleBond NonConjugatedSingleBond NonConjugatedSingleBond ConjugatedSingleBond ConjugatedSingleBond ConjugatedDoubleBond ConjugatedSingleBond ConjugatedSingleBond ConjugatedDoubleBond ConjugatedSingleBond ConjugatedSingleBond NonConjugatedSingleBond NonConjugatedSingleBond NonConjugatedSingleBond NonConjugatedSingleBond NonConjugatedSingleBond NonConjugatedSingleBond NonConjugatedSingleBond NonConjugatedSingleBond NonConjugatedSingleBond NonConjugatedSingleBond NonConjugatedSingleBond NonConjugatedSingleBond NonConjugatedSingleBond NonConjugatedSingleBond NonConjugatedSingleBond NonConjugatedSingleBond NonConjugatedSingleBond ConjugatedDoubleBond AmideSingleBond NonConjugatedSingleBond NonConjugatedSingleBond NonConjugatedSingleBond NonConjugatedSingleBond NonConjugatedSingleBond NonConjugatedSingleBond NonConjugatedSingleBond NonConjugatedSingleBond ConjugatedDoubleBond AmideSingleBond NonConjugatedSingleBond NonConjugatedSingleBond NonConjugatedSingleBond NonConjugatedSingleBond NonConjugatedSingleBond NonConjugatedSingleBond NonConjugatedSingleBond NonConjugatedSingleBond ConjugatedSingleBond ConjugatedDoubleBond NonConjugatedSingleBond NonConjugatedSingleBond NonConjugatedSingleBond NonConjugatedSingleBond
M  BCL CHI  15   S  17   S  21   S  24   S  28   R  35   R  39   R  55   S
M  BCL DBI - - - - - - - - - -
M  END
> <ConfClashScore>
0 

> <ConfOneFourInteractionScore>
-0.9798 

> <ConfScore>
0.0290703 

> <ConfScorePBest>
0.0104635 

> <ConfTolerance>
2.58935 

$$$$
ACO.****
  PyMOL2.5          3D                             0

 85 87  0  0  0  0  0  0  0  0999 V2000
    4.8993    1.0995  -10.6169 N   0  0  0  1  0  0  0  0  0  0  0  0
    3.8291    1.9052  -10.5309 C   0  0  0  1  0  0  0  0  0  0  0  0
    3.7922    2.6796  -11.2241 H   0  0  0  1  0  0  0  0  0  0  0  0
    2.8116    1.8471   -9.6804 N   0  0  0  1  0  0  0  0  0  0  0  0
    2.9420    0.8226   -8.8364 C   0  0  0  1  0  0  0  0  0  0  0  0
    3.9954   -0.1006   -8.7965 C   0  0  0  1  0  0  0  0  0  0  0  0
    4.9967    0.0909   -9.7440 C   0  0  0  1  0  0  0  0  0  0  0  0
    6.0759   -0.7803   -9.8929 N   0  0  0  1  0  0  0  0  0  0  0  0
    6.1728   -1.5476   -9.2910 H   0  0  0  1  0  0  0  0  0  0  0  0
    6.7371   -0.6250  -10.5993 H   0  0  0  1  0  0  0  0  0  0  0  0
    3.7934   -1.0161   -7.7754 N   0  0  0  1  0  0  0  0  0  0  0  0
    2.6615   -0.6387   -7.2460 C   0  0  0  1  0  0  0  0  0  0  0  0
    2.2252   -1.1375   -6.4445 H   0  0  0  1  0  0  0  0  0  0  0  0
    2.0953    0.4569   -7.8220 N   0  0  0  1  0  0  0  0  0  0  0  0
    0.9254    1.2180   -7.3738 C   0  0  0  1  0  0  0  0  0  0  0  0
    1.2092    2.2328   -7.1882 H   0  0  0  1  0  0  0  0  0  0  0  0
   -0.1904    1.1531   -8.4158 C   0  0  0  1  0  0  0  0  0  0  0  0
    0.2049    1.0613   -9.4059 H   0  0  0  1  0  0  0  0  0  0  0  0
   -1.0381    2.3026   -8.3449 O   0  0  0  1  0  0  0  0  0  0  0  0
   -1.1953    2.5286   -7.4252 H   0  0  0  1  0  0  0  0  0  0  0  0
   -0.9220   -0.0963   -7.9978 C   0  0  0  1  0  0  0  0  0  0  0  0
   -0.4221   -0.9741   -8.3507 H   0  0  0  1  0  0  0  0  0  0  0  0
   -2.2931   -0.0904   -8.4826 O   0  0  0  1  0  0  0  0  0  0  0  0
   -2.5792    0.3895  -10.0246 P   0  0  0  1  0  0  0  0  0  0  0  0
   -2.6442    2.0272   -9.9687 O   0  0  0  0  0  0  0  0  0  0  0  0
   -1.6253   -0.0903  -11.0495 O   0  0  0  1  0  0  0  0  0  0  0  0
   -4.0303   -0.1260  -10.5274 O   0  5  0  1  0  0  0  0  0  0  0  0
   -0.8747   -0.0088   -6.4831 C   0  0  0  1  0  0  0  0  0  0  0  0
   -1.6939    0.5739   -6.1167 H   0  0  0  1  0  0  0  0  0  0  0  0
    0.3527    0.6199   -6.1791 O   0  0  0  1  0  0  0  0  0  0  0  0
   -0.9242   -1.3578   -5.8871 C   0  0  0  1  0  0  0  0  0  0  0  0
    0.0039   -1.8580   -6.0697 H   0  0  0  1  0  0  0  0  0  0  0  0
   -1.7227   -1.9117   -6.3350 H   0  0  0  1  0  0  0  0  0  0  0  0
   -1.1467   -1.2714   -4.4566 O   0  0  0  1  0  0  0  0  0  0  0  0
   -1.1942   -2.5548   -3.5776 P   0  0  0  1  0  0  0  0  0  0  0  0
   -0.1221   -3.5427   -4.0473 O   0  0  0  0  0  0  0  0  0  0  0  0
   -2.5651   -3.0933   -3.6499 O   0  0  0  1  0  0  0  0  0  0  0  0
   -0.7631   -2.1643   -2.0793 O   0  0  0  1  0  0  0  0  0  0  0  0
   -0.6734   -3.1470   -0.7694 P   0  0  0  1  0  0  0  0  0  0  0  0
   -2.0414   -3.6715   -0.5595 O   0  0  0  1  0  0  0  0  0  0  0  0
    0.3343   -4.3312   -1.2240 O   0  5  0  1  0  0  0  0  0  0  0  0
   -0.0803   -2.3892    0.4713 O   0  0  0  1  0  0  0  0  0  0  0  0
   -0.4460   -1.2692    2.5599 C   0  0  0  1  0  0  0  0  0  0  0  0
   -0.7500   -1.2841    1.1160 C   0  0  0  1  0  0  0  0  0  0  0  0
   -1.8065   -1.3843    0.9794 H   0  0  0  1  0  0  0  0  0  0  0  0
   -0.4185   -0.3665    0.6767 H   0  0  0  1  0  0  0  0  0  0  0  0
   -0.8583    0.0943    3.1275 C   0  0  0  1  0  0  0  0  0  0  0  0
   -1.9069    0.2425    2.9745 H   0  0  0  1  0  0  0  0  0  0  0  0
   -0.3125    0.8677    2.6287 H   0  0  0  1  0  0  0  0  0  0  0  0
   -0.6433    0.1240    4.1752 H   0  0  0  1  0  0  0  0  0  0  0  0
    1.0569   -1.4535    2.7780 C   0  0  0  1  0  0  0  0  0  0  0  0
    1.5727   -0.5646    2.4802 H   0  0  0  1  0  0  0  0  0  0  0  0
    1.4033   -2.2796    2.1928 H   0  0  0  1  0  0  0  0  0  0  0  0
    1.2459   -1.6452    3.8136 H   0  0  0  1  0  0  0  0  0  0  0  0
   -1.2121   -2.3736    3.3045 C   0  0  0  1  0  0  0  0  0  0  0  0
   -1.0749   -3.2874    2.7650 H   0  0  0  1  0  0  0  0  0  0  0  0
   -0.7368   -2.5356    4.6307 O   0  0  0  1  0  0  0  0  0  0  0  0
   -1.3326   -2.0948    5.2408 H   0  0  0  1  0  0  0  0  0  0  0  0
   -2.7004   -2.0597    3.3252 C   0  0  0  1  0  0  0  0  0  0  0  0
   -3.2781   -1.6742    2.3097 O   0  0  0  1  0  0  0  0  0  0  0  0
   -3.3623   -2.2157    4.4826 N   0  0  0  1  0  0  0  0  0  0  0  0
   -2.9243   -2.6942    5.2172 H   0  0  0  1  0  0  0  0  0  0  0  0
   -4.7078   -1.6991    4.6845 C   0  0  0  1  0  0  0  0  0  0  0  0
   -4.7998   -0.7855    4.1352 H   0  0  0  1  0  0  0  0  0  0  0  0
   -4.8362   -1.5028    5.7284 H   0  0  0  1  0  0  0  0  0  0  0  0
   -5.8226   -2.6357    4.2373 C   0  0  0  1  0  0  0  0  0  0  0  0
   -5.7511   -2.7688    3.1780 H   0  0  0  1  0  0  0  0  0  0  0  0
   -6.7628   -2.1853    4.4780 H   0  0  0  1  0  0  0  0  0  0  0  0
   -5.7564   -3.9866    4.8951 C   0  0  0  1  0  0  0  0  0  0  0  0
   -4.9065   -4.3082    5.7039 O   0  0  0  1  0  0  0  0  0  0  0  0
   -6.7060   -4.8543    4.5419 N   0  0  0  1  0  0  0  0  0  0  0  0
   -7.3012   -4.5999    3.8060 H   0  0  0  1  0  0  0  0  0  0  0  0
   -6.9262   -6.1589    5.1712 C   0  0  0  1  0  0  0  0  0  0  0  0
   -6.1218   -6.3658    5.8457 H   0  0  0  1  0  0  0  0  0  0  0  0
   -6.9611   -6.9145    4.4144 H   0  0  0  1  0  0  0  0  0  0  0  0
   -8.2376   -6.1578    5.9397 C   0  0  0  1  0  0  0  0  0  0  0  0
   -8.3052   -7.0784    6.4808 H   0  0  0  1  0  0  0  0  0  0  0  0
   -9.0370   -6.1005    5.2309 H   0  0  0  1  0  0  0  0  0  0  0  0
   -8.4353   -4.7999    7.1179 S   0  0  0  1  0  0  0  0  0  0  0  0
   -7.0661   -4.9447    8.3093 C   0  0  0  1  0  0  0  0  0  0  0  0
   -6.2150   -5.7905    8.2477 O   0  0  0  1  0  0  0  0  0  0  0  0
   -7.2350   -3.9710    9.4671 C   0  0  0  1  0  0  0  0  0  0  0  0
   -7.9911   -4.3339   10.1315 H   0  0  0  1  0  0  0  0  0  0  0  0
   -7.5235   -3.0130    9.0879 H   0  0  0  1  0  0  0  0  0  0  0  0
   -6.3090   -3.8818    9.9957 H   0  0  0  1  0  0  0  0  0  0  0  0
  1  2  1  0  0  0  0
  1  7  2  0  0  0  0
  2  3  1  0  0  0  0
  2  4  2  0  0  0  0
  4  5  1  0  0  0  0
  5  6  2  0  0  0  0
  5 14  1  0  0  0  0
  6  7  1  0  0  0  0
  6 11  1  0  0  0  0
  7  8  1  0  0  0  0
  8  9  1  0  0  0  0
  8 10  1  0  0  0  0
 11 12  2  0  0  0  0
 12 13  1  0  0  0  0
 12 14  1  0  0  0  0
 14 15  1  0  0  0  0
 15 16  1  0  0  0  0
 15 17  1  0  0  0  0
 15 30  1  0  0  0  0
 17 18  1  0  0  0  0
 17 19  1  0  0  0  0
 17 21  1  0  0  0  0
 19 20  1  0  0  0  0
 21 22  1  0  0  0  0
 21 23  1  0  0  0  0
 21 28  1  0  0  0  0
 23 24  1  0  0  0  0
 24 25  1  0  0  0  0
 24 26  2  0  0  0  0
 24 27  1  0  0  0  0
 28 29  1  0  0  0  0
 28 30  1  0  0  0  0
 28 31  1  0  0  0  0
 31 32  1  0  0  0  0
 31 33  1  0  0  0  0
 31 34  1  0  0  0  0
 34 35  1  0  0  0  0
 35 36  1  0  0  0  0
 35 37  2  0  0  0  0
 35 38  1  0  0  0  0
 38 39  1  0  0  0  0
 39 40  2  0  0  0  0
 39 41  1  0  0  0  0
 39 42  1  0  0  0  0
 42 44  1  0  0  0  0
 43 44  1  0  0  0  0
 43 47  1  0  0  0  0
 43 51  1  0  0  0  0
 43 55  1  0  0  0  0
 44 45  1  0  0  0  0
 44 46  1  0  0  0  0
 47 48  1  0  0  0  0
 47 49  1  0  0  0  0
 47 50  1  0  0  0  0
 51 52  1  0  0  0  0
 51 53  1  0  0  0  0
 51 54  1  0  0  0  0
 55 56  1  0  0  0  0
 55 57  1  0  0  0  0
 55 59  1  0  0  0  0
 57 58  1  0  0  0  0
 59 60  2  0  0  0  0
 59 61  1  0  0  0  0
 61 62  1  0  0  0  0
 61 63  1  0  0  0  0
 63 64  1  0  0  0  0
 63 65  1  0  0  0  0
 63 66  1  0  0  0  0
 66 67  1  0  0  0  0
 66 68  1  0  0  0  0
 66 69  1  0  0  0  0
 69 70  2  0  0  0  0
 69 71  1  0  0  0  0
 71 72  1  0  0  0  0
 71 73  1  0  0  0  0
 73 74  1  0  0  0  0
 73 75  1  0  0  0  0
 73 76  1  0  0  0  0
 76 77  1  0  0  0  0
 76 78  1  0  0  0  0
 76 79  1  0  0  0  0
 79 80  1  0  0  0  0
 80 81  2  0  0  0  0
 80 82  1  0  0  0  0
 82 83  1  0  0  0  0
 82 84  1  0  0  0  0
 82 85  1  0  0  0  0
M  BCL ATM N_Tr2TrTrPi C_TrTrTrPi H_S N_Tr2TrTrPi C_TrTrTrPi C_TrTrTrPi C_TrTrTrPi N_TrTrTrPi2 H_S H_S N_Tr2TrTrPi C_TrTrTrPi H_S N_TrTrTrPi2 C_TeTeTeTe H_S C_TeTeTeTe H_S O_Te2Te2TeTe H_S C_TeTeTeTe H_S O_Tr2TrTrPi2 P_TeTeTeTePi O_Te2Te2TeTe O_Tr2Tr2TrPi O_Te2Te2Te2Te C_TeTeTeTe H_S O_Te2Te2TeTe C_TeTeTeTe H_S H_S O_Tr2TrTrPi2 P_TeTeTeTePi O_Te2Te2TeTe O_Tr2Tr2TrPi O_Tr2TrTrPi2 P_TeTeTeTePi O_Tr2Tr2TrPi O_Te2Te2Te2Te O_Tr2TrTrPi2 C_TeTeTeTe C_TeTeTeTe H_S H_S C_TeTeTeTe H_S H_S H_S C_TeTeTeTe H_S H_S H_S C_TeTeTeTe H_S O_Te2Te2TeTe H_S C_TrTrTrPi O_Tr2Tr2TrPi N_TrTrTrPi2 H_S C_TeTeTeTe H_S H_S C_TeTeTeTe H_S H_S C_TrTrTrPi O_Tr2Tr2TrPi N_TrTrTrPi2 H_S C_TeTeTeTe H_S H_S C_TeTeTeTe H_S H_S S_Te2Te2TeTe C_TrTrTrPi O_Tr2Tr2TrPi C_TeTeTeTe H_S H_S H_S
M  BCL BND AromaticSingleBond AromaticDoubleBond NonConjugatedSingleBond AromaticDoubleBond AromaticSingleBond AromaticDoubleBond AromaticSingleBond AromaticSingleBond AromaticSingleBond ConjugatedSingleBond NonConjugatedSingleBond NonConjugatedSingleBond AromaticDoubleBond NonConjugatedSingleBond AromaticSingleBond NonConjugatedSingleBond NonConjugatedSingleBond NonConjugatedSingleBondInRing NonConjugatedSingleBondInRing NonConjugatedSingleBond NonConjugatedSingleBond NonConjugatedSingleBondInRing NonConjugatedSingleBond NonConjugatedSingleBond NonConjugatedSingleBond NonConjugatedSingleBondInRing ConjugatedSingleBond ConjugatedSingleBond ConjugatedDoubleBond ConjugatedSingleBond NonConjugatedSingleBond NonConjugatedSingleBondInRing NonConjugatedSingleBond NonConjugatedSingleBond NonConjugatedSingleBond NonConjugatedSingleBond ConjugatedSingleBond ConjugatedSingleBond ConjugatedDoubleBond ConjugatedSingleBond ConjugatedSingleBond ConjugatedDoubleBond ConjugatedSingleBond ConjugatedSingleBond NonConjugatedSingleBond NonConjugatedSingleBond NonConjugatedSingleBond NonConjugatedSingleBond NonConjugatedSingleBond NonConjugatedSingleBond NonConjugatedSingleBond NonConjugatedSingleBond NonConjugatedSingleBond NonConjugatedSingleBond NonConjugatedSingleBond NonConjugatedSingleBond NonConjugatedSingleBond NonConjugatedSingleBond NonConjugatedSingleBond NonConjugatedSingleBond NonConjugatedSingleBond ConjugatedDoubleBond AmideSingleBond NonConjugatedSingleBond NonConjugatedSingleBond NonConjugatedSingleBond NonConjugatedSingleBond NonConjugatedSingleBond NonConjugatedSingleBond NonConjugatedSingleBond NonConjugatedSingleBond ConjugatedDoubleBond AmideSingleBond NonConjugatedSingleBond NonConjugatedSingleBond NonConjugatedSingleBond NonConjugatedSingleBond NonConjugatedSingleBond NonConjugatedSingleBond NonConjugatedSingleBond NonConjugatedSingleBond ConjugatedSingleBond ConjugatedDoubleBond NonConjugatedSingleBond NonConjugatedSingleBond NonConjugatedSingleBond NonConjugatedSingleBond
M  BCL CHI  15   S  17   S  21   S  24   S  28   R  35   R  39   R  55   S
M  BCL DBI - - - - - - - - - -
M  END
> <ConfClashScore>
0 

> <ConfOneFourInteractionScore>
-0.978281 

> <ConfScore>
0.0300295 

> <ConfScorePBest>
0.0103605 

> <ConfTolerance>
2.52951 

$$$$
ACO.****
  PyMOL2.5          3D                             0

 85 87  0  0  0  0  0  0  0  0999 V2000
    4.8903    1.0760  -10.6390 N   0  0  0  1  0  0  0  0  0  0  0  0
    3.8373    1.9021  -10.5353 C   0  0  0  1  0  0  0  0  0  0  0  0
    3.8073    2.6810  -11.2237 H   0  0  0  1  0  0  0  0  0  0  0  0
    2.8293    1.8590   -9.6728 N   0  0  0  1  0  0  0  0  0  0  0  0
    2.9497    0.8272   -8.8362 C   0  0  0  1  0  0  0  0  0  0  0  0
    3.9852   -0.1168   -8.8144 C   0  0  0  1  0  0  0  0  0  0  0  0
    4.9784    0.0606   -9.7731 C   0  0  0  1  0  0  0  0  0  0  0  0
    6.0666   -0.7643   -9.8833 N   0  0  0  1  0  0  0  0  0  0  0  0
    6.1768   -1.5155   -9.2636 H   0  0  0  1  0  0  0  0  0  0  0  0
    6.7348   -0.6032  -10.5818 H   0  0  0  1  0  0  0  0  0  0  0  0
    3.7775   -1.0341   -7.7961 N   0  0  0  1  0  0  0  0  0  0  0  0
    2.6599   -0.6376   -7.2507 C   0  0  0  1  0  0  0  0  0  0  0  0
    2.2237   -1.1324   -6.4467 H   0  0  0  1  0  0  0  0  0  0  0  0
    2.1084    0.4723   -7.8135 N   0  0  0  1  0  0  0  0  0  0  0  0
    0.9278    1.1998   -7.3437 C   0  0  0  1  0  0  0  0  0  0  0  0
    0.2828    0.5301   -6.8142 H   0  0  0  1  0  0  0  0  0  0  0  0
    1.3354    2.3982   -6.4501 C   0  0  0  1  0  0  0  0  0  0  0  0
    2.2261    2.8675   -6.8123 H   0  0  0  1  0  0  0  0  0  0  0  0
    1.5283    1.9915   -5.0927 O   0  0  0  1  0  0  0  0  0  0  0  0
    2.3939    2.2780   -4.7922 H   0  0  0  1  0  0  0  0  0  0  0  0
    0.1081    3.3373   -6.5876 C   0  0  0  1  0  0  0  0  0  0  0  0
    0.4176    4.3591   -6.6595 H   0  0  0  1  0  0  0  0  0  0  0  0
   -0.7851    3.1821   -5.4635 O   0  0  0  1  0  0  0  0  0  0  0  0
   -1.3778    4.4491   -4.6073 P   0  0  0  1  0  0  0  0  0  0  0  0
   -2.2725    3.8428   -3.3738 O   0  0  0  0  0  0  0  0  0  0  0  0
   -0.2470    5.3016   -4.1772 O   0  0  0  1  0  0  0  0  0  0  0  0
   -2.4077    5.2691   -5.5514 O   0  5  0  1  0  0  0  0  0  0  0  0
   -0.5699    2.8776   -7.8931 C   0  0  0  1  0  0  0  0  0  0  0  0
   -1.5557    2.5170   -7.6857 H   0  0  0  1  0  0  0  0  0  0  0  0
    0.2330    1.8216   -8.4455 O   0  0  0  1  0  0  0  0  0  0  0  0
   -0.6470    4.0028   -8.8446 C   0  0  0  1  0  0  0  0  0  0  0  0
    0.3367    4.3873   -9.0160 H   0  0  0  1  0  0  0  0  0  0  0  0
   -1.2643    4.7726   -8.4306 H   0  0  0  1  0  0  0  0  0  0  0  0
   -1.2138    3.5623  -10.1047 O   0  0  0  1  0  0  0  0  0  0  0  0
   -2.5506    4.1386  -10.6932 P   0  0  0  1  0  0  0  0  0  0  0  0
   -3.3778    4.5412   -9.5139 O   0  0  0  0  0  0  0  0  0  0  0  0
   -3.1939    3.1929  -11.6239 O   0  0  0  1  0  0  0  0  0  0  0  0
   -2.1665    5.4454  -11.5452 O   0  0  0  1  0  0  0  0  0  0  0  0
   -1.2696    5.6591  -12.9015 P   0  0  0  1  0  0  0  0  0  0  0  0
    0.1167    6.1386  -12.7053 O   0  0  0  1  0  0  0  0  0  0  0  0
   -1.2823    4.3438  -13.8472 O   0  5  0  1  0  0  0  0  0  0  0  0
   -2.1740    6.7740  -13.5459 O   0  0  0  1  0  0  0  0  0  0  0  0
   -3.3686    7.5776  -15.4424 C   0  0  0  1  0  0  0  0  0  0  0  0
   -2.0312    7.1318  -14.9498 C   0  0  0  1  0  0  0  0  0  0  0  0
   -1.7009    6.2825  -15.5105 H   0  0  0  1  0  0  0  0  0  0  0  0
   -1.3215    7.9259  -15.0531 H   0  0  0  1  0  0  0  0  0  0  0  0
   -3.8952    8.7956  -14.6714 C   0  0  0  1  0  0  0  0  0  0  0  0
   -4.8372    9.0968  -15.0799 H   0  0  0  1  0  0  0  0  0  0  0  0
   -3.1959    9.6009  -14.7565 H   0  0  0  1  0  0  0  0  0  0  0  0
   -4.0198    8.5381  -13.6404 H   0  0  0  1  0  0  0  0  0  0  0  0
   -4.3669    6.4160  -15.3051 C   0  0  0  1  0  0  0  0  0  0  0  0
   -5.3477    6.7552  -15.5660 H   0  0  0  1  0  0  0  0  0  0  0  0
   -4.3684    6.0648  -14.2944 H   0  0  0  1  0  0  0  0  0  0  0  0
   -4.0794    5.6197  -15.9595 H   0  0  0  1  0  0  0  0  0  0  0  0
   -3.2585    7.9348  -16.9268 C   0  0  0  1  0  0  0  0  0  0  0  0
   -2.5890    8.7641  -17.0215 H   0  0  0  1  0  0  0  0  0  0  0  0
   -2.7411    6.8209  -17.6345 O   0  0  0  1  0  0  0  0  0  0  0  0
   -2.2229    7.1286  -18.3818 H   0  0  0  1  0  0  0  0  0  0  0  0
   -4.6181    8.3556  -17.4637 C   0  0  0  1  0  0  0  0  0  0  0  0
   -5.1938    9.3537  -17.0324 O   0  0  0  1  0  0  0  0  0  0  0  0
   -5.1336    7.5725  -18.4245 N   0  0  0  1  0  0  0  0  0  0  0  0
   -4.6961    6.7185  -18.6239 H   0  0  0  1  0  0  0  0  0  0  0  0
   -6.3193    7.9476  -19.1803 C   0  0  0  1  0  0  0  0  0  0  0  0
   -6.1808    8.9354  -19.5675 H   0  0  0  1  0  0  0  0  0  0  0  0
   -7.1629    7.9369  -18.5222 H   0  0  0  1  0  0  0  0  0  0  0  0
   -6.5947    7.0021  -20.3422 C   0  0  0  1  0  0  0  0  0  0  0  0
   -7.5245    7.2791  -20.7936 H   0  0  0  1  0  0  0  0  0  0  0  0
   -6.6661    6.0051  -19.9605 H   0  0  0  1  0  0  0  0  0  0  0  0
   -5.5212    7.0357  -21.3969 C   0  0  0  1  0  0  0  0  0  0  0  0
   -4.8182    8.0028  -21.6211 O   0  0  0  1  0  0  0  0  0  0  0  0
   -5.3645    5.9146  -22.1067 N   0  0  0  1  0  0  0  0  0  0  0  0
   -5.9376    5.1449  -21.9079 H   0  0  0  1  0  0  0  0  0  0  0  0
   -4.3657    5.7959  -23.1719 C   0  0  0  1  0  0  0  0  0  0  0  0
   -3.9460    4.8127  -23.1271 H   0  0  0  1  0  0  0  0  0  0  0  0
   -3.5988    6.5201  -22.9918 H   0  0  0  1  0  0  0  0  0  0  0  0
   -4.9012    6.0153  -24.5651 C   0  0  0  1  0  0  0  0  0  0  0  0
   -5.0354    7.0644  -24.7268 H   0  0  0  1  0  0  0  0  0  0  0  0
   -5.8427    5.5159  -24.6602 H   0  0  0  1  0  0  0  0  0  0  0  0
   -3.7605    5.3671  -25.8101 S   0  0  0  1  0  0  0  0  0  0  0  0
   -4.5602    5.8269  -27.3297 C   0  0  0  1  0  0  0  0  0  0  0  0
   -5.5804    6.4680  -27.3776 O   0  0  0  1  0  0  0  0  0  0  0  0
   -3.8117    5.3204  -28.5509 C   0  0  0  1  0  0  0  0  0  0  0  0
   -2.9883    5.9708  -28.7603 H   0  0  0  1  0  0  0  0  0  0  0  0
   -4.4732    5.3008  -29.3917 H   0  0  0  1  0  0  0  0  0  0  0  0
   -3.4465    4.3328  -28.3608 H   0  0  0  1  0  0  0  0  0  0  0  0
  1  2  1  0  0  0  0
  1  7  2  0  0  0  0
  2  3  1  0  0  0  0
  2  4  2  0  0  0  0
  4  5  1  0  0  0  0
  5  6  2  0  0  0  0
  5 14  1  0  0  0  0
  6  7  1  0  0  0  0
  6 11  1  0  0  0  0
  7  8  1  0  0  0  0
  8  9  1  0  0  0  0
  8 10  1  0  0  0  0
 11 12  2  0  0  0  0
 12 13  1  0  0  0  0
 12 14  1  0  0  0  0
 14 15  1  0  0  0  0
 15 16  1  0  0  0  0
 15 17  1  0  0  0  0
 15 30  1  0  0  0  0
 17 18  1  0  0  0  0
 17 19  1  0  0  0  0
 17 21  1  0  0  0  0
 19 20  1  0  0  0  0
 21 22  1  0  0  0  0
 21 23  1  0  0  0  0
 21 28  1  0  0  0  0
 23 24  1  0  0  0  0
 24 25  1  0  0  0  0
 24 26  2  0  0  0  0
 24 27  1  0  0  0  0
 28 29  1  0  0  0  0
 28 30  1  0  0  0  0
 28 31  1  0  0  0  0
 31 32  1  0  0  0  0
 31 33  1  0  0  0  0
 31 34  1  0  0  0  0
 34 35  1  0  0  0  0
 35 36  1  0  0  0  0
 35 37  2  0  0  0  0
 35 38  1  0  0  0  0
 38 39  1  0  0  0  0
 39 40  2  0  0  0  0
 39 41  1  0  0  0  0
 39 42  1  0  0  0  0
 42 44  1  0  0  0  0
 43 44  1  0  0  0  0
 43 47  1  0  0  0  0
 43 51  1  0  0  0  0
 43 55  1  0  0  0  0
 44 45  1  0  0  0  0
 44 46  1  0  0  0  0
 47 48  1  0  0  0  0
 47 49  1  0  0  0  0
 47 50  1  0  0  0  0
 51 52  1  0  0  0  0
 51 53  1  0  0  0  0
 51 54  1  0  0  0  0
 55 56  1  0  0  0  0
 55 57  1  0  0  0  0
 55 59  1  0  0  0  0
 57 58  1  0  0  0  0
 59 60  2  0  0  0  0
 59 61  1  0  0  0  0
 61 62  1  0  0  0  0
 61 63  1  0  0  0  0
 63 64  1  0  0  0  0
 63 65  1  0  0  0  0
 63 66  1  0  0  0  0
 66 67  1  0  0  0  0
 66 68  1  0  0  0  0
 66 69  1  0  0  0  0
 69 70  2  0  0  0  0
 69 71  1  0  0  0  0
 71 72  1  0  0  0  0
 71 73  1  0  0  0  0
 73 74  1  0  0  0  0
 73 75  1  0  0  0  0
 73 76  1  0  0  0  0
 76 77  1  0  0  0  0
 76 78  1  0  0  0  0
 76 79  1  0  0  0  0
 79 80  1  0  0  0  0
 80 81  2  0  0  0  0
 80 82  1  0  0  0  0
 82 83  1  0  0  0  0
 82 84  1  0  0  0  0
 82 85  1  0  0  0  0
M  BCL ATM N_Tr2TrTrPi C_TrTrTrPi H_S N_Tr2TrTrPi C_TrTrTrPi C_TrTrTrPi C_TrTrTrPi N_TrTrTrPi2 H_S H_S N_Tr2TrTrPi C_TrTrTrPi H_S N_TrTrTrPi2 C_TeTeTeTe H_S C_TeTeTeTe H_S O_Te2Te2TeTe H_S C_TeTeTeTe H_S O_Tr2TrTrPi2 P_TeTeTeTePi O_Te2Te2TeTe O_Tr2Tr2TrPi O_Te2Te2Te2Te C_TeTeTeTe H_S O_Te2Te2TeTe C_TeTeTeTe H_S H_S O_Tr2TrTrPi2 P_TeTeTeTePi O_Te2Te2TeTe O_Tr2Tr2TrPi O_Tr2TrTrPi2 P_TeTeTeTePi O_Tr2Tr2TrPi O_Te2Te2Te2Te O_Tr2TrTrPi2 C_TeTeTeTe C_TeTeTeTe H_S H_S C_TeTeTeTe H_S H_S H_S C_TeTeTeTe H_S H_S H_S C_TeTeTeTe H_S O_Te2Te2TeTe H_S C_TrTrTrPi O_Tr2Tr2TrPi N_TrTrTrPi2 H_S C_TeTeTeTe H_S H_S C_TeTeTeTe H_S H_S C_TrTrTrPi O_Tr2Tr2TrPi N_TrTrTrPi2 H_S C_TeTeTeTe H_S H_S C_TeTeTeTe H_S H_S S_Te2Te2TeTe C_TrTrTrPi O_Tr2Tr2TrPi C_TeTeTeTe H_S H_S H_S
M  BCL BND AromaticSingleBond AromaticDoubleBond NonConjugatedSingleBond AromaticDoubleBond AromaticSingleBond AromaticDoubleBond AromaticSingleBond AromaticSingleBond AromaticSingleBond ConjugatedSingleBond NonConjugatedSingleBond NonConjugatedSingleBond AromaticDoubleBond NonConjugatedSingleBond AromaticSingleBond NonConjugatedSingleBond NonConjugatedSingleBond NonConjugatedSingleBondInRing NonConjugatedSingleBondInRing NonConjugatedSingleBond NonConjugatedSingleBond NonConjugatedSingleBondInRing NonConjugatedSingleBond NonConjugatedSingleBond NonConjugatedSingleBond NonConjugatedSingleBondInRing ConjugatedSingleBond ConjugatedSingleBond ConjugatedDoubleBond ConjugatedSingleBond NonConjugatedSingleBond NonConjugatedSingleBondInRing NonConjugatedSingleBond NonConjugatedSingleBond NonConjugatedSingleBond NonConjugatedSingleBond ConjugatedSingleBond ConjugatedSingleBond ConjugatedDoubleBond ConjugatedSingleBond ConjugatedSingleBond ConjugatedDoubleBond ConjugatedSingleBond ConjugatedSingleBond NonConjugatedSingleBond NonConjugatedSingleBond NonConjugatedSingleBond NonConjugatedSingleBond NonConjugatedSingleBond NonConjugatedSingleBond NonConjugatedSingleBond NonConjugatedSingleBond NonConjugatedSingleBond NonConjugatedSingleBond NonConjugatedSingleBond NonConjugatedSingleBond NonConjugatedSingleBond NonConjugatedSingleBond NonConjugatedSingleBond NonConjugatedSingleBond NonConjugatedSingleBond ConjugatedDoubleBond AmideSingleBond NonConjugatedSingleBond NonConjugatedSingleBond NonConjugatedSingleBond NonConjugatedSingleBond NonConjugatedSingleBond NonConjugatedSingleBond NonConjugatedSingleBond NonConjugatedSingleBond ConjugatedDoubleBond AmideSingleBond NonConjugatedSingleBond NonConjugatedSingleBond NonConjugatedSingleBond NonConjugatedSingleBond NonConjugatedSingleBond NonConjugatedSingleBond NonConjugatedSingleBond NonConjugatedSingleBond ConjugatedSingleBond ConjugatedDoubleBond NonConjugatedSingleBond NonConjugatedSingleBond NonConjugatedSingleBond NonConjugatedSingleBond
M  BCL CHI  15   S  17   S  21   S  24   S  28   R  35   R  39   R  55   S
M  BCL DBI - - - - - - - - - -
M  END
> <ConfClashScore>
0 

> <ConfOneFourInteractionScore>
-0.981185 

> <ConfScore>
0.0317114 

> <ConfScorePBest>
0.0102575 

> <ConfTolerance>
2.33554 

$$$$
ACO.****
  PyMOL2.5          3D                             0

 85 87  0  0  0  0  0  0  0  0999 V2000
    4.8902    1.0572  -10.6270 N   0  0  0  1  0  0  0  0  0  0  0  0
    3.8490    1.8978  -10.5201 C   0  0  0  1  0  0  0  0  0  0  0  0
    3.8253    2.6745  -11.2113 H   0  0  0  1  0  0  0  0  0  0  0  0
    2.8458    1.8716   -9.6513 N   0  0  0  1  0  0  0  0  0  0  0  0
    2.9574    0.8415   -8.8115 C   0  0  0  1  0  0  0  0  0  0  0  0
    3.9802   -0.1163   -8.7924 C   0  0  0  1  0  0  0  0  0  0  0  0
    4.9699    0.0440   -9.7577 C   0  0  0  1  0  0  0  0  0  0  0  0
    6.0825   -0.7740   -9.9215 N   0  0  0  1  0  0  0  0  0  0  0  0
    6.2159   -1.5440   -9.3301 H   0  0  0  1  0  0  0  0  0  0  0  0
    6.7331   -0.5805  -10.6284 H   0  0  0  1  0  0  0  0  0  0  0  0
    3.7665   -1.0269   -7.7693 N   0  0  0  1  0  0  0  0  0  0  0  0
    2.6576   -0.6133   -7.2186 C   0  0  0  1  0  0  0  0  0  0  0  0
    2.2197   -1.0992   -6.4101 H   0  0  0  1  0  0  0  0  0  0  0  0
    2.1176    0.5018   -7.7824 N   0  0  0  1  0  0  0  0  0  0  0  0
    0.8425    1.1397   -7.4423 C   0  0  0  1  0  0  0  0  0  0  0  0
    0.2566    1.2621   -8.3292 H   0  0  0  1  0  0  0  0  0  0  0  0
    0.0747    0.3113   -6.3815 C   0  0  0  1  0  0  0  0  0  0  0  0
    0.7434   -0.1160   -5.6639 H   0  0  0  1  0  0  0  0  0  0  0  0
   -0.6969   -0.7264   -6.9922 O   0  0  0  1  0  0  0  0  0  0  0  0
   -0.8855   -0.4915   -7.9037 H   0  0  0  1  0  0  0  0  0  0  0  0
   -0.8386    1.3839   -5.7315 C   0  0  0  1  0  0  0  0  0  0  0  0
   -0.8976    1.2416   -4.6726 H   0  0  0  1  0  0  0  0  0  0  0  0
   -2.1659    1.3394   -6.2985 O   0  0  0  1  0  0  0  0  0  0  0  0
   -3.4635    2.0608   -5.6019 P   0  0  0  1  0  0  0  0  0  0  0  0
   -3.5252    1.6349   -4.0193 O   0  0  0  0  0  0  0  0  0  0  0  0
   -3.4042    3.5371   -5.6878 O   0  0  0  1  0  0  0  0  0  0  0  0
   -4.8578    1.4845   -6.1922 O   0  5  0  1  0  0  0  0  0  0  0  0
   -0.1445    2.7186   -6.0666 C   0  0  0  1  0  0  0  0  0  0  0  0
   -0.7876    3.3232   -6.6714 H   0  0  0  1  0  0  0  0  0  0  0  0
    1.0587    2.4079   -6.7881 O   0  0  0  1  0  0  0  0  0  0  0  0
    0.1855    3.4414   -4.8232 C   0  0  0  1  0  0  0  0  0  0  0  0
   -0.7199    3.7580   -4.3488 H   0  0  0  1  0  0  0  0  0  0  0  0
    0.7822    4.2972   -5.0610 H   0  0  0  1  0  0  0  0  0  0  0  0
    0.9232    2.5813   -3.9182 O   0  0  0  1  0  0  0  0  0  0  0  0
    1.6902    3.1943   -2.6307 P   0  0  0  1  0  0  0  0  0  0  0  0
    1.9954    4.6051   -3.0102 O   0  0  0  0  0  0  0  0  0  0  0  0
    2.8101    2.3325   -2.1834 O   0  0  0  1  0  0  0  0  0  0  0  0
    0.6153    3.1238   -1.4448 O   0  0  0  1  0  0  0  0  0  0  0  0
    0.4618    3.3992    0.1646 P   0  0  0  1  0  0  0  0  0  0  0  0
    0.9675    2.2269    0.9131 O   0  0  0  1  0  0  0  0  0  0  0  0
    1.4242    4.6608    0.4914 O   0  5  0  1  0  0  0  0  0  0  0  0
   -1.0617    3.7023    0.3938 O   0  0  0  1  0  0  0  0  0  0  0  0
   -3.0689    4.2210    1.5458 C   0  0  0  1  0  0  0  0  0  0  0  0
   -1.5781    4.2749    1.6147 C   0  0  0  1  0  0  0  0  0  0  0  0
   -1.2541    5.2906    1.7064 H   0  0  0  1  0  0  0  0  0  0  0  0
   -1.2317    3.7121    2.4562 H   0  0  0  1  0  0  0  0  0  0  0  0
   -3.6650    4.9295    2.7653 C   0  0  0  1  0  0  0  0  0  0  0  0
   -3.4210    4.3816    3.6514 H   0  0  0  1  0  0  0  0  0  0  0  0
   -4.7286    4.9838    2.6614 H   0  0  0  1  0  0  0  0  0  0  0  0
   -3.2620    5.9183    2.8353 H   0  0  0  1  0  0  0  0  0  0  0  0
   -3.5190    2.7526    1.4625 C   0  0  0  1  0  0  0  0  0  0  0  0
   -2.7093    2.1504    1.1067 H   0  0  0  1  0  0  0  0  0  0  0  0
   -4.3465    2.6711    0.7891 H   0  0  0  1  0  0  0  0  0  0  0  0
   -3.8144    2.4148    2.4339 H   0  0  0  1  0  0  0  0  0  0  0  0
   -3.5067    4.9492    0.2699 C   0  0  0  1  0  0  0  0  0  0  0  0
   -2.9205    4.5288   -0.5203 H   0  0  0  1  0  0  0  0  0  0  0  0
   -4.8613    4.6718   -0.0238 O   0  0  0  1  0  0  0  0  0  0  0  0
   -4.9206    3.8503   -0.5169 H   0  0  0  1  0  0  0  0  0  0  0  0
   -3.1367    6.4047    0.3288 C   0  0  0  1  0  0  0  0  0  0  0  0
   -2.0102    6.7812    0.6072 O   0  0  0  1  0  0  0  0  0  0  0  0
   -4.0711    7.3233    0.0677 N   0  0  0  1  0  0  0  0  0  0  0  0
   -4.9766    7.0255   -0.1599 H   0  0  0  1  0  0  0  0  0  0  0  0
   -3.7910    8.7508    0.1096 C   0  0  0  1  0  0  0  0  0  0  0  0
   -2.7636    8.9016    0.3676 H   0  0  0  1  0  0  0  0  0  0  0  0
   -4.4156    9.2117    0.8460 H   0  0  0  1  0  0  0  0  0  0  0  0
   -4.0659    9.3822   -1.2489 C   0  0  0  1  0  0  0  0  0  0  0  0
   -3.7546   10.4054   -1.2182 H   0  0  0  1  0  0  0  0  0  0  0  0
   -5.1176    9.3343   -1.4402 H   0  0  0  1  0  0  0  0  0  0  0  0
   -3.3369    8.6899   -2.3841 C   0  0  0  1  0  0  0  0  0  0  0  0
   -2.1206    8.5959   -2.3914 O   0  0  0  1  0  0  0  0  0  0  0  0
   -4.1140    8.1974   -3.3617 N   0  0  0  1  0  0  0  0  0  0  0  0
   -5.0846    8.3284   -3.3277 H   0  0  0  1  0  0  0  0  0  0  0  0
   -3.5185    7.4700   -4.4712 C   0  0  0  1  0  0  0  0  0  0  0  0
   -2.4850    7.2987   -4.2535 H   0  0  0  1  0  0  0  0  0  0  0  0
   -3.6033    8.0653   -5.3563 H   0  0  0  1  0  0  0  0  0  0  0  0
   -4.1876    6.1404   -4.7169 C   0  0  0  1  0  0  0  0  0  0  0  0
   -4.2054    5.5736   -3.8095 H   0  0  0  1  0  0  0  0  0  0  0  0
   -3.6478    5.5991   -5.4656 H   0  0  0  1  0  0  0  0  0  0  0  0
   -5.8800    6.4359   -5.2823 S   0  0  0  1  0  0  0  0  0  0  0  0
   -6.7084    4.9809   -4.7538 C   0  0  0  1  0  0  0  0  0  0  0  0
   -6.1725    4.0508   -4.2078 O   0  0  0  1  0  0  0  0  0  0  0  0
   -8.2363    4.9292   -5.0278 C   0  0  0  1  0  0  0  0  0  0  0  0
   -8.6970    5.8184   -4.6508 H   0  0  0  1  0  0  0  0  0  0  0  0
   -8.6572    4.0752   -4.5396 H   0  0  0  1  0  0  0  0  0  0  0  0
   -8.4072    4.8586   -6.0817 H   0  0  0  1  0  0  0  0  0  0  0  0
  1  2  1  0  0  0  0
  1  7  2  0  0  0  0
  2  3  1  0  0  0  0
  2  4  2  0  0  0  0
  4  5  1  0  0  0  0
  5  6  2  0  0  0  0
  5 14  1  0  0  0  0
  6  7  1  0  0  0  0
  6 11  1  0  0  0  0
  7  8  1  0  0  0  0
  8  9  1  0  0  0  0
  8 10  1  0  0  0  0
 11 12  2  0  0  0  0
 12 13  1  0  0  0  0
 12 14  1  0  0  0  0
 14 15  1  0  0  0  0
 15 16  1  0  0  0  0
 15 17  1  0  0  0  0
 15 30  1  0  0  0  0
 17 18  1  0  0  0  0
 17 19  1  0  0  0  0
 17 21  1  0  0  0  0
 19 20  1  0  0  0  0
 21 22  1  0  0  0  0
 21 23  1  0  0  0  0
 21 28  1  0  0  0  0
 23 24  1  0  0  0  0
 24 25  1  0  0  0  0
 24 26  2  0  0  0  0
 24 27  1  0  0  0  0
 28 29  1  0  0  0  0
 28 30  1  0  0  0  0
 28 31  1  0  0  0  0
 31 32  1  0  0  0  0
 31 33  1  0  0  0  0
 31 34  1  0  0  0  0
 34 35  1  0  0  0  0
 35 36  1  0  0  0  0
 35 37  2  0  0  0  0
 35 38  1  0  0  0  0
 38 39  1  0  0  0  0
 39 40  2  0  0  0  0
 39 41  1  0  0  0  0
 39 42  1  0  0  0  0
 42 44  1  0  0  0  0
 43 44  1  0  0  0  0
 43 47  1  0  0  0  0
 43 51  1  0  0  0  0
 43 55  1  0  0  0  0
 44 45  1  0  0  0  0
 44 46  1  0  0  0  0
 47 48  1  0  0  0  0
 47 49  1  0  0  0  0
 47 50  1  0  0  0  0
 51 52  1  0  0  0  0
 51 53  1  0  0  0  0
 51 54  1  0  0  0  0
 55 56  1  0  0  0  0
 55 57  1  0  0  0  0
 55 59  1  0  0  0  0
 57 58  1  0  0  0  0
 59 60  2  0  0  0  0
 59 61  1  0  0  0  0
 61 62  1  0  0  0  0
 61 63  1  0  0  0  0
 63 64  1  0  0  0  0
 63 65  1  0  0  0  0
 63 66  1  0  0  0  0
 66 67  1  0  0  0  0
 66 68  1  0  0  0  0
 66 69  1  0  0  0  0
 69 70  2  0  0  0  0
 69 71  1  0  0  0  0
 71 72  1  0  0  0  0
 71 73  1  0  0  0  0
 73 74  1  0  0  0  0
 73 75  1  0  0  0  0
 73 76  1  0  0  0  0
 76 77  1  0  0  0  0
 76 78  1  0  0  0  0
 76 79  1  0  0  0  0
 79 80  1  0  0  0  0
 80 81  2  0  0  0  0
 80 82  1  0  0  0  0
 82 83  1  0  0  0  0
 82 84  1  0  0  0  0
 82 85  1  0  0  0  0
M  BCL ATM N_Tr2TrTrPi C_TrTrTrPi H_S N_Tr2TrTrPi C_TrTrTrPi C_TrTrTrPi C_TrTrTrPi N_TrTrTrPi2 H_S H_S N_Tr2TrTrPi C_TrTrTrPi H_S N_TrTrTrPi2 C_TeTeTeTe H_S C_TeTeTeTe H_S O_Te2Te2TeTe H_S C_TeTeTeTe H_S O_Tr2TrTrPi2 P_TeTeTeTePi O_Te2Te2TeTe O_Tr2Tr2TrPi O_Te2Te2Te2Te C_TeTeTeTe H_S O_Te2Te2TeTe C_TeTeTeTe H_S H_S O_Tr2TrTrPi2 P_TeTeTeTePi O_Te2Te2TeTe O_Tr2Tr2TrPi O_Tr2TrTrPi2 P_TeTeTeTePi O_Tr2Tr2TrPi O_Te2Te2Te2Te O_Tr2TrTrPi2 C_TeTeTeTe C_TeTeTeTe H_S H_S C_TeTeTeTe H_S H_S H_S C_TeTeTeTe H_S H_S H_S C_TeTeTeTe H_S O_Te2Te2TeTe H_S C_TrTrTrPi O_Tr2Tr2TrPi N_TrTrTrPi2 H_S C_TeTeTeTe H_S H_S C_TeTeTeTe H_S H_S C_TrTrTrPi O_Tr2Tr2TrPi N_TrTrTrPi2 H_S C_TeTeTeTe H_S H_S C_TeTeTeTe H_S H_S S_Te2Te2TeTe C_TrTrTrPi O_Tr2Tr2TrPi C_TeTeTeTe H_S H_S H_S
M  BCL BND AromaticSingleBond AromaticDoubleBond NonConjugatedSingleBond AromaticDoubleBond AromaticSingleBond AromaticDoubleBond AromaticSingleBond AromaticSingleBond AromaticSingleBond ConjugatedSingleBond NonConjugatedSingleBond NonConjugatedSingleBond AromaticDoubleBond NonConjugatedSingleBond AromaticSingleBond NonConjugatedSingleBond NonConjugatedSingleBond NonConjugatedSingleBondInRing NonConjugatedSingleBondInRing NonConjugatedSingleBond NonConjugatedSingleBond NonConjugatedSingleBondInRing NonConjugatedSingleBond NonConjugatedSingleBond NonConjugatedSingleBond NonConjugatedSingleBondInRing ConjugatedSingleBond ConjugatedSingleBond ConjugatedDoubleBond ConjugatedSingleBond NonConjugatedSingleBond NonConjugatedSingleBondInRing NonConjugatedSingleBond NonConjugatedSingleBond NonConjugatedSingleBond NonConjugatedSingleBond ConjugatedSingleBond ConjugatedSingleBond ConjugatedDoubleBond ConjugatedSingleBond ConjugatedSingleBond ConjugatedDoubleBond ConjugatedSingleBond ConjugatedSingleBond NonConjugatedSingleBond NonConjugatedSingleBond NonConjugatedSingleBond NonConjugatedSingleBond NonConjugatedSingleBond NonConjugatedSingleBond NonConjugatedSingleBond NonConjugatedSingleBond NonConjugatedSingleBond NonConjugatedSingleBond NonConjugatedSingleBond NonConjugatedSingleBond NonConjugatedSingleBond NonConjugatedSingleBond NonConjugatedSingleBond NonConjugatedSingleBond NonConjugatedSingleBond ConjugatedDoubleBond AmideSingleBond NonConjugatedSingleBond NonConjugatedSingleBond NonConjugatedSingleBond NonConjugatedSingleBond NonConjugatedSingleBond NonConjugatedSingleBond NonConjugatedSingleBond NonConjugatedSingleBond ConjugatedDoubleBond AmideSingleBond NonConjugatedSingleBond NonConjugatedSingleBond NonConjugatedSingleBond NonConjugatedSingleBond NonConjugatedSingleBond NonConjugatedSingleBond NonConjugatedSingleBond NonConjugatedSingleBond ConjugatedSingleBond ConjugatedDoubleBond NonConjugatedSingleBond NonConjugatedSingleBond NonConjugatedSingleBond NonConjugatedSingleBond
M  BCL CHI  15   S  17   S  21   S  24   S  28   R  35   R  39   R  55   S
M  BCL DBI - - - - - - - - - -
M  END
> <ConfClashScore>
0 

> <ConfOneFourInteractionScore>
-0.986619 

> <ConfScore>
0.0319265 

> <ConfScorePBest>
0.0101545 

> <ConfTolerance>
2.56361 

$$$$
ACO.****
  PyMOL2.5          3D                             0

 85 87  0  0  0  0  0  0  0  0999 V2000
    4.8916    1.0623  -10.6282 N   0  0  0  1  0  0  0  0  0  0  0  0
    3.8461    1.8980  -10.5258 C   0  0  0  1  0  0  0  0  0  0  0  0
    3.8222    2.6752  -11.2164 H   0  0  0  1  0  0  0  0  0  0  0  0
    2.8386    1.8662   -9.6622 N   0  0  0  1  0  0  0  0  0  0  0  0
    2.9507    0.8358   -8.8228 C   0  0  0  1  0  0  0  0  0  0  0  0
    3.9778   -0.1173   -8.7994 C   0  0  0  1  0  0  0  0  0  0  0  0
    4.9716    0.0486   -9.7595 C   0  0  0  1  0  0  0  0  0  0  0  0
    6.0889   -0.7640   -9.9185 N   0  0  0  1  0  0  0  0  0  0  0  0
    6.7479   -0.5603  -10.6146 H   0  0  0  1  0  0  0  0  0  0  0  0
    6.2172   -1.5404   -9.3344 H   0  0  0  1  0  0  0  0  0  0  0  0
    3.7632   -1.0299   -7.7783 N   0  0  0  1  0  0  0  0  0  0  0  0
    2.6496   -0.6220   -7.2329 C   0  0  0  1  0  0  0  0  0  0  0  0
    2.2099   -1.1107   -6.4270 H   0  0  0  1  0  0  0  0  0  0  0  0
    2.1073    0.4911   -7.7983 N   0  0  0  1  0  0  0  0  0  0  0  0
    0.8704    1.1413   -7.3557 C   0  0  0  1  0  0  0  0  0  0  0  0
    0.9520    2.1987   -7.4978 H   0  0  0  1  0  0  0  0  0  0  0  0
   -0.3318    0.5869   -8.1189 C   0  0  0  1  0  0  0  0  0  0  0  0
   -0.0587    0.2774   -9.1060 H   0  0  0  1  0  0  0  0  0  0  0  0
   -1.3893    1.5466   -8.1950 O   0  0  0  1  0  0  0  0  0  0  0  0
   -2.1697    1.1342   -8.5725 H   0  0  0  1  0  0  0  0  0  0  0  0
   -0.7180   -0.5900   -7.2606 C   0  0  0  1  0  0  0  0  0  0  0  0
   -0.0923   -1.4352   -7.4582 H   0  0  0  1  0  0  0  0  0  0  0  0
   -2.1099   -0.9577   -7.4672 O   0  0  0  1  0  0  0  0  0  0  0  0
   -2.6356   -2.4766   -7.1411 P   0  0  0  1  0  0  0  0  0  0  0  0
   -2.8799   -2.4874   -5.5194 O   0  0  0  0  0  0  0  0  0  0  0  0
   -3.8444   -2.7999   -7.9314 O   0  0  0  1  0  0  0  0  0  0  0  0
   -1.3834   -3.4158   -7.5586 O   0  5  0  1  0  0  0  0  0  0  0  0
   -0.4934   -0.0562   -5.8575 C   0  0  0  1  0  0  0  0  0  0  0  0
   -1.3634    0.4613   -5.5108 H   0  0  0  1  0  0  0  0  0  0  0  0
    0.5998    0.8315   -5.9615 O   0  0  0  1  0  0  0  0  0  0  0  0
   -0.1710   -1.1730   -4.9200 C   0  0  0  1  0  0  0  0  0  0  0  0
   -1.0747   -1.6154   -4.5559 H   0  0  0  1  0  0  0  0  0  0  0  0
    0.4028   -0.8030   -4.0961 H   0  0  0  1  0  0  0  0  0  0  0  0
    0.5991   -2.1572   -5.6558 O   0  0  0  1  0  0  0  0  0  0  0  0
    1.2304   -3.4293   -4.9861 P   0  0  0  1  0  0  0  0  0  0  0  0
    0.0784   -4.2837   -4.5617 O   0  0  0  0  0  0  0  0  0  0  0  0
    2.1794   -3.0734   -3.9188 O   0  0  0  1  0  0  0  0  0  0  0  0
    2.0747   -4.1982   -6.1294 O   0  0  0  1  0  0  0  0  0  0  0  0
    1.7579   -5.1729   -7.4096 P   0  0  0  1  0  0  0  0  0  0  0  0
    1.4543   -6.5749   -7.0454 O   0  0  0  1  0  0  0  0  0  0  0  0
    0.5593   -4.4523   -8.2274 O   0  5  0  1  0  0  0  0  0  0  0  0
    3.0761   -5.1498   -8.2687 O   0  0  0  1  0  0  0  0  0  0  0  0
    5.3714   -5.5441   -8.7425 C   0  0  0  1  0  0  0  0  0  0  0  0
    4.3707   -5.3587   -7.6496 C   0  0  0  1  0  0  0  0  0  0  0  0
    4.3420   -6.2307   -7.0302 H   0  0  0  1  0  0  0  0  0  0  0  0
    4.6326   -4.5076   -7.0563 H   0  0  0  1  0  0  0  0  0  0  0  0
    6.7676   -5.6794   -8.1286 C   0  0  0  1  0  0  0  0  0  0  0  0
    7.2416   -6.5596   -8.5100 H   0  0  0  1  0  0  0  0  0  0  0  0
    6.6835   -5.7525   -7.0645 H   0  0  0  1  0  0  0  0  0  0  0  0
    7.3533   -4.8207   -8.3825 H   0  0  0  1  0  0  0  0  0  0  0  0
    5.3541   -4.2930   -9.6418 C   0  0  0  1  0  0  0  0  0  0  0  0
    5.1918   -3.4230   -9.0404 H   0  0  0  1  0  0  0  0  0  0  0  0
    4.5663   -4.3815  -10.3605 H   0  0  0  1  0  0  0  0  0  0  0  0
    6.2921   -4.2056  -10.1491 H   0  0  0  1  0  0  0  0  0  0  0  0
    5.0247   -6.7807   -9.5801 C   0  0  0  1  0  0  0  0  0  0  0  0
    5.7564   -6.8855  -10.3537 H   0  0  0  1  0  0  0  0  0  0  0  0
    5.0931   -7.8905   -8.6878 O   0  0  0  1  0  0  0  0  0  0  0  0
    4.5218   -7.7305   -7.9330 H   0  0  0  1  0  0  0  0  0  0  0  0
    3.6516   -6.6790  -10.2152 C   0  0  0  1  0  0  0  0  0  0  0  0
    3.4128   -5.8476  -11.0901 O   0  0  0  1  0  0  0  0  0  0  0  0
    2.7333   -7.5466   -9.7611 N   0  0  0  1  0  0  0  0  0  0  0  0
    3.0156   -8.2055   -9.0928 H   0  0  0  1  0  0  0  0  0  0  0  0
    1.3454   -7.5711  -10.1981 C   0  0  0  1  0  0  0  0  0  0  0  0
    1.0205   -6.5605  -10.3325 H   0  0  0  1  0  0  0  0  0  0  0  0
    0.7623   -8.0346   -9.4299 H   0  0  0  1  0  0  0  0  0  0  0  0
    1.1012   -8.3248  -11.4989 C   0  0  0  1  0  0  0  0  0  0  0  0
    1.4065   -9.3417  -11.3658 H   0  0  0  1  0  0  0  0  0  0  0  0
    1.6898   -7.8732  -12.2699 H   0  0  0  1  0  0  0  0  0  0  0  0
   -0.3419   -8.3100  -11.9270 C   0  0  0  1  0  0  0  0  0  0  0  0
   -1.0742   -7.3562  -11.7212 O   0  0  0  1  0  0  0  0  0  0  0  0
   -0.8428   -9.3749  -12.5539 N   0  0  0  1  0  0  0  0  0  0  0  0
   -0.2542  -10.1467  -12.6889 H   0  0  0  1  0  0  0  0  0  0  0  0
   -2.2161   -9.4645  -13.0532 C   0  0  0  1  0  0  0  0  0  0  0  0
   -2.8520   -8.8897  -12.4128 H   0  0  0  1  0  0  0  0  0  0  0  0
   -2.5219  -10.4897  -13.0335 H   0  0  0  1  0  0  0  0  0  0  0  0
   -2.3551   -8.9421  -14.4739 C   0  0  0  1  0  0  0  0  0  0  0  0
   -1.9315   -7.9610  -14.5284 H   0  0  0  1  0  0  0  0  0  0  0  0
   -3.3931   -8.8977  -14.7298 H   0  0  0  1  0  0  0  0  0  0  0  0
   -1.5024  -10.0198  -15.6497 S   0  0  0  1  0  0  0  0  0  0  0  0
   -2.1064  -11.6305  -15.2829 C   0  0  0  1  0  0  0  0  0  0  0  0
   -3.0176  -11.7469  -14.5139 O   0  0  0  1  0  0  0  0  0  0  0  0
   -1.4661  -12.8612  -15.9457 C   0  0  0  1  0  0  0  0  0  0  0  0
   -0.4053  -12.7297  -15.9936 H   0  0  0  1  0  0  0  0  0  0  0  0
   -1.8560  -12.9763  -16.9355 H   0  0  0  1  0  0  0  0  0  0  0  0
   -1.6913  -13.7341  -15.3693 H   0  0  0  1  0  0  0  0  0  0  0  0
  1  2  1  0  0  0  0
  1  7  2  0  0  0  0
  2  3  1  0  0  0  0
  2  4  2  0  0  0  0
  4  5  1  0  0  0  0
  5  6  2  0  0  0  0
  5 14  1  0  0  0  0
  6  7  1  0  0  0  0
  6 11  1  0  0  0  0
  7  8  1  0  0  0  0
  8  9  1  0  0  0  0
  8 10  1  0  0  0  0
 11 12  2  0  0  0  0
 12 13  1  0  0  0  0
 12 14  1  0  0  0  0
 14 15  1  0  0  0  0
 15 16  1  0  0  0  0
 15 17  1  0  0  0  0
 15 30  1  0  0  0  0
 17 18  1  0  0  0  0
 17 19  1  0  0  0  0
 17 21  1  0  0  0  0
 19 20  1  0  0  0  0
 21 22  1  0  0  0  0
 21 23  1  0  0  0  0
 21 28  1  0  0  0  0
 23 24  1  0  0  0  0
 24 25  1  0  0  0  0
 24 26  2  0  0  0  0
 24 27  1  0  0  0  0
 28 29  1  0  0  0  0
 28 30  1  0  0  0  0
 28 31  1  0  0  0  0
 31 32  1  0  0  0  0
 31 33  1  0  0  0  0
 31 34  1  0  0  0  0
 34 35  1  0  0  0  0
 35 36  1  0  0  0  0
 35 37  2  0  0  0  0
 35 38  1  0  0  0  0
 38 39  1  0  0  0  0
 39 40  2  0  0  0  0
 39 41  1  0  0  0  0
 39 42  1  0  0  0  0
 42 44  1  0  0  0  0
 43 44  1  0  0  0  0
 43 47  1  0  0  0  0
 43 51  1  0  0  0  0
 43 55  1  0  0  0  0
 44 45  1  0  0  0  0
 44 46  1  0  0  0  0
 47 48  1  0  0  0  0
 47 49  1  0  0  0  0
 47 50  1  0  0  0  0
 51 52  1  0  0  0  0
 51 53  1  0  0  0  0
 51 54  1  0  0  0  0
 55 56  1  0  0  0  0
 55 57  1  0  0  0  0
 55 59  1  0  0  0  0
 57 58  1  0  0  0  0
 59 60  2  0  0  0  0
 59 61  1  0  0  0  0
 61 62  1  0  0  0  0
 61 63  1  0  0  0  0
 63 64  1  0  0  0  0
 63 65  1  0  0  0  0
 63 66  1  0  0  0  0
 66 67  1  0  0  0  0
 66 68  1  0  0  0  0
 66 69  1  0  0  0  0
 69 70  2  0  0  0  0
 69 71  1  0  0  0  0
 71 72  1  0  0  0  0
 71 73  1  0  0  0  0
 73 74  1  0  0  0  0
 73 75  1  0  0  0  0
 73 76  1  0  0  0  0
 76 77  1  0  0  0  0
 76 78  1  0  0  0  0
 76 79  1  0  0  0  0
 79 80  1  0  0  0  0
 80 81  2  0  0  0  0
 80 82  1  0  0  0  0
 82 83  1  0  0  0  0
 82 84  1  0  0  0  0
 82 85  1  0  0  0  0
M  BCL ATM N_Tr2TrTrPi C_TrTrTrPi H_S N_Tr2TrTrPi C_TrTrTrPi C_TrTrTrPi C_TrTrTrPi N_TrTrTrPi2 H_S H_S N_Tr2TrTrPi C_TrTrTrPi H_S N_TrTrTrPi2 C_TeTeTeTe H_S C_TeTeTeTe H_S O_Te2Te2TeTe H_S C_TeTeTeTe H_S O_Tr2TrTrPi2 P_TeTeTeTePi O_Te2Te2TeTe O_Tr2Tr2TrPi O_Te2Te2Te2Te C_TeTeTeTe H_S O_Te2Te2TeTe C_TeTeTeTe H_S H_S O_Tr2TrTrPi2 P_TeTeTeTePi O_Te2Te2TeTe O_Tr2Tr2TrPi O_Tr2TrTrPi2 P_TeTeTeTePi O_Tr2Tr2TrPi O_Te2Te2Te2Te O_Tr2TrTrPi2 C_TeTeTeTe C_TeTeTeTe H_S H_S C_TeTeTeTe H_S H_S H_S C_TeTeTeTe H_S H_S H_S C_TeTeTeTe H_S O_Te2Te2TeTe H_S C_TrTrTrPi O_Tr2Tr2TrPi N_TrTrTrPi2 H_S C_TeTeTeTe H_S H_S C_TeTeTeTe H_S H_S C_TrTrTrPi O_Tr2Tr2TrPi N_TrTrTrPi2 H_S C_TeTeTeTe H_S H_S C_TeTeTeTe H_S H_S S_Te2Te2TeTe C_TrTrTrPi O_Tr2Tr2TrPi C_TeTeTeTe H_S H_S H_S
M  BCL BND AromaticSingleBond AromaticDoubleBond NonConjugatedSingleBond AromaticDoubleBond AromaticSingleBond AromaticDoubleBond AromaticSingleBond AromaticSingleBond AromaticSingleBond ConjugatedSingleBond NonConjugatedSingleBond NonConjugatedSingleBond AromaticDoubleBond NonConjugatedSingleBond AromaticSingleBond NonConjugatedSingleBond NonConjugatedSingleBond NonConjugatedSingleBondInRing NonConjugatedSingleBondInRing NonConjugatedSingleBond NonConjugatedSingleBond NonConjugatedSingleBondInRing NonConjugatedSingleBond NonConjugatedSingleBond NonConjugatedSingleBond NonConjugatedSingleBondInRing ConjugatedSingleBond ConjugatedSingleBond ConjugatedDoubleBond ConjugatedSingleBond NonConjugatedSingleBond NonConjugatedSingleBondInRing NonConjugatedSingleBond NonConjugatedSingleBond NonConjugatedSingleBond NonConjugatedSingleBond ConjugatedSingleBond ConjugatedSingleBond ConjugatedDoubleBond ConjugatedSingleBond ConjugatedSingleBond ConjugatedDoubleBond ConjugatedSingleBond ConjugatedSingleBond NonConjugatedSingleBond NonConjugatedSingleBond NonConjugatedSingleBond NonConjugatedSingleBond NonConjugatedSingleBond NonConjugatedSingleBond NonConjugatedSingleBond NonConjugatedSingleBond NonConjugatedSingleBond NonConjugatedSingleBond NonConjugatedSingleBond NonConjugatedSingleBond NonConjugatedSingleBond NonConjugatedSingleBond NonConjugatedSingleBond NonConjugatedSingleBond NonConjugatedSingleBond ConjugatedDoubleBond AmideSingleBond NonConjugatedSingleBond NonConjugatedSingleBond NonConjugatedSingleBond NonConjugatedSingleBond NonConjugatedSingleBond NonConjugatedSingleBond NonConjugatedSingleBond NonConjugatedSingleBond ConjugatedDoubleBond AmideSingleBond NonConjugatedSingleBond NonConjugatedSingleBond NonConjugatedSingleBond NonConjugatedSingleBond NonConjugatedSingleBond NonConjugatedSingleBond NonConjugatedSingleBond NonConjugatedSingleBond ConjugatedSingleBond ConjugatedDoubleBond NonConjugatedSingleBond NonConjugatedSingleBond NonConjugatedSingleBond NonConjugatedSingleBond
M  BCL CHI  15   S  17   S  21   S  24   S  28   R  35   R  39   R  55   S
M  BCL DBI - - - - - - - - - -
M  END
> <ConfClashScore>
0.000336123 

> <ConfOneFourInteractionScore>
-0.981283 

> <ConfScore>
0.0322453 

> <ConfScorePBest>
0.0100515 

> <ConfTolerance>
2.40822 

$$$$
ACO.****
  PyMOL2.5          3D                             0

 85 87  0  0  0  0  0  0  0  0999 V2000
    4.8825    1.0931  -10.6528 N   0  0  0  1  0  0  0  0  0  0  0  0
    3.8345    1.9230  -10.5302 C   0  0  0  1  0  0  0  0  0  0  0  0
    3.7975    2.7050  -11.2149 H   0  0  0  1  0  0  0  0  0  0  0  0
    2.8391    1.8804   -9.6531 N   0  0  0  1  0  0  0  0  0  0  0  0
    2.9676    0.8446   -8.8227 C   0  0  0  1  0  0  0  0  0  0  0  0
    3.9994   -0.1037   -8.8201 C   0  0  0  1  0  0  0  0  0  0  0  0
    4.9791    0.0737   -9.7925 C   0  0  0  1  0  0  0  0  0  0  0  0
    6.0425   -0.7858   -9.8776 N   0  0  0  1  0  0  0  0  0  0  0  0
    6.7289   -0.6497  -10.5638 H   0  0  0  1  0  0  0  0  0  0  0  0
    6.1169   -1.5368   -9.2524 H   0  0  0  1  0  0  0  0  0  0  0  0
    3.8030   -1.0244   -7.8026 N   0  0  0  1  0  0  0  0  0  0  0  0
    2.6951   -0.6257   -7.2392 C   0  0  0  1  0  0  0  0  0  0  0  0
    2.2687   -1.1221   -6.4309 H   0  0  0  1  0  0  0  0  0  0  0  0
    2.1399    0.4887   -7.7892 N   0  0  0  1  0  0  0  0  0  0  0  0
    0.8582    1.1137   -7.4320 C   0  0  0  1  0  0  0  0  0  0  0  0
    0.0815    0.3783   -7.4624 H   0  0  0  1  0  0  0  0  0  0  0  0
    0.9368    1.7783   -6.0345 C   0  0  0  1  0  0  0  0  0  0  0  0
    1.8924    2.2318   -5.8733 H   0  0  0  1  0  0  0  0  0  0  0  0
    0.6778    0.8388   -5.0017 O   0  0  0  1  0  0  0  0  0  0  0  0
    0.2555    1.2831   -4.2629 H   0  0  0  1  0  0  0  0  0  0  0  0
   -0.1860    2.8456   -6.1194 C   0  0  0  1  0  0  0  0  0  0  0  0
    0.1197    3.7570   -5.6496 H   0  0  0  1  0  0  0  0  0  0  0  0
   -1.4038    2.3634   -5.4948 O   0  0  0  1  0  0  0  0  0  0  0  0
   -2.5032    3.4597   -4.9666 P   0  0  0  1  0  0  0  0  0  0  0  0
   -3.5927    2.5692   -4.1242 O   0  0  0  0  0  0  0  0  0  0  0  0
   -1.8782    4.5494   -4.1841 O   0  0  0  1  0  0  0  0  0  0  0  0
   -3.3084    3.9739   -6.2749 O   0  5  0  1  0  0  0  0  0  0  0  0
   -0.3917    3.0520   -7.6328 C   0  0  0  1  0  0  0  0  0  0  0  0
   -1.3871    2.7724   -7.9080 H   0  0  0  1  0  0  0  0  0  0  0  0
    0.5588    2.2166   -8.3136 O   0  0  0  1  0  0  0  0  0  0  0  0
   -0.1623    4.4667   -7.9844 C   0  0  0  1  0  0  0  0  0  0  0  0
    0.8760    4.6957   -7.8647 H   0  0  0  1  0  0  0  0  0  0  0  0
   -0.7425    5.0894   -7.3359 H   0  0  0  1  0  0  0  0  0  0  0  0
   -0.5509    4.7160   -9.3592 O   0  0  0  1  0  0  0  0  0  0  0  0
    0.3569    5.6357  -10.3197 P   0  0  0  1  0  0  0  0  0  0  0  0
   -0.2793    5.5083  -11.6537 O   0  0  0  0  0  0  0  0  0  0  0  0
    1.7936    5.3215  -10.1456 O   0  0  0  1  0  0  0  0  0  0  0  0
   -0.0003    7.0731   -9.6971 O   0  0  0  1  0  0  0  0  0  0  0  0
   -1.2138    7.5865   -8.7207 P   0  0  0  1  0  0  0  0  0  0  0  0
   -2.1074    8.5182   -9.4444 O   0  0  0  1  0  0  0  0  0  0  0  0
   -2.0723    6.3171   -8.1954 O   0  5  0  1  0  0  0  0  0  0  0  0
   -0.5577    8.3118   -7.4879 O   0  0  0  1  0  0  0  0  0  0  0  0
   -0.4829    8.5447   -5.1024 C   0  0  0  1  0  0  0  0  0  0  0  0
   -1.3327    8.6117   -6.3069 C   0  0  0  1  0  0  0  0  0  0  0  0
   -2.1276    7.9010   -6.2172 H   0  0  0  1  0  0  0  0  0  0  0  0
   -1.7422    9.5963   -6.3949 H   0  0  0  1  0  0  0  0  0  0  0  0
    0.6492    9.5695   -5.2154 C   0  0  0  1  0  0  0  0  0  0  0  0
    0.4873   10.3597   -4.5124 H   0  0  0  1  0  0  0  0  0  0  0  0
    0.6676    9.9724   -6.2065 H   0  0  0  1  0  0  0  0  0  0  0  0
    1.5839    9.0925   -5.0064 H   0  0  0  1  0  0  0  0  0  0  0  0
    0.0570    7.1134   -4.9427 C   0  0  0  1  0  0  0  0  0  0  0  0
   -0.5043    6.4484   -5.5653 H   0  0  0  1  0  0  0  0  0  0  0  0
   -0.0363    6.8092   -3.9211 H   0  0  0  1  0  0  0  0  0  0  0  0
    1.0872    7.0869   -5.2306 H   0  0  0  1  0  0  0  0  0  0  0  0
   -1.3588    8.8853   -3.8896 C   0  0  0  1  0  0  0  0  0  0  0  0
   -0.7693    8.7734   -3.0036 H   0  0  0  1  0  0  0  0  0  0  0  0
   -1.8527   10.2066   -3.9811 O   0  0  0  1  0  0  0  0  0  0  0  0
   -1.6357   10.6862   -3.1783 H   0  0  0  1  0  0  0  0  0  0  0  0
   -2.5513    7.9529   -3.8010 C   0  0  0  1  0  0  0  0  0  0  0  0
   -2.4042    6.7408   -3.6505 O   0  0  0  1  0  0  0  0  0  0  0  0
   -3.7563    8.5367   -3.8969 N   0  0  0  1  0  0  0  0  0  0  0  0
   -3.8031    9.4951   -4.0961 H   0  0  0  1  0  0  0  0  0  0  0  0
   -4.9957    7.7957   -3.7155 C   0  0  0  1  0  0  0  0  0  0  0  0
   -5.6050    8.2982   -2.9936 H   0  0  0  1  0  0  0  0  0  0  0  0
   -4.7697    6.8094   -3.3677 H   0  0  0  1  0  0  0  0  0  0  0  0
   -5.7506    7.7028   -5.0314 C   0  0  0  1  0  0  0  0  0  0  0  0
   -5.0888    7.2888   -5.7632 H   0  0  0  1  0  0  0  0  0  0  0  0
   -6.0299    8.6938   -5.3225 H   0  0  0  1  0  0  0  0  0  0  0  0
   -6.9995    6.8570   -5.0021 C   0  0  0  1  0  0  0  0  0  0  0  0
   -6.9445    5.6599   -4.7233 O   0  0  0  1  0  0  0  0  0  0  0  0
   -8.1641    7.4464   -5.2873 N   0  0  0  1  0  0  0  0  0  0  0  0
   -8.1602    8.3759   -5.5977 H   0  0  0  1  0  0  0  0  0  0  0  0
   -9.4468    6.7514   -5.1522 C   0  0  0  1  0  0  0  0  0  0  0  0
   -9.2681    5.7236   -4.9142 H   0  0  0  1  0  0  0  0  0  0  0  0
   -9.9825    6.8161   -6.0762 H   0  0  0  1  0  0  0  0  0  0  0  0
  -10.2689    7.3809   -4.0550 C   0  0  0  1  0  0  0  0  0  0  0  0
  -11.1947    6.8520   -3.9648 H   0  0  0  1  0  0  0  0  0  0  0  0
  -10.4642    8.4023   -4.3070 H   0  0  0  1  0  0  0  0  0  0  0  0
   -9.4000    7.3196   -2.4774 S   0  0  0  1  0  0  0  0  0  0  0  0
   -8.1011    8.5093   -2.6450 C   0  0  0  1  0  0  0  0  0  0  0  0
   -7.9130    9.2205   -3.6007 O   0  0  0  1  0  0  0  0  0  0  0  0
   -7.2124    8.5401   -1.4067 C   0  0  0  1  0  0  0  0  0  0  0  0
   -7.8234    8.5885   -0.5297 H   0  0  0  1  0  0  0  0  0  0  0  0
   -6.5762    9.3996   -1.4458 H   0  0  0  1  0  0  0  0  0  0  0  0
   -6.6137    7.6538   -1.3755 H   0  0  0  1  0  0  0  0  0  0  0  0
  1  2  1  0  0  0  0
  1  7  2  0  0  0  0
  2  3  1  0  0  0  0
  2  4  2  0  0  0  0
  4  5  1  0  0  0  0
  5  6  2  0  0  0  0
  5 14  1  0  0  0  0
  6  7  1  0  0  0  0
  6 11  1  0  0  0  0
  7  8  1  0  0  0  0
  8  9  1  0  0  0  0
  8 10  1  0  0  0  0
 11 12  2  0  0  0  0
 12 13  1  0  0  0  0
 12 14  1  0  0  0  0
 14 15  1  0  0  0  0
 15 16  1  0  0  0  0
 15 17  1  0  0  0  0
 15 30  1  0  0  0  0
 17 18  1  0  0  0  0
 17 19  1  0  0  0  0
 17 21  1  0  0  0  0
 19 20  1  0  0  0  0
 21 22  1  0  0  0  0
 21 23  1  0  0  0  0
 21 28  1  0  0  0  0
 23 24  1  0  0  0  0
 24 25  1  0  0  0  0
 24 26  2  0  0  0  0
 24 27  1  0  0  0  0
 28 29  1  0  0  0  0
 28 30  1  0  0  0  0
 28 31  1  0  0  0  0
 31 32  1  0  0  0  0
 31 33  1  0  0  0  0
 31 34  1  0  0  0  0
 34 35  1  0  0  0  0
 35 36  1  0  0  0  0
 35 37  2  0  0  0  0
 35 38  1  0  0  0  0
 38 39  1  0  0  0  0
 39 40  2  0  0  0  0
 39 41  1  0  0  0  0
 39 42  1  0  0  0  0
 42 44  1  0  0  0  0
 43 44  1  0  0  0  0
 43 47  1  0  0  0  0
 43 51  1  0  0  0  0
 43 55  1  0  0  0  0
 44 45  1  0  0  0  0
 44 46  1  0  0  0  0
 47 48  1  0  0  0  0
 47 49  1  0  0  0  0
 47 50  1  0  0  0  0
 51 52  1  0  0  0  0
 51 53  1  0  0  0  0
 51 54  1  0  0  0  0
 55 56  1  0  0  0  0
 55 57  1  0  0  0  0
 55 59  1  0  0  0  0
 57 58  1  0  0  0  0
 59 60  2  0  0  0  0
 59 61  1  0  0  0  0
 61 62  1  0  0  0  0
 61 63  1  0  0  0  0
 63 64  1  0  0  0  0
 63 65  1  0  0  0  0
 63 66  1  0  0  0  0
 66 67  1  0  0  0  0
 66 68  1  0  0  0  0
 66 69  1  0  0  0  0
 69 70  2  0  0  0  0
 69 71  1  0  0  0  0
 71 72  1  0  0  0  0
 71 73  1  0  0  0  0
 73 74  1  0  0  0  0
 73 75  1  0  0  0  0
 73 76  1  0  0  0  0
 76 77  1  0  0  0  0
 76 78  1  0  0  0  0
 76 79  1  0  0  0  0
 79 80  1  0  0  0  0
 80 81  2  0  0  0  0
 80 82  1  0  0  0  0
 82 83  1  0  0  0  0
 82 84  1  0  0  0  0
 82 85  1  0  0  0  0
M  BCL ATM N_Tr2TrTrPi C_TrTrTrPi H_S N_Tr2TrTrPi C_TrTrTrPi C_TrTrTrPi C_TrTrTrPi N_TrTrTrPi2 H_S H_S N_Tr2TrTrPi C_TrTrTrPi H_S N_TrTrTrPi2 C_TeTeTeTe H_S C_TeTeTeTe H_S O_Te2Te2TeTe H_S C_TeTeTeTe H_S O_Tr2TrTrPi2 P_TeTeTeTePi O_Te2Te2TeTe O_Tr2Tr2TrPi O_Te2Te2Te2Te C_TeTeTeTe H_S O_Te2Te2TeTe C_TeTeTeTe H_S H_S O_Tr2TrTrPi2 P_TeTeTeTePi O_Te2Te2TeTe O_Tr2Tr2TrPi O_Tr2TrTrPi2 P_TeTeTeTePi O_Tr2Tr2TrPi O_Te2Te2Te2Te O_Tr2TrTrPi2 C_TeTeTeTe C_TeTeTeTe H_S H_S C_TeTeTeTe H_S H_S H_S C_TeTeTeTe H_S H_S H_S C_TeTeTeTe H_S O_Te2Te2TeTe H_S C_TrTrTrPi O_Tr2Tr2TrPi N_TrTrTrPi2 H_S C_TeTeTeTe H_S H_S C_TeTeTeTe H_S H_S C_TrTrTrPi O_Tr2Tr2TrPi N_TrTrTrPi2 H_S C_TeTeTeTe H_S H_S C_TeTeTeTe H_S H_S S_Te2Te2TeTe C_TrTrTrPi O_Tr2Tr2TrPi C_TeTeTeTe H_S H_S H_S
M  BCL BND AromaticSingleBond AromaticDoubleBond NonConjugatedSingleBond AromaticDoubleBond AromaticSingleBond AromaticDoubleBond AromaticSingleBond AromaticSingleBond AromaticSingleBond ConjugatedSingleBond NonConjugatedSingleBond NonConjugatedSingleBond AromaticDoubleBond NonConjugatedSingleBond AromaticSingleBond NonConjugatedSingleBond NonConjugatedSingleBond NonConjugatedSingleBondInRing NonConjugatedSingleBondInRing NonConjugatedSingleBond NonConjugatedSingleBond NonConjugatedSingleBondInRing NonConjugatedSingleBond NonConjugatedSingleBond NonConjugatedSingleBond NonConjugatedSingleBondInRing ConjugatedSingleBond ConjugatedSingleBond ConjugatedDoubleBond ConjugatedSingleBond NonConjugatedSingleBond NonConjugatedSingleBondInRing NonConjugatedSingleBond NonConjugatedSingleBond NonConjugatedSingleBond NonConjugatedSingleBond ConjugatedSingleBond ConjugatedSingleBond ConjugatedDoubleBond ConjugatedSingleBond ConjugatedSingleBond ConjugatedDoubleBond ConjugatedSingleBond ConjugatedSingleBond NonConjugatedSingleBond NonConjugatedSingleBond NonConjugatedSingleBond NonConjugatedSingleBond NonConjugatedSingleBond NonConjugatedSingleBond NonConjugatedSingleBond NonConjugatedSingleBond NonConjugatedSingleBond NonConjugatedSingleBond NonConjugatedSingleBond NonConjugatedSingleBond NonConjugatedSingleBond NonConjugatedSingleBond NonConjugatedSingleBond NonConjugatedSingleBond NonConjugatedSingleBond ConjugatedDoubleBond AmideSingleBond NonConjugatedSingleBond NonConjugatedSingleBond NonConjugatedSingleBond NonConjugatedSingleBond NonConjugatedSingleBond NonConjugatedSingleBond NonConjugatedSingleBond NonConjugatedSingleBond ConjugatedDoubleBond AmideSingleBond NonConjugatedSingleBond NonConjugatedSingleBond NonConjugatedSingleBond NonConjugatedSingleBond NonConjugatedSingleBond NonConjugatedSingleBond NonConjugatedSingleBond NonConjugatedSingleBond ConjugatedSingleBond ConjugatedDoubleBond NonConjugatedSingleBond NonConjugatedSingleBond NonConjugatedSingleBond NonConjugatedSingleBond
M  BCL CHI  15   S  17   S  21   S  24   S  28   R  35   R  39   R  55   S
M  BCL DBI - - - - - - - - - -
M  END
> <ConfClashScore>
0 

> <ConfOneFourInteractionScore>
-0.98454 

> <ConfScore>
0.0331155 

> <ConfScorePBest>
0.0099485 

> <ConfTolerance>
2.6199 

$$$$
ACO.****
  PyMOL2.5          3D                             0

 85 87  0  0  0  0  0  0  0  0999 V2000
    4.8823    1.0756  -10.6434 N   0  0  0  1  0  0  0  0  0  0  0  0
    3.8323    1.9046  -10.5329 C   0  0  0  1  0  0  0  0  0  0  0  0
    3.7989    2.6826  -11.2222 H   0  0  0  1  0  0  0  0  0  0  0  0
    2.8308    1.8654   -9.6626 N   0  0  0  1  0  0  0  0  0  0  0  0
    2.9550    0.8346   -8.8254 C   0  0  0  1  0  0  0  0  0  0  0  0
    3.9881   -0.1121   -8.8101 C   0  0  0  1  0  0  0  0  0  0  0  0
    4.9745    0.0613   -9.7766 C   0  0  0  1  0  0  0  0  0  0  0  0
    6.0672   -0.7723   -9.8947 N   0  0  0  1  0  0  0  0  0  0  0  0
    6.6988   -0.6504  -10.6340 H   0  0  0  1  0  0  0  0  0  0  0  0
    6.2118   -1.4864   -9.2393 H   0  0  0  1  0  0  0  0  0  0  0  0
    3.7860   -1.0273   -7.7888 N   0  0  0  1  0  0  0  0  0  0  0  0
    2.6736   -0.6271   -7.2355 C   0  0  0  1  0  0  0  0  0  0  0  0
    2.2422   -1.1196   -6.4274 H   0  0  0  1  0  0  0  0  0  0  0  0
    2.1206    0.4833   -7.7958 N   0  0  0  1  0  0  0  0  0  0  0  0
    0.8910    1.1621   -7.3853 C   0  0  0  1  0  0  0  0  0  0  0  0
    0.5704    0.7790   -6.4391 H   0  0  0  1  0  0  0  0  0  0  0  0
    1.1010    2.6958   -7.3193 C   0  0  0  1  0  0  0  0  0  0  0  0
    1.7403    3.0346   -8.1075 H   0  0  0  1  0  0  0  0  0  0  0  0
    1.6474    3.0911   -6.0582 O   0  0  0  1  0  0  0  0  0  0  0  0
    2.5181    3.4727   -6.1917 H   0  0  0  1  0  0  0  0  0  0  0  0
   -0.3450    3.2290   -7.4985 C   0  0  0  1  0  0  0  0  0  0  0  0
   -0.3553    4.0961   -8.1253 H   0  0  0  1  0  0  0  0  0  0  0  0
   -0.9377    3.5525   -6.2146 O   0  0  0  1  0  0  0  0  0  0  0  0
   -0.9810    5.0742   -5.6046 P   0  0  0  1  0  0  0  0  0  0  0  0
    0.5309    5.4949   -5.1285 O   0  0  0  0  0  0  0  0  0  0  0  0
   -1.7353    5.9832   -6.4964 O   0  0  0  1  0  0  0  0  0  0  0  0
   -1.7745    4.8807   -4.2056 O   0  5  0  1  0  0  0  0  0  0  0  0
   -1.0939    2.0603   -8.1683 C   0  0  0  1  0  0  0  0  0  0  0  0
   -1.8820    1.7178   -7.5307 H   0  0  0  1  0  0  0  0  0  0  0  0
   -0.1416    1.0056   -8.3816 O   0  0  0  1  0  0  0  0  0  0  0  0
   -1.6726    2.5078   -9.4891 C   0  0  0  1  0  0  0  0  0  0  0  0
   -0.9059    2.9178  -10.1127 H   0  0  0  1  0  0  0  0  0  0  0  0
   -2.4361    3.2410   -9.3328 H   0  0  0  1  0  0  0  0  0  0  0  0
   -2.2330    1.3149  -10.0943 O   0  0  0  1  0  0  0  0  0  0  0  0
   -3.0477    1.3986  -11.4379 P   0  0  0  1  0  0  0  0  0  0  0  0
   -3.4014   -0.0018  -11.7616 O   0  0  0  0  0  0  0  0  0  0  0  0
   -2.3366    2.2172  -12.4373 O   0  0  0  1  0  0  0  0  0  0  0  0
   -4.4110    2.1087  -10.9955 O   0  0  0  1  0  0  0  0  0  0  0  0
   -5.0417    3.6144  -11.1526 P   0  0  0  1  0  0  0  0  0  0  0  0
   -5.5667    4.0282   -9.8322 O   0  0  0  1  0  0  0  0  0  0  0  0
   -3.9200    4.6629  -11.6692 O   0  5  0  1  0  0  0  0  0  0  0  0
   -6.2218    3.2699  -12.1294 O   0  0  0  1  0  0  0  0  0  0  0  0
   -8.3404    3.5142  -13.1783 C   0  0  0  1  0  0  0  0  0  0  0  0
   -7.1847    4.2528  -12.5875 C   0  0  0  1  0  0  0  0  0  0  0  0
   -6.7380    4.8829  -13.3280 H   0  0  0  1  0  0  0  0  0  0  0  0
   -7.5164    4.8495  -11.7636 H   0  0  0  1  0  0  0  0  0  0  0  0
   -7.8424    2.5496  -14.2631 C   0  0  0  1  0  0  0  0  0  0  0  0
   -7.5812    1.6133  -13.8159 H   0  0  0  1  0  0  0  0  0  0  0  0
   -6.9825    2.9672  -14.7439 H   0  0  0  1  0  0  0  0  0  0  0  0
   -8.6163    2.3959  -14.9858 H   0  0  0  1  0  0  0  0  0  0  0  0
   -9.3227    4.5158  -13.7949 C   0  0  0  1  0  0  0  0  0  0  0  0
  -10.0995    3.9860  -14.3057 H   0  0  0  1  0  0  0  0  0  0  0  0
   -8.8034    5.1432  -14.4889 H   0  0  0  1  0  0  0  0  0  0  0  0
   -9.7512    5.1175  -13.0208 H   0  0  0  1  0  0  0  0  0  0  0  0
   -9.0542    2.7198  -12.0787 C   0  0  0  1  0  0  0  0  0  0  0  0
   -8.3590    2.0359  -11.6386 H   0  0  0  1  0  0  0  0  0  0  0  0
   -9.5081    3.6526  -11.1186 O   0  0  0  1  0  0  0  0  0  0  0  0
   -9.5297    3.2372  -10.2534 H   0  0  0  1  0  0  0  0  0  0  0  0
  -10.1962    1.9373  -12.6974 C   0  0  0  1  0  0  0  0  0  0  0  0
  -10.0540    1.3335  -13.7479 O   0  0  0  1  0  0  0  0  0  0  0  0
  -11.3458    1.9575  -12.0211 N   0  0  0  1  0  0  0  0  0  0  0  0
  -11.4159    2.5237  -11.2243 H   0  0  0  1  0  0  0  0  0  0  0  0
  -12.4995    1.1679  -12.4254 C   0  0  0  1  0  0  0  0  0  0  0  0
  -12.7427    0.4873  -11.6364 H   0  0  0  1  0  0  0  0  0  0  0  0
  -12.2460    0.6169  -13.3069 H   0  0  0  1  0  0  0  0  0  0  0  0
  -13.7210    2.0280  -12.7219 C   0  0  0  1  0  0  0  0  0  0  0  0
  -14.5053    1.3939  -13.0793 H   0  0  0  1  0  0  0  0  0  0  0  0
  -13.4621    2.7376  -13.4797 H   0  0  0  1  0  0  0  0  0  0  0  0
  -14.2221    2.7763  -11.5157 C   0  0  0  1  0  0  0  0  0  0  0  0
  -14.4680    2.1875  -10.4663 O   0  0  0  1  0  0  0  0  0  0  0  0
  -14.3904    4.0954  -11.6214 N   0  0  0  1  0  0  0  0  0  0  0  0
  -14.1722    4.5125  -12.4809 H   0  0  0  1  0  0  0  0  0  0  0  0
  -14.8769    4.9674  -10.5494 C   0  0  0  1  0  0  0  0  0  0  0  0
  -14.5962    4.5540   -9.6032 H   0  0  0  1  0  0  0  0  0  0  0  0
  -15.9431    5.0364  -10.6068 H   0  0  0  1  0  0  0  0  0  0  0  0
  -14.2808    6.3464  -10.6867 C   0  0  0  1  0  0  0  0  0  0  0  0
  -14.6059    6.7664  -11.6156 H   0  0  0  1  0  0  0  0  0  0  0  0
  -13.2145    6.2572  -10.6888 H   0  0  0  1  0  0  0  0  0  0  0  0
  -14.7610    7.4665   -9.3504 S   0  0  0  1  0  0  0  0  0  0  0  0
  -14.0022    9.0159   -9.7792 C   0  0  0  1  0  0  0  0  0  0  0  0
  -13.3709    9.1898  -10.7899 O   0  0  0  1  0  0  0  0  0  0  0  0
  -14.2415   10.0801   -8.7334 C   0  0  0  1  0  0  0  0  0  0  0  0
  -14.6634   10.9475   -9.1965 H   0  0  0  1  0  0  0  0  0  0  0  0
  -13.3126   10.3397   -8.2700 H   0  0  0  1  0  0  0  0  0  0  0  0
  -14.9179    9.7066   -7.9932 H   0  0  0  1  0  0  0  0  0  0  0  0
  1  2  1  0  0  0  0
  1  7  2  0  0  0  0
  2  3  1  0  0  0  0
  2  4  2  0  0  0  0
  4  5  1  0  0  0  0
  5  6  2  0  0  0  0
  5 14  1  0  0  0  0
  6  7  1  0  0  0  0
  6 11  1  0  0  0  0
  7  8  1  0  0  0  0
  8  9  1  0  0  0  0
  8 10  1  0  0  0  0
 11 12  2  0  0  0  0
 12 13  1  0  0  0  0
 12 14  1  0  0  0  0
 14 15  1  0  0  0  0
 15 16  1  0  0  0  0
 15 17  1  0  0  0  0
 15 30  1  0  0  0  0
 17 18  1  0  0  0  0
 17 19  1  0  0  0  0
 17 21  1  0  0  0  0
 19 20  1  0  0  0  0
 21 22  1  0  0  0  0
 21 23  1  0  0  0  0
 21 28  1  0  0  0  0
 23 24  1  0  0  0  0
 24 25  1  0  0  0  0
 24 26  2  0  0  0  0
 24 27  1  0  0  0  0
 28 29  1  0  0  0  0
 28 30  1  0  0  0  0
 28 31  1  0  0  0  0
 31 32  1  0  0  0  0
 31 33  1  0  0  0  0
 31 34  1  0  0  0  0
 34 35  1  0  0  0  0
 35 36  1  0  0  0  0
 35 37  2  0  0  0  0
 35 38  1  0  0  0  0
 38 39  1  0  0  0  0
 39 40  2  0  0  0  0
 39 41  1  0  0  0  0
 39 42  1  0  0  0  0
 42 44  1  0  0  0  0
 43 44  1  0  0  0  0
 43 47  1  0  0  0  0
 43 51  1  0  0  0  0
 43 55  1  0  0  0  0
 44 45  1  0  0  0  0
 44 46  1  0  0  0  0
 47 48  1  0  0  0  0
 47 49  1  0  0  0  0
 47 50  1  0  0  0  0
 51 52  1  0  0  0  0
 51 53  1  0  0  0  0
 51 54  1  0  0  0  0
 55 56  1  0  0  0  0
 55 57  1  0  0  0  0
 55 59  1  0  0  0  0
 57 58  1  0  0  0  0
 59 60  2  0  0  0  0
 59 61  1  0  0  0  0
 61 62  1  0  0  0  0
 61 63  1  0  0  0  0
 63 64  1  0  0  0  0
 63 65  1  0  0  0  0
 63 66  1  0  0  0  0
 66 67  1  0  0  0  0
 66 68  1  0  0  0  0
 66 69  1  0  0  0  0
 69 70  2  0  0  0  0
 69 71  1  0  0  0  0
 71 72  1  0  0  0  0
 71 73  1  0  0  0  0
 73 74  1  0  0  0  0
 73 75  1  0  0  0  0
 73 76  1  0  0  0  0
 76 77  1  0  0  0  0
 76 78  1  0  0  0  0
 76 79  1  0  0  0  0
 79 80  1  0  0  0  0
 80 81  2  0  0  0  0
 80 82  1  0  0  0  0
 82 83  1  0  0  0  0
 82 84  1  0  0  0  0
 82 85  1  0  0  0  0
M  BCL ATM N_Tr2TrTrPi C_TrTrTrPi H_S N_Tr2TrTrPi C_TrTrTrPi C_TrTrTrPi C_TrTrTrPi N_TrTrTrPi2 H_S H_S N_Tr2TrTrPi C_TrTrTrPi H_S N_TrTrTrPi2 C_TeTeTeTe H_S C_TeTeTeTe H_S O_Te2Te2TeTe H_S C_TeTeTeTe H_S O_Tr2TrTrPi2 P_TeTeTeTePi O_Te2Te2TeTe O_Tr2Tr2TrPi O_Te2Te2Te2Te C_TeTeTeTe H_S O_Te2Te2TeTe C_TeTeTeTe H_S H_S O_Tr2TrTrPi2 P_TeTeTeTePi O_Te2Te2TeTe O_Tr2Tr2TrPi O_Tr2TrTrPi2 P_TeTeTeTePi O_Tr2Tr2TrPi O_Te2Te2Te2Te O_Tr2TrTrPi2 C_TeTeTeTe C_TeTeTeTe H_S H_S C_TeTeTeTe H_S H_S H_S C_TeTeTeTe H_S H_S H_S C_TeTeTeTe H_S O_Te2Te2TeTe H_S C_TrTrTrPi O_Tr2Tr2TrPi N_TrTrTrPi2 H_S C_TeTeTeTe H_S H_S C_TeTeTeTe H_S H_S C_TrTrTrPi O_Tr2Tr2TrPi N_TrTrTrPi2 H_S C_TeTeTeTe H_S H_S C_TeTeTeTe H_S H_S S_Te2Te2TeTe C_TrTrTrPi O_Tr2Tr2TrPi C_TeTeTeTe H_S H_S H_S
M  BCL BND AromaticSingleBond AromaticDoubleBond NonConjugatedSingleBond AromaticDoubleBond AromaticSingleBond AromaticDoubleBond AromaticSingleBond AromaticSingleBond AromaticSingleBond ConjugatedSingleBond NonConjugatedSingleBond NonConjugatedSingleBond AromaticDoubleBond NonConjugatedSingleBond AromaticSingleBond NonConjugatedSingleBond NonConjugatedSingleBond NonConjugatedSingleBondInRing NonConjugatedSingleBondInRing NonConjugatedSingleBond NonConjugatedSingleBond NonConjugatedSingleBondInRing NonConjugatedSingleBond NonConjugatedSingleBond NonConjugatedSingleBond NonConjugatedSingleBondInRing ConjugatedSingleBond ConjugatedSingleBond ConjugatedDoubleBond ConjugatedSingleBond NonConjugatedSingleBond NonConjugatedSingleBondInRing NonConjugatedSingleBond NonConjugatedSingleBond NonConjugatedSingleBond NonConjugatedSingleBond ConjugatedSingleBond ConjugatedSingleBond ConjugatedDoubleBond ConjugatedSingleBond ConjugatedSingleBond ConjugatedDoubleBond ConjugatedSingleBond ConjugatedSingleBond NonConjugatedSingleBond NonConjugatedSingleBond NonConjugatedSingleBond NonConjugatedSingleBond NonConjugatedSingleBond NonConjugatedSingleBond NonConjugatedSingleBond NonConjugatedSingleBond NonConjugatedSingleBond NonConjugatedSingleBond NonConjugatedSingleBond NonConjugatedSingleBond NonConjugatedSingleBond NonConjugatedSingleBond NonConjugatedSingleBond NonConjugatedSingleBond NonConjugatedSingleBond ConjugatedDoubleBond AmideSingleBond NonConjugatedSingleBond NonConjugatedSingleBond NonConjugatedSingleBond NonConjugatedSingleBond NonConjugatedSingleBond NonConjugatedSingleBond NonConjugatedSingleBond NonConjugatedSingleBond ConjugatedDoubleBond AmideSingleBond NonConjugatedSingleBond NonConjugatedSingleBond NonConjugatedSingleBond NonConjugatedSingleBond NonConjugatedSingleBond NonConjugatedSingleBond NonConjugatedSingleBond NonConjugatedSingleBond ConjugatedSingleBond ConjugatedDoubleBond NonConjugatedSingleBond NonConjugatedSingleBond NonConjugatedSingleBond NonConjugatedSingleBond
M  BCL CHI  15   S  17   S  21   S  24   S  28   R  35   R  39   R  55   S
M  BCL DBI - - - - - - - - - -
M  END
> <ConfClashScore>
0 

> <ConfOneFourInteractionScore>
-0.982349 

> <ConfScore>
0.0334448 

> <ConfScorePBest>
0.0098455 

> <ConfTolerance>
2.46648 

$$$$
ACO.****
  PyMOL2.5          3D                             0

 85 87  0  0  0  0  0  0  0  0999 V2000
    4.8863    1.0967  -10.6492 N   0  0  0  1  0  0  0  0  0  0  0  0
    3.8301    1.9176  -10.5374 C   0  0  0  1  0  0  0  0  0  0  0  0
    3.7942    2.7001  -11.2214 H   0  0  0  1  0  0  0  0  0  0  0  0
    2.8253    1.8653   -9.6716 N   0  0  0  1  0  0  0  0  0  0  0  0
    2.9531    0.8296   -8.8411 C   0  0  0  1  0  0  0  0  0  0  0  0
    3.9928   -0.1100   -8.8280 C   0  0  0  1  0  0  0  0  0  0  0  0
    4.9819    0.0770   -9.7891 C   0  0  0  1  0  0  0  0  0  0  0  0
    6.0534   -0.7734   -9.8634 N   0  0  0  1  0  0  0  0  0  0  0  0
    6.7668   -0.6071  -10.5145 H   0  0  0  1  0  0  0  0  0  0  0  0
    6.1066   -1.5480   -9.2654 H   0  0  0  1  0  0  0  0  0  0  0  0
    3.7928   -1.0337   -7.8140 N   0  0  0  1  0  0  0  0  0  0  0  0
    2.6753   -0.6452   -7.2626 C   0  0  0  1  0  0  0  0  0  0  0  0
    2.2441   -1.1463   -6.4598 H   0  0  0  1  0  0  0  0  0  0  0  0
    2.1169    0.4653   -7.8175 N   0  0  0  1  0  0  0  0  0  0  0  0
    0.9335    1.1859   -7.3390 C   0  0  0  1  0  0  0  0  0  0  0  0
    0.6141    1.8832   -8.0851 H   0  0  0  1  0  0  0  0  0  0  0  0
   -0.1924    0.2032   -7.0113 C   0  0  0  1  0  0  0  0  0  0  0  0
   -0.1295   -0.6805   -7.6114 H   0  0  0  1  0  0  0  0  0  0  0  0
   -1.4701    0.7997   -7.1784 O   0  0  0  1  0  0  0  0  0  0  0  0
   -2.0583    0.1800   -7.6160 H   0  0  0  1  0  0  0  0  0  0  0  0
    0.0984   -0.0937   -5.5475 C   0  0  0  1  0  0  0  0  0  0  0  0
    0.8086   -0.8893   -5.4604 H   0  0  0  1  0  0  0  0  0  0  0  0
   -1.1198   -0.4546   -4.8513 O   0  0  0  1  0  0  0  0  0  0  0  0
   -1.3989   -2.0044   -4.3933 P   0  0  0  1  0  0  0  0  0  0  0  0
   -1.4708   -3.0144   -5.6833 O   0  0  0  0  0  0  0  0  0  0  0  0
   -0.4242   -2.4555   -3.3750 O   0  0  0  1  0  0  0  0  0  0  0  0
   -2.8623   -1.9258   -3.7030 O   0  5  0  1  0  0  0  0  0  0  0  0
    0.6519    1.1510   -5.0031 C   0  0  0  1  0  0  0  0  0  0  0  0
   -0.1236    1.7328   -4.5503 H   0  0  0  1  0  0  0  0  0  0  0  0
    1.2254    1.8660   -6.1130 O   0  0  0  1  0  0  0  0  0  0  0  0
    1.7037    0.8463   -3.9878 C   0  0  0  1  0  0  0  0  0  0  0  0
    2.1114    1.7568   -3.6008 H   0  0  0  1  0  0  0  0  0  0  0  0
    2.4845    0.2669   -4.4346 H   0  0  0  1  0  0  0  0  0  0  0  0
    1.0844    0.0986   -2.9290 O   0  0  0  1  0  0  0  0  0  0  0  0
    1.8616   -0.7450   -1.8177 P   0  0  0  1  0  0  0  0  0  0  0  0
    2.9049    0.1969   -1.3439 O   0  0  0  0  0  0  0  0  0  0  0  0
    2.2194   -2.0812   -2.3036 O   0  0  0  1  0  0  0  0  0  0  0  0
    0.7383   -1.0225   -0.7022 O   0  0  0  1  0  0  0  0  0  0  0  0
    0.4958   -2.2652    0.3401 P   0  0  0  1  0  0  0  0  0  0  0  0
   -0.9002   -2.2732    0.8315 O   0  0  0  1  0  0  0  0  0  0  0  0
    0.9648   -3.6821   -0.2900 O   0  5  0  1  0  0  0  0  0  0  0  0
    1.4131   -2.0150    1.5897 O   0  0  0  1  0  0  0  0  0  0  0  0
    2.5780   -2.4261    3.6170 C   0  0  0  1  0  0  0  0  0  0  0  0
    1.5731   -2.9764    2.6592 C   0  0  0  1  0  0  0  0  0  0  0  0
    1.9194   -3.9080    2.2630 H   0  0  0  1  0  0  0  0  0  0  0  0
    0.6382   -3.1257    3.1578 H   0  0  0  1  0  0  0  0  0  0  0  0
    2.0876   -1.0725    4.1382 C   0  0  0  1  0  0  0  0  0  0  0  0
    2.1537   -0.3438    3.3574 H   0  0  0  1  0  0  0  0  0  0  0  0
    2.6961   -0.7666    4.9635 H   0  0  0  1  0  0  0  0  0  0  0  0
    1.0704   -1.1610    4.4580 H   0  0  0  1  0  0  0  0  0  0  0  0
    3.8931   -2.2085    2.8714 C   0  0  0  1  0  0  0  0  0  0  0  0
    3.7141   -1.6204    1.9957 H   0  0  0  1  0  0  0  0  0  0  0  0
    4.3026   -3.1553    2.5873 H   0  0  0  1  0  0  0  0  0  0  0  0
    4.5839   -1.6974    3.5090 H   0  0  0  1  0  0  0  0  0  0  0  0
    2.8035   -3.4064    4.7781 C   0  0  0  1  0  0  0  0  0  0  0  0
    3.1703   -4.3255    4.3711 H   0  0  0  1  0  0  0  0  0  0  0  0
    3.7646   -2.8602    5.6664 O   0  0  0  1  0  0  0  0  0  0  0  0
    4.1891   -3.5693    6.1547 H   0  0  0  1  0  0  0  0  0  0  0  0
    1.4860   -3.6891    5.4850 C   0  0  0  1  0  0  0  0  0  0  0  0
    0.9631   -4.8018    5.4396 O   0  0  0  1  0  0  0  0  0  0  0  0
    0.9468   -2.6545    6.1490 N   0  0  0  1  0  0  0  0  0  0  0  0
    1.4672   -1.8255    6.1960 H   0  0  0  1  0  0  0  0  0  0  0  0
   -0.3525   -2.6714    6.8044 C   0  0  0  1  0  0  0  0  0  0  0  0
   -0.2314   -2.3388    7.8142 H   0  0  0  1  0  0  0  0  0  0  0  0
   -0.7252   -3.6743    6.8010 H   0  0  0  1  0  0  0  0  0  0  0  0
   -1.3655   -1.7729    6.1139 C   0  0  0  1  0  0  0  0  0  0  0  0
   -1.4724   -2.0969    5.0997 H   0  0  0  1  0  0  0  0  0  0  0  0
   -0.9972   -0.7684    6.1310 H   0  0  0  1  0  0  0  0  0  0  0  0
   -2.7380   -1.7983    6.7791 C   0  0  0  1  0  0  0  0  0  0  0  0
   -2.9078   -2.3533    7.8638 O   0  0  0  1  0  0  0  0  0  0  0  0
   -3.7074   -1.1147    6.1641 N   0  0  0  1  0  0  0  0  0  0  0  0
   -3.4817   -0.6443    5.3346 H   0  0  0  1  0  0  0  0  0  0  0  0
   -5.0862   -1.0237    6.6510 C   0  0  0  1  0  0  0  0  0  0  0  0
   -5.4651   -0.0483    6.4272 H   0  0  0  1  0  0  0  0  0  0  0  0
   -5.0861   -1.1724    7.7106 H   0  0  0  1  0  0  0  0  0  0  0  0
   -5.9989   -2.0587    6.0139 C   0  0  0  1  0  0  0  0  0  0  0  0
   -6.3822   -2.7036    6.7770 H   0  0  0  1  0  0  0  0  0  0  0  0
   -5.4361   -2.6345    5.3092 H   0  0  0  1  0  0  0  0  0  0  0  0
   -7.3827   -1.2678    5.1592 S   0  0  0  1  0  0  0  0  0  0  0  0
   -8.4629   -0.8412    6.5052 C   0  0  0  1  0  0  0  0  0  0  0  0
   -8.1990   -1.0473    7.6563 O   0  0  0  1  0  0  0  0  0  0  0  0
   -9.7470   -0.1911    6.0281 C   0  0  0  1  0  0  0  0  0  0  0  0
  -10.4383   -0.9482    5.7217 H   0  0  0  1  0  0  0  0  0  0  0  0
   -9.5343    0.4532    5.2007 H   0  0  0  1  0  0  0  0  0  0  0  0
  -10.1747    0.3805    6.8252 H   0  0  0  1  0  0  0  0  0  0  0  0
  1  2  1  0  0  0  0
  1  7  2  0  0  0  0
  2  3  1  0  0  0  0
  2  4  2  0  0  0  0
  4  5  1  0  0  0  0
  5  6  2  0  0  0  0
  5 14  1  0  0  0  0
  6  7  1  0  0  0  0
  6 11  1  0  0  0  0
  7  8  1  0  0  0  0
  8  9  1  0  0  0  0
  8 10  1  0  0  0  0
 11 12  2  0  0  0  0
 12 13  1  0  0  0  0
 12 14  1  0  0  0  0
 14 15  1  0  0  0  0
 15 16  1  0  0  0  0
 15 17  1  0  0  0  0
 15 30  1  0  0  0  0
 17 18  1  0  0  0  0
 17 19  1  0  0  0  0
 17 21  1  0  0  0  0
 19 20  1  0  0  0  0
 21 22  1  0  0  0  0
 21 23  1  0  0  0  0
 21 28  1  0  0  0  0
 23 24  1  0  0  0  0
 24 25  1  0  0  0  0
 24 26  2  0  0  0  0
 24 27  1  0  0  0  0
 28 29  1  0  0  0  0
 28 30  1  0  0  0  0
 28 31  1  0  0  0  0
 31 32  1  0  0  0  0
 31 33  1  0  0  0  0
 31 34  1  0  0  0  0
 34 35  1  0  0  0  0
 35 36  1  0  0  0  0
 35 37  2  0  0  0  0
 35 38  1  0  0  0  0
 38 39  1  0  0  0  0
 39 40  2  0  0  0  0
 39 41  1  0  0  0  0
 39 42  1  0  0  0  0
 42 44  1  0  0  0  0
 43 44  1  0  0  0  0
 43 47  1  0  0  0  0
 43 51  1  0  0  0  0
 43 55  1  0  0  0  0
 44 45  1  0  0  0  0
 44 46  1  0  0  0  0
 47 48  1  0  0  0  0
 47 49  1  0  0  0  0
 47 50  1  0  0  0  0
 51 52  1  0  0  0  0
 51 53  1  0  0  0  0
 51 54  1  0  0  0  0
 55 56  1  0  0  0  0
 55 57  1  0  0  0  0
 55 59  1  0  0  0  0
 57 58  1  0  0  0  0
 59 60  2  0  0  0  0
 59 61  1  0  0  0  0
 61 62  1  0  0  0  0
 61 63  1  0  0  0  0
 63 64  1  0  0  0  0
 63 65  1  0  0  0  0
 63 66  1  0  0  0  0
 66 67  1  0  0  0  0
 66 68  1  0  0  0  0
 66 69  1  0  0  0  0
 69 70  2  0  0  0  0
 69 71  1  0  0  0  0
 71 72  1  0  0  0  0
 71 73  1  0  0  0  0
 73 74  1  0  0  0  0
 73 75  1  0  0  0  0
 73 76  1  0  0  0  0
 76 77  1  0  0  0  0
 76 78  1  0  0  0  0
 76 79  1  0  0  0  0
 79 80  1  0  0  0  0
 80 81  2  0  0  0  0
 80 82  1  0  0  0  0
 82 83  1  0  0  0  0
 82 84  1  0  0  0  0
 82 85  1  0  0  0  0
M  BCL ATM N_Tr2TrTrPi C_TrTrTrPi H_S N_Tr2TrTrPi C_TrTrTrPi C_TrTrTrPi C_TrTrTrPi N_TrTrTrPi2 H_S H_S N_Tr2TrTrPi C_TrTrTrPi H_S N_TrTrTrPi2 C_TeTeTeTe H_S C_TeTeTeTe H_S O_Te2Te2TeTe H_S C_TeTeTeTe H_S O_Tr2TrTrPi2 P_TeTeTeTePi O_Te2Te2TeTe O_Tr2Tr2TrPi O_Te2Te2Te2Te C_TeTeTeTe H_S O_Te2Te2TeTe C_TeTeTeTe H_S H_S O_Tr2TrTrPi2 P_TeTeTeTePi O_Te2Te2TeTe O_Tr2Tr2TrPi O_Tr2TrTrPi2 P_TeTeTeTePi O_Tr2Tr2TrPi O_Te2Te2Te2Te O_Tr2TrTrPi2 C_TeTeTeTe C_TeTeTeTe H_S H_S C_TeTeTeTe H_S H_S H_S C_TeTeTeTe H_S H_S H_S C_TeTeTeTe H_S O_Te2Te2TeTe H_S C_TrTrTrPi O_Tr2Tr2TrPi N_TrTrTrPi2 H_S C_TeTeTeTe H_S H_S C_TeTeTeTe H_S H_S C_TrTrTrPi O_Tr2Tr2TrPi N_TrTrTrPi2 H_S C_TeTeTeTe H_S H_S C_TeTeTeTe H_S H_S S_Te2Te2TeTe C_TrTrTrPi O_Tr2Tr2TrPi C_TeTeTeTe H_S H_S H_S
M  BCL BND AromaticSingleBond AromaticDoubleBond NonConjugatedSingleBond AromaticDoubleBond AromaticSingleBond AromaticDoubleBond AromaticSingleBond AromaticSingleBond AromaticSingleBond ConjugatedSingleBond NonConjugatedSingleBond NonConjugatedSingleBond AromaticDoubleBond NonConjugatedSingleBond AromaticSingleBond NonConjugatedSingleBond NonConjugatedSingleBond NonConjugatedSingleBondInRing NonConjugatedSingleBondInRing NonConjugatedSingleBond NonConjugatedSingleBond NonConjugatedSingleBondInRing NonConjugatedSingleBond NonConjugatedSingleBond NonConjugatedSingleBond NonConjugatedSingleBondInRing ConjugatedSingleBond ConjugatedSingleBond ConjugatedDoubleBond ConjugatedSingleBond NonConjugatedSingleBond NonConjugatedSingleBondInRing NonConjugatedSingleBond NonConjugatedSingleBond NonConjugatedSingleBond NonConjugatedSingleBond ConjugatedSingleBond ConjugatedSingleBond ConjugatedDoubleBond ConjugatedSingleBond ConjugatedSingleBond ConjugatedDoubleBond ConjugatedSingleBond ConjugatedSingleBond NonConjugatedSingleBond NonConjugatedSingleBond NonConjugatedSingleBond NonConjugatedSingleBond NonConjugatedSingleBond NonConjugatedSingleBond NonConjugatedSingleBond NonConjugatedSingleBond NonConjugatedSingleBond NonConjugatedSingleBond NonConjugatedSingleBond NonConjugatedSingleBond NonConjugatedSingleBond NonConjugatedSingleBond NonConjugatedSingleBond NonConjugatedSingleBond NonConjugatedSingleBond ConjugatedDoubleBond AmideSingleBond NonConjugatedSingleBond NonConjugatedSingleBond NonConjugatedSingleBond NonConjugatedSingleBond NonConjugatedSingleBond NonConjugatedSingleBond NonConjugatedSingleBond NonConjugatedSingleBond ConjugatedDoubleBond AmideSingleBond NonConjugatedSingleBond NonConjugatedSingleBond NonConjugatedSingleBond NonConjugatedSingleBond NonConjugatedSingleBond NonConjugatedSingleBond NonConjugatedSingleBond NonConjugatedSingleBond ConjugatedSingleBond ConjugatedDoubleBond NonConjugatedSingleBond NonConjugatedSingleBond NonConjugatedSingleBond NonConjugatedSingleBond
M  BCL CHI  15   S  17   S  21   S  24   S  28   R  35   R  39   R  55   S
M  BCL DBI - - - - - - - - - -
M  END
> <ConfClashScore>
0 

> <ConfOneFourInteractionScore>
-0.974432 

> <ConfScore>
0.0340842 

> <ConfScorePBest>
0.0097425 

> <ConfTolerance>
2.45988 

$$$$
ACO.****
  PyMOL2.5          3D                             0

 85 87  0  0  0  0  0  0  0  0999 V2000
    4.9045    1.0982  -10.6178 N   0  0  0  1  0  0  0  0  0  0  0  0
    3.8413    1.9125  -10.5254 C   0  0  0  1  0  0  0  0  0  0  0  0
    3.8069    2.6877  -11.2179 H   0  0  0  1  0  0  0  0  0  0  0  0
    2.8280    1.8620   -9.6695 N   0  0  0  1  0  0  0  0  0  0  0  0
    2.9547    0.8359   -8.8269 C   0  0  0  1  0  0  0  0  0  0  0  0
    4.0008   -0.0959   -8.7934 C   0  0  0  1  0  0  0  0  0  0  0  0
    4.9984    0.0882   -9.7462 C   0  0  0  1  0  0  0  0  0  0  0  0
    6.0622   -0.7855   -9.9005 N   0  0  0  1  0  0  0  0  0  0  0  0
    6.1792   -1.5305   -9.2746 H   0  0  0  1  0  0  0  0  0  0  0  0
    6.6979   -0.6586  -10.6355 H   0  0  0  1  0  0  0  0  0  0  0  0
    3.7968   -1.0105   -7.7719 N   0  0  0  1  0  0  0  0  0  0  0  0
    2.6710   -0.6243   -7.2360 C   0  0  0  1  0  0  0  0  0  0  0  0
    2.2350   -1.1202   -6.4325 H   0  0  0  1  0  0  0  0  0  0  0  0
    2.1105    0.4763   -7.8082 N   0  0  0  1  0  0  0  0  0  0  0  0
    0.8656    1.1389   -7.4179 C   0  0  0  1  0  0  0  0  0  0  0  0
    1.0848    2.1134   -7.0342 H   0  0  0  1  0  0  0  0  0  0  0  0
   -0.0845    1.2263   -8.5901 C   0  0  0  1  0  0  0  0  0  0  0  0
    0.0272    0.3812   -9.2367 H   0  0  0  1  0  0  0  0  0  0  0  0
    0.1312    2.4284   -9.3341 O   0  0  0  1  0  0  0  0  0  0  0  0
    0.6862    2.2395  -10.0943 H   0  0  0  1  0  0  0  0  0  0  0  0
   -1.4694    1.2317   -7.9291 C   0  0  0  1  0  0  0  0  0  0  0  0
   -2.1980    0.7624   -8.5566 H   0  0  0  1  0  0  0  0  0  0  0  0
   -1.8968    2.5872   -7.6186 O   0  0  0  1  0  0  0  0  0  0  0  0
   -3.4386    3.0242   -7.9673 P   0  0  0  1  0  0  0  0  0  0  0  0
   -3.6562    4.6226   -7.6719 O   0  0  0  0  0  0  0  0  0  0  0  0
   -3.9106    2.6944   -9.3307 O   0  0  0  1  0  0  0  0  0  0  0  0
   -4.5029    2.3845   -6.9270 O   0  5  0  1  0  0  0  0  0  0  0  0
   -1.2357    0.4172   -6.6469 C   0  0  0  1  0  0  0  0  0  0  0  0
   -1.7095    0.9006   -5.8182 H   0  0  0  1  0  0  0  0  0  0  0  0
    0.1449    0.3436   -6.4280 O   0  0  0  1  0  0  0  0  0  0  0  0
   -1.7904   -0.9407   -6.8080 C   0  0  0  1  0  0  0  0  0  0  0  0
   -1.4741   -1.5501   -5.9874 H   0  0  0  1  0  0  0  0  0  0  0  0
   -1.4321   -1.3612   -7.7243 H   0  0  0  1  0  0  0  0  0  0  0  0
   -3.2396   -0.8952   -6.8381 O   0  0  0  1  0  0  0  0  0  0  0  0
   -4.1126   -2.2587   -6.8619 P   0  0  0  1  0  0  0  0  0  0  0  0
   -5.5307   -1.7996   -6.7877 O   0  0  0  0  0  0  0  0  0  0  0  0
   -3.6407   -3.2457   -5.8542 O   0  0  0  1  0  0  0  0  0  0  0  0
   -3.7870   -2.9224   -8.2699 O   0  0  0  1  0  0  0  0  0  0  0  0
   -3.6731   -4.4198   -8.9289 P   0  0  0  1  0  0  0  0  0  0  0  0
   -3.9746   -4.4095  -10.3779 O   0  0  0  1  0  0  0  0  0  0  0  0
   -2.2102   -4.9701   -8.5028 O   0  5  0  1  0  0  0  0  0  0  0  0
   -4.8067   -5.2938   -8.2836 O   0  0  0  1  0  0  0  0  0  0  0  0
   -6.5488   -6.8955   -8.1263 C   0  0  0  1  0  0  0  0  0  0  0  0
   -5.7885   -6.0131   -9.0608 C   0  0  0  1  0  0  0  0  0  0  0  0
   -5.3003   -6.6061   -9.8058 H   0  0  0  1  0  0  0  0  0  0  0  0
   -6.4554   -5.3231   -9.5341 H   0  0  0  1  0  0  0  0  0  0  0  0
   -7.1898   -6.0185   -7.0472 C   0  0  0  1  0  0  0  0  0  0  0  0
   -7.7807   -5.2564   -7.5107 H   0  0  0  1  0  0  0  0  0  0  0  0
   -6.4230   -5.5643   -6.4551 H   0  0  0  1  0  0  0  0  0  0  0  0
   -7.8137   -6.6221   -6.4215 H   0  0  0  1  0  0  0  0  0  0  0  0
   -5.5886   -7.8894   -7.4447 C   0  0  0  1  0  0  0  0  0  0  0  0
   -5.1549   -7.4313   -6.5804 H   0  0  0  1  0  0  0  0  0  0  0  0
   -4.8136   -8.1631   -8.1298 H   0  0  0  1  0  0  0  0  0  0  0  0
   -6.1305   -8.7639   -7.1505 H   0  0  0  1  0  0  0  0  0  0  0  0
   -7.6485   -7.6678   -8.8593 C   0  0  0  1  0  0  0  0  0  0  0  0
   -7.1665   -8.3276   -9.5502 H   0  0  0  1  0  0  0  0  0  0  0  0
   -8.3587   -8.4587   -7.8962 O   0  0  0  1  0  0  0  0  0  0  0  0
   -8.6014   -9.3003   -8.2891 H   0  0  0  1  0  0  0  0  0  0  0  0
   -8.6110   -6.8011   -9.6553 C   0  0  0  1  0  0  0  0  0  0  0  0
   -8.4006   -6.5497  -10.8412 O   0  0  0  1  0  0  0  0  0  0  0  0
   -9.6896   -6.3219   -9.0291 N   0  0  0  1  0  0  0  0  0  0  0  0
   -9.8681   -6.6077   -8.1089 H   0  0  0  1  0  0  0  0  0  0  0  0
  -10.6085   -5.3904   -9.6661 C   0  0  0  1  0  0  0  0  0  0  0  0
  -10.0397   -4.6196  -10.1428 H   0  0  0  1  0  0  0  0  0  0  0  0
  -11.2352   -4.9587   -8.9139 H   0  0  0  1  0  0  0  0  0  0  0  0
  -11.4926   -6.0634  -10.7118 C   0  0  0  1  0  0  0  0  0  0  0  0
  -12.1597   -6.7422  -10.2229 H   0  0  0  1  0  0  0  0  0  0  0  0
  -10.8747   -6.6027  -11.3990 H   0  0  0  1  0  0  0  0  0  0  0  0
  -12.3104   -5.0231  -11.4820 C   0  0  0  1  0  0  0  0  0  0  0  0
  -12.1472   -3.8381  -11.1944 O   0  0  0  1  0  0  0  0  0  0  0  0
  -13.1419   -5.4949  -12.4122 N   0  0  0  1  0  0  0  0  0  0  0  0
  -13.1512   -6.4580  -12.5936 H   0  0  0  1  0  0  0  0  0  0  0  0
  -14.0417   -4.6237  -13.1719 C   0  0  0  1  0  0  0  0  0  0  0  0
  -13.9332   -3.6265  -12.7993 H   0  0  0  1  0  0  0  0  0  0  0  0
  -15.0450   -4.9583  -13.0100 H   0  0  0  1  0  0  0  0  0  0  0  0
  -13.7886   -4.5997  -14.6590 C   0  0  0  1  0  0  0  0  0  0  0  0
  -12.7923   -4.2533  -14.8384 H   0  0  0  1  0  0  0  0  0  0  0  0
  -14.4869   -3.9338  -15.1216 H   0  0  0  1  0  0  0  0  0  0  0  0
  -13.9793   -6.2482  -15.3781 S   0  0  0  1  0  0  0  0  0  0  0  0
  -15.7150   -6.3493  -15.6225 C   0  0  0  1  0  0  0  0  0  0  0  0
  -16.5015   -5.4826  -15.3509 O   0  0  0  1  0  0  0  0  0  0  0  0
  -16.1550   -7.6766  -16.2297 C   0  0  0  1  0  0  0  0  0  0  0  0
  -15.3092   -8.1697  -16.6615 H   0  0  0  1  0  0  0  0  0  0  0  0
  -16.8878   -7.4961  -16.9882 H   0  0  0  1  0  0  0  0  0  0  0  0
  -16.5767   -8.2958  -15.4657 H   0  0  0  1  0  0  0  0  0  0  0  0
  1  2  1  0  0  0  0
  1  7  2  0  0  0  0
  2  3  1  0  0  0  0
  2  4  2  0  0  0  0
  4  5  1  0  0  0  0
  5  6  2  0  0  0  0
  5 14  1  0  0  0  0
  6  7  1  0  0  0  0
  6 11  1  0  0  0  0
  7  8  1  0  0  0  0
  8  9  1  0  0  0  0
  8 10  1  0  0  0  0
 11 12  2  0  0  0  0
 12 13  1  0  0  0  0
 12 14  1  0  0  0  0
 14 15  1  0  0  0  0
 15 16  1  0  0  0  0
 15 17  1  0  0  0  0
 15 30  1  0  0  0  0
 17 18  1  0  0  0  0
 17 19  1  0  0  0  0
 17 21  1  0  0  0  0
 19 20  1  0  0  0  0
 21 22  1  0  0  0  0
 21 23  1  0  0  0  0
 21 28  1  0  0  0  0
 23 24  1  0  0  0  0
 24 25  1  0  0  0  0
 24 26  2  0  0  0  0
 24 27  1  0  0  0  0
 28 29  1  0  0  0  0
 28 30  1  0  0  0  0
 28 31  1  0  0  0  0
 31 32  1  0  0  0  0
 31 33  1  0  0  0  0
 31 34  1  0  0  0  0
 34 35  1  0  0  0  0
 35 36  1  0  0  0  0
 35 37  2  0  0  0  0
 35 38  1  0  0  0  0
 38 39  1  0  0  0  0
 39 40  2  0  0  0  0
 39 41  1  0  0  0  0
 39 42  1  0  0  0  0
 42 44  1  0  0  0  0
 43 44  1  0  0  0  0
 43 47  1  0  0  0  0
 43 51  1  0  0  0  0
 43 55  1  0  0  0  0
 44 45  1  0  0  0  0
 44 46  1  0  0  0  0
 47 48  1  0  0  0  0
 47 49  1  0  0  0  0
 47 50  1  0  0  0  0
 51 52  1  0  0  0  0
 51 53  1  0  0  0  0
 51 54  1  0  0  0  0
 55 56  1  0  0  0  0
 55 57  1  0  0  0  0
 55 59  1  0  0  0  0
 57 58  1  0  0  0  0
 59 60  2  0  0  0  0
 59 61  1  0  0  0  0
 61 62  1  0  0  0  0
 61 63  1  0  0  0  0
 63 64  1  0  0  0  0
 63 65  1  0  0  0  0
 63 66  1  0  0  0  0
 66 67  1  0  0  0  0
 66 68  1  0  0  0  0
 66 69  1  0  0  0  0
 69 70  2  0  0  0  0
 69 71  1  0  0  0  0
 71 72  1  0  0  0  0
 71 73  1  0  0  0  0
 73 74  1  0  0  0  0
 73 75  1  0  0  0  0
 73 76  1  0  0  0  0
 76 77  1  0  0  0  0
 76 78  1  0  0  0  0
 76 79  1  0  0  0  0
 79 80  1  0  0  0  0
 80 81  2  0  0  0  0
 80 82  1  0  0  0  0
 82 83  1  0  0  0  0
 82 84  1  0  0  0  0
 82 85  1  0  0  0  0
M  BCL ATM N_Tr2TrTrPi C_TrTrTrPi H_S N_Tr2TrTrPi C_TrTrTrPi C_TrTrTrPi C_TrTrTrPi N_TrTrTrPi2 H_S H_S N_Tr2TrTrPi C_TrTrTrPi H_S N_TrTrTrPi2 C_TeTeTeTe H_S C_TeTeTeTe H_S O_Te2Te2TeTe H_S C_TeTeTeTe H_S O_Tr2TrTrPi2 P_TeTeTeTePi O_Te2Te2TeTe O_Tr2Tr2TrPi O_Te2Te2Te2Te C_TeTeTeTe H_S O_Te2Te2TeTe C_TeTeTeTe H_S H_S O_Tr2TrTrPi2 P_TeTeTeTePi O_Te2Te2TeTe O_Tr2Tr2TrPi O_Tr2TrTrPi2 P_TeTeTeTePi O_Tr2Tr2TrPi O_Te2Te2Te2Te O_Tr2TrTrPi2 C_TeTeTeTe C_TeTeTeTe H_S H_S C_TeTeTeTe H_S H_S H_S C_TeTeTeTe H_S H_S H_S C_TeTeTeTe H_S O_Te2Te2TeTe H_S C_TrTrTrPi O_Tr2Tr2TrPi N_TrTrTrPi2 H_S C_TeTeTeTe H_S H_S C_TeTeTeTe H_S H_S C_TrTrTrPi O_Tr2Tr2TrPi N_TrTrTrPi2 H_S C_TeTeTeTe H_S H_S C_TeTeTeTe H_S H_S S_Te2Te2TeTe C_TrTrTrPi O_Tr2Tr2TrPi C_TeTeTeTe H_S H_S H_S
M  BCL BND AromaticSingleBond AromaticDoubleBond NonConjugatedSingleBond AromaticDoubleBond AromaticSingleBond AromaticDoubleBond AromaticSingleBond AromaticSingleBond AromaticSingleBond ConjugatedSingleBond NonConjugatedSingleBond NonConjugatedSingleBond AromaticDoubleBond NonConjugatedSingleBond AromaticSingleBond NonConjugatedSingleBond NonConjugatedSingleBond NonConjugatedSingleBondInRing NonConjugatedSingleBondInRing NonConjugatedSingleBond NonConjugatedSingleBond NonConjugatedSingleBondInRing NonConjugatedSingleBond NonConjugatedSingleBond NonConjugatedSingleBond NonConjugatedSingleBondInRing ConjugatedSingleBond ConjugatedSingleBond ConjugatedDoubleBond ConjugatedSingleBond NonConjugatedSingleBond NonConjugatedSingleBondInRing NonConjugatedSingleBond NonConjugatedSingleBond NonConjugatedSingleBond NonConjugatedSingleBond ConjugatedSingleBond ConjugatedSingleBond ConjugatedDoubleBond ConjugatedSingleBond ConjugatedSingleBond ConjugatedDoubleBond ConjugatedSingleBond ConjugatedSingleBond NonConjugatedSingleBond NonConjugatedSingleBond NonConjugatedSingleBond NonConjugatedSingleBond NonConjugatedSingleBond NonConjugatedSingleBond NonConjugatedSingleBond NonConjugatedSingleBond NonConjugatedSingleBond NonConjugatedSingleBond NonConjugatedSingleBond NonConjugatedSingleBond NonConjugatedSingleBond NonConjugatedSingleBond NonConjugatedSingleBond NonConjugatedSingleBond NonConjugatedSingleBond ConjugatedDoubleBond AmideSingleBond NonConjugatedSingleBond NonConjugatedSingleBond NonConjugatedSingleBond NonConjugatedSingleBond NonConjugatedSingleBond NonConjugatedSingleBond NonConjugatedSingleBond NonConjugatedSingleBond ConjugatedDoubleBond AmideSingleBond NonConjugatedSingleBond NonConjugatedSingleBond NonConjugatedSingleBond NonConjugatedSingleBond NonConjugatedSingleBond NonConjugatedSingleBond NonConjugatedSingleBond NonConjugatedSingleBond ConjugatedSingleBond ConjugatedDoubleBond NonConjugatedSingleBond NonConjugatedSingleBond NonConjugatedSingleBond NonConjugatedSingleBond
M  BCL CHI  15   S  17   S  21   S  24   S  28   R  35   R  39   R  55   S
M  BCL DBI - - - - - - - - - -
M  END
> <ConfClashScore>
0 

> <ConfOneFourInteractionScore>
-0.984521 

> <ConfScore>
0.0352714 

> <ConfScorePBest>
0.0096395 

> <ConfTolerance>
2.50885 

$$$$
ACO.****
  PyMOL2.5          3D                             0

 85 87  0  0  0  0  0  0  0  0999 V2000
    4.8679    1.0532  -10.6581 N   0  0  0  1  0  0  0  0  0  0  0  0
    3.8336    1.8998  -10.5342 C   0  0  0  1  0  0  0  0  0  0  0  0
    3.8080    2.6818  -11.2193 H   0  0  0  1  0  0  0  0  0  0  0  0
    2.8392    1.8737   -9.6553 N   0  0  0  1  0  0  0  0  0  0  0  0
    2.9525    0.8366   -8.8244 C   0  0  0  1  0  0  0  0  0  0  0  0
    3.9690   -0.1281   -8.8229 C   0  0  0  1  0  0  0  0  0  0  0  0
    4.9498    0.0329   -9.7972 C   0  0  0  1  0  0  0  0  0  0  0  0
    6.0868   -0.7697   -9.8899 N   0  0  0  1  0  0  0  0  0  0  0  0
    6.1846   -1.5503   -9.3054 H   0  0  0  1  0  0  0  0  0  0  0  0
    6.7879   -0.5531  -10.5395 H   0  0  0  1  0  0  0  0  0  0  0  0
    3.7597   -1.0449   -7.8045 N   0  0  0  1  0  0  0  0  0  0  0  0
    2.6593   -0.6282   -7.2394 C   0  0  0  1  0  0  0  0  0  0  0  0
    2.2264   -1.1172   -6.4300 H   0  0  0  1  0  0  0  0  0  0  0  0
    2.1211    0.4947   -7.7893 N   0  0  0  1  0  0  0  0  0  0  0  0
    0.9072    1.1928   -7.3646 C   0  0  0  1  0  0  0  0  0  0  0  0
    1.1254    2.2295   -7.2145 H   0  0  0  1  0  0  0  0  0  0  0  0
   -0.2281    1.0108   -8.4033 C   0  0  0  1  0  0  0  0  0  0  0  0
   -0.2162    0.0268   -8.8233 H   0  0  0  1  0  0  0  0  0  0  0  0
   -0.1330    1.9717   -9.4444 O   0  0  0  1  0  0  0  0  0  0  0  0
   -0.7807    2.6655   -9.3004 H   0  0  0  1  0  0  0  0  0  0  0  0
   -1.4968    1.2395   -7.5401 C   0  0  0  1  0  0  0  0  0  0  0  0
   -2.2706    0.5524   -7.8125 H   0  0  0  1  0  0  0  0  0  0  0  0
   -1.9774    2.5854   -7.6859 O   0  0  0  1  0  0  0  0  0  0  0  0
   -3.5155    3.0786   -7.4022 P   0  0  0  1  0  0  0  0  0  0  0  0
   -3.9777    2.3570   -6.0039 O   0  0  0  0  0  0  0  0  0  0  0  0
   -3.5962    4.5331   -7.1404 O   0  0  0  1  0  0  0  0  0  0  0  0
   -4.5459    2.6033   -8.5584 O   0  5  0  1  0  0  0  0  0  0  0  0
   -1.0189    0.9820   -6.0977 C   0  0  0  1  0  0  0  0  0  0  0  0
   -1.1250    1.8719   -5.5131 H   0  0  0  1  0  0  0  0  0  0  0  0
    0.3649    0.6010   -6.1650 O   0  0  0  1  0  0  0  0  0  0  0  0
   -1.8119   -0.1040   -5.4901 C   0  0  0  1  0  0  0  0  0  0  0  0
   -2.7967    0.2558   -5.2765 H   0  0  0  1  0  0  0  0  0  0  0  0
   -1.3415   -0.4180   -4.5817 H   0  0  0  1  0  0  0  0  0  0  0  0
   -1.9021   -1.2329   -6.3960 O   0  0  0  1  0  0  0  0  0  0  0  0
   -1.3785   -2.5920   -5.9945 P   0  0  0  1  0  0  0  0  0  0  0  0
    0.1003   -2.5518   -5.6429 O   0  0  0  0  0  0  0  0  0  0  0  0
   -1.7456   -3.7109   -6.9368 O   0  0  0  1  0  0  0  0  0  0  0  0
   -2.0372   -2.9699   -4.5662 O   0  0  0  1  0  0  0  0  0  0  0  0
   -1.7939   -4.3820   -3.7684 P   0  0  0  1  0  0  0  0  0  0  0  0
   -2.0780   -5.6101   -4.5440 O   0  0  0  1  0  0  0  0  0  0  0  0
   -0.2798   -4.1799   -3.2289 O   0  5  0  1  0  0  0  0  0  0  0  0
   -2.6423   -4.3211   -2.4532 O   0  0  0  1  0  0  0  0  0  0  0  0
   -2.8239   -3.8561   -0.1346 C   0  0  0  1  0  0  0  0  0  0  0  0
   -2.6019   -3.2527   -1.4825 C   0  0  0  1  0  0  0  0  0  0  0  0
   -3.3710   -2.5394   -1.6935 H   0  0  0  1  0  0  0  0  0  0  0  0
   -1.6480   -2.7689   -1.5126 H   0  0  0  1  0  0  0  0  0  0  0  0
   -1.8021   -4.9518    0.1816 C   0  0  0  1  0  0  0  0  0  0  0  0
   -1.7473   -5.0943    1.2406 H   0  0  0  1  0  0  0  0  0  0  0  0
   -0.8414   -4.6611   -0.1891 H   0  0  0  1  0  0  0  0  0  0  0  0
   -2.1037   -5.8659   -0.2859 H   0  0  0  1  0  0  0  0  0  0  0  0
   -4.2215   -4.5025   -0.0780 C   0  0  0  1  0  0  0  0  0  0  0  0
   -4.1957   -5.4526   -0.5696 H   0  0  0  1  0  0  0  0  0  0  0  0
   -4.9284   -3.8665   -0.5686 H   0  0  0  1  0  0  0  0  0  0  0  0
   -4.5107   -4.6373    0.9432 H   0  0  0  1  0  0  0  0  0  0  0  0
   -2.7351   -2.7945    0.9646 C   0  0  0  1  0  0  0  0  0  0  0  0
   -2.9892   -3.2512    1.8983 H   0  0  0  1  0  0  0  0  0  0  0  0
   -1.3796   -2.3312    1.0043 O   0  0  0  1  0  0  0  0  0  0  0  0
   -0.8596   -2.9093    1.5673 H   0  0  0  1  0  0  0  0  0  0  0  0
   -3.6611   -1.6095    0.7362 C   0  0  0  1  0  0  0  0  0  0  0  0
   -4.8564   -1.7707    0.4947 O   0  0  0  1  0  0  0  0  0  0  0  0
   -3.0885   -0.3980    0.8160 N   0  0  0  1  0  0  0  0  0  0  0  0
   -2.1325   -0.3213    1.0176 H   0  0  0  1  0  0  0  0  0  0  0  0
   -3.8843    0.8018    0.6039 C   0  0  0  1  0  0  0  0  0  0  0  0
   -4.7842    0.7221    1.1771 H   0  0  0  1  0  0  0  0  0  0  0  0
   -4.1280    0.8722   -0.4356 H   0  0  0  1  0  0  0  0  0  0  0  0
   -3.1512    2.0703    1.0203 C   0  0  0  1  0  0  0  0  0  0  0  0
   -2.1510    2.0251    0.6427 H   0  0  0  1  0  0  0  0  0  0  0  0
   -3.1278    2.1148    2.0891 H   0  0  0  1  0  0  0  0  0  0  0  0
   -3.8073    3.3339    0.4987 C   0  0  0  1  0  0  0  0  0  0  0  0
   -4.4718    3.3276   -0.5366 O   0  0  0  1  0  0  0  0  0  0  0  0
   -3.6141    4.4335    1.2325 N   0  0  0  1  0  0  0  0  0  0  0  0
   -3.1157    4.3597    2.0731 H   0  0  0  1  0  0  0  0  0  0  0  0
   -4.1177    5.7361    0.8274 C   0  0  0  1  0  0  0  0  0  0  0  0
   -4.2768    5.7282   -0.2307 H   0  0  0  1  0  0  0  0  0  0  0  0
   -3.3868    6.4779    1.0731 H   0  0  0  1  0  0  0  0  0  0  0  0
   -5.4205    6.0934    1.5113 C   0  0  0  1  0  0  0  0  0  0  0  0
   -5.6204    7.1307    1.3412 H   0  0  0  1  0  0  0  0  0  0  0  0
   -5.3126    5.9179    2.5613 H   0  0  0  1  0  0  0  0  0  0  0  0
   -6.8285    5.1308    0.9095 S   0  0  0  1  0  0  0  0  0  0  0  0
   -6.8854    3.7826    2.0669 C   0  0  0  1  0  0  0  0  0  0  0  0
   -6.0992    3.6501    2.9777 O   0  0  0  1  0  0  0  0  0  0  0  0
   -8.0227    2.8295    1.7809 C   0  0  0  1  0  0  0  0  0  0  0  0
   -7.6551    1.9906    1.2278 H   0  0  0  1  0  0  0  0  0  0  0  0
   -8.7738    3.3325    1.2084 H   0  0  0  1  0  0  0  0  0  0  0  0
   -8.4444    2.4906    2.7040 H   0  0  0  1  0  0  0  0  0  0  0  0
  1  2  1  0  0  0  0
  1  7  2  0  0  0  0
  2  3  1  0  0  0  0
  2  4  2  0  0  0  0
  4  5  1  0  0  0  0
  5  6  2  0  0  0  0
  5 14  1  0  0  0  0
  6  7  1  0  0  0  0
  6 11  1  0  0  0  0
  7  8  1  0  0  0  0
  8  9  1  0  0  0  0
  8 10  1  0  0  0  0
 11 12  2  0  0  0  0
 12 13  1  0  0  0  0
 12 14  1  0  0  0  0
 14 15  1  0  0  0  0
 15 16  1  0  0  0  0
 15 17  1  0  0  0  0
 15 30  1  0  0  0  0
 17 18  1  0  0  0  0
 17 19  1  0  0  0  0
 17 21  1  0  0  0  0
 19 20  1  0  0  0  0
 21 22  1  0  0  0  0
 21 23  1  0  0  0  0
 21 28  1  0  0  0  0
 23 24  1  0  0  0  0
 24 25  1  0  0  0  0
 24 26  2  0  0  0  0
 24 27  1  0  0  0  0
 28 29  1  0  0  0  0
 28 30  1  0  0  0  0
 28 31  1  0  0  0  0
 31 32  1  0  0  0  0
 31 33  1  0  0  0  0
 31 34  1  0  0  0  0
 34 35  1  0  0  0  0
 35 36  1  0  0  0  0
 35 37  2  0  0  0  0
 35 38  1  0  0  0  0
 38 39  1  0  0  0  0
 39 40  2  0  0  0  0
 39 41  1  0  0  0  0
 39 42  1  0  0  0  0
 42 44  1  0  0  0  0
 43 44  1  0  0  0  0
 43 47  1  0  0  0  0
 43 51  1  0  0  0  0
 43 55  1  0  0  0  0
 44 45  1  0  0  0  0
 44 46  1  0  0  0  0
 47 48  1  0  0  0  0
 47 49  1  0  0  0  0
 47 50  1  0  0  0  0
 51 52  1  0  0  0  0
 51 53  1  0  0  0  0
 51 54  1  0  0  0  0
 55 56  1  0  0  0  0
 55 57  1  0  0  0  0
 55 59  1  0  0  0  0
 57 58  1  0  0  0  0
 59 60  2  0  0  0  0
 59 61  1  0  0  0  0
 61 62  1  0  0  0  0
 61 63  1  0  0  0  0
 63 64  1  0  0  0  0
 63 65  1  0  0  0  0
 63 66  1  0  0  0  0
 66 67  1  0  0  0  0
 66 68  1  0  0  0  0
 66 69  1  0  0  0  0
 69 70  2  0  0  0  0
 69 71  1  0  0  0  0
 71 72  1  0  0  0  0
 71 73  1  0  0  0  0
 73 74  1  0  0  0  0
 73 75  1  0  0  0  0
 73 76  1  0  0  0  0
 76 77  1  0  0  0  0
 76 78  1  0  0  0  0
 76 79  1  0  0  0  0
 79 80  1  0  0  0  0
 80 81  2  0  0  0  0
 80 82  1  0  0  0  0
 82 83  1  0  0  0  0
 82 84  1  0  0  0  0
 82 85  1  0  0  0  0
M  BCL ATM N_Tr2TrTrPi C_TrTrTrPi H_S N_Tr2TrTrPi C_TrTrTrPi C_TrTrTrPi C_TrTrTrPi N_TrTrTrPi2 H_S H_S N_Tr2TrTrPi C_TrTrTrPi H_S N_TrTrTrPi2 C_TeTeTeTe H_S C_TeTeTeTe H_S O_Te2Te2TeTe H_S C_TeTeTeTe H_S O_Tr2TrTrPi2 P_TeTeTeTePi O_Te2Te2TeTe O_Tr2Tr2TrPi O_Te2Te2Te2Te C_TeTeTeTe H_S O_Te2Te2TeTe C_TeTeTeTe H_S H_S O_Tr2TrTrPi2 P_TeTeTeTePi O_Te2Te2TeTe O_Tr2Tr2TrPi O_Tr2TrTrPi2 P_TeTeTeTePi O_Tr2Tr2TrPi O_Te2Te2Te2Te O_Tr2TrTrPi2 C_TeTeTeTe C_TeTeTeTe H_S H_S C_TeTeTeTe H_S H_S H_S C_TeTeTeTe H_S H_S H_S C_TeTeTeTe H_S O_Te2Te2TeTe H_S C_TrTrTrPi O_Tr2Tr2TrPi N_TrTrTrPi2 H_S C_TeTeTeTe H_S H_S C_TeTeTeTe H_S H_S C_TrTrTrPi O_Tr2Tr2TrPi N_TrTrTrPi2 H_S C_TeTeTeTe H_S H_S C_TeTeTeTe H_S H_S S_Te2Te2TeTe C_TrTrTrPi O_Tr2Tr2TrPi C_TeTeTeTe H_S H_S H_S
M  BCL BND AromaticSingleBond AromaticDoubleBond NonConjugatedSingleBond AromaticDoubleBond AromaticSingleBond AromaticDoubleBond AromaticSingleBond AromaticSingleBond AromaticSingleBond ConjugatedSingleBond NonConjugatedSingleBond NonConjugatedSingleBond AromaticDoubleBond NonConjugatedSingleBond AromaticSingleBond NonConjugatedSingleBond NonConjugatedSingleBond NonConjugatedSingleBondInRing NonConjugatedSingleBondInRing NonConjugatedSingleBond NonConjugatedSingleBond NonConjugatedSingleBondInRing NonConjugatedSingleBond NonConjugatedSingleBond NonConjugatedSingleBond NonConjugatedSingleBondInRing ConjugatedSingleBond ConjugatedSingleBond ConjugatedDoubleBond ConjugatedSingleBond NonConjugatedSingleBond NonConjugatedSingleBondInRing NonConjugatedSingleBond NonConjugatedSingleBond NonConjugatedSingleBond NonConjugatedSingleBond ConjugatedSingleBond ConjugatedSingleBond ConjugatedDoubleBond ConjugatedSingleBond ConjugatedSingleBond ConjugatedDoubleBond ConjugatedSingleBond ConjugatedSingleBond NonConjugatedSingleBond NonConjugatedSingleBond NonConjugatedSingleBond NonConjugatedSingleBond NonConjugatedSingleBond NonConjugatedSingleBond NonConjugatedSingleBond NonConjugatedSingleBond NonConjugatedSingleBond NonConjugatedSingleBond NonConjugatedSingleBond NonConjugatedSingleBond NonConjugatedSingleBond NonConjugatedSingleBond NonConjugatedSingleBond NonConjugatedSingleBond NonConjugatedSingleBond ConjugatedDoubleBond AmideSingleBond NonConjugatedSingleBond NonConjugatedSingleBond NonConjugatedSingleBond NonConjugatedSingleBond NonConjugatedSingleBond NonConjugatedSingleBond NonConjugatedSingleBond NonConjugatedSingleBond ConjugatedDoubleBond AmideSingleBond NonConjugatedSingleBond NonConjugatedSingleBond NonConjugatedSingleBond NonConjugatedSingleBond NonConjugatedSingleBond NonConjugatedSingleBond NonConjugatedSingleBond NonConjugatedSingleBond ConjugatedSingleBond ConjugatedDoubleBond NonConjugatedSingleBond NonConjugatedSingleBond NonConjugatedSingleBond NonConjugatedSingleBond
M  BCL CHI  15   S  17   S  21   S  24   S  28   R  35   R  39   R  55   S
M  BCL DBI - - - - - - - - - -
M  END
> <ConfClashScore>
0 

> <ConfOneFourInteractionScore>
-0.980785 

> <ConfScore>
0.0402251 

> <ConfScorePBest>
0.0095365 

> <ConfTolerance>
2.47467 

$$$$
ACO.****
  PyMOL2.5          3D                             0

 85 87  0  0  0  0  0  0  0  0999 V2000
    4.8919    1.0624  -10.6283 N   0  0  0  1  0  0  0  0  0  0  0  0
    3.8420    1.8934  -10.5316 C   0  0  0  1  0  0  0  0  0  0  0  0
    3.8180    2.6700  -11.2229 H   0  0  0  1  0  0  0  0  0  0  0  0
    2.8304    1.8576   -9.6729 N   0  0  0  1  0  0  0  0  0  0  0  0
    2.9432    0.8284   -8.8322 C   0  0  0  1  0  0  0  0  0  0  0  0
    3.9745   -0.1200   -8.8030 C   0  0  0  1  0  0  0  0  0  0  0  0
    4.9722    0.0498   -9.7584 C   0  0  0  1  0  0  0  0  0  0  0  0
    6.0939   -0.7579   -9.9112 N   0  0  0  1  0  0  0  0  0  0  0  0
    6.7474   -0.5609  -10.6145 H   0  0  0  1  0  0  0  0  0  0  0  0
    6.2309   -1.5241   -9.3157 H   0  0  0  1  0  0  0  0  0  0  0  0
    3.7590   -1.0328   -7.7823 N   0  0  0  1  0  0  0  0  0  0  0  0
    2.6409   -0.6296   -7.2427 C   0  0  0  1  0  0  0  0  0  0  0  0
    2.1994   -1.1196   -6.4386 H   0  0  0  1  0  0  0  0  0  0  0  0
    2.0963    0.4806   -7.8116 N   0  0  0  1  0  0  0  0  0  0  0  0
    0.9131    1.1767   -7.3080 C   0  0  0  1  0  0  0  0  0  0  0  0
    1.0708    2.2336   -7.3611 H   0  0  0  1  0  0  0  0  0  0  0  0
   -0.3515    0.7652   -8.1033 C   0  0  0  1  0  0  0  0  0  0  0  0
   -0.3284   -0.2735   -8.3592 H   0  0  0  1  0  0  0  0  0  0  0  0
   -0.4940    1.5463   -9.2916 O   0  0  0  1  0  0  0  0  0  0  0  0
   -1.1585    2.2248   -9.1513 H   0  0  0  1  0  0  0  0  0  0  0  0
   -1.4856    1.0703   -7.0894 C   0  0  0  1  0  0  0  0  0  0  0  0
   -2.2366    0.3087   -7.1187 H   0  0  0  1  0  0  0  0  0  0  0  0
   -2.0857    2.3463   -7.3639 O   0  0  0  1  0  0  0  0  0  0  0  0
   -3.6573    2.7317   -7.0971 P   0  0  0  1  0  0  0  0  0  0  0  0
   -4.0120    1.8986   -5.7298 O   0  0  0  0  0  0  0  0  0  0  0  0
   -3.6995    4.1989   -6.9073 O   0  0  0  1  0  0  0  0  0  0  0  0
   -4.4583    2.0981   -8.3546 O   0  5  0  1  0  0  0  0  0  0  0  0
   -0.7721    1.0834   -5.7234 C   0  0  0  1  0  0  0  0  0  0  0  0
   -0.8553    2.0521   -5.2768 H   0  0  0  1  0  0  0  0  0  0  0  0
    0.6101    0.7677   -5.9574 O   0  0  0  1  0  0  0  0  0  0  0  0
   -1.3824    0.0636   -4.8192 C   0  0  0  1  0  0  0  0  0  0  0  0
   -2.4296    0.2540   -4.7094 H   0  0  0  1  0  0  0  0  0  0  0  0
   -0.9105    0.0985   -3.8595 H   0  0  0  1  0  0  0  0  0  0  0  0
   -1.1779   -1.2390   -5.4230 O   0  0  0  1  0  0  0  0  0  0  0  0
   -0.6966   -2.4852   -4.5420 P   0  0  0  1  0  0  0  0  0  0  0  0
   -1.7069   -2.8309   -3.5124 O   0  0  0  0  0  0  0  0  0  0  0  0
    0.6866   -2.1650   -4.1488 O   0  0  0  1  0  0  0  0  0  0  0  0
   -0.7240   -3.7275   -5.5538 O   0  0  0  1  0  0  0  0  0  0  0  0
   -1.9420   -4.4707   -6.3625 P   0  0  0  1  0  0  0  0  0  0  0  0
   -2.9754   -3.5044   -6.7970 O   0  0  0  1  0  0  0  0  0  0  0  0
   -1.1907   -5.1619   -7.6204 O   0  5  0  1  0  0  0  0  0  0  0  0
   -2.4388   -5.7035   -5.5266 O   0  0  0  1  0  0  0  0  0  0  0  0
   -3.4450   -6.9054   -3.7087 C   0  0  0  1  0  0  0  0  0  0  0  0
   -3.0326   -5.5813   -4.2127 C   0  0  0  1  0  0  0  0  0  0  0  0
   -3.8901   -4.9440   -4.2715 H   0  0  0  1  0  0  0  0  0  0  0  0
   -2.3168   -5.1558   -3.5408 H   0  0  0  1  0  0  0  0  0  0  0  0
   -4.1613   -6.7320   -2.3644 C   0  0  0  1  0  0  0  0  0  0  0  0
   -5.1916   -6.4997   -2.5361 H   0  0  0  1  0  0  0  0  0  0  0  0
   -3.7028   -5.9355   -1.8165 H   0  0  0  1  0  0  0  0  0  0  0  0
   -4.0894   -7.6397   -1.8025 H   0  0  0  1  0  0  0  0  0  0  0  0
   -2.1927   -7.7527   -3.4829 C   0  0  0  1  0  0  0  0  0  0  0  0
   -1.3252   -7.1860   -3.7497 H   0  0  0  1  0  0  0  0  0  0  0  0
   -2.2438   -8.6329   -4.0893 H   0  0  0  1  0  0  0  0  0  0  0  0
   -2.1326   -8.0323   -2.4519 H   0  0  0  1  0  0  0  0  0  0  0  0
   -4.3565   -7.6017   -4.7222 C   0  0  0  1  0  0  0  0  0  0  0  0
   -4.6646   -8.5324   -4.2934 H   0  0  0  1  0  0  0  0  0  0  0  0
   -5.4955   -6.7777   -4.9043 O   0  0  0  1  0  0  0  0  0  0  0  0
   -6.0514   -6.8221   -4.1229 H   0  0  0  1  0  0  0  0  0  0  0  0
   -3.6630   -7.9080   -6.0410 C   0  0  0  1  0  0  0  0  0  0  0  0
   -2.4359   -7.9291   -6.1273 O   0  0  0  1  0  0  0  0  0  0  0  0
   -4.4733   -8.1489   -7.0839 N   0  0  0  1  0  0  0  0  0  0  0  0
   -5.4360   -8.2126   -6.9117 H   0  0  0  1  0  0  0  0  0  0  0  0
   -4.0132   -8.3216   -8.4537 C   0  0  0  1  0  0  0  0  0  0  0  0
   -3.1602   -8.9675   -8.4500 H   0  0  0  1  0  0  0  0  0  0  0  0
   -3.7355   -7.3653   -8.8452 H   0  0  0  1  0  0  0  0  0  0  0  0
   -5.0801   -8.9272   -9.3563 C   0  0  0  1  0  0  0  0  0  0  0  0
   -5.3657   -9.8775   -8.9558 H   0  0  0  1  0  0  0  0  0  0  0  0
   -4.6639   -9.0616  -10.3328 H   0  0  0  1  0  0  0  0  0  0  0  0
   -6.3193   -8.0614   -9.4748 C   0  0  0  1  0  0  0  0  0  0  0  0
   -6.2603   -6.8500   -9.3426 O   0  0  0  1  0  0  0  0  0  0  0  0
   -7.4636   -8.7135   -9.7309 N   0  0  0  1  0  0  0  0  0  0  0  0
   -7.4322   -9.6804   -9.8873 H   0  0  0  1  0  0  0  0  0  0  0  0
   -8.7505   -8.0344   -9.7846 C   0  0  0  1  0  0  0  0  0  0  0  0
   -9.4007   -8.6021  -10.4170 H   0  0  0  1  0  0  0  0  0  0  0  0
   -8.5977   -7.0639  -10.2085 H   0  0  0  1  0  0  0  0  0  0  0  0
   -9.4278   -7.8619   -8.4485 C   0  0  0  1  0  0  0  0  0  0  0  0
   -9.7710   -8.8222   -8.1245 H   0  0  0  1  0  0  0  0  0  0  0  0
  -10.2656   -7.2101   -8.5834 H   0  0  0  1  0  0  0  0  0  0  0  0
   -8.3847   -7.1702   -7.1430 S   0  0  0  1  0  0  0  0  0  0  0  0
   -9.5718   -6.7818   -5.8780 C   0  0  0  1  0  0  0  0  0  0  0  0
  -10.7391   -7.0548   -5.9576 O   0  0  0  1  0  0  0  0  0  0  0  0
   -8.9434   -6.0734   -4.7004 C   0  0  0  1  0  0  0  0  0  0  0  0
   -9.5410   -6.2329   -3.8273 H   0  0  0  1  0  0  0  0  0  0  0  0
   -8.8845   -5.0248   -4.9053 H   0  0  0  1  0  0  0  0  0  0  0  0
   -7.9599   -6.4608   -4.5349 H   0  0  0  1  0  0  0  0  0  0  0  0
  1  2  1  0  0  0  0
  1  7  2  0  0  0  0
  2  3  1  0  0  0  0
  2  4  2  0  0  0  0
  4  5  1  0  0  0  0
  5  6  2  0  0  0  0
  5 14  1  0  0  0  0
  6  7  1  0  0  0  0
  6 11  1  0  0  0  0
  7  8  1  0  0  0  0
  8  9  1  0  0  0  0
  8 10  1  0  0  0  0
 11 12  2  0  0  0  0
 12 13  1  0  0  0  0
 12 14  1  0  0  0  0
 14 15  1  0  0  0  0
 15 16  1  0  0  0  0
 15 17  1  0  0  0  0
 15 30  1  0  0  0  0
 17 18  1  0  0  0  0
 17 19  1  0  0  0  0
 17 21  1  0  0  0  0
 19 20  1  0  0  0  0
 21 22  1  0  0  0  0
 21 23  1  0  0  0  0
 21 28  1  0  0  0  0
 23 24  1  0  0  0  0
 24 25  1  0  0  0  0
 24 26  2  0  0  0  0
 24 27  1  0  0  0  0
 28 29  1  0  0  0  0
 28 30  1  0  0  0  0
 28 31  1  0  0  0  0
 31 32  1  0  0  0  0
 31 33  1  0  0  0  0
 31 34  1  0  0  0  0
 34 35  1  0  0  0  0
 35 36  1  0  0  0  0
 35 37  2  0  0  0  0
 35 38  1  0  0  0  0
 38 39  1  0  0  0  0
 39 40  2  0  0  0  0
 39 41  1  0  0  0  0
 39 42  1  0  0  0  0
 42 44  1  0  0  0  0
 43 44  1  0  0  0  0
 43 47  1  0  0  0  0
 43 51  1  0  0  0  0
 43 55  1  0  0  0  0
 44 45  1  0  0  0  0
 44 46  1  0  0  0  0
 47 48  1  0  0  0  0
 47 49  1  0  0  0  0
 47 50  1  0  0  0  0
 51 52  1  0  0  0  0
 51 53  1  0  0  0  0
 51 54  1  0  0  0  0
 55 56  1  0  0  0  0
 55 57  1  0  0  0  0
 55 59  1  0  0  0  0
 57 58  1  0  0  0  0
 59 60  2  0  0  0  0
 59 61  1  0  0  0  0
 61 62  1  0  0  0  0
 61 63  1  0  0  0  0
 63 64  1  0  0  0  0
 63 65  1  0  0  0  0
 63 66  1  0  0  0  0
 66 67  1  0  0  0  0
 66 68  1  0  0  0  0
 66 69  1  0  0  0  0
 69 70  2  0  0  0  0
 69 71  1  0  0  0  0
 71 72  1  0  0  0  0
 71 73  1  0  0  0  0
 73 74  1  0  0  0  0
 73 75  1  0  0  0  0
 73 76  1  0  0  0  0
 76 77  1  0  0  0  0
 76 78  1  0  0  0  0
 76 79  1  0  0  0  0
 79 80  1  0  0  0  0
 80 81  2  0  0  0  0
 80 82  1  0  0  0  0
 82 83  1  0  0  0  0
 82 84  1  0  0  0  0
 82 85  1  0  0  0  0
M  BCL ATM N_Tr2TrTrPi C_TrTrTrPi H_S N_Tr2TrTrPi C_TrTrTrPi C_TrTrTrPi C_TrTrTrPi N_TrTrTrPi2 H_S H_S N_Tr2TrTrPi C_TrTrTrPi H_S N_TrTrTrPi2 C_TeTeTeTe H_S C_TeTeTeTe H_S O_Te2Te2TeTe H_S C_TeTeTeTe H_S O_Tr2TrTrPi2 P_TeTeTeTePi O_Te2Te2TeTe O_Tr2Tr2TrPi O_Te2Te2Te2Te C_TeTeTeTe H_S O_Te2Te2TeTe C_TeTeTeTe H_S H_S O_Tr2TrTrPi2 P_TeTeTeTePi O_Te2Te2TeTe O_Tr2Tr2TrPi O_Tr2TrTrPi2 P_TeTeTeTePi O_Tr2Tr2TrPi O_Te2Te2Te2Te O_Tr2TrTrPi2 C_TeTeTeTe C_TeTeTeTe H_S H_S C_TeTeTeTe H_S H_S H_S C_TeTeTeTe H_S H_S H_S C_TeTeTeTe H_S O_Te2Te2TeTe H_S C_TrTrTrPi O_Tr2Tr2TrPi N_TrTrTrPi2 H_S C_TeTeTeTe H_S H_S C_TeTeTeTe H_S H_S C_TrTrTrPi O_Tr2Tr2TrPi N_TrTrTrPi2 H_S C_TeTeTeTe H_S H_S C_TeTeTeTe H_S H_S S_Te2Te2TeTe C_TrTrTrPi O_Tr2Tr2TrPi C_TeTeTeTe H_S H_S H_S
M  BCL BND AromaticSingleBond AromaticDoubleBond NonConjugatedSingleBond AromaticDoubleBond AromaticSingleBond AromaticDoubleBond AromaticSingleBond AromaticSingleBond AromaticSingleBond ConjugatedSingleBond NonConjugatedSingleBond NonConjugatedSingleBond AromaticDoubleBond NonConjugatedSingleBond AromaticSingleBond NonConjugatedSingleBond NonConjugatedSingleBond NonConjugatedSingleBondInRing NonConjugatedSingleBondInRing NonConjugatedSingleBond NonConjugatedSingleBond NonConjugatedSingleBondInRing NonConjugatedSingleBond NonConjugatedSingleBond NonConjugatedSingleBond NonConjugatedSingleBondInRing ConjugatedSingleBond ConjugatedSingleBond ConjugatedDoubleBond ConjugatedSingleBond NonConjugatedSingleBond NonConjugatedSingleBondInRing NonConjugatedSingleBond NonConjugatedSingleBond NonConjugatedSingleBond NonConjugatedSingleBond ConjugatedSingleBond ConjugatedSingleBond ConjugatedDoubleBond ConjugatedSingleBond ConjugatedSingleBond ConjugatedDoubleBond ConjugatedSingleBond ConjugatedSingleBond NonConjugatedSingleBond NonConjugatedSingleBond NonConjugatedSingleBond NonConjugatedSingleBond NonConjugatedSingleBond NonConjugatedSingleBond NonConjugatedSingleBond NonConjugatedSingleBond NonConjugatedSingleBond NonConjugatedSingleBond NonConjugatedSingleBond NonConjugatedSingleBond NonConjugatedSingleBond NonConjugatedSingleBond NonConjugatedSingleBond NonConjugatedSingleBond NonConjugatedSingleBond ConjugatedDoubleBond AmideSingleBond NonConjugatedSingleBond NonConjugatedSingleBond NonConjugatedSingleBond NonConjugatedSingleBond NonConjugatedSingleBond NonConjugatedSingleBond NonConjugatedSingleBond NonConjugatedSingleBond ConjugatedDoubleBond AmideSingleBond NonConjugatedSingleBond NonConjugatedSingleBond NonConjugatedSingleBond NonConjugatedSingleBond NonConjugatedSingleBond NonConjugatedSingleBond NonConjugatedSingleBond NonConjugatedSingleBond ConjugatedSingleBond ConjugatedDoubleBond NonConjugatedSingleBond NonConjugatedSingleBond NonConjugatedSingleBond NonConjugatedSingleBond
M  BCL CHI  15   S  17   S  21   S  24   S  28   R  35   R  39   R  55   S
M  BCL DBI - - - - - - - - - -
M  END
> <ConfClashScore>
0 

> <ConfOneFourInteractionScore>
-0.98543 

> <ConfScore>
0.0403483 

> <ConfScorePBest>
0.00943349 

> <ConfTolerance>
2.44896 

$$$$
ACO.****
  PyMOL2.5          3D                             0

 85 87  0  0  0  0  0  0  0  0999 V2000
    4.8843    1.0925  -10.6519 N   0  0  0  1  0  0  0  0  0  0  0  0
    3.8324    1.9182  -10.5355 C   0  0  0  1  0  0  0  0  0  0  0  0
    3.7959    2.6996  -11.2208 H   0  0  0  1  0  0  0  0  0  0  0  0
    2.8323    1.8720   -9.6639 N   0  0  0  1  0  0  0  0  0  0  0  0
    2.9605    0.8372   -8.8321 C   0  0  0  1  0  0  0  0  0  0  0  0
    3.9961   -0.1068   -8.8233 C   0  0  0  1  0  0  0  0  0  0  0  0
    4.9804    0.0740   -9.7905 C   0  0  0  1  0  0  0  0  0  0  0  0
    6.0435   -0.7778   -9.8689 N   0  0  0  1  0  0  0  0  0  0  0  0
    6.1206   -1.5245   -9.2390 H   0  0  0  1  0  0  0  0  0  0  0  0
    6.7298   -0.6429  -10.5553 H   0  0  0  1  0  0  0  0  0  0  0  0
    3.7979   -1.0278   -7.8064 N   0  0  0  1  0  0  0  0  0  0  0  0
    2.6853   -0.6333   -7.2493 C   0  0  0  1  0  0  0  0  0  0  0  0
    2.2565   -1.1310   -6.4431 H   0  0  0  1  0  0  0  0  0  0  0  0
    2.1286    0.4785   -7.8030 N   0  0  0  1  0  0  0  0  0  0  0  0
    0.9089    1.1460   -7.3909 C   0  0  0  1  0  0  0  0  0  0  0  0
    0.4351    0.5786   -6.6173 H   0  0  0  1  0  0  0  0  0  0  0  0
    1.2022    2.5917   -6.9166 C   0  0  0  1  0  0  0  0  0  0  0  0
    1.9660    3.0480   -7.5110 H   0  0  0  1  0  0  0  0  0  0  0  0
    1.5861    2.6177   -5.5505 O   0  0  0  1  0  0  0  0  0  0  0  0
    2.4515    3.0250   -5.4685 H   0  0  0  1  0  0  0  0  0  0  0  0
   -0.1682    3.2871   -7.1298 C   0  0  0  1  0  0  0  0  0  0  0  0
   -0.0364    4.2766   -7.5150 H   0  0  0  1  0  0  0  0  0  0  0  0
   -0.9154    3.3467   -5.8860 O   0  0  0  1  0  0  0  0  0  0  0  0
   -1.8977    4.6177   -5.5553 P   0  0  0  1  0  0  0  0  0  0  0  0
   -2.6901    4.4010   -4.1359 O   0  0  0  0  0  0  0  0  0  0  0  0
   -1.1455    5.8923   -5.5624 O   0  0  0  1  0  0  0  0  0  0  0  0
   -3.0686    4.6688   -6.6737 O   0  5  0  1  0  0  0  0  0  0  0  0
   -0.8864    2.3906   -8.1574 C   0  0  0  1  0  0  0  0  0  0  0  0
   -1.7761    1.9811   -7.7267 H   0  0  0  1  0  0  0  0  0  0  0  0
    0.0193    1.3328   -8.5120 O   0  0  0  1  0  0  0  0  0  0  0  0
   -1.2311    3.1659   -9.3377 C   0  0  0  1  0  0  0  0  0  0  0  0
   -0.3270    3.4899   -9.8095 H   0  0  0  1  0  0  0  0  0  0  0  0
   -1.7999    4.0190   -9.0319 H   0  0  0  1  0  0  0  0  0  0  0  0
   -2.0087    2.4122  -10.2978 O   0  0  0  1  0  0  0  0  0  0  0  0
   -3.6095    2.6479  -10.3555 P   0  0  0  1  0  0  0  0  0  0  0  0
   -4.0800    1.7700  -11.4669 O   0  0  0  0  0  0  0  0  0  0  0  0
   -3.9603    4.0788  -10.4034 O   0  0  0  1  0  0  0  0  0  0  0  0
   -4.1529    2.1330   -8.9215 O   0  0  0  1  0  0  0  0  0  0  0  0
   -4.2086    0.5628   -8.4515 P   0  0  0  1  0  0  0  0  0  0  0  0
   -4.8290   -0.3456   -9.4416 O   0  0  0  1  0  0  0  0  0  0  0  0
   -2.6876    0.0695   -8.1912 O   0  5  0  1  0  0  0  0  0  0  0  0
   -4.9859    0.5534   -7.0834 O   0  0  0  1  0  0  0  0  0  0  0  0
   -7.0528    0.4048   -5.9249 C   0  0  0  1  0  0  0  0  0  0  0  0
   -6.1530   -0.2819   -6.8990 C   0  0  0  1  0  0  0  0  0  0  0  0
   -5.8608   -1.2367   -6.5146 H   0  0  0  1  0  0  0  0  0  0  0  0
   -6.6589   -0.4125   -7.8328 H   0  0  0  1  0  0  0  0  0  0  0  0
   -8.3325   -0.4137   -5.7332 C   0  0  0  1  0  0  0  0  0  0  0  0
   -8.9881    0.1003   -5.0617 H   0  0  0  1  0  0  0  0  0  0  0  0
   -8.0851   -1.3718   -5.3260 H   0  0  0  1  0  0  0  0  0  0  0  0
   -8.8186   -0.5418   -6.6777 H   0  0  0  1  0  0  0  0  0  0  0  0
   -7.4100    1.7977   -6.4564 C   0  0  0  1  0  0  0  0  0  0  0  0
   -6.5869    2.1876   -7.0180 H   0  0  0  1  0  0  0  0  0  0  0  0
   -7.6213    2.4495   -5.6345 H   0  0  0  1  0  0  0  0  0  0  0  0
   -8.2712    1.7283   -7.0877 H   0  0  0  1  0  0  0  0  0  0  0  0
   -6.3392    0.5470   -4.5904 C   0  0  0  1  0  0  0  0  0  0  0  0
   -6.0010   -0.4150   -4.2665 H   0  0  0  1  0  0  0  0  0  0  0  0
   -5.2449    1.4306   -4.7666 O   0  0  0  1  0  0  0  0  0  0  0  0
   -5.3418    2.1822   -4.1773 H   0  0  0  1  0  0  0  0  0  0  0  0
   -7.2664    1.1319   -3.5429 C   0  0  0  1  0  0  0  0  0  0  0  0
   -7.6953    2.2809   -3.6398 O   0  0  0  1  0  0  0  0  0  0  0  0
   -7.5788    0.3189   -2.5213 N   0  0  0  1  0  0  0  0  0  0  0  0
   -7.0858   -0.5248   -2.4466 H   0  0  0  1  0  0  0  0  0  0  0  0
   -8.5943    0.5960   -1.5164 C   0  0  0  1  0  0  0  0  0  0  0  0
   -8.5276    1.6306   -1.2517 H   0  0  0  1  0  0  0  0  0  0  0  0
   -8.3860   -0.0066   -0.6572 H   0  0  0  1  0  0  0  0  0  0  0  0
  -10.0231    0.3112   -1.9605 C   0  0  0  1  0  0  0  0  0  0  0  0
  -10.0701   -0.6898   -2.3354 H   0  0  0  1  0  0  0  0  0  0  0  0
  -10.2804    0.9971   -2.7404 H   0  0  0  1  0  0  0  0  0  0  0  0
  -11.0432    0.4559   -0.8281 C   0  0  0  1  0  0  0  0  0  0  0  0
  -10.7317    1.1494    0.1392 O   0  0  0  1  0  0  0  0  0  0  0  0
  -12.2011   -0.1915   -0.9875 N   0  0  0  1  0  0  0  0  0  0  0  0
  -12.3753   -0.6850   -1.8160 H   0  0  0  1  0  0  0  0  0  0  0  0
  -13.2108   -0.1650    0.0738 C   0  0  0  1  0  0  0  0  0  0  0  0
  -12.7224   -0.1589    1.0258 H   0  0  0  1  0  0  0  0  0  0  0  0
  -13.8286   -1.0351   -0.0050 H   0  0  0  1  0  0  0  0  0  0  0  0
  -14.0697    1.0687   -0.0531 C   0  0  0  1  0  0  0  0  0  0  0  0
  -14.8788    1.0169    0.6452 H   0  0  0  1  0  0  0  0  0  0  0  0
  -14.4597    1.1346   -1.0473 H   0  0  0  1  0  0  0  0  0  0  0  0
  -13.0547    2.5235    0.2994 S   0  0  0  1  0  0  0  0  0  0  0  0
  -12.6782    3.1973   -1.3021 C   0  0  0  1  0  0  0  0  0  0  0  0
  -13.0372    2.6965   -2.3334 O   0  0  0  1  0  0  0  0  0  0  0  0
  -11.8597    4.4644   -1.2126 C   0  0  0  1  0  0  0  0  0  0  0  0
  -11.6894    4.8498   -2.1962 H   0  0  0  1  0  0  0  0  0  0  0  0
  -10.9208    4.2501   -0.7463 H   0  0  0  1  0  0  0  0  0  0  0  0
  -12.3893    5.1906   -0.6321 H   0  0  0  1  0  0  0  0  0  0  0  0
  1  2  1  0  0  0  0
  1  7  2  0  0  0  0
  2  3  1  0  0  0  0
  2  4  2  0  0  0  0
  4  5  1  0  0  0  0
  5  6  2  0  0  0  0
  5 14  1  0  0  0  0
  6  7  1  0  0  0  0
  6 11  1  0  0  0  0
  7  8  1  0  0  0  0
  8  9  1  0  0  0  0
  8 10  1  0  0  0  0
 11 12  2  0  0  0  0
 12 13  1  0  0  0  0
 12 14  1  0  0  0  0
 14 15  1  0  0  0  0
 15 16  1  0  0  0  0
 15 17  1  0  0  0  0
 15 30  1  0  0  0  0
 17 18  1  0  0  0  0
 17 19  1  0  0  0  0
 17 21  1  0  0  0  0
 19 20  1  0  0  0  0
 21 22  1  0  0  0  0
 21 23  1  0  0  0  0
 21 28  1  0  0  0  0
 23 24  1  0  0  0  0
 24 25  1  0  0  0  0
 24 26  2  0  0  0  0
 24 27  1  0  0  0  0
 28 29  1  0  0  0  0
 28 30  1  0  0  0  0
 28 31  1  0  0  0  0
 31 32  1  0  0  0  0
 31 33  1  0  0  0  0
 31 34  1  0  0  0  0
 34 35  1  0  0  0  0
 35 36  1  0  0  0  0
 35 37  2  0  0  0  0
 35 38  1  0  0  0  0
 38 39  1  0  0  0  0
 39 40  2  0  0  0  0
 39 41  1  0  0  0  0
 39 42  1  0  0  0  0
 42 44  1  0  0  0  0
 43 44  1  0  0  0  0
 43 47  1  0  0  0  0
 43 51  1  0  0  0  0
 43 55  1  0  0  0  0
 44 45  1  0  0  0  0
 44 46  1  0  0  0  0
 47 48  1  0  0  0  0
 47 49  1  0  0  0  0
 47 50  1  0  0  0  0
 51 52  1  0  0  0  0
 51 53  1  0  0  0  0
 51 54  1  0  0  0  0
 55 56  1  0  0  0  0
 55 57  1  0  0  0  0
 55 59  1  0  0  0  0
 57 58  1  0  0  0  0
 59 60  2  0  0  0  0
 59 61  1  0  0  0  0
 61 62  1  0  0  0  0
 61 63  1  0  0  0  0
 63 64  1  0  0  0  0
 63 65  1  0  0  0  0
 63 66  1  0  0  0  0
 66 67  1  0  0  0  0
 66 68  1  0  0  0  0
 66 69  1  0  0  0  0
 69 70  2  0  0  0  0
 69 71  1  0  0  0  0
 71 72  1  0  0  0  0
 71 73  1  0  0  0  0
 73 74  1  0  0  0  0
 73 75  1  0  0  0  0
 73 76  1  0  0  0  0
 76 77  1  0  0  0  0
 76 78  1  0  0  0  0
 76 79  1  0  0  0  0
 79 80  1  0  0  0  0
 80 81  2  0  0  0  0
 80 82  1  0  0  0  0
 82 83  1  0  0  0  0
 82 84  1  0  0  0  0
 82 85  1  0  0  0  0
M  BCL ATM N_Tr2TrTrPi C_TrTrTrPi H_S N_Tr2TrTrPi C_TrTrTrPi C_TrTrTrPi C_TrTrTrPi N_TrTrTrPi2 H_S H_S N_Tr2TrTrPi C_TrTrTrPi H_S N_TrTrTrPi2 C_TeTeTeTe H_S C_TeTeTeTe H_S O_Te2Te2TeTe H_S C_TeTeTeTe H_S O_Tr2TrTrPi2 P_TeTeTeTePi O_Te2Te2TeTe O_Tr2Tr2TrPi O_Te2Te2Te2Te C_TeTeTeTe H_S O_Te2Te2TeTe C_TeTeTeTe H_S H_S O_Tr2TrTrPi2 P_TeTeTeTePi O_Te2Te2TeTe O_Tr2Tr2TrPi O_Tr2TrTrPi2 P_TeTeTeTePi O_Tr2Tr2TrPi O_Te2Te2Te2Te O_Tr2TrTrPi2 C_TeTeTeTe C_TeTeTeTe H_S H_S C_TeTeTeTe H_S H_S H_S C_TeTeTeTe H_S H_S H_S C_TeTeTeTe H_S O_Te2Te2TeTe H_S C_TrTrTrPi O_Tr2Tr2TrPi N_TrTrTrPi2 H_S C_TeTeTeTe H_S H_S C_TeTeTeTe H_S H_S C_TrTrTrPi O_Tr2Tr2TrPi N_TrTrTrPi2 H_S C_TeTeTeTe H_S H_S C_TeTeTeTe H_S H_S S_Te2Te2TeTe C_TrTrTrPi O_Tr2Tr2TrPi C_TeTeTeTe H_S H_S H_S
M  BCL BND AromaticSingleBond AromaticDoubleBond NonConjugatedSingleBond AromaticDoubleBond AromaticSingleBond AromaticDoubleBond AromaticSingleBond AromaticSingleBond AromaticSingleBond ConjugatedSingleBond NonConjugatedSingleBond NonConjugatedSingleBond AromaticDoubleBond NonConjugatedSingleBond AromaticSingleBond NonConjugatedSingleBond NonConjugatedSingleBond NonConjugatedSingleBondInRing NonConjugatedSingleBondInRing NonConjugatedSingleBond NonConjugatedSingleBond NonConjugatedSingleBondInRing NonConjugatedSingleBond NonConjugatedSingleBond NonConjugatedSingleBond NonConjugatedSingleBondInRing ConjugatedSingleBond ConjugatedSingleBond ConjugatedDoubleBond ConjugatedSingleBond NonConjugatedSingleBond NonConjugatedSingleBondInRing NonConjugatedSingleBond NonConjugatedSingleBond NonConjugatedSingleBond NonConjugatedSingleBond ConjugatedSingleBond ConjugatedSingleBond ConjugatedDoubleBond ConjugatedSingleBond ConjugatedSingleBond ConjugatedDoubleBond ConjugatedSingleBond ConjugatedSingleBond NonConjugatedSingleBond NonConjugatedSingleBond NonConjugatedSingleBond NonConjugatedSingleBond NonConjugatedSingleBond NonConjugatedSingleBond NonConjugatedSingleBond NonConjugatedSingleBond NonConjugatedSingleBond NonConjugatedSingleBond NonConjugatedSingleBond NonConjugatedSingleBond NonConjugatedSingleBond NonConjugatedSingleBond NonConjugatedSingleBond NonConjugatedSingleBond NonConjugatedSingleBond ConjugatedDoubleBond AmideSingleBond NonConjugatedSingleBond NonConjugatedSingleBond NonConjugatedSingleBond NonConjugatedSingleBond NonConjugatedSingleBond NonConjugatedSingleBond NonConjugatedSingleBond NonConjugatedSingleBond ConjugatedDoubleBond AmideSingleBond NonConjugatedSingleBond NonConjugatedSingleBond NonConjugatedSingleBond NonConjugatedSingleBond NonConjugatedSingleBond NonConjugatedSingleBond NonConjugatedSingleBond NonConjugatedSingleBond ConjugatedSingleBond ConjugatedDoubleBond NonConjugatedSingleBond NonConjugatedSingleBond NonConjugatedSingleBond NonConjugatedSingleBond
M  BCL CHI  15   S  17   S  21   S  24   S  28   R  35   R  39   R  55   S
M  BCL DBI - - - - - - - - - -
M  END
> <ConfClashScore>
0 

> <ConfOneFourInteractionScore>
-0.980406 

> <ConfScore>
0.0403522 

> <ConfScorePBest>
0.00933049 

> <ConfTolerance>
2.61335 

$$$$
ACO.****
  PyMOL2.5          3D                             0

 85 87  0  0  0  0  0  0  0  0999 V2000
    4.8913    1.0770  -10.6379 N   0  0  0  1  0  0  0  0  0  0  0  0
    3.8384    1.9032  -10.5340 C   0  0  0  1  0  0  0  0  0  0  0  0
    3.8088    2.6828  -11.2218 H   0  0  0  1  0  0  0  0  0  0  0  0
    2.8300    1.8597   -9.6720 N   0  0  0  1  0  0  0  0  0  0  0  0
    2.9498    0.8272   -8.8362 C   0  0  0  1  0  0  0  0  0  0  0  0
    3.9851   -0.1171   -8.8147 C   0  0  0  1  0  0  0  0  0  0  0  0
    4.9788    0.0609   -9.7728 C   0  0  0  1  0  0  0  0  0  0  0  0
    6.0669   -0.7642   -9.8832 N   0  0  0  1  0  0  0  0  0  0  0  0
    6.1891   -1.5014   -9.2492 H   0  0  0  1  0  0  0  0  0  0  0  0
    6.7230   -0.6171  -10.5961 H   0  0  0  1  0  0  0  0  0  0  0  0
    3.7768   -1.0352   -7.7973 N   0  0  0  1  0  0  0  0  0  0  0  0
    2.6590   -0.6389   -7.2520 C   0  0  0  1  0  0  0  0  0  0  0  0
    2.2223   -1.1343   -6.4486 H   0  0  0  1  0  0  0  0  0  0  0  0
    2.1079    0.4716   -7.8142 N   0  0  0  1  0  0  0  0  0  0  0  0
    0.9259    1.1998   -7.3438 C   0  0  0  1  0  0  0  0  0  0  0  0
    0.4263    0.6232   -6.5937 H   0  0  0  1  0  0  0  0  0  0  0  0
    1.3243    2.5714   -6.7909 C   0  0  0  1  0  0  0  0  0  0  0  0
    2.3538    2.5835   -6.4995 H   0  0  0  1  0  0  0  0  0  0  0  0
    0.5076    2.9309   -5.6734 O   0  0  0  1  0  0  0  0  0  0  0  0
    0.9614    2.7036   -4.8586 H   0  0  0  1  0  0  0  0  0  0  0  0
    1.0820    3.4943   -7.9563 C   0  0  0  1  0  0  0  0  0  0  0  0
    1.9257    3.5150   -8.6140 H   0  0  0  1  0  0  0  0  0  0  0  0
    0.7863    4.8443   -7.5033 O   0  0  0  1  0  0  0  0  0  0  0  0
    1.8677    5.6840   -6.6005 P   0  0  0  1  0  0  0  0  0  0  0  0
    3.2514    5.1463   -7.2975 O   0  0  0  0  0  0  0  0  0  0  0  0
    1.7017    7.1410   -6.8006 O   0  0  0  1  0  0  0  0  0  0  0  0
    1.7315    5.0434   -5.1188 O   0  5  0  1  0  0  0  0  0  0  0  0
   -0.1378    2.8604   -8.6405 C   0  0  0  1  0  0  0  0  0  0  0  0
   -1.0456    3.1981   -8.1858 H   0  0  0  1  0  0  0  0  0  0  0  0
    0.0331    1.4829   -8.4447 O   0  0  0  1  0  0  0  0  0  0  0  0
   -0.1576    3.1891  -10.0971 C   0  0  0  1  0  0  0  0  0  0  0  0
   -0.4179    2.3194  -10.6634 H   0  0  0  1  0  0  0  0  0  0  0  0
    0.8052    3.5405  -10.4044 H   0  0  0  1  0  0  0  0  0  0  0  0
   -1.1502    4.2266  -10.3009 O   0  0  0  1  0  0  0  0  0  0  0  0
   -0.9485    5.2519  -11.5089 P   0  0  0  1  0  0  0  0  0  0  0  0
   -1.3762    4.6239  -12.7982 O   0  0  0  0  0  0  0  0  0  0  0  0
    0.4429    5.8056  -11.4816 O   0  0  0  1  0  0  0  0  0  0  0  0
   -1.9368    6.4349  -11.0565 O   0  0  0  1  0  0  0  0  0  0  0  0
   -3.5460    6.6738  -11.2637 P   0  0  0  1  0  0  0  0  0  0  0  0
   -4.3401    6.4276  -10.0392 O   0  0  0  1  0  0  0  0  0  0  0  0
   -3.7978    8.2486  -11.5482 O   0  5  0  1  0  0  0  0  0  0  0  0
   -4.0637    5.8730  -12.5261 O   0  0  0  1  0  0  0  0  0  0  0  0
   -4.4593    3.9226  -13.8161 C   0  0  0  1  0  0  0  0  0  0  0  0
   -4.1325    4.4325  -12.4511 C   0  0  0  1  0  0  0  0  0  0  0  0
   -4.8954    4.1396  -11.7604 H   0  0  0  1  0  0  0  0  0  0  0  0
   -3.1905    4.0389  -12.1309 H   0  0  0  1  0  0  0  0  0  0  0  0
   -3.4191    4.3499  -14.8604 C   0  0  0  1  0  0  0  0  0  0  0  0
   -3.2904    5.4114  -14.8227 H   0  0  0  1  0  0  0  0  0  0  0  0
   -3.7557    4.0661  -15.8356 H   0  0  0  1  0  0  0  0  0  0  0  0
   -2.4859    3.8700  -14.6509 H   0  0  0  1  0  0  0  0  0  0  0  0
   -5.8373    4.4458  -14.2283 C   0  0  0  1  0  0  0  0  0  0  0  0
   -5.8816    5.5023  -14.0652 H   0  0  0  1  0  0  0  0  0  0  0  0
   -6.5916    3.9628  -13.6430 H   0  0  0  1  0  0  0  0  0  0  0  0
   -6.0019    4.2380  -15.2650 H   0  0  0  1  0  0  0  0  0  0  0  0
   -4.5259    2.4047  -13.7738 C   0  0  0  1  0  0  0  0  0  0  0  0
   -4.9446    2.0433  -14.6897 H   0  0  0  1  0  0  0  0  0  0  0  0
   -3.2091    1.9093  -13.5934 O   0  0  0  1  0  0  0  0  0  0  0  0
   -2.9684    1.9691  -12.6660 H   0  0  0  1  0  0  0  0  0  0  0  0
   -5.3830    1.9332  -12.6089 C   0  0  0  1  0  0  0  0  0  0  0  0
   -6.5324    2.3469  -12.4632 O   0  0  0  1  0  0  0  0  0  0  0  0
   -4.8506    1.0581  -11.7511 N   0  0  0  1  0  0  0  0  0  0  0  0
   -3.9600    0.6944  -11.9383 H   0  0  0  1  0  0  0  0  0  0  0  0
   -5.5487    0.6252  -10.5458 C   0  0  0  1  0  0  0  0  0  0  0  0
   -6.1778    1.4225  -10.2090 H   0  0  0  1  0  0  0  0  0  0  0  0
   -4.8236    0.3995   -9.7920 H   0  0  0  1  0  0  0  0  0  0  0  0
   -6.4091   -0.6094  -10.7806 C   0  0  0  1  0  0  0  0  0  0  0  0
   -7.1492   -0.3738  -11.5166 H   0  0  0  1  0  0  0  0  0  0  0  0
   -6.8901   -0.8693   -9.8608 H   0  0  0  1  0  0  0  0  0  0  0  0
   -5.6056   -1.8157  -11.2673 C   0  0  0  1  0  0  0  0  0  0  0  0
   -5.3340   -1.9403  -12.4608 O   0  0  0  1  0  0  0  0  0  0  0  0
   -5.3025   -2.7488  -10.3636 N   0  0  0  1  0  0  0  0  0  0  0  0
   -5.5281   -2.5637   -9.4281 H   0  0  0  1  0  0  0  0  0  0  0  0
   -4.6578   -4.0296  -10.6643 C   0  0  0  1  0  0  0  0  0  0  0  0
   -4.0843   -4.3329   -9.8135 H   0  0  0  1  0  0  0  0  0  0  0  0
   -4.0083   -3.8976  -11.5043 H   0  0  0  1  0  0  0  0  0  0  0  0
   -5.6493   -5.1123  -10.9876 C   0  0  0  1  0  0  0  0  0  0  0  0
   -5.1034   -5.9861  -11.2766 H   0  0  0  1  0  0  0  0  0  0  0  0
   -6.2490   -4.7782  -11.8084 H   0  0  0  1  0  0  0  0  0  0  0  0
   -6.7554   -5.5661   -9.6358 S   0  0  0  1  0  0  0  0  0  0  0  0
   -7.8854   -6.6822  -10.4321 C   0  0  0  1  0  0  0  0  0  0  0  0
   -7.8135   -7.0146  -11.5708 O   0  0  0  1  0  0  0  0  0  0  0  0
   -9.0242   -7.0664   -9.5101 C   0  0  0  1  0  0  0  0  0  0  0  0
   -9.9546   -6.9578  -10.0272 H   0  0  0  1  0  0  0  0  0  0  0  0
   -9.0175   -6.4291   -8.6507 H   0  0  0  1  0  0  0  0  0  0  0  0
   -8.9048   -8.0839   -9.2012 H   0  0  0  1  0  0  0  0  0  0  0  0
  1  2  1  0  0  0  0
  1  7  2  0  0  0  0
  2  3  1  0  0  0  0
  2  4  2  0  0  0  0
  4  5  1  0  0  0  0
  5  6  2  0  0  0  0
  5 14  1  0  0  0  0
  6  7  1  0  0  0  0
  6 11  1  0  0  0  0
  7  8  1  0  0  0  0
  8  9  1  0  0  0  0
  8 10  1  0  0  0  0
 11 12  2  0  0  0  0
 12 13  1  0  0  0  0
 12 14  1  0  0  0  0
 14 15  1  0  0  0  0
 15 16  1  0  0  0  0
 15 17  1  0  0  0  0
 15 30  1  0  0  0  0
 17 18  1  0  0  0  0
 17 19  1  0  0  0  0
 17 21  1  0  0  0  0
 19 20  1  0  0  0  0
 21 22  1  0  0  0  0
 21 23  1  0  0  0  0
 21 28  1  0  0  0  0
 23 24  1  0  0  0  0
 24 25  1  0  0  0  0
 24 26  2  0  0  0  0
 24 27  1  0  0  0  0
 28 29  1  0  0  0  0
 28 30  1  0  0  0  0
 28 31  1  0  0  0  0
 31 32  1  0  0  0  0
 31 33  1  0  0  0  0
 31 34  1  0  0  0  0
 34 35  1  0  0  0  0
 35 36  1  0  0  0  0
 35 37  2  0  0  0  0
 35 38  1  0  0  0  0
 38 39  1  0  0  0  0
 39 40  2  0  0  0  0
 39 41  1  0  0  0  0
 39 42  1  0  0  0  0
 42 44  1  0  0  0  0
 43 44  1  0  0  0  0
 43 47  1  0  0  0  0
 43 51  1  0  0  0  0
 43 55  1  0  0  0  0
 44 45  1  0  0  0  0
 44 46  1  0  0  0  0
 47 48  1  0  0  0  0
 47 49  1  0  0  0  0
 47 50  1  0  0  0  0
 51 52  1  0  0  0  0
 51 53  1  0  0  0  0
 51 54  1  0  0  0  0
 55 56  1  0  0  0  0
 55 57  1  0  0  0  0
 55 59  1  0  0  0  0
 57 58  1  0  0  0  0
 59 60  2  0  0  0  0
 59 61  1  0  0  0  0
 61 62  1  0  0  0  0
 61 63  1  0  0  0  0
 63 64  1  0  0  0  0
 63 65  1  0  0  0  0
 63 66  1  0  0  0  0
 66 67  1  0  0  0  0
 66 68  1  0  0  0  0
 66 69  1  0  0  0  0
 69 70  2  0  0  0  0
 69 71  1  0  0  0  0
 71 72  1  0  0  0  0
 71 73  1  0  0  0  0
 73 74  1  0  0  0  0
 73 75  1  0  0  0  0
 73 76  1  0  0  0  0
 76 77  1  0  0  0  0
 76 78  1  0  0  0  0
 76 79  1  0  0  0  0
 79 80  1  0  0  0  0
 80 81  2  0  0  0  0
 80 82  1  0  0  0  0
 82 83  1  0  0  0  0
 82 84  1  0  0  0  0
 82 85  1  0  0  0  0
M  BCL ATM N_Tr2TrTrPi C_TrTrTrPi H_S N_Tr2TrTrPi C_TrTrTrPi C_TrTrTrPi C_TrTrTrPi N_TrTrTrPi2 H_S H_S N_Tr2TrTrPi C_TrTrTrPi H_S N_TrTrTrPi2 C_TeTeTeTe H_S C_TeTeTeTe H_S O_Te2Te2TeTe H_S C_TeTeTeTe H_S O_Tr2TrTrPi2 P_TeTeTeTePi O_Te2Te2TeTe O_Tr2Tr2TrPi O_Te2Te2Te2Te C_TeTeTeTe H_S O_Te2Te2TeTe C_TeTeTeTe H_S H_S O_Tr2TrTrPi2 P_TeTeTeTePi O_Te2Te2TeTe O_Tr2Tr2TrPi O_Tr2TrTrPi2 P_TeTeTeTePi O_Tr2Tr2TrPi O_Te2Te2Te2Te O_Tr2TrTrPi2 C_TeTeTeTe C_TeTeTeTe H_S H_S C_TeTeTeTe H_S H_S H_S C_TeTeTeTe H_S H_S H_S C_TeTeTeTe H_S O_Te2Te2TeTe H_S C_TrTrTrPi O_Tr2Tr2TrPi N_TrTrTrPi2 H_S C_TeTeTeTe H_S H_S C_TeTeTeTe H_S H_S C_TrTrTrPi O_Tr2Tr2TrPi N_TrTrTrPi2 H_S C_TeTeTeTe H_S H_S C_TeTeTeTe H_S H_S S_Te2Te2TeTe C_TrTrTrPi O_Tr2Tr2TrPi C_TeTeTeTe H_S H_S H_S
M  BCL BND AromaticSingleBond AromaticDoubleBond NonConjugatedSingleBond AromaticDoubleBond AromaticSingleBond AromaticDoubleBond AromaticSingleBond AromaticSingleBond AromaticSingleBond ConjugatedSingleBond NonConjugatedSingleBond NonConjugatedSingleBond AromaticDoubleBond NonConjugatedSingleBond AromaticSingleBond NonConjugatedSingleBond NonConjugatedSingleBond NonConjugatedSingleBondInRing NonConjugatedSingleBondInRing NonConjugatedSingleBond NonConjugatedSingleBond NonConjugatedSingleBondInRing NonConjugatedSingleBond NonConjugatedSingleBond NonConjugatedSingleBond NonConjugatedSingleBondInRing ConjugatedSingleBond ConjugatedSingleBond ConjugatedDoubleBond ConjugatedSingleBond NonConjugatedSingleBond NonConjugatedSingleBondInRing NonConjugatedSingleBond NonConjugatedSingleBond NonConjugatedSingleBond NonConjugatedSingleBond ConjugatedSingleBond ConjugatedSingleBond ConjugatedDoubleBond ConjugatedSingleBond ConjugatedSingleBond ConjugatedDoubleBond ConjugatedSingleBond ConjugatedSingleBond NonConjugatedSingleBond NonConjugatedSingleBond NonConjugatedSingleBond NonConjugatedSingleBond NonConjugatedSingleBond NonConjugatedSingleBond NonConjugatedSingleBond NonConjugatedSingleBond NonConjugatedSingleBond NonConjugatedSingleBond NonConjugatedSingleBond NonConjugatedSingleBond NonConjugatedSingleBond NonConjugatedSingleBond NonConjugatedSingleBond NonConjugatedSingleBond NonConjugatedSingleBond ConjugatedDoubleBond AmideSingleBond NonConjugatedSingleBond NonConjugatedSingleBond NonConjugatedSingleBond NonConjugatedSingleBond NonConjugatedSingleBond NonConjugatedSingleBond NonConjugatedSingleBond NonConjugatedSingleBond ConjugatedDoubleBond AmideSingleBond NonConjugatedSingleBond NonConjugatedSingleBond NonConjugatedSingleBond NonConjugatedSingleBond NonConjugatedSingleBond NonConjugatedSingleBond NonConjugatedSingleBond NonConjugatedSingleBond ConjugatedSingleBond ConjugatedDoubleBond NonConjugatedSingleBond NonConjugatedSingleBond NonConjugatedSingleBond NonConjugatedSingleBond
M  BCL CHI  15   S  17   S  21   S  24   S  28   R  35   R  39   R  55   S
M  BCL DBI - - - - - - - - - -
M  END
> <ConfClashScore>
0 

> <ConfOneFourInteractionScore>
-0.980721 

> <ConfScore>
0.0410064 

> <ConfScorePBest>
0.00922749 

> <ConfTolerance>
2.54246 

$$$$
ACO.****
  PyMOL2.5          3D                             0

 85 87  0  0  0  0  0  0  0  0999 V2000
    4.8906    1.0767  -10.6424 N   0  0  0  1  0  0  0  0  0  0  0  0
    3.8421    1.9078  -10.5338 C   0  0  0  1  0  0  0  0  0  0  0  0
    3.8124    2.6868  -11.2222 H   0  0  0  1  0  0  0  0  0  0  0  0
    2.8381    1.8697   -9.6664 N   0  0  0  1  0  0  0  0  0  0  0  0
    2.9576    0.8375   -8.8302 C   0  0  0  1  0  0  0  0  0  0  0  0
    3.9887   -0.1114   -8.8132 C   0  0  0  1  0  0  0  0  0  0  0  0
    4.9781    0.0611   -9.7767 C   0  0  0  1  0  0  0  0  0  0  0  0
    6.0618   -0.7690   -9.8920 N   0  0  0  1  0  0  0  0  0  0  0  0
    6.7329   -0.6050  -10.5871 H   0  0  0  1  0  0  0  0  0  0  0  0
    6.1660   -1.5269   -9.2794 H   0  0  0  1  0  0  0  0  0  0  0  0
    3.7817   -1.0275   -7.7937 N   0  0  0  1  0  0  0  0  0  0  0  0
    2.6686   -0.6256   -7.2429 C   0  0  0  1  0  0  0  0  0  0  0  0
    2.2339   -1.1181   -6.4367 H   0  0  0  1  0  0  0  0  0  0  0  0
    2.1196    0.4868   -7.8033 N   0  0  0  1  0  0  0  0  0  0  0  0
    0.8809    1.1312   -7.3540 C   0  0  0  1  0  0  0  0  0  0  0  0
    0.9389    1.4089   -6.3223 H   0  0  0  1  0  0  0  0  0  0  0  0
    0.4510    2.3256   -8.2045 C   0  0  0  1  0  0  0  0  0  0  0  0
    1.2960    2.8868   -8.5450 H   0  0  0  1  0  0  0  0  0  0  0  0
   -0.4357    3.1871   -7.4845 O   0  0  0  1  0  0  0  0  0  0  0  0
    0.0721    3.7485   -6.8941 H   0  0  0  1  0  0  0  0  0  0  0  0
   -0.2535    1.6437   -9.3489 C   0  0  0  1  0  0  0  0  0  0  0  0
    0.4462    1.2721  -10.0681 H   0  0  0  1  0  0  0  0  0  0  0  0
   -1.1827    2.5385   -9.9981 O   0  0  0  1  0  0  0  0  0  0  0  0
   -0.8702    4.1483   -9.9745 P   0  0  0  1  0  0  0  0  0  0  0  0
   -1.6622    4.7407   -8.6663 O   0  0  0  0  0  0  0  0  0  0  0  0
    0.5798    4.3786   -9.7874 O   0  0  0  1  0  0  0  0  0  0  0  0
   -1.5047    4.7985  -11.3157 O   0  5  0  1  0  0  0  0  0  0  0  0
   -0.9805    0.5080   -8.6521 C   0  0  0  1  0  0  0  0  0  0  0  0
   -1.9299    0.8402   -8.2870 H   0  0  0  1  0  0  0  0  0  0  0  0
   -0.1454    0.1267   -7.5791 O   0  0  0  1  0  0  0  0  0  0  0  0
   -1.1800   -0.6368   -9.5900 C   0  0  0  1  0  0  0  0  0  0  0  0
   -1.6781   -1.4384   -9.0858 H   0  0  0  1  0  0  0  0  0  0  0  0
   -0.2338   -0.9778   -9.9552 H   0  0  0  1  0  0  0  0  0  0  0  0
   -1.9946   -0.1654  -10.6933 O   0  0  0  1  0  0  0  0  0  0  0  0
   -2.4496   -1.1709  -11.8781 P   0  0  0  1  0  0  0  0  0  0  0  0
   -2.6651   -2.4753  -11.2010 O   0  0  0  0  0  0  0  0  0  0  0  0
   -1.5246   -1.1279  -13.0346 O   0  0  0  1  0  0  0  0  0  0  0  0
   -3.8249   -0.5584  -12.4261 O   0  0  0  1  0  0  0  0  0  0  0  0
   -4.6569   -0.3189  -13.8189 P   0  0  0  1  0  0  0  0  0  0  0  0
   -4.1625    0.9972  -14.2815 O   0  0  0  1  0  0  0  0  0  0  0  0
   -4.4323   -1.6149  -14.7645 O   0  5  0  1  0  0  0  0  0  0  0  0
   -6.1625   -0.1461  -13.3951 O   0  0  0  1  0  0  0  0  0  0  0  0
   -7.7071    1.4864  -14.1679 C   0  0  0  1  0  0  0  0  0  0  0  0
   -7.1903    0.1027  -14.3874 C   0  0  0  1  0  0  0  0  0  0  0  0
   -7.9848   -0.6052  -14.2745 H   0  0  0  1  0  0  0  0  0  0  0  0
   -6.7755    0.0202  -15.3703 H   0  0  0  1  0  0  0  0  0  0  0  0
   -6.5056    2.4305  -14.0694 C   0  0  0  1  0  0  0  0  0  0  0  0
   -6.0105    2.4786  -15.0168 H   0  0  0  1  0  0  0  0  0  0  0  0
   -5.8246    2.0647  -13.3295 H   0  0  0  1  0  0  0  0  0  0  0  0
   -6.8420    3.4079  -13.7931 H   0  0  0  1  0  0  0  0  0  0  0  0
   -8.4434    1.5391  -12.8271 C   0  0  0  1  0  0  0  0  0  0  0  0
   -8.3633    0.5907  -12.3382 H   0  0  0  1  0  0  0  0  0  0  0  0
   -9.4751    1.7671  -12.9958 H   0  0  0  1  0  0  0  0  0  0  0  0
   -8.0065    2.2962  -12.2101 H   0  0  0  1  0  0  0  0  0  0  0  0
   -8.6592    1.9282  -15.2838 C   0  0  0  1  0  0  0  0  0  0  0  0
   -8.9629    2.9327  -15.0746 H   0  0  0  1  0  0  0  0  0  0  0  0
   -7.9846    1.8963  -16.5394 O   0  0  0  1  0  0  0  0  0  0  0  0
   -8.2670    2.6420  -17.0739 H   0  0  0  1  0  0  0  0  0  0  0  0
   -9.9103    1.0652  -15.3447 C   0  0  0  1  0  0  0  0  0  0  0  0
  -10.6771    0.9940  -14.3984 O   0  0  0  1  0  0  0  0  0  0  0  0
  -10.1048    0.4003  -16.4946 N   0  0  0  1  0  0  0  0  0  0  0  0
   -9.4468    0.4977  -17.2143 H   0  0  0  1  0  0  0  0  0  0  0  0
  -11.2587   -0.4600  -16.7096 C   0  0  0  1  0  0  0  0  0  0  0  0
  -11.5227   -0.9037  -15.7724 H   0  0  0  1  0  0  0  0  0  0  0  0
  -10.9785   -1.2266  -17.4014 H   0  0  0  1  0  0  0  0  0  0  0  0
  -12.4796    0.2457  -17.2574 C   0  0  0  1  0  0  0  0  0  0  0  0
  -12.1859    0.7779  -18.1380 H   0  0  0  1  0  0  0  0  0  0  0  0
  -12.8196    0.9397  -16.5173 H   0  0  0  1  0  0  0  0  0  0  0  0
  -13.6332   -0.6489  -17.6191 C   0  0  0  1  0  0  0  0  0  0  0  0
  -13.7809   -1.7386  -17.0722 O   0  0  0  1  0  0  0  0  0  0  0  0
  -14.4938   -0.2211  -18.5554 N   0  0  0  1  0  0  0  0  0  0  0  0
  -14.3098    0.6241  -19.0161 H   0  0  0  1  0  0  0  0  0  0  0  0
  -15.6990   -0.9735  -18.9130 C   0  0  0  1  0  0  0  0  0  0  0  0
  -16.4266   -0.3024  -19.3193 H   0  0  0  1  0  0  0  0  0  0  0  0
  -16.0955   -1.4423  -18.0367 H   0  0  0  1  0  0  0  0  0  0  0  0
  -15.3693   -2.0328  -19.9396 C   0  0  0  1  0  0  0  0  0  0  0  0
  -16.2180   -2.6773  -20.0349 H   0  0  0  1  0  0  0  0  0  0  0  0
  -14.5329   -2.5944  -19.5792 H   0  0  0  1  0  0  0  0  0  0  0  0
  -14.9555   -1.4048  -21.5844 S   0  0  0  1  0  0  0  0  0  0  0  0
  -16.5244   -1.3065  -22.4285 C   0  0  0  1  0  0  0  0  0  0  0  0
  -17.4904   -1.6432  -21.7814 O   0  0  0  1  0  0  0  0  0  0  0  0
  -16.5968   -0.8371  -23.8336 C   0  0  0  1  0  0  0  0  0  0  0  0
  -15.6259   -0.5237  -24.1559 H   0  0  0  1  0  0  0  0  0  0  0  0
  -17.2772   -0.0140  -23.8997 H   0  0  0  1  0  0  0  0  0  0  0  0
  -16.9396   -1.6350  -24.4587 H   0  0  0  1  0  0  0  0  0  0  0  0
  1  2  1  0  0  0  0
  1  7  2  0  0  0  0
  2  3  1  0  0  0  0
  2  4  2  0  0  0  0
  4  5  1  0  0  0  0
  5  6  2  0  0  0  0
  5 14  1  0  0  0  0
  6  7  1  0  0  0  0
  6 11  1  0  0  0  0
  7  8  1  0  0  0  0
  8  9  1  0  0  0  0
  8 10  1  0  0  0  0
 11 12  2  0  0  0  0
 12 13  1  0  0  0  0
 12 14  1  0  0  0  0
 14 15  1  0  0  0  0
 15 16  1  0  0  0  0
 15 17  1  0  0  0  0
 15 30  1  0  0  0  0
 17 18  1  0  0  0  0
 17 19  1  0  0  0  0
 17 21  1  0  0  0  0
 19 20  1  0  0  0  0
 21 22  1  0  0  0  0
 21 23  1  0  0  0  0
 21 28  1  0  0  0  0
 23 24  1  0  0  0  0
 24 25  1  0  0  0  0
 24 26  2  0  0  0  0
 24 27  1  0  0  0  0
 28 29  1  0  0  0  0
 28 30  1  0  0  0  0
 28 31  1  0  0  0  0
 31 32  1  0  0  0  0
 31 33  1  0  0  0  0
 31 34  1  0  0  0  0
 34 35  1  0  0  0  0
 35 36  1  0  0  0  0
 35 37  2  0  0  0  0
 35 38  1  0  0  0  0
 38 39  1  0  0  0  0
 39 40  2  0  0  0  0
 39 41  1  0  0  0  0
 39 42  1  0  0  0  0
 42 44  1  0  0  0  0
 43 44  1  0  0  0  0
 43 47  1  0  0  0  0
 43 51  1  0  0  0  0
 43 55  1  0  0  0  0
 44 45  1  0  0  0  0
 44 46  1  0  0  0  0
 47 48  1  0  0  0  0
 47 49  1  0  0  0  0
 47 50  1  0  0  0  0
 51 52  1  0  0  0  0
 51 53  1  0  0  0  0
 51 54  1  0  0  0  0
 55 56  1  0  0  0  0
 55 57  1  0  0  0  0
 55 59  1  0  0  0  0
 57 58  1  0  0  0  0
 59 60  2  0  0  0  0
 59 61  1  0  0  0  0
 61 62  1  0  0  0  0
 61 63  1  0  0  0  0
 63 64  1  0  0  0  0
 63 65  1  0  0  0  0
 63 66  1  0  0  0  0
 66 67  1  0  0  0  0
 66 68  1  0  0  0  0
 66 69  1  0  0  0  0
 69 70  2  0  0  0  0
 69 71  1  0  0  0  0
 71 72  1  0  0  0  0
 71 73  1  0  0  0  0
 73 74  1  0  0  0  0
 73 75  1  0  0  0  0
 73 76  1  0  0  0  0
 76 77  1  0  0  0  0
 76 78  1  0  0  0  0
 76 79  1  0  0  0  0
 79 80  1  0  0  0  0
 80 81  2  0  0  0  0
 80 82  1  0  0  0  0
 82 83  1  0  0  0  0
 82 84  1  0  0  0  0
 82 85  1  0  0  0  0
M  BCL ATM N_Tr2TrTrPi C_TrTrTrPi H_S N_Tr2TrTrPi C_TrTrTrPi C_TrTrTrPi C_TrTrTrPi N_TrTrTrPi2 H_S H_S N_Tr2TrTrPi C_TrTrTrPi H_S N_TrTrTrPi2 C_TeTeTeTe H_S C_TeTeTeTe H_S O_Te2Te2TeTe H_S C_TeTeTeTe H_S O_Tr2TrTrPi2 P_TeTeTeTePi O_Te2Te2TeTe O_Tr2Tr2TrPi O_Te2Te2Te2Te C_TeTeTeTe H_S O_Te2Te2TeTe C_TeTeTeTe H_S H_S O_Tr2TrTrPi2 P_TeTeTeTePi O_Te2Te2TeTe O_Tr2Tr2TrPi O_Tr2TrTrPi2 P_TeTeTeTePi O_Tr2Tr2TrPi O_Te2Te2Te2Te O_Tr2TrTrPi2 C_TeTeTeTe C_TeTeTeTe H_S H_S C_TeTeTeTe H_S H_S H_S C_TeTeTeTe H_S H_S H_S C_TeTeTeTe H_S O_Te2Te2TeTe H_S C_TrTrTrPi O_Tr2Tr2TrPi N_TrTrTrPi2 H_S C_TeTeTeTe H_S H_S C_TeTeTeTe H_S H_S C_TrTrTrPi O_Tr2Tr2TrPi N_TrTrTrPi2 H_S C_TeTeTeTe H_S H_S C_TeTeTeTe H_S H_S S_Te2Te2TeTe C_TrTrTrPi O_Tr2Tr2TrPi C_TeTeTeTe H_S H_S H_S
M  BCL BND AromaticSingleBond AromaticDoubleBond NonConjugatedSingleBond AromaticDoubleBond AromaticSingleBond AromaticDoubleBond AromaticSingleBond AromaticSingleBond AromaticSingleBond ConjugatedSingleBond NonConjugatedSingleBond NonConjugatedSingleBond AromaticDoubleBond NonConjugatedSingleBond AromaticSingleBond NonConjugatedSingleBond NonConjugatedSingleBond NonConjugatedSingleBondInRing NonConjugatedSingleBondInRing NonConjugatedSingleBond NonConjugatedSingleBond NonConjugatedSingleBondInRing NonConjugatedSingleBond NonConjugatedSingleBond NonConjugatedSingleBond NonConjugatedSingleBondInRing ConjugatedSingleBond ConjugatedSingleBond ConjugatedDoubleBond ConjugatedSingleBond NonConjugatedSingleBond NonConjugatedSingleBondInRing NonConjugatedSingleBond NonConjugatedSingleBond NonConjugatedSingleBond NonConjugatedSingleBond ConjugatedSingleBond ConjugatedSingleBond ConjugatedDoubleBond ConjugatedSingleBond ConjugatedSingleBond ConjugatedDoubleBond ConjugatedSingleBond ConjugatedSingleBond NonConjugatedSingleBond NonConjugatedSingleBond NonConjugatedSingleBond NonConjugatedSingleBond NonConjugatedSingleBond NonConjugatedSingleBond NonConjugatedSingleBond NonConjugatedSingleBond NonConjugatedSingleBond NonConjugatedSingleBond NonConjugatedSingleBond NonConjugatedSingleBond NonConjugatedSingleBond NonConjugatedSingleBond NonConjugatedSingleBond NonConjugatedSingleBond NonConjugatedSingleBond ConjugatedDoubleBond AmideSingleBond NonConjugatedSingleBond NonConjugatedSingleBond NonConjugatedSingleBond NonConjugatedSingleBond NonConjugatedSingleBond NonConjugatedSingleBond NonConjugatedSingleBond NonConjugatedSingleBond ConjugatedDoubleBond AmideSingleBond NonConjugatedSingleBond NonConjugatedSingleBond NonConjugatedSingleBond NonConjugatedSingleBond NonConjugatedSingleBond NonConjugatedSingleBond NonConjugatedSingleBond NonConjugatedSingleBond ConjugatedSingleBond ConjugatedDoubleBond NonConjugatedSingleBond NonConjugatedSingleBond NonConjugatedSingleBond NonConjugatedSingleBond
M  BCL CHI  15   S  17   S  21   S  24   S  28   R  35   R  39   R  55   S
M  BCL DBI - - - - - - - - - -
M  END
> <ConfClashScore>
0 

> <ConfOneFourInteractionScore>
-0.977071 

> <ConfScore>
0.0418441 

> <ConfScorePBest>
0.00912449 

> <ConfTolerance>
2.62792 

$$$$
ACO.****
  PyMOL2.5          3D                             0

 85 87  0  0  0  0  0  0  0  0999 V2000
    4.8721    1.0629  -10.6463 N   0  0  0  1  0  0  0  0  0  0  0  0
    3.8379    1.9091  -10.5182 C   0  0  0  1  0  0  0  0  0  0  0  0
    3.8144    2.6967  -11.1970 H   0  0  0  1  0  0  0  0  0  0  0  0
    2.8411    1.8764   -9.6423 N   0  0  0  1  0  0  0  0  0  0  0  0
    2.9517    0.8324   -8.8195 C   0  0  0  1  0  0  0  0  0  0  0  0
    3.9677   -0.1328   -8.8233 C   0  0  0  1  0  0  0  0  0  0  0  0
    4.9511    0.0357   -9.7935 C   0  0  0  1  0  0  0  0  0  0  0  0
    6.0880   -0.7668   -9.8898 N   0  0  0  1  0  0  0  0  0  0  0  0
    6.2873   -1.4204   -9.1873 H   0  0  0  1  0  0  0  0  0  0  0  0
    6.6874   -0.6769  -10.6599 H   0  0  0  1  0  0  0  0  0  0  0  0
    3.7552   -1.0577   -7.8129 N   0  0  0  1  0  0  0  0  0  0  0  0
    2.6536   -0.6450   -7.2473 C   0  0  0  1  0  0  0  0  0  0  0  0
    2.2183   -1.1404   -6.4431 H   0  0  0  1  0  0  0  0  0  0  0  0
    2.1174    0.4825   -7.7894 N   0  0  0  1  0  0  0  0  0  0  0  0
    0.9095    1.2182   -7.4041 C   0  0  0  1  0  0  0  0  0  0  0  0
    0.2360    1.2589   -8.2345 H   0  0  0  1  0  0  0  0  0  0  0  0
    0.2336    0.5428   -6.2003 C   0  0  0  1  0  0  0  0  0  0  0  0
    0.9580    0.0999   -5.5492 H   0  0  0  1  0  0  0  0  0  0  0  0
   -0.6990   -0.4534   -6.6246 O   0  0  0  1  0  0  0  0  0  0  0  0
   -0.3450   -0.9207   -7.3848 H   0  0  0  1  0  0  0  0  0  0  0  0
   -0.4744    1.7033   -5.5236 C   0  0  0  1  0  0  0  0  0  0  0  0
   -0.5462    1.5478   -4.4674 H   0  0  0  1  0  0  0  0  0  0  0  0
   -1.7955    1.8983   -6.0731 O   0  0  0  1  0  0  0  0  0  0  0  0
   -2.9516    2.6912   -5.2220 P   0  0  0  1  0  0  0  0  0  0  0  0
   -2.2272    4.0812   -4.7395 O   0  0  0  0  0  0  0  0  0  0  0  0
   -4.2539    2.8576   -5.9051 O   0  0  0  1  0  0  0  0  0  0  0  0
   -2.8708    1.8122   -3.8635 O   0  5  0  1  0  0  0  0  0  0  0  0
    0.4477    2.9044   -5.8489 C   0  0  0  1  0  0  0  0  0  0  0  0
   -0.1385    3.7668   -6.0889 H   0  0  0  1  0  0  0  0  0  0  0  0
    1.2406    2.5100   -6.9828 O   0  0  0  1  0  0  0  0  0  0  0  0
    1.3189    3.2060   -4.6967 C   0  0  0  1  0  0  0  0  0  0  0  0
    1.9381    4.0458   -4.9336 H   0  0  0  1  0  0  0  0  0  0  0  0
    1.9343    2.3559   -4.4883 H   0  0  0  1  0  0  0  0  0  0  0  0
    0.5226    3.5156   -3.5288 O   0  0  0  1  0  0  0  0  0  0  0  0
    0.3485    2.5268   -2.3215 P   0  0  0  1  0  0  0  0  0  0  0  0
    1.6988    1.8243   -2.2031 O   0  0  0  0  0  0  0  0  0  0  0  0
   -0.8049    1.5960   -2.4843 O   0  0  0  1  0  0  0  0  0  0  0  0
    0.0759    3.3982   -0.9861 O   0  0  0  1  0  0  0  0  0  0  0  0
   -0.1965    2.7672    0.5029 P   0  0  0  1  0  0  0  0  0  0  0  0
    0.4500    1.4476    0.6797 O   0  0  0  1  0  0  0  0  0  0  0  0
    0.3983    3.9410    1.4477 O   0  5  0  1  0  0  0  0  0  0  0  0
   -1.7415    2.7315    0.7995 O   0  0  0  1  0  0  0  0  0  0  0  0
   -2.8748    3.6122    2.6587 C   0  0  0  1  0  0  0  0  0  0  0  0
   -2.2362    2.3678    2.1066 C   0  0  0  1  0  0  0  0  0  0  0  0
   -1.4307    2.0510    2.7357 H   0  0  0  1  0  0  0  0  0  0  0  0
   -2.9578    1.5817    2.0272 H   0  0  0  1  0  0  0  0  0  0  0  0
   -3.8786    4.1438    1.6319 C   0  0  0  1  0  0  0  0  0  0  0  0
   -3.3515    4.5437    0.7910 H   0  0  0  1  0  0  0  0  0  0  0  0
   -4.4723    4.9134    2.0793 H   0  0  0  1  0  0  0  0  0  0  0  0
   -4.5135    3.3458    1.3079 H   0  0  0  1  0  0  0  0  0  0  0  0
   -1.7896    4.6574    2.8974 C   0  0  0  1  0  0  0  0  0  0  0  0
   -1.2975    4.8788    1.9734 H   0  0  0  1  0  0  0  0  0  0  0  0
   -1.0766    4.2771    3.5987 H   0  0  0  1  0  0  0  0  0  0  0  0
   -2.2335    5.5494    3.2875 H   0  0  0  1  0  0  0  0  0  0  0  0
   -3.5778    3.1961    3.9652 C   0  0  0  1  0  0  0  0  0  0  0  0
   -4.3860    2.5412    3.7145 H   0  0  0  1  0  0  0  0  0  0  0  0
   -2.6130    2.4926    4.7386 O   0  0  0  1  0  0  0  0  0  0  0  0
   -1.8047    3.0080    4.7885 H   0  0  0  1  0  0  0  0  0  0  0  0
   -4.1490    4.4098    4.6826 C   0  0  0  1  0  0  0  0  0  0  0  0
   -3.5830    4.8932    5.6618 O   0  0  0  1  0  0  0  0  0  0  0  0
   -5.2416    4.9654    4.1352 N   0  0  0  1  0  0  0  0  0  0  0  0
   -5.6080    4.5778    3.3131 H   0  0  0  1  0  0  0  0  0  0  0  0
   -5.9010    6.1234    4.7203 C   0  0  0  1  0  0  0  0  0  0  0  0
   -5.3461    7.0056    4.4779 H   0  0  0  1  0  0  0  0  0  0  0  0
   -5.9409    6.0074    5.7832 H   0  0  0  1  0  0  0  0  0  0  0  0
   -7.3172    6.2550    4.1755 C   0  0  0  1  0  0  0  0  0  0  0  0
   -7.8403    5.3404    4.3624 H   0  0  0  1  0  0  0  0  0  0  0  0
   -7.2619    6.4257    3.1207 H   0  0  0  1  0  0  0  0  0  0  0  0
   -8.0881    7.3849    4.8040 C   0  0  0  1  0  0  0  0  0  0  0  0
   -7.5869    8.2391    5.5164 O   0  0  0  1  0  0  0  0  0  0  0  0
   -9.3974    7.4166    4.5399 N   0  0  0  1  0  0  0  0  0  0  0  0
   -9.7865    6.7044    3.9905 H   0  0  0  1  0  0  0  0  0  0  0  0
  -10.2659    8.4719    5.0398 C   0  0  0  1  0  0  0  0  0  0  0  0
  -10.0598    9.3636    4.4854 H   0  0  0  1  0  0  0  0  0  0  0  0
  -10.0355    8.6320    6.0723 H   0  0  0  1  0  0  0  0  0  0  0  0
  -11.7410    8.1796    4.9276 C   0  0  0  1  0  0  0  0  0  0  0  0
  -11.9843    7.3242    5.5225 H   0  0  0  1  0  0  0  0  0  0  0  0
  -11.9928    7.9873    3.9056 H   0  0  0  1  0  0  0  0  0  0  0  0
  -12.6659    9.6159    5.5215 S   0  0  0  1  0  0  0  0  0  0  0  0
  -12.7770    9.3023    7.2314 C   0  0  0  1  0  0  0  0  0  0  0  0
  -12.2834    8.3228    7.7763 O   0  0  0  1  0  0  0  0  0  0  0  0
  -13.4255   10.4223    8.0451 C   0  0  0  1  0  0  0  0  0  0  0  0
  -13.6925   11.2283    7.3940 H   0  0  0  1  0  0  0  0  0  0  0  0
  -12.7340   10.7737    8.7822 H   0  0  0  1  0  0  0  0  0  0  0  0
  -14.3039   10.0489    8.5287 H   0  0  0  1  0  0  0  0  0  0  0  0
  1  2  1  0  0  0  0
  1  7  2  0  0  0  0
  2  3  1  0  0  0  0
  2  4  2  0  0  0  0
  4  5  1  0  0  0  0
  5  6  2  0  0  0  0
  5 14  1  0  0  0  0
  6  7  1  0  0  0  0
  6 11  1  0  0  0  0
  7  8  1  0  0  0  0
  8  9  1  0  0  0  0
  8 10  1  0  0  0  0
 11 12  2  0  0  0  0
 12 13  1  0  0  0  0
 12 14  1  0  0  0  0
 14 15  1  0  0  0  0
 15 16  1  0  0  0  0
 15 17  1  0  0  0  0
 15 30  1  0  0  0  0
 17 18  1  0  0  0  0
 17 19  1  0  0  0  0
 17 21  1  0  0  0  0
 19 20  1  0  0  0  0
 21 22  1  0  0  0  0
 21 23  1  0  0  0  0
 21 28  1  0  0  0  0
 23 24  1  0  0  0  0
 24 25  1  0  0  0  0
 24 26  2  0  0  0  0
 24 27  1  0  0  0  0
 28 29  1  0  0  0  0
 28 30  1  0  0  0  0
 28 31  1  0  0  0  0
 31 32  1  0  0  0  0
 31 33  1  0  0  0  0
 31 34  1  0  0  0  0
 34 35  1  0  0  0  0
 35 36  1  0  0  0  0
 35 37  2  0  0  0  0
 35 38  1  0  0  0  0
 38 39  1  0  0  0  0
 39 40  2  0  0  0  0
 39 41  1  0  0  0  0
 39 42  1  0  0  0  0
 42 44  1  0  0  0  0
 43 44  1  0  0  0  0
 43 47  1  0  0  0  0
 43 51  1  0  0  0  0
 43 55  1  0  0  0  0
 44 45  1  0  0  0  0
 44 46  1  0  0  0  0
 47 48  1  0  0  0  0
 47 49  1  0  0  0  0
 47 50  1  0  0  0  0
 51 52  1  0  0  0  0
 51 53  1  0  0  0  0
 51 54  1  0  0  0  0
 55 56  1  0  0  0  0
 55 57  1  0  0  0  0
 55 59  1  0  0  0  0
 57 58  1  0  0  0  0
 59 60  2  0  0  0  0
 59 61  1  0  0  0  0
 61 62  1  0  0  0  0
 61 63  1  0  0  0  0
 63 64  1  0  0  0  0
 63 65  1  0  0  0  0
 63 66  1  0  0  0  0
 66 67  1  0  0  0  0
 66 68  1  0  0  0  0
 66 69  1  0  0  0  0
 69 70  2  0  0  0  0
 69 71  1  0  0  0  0
 71 72  1  0  0  0  0
 71 73  1  0  0  0  0
 73 74  1  0  0  0  0
 73 75  1  0  0  0  0
 73 76  1  0  0  0  0
 76 77  1  0  0  0  0
 76 78  1  0  0  0  0
 76 79  1  0  0  0  0
 79 80  1  0  0  0  0
 80 81  2  0  0  0  0
 80 82  1  0  0  0  0
 82 83  1  0  0  0  0
 82 84  1  0  0  0  0
 82 85  1  0  0  0  0
M  BCL ATM N_Tr2TrTrPi C_TrTrTrPi H_S N_Tr2TrTrPi C_TrTrTrPi C_TrTrTrPi C_TrTrTrPi N_TrTrTrPi2 H_S H_S N_Tr2TrTrPi C_TrTrTrPi H_S N_TrTrTrPi2 C_TeTeTeTe H_S C_TeTeTeTe H_S O_Te2Te2TeTe H_S C_TeTeTeTe H_S O_Tr2TrTrPi2 P_TeTeTeTePi O_Te2Te2TeTe O_Tr2Tr2TrPi O_Te2Te2Te2Te C_TeTeTeTe H_S O_Te2Te2TeTe C_TeTeTeTe H_S H_S O_Tr2TrTrPi2 P_TeTeTeTePi O_Te2Te2TeTe O_Tr2Tr2TrPi O_Tr2TrTrPi2 P_TeTeTeTePi O_Tr2Tr2TrPi O_Te2Te2Te2Te O_Tr2TrTrPi2 C_TeTeTeTe C_TeTeTeTe H_S H_S C_TeTeTeTe H_S H_S H_S C_TeTeTeTe H_S H_S H_S C_TeTeTeTe H_S O_Te2Te2TeTe H_S C_TrTrTrPi O_Tr2Tr2TrPi N_TrTrTrPi2 H_S C_TeTeTeTe H_S H_S C_TeTeTeTe H_S H_S C_TrTrTrPi O_Tr2Tr2TrPi N_TrTrTrPi2 H_S C_TeTeTeTe H_S H_S C_TeTeTeTe H_S H_S S_Te2Te2TeTe C_TrTrTrPi O_Tr2Tr2TrPi C_TeTeTeTe H_S H_S H_S
M  BCL BND AromaticSingleBond AromaticDoubleBond NonConjugatedSingleBond AromaticDoubleBond AromaticSingleBond AromaticDoubleBond AromaticSingleBond AromaticSingleBond AromaticSingleBond ConjugatedSingleBond NonConjugatedSingleBond NonConjugatedSingleBond AromaticDoubleBond NonConjugatedSingleBond AromaticSingleBond NonConjugatedSingleBond NonConjugatedSingleBond NonConjugatedSingleBondInRing NonConjugatedSingleBondInRing NonConjugatedSingleBond NonConjugatedSingleBond NonConjugatedSingleBondInRing NonConjugatedSingleBond NonConjugatedSingleBond NonConjugatedSingleBond NonConjugatedSingleBondInRing ConjugatedSingleBond ConjugatedSingleBond ConjugatedDoubleBond ConjugatedSingleBond NonConjugatedSingleBond NonConjugatedSingleBondInRing NonConjugatedSingleBond NonConjugatedSingleBond NonConjugatedSingleBond NonConjugatedSingleBond ConjugatedSingleBond ConjugatedSingleBond ConjugatedDoubleBond ConjugatedSingleBond ConjugatedSingleBond ConjugatedDoubleBond ConjugatedSingleBond ConjugatedSingleBond NonConjugatedSingleBond NonConjugatedSingleBond NonConjugatedSingleBond NonConjugatedSingleBond NonConjugatedSingleBond NonConjugatedSingleBond NonConjugatedSingleBond NonConjugatedSingleBond NonConjugatedSingleBond NonConjugatedSingleBond NonConjugatedSingleBond NonConjugatedSingleBond NonConjugatedSingleBond NonConjugatedSingleBond NonConjugatedSingleBond NonConjugatedSingleBond NonConjugatedSingleBond ConjugatedDoubleBond AmideSingleBond NonConjugatedSingleBond NonConjugatedSingleBond NonConjugatedSingleBond NonConjugatedSingleBond NonConjugatedSingleBond NonConjugatedSingleBond NonConjugatedSingleBond NonConjugatedSingleBond ConjugatedDoubleBond AmideSingleBond NonConjugatedSingleBond NonConjugatedSingleBond NonConjugatedSingleBond NonConjugatedSingleBond NonConjugatedSingleBond NonConjugatedSingleBond NonConjugatedSingleBond NonConjugatedSingleBond ConjugatedSingleBond ConjugatedDoubleBond NonConjugatedSingleBond NonConjugatedSingleBond NonConjugatedSingleBond NonConjugatedSingleBond
M  BCL CHI  15   S  17   S  21   S  24   S  28   R  35   R  39   R  55   S
M  BCL DBI - - - - - - - - - -
M  END
> <ConfClashScore>
0 

> <ConfOneFourInteractionScore>
-0.971803 

> <ConfScore>
0.042738 

> <ConfScorePBest>
0.00902149 

> <ConfTolerance>
2.90777 

$$$$
ACO.****
  PyMOL2.5          3D                             0

 85 87  0  0  0  0  0  0  0  0999 V2000
    4.8832    1.0738  -10.6437 N   0  0  0  1  0  0  0  0  0  0  0  0
    3.8332    1.9030  -10.5337 C   0  0  0  1  0  0  0  0  0  0  0  0
    3.8001    2.6807  -11.2235 H   0  0  0  1  0  0  0  0  0  0  0  0
    2.8317    1.8645   -9.6634 N   0  0  0  1  0  0  0  0  0  0  0  0
    2.9557    0.8342   -8.8256 C   0  0  0  1  0  0  0  0  0  0  0  0
    3.9887   -0.1126   -8.8097 C   0  0  0  1  0  0  0  0  0  0  0  0
    4.9751    0.0600   -9.7763 C   0  0  0  1  0  0  0  0  0  0  0  0
    6.0602   -0.7681   -9.8931 N   0  0  0  1  0  0  0  0  0  0  0  0
    6.6865   -0.6530  -10.6379 H   0  0  0  1  0  0  0  0  0  0  0  0
    6.2100   -1.4756   -9.2317 H   0  0  0  1  0  0  0  0  0  0  0  0
    3.7863   -1.0272   -7.7879 N   0  0  0  1  0  0  0  0  0  0  0  0
    2.6740   -0.6265   -7.2349 C   0  0  0  1  0  0  0  0  0  0  0  0
    2.2425   -1.1185   -6.4265 H   0  0  0  1  0  0  0  0  0  0  0  0
    2.1212    0.4837   -7.7958 N   0  0  0  1  0  0  0  0  0  0  0  0
    0.9048    1.1556   -7.3902 C   0  0  0  1  0  0  0  0  0  0  0  0
    1.1273    2.1684   -7.1260 H   0  0  0  1  0  0  0  0  0  0  0  0
   -0.1353    1.1091   -8.5135 C   0  0  0  1  0  0  0  0  0  0  0  0
    0.3324    0.9552   -9.4635 H   0  0  0  1  0  0  0  0  0  0  0  0
   -0.9051    2.3137   -8.5499 O   0  0  0  1  0  0  0  0  0  0  0  0
   -1.2522    2.4456   -9.4352 H   0  0  0  1  0  0  0  0  0  0  0  0
   -0.9941   -0.0696   -8.1369 C   0  0  0  1  0  0  0  0  0  0  0  0
   -0.5699   -0.9852   -8.4926 H   0  0  0  1  0  0  0  0  0  0  0  0
   -2.3397    0.0757   -8.6590 O   0  0  0  1  0  0  0  0  0  0  0  0
   -2.8843   -0.8970   -9.8618 P   0  0  0  1  0  0  0  0  0  0  0  0
   -2.0231   -0.7003  -11.2436 O   0  0  0  0  0  0  0  0  0  0  0  0
   -2.9107   -2.2765   -9.3266 O   0  0  0  1  0  0  0  0  0  0  0  0
   -4.3914   -0.4039  -10.1938 O   0  5  0  1  0  0  0  0  0  0  0  0
   -0.9869   -0.0155   -6.6023 C   0  0  0  1  0  0  0  0  0  0  0  0
   -1.7442    0.6496   -6.2429 H   0  0  0  1  0  0  0  0  0  0  0  0
    0.2898    0.4649   -6.2794 O   0  0  0  1  0  0  0  0  0  0  0  0
   -1.2023   -1.3753   -6.0240 C   0  0  0  1  0  0  0  0  0  0  0  0
   -1.1507   -1.3296   -4.9562 H   0  0  0  1  0  0  0  0  0  0  0  0
   -0.4555   -2.0490   -6.3891 H   0  0  0  1  0  0  0  0  0  0  0  0
   -2.5054   -1.8215   -6.4322 O   0  0  0  1  0  0  0  0  0  0  0  0
   -3.7196   -2.1481   -5.4476 P   0  0  0  1  0  0  0  0  0  0  0  0
   -4.1691   -0.8085   -5.0075 O   0  0  0  0  0  0  0  0  0  0  0  0
   -3.3604   -3.1834   -4.4663 O   0  0  0  1  0  0  0  0  0  0  0  0
   -4.8007   -2.8739   -6.4074 O   0  0  0  1  0  0  0  0  0  0  0  0
   -6.0538   -3.7905   -5.8790 P   0  0  0  1  0  0  0  0  0  0  0  0
   -5.8084   -4.6629   -4.7089 O   0  0  0  1  0  0  0  0  0  0  0  0
   -7.2010   -2.6887   -5.5717 O   0  5  0  1  0  0  0  0  0  0  0  0
   -6.4664   -4.5311   -7.2007 O   0  0  0  1  0  0  0  0  0  0  0  0
   -8.0415   -4.8429   -8.9462 C   0  0  0  1  0  0  0  0  0  0  0  0
   -7.8165   -4.9640   -7.4749 C   0  0  0  1  0  0  0  0  0  0  0  0
   -8.5119   -4.3449   -6.9477 H   0  0  0  1  0  0  0  0  0  0  0  0
   -7.9418   -5.9819   -7.1697 H   0  0  0  1  0  0  0  0  0  0  0  0
   -7.8747   -3.3786   -9.4097 C   0  0  0  1  0  0  0  0  0  0  0  0
   -6.9039   -3.0245   -9.1321 H   0  0  0  1  0  0  0  0  0  0  0  0
   -8.6223   -2.7703   -8.9449 H   0  0  0  1  0  0  0  0  0  0  0  0
   -7.9824   -3.3269  -10.4730 H   0  0  0  1  0  0  0  0  0  0  0  0
   -9.4684   -5.3120   -9.2358 C   0  0  0  1  0  0  0  0  0  0  0  0
   -9.4567   -6.0138  -10.0434 H   0  0  0  1  0  0  0  0  0  0  0  0
  -10.0729   -4.4707   -9.5035 H   0  0  0  1  0  0  0  0  0  0  0  0
   -9.8739   -5.7798   -8.3630 H   0  0  0  1  0  0  0  0  0  0  0  0
   -7.0573   -5.7592   -9.6801 C   0  0  0  1  0  0  0  0  0  0  0  0
   -7.2068   -5.6343  -10.7323 H   0  0  0  1  0  0  0  0  0  0  0  0
   -5.7326   -5.3854   -9.3388 O   0  0  0  1  0  0  0  0  0  0  0  0
   -5.1459   -5.5776  -10.0738 H   0  0  0  1  0  0  0  0  0  0  0  0
   -7.3363   -7.2124   -9.3276 C   0  0  0  1  0  0  0  0  0  0  0  0
   -8.3228   -7.7951   -9.7757 O   0  0  0  1  0  0  0  0  0  0  0  0
   -6.4832   -7.7580   -8.4464 N   0  0  0  1  0  0  0  0  0  0  0  0
   -5.7174   -7.2289   -8.1396 H   0  0  0  1  0  0  0  0  0  0  0  0
   -6.6558   -9.1079   -7.9307 C   0  0  0  1  0  0  0  0  0  0  0  0
   -7.6976   -9.3518   -7.9217 H   0  0  0  1  0  0  0  0  0  0  0  0
   -6.2688   -9.1574   -6.9344 H   0  0  0  1  0  0  0  0  0  0  0  0
   -5.9134  -10.1068   -8.8086 C   0  0  0  1  0  0  0  0  0  0  0  0
   -6.1963  -11.0956   -8.5137 H   0  0  0  1  0  0  0  0  0  0  0  0
   -4.8620   -9.9764   -8.6586 H   0  0  0  1  0  0  0  0  0  0  0  0
   -6.2147   -9.9387  -10.2851 C   0  0  0  1  0  0  0  0  0  0  0  0
   -7.3567   -9.7814  -10.6844 O   0  0  0  1  0  0  0  0  0  0  0  0
   -5.1528   -9.9750  -11.1045 N   0  0  0  1  0  0  0  0  0  0  0  0
   -4.2579  -10.0649  -10.7153 H   0  0  0  1  0  0  0  0  0  0  0  0
   -5.2847   -9.8850  -12.5609 C   0  0  0  1  0  0  0  0  0  0  0  0
   -6.3161   -9.9814  -12.8286 H   0  0  0  1  0  0  0  0  0  0  0  0
   -4.7224  -10.6736  -13.0157 H   0  0  0  1  0  0  0  0  0  0  0  0
   -4.7652   -8.5562  -13.0512 C   0  0  0  1  0  0  0  0  0  0  0  0
   -3.6985   -8.5560  -12.9665 H   0  0  0  1  0  0  0  0  0  0  0  0
   -5.1727   -7.7831  -12.4339 H   0  0  0  1  0  0  0  0  0  0  0  0
   -5.2050   -8.2101  -14.7711 S   0  0  0  1  0  0  0  0  0  0  0  0
   -6.9746   -8.0023  -14.6745 C   0  0  0  1  0  0  0  0  0  0  0  0
   -7.4591   -8.1350  -13.5731 O   0  0  0  1  0  0  0  0  0  0  0  0
   -7.7645   -7.6876  -15.8897 C   0  0  0  1  0  0  0  0  0  0  0  0
   -7.4000   -6.7821  -16.3280 H   0  0  0  1  0  0  0  0  0  0  0  0
   -8.7938   -7.5660  -15.6241 H   0  0  0  1  0  0  0  0  0  0  0  0
   -7.6694   -8.4878  -16.5937 H   0  0  0  1  0  0  0  0  0  0  0  0
  1  2  1  0  0  0  0
  1  7  2  0  0  0  0
  2  3  1  0  0  0  0
  2  4  2  0  0  0  0
  4  5  1  0  0  0  0
  5  6  2  0  0  0  0
  5 14  1  0  0  0  0
  6  7  1  0  0  0  0
  6 11  1  0  0  0  0
  7  8  1  0  0  0  0
  8  9  1  0  0  0  0
  8 10  1  0  0  0  0
 11 12  2  0  0  0  0
 12 13  1  0  0  0  0
 12 14  1  0  0  0  0
 14 15  1  0  0  0  0
 15 16  1  0  0  0  0
 15 17  1  0  0  0  0
 15 30  1  0  0  0  0
 17 18  1  0  0  0  0
 17 19  1  0  0  0  0
 17 21  1  0  0  0  0
 19 20  1  0  0  0  0
 21 22  1  0  0  0  0
 21 23  1  0  0  0  0
 21 28  1  0  0  0  0
 23 24  1  0  0  0  0
 24 25  1  0  0  0  0
 24 26  2  0  0  0  0
 24 27  1  0  0  0  0
 28 29  1  0  0  0  0
 28 30  1  0  0  0  0
 28 31  1  0  0  0  0
 31 32  1  0  0  0  0
 31 33  1  0  0  0  0
 31 34  1  0  0  0  0
 34 35  1  0  0  0  0
 35 36  1  0  0  0  0
 35 37  2  0  0  0  0
 35 38  1  0  0  0  0
 38 39  1  0  0  0  0
 39 40  2  0  0  0  0
 39 41  1  0  0  0  0
 39 42  1  0  0  0  0
 42 44  1  0  0  0  0
 43 44  1  0  0  0  0
 43 47  1  0  0  0  0
 43 51  1  0  0  0  0
 43 55  1  0  0  0  0
 44 45  1  0  0  0  0
 44 46  1  0  0  0  0
 47 48  1  0  0  0  0
 47 49  1  0  0  0  0
 47 50  1  0  0  0  0
 51 52  1  0  0  0  0
 51 53  1  0  0  0  0
 51 54  1  0  0  0  0
 55 56  1  0  0  0  0
 55 57  1  0  0  0  0
 55 59  1  0  0  0  0
 57 58  1  0  0  0  0
 59 60  2  0  0  0  0
 59 61  1  0  0  0  0
 61 62  1  0  0  0  0
 61 63  1  0  0  0  0
 63 64  1  0  0  0  0
 63 65  1  0  0  0  0
 63 66  1  0  0  0  0
 66 67  1  0  0  0  0
 66 68  1  0  0  0  0
 66 69  1  0  0  0  0
 69 70  2  0  0  0  0
 69 71  1  0  0  0  0
 71 72  1  0  0  0  0
 71 73  1  0  0  0  0
 73 74  1  0  0  0  0
 73 75  1  0  0  0  0
 73 76  1  0  0  0  0
 76 77  1  0  0  0  0
 76 78  1  0  0  0  0
 76 79  1  0  0  0  0
 79 80  1  0  0  0  0
 80 81  2  0  0  0  0
 80 82  1  0  0  0  0
 82 83  1  0  0  0  0
 82 84  1  0  0  0  0
 82 85  1  0  0  0  0
M  BCL ATM N_Tr2TrTrPi C_TrTrTrPi H_S N_Tr2TrTrPi C_TrTrTrPi C_TrTrTrPi C_TrTrTrPi N_TrTrTrPi2 H_S H_S N_Tr2TrTrPi C_TrTrTrPi H_S N_TrTrTrPi2 C_TeTeTeTe H_S C_TeTeTeTe H_S O_Te2Te2TeTe H_S C_TeTeTeTe H_S O_Tr2TrTrPi2 P_TeTeTeTePi O_Te2Te2TeTe O_Tr2Tr2TrPi O_Te2Te2Te2Te C_TeTeTeTe H_S O_Te2Te2TeTe C_TeTeTeTe H_S H_S O_Tr2TrTrPi2 P_TeTeTeTePi O_Te2Te2TeTe O_Tr2Tr2TrPi O_Tr2TrTrPi2 P_TeTeTeTePi O_Tr2Tr2TrPi O_Te2Te2Te2Te O_Tr2TrTrPi2 C_TeTeTeTe C_TeTeTeTe H_S H_S C_TeTeTeTe H_S H_S H_S C_TeTeTeTe H_S H_S H_S C_TeTeTeTe H_S O_Te2Te2TeTe H_S C_TrTrTrPi O_Tr2Tr2TrPi N_TrTrTrPi2 H_S C_TeTeTeTe H_S H_S C_TeTeTeTe H_S H_S C_TrTrTrPi O_Tr2Tr2TrPi N_TrTrTrPi2 H_S C_TeTeTeTe H_S H_S C_TeTeTeTe H_S H_S S_Te2Te2TeTe C_TrTrTrPi O_Tr2Tr2TrPi C_TeTeTeTe H_S H_S H_S
M  BCL BND AromaticSingleBond AromaticDoubleBond NonConjugatedSingleBond AromaticDoubleBond AromaticSingleBond AromaticDoubleBond AromaticSingleBond AromaticSingleBond AromaticSingleBond ConjugatedSingleBond NonConjugatedSingleBond NonConjugatedSingleBond AromaticDoubleBond NonConjugatedSingleBond AromaticSingleBond NonConjugatedSingleBond NonConjugatedSingleBond NonConjugatedSingleBondInRing NonConjugatedSingleBondInRing NonConjugatedSingleBond NonConjugatedSingleBond NonConjugatedSingleBondInRing NonConjugatedSingleBond NonConjugatedSingleBond NonConjugatedSingleBond NonConjugatedSingleBondInRing ConjugatedSingleBond ConjugatedSingleBond ConjugatedDoubleBond ConjugatedSingleBond NonConjugatedSingleBond NonConjugatedSingleBondInRing NonConjugatedSingleBond NonConjugatedSingleBond NonConjugatedSingleBond NonConjugatedSingleBond ConjugatedSingleBond ConjugatedSingleBond ConjugatedDoubleBond ConjugatedSingleBond ConjugatedSingleBond ConjugatedDoubleBond ConjugatedSingleBond ConjugatedSingleBond NonConjugatedSingleBond NonConjugatedSingleBond NonConjugatedSingleBond NonConjugatedSingleBond NonConjugatedSingleBond NonConjugatedSingleBond NonConjugatedSingleBond NonConjugatedSingleBond NonConjugatedSingleBond NonConjugatedSingleBond NonConjugatedSingleBond NonConjugatedSingleBond NonConjugatedSingleBond NonConjugatedSingleBond NonConjugatedSingleBond NonConjugatedSingleBond NonConjugatedSingleBond ConjugatedDoubleBond AmideSingleBond NonConjugatedSingleBond NonConjugatedSingleBond NonConjugatedSingleBond NonConjugatedSingleBond NonConjugatedSingleBond NonConjugatedSingleBond NonConjugatedSingleBond NonConjugatedSingleBond ConjugatedDoubleBond AmideSingleBond NonConjugatedSingleBond NonConjugatedSingleBond NonConjugatedSingleBond NonConjugatedSingleBond NonConjugatedSingleBond NonConjugatedSingleBond NonConjugatedSingleBond NonConjugatedSingleBond ConjugatedSingleBond ConjugatedDoubleBond NonConjugatedSingleBond NonConjugatedSingleBond NonConjugatedSingleBond NonConjugatedSingleBond
M  BCL CHI  15   S  17   S  21   S  24   S  28   R  35   R  39   R  55   S
M  BCL DBI - - - - - - - - - -
M  END
> <ConfClashScore>
0 

> <ConfOneFourInteractionScore>
-0.980359 

> <ConfScore>
0.0436103 

> <ConfScorePBest>
0.00891849 

> <ConfTolerance>
2.61477 

$$$$
ACO.****
  PyMOL2.5          3D                             0

 85 87  0  0  0  0  0  0  0  0999 V2000
    4.8919    1.0760  -10.6379 N   0  0  0  1  0  0  0  0  0  0  0  0
    3.8434    1.9071  -10.5285 C   0  0  0  1  0  0  0  0  0  0  0  0
    3.8141    2.6872  -11.2157 H   0  0  0  1  0  0  0  0  0  0  0  0
    2.8389    1.8677   -9.6617 N   0  0  0  1  0  0  0  0  0  0  0  0
    2.9579    0.8341   -8.8271 C   0  0  0  1  0  0  0  0  0  0  0  0
    3.9888   -0.1149   -8.8111 C   0  0  0  1  0  0  0  0  0  0  0  0
    4.9788    0.0590   -9.7738 C   0  0  0  1  0  0  0  0  0  0  0  0
    6.0581   -0.7677   -9.8894 N   0  0  0  1  0  0  0  0  0  0  0  0
    6.1863   -1.4986   -9.2493 H   0  0  0  1  0  0  0  0  0  0  0  0
    6.7051   -0.6306  -10.6126 H   0  0  0  1  0  0  0  0  0  0  0  0
    3.7811   -1.0327   -7.7932 N   0  0  0  1  0  0  0  0  0  0  0  0
    2.6678   -0.6316   -7.2424 C   0  0  0  1  0  0  0  0  0  0  0  0
    2.2326   -1.1254   -6.4372 H   0  0  0  1  0  0  0  0  0  0  0  0
    2.1192    0.4818   -7.8013 N   0  0  0  1  0  0  0  0  0  0  0  0
    0.8889    1.1627   -7.3927 C   0  0  0  1  0  0  0  0  0  0  0  0
    0.7360    2.0243   -8.0085 H   0  0  0  1  0  0  0  0  0  0  0  0
   -0.3262    0.2043   -7.4702 C   0  0  0  1  0  0  0  0  0  0  0  0
   -0.0589   -0.7869   -7.1684 H   0  0  0  1  0  0  0  0  0  0  0  0
   -0.8764    0.1695   -8.7897 O   0  0  0  1  0  0  0  0  0  0  0  0
   -0.2882   -0.3200   -9.3694 H   0  0  0  1  0  0  0  0  0  0  0  0
   -1.3145    0.8519   -6.4648 C   0  0  0  1  0  0  0  0  0  0  0  0
   -1.8186    0.1024   -5.8912 H   0  0  0  1  0  0  0  0  0  0  0  0
   -2.2873    1.6666   -7.1543 O   0  0  0  1  0  0  0  0  0  0  0  0
   -3.8552    1.1858   -7.1560 P   0  0  0  1  0  0  0  0  0  0  0  0
   -4.2008    0.1760   -8.4011 O   0  0  0  0  0  0  0  0  0  0  0  0
   -4.1960    0.5544   -5.8616 O   0  0  0  1  0  0  0  0  0  0  0  0
   -4.6016    2.6079   -7.3678 O   0  5  0  1  0  0  0  0  0  0  0  0
   -0.4151    1.7191   -5.5624 C   0  0  0  1  0  0  0  0  0  0  0  0
   -0.6880    2.7494   -5.6562 H   0  0  0  1  0  0  0  0  0  0  0  0
    0.9411    1.5288   -5.9975 O   0  0  0  1  0  0  0  0  0  0  0  0
   -0.5586    1.2929   -4.1384 C   0  0  0  1  0  0  0  0  0  0  0  0
   -1.5703    1.4287   -3.8176 H   0  0  0  1  0  0  0  0  0  0  0  0
    0.0936    1.8710   -3.5176 H   0  0  0  1  0  0  0  0  0  0  0  0
   -0.1998   -0.1100   -4.0603 O   0  0  0  1  0  0  0  0  0  0  0  0
   -0.1651   -0.9276   -2.6889 P   0  0  0  1  0  0  0  0  0  0  0  0
    0.6417   -0.0631   -1.7990 O   0  0  0  0  0  0  0  0  0  0  0  0
    0.1989   -2.3364   -2.9049 O   0  0  0  1  0  0  0  0  0  0  0  0
   -1.7192   -0.9866   -2.2438 O   0  0  0  1  0  0  0  0  0  0  0  0
   -2.8835   -1.8392   -3.0229 P   0  0  0  1  0  0  0  0  0  0  0  0
   -3.9961   -0.9710   -3.4686 O   0  0  0  1  0  0  0  0  0  0  0  0
   -2.1681   -2.5617   -4.2842 O   0  5  0  1  0  0  0  0  0  0  0  0
   -3.3336   -3.0280   -2.0953 O   0  0  0  1  0  0  0  0  0  0  0  0
   -3.3500   -5.2671   -1.3137 C   0  0  0  1  0  0  0  0  0  0  0  0
   -2.5142   -4.2087   -1.9550 C   0  0  0  1  0  0  0  0  0  0  0  0
   -1.6655   -3.9924   -1.3403 H   0  0  0  1  0  0  0  0  0  0  0  0
   -2.1832   -4.5391   -2.9174 H   0  0  0  1  0  0  0  0  0  0  0  0
   -2.5488   -6.5540   -1.0088 C   0  0  0  1  0  0  0  0  0  0  0  0
   -3.1289   -7.1948   -0.3780 H   0  0  0  1  0  0  0  0  0  0  0  0
   -1.6363   -6.2966   -0.5128 H   0  0  0  1  0  0  0  0  0  0  0  0
   -2.3269   -7.0611   -1.9245 H   0  0  0  1  0  0  0  0  0  0  0  0
   -4.4875   -5.6524   -2.2626 C   0  0  0  1  0  0  0  0  0  0  0  0
   -5.4242   -5.3662   -1.8320 H   0  0  0  1  0  0  0  0  0  0  0  0
   -4.4765   -6.7106   -2.4210 H   0  0  0  1  0  0  0  0  0  0  0  0
   -4.3568   -5.1498   -3.1982 H   0  0  0  1  0  0  0  0  0  0  0  0
   -3.9659   -4.6927   -0.0338 C   0  0  0  1  0  0  0  0  0  0  0  0
   -4.4300   -5.5050    0.4856 H   0  0  0  1  0  0  0  0  0  0  0  0
   -2.9091   -4.1810    0.7789 O   0  0  0  1  0  0  0  0  0  0  0  0
   -2.0708   -4.5379    0.4766 H   0  0  0  1  0  0  0  0  0  0  0  0
   -5.0388   -3.6208   -0.2636 C   0  0  0  1  0  0  0  0  0  0  0  0
   -6.1879   -3.9550   -0.5472 O   0  0  0  1  0  0  0  0  0  0  0  0
   -4.6764   -2.3519   -0.0554 N   0  0  0  1  0  0  0  0  0  0  0  0
   -3.7335   -2.1773    0.1470 H   0  0  0  1  0  0  0  0  0  0  0  0
   -5.5762   -1.2093   -0.1066 C   0  0  0  1  0  0  0  0  0  0  0  0
   -6.4473   -1.4708   -0.6702 H   0  0  0  1  0  0  0  0  0  0  0  0
   -5.0782   -0.3885   -0.5790 H   0  0  0  1  0  0  0  0  0  0  0  0
   -5.9920   -0.8020    1.3009 C   0  0  0  1  0  0  0  0  0  0  0  0
   -6.5921   -1.5834    1.7183 H   0  0  0  1  0  0  0  0  0  0  0  0
   -6.5688    0.0971    1.2389 H   0  0  0  1  0  0  0  0  0  0  0  0
   -4.8066   -0.5547    2.2252 C   0  0  0  1  0  0  0  0  0  0  0  0
   -3.8078    0.0541    1.8442 O   0  0  0  1  0  0  0  0  0  0  0  0
   -4.9689   -1.0555    3.4509 N   0  0  0  1  0  0  0  0  0  0  0  0
   -5.8253   -1.4863    3.6546 H   0  0  0  1  0  0  0  0  0  0  0  0
   -3.9634   -1.0100    4.5154 C   0  0  0  1  0  0  0  0  0  0  0  0
   -3.2881   -0.2045    4.3150 H   0  0  0  1  0  0  0  0  0  0  0  0
   -3.4253   -1.9348    4.5186 H   0  0  0  1  0  0  0  0  0  0  0  0
   -4.5737   -0.8011    5.8792 C   0  0  0  1  0  0  0  0  0  0  0  0
   -5.3251   -1.5450    6.0434 H   0  0  0  1  0  0  0  0  0  0  0  0
   -5.0191    0.1710    5.9176 H   0  0  0  1  0  0  0  0  0  0  0  0
   -3.3266   -0.9286    7.1739 S   0  0  0  1  0  0  0  0  0  0  0  0
   -2.6615    0.7194    7.2201 C   0  0  0  1  0  0  0  0  0  0  0  0
   -3.0562    1.6166    6.5174 O   0  0  0  1  0  0  0  0  0  0  0  0
   -1.5521    0.8613    8.2362 C   0  0  0  1  0  0  0  0  0  0  0  0
   -1.9283    1.3515    9.1098 H   0  0  0  1  0  0  0  0  0  0  0  0
   -0.7567    1.4413    7.8168 H   0  0  0  1  0  0  0  0  0  0  0  0
   -1.1856   -0.1083    8.5015 H   0  0  0  1  0  0  0  0  0  0  0  0
  1  2  1  0  0  0  0
  1  7  2  0  0  0  0
  2  3  1  0  0  0  0
  2  4  2  0  0  0  0
  4  5  1  0  0  0  0
  5  6  2  0  0  0  0
  5 14  1  0  0  0  0
  6  7  1  0  0  0  0
  6 11  1  0  0  0  0
  7  8  1  0  0  0  0
  8  9  1  0  0  0  0
  8 10  1  0  0  0  0
 11 12  2  0  0  0  0
 12 13  1  0  0  0  0
 12 14  1  0  0  0  0
 14 15  1  0  0  0  0
 15 16  1  0  0  0  0
 15 17  1  0  0  0  0
 15 30  1  0  0  0  0
 17 18  1  0  0  0  0
 17 19  1  0  0  0  0
 17 21  1  0  0  0  0
 19 20  1  0  0  0  0
 21 22  1  0  0  0  0
 21 23  1  0  0  0  0
 21 28  1  0  0  0  0
 23 24  1  0  0  0  0
 24 25  1  0  0  0  0
 24 26  2  0  0  0  0
 24 27  1  0  0  0  0
 28 29  1  0  0  0  0
 28 30  1  0  0  0  0
 28 31  1  0  0  0  0
 31 32  1  0  0  0  0
 31 33  1  0  0  0  0
 31 34  1  0  0  0  0
 34 35  1  0  0  0  0
 35 36  1  0  0  0  0
 35 37  2  0  0  0  0
 35 38  1  0  0  0  0
 38 39  1  0  0  0  0
 39 40  2  0  0  0  0
 39 41  1  0  0  0  0
 39 42  1  0  0  0  0
 42 44  1  0  0  0  0
 43 44  1  0  0  0  0
 43 47  1  0  0  0  0
 43 51  1  0  0  0  0
 43 55  1  0  0  0  0
 44 45  1  0  0  0  0
 44 46  1  0  0  0  0
 47 48  1  0  0  0  0
 47 49  1  0  0  0  0
 47 50  1  0  0  0  0
 51 52  1  0  0  0  0
 51 53  1  0  0  0  0
 51 54  1  0  0  0  0
 55 56  1  0  0  0  0
 55 57  1  0  0  0  0
 55 59  1  0  0  0  0
 57 58  1  0  0  0  0
 59 60  2  0  0  0  0
 59 61  1  0  0  0  0
 61 62  1  0  0  0  0
 61 63  1  0  0  0  0
 63 64  1  0  0  0  0
 63 65  1  0  0  0  0
 63 66  1  0  0  0  0
 66 67  1  0  0  0  0
 66 68  1  0  0  0  0
 66 69  1  0  0  0  0
 69 70  2  0  0  0  0
 69 71  1  0  0  0  0
 71 72  1  0  0  0  0
 71 73  1  0  0  0  0
 73 74  1  0  0  0  0
 73 75  1  0  0  0  0
 73 76  1  0  0  0  0
 76 77  1  0  0  0  0
 76 78  1  0  0  0  0
 76 79  1  0  0  0  0
 79 80  1  0  0  0  0
 80 81  2  0  0  0  0
 80 82  1  0  0  0  0
 82 83  1  0  0  0  0
 82 84  1  0  0  0  0
 82 85  1  0  0  0  0
M  BCL ATM N_Tr2TrTrPi C_TrTrTrPi H_S N_Tr2TrTrPi C_TrTrTrPi C_TrTrTrPi C_TrTrTrPi N_TrTrTrPi2 H_S H_S N_Tr2TrTrPi C_TrTrTrPi H_S N_TrTrTrPi2 C_TeTeTeTe H_S C_TeTeTeTe H_S O_Te2Te2TeTe H_S C_TeTeTeTe H_S O_Tr2TrTrPi2 P_TeTeTeTePi O_Te2Te2TeTe O_Tr2Tr2TrPi O_Te2Te2Te2Te C_TeTeTeTe H_S O_Te2Te2TeTe C_TeTeTeTe H_S H_S O_Tr2TrTrPi2 P_TeTeTeTePi O_Te2Te2TeTe O_Tr2Tr2TrPi O_Tr2TrTrPi2 P_TeTeTeTePi O_Tr2Tr2TrPi O_Te2Te2Te2Te O_Tr2TrTrPi2 C_TeTeTeTe C_TeTeTeTe H_S H_S C_TeTeTeTe H_S H_S H_S C_TeTeTeTe H_S H_S H_S C_TeTeTeTe H_S O_Te2Te2TeTe H_S C_TrTrTrPi O_Tr2Tr2TrPi N_TrTrTrPi2 H_S C_TeTeTeTe H_S H_S C_TeTeTeTe H_S H_S C_TrTrTrPi O_Tr2Tr2TrPi N_TrTrTrPi2 H_S C_TeTeTeTe H_S H_S C_TeTeTeTe H_S H_S S_Te2Te2TeTe C_TrTrTrPi O_Tr2Tr2TrPi C_TeTeTeTe H_S H_S H_S
M  BCL BND AromaticSingleBond AromaticDoubleBond NonConjugatedSingleBond AromaticDoubleBond AromaticSingleBond AromaticDoubleBond AromaticSingleBond AromaticSingleBond AromaticSingleBond ConjugatedSingleBond NonConjugatedSingleBond NonConjugatedSingleBond AromaticDoubleBond NonConjugatedSingleBond AromaticSingleBond NonConjugatedSingleBond NonConjugatedSingleBond NonConjugatedSingleBondInRing NonConjugatedSingleBondInRing NonConjugatedSingleBond NonConjugatedSingleBond NonConjugatedSingleBondInRing NonConjugatedSingleBond NonConjugatedSingleBond NonConjugatedSingleBond NonConjugatedSingleBondInRing ConjugatedSingleBond ConjugatedSingleBond ConjugatedDoubleBond ConjugatedSingleBond NonConjugatedSingleBond NonConjugatedSingleBondInRing NonConjugatedSingleBond NonConjugatedSingleBond NonConjugatedSingleBond NonConjugatedSingleBond ConjugatedSingleBond ConjugatedSingleBond ConjugatedDoubleBond ConjugatedSingleBond ConjugatedSingleBond ConjugatedDoubleBond ConjugatedSingleBond ConjugatedSingleBond NonConjugatedSingleBond NonConjugatedSingleBond NonConjugatedSingleBond NonConjugatedSingleBond NonConjugatedSingleBond NonConjugatedSingleBond NonConjugatedSingleBond NonConjugatedSingleBond NonConjugatedSingleBond NonConjugatedSingleBond NonConjugatedSingleBond NonConjugatedSingleBond NonConjugatedSingleBond NonConjugatedSingleBond NonConjugatedSingleBond NonConjugatedSingleBond NonConjugatedSingleBond ConjugatedDoubleBond AmideSingleBond NonConjugatedSingleBond NonConjugatedSingleBond NonConjugatedSingleBond NonConjugatedSingleBond NonConjugatedSingleBond NonConjugatedSingleBond NonConjugatedSingleBond NonConjugatedSingleBond ConjugatedDoubleBond AmideSingleBond NonConjugatedSingleBond NonConjugatedSingleBond NonConjugatedSingleBond NonConjugatedSingleBond NonConjugatedSingleBond NonConjugatedSingleBond NonConjugatedSingleBond NonConjugatedSingleBond ConjugatedSingleBond ConjugatedDoubleBond NonConjugatedSingleBond NonConjugatedSingleBond NonConjugatedSingleBond NonConjugatedSingleBond
M  BCL CHI  15   S  17   S  21   S  24   S  28   R  35   R  39   R  55   S
M  BCL DBI - - - - - - - - - -
M  END
> <ConfClashScore>
0 

> <ConfOneFourInteractionScore>
-0.985256 

> <ConfScore>
0.0460598 

> <ConfScorePBest>
0.00881549 

> <ConfTolerance>
2.42144 

$$$$
ACO.****
  PyMOL2.5          3D                             0

 85 87  0  0  0  0  0  0  0  0999 V2000
    4.8844    1.0770  -10.6379 N   0  0  0  1  0  0  0  0  0  0  0  0
    3.8339    1.9050  -10.5249 C   0  0  0  1  0  0  0  0  0  0  0  0
    3.8004    2.6853  -11.2116 H   0  0  0  1  0  0  0  0  0  0  0  0
    2.8322    1.8624   -9.6550 N   0  0  0  1  0  0  0  0  0  0  0  0
    2.9566    0.8288   -8.8213 C   0  0  0  1  0  0  0  0  0  0  0  0
    3.9902   -0.1173   -8.8089 C   0  0  0  1  0  0  0  0  0  0  0  0
    4.9767    0.0598   -9.7744 C   0  0  0  1  0  0  0  0  0  0  0  0
    6.0580   -0.7638   -9.8937 N   0  0  0  1  0  0  0  0  0  0  0  0
    6.7255   -0.5981  -10.5919 H   0  0  0  1  0  0  0  0  0  0  0  0
    6.1671   -1.5211   -9.2813 H   0  0  0  1  0  0  0  0  0  0  0  0
    3.7882   -1.0361   -7.7907 N   0  0  0  1  0  0  0  0  0  0  0  0
    2.6754   -0.6384   -7.2364 C   0  0  0  1  0  0  0  0  0  0  0  0
    2.2441   -1.1338   -6.4301 H   0  0  0  1  0  0  0  0  0  0  0  0
    2.1220    0.4737   -7.7931 N   0  0  0  1  0  0  0  0  0  0  0  0
    0.8983    1.1906   -7.4229 C   0  0  0  1  0  0  0  0  0  0  0  0
    1.0746    2.2450   -7.4678 H   0  0  0  1  0  0  0  0  0  0  0  0
   -0.2801    0.7867   -8.3444 C   0  0  0  1  0  0  0  0  0  0  0  0
   -0.2436   -0.2546   -8.5877 H   0  0  0  1  0  0  0  0  0  0  0  0
   -0.2857    1.5574   -9.5469 O   0  0  0  1  0  0  0  0  0  0  0  0
   -1.1846    1.8244   -9.7523 H   0  0  0  1  0  0  0  0  0  0  0  0
   -1.5112    1.1154   -7.4592 C   0  0  0  1  0  0  0  0  0  0  0  0
   -2.2647    0.3626   -7.5615 H   0  0  0  1  0  0  0  0  0  0  0  0
   -2.0650    2.4025   -7.8083 O   0  0  0  1  0  0  0  0  0  0  0  0
   -3.4357    2.5795   -8.6913 P   0  0  0  1  0  0  0  0  0  0  0  0
   -4.6298    1.7898   -7.8913 O   0  0  0  0  0  0  0  0  0  0  0  0
   -3.8088    3.9781   -8.9997 O   0  0  0  1  0  0  0  0  0  0  0  0
   -3.1597    1.7675  -10.0656 O   0  5  0  1  0  0  0  0  0  0  0  0
   -0.9464    1.1332   -6.0253 C   0  0  0  1  0  0  0  0  0  0  0  0
   -1.0638    2.1072   -5.5982 H   0  0  0  1  0  0  0  0  0  0  0  0
    0.4485    0.7985   -6.1086 O   0  0  0  1  0  0  0  0  0  0  0  0
   -1.6624    0.1297   -5.1824 C   0  0  0  1  0  0  0  0  0  0  0  0
   -2.7120    0.3376   -5.1808 H   0  0  0  1  0  0  0  0  0  0  0  0
   -1.2900    0.1638   -4.1799 H   0  0  0  1  0  0  0  0  0  0  0  0
   -1.4185   -1.1845   -5.7571 O   0  0  0  1  0  0  0  0  0  0  0  0
   -2.1317   -2.4512   -5.0988 P   0  0  0  1  0  0  0  0  0  0  0  0
   -3.6049   -2.2849   -5.0762 O   0  0  0  0  0  0  0  0  0  0  0  0
   -1.3857   -2.7936   -3.9259 O   0  0  0  1  0  0  0  0  0  0  0  0
   -1.7139   -3.5487   -6.1907 O   0  0  0  1  0  0  0  0  0  0  0  0
   -2.6310   -4.3806   -7.2661 P   0  0  0  1  0  0  0  0  0  0  0  0
   -1.8726   -5.4985   -7.8705 O   0  0  0  1  0  0  0  0  0  0  0  0
   -4.0674   -4.8141   -6.6550 O   0  5  0  1  0  0  0  0  0  0  0  0
   -2.9832   -3.2966   -8.3461 O   0  0  0  1  0  0  0  0  0  0  0  0
   -3.4665   -2.5061  -10.5069 C   0  0  0  1  0  0  0  0  0  0  0  0
   -3.8104   -3.5700   -9.5014 C   0  0  0  1  0  0  0  0  0  0  0  0
   -4.8466   -3.5155   -9.2399 H   0  0  0  1  0  0  0  0  0  0  0  0
   -3.5921   -4.5406   -9.8954 H   0  0  0  1  0  0  0  0  0  0  0  0
   -2.0316   -2.7581  -10.9782 C   0  0  0  1  0  0  0  0  0  0  0  0
   -1.3613   -2.6608  -10.1499 H   0  0  0  1  0  0  0  0  0  0  0  0
   -1.7733   -2.0436  -11.7316 H   0  0  0  1  0  0  0  0  0  0  0  0
   -1.9576   -3.7460  -11.3825 H   0  0  0  1  0  0  0  0  0  0  0  0
   -3.5614   -1.1205   -9.8393 C   0  0  0  1  0  0  0  0  0  0  0  0
   -3.4480   -1.2257   -8.7805 H   0  0  0  1  0  0  0  0  0  0  0  0
   -4.5152   -0.6859  -10.0542 H   0  0  0  1  0  0  0  0  0  0  0  0
   -2.7868   -0.4879  -10.2196 H   0  0  0  1  0  0  0  0  0  0  0  0
   -4.4117   -2.6153  -11.7059 C   0  0  0  1  0  0  0  0  0  0  0  0
   -4.3280   -3.6079  -12.0964 H   0  0  0  1  0  0  0  0  0  0  0  0
   -5.7406   -2.3886  -11.2927 O   0  0  0  1  0  0  0  0  0  0  0  0
   -5.7568   -1.6902  -10.6343 H   0  0  0  1  0  0  0  0  0  0  0  0
   -4.0414   -1.6454  -12.8178 C   0  0  0  1  0  0  0  0  0  0  0  0
   -3.2322   -1.9598  -13.6895 O   0  0  0  1  0  0  0  0  0  0  0  0
   -4.5952   -0.4267  -12.7175 N   0  0  0  1  0  0  0  0  0  0  0  0
   -5.2341   -0.2555  -11.9944 H   0  0  0  1  0  0  0  0  0  0  0  0
   -4.2798    0.6492  -13.6454 C   0  0  0  1  0  0  0  0  0  0  0  0
   -5.1698    1.2034  -13.8590 H   0  0  0  1  0  0  0  0  0  0  0  0
   -3.8927    0.2320  -14.5514 H   0  0  0  1  0  0  0  0  0  0  0  0
   -3.2427    1.5802  -13.0387 C   0  0  0  1  0  0  0  0  0  0  0  0
   -2.3301    1.0321  -12.9307 H   0  0  0  1  0  0  0  0  0  0  0  0
   -3.5942    1.8822  -12.0743 H   0  0  0  1  0  0  0  0  0  0  0  0
   -2.9460    2.8256  -13.8369 C   0  0  0  1  0  0  0  0  0  0  0  0
   -3.7764    3.3014  -14.6099 O   0  0  0  1  0  0  0  0  0  0  0  0
   -1.7321    3.3658  -13.6449 N   0  0  0  1  0  0  0  0  0  0  0  0
   -1.1247    2.9471  -13.0000 H   0  0  0  1  0  0  0  0  0  0  0  0
   -1.2860    4.5545  -14.3630 C   0  0  0  1  0  0  0  0  0  0  0  0
   -2.1428    5.0546  -14.7638 H   0  0  0  1  0  0  0  0  0  0  0  0
   -0.6431    4.2508  -15.1626 H   0  0  0  1  0  0  0  0  0  0  0  0
   -0.5324    5.5201  -13.4750 C   0  0  0  1  0  0  0  0  0  0  0  0
   -0.1837    6.3275  -14.0844 H   0  0  0  1  0  0  0  0  0  0  0  0
    0.3046    5.0011  -13.0565 H   0  0  0  1  0  0  0  0  0  0  0  0
   -1.4946    6.2211  -12.1135 S   0  0  0  1  0  0  0  0  0  0  0  0
   -1.0674    5.0813  -10.8177 C   0  0  0  1  0  0  0  0  0  0  0  0
   -0.3200    4.1574  -10.9694 O   0  0  0  1  0  0  0  0  0  0  0  0
   -1.7535    5.4137   -9.5130 C   0  0  0  1  0  0  0  0  0  0  0  0
   -2.7120    5.8450   -9.7132 H   0  0  0  1  0  0  0  0  0  0  0  0
   -1.1563    6.1114   -8.9639 H   0  0  0  1  0  0  0  0  0  0  0  0
   -1.8779    4.5199   -8.9380 H   0  0  0  1  0  0  0  0  0  0  0  0
  1  2  1  0  0  0  0
  1  7  2  0  0  0  0
  2  3  1  0  0  0  0
  2  4  2  0  0  0  0
  4  5  1  0  0  0  0
  5  6  2  0  0  0  0
  5 14  1  0  0  0  0
  6  7  1  0  0  0  0
  6 11  1  0  0  0  0
  7  8  1  0  0  0  0
  8  9  1  0  0  0  0
  8 10  1  0  0  0  0
 11 12  2  0  0  0  0
 12 13  1  0  0  0  0
 12 14  1  0  0  0  0
 14 15  1  0  0  0  0
 15 16  1  0  0  0  0
 15 17  1  0  0  0  0
 15 30  1  0  0  0  0
 17 18  1  0  0  0  0
 17 19  1  0  0  0  0
 17 21  1  0  0  0  0
 19 20  1  0  0  0  0
 21 22  1  0  0  0  0
 21 23  1  0  0  0  0
 21 28  1  0  0  0  0
 23 24  1  0  0  0  0
 24 25  1  0  0  0  0
 24 26  2  0  0  0  0
 24 27  1  0  0  0  0
 28 29  1  0  0  0  0
 28 30  1  0  0  0  0
 28 31  1  0  0  0  0
 31 32  1  0  0  0  0
 31 33  1  0  0  0  0
 31 34  1  0  0  0  0
 34 35  1  0  0  0  0
 35 36  1  0  0  0  0
 35 37  2  0  0  0  0
 35 38  1  0  0  0  0
 38 39  1  0  0  0  0
 39 40  2  0  0  0  0
 39 41  1  0  0  0  0
 39 42  1  0  0  0  0
 42 44  1  0  0  0  0
 43 44  1  0  0  0  0
 43 47  1  0  0  0  0
 43 51  1  0  0  0  0
 43 55  1  0  0  0  0
 44 45  1  0  0  0  0
 44 46  1  0  0  0  0
 47 48  1  0  0  0  0
 47 49  1  0  0  0  0
 47 50  1  0  0  0  0
 51 52  1  0  0  0  0
 51 53  1  0  0  0  0
 51 54  1  0  0  0  0
 55 56  1  0  0  0  0
 55 57  1  0  0  0  0
 55 59  1  0  0  0  0
 57 58  1  0  0  0  0
 59 60  2  0  0  0  0
 59 61  1  0  0  0  0
 61 62  1  0  0  0  0
 61 63  1  0  0  0  0
 63 64  1  0  0  0  0
 63 65  1  0  0  0  0
 63 66  1  0  0  0  0
 66 67  1  0  0  0  0
 66 68  1  0  0  0  0
 66 69  1  0  0  0  0
 69 70  2  0  0  0  0
 69 71  1  0  0  0  0
 71 72  1  0  0  0  0
 71 73  1  0  0  0  0
 73 74  1  0  0  0  0
 73 75  1  0  0  0  0
 73 76  1  0  0  0  0
 76 77  1  0  0  0  0
 76 78  1  0  0  0  0
 76 79  1  0  0  0  0
 79 80  1  0  0  0  0
 80 81  2  0  0  0  0
 80 82  1  0  0  0  0
 82 83  1  0  0  0  0
 82 84  1  0  0  0  0
 82 85  1  0  0  0  0
M  BCL ATM N_Tr2TrTrPi C_TrTrTrPi H_S N_Tr2TrTrPi C_TrTrTrPi C_TrTrTrPi C_TrTrTrPi N_TrTrTrPi2 H_S H_S N_Tr2TrTrPi C_TrTrTrPi H_S N_TrTrTrPi2 C_TeTeTeTe H_S C_TeTeTeTe H_S O_Te2Te2TeTe H_S C_TeTeTeTe H_S O_Tr2TrTrPi2 P_TeTeTeTePi O_Te2Te2TeTe O_Tr2Tr2TrPi O_Te2Te2Te2Te C_TeTeTeTe H_S O_Te2Te2TeTe C_TeTeTeTe H_S H_S O_Tr2TrTrPi2 P_TeTeTeTePi O_Te2Te2TeTe O_Tr2Tr2TrPi O_Tr2TrTrPi2 P_TeTeTeTePi O_Tr2Tr2TrPi O_Te2Te2Te2Te O_Tr2TrTrPi2 C_TeTeTeTe C_TeTeTeTe H_S H_S C_TeTeTeTe H_S H_S H_S C_TeTeTeTe H_S H_S H_S C_TeTeTeTe H_S O_Te2Te2TeTe H_S C_TrTrTrPi O_Tr2Tr2TrPi N_TrTrTrPi2 H_S C_TeTeTeTe H_S H_S C_TeTeTeTe H_S H_S C_TrTrTrPi O_Tr2Tr2TrPi N_TrTrTrPi2 H_S C_TeTeTeTe H_S H_S C_TeTeTeTe H_S H_S S_Te2Te2TeTe C_TrTrTrPi O_Tr2Tr2TrPi C_TeTeTeTe H_S H_S H_S
M  BCL BND AromaticSingleBond AromaticDoubleBond NonConjugatedSingleBond AromaticDoubleBond AromaticSingleBond AromaticDoubleBond AromaticSingleBond AromaticSingleBond AromaticSingleBond ConjugatedSingleBond NonConjugatedSingleBond NonConjugatedSingleBond AromaticDoubleBond NonConjugatedSingleBond AromaticSingleBond NonConjugatedSingleBond NonConjugatedSingleBond NonConjugatedSingleBondInRing NonConjugatedSingleBondInRing NonConjugatedSingleBond NonConjugatedSingleBond NonConjugatedSingleBondInRing NonConjugatedSingleBond NonConjugatedSingleBond NonConjugatedSingleBond NonConjugatedSingleBondInRing ConjugatedSingleBond ConjugatedSingleBond ConjugatedDoubleBond ConjugatedSingleBond NonConjugatedSingleBond NonConjugatedSingleBondInRing NonConjugatedSingleBond NonConjugatedSingleBond NonConjugatedSingleBond NonConjugatedSingleBond ConjugatedSingleBond ConjugatedSingleBond ConjugatedDoubleBond ConjugatedSingleBond ConjugatedSingleBond ConjugatedDoubleBond ConjugatedSingleBond ConjugatedSingleBond NonConjugatedSingleBond NonConjugatedSingleBond NonConjugatedSingleBond NonConjugatedSingleBond NonConjugatedSingleBond NonConjugatedSingleBond NonConjugatedSingleBond NonConjugatedSingleBond NonConjugatedSingleBond NonConjugatedSingleBond NonConjugatedSingleBond NonConjugatedSingleBond NonConjugatedSingleBond NonConjugatedSingleBond NonConjugatedSingleBond NonConjugatedSingleBond NonConjugatedSingleBond ConjugatedDoubleBond AmideSingleBond NonConjugatedSingleBond NonConjugatedSingleBond NonConjugatedSingleBond NonConjugatedSingleBond NonConjugatedSingleBond NonConjugatedSingleBond NonConjugatedSingleBond NonConjugatedSingleBond ConjugatedDoubleBond AmideSingleBond NonConjugatedSingleBond NonConjugatedSingleBond NonConjugatedSingleBond NonConjugatedSingleBond NonConjugatedSingleBond NonConjugatedSingleBond NonConjugatedSingleBond NonConjugatedSingleBond ConjugatedSingleBond ConjugatedDoubleBond NonConjugatedSingleBond NonConjugatedSingleBond NonConjugatedSingleBond NonConjugatedSingleBond
M  BCL CHI  15   S  17   S  21   S  24   S  28   R  35   R  39   R  55   S
M  BCL DBI - - - - - - - - - -
M  END
> <ConfClashScore>
0.000141265 

> <ConfOneFourInteractionScore>
-0.987677 

> <ConfScore>
0.0464192 

> <ConfScorePBest>
0.00871249 

> <ConfTolerance>
2.70084 

$$$$
ACO.****
  PyMOL2.5          3D                             0

 85 87  0  0  0  0  0  0  0  0999 V2000
    4.8796    1.1130  -10.6602 N   0  0  0  1  0  0  0  0  0  0  0  0
    3.8248    1.9340  -10.5363 C   0  0  0  1  0  0  0  0  0  0  0  0
    3.7834    2.7189  -11.2173 H   0  0  0  1  0  0  0  0  0  0  0  0
    2.8275    1.8792   -9.6620 N   0  0  0  1  0  0  0  0  0  0  0  0
    2.9621    0.8404   -8.8363 C   0  0  0  1  0  0  0  0  0  0  0  0
    4.0013   -0.0997   -8.8356 C   0  0  0  1  0  0  0  0  0  0  0  0
    4.9821    0.0902   -9.8046 C   0  0  0  1  0  0  0  0  0  0  0  0
    6.0411   -0.7925   -9.8525 N   0  0  0  1  0  0  0  0  0  0  0  0
    6.1211   -1.4988   -9.1778 H   0  0  0  1  0  0  0  0  0  0  0  0
    6.7133   -0.7133  -10.5611 H   0  0  0  1  0  0  0  0  0  0  0  0
    3.8096   -1.0269   -7.8232 N   0  0  0  1  0  0  0  0  0  0  0  0
    2.6972   -0.6397   -7.2607 C   0  0  0  1  0  0  0  0  0  0  0  0
    2.2726   -1.1434   -6.4559 H   0  0  0  1  0  0  0  0  0  0  0  0
    2.1346    0.4730   -7.8068 N   0  0  0  1  0  0  0  0  0  0  0  0
    0.9026    1.1395   -7.3837 C   0  0  0  1  0  0  0  0  0  0  0  0
    1.1027    2.1734   -7.1942 H   0  0  0  1  0  0  0  0  0  0  0  0
   -0.1711    0.9936   -8.4468 C   0  0  0  1  0  0  0  0  0  0  0  0
    0.2557    0.9726   -9.4277 H   0  0  0  1  0  0  0  0  0  0  0  0
   -1.1277    2.0534   -8.3650 O   0  0  0  1  0  0  0  0  0  0  0  0
   -1.9992    1.6864   -8.1990 H   0  0  0  1  0  0  0  0  0  0  0  0
   -0.7948   -0.3324   -8.0949 C   0  0  0  1  0  0  0  0  0  0  0  0
   -0.2068   -1.1492   -8.4584 H   0  0  0  1  0  0  0  0  0  0  0  0
   -2.1444   -0.4375   -8.6164 O   0  0  0  1  0  0  0  0  0  0  0  0
   -2.4960   -1.4762   -9.8358 P   0  0  0  1  0  0  0  0  0  0  0  0
   -3.1841   -0.4779  -10.9402 O   0  0  0  0  0  0  0  0  0  0  0  0
   -1.2248   -2.1002  -10.2660 O   0  0  0  1  0  0  0  0  0  0  0  0
   -3.5386   -2.5406   -9.1998 O   0  5  0  1  0  0  0  0  0  0  0  0
   -0.7897   -0.2779   -6.5678 C   0  0  0  1  0  0  0  0  0  0  0  0
   -1.6821    0.1874   -6.2044 H   0  0  0  1  0  0  0  0  0  0  0  0
    0.3777    0.5191   -6.2289 O   0  0  0  1  0  0  0  0  0  0  0  0
   -0.6753   -1.6350   -5.9997 C   0  0  0  1  0  0  0  0  0  0  0  0
   -1.5475   -2.1991   -6.2566 H   0  0  0  1  0  0  0  0  0  0  0  0
   -0.5956   -1.5656   -4.9350 H   0  0  0  1  0  0  0  0  0  0  0  0
    0.4961   -2.3044   -6.5227 O   0  0  0  1  0  0  0  0  0  0  0  0
    1.4148   -3.2083   -5.5760 P   0  0  0  1  0  0  0  0  0  0  0  0
    2.5546   -3.8213   -6.3325 O   0  0  0  0  0  0  0  0  0  0  0  0
    0.5830   -4.1554   -4.7672 O   0  0  0  1  0  0  0  0  0  0  0  0
    2.0713   -2.0488   -4.6783 O   0  0  0  1  0  0  0  0  0  0  0  0
    1.6600   -1.4955   -3.1902 P   0  0  0  1  0  0  0  0  0  0  0  0
    0.3119   -0.8869   -3.1398 O   0  0  0  1  0  0  0  0  0  0  0  0
    1.8983   -2.6796   -2.1107 O   0  5  0  1  0  0  0  0  0  0  0  0
    2.6837   -0.3718   -2.7838 O   0  0  0  1  0  0  0  0  0  0  0  0
    3.9822    1.5701   -3.2083 C   0  0  0  1  0  0  0  0  0  0  0  0
    2.6512    0.9272   -3.4210 C   0  0  0  1  0  0  0  0  0  0  0  0
    1.8820    1.5286   -2.9833 H   0  0  0  1  0  0  0  0  0  0  0  0
    2.4640    0.8147   -4.4684 H   0  0  0  1  0  0  0  0  0  0  0  0
    3.9656    3.0466   -3.6134 C   0  0  0  1  0  0  0  0  0  0  0  0
    4.9614    3.4369   -3.5817 H   0  0  0  1  0  0  0  0  0  0  0  0
    3.3460    3.5953   -2.9353 H   0  0  0  1  0  0  0  0  0  0  0  0
    3.5779    3.1395   -4.6064 H   0  0  0  1  0  0  0  0  0  0  0  0
    5.0514    0.8061   -3.9844 C   0  0  0  1  0  0  0  0  0  0  0  0
    5.7028    0.3070   -3.2979 H   0  0  0  1  0  0  0  0  0  0  0  0
    5.6181    1.4916   -4.5792 H   0  0  0  1  0  0  0  0  0  0  0  0
    4.5829    0.0842   -4.6202 H   0  0  0  1  0  0  0  0  0  0  0  0
    4.3279    1.5252   -1.7151 C   0  0  0  1  0  0  0  0  0  0  0  0
    4.2566    0.5115   -1.3801 H   0  0  0  1  0  0  0  0  0  0  0  0
    5.6378    2.0233   -1.4845 O   0  0  0  1  0  0  0  0  0  0  0  0
    6.0418    1.5395   -0.7605 H   0  0  0  1  0  0  0  0  0  0  0  0
    3.3626    2.3743   -0.9068 C   0  0  0  1  0  0  0  0  0  0  0  0
    2.1664    2.0917   -0.8531 O   0  0  0  1  0  0  0  0  0  0  0  0
    3.8532    3.4394   -0.2548 N   0  0  0  1  0  0  0  0  0  0  0  0
    4.8185    3.6063   -0.2805 H   0  0  0  1  0  0  0  0  0  0  0  0
    3.0016    4.3553    0.4894 C   0  0  0  1  0  0  0  0  0  0  0  0
    3.2552    4.2928    1.5270 H   0  0  0  1  0  0  0  0  0  0  0  0
    1.9815    4.0627    0.3527 H   0  0  0  1  0  0  0  0  0  0  0  0
    3.1603    5.8028    0.0337 C   0  0  0  1  0  0  0  0  0  0  0  0
    4.2001    6.0549    0.0220 H   0  0  0  1  0  0  0  0  0  0  0  0
    2.6449    6.4444    0.7175 H   0  0  0  1  0  0  0  0  0  0  0  0
    2.5866    5.9947   -1.3567 C   0  0  0  1  0  0  0  0  0  0  0  0
    1.5045    5.5030   -1.6743 O   0  0  0  1  0  0  0  0  0  0  0  0
    3.3322    6.7269   -2.1993 N   0  0  0  1  0  0  0  0  0  0  0  0
    4.1503    7.1485   -1.8626 H   0  0  0  1  0  0  0  0  0  0  0  0
    2.9683    6.9160   -3.5944 C   0  0  0  1  0  0  0  0  0  0  0  0
    1.9760    7.3138   -3.6390 H   0  0  0  1  0  0  0  0  0  0  0  0
    2.9951    5.9668   -4.0875 H   0  0  0  1  0  0  0  0  0  0  0  0
    3.9038    7.8637   -4.3152 C   0  0  0  1  0  0  0  0  0  0  0  0
    4.8874    7.4426   -4.3066 H   0  0  0  1  0  0  0  0  0  0  0  0
    3.9104    8.7976   -3.7930 H   0  0  0  1  0  0  0  0  0  0  0  0
    3.4246    8.1690   -6.0323 S   0  0  0  1  0  0  0  0  0  0  0  0
    4.2378    6.8519   -6.8078 C   0  0  0  1  0  0  0  0  0  0  0  0
    4.8228    5.9916   -6.1697 O   0  0  0  1  0  0  0  0  0  0  0  0
    4.3319    6.8956   -8.2665 C   0  0  0  1  0  0  0  0  0  0  0  0
    3.4298    6.5106   -8.6943 H   0  0  0  1  0  0  0  0  0  0  0  0
    5.1611    6.3006   -8.5881 H   0  0  0  1  0  0  0  0  0  0  0  0
    4.4737    7.9074   -8.5844 H   0  0  0  1  0  0  0  0  0  0  0  0
  1  2  1  0  0  0  0
  1  7  2  0  0  0  0
  2  3  1  0  0  0  0
  2  4  2  0  0  0  0
  4  5  1  0  0  0  0
  5  6  2  0  0  0  0
  5 14  1  0  0  0  0
  6  7  1  0  0  0  0
  6 11  1  0  0  0  0
  7  8  1  0  0  0  0
  8  9  1  0  0  0  0
  8 10  1  0  0  0  0
 11 12  2  0  0  0  0
 12 13  1  0  0  0  0
 12 14  1  0  0  0  0
 14 15  1  0  0  0  0
 15 16  1  0  0  0  0
 15 17  1  0  0  0  0
 15 30  1  0  0  0  0
 17 18  1  0  0  0  0
 17 19  1  0  0  0  0
 17 21  1  0  0  0  0
 19 20  1  0  0  0  0
 21 22  1  0  0  0  0
 21 23  1  0  0  0  0
 21 28  1  0  0  0  0
 23 24  1  0  0  0  0
 24 25  1  0  0  0  0
 24 26  2  0  0  0  0
 24 27  1  0  0  0  0
 28 29  1  0  0  0  0
 28 30  1  0  0  0  0
 28 31  1  0  0  0  0
 31 32  1  0  0  0  0
 31 33  1  0  0  0  0
 31 34  1  0  0  0  0
 34 35  1  0  0  0  0
 35 36  1  0  0  0  0
 35 37  2  0  0  0  0
 35 38  1  0  0  0  0
 38 39  1  0  0  0  0
 39 40  2  0  0  0  0
 39 41  1  0  0  0  0
 39 42  1  0  0  0  0
 42 44  1  0  0  0  0
 43 44  1  0  0  0  0
 43 47  1  0  0  0  0
 43 51  1  0  0  0  0
 43 55  1  0  0  0  0
 44 45  1  0  0  0  0
 44 46  1  0  0  0  0
 47 48  1  0  0  0  0
 47 49  1  0  0  0  0
 47 50  1  0  0  0  0
 51 52  1  0  0  0  0
 51 53  1  0  0  0  0
 51 54  1  0  0  0  0
 55 56  1  0  0  0  0
 55 57  1  0  0  0  0
 55 59  1  0  0  0  0
 57 58  1  0  0  0  0
 59 60  2  0  0  0  0
 59 61  1  0  0  0  0
 61 62  1  0  0  0  0
 61 63  1  0  0  0  0
 63 64  1  0  0  0  0
 63 65  1  0  0  0  0
 63 66  1  0  0  0  0
 66 67  1  0  0  0  0
 66 68  1  0  0  0  0
 66 69  1  0  0  0  0
 69 70  2  0  0  0  0
 69 71  1  0  0  0  0
 71 72  1  0  0  0  0
 71 73  1  0  0  0  0
 73 74  1  0  0  0  0
 73 75  1  0  0  0  0
 73 76  1  0  0  0  0
 76 77  1  0  0  0  0
 76 78  1  0  0  0  0
 76 79  1  0  0  0  0
 79 80  1  0  0  0  0
 80 81  2  0  0  0  0
 80 82  1  0  0  0  0
 82 83  1  0  0  0  0
 82 84  1  0  0  0  0
 82 85  1  0  0  0  0
M  BCL ATM N_Tr2TrTrPi C_TrTrTrPi H_S N_Tr2TrTrPi C_TrTrTrPi C_TrTrTrPi C_TrTrTrPi N_TrTrTrPi2 H_S H_S N_Tr2TrTrPi C_TrTrTrPi H_S N_TrTrTrPi2 C_TeTeTeTe H_S C_TeTeTeTe H_S O_Te2Te2TeTe H_S C_TeTeTeTe H_S O_Tr2TrTrPi2 P_TeTeTeTePi O_Te2Te2TeTe O_Tr2Tr2TrPi O_Te2Te2Te2Te C_TeTeTeTe H_S O_Te2Te2TeTe C_TeTeTeTe H_S H_S O_Tr2TrTrPi2 P_TeTeTeTePi O_Te2Te2TeTe O_Tr2Tr2TrPi O_Tr2TrTrPi2 P_TeTeTeTePi O_Tr2Tr2TrPi O_Te2Te2Te2Te O_Tr2TrTrPi2 C_TeTeTeTe C_TeTeTeTe H_S H_S C_TeTeTeTe H_S H_S H_S C_TeTeTeTe H_S H_S H_S C_TeTeTeTe H_S O_Te2Te2TeTe H_S C_TrTrTrPi O_Tr2Tr2TrPi N_TrTrTrPi2 H_S C_TeTeTeTe H_S H_S C_TeTeTeTe H_S H_S C_TrTrTrPi O_Tr2Tr2TrPi N_TrTrTrPi2 H_S C_TeTeTeTe H_S H_S C_TeTeTeTe H_S H_S S_Te2Te2TeTe C_TrTrTrPi O_Tr2Tr2TrPi C_TeTeTeTe H_S H_S H_S
M  BCL BND AromaticSingleBond AromaticDoubleBond NonConjugatedSingleBond AromaticDoubleBond AromaticSingleBond AromaticDoubleBond AromaticSingleBond AromaticSingleBond AromaticSingleBond ConjugatedSingleBond NonConjugatedSingleBond NonConjugatedSingleBond AromaticDoubleBond NonConjugatedSingleBond AromaticSingleBond NonConjugatedSingleBond NonConjugatedSingleBond NonConjugatedSingleBondInRing NonConjugatedSingleBondInRing NonConjugatedSingleBond NonConjugatedSingleBond NonConjugatedSingleBondInRing NonConjugatedSingleBond NonConjugatedSingleBond NonConjugatedSingleBond NonConjugatedSingleBondInRing ConjugatedSingleBond ConjugatedSingleBond ConjugatedDoubleBond ConjugatedSingleBond NonConjugatedSingleBond NonConjugatedSingleBondInRing NonConjugatedSingleBond NonConjugatedSingleBond NonConjugatedSingleBond NonConjugatedSingleBond ConjugatedSingleBond ConjugatedSingleBond ConjugatedDoubleBond ConjugatedSingleBond ConjugatedSingleBond ConjugatedDoubleBond ConjugatedSingleBond ConjugatedSingleBond NonConjugatedSingleBond NonConjugatedSingleBond NonConjugatedSingleBond NonConjugatedSingleBond NonConjugatedSingleBond NonConjugatedSingleBond NonConjugatedSingleBond NonConjugatedSingleBond NonConjugatedSingleBond NonConjugatedSingleBond NonConjugatedSingleBond NonConjugatedSingleBond NonConjugatedSingleBond NonConjugatedSingleBond NonConjugatedSingleBond NonConjugatedSingleBond NonConjugatedSingleBond ConjugatedDoubleBond AmideSingleBond NonConjugatedSingleBond NonConjugatedSingleBond NonConjugatedSingleBond NonConjugatedSingleBond NonConjugatedSingleBond NonConjugatedSingleBond NonConjugatedSingleBond NonConjugatedSingleBond ConjugatedDoubleBond AmideSingleBond NonConjugatedSingleBond NonConjugatedSingleBond NonConjugatedSingleBond NonConjugatedSingleBond NonConjugatedSingleBond NonConjugatedSingleBond NonConjugatedSingleBond NonConjugatedSingleBond ConjugatedSingleBond ConjugatedDoubleBond NonConjugatedSingleBond NonConjugatedSingleBond NonConjugatedSingleBond NonConjugatedSingleBond
M  BCL CHI  15   S  17   S  21   S  24   S  28   R  35   R  39   R  55   S
M  BCL DBI - - - - - - - - - -
M  END
> <ConfClashScore>
0 

> <ConfOneFourInteractionScore>
-0.982975 

> <ConfScore>
0.0475322 

> <ConfScorePBest>
0.00860949 

> <ConfTolerance>
2.68641 

$$$$
ACO.****
  PyMOL2.5          3D                             0

 85 87  0  0  0  0  0  0  0  0999 V2000
    4.8834    1.0919  -10.6532 N   0  0  0  1  0  0  0  0  0  0  0  0
    3.8311    1.9171  -10.5365 C   0  0  0  1  0  0  0  0  0  0  0  0
    3.7938    2.6982  -11.2221 H   0  0  0  1  0  0  0  0  0  0  0  0
    2.8317    1.8708   -9.6641 N   0  0  0  1  0  0  0  0  0  0  0  0
    2.9609    0.8365   -8.8320 C   0  0  0  1  0  0  0  0  0  0  0  0
    3.9970   -0.1070   -8.8234 C   0  0  0  1  0  0  0  0  0  0  0  0
    4.9806    0.0739   -9.7913 C   0  0  0  1  0  0  0  0  0  0  0  0
    6.0440   -0.7774   -9.8702 N   0  0  0  1  0  0  0  0  0  0  0  0
    6.7201   -0.6536  -10.5688 H   0  0  0  1  0  0  0  0  0  0  0  0
    6.1318   -1.5126   -9.2282 H   0  0  0  1  0  0  0  0  0  0  0  0
    3.8000   -1.0276   -7.8060 N   0  0  0  1  0  0  0  0  0  0  0  0
    2.6876   -0.6334   -7.2482 C   0  0  0  1  0  0  0  0  0  0  0  0
    2.2597   -1.1309   -6.4415 H   0  0  0  1  0  0  0  0  0  0  0  0
    2.1300    0.4779   -7.8021 N   0  0  0  1  0  0  0  0  0  0  0  0
    0.9013    1.1499   -7.3864 C   0  0  0  1  0  0  0  0  0  0  0  0
    0.6161    1.8647   -8.1298 H   0  0  0  1  0  0  0  0  0  0  0  0
   -0.2228    0.1239   -7.1726 C   0  0  0  1  0  0  0  0  0  0  0  0
    0.1652   -0.8030   -6.8048 H   0  0  0  1  0  0  0  0  0  0  0  0
   -0.9465   -0.1086   -8.3839 O   0  0  0  1  0  0  0  0  0  0  0  0
   -0.3399   -0.0924   -9.1277 H   0  0  0  1  0  0  0  0  0  0  0  0
   -1.0977    0.8025   -6.1333 C   0  0  0  1  0  0  0  0  0  0  0  0
   -1.5899    0.0819   -5.5141 H   0  0  0  1  0  0  0  0  0  0  0  0
   -2.0872    1.6580   -6.7614 O   0  0  0  1  0  0  0  0  0  0  0  0
   -3.5063    1.9937   -6.0109 P   0  0  0  1  0  0  0  0  0  0  0  0
   -4.4431    2.5204   -7.2497 O   0  0  0  0  0  0  0  0  0  0  0  0
   -3.9499    0.8058   -5.2479 O   0  0  0  1  0  0  0  0  0  0  0  0
   -3.1796    3.2626   -5.0583 O   0  5  0  1  0  0  0  0  0  0  0  0
   -0.0780    1.6351   -5.3175 C   0  0  0  1  0  0  0  0  0  0  0  0
   -0.4873    2.5955   -5.0832 H   0  0  0  1  0  0  0  0  0  0  0  0
    1.0854    1.7797   -6.1514 O   0  0  0  1  0  0  0  0  0  0  0  0
    0.2731    0.9314   -4.0688 C   0  0  0  1  0  0  0  0  0  0  0  0
   -0.6222    0.7054   -3.5281 H   0  0  0  1  0  0  0  0  0  0  0  0
    0.9004    1.5616   -3.4737 H   0  0  0  1  0  0  0  0  0  0  0  0
    0.9770   -0.3018   -4.3635 O   0  0  0  1  0  0  0  0  0  0  0  0
    1.9868   -0.9766   -3.3629 P   0  0  0  1  0  0  0  0  0  0  0  0
    1.2541   -1.6999   -2.2609 O   0  0  0  0  0  0  0  0  0  0  0  0
    2.8861    0.1176   -2.9522 O   0  0  0  1  0  0  0  0  0  0  0  0
    2.8124   -1.9312   -4.3579 O   0  0  0  1  0  0  0  0  0  0  0  0
    4.4346   -2.1660   -4.4123 P   0  0  0  1  0  0  0  0  0  0  0  0
    4.9072   -3.1539   -5.4079 O   0  0  0  1  0  0  0  0  0  0  0  0
    5.0655   -0.7039   -4.7099 O   0  5  0  1  0  0  0  0  0  0  0  0
    4.9806   -2.6230   -3.0091 O   0  0  0  1  0  0  0  0  0  0  0  0
    4.2594   -3.9031   -1.1108 C   0  0  0  1  0  0  0  0  0  0  0  0
    4.7221   -3.9568   -2.5110 C   0  0  0  1  0  0  0  0  0  0  0  0
    5.6223   -4.5328   -2.5628 H   0  0  0  1  0  0  0  0  0  0  0  0
    3.9678   -4.4179   -3.1138 H   0  0  0  1  0  0  0  0  0  0  0  0
    2.8411   -3.3282   -1.0602 C   0  0  0  1  0  0  0  0  0  0  0  0
    2.2087   -3.8786   -1.7251 H   0  0  0  1  0  0  0  0  0  0  0  0
    2.8623   -2.3005   -1.3575 H   0  0  0  1  0  0  0  0  0  0  0  0
    2.4613   -3.4038   -0.0628 H   0  0  0  1  0  0  0  0  0  0  0  0
    5.2590   -3.0486   -0.3076 C   0  0  0  1  0  0  0  0  0  0  0  0
    6.2261   -3.5053   -0.3400 H   0  0  0  1  0  0  0  0  0  0  0  0
    4.9318   -2.9785    0.7088 H   0  0  0  1  0  0  0  0  0  0  0  0
    5.3131   -2.0686   -0.7337 H   0  0  0  1  0  0  0  0  0  0  0  0
    4.2037   -5.3240   -0.5444 C   0  0  0  1  0  0  0  0  0  0  0  0
    4.0366   -5.2500    0.5099 H   0  0  0  1  0  0  0  0  0  0  0  0
    3.1598   -6.0791   -1.1324 O   0  0  0  1  0  0  0  0  0  0  0  0
    3.5024   -6.5688   -1.8837 H   0  0  0  1  0  0  0  0  0  0  0  0
    5.5335   -6.0286   -0.7597 C   0  0  0  1  0  0  0  0  0  0  0  0
    6.6006   -5.4641   -0.5235 O   0  0  0  1  0  0  0  0  0  0  0  0
    5.4587   -7.2883   -1.2177 N   0  0  0  1  0  0  0  0  0  0  0  0
    4.5828   -7.7261   -1.2567 H   0  0  0  1  0  0  0  0  0  0  0  0
    6.6330   -8.0262   -1.6585 C   0  0  0  1  0  0  0  0  0  0  0  0
    7.3966   -7.3347   -1.9476 H   0  0  0  1  0  0  0  0  0  0  0  0
    6.3710   -8.6395   -2.4953 H   0  0  0  1  0  0  0  0  0  0  0  0
    7.1535   -8.9071   -0.5344 C   0  0  0  1  0  0  0  0  0  0  0  0
    6.3668   -9.5722   -0.2450 H   0  0  0  1  0  0  0  0  0  0  0  0
    7.4077   -8.2744    0.2901 H   0  0  0  1  0  0  0  0  0  0  0  0
    8.3856   -9.7533   -0.8790 C   0  0  0  1  0  0  0  0  0  0  0  0
    9.1367   -9.4009   -1.7874 O   0  0  0  1  0  0  0  0  0  0  0  0
    8.6290  -10.8150   -0.0944 N   0  0  0  1  0  0  0  0  0  0  0  0
    7.9779  -11.0169    0.6097 H   0  0  0  1  0  0  0  0  0  0  0  0
    9.7861  -11.6880   -0.2103 C   0  0  0  1  0  0  0  0  0  0  0  0
    9.8029  -12.3487    0.6312 H   0  0  0  1  0  0  0  0  0  0  0  0
   10.6710  -11.0864   -0.2098 H   0  0  0  1  0  0  0  0  0  0  0  0
    9.7637  -12.5168   -1.4774 C   0  0  0  1  0  0  0  0  0  0  0  0
    9.6340  -11.8671   -2.3176 H   0  0  0  1  0  0  0  0  0  0  0  0
    8.9467  -13.2061   -1.4296 H   0  0  0  1  0  0  0  0  0  0  0  0
   11.3053  -13.4410   -1.6777 S   0  0  0  1  0  0  0  0  0  0  0  0
   10.9990  -14.8861   -0.7288 C   0  0  0  1  0  0  0  0  0  0  0  0
    9.9502  -15.1511   -0.1883 O   0  0  0  1  0  0  0  0  0  0  0  0
   12.2435  -15.7710   -0.5600 C   0  0  0  1  0  0  0  0  0  0  0  0
   13.0378  -15.3899   -1.1673 H   0  0  0  1  0  0  0  0  0  0  0  0
   12.0130  -16.7715   -0.8614 H   0  0  0  1  0  0  0  0  0  0  0  0
   12.5465  -15.7680    0.4662 H   0  0  0  1  0  0  0  0  0  0  0  0
  1  2  1  0  0  0  0
  1  7  2  0  0  0  0
  2  3  1  0  0  0  0
  2  4  2  0  0  0  0
  4  5  1  0  0  0  0
  5  6  2  0  0  0  0
  5 14  1  0  0  0  0
  6  7  1  0  0  0  0
  6 11  1  0  0  0  0
  7  8  1  0  0  0  0
  8  9  1  0  0  0  0
  8 10  1  0  0  0  0
 11 12  2  0  0  0  0
 12 13  1  0  0  0  0
 12 14  1  0  0  0  0
 14 15  1  0  0  0  0
 15 16  1  0  0  0  0
 15 17  1  0  0  0  0
 15 30  1  0  0  0  0
 17 18  1  0  0  0  0
 17 19  1  0  0  0  0
 17 21  1  0  0  0  0
 19 20  1  0  0  0  0
 21 22  1  0  0  0  0
 21 23  1  0  0  0  0
 21 28  1  0  0  0  0
 23 24  1  0  0  0  0
 24 25  1  0  0  0  0
 24 26  2  0  0  0  0
 24 27  1  0  0  0  0
 28 29  1  0  0  0  0
 28 30  1  0  0  0  0
 28 31  1  0  0  0  0
 31 32  1  0  0  0  0
 31 33  1  0  0  0  0
 31 34  1  0  0  0  0
 34 35  1  0  0  0  0
 35 36  1  0  0  0  0
 35 37  2  0  0  0  0
 35 38  1  0  0  0  0
 38 39  1  0  0  0  0
 39 40  2  0  0  0  0
 39 41  1  0  0  0  0
 39 42  1  0  0  0  0
 42 44  1  0  0  0  0
 43 44  1  0  0  0  0
 43 47  1  0  0  0  0
 43 51  1  0  0  0  0
 43 55  1  0  0  0  0
 44 45  1  0  0  0  0
 44 46  1  0  0  0  0
 47 48  1  0  0  0  0
 47 49  1  0  0  0  0
 47 50  1  0  0  0  0
 51 52  1  0  0  0  0
 51 53  1  0  0  0  0
 51 54  1  0  0  0  0
 55 56  1  0  0  0  0
 55 57  1  0  0  0  0
 55 59  1  0  0  0  0
 57 58  1  0  0  0  0
 59 60  2  0  0  0  0
 59 61  1  0  0  0  0
 61 62  1  0  0  0  0
 61 63  1  0  0  0  0
 63 64  1  0  0  0  0
 63 65  1  0  0  0  0
 63 66  1  0  0  0  0
 66 67  1  0  0  0  0
 66 68  1  0  0  0  0
 66 69  1  0  0  0  0
 69 70  2  0  0  0  0
 69 71  1  0  0  0  0
 71 72  1  0  0  0  0
 71 73  1  0  0  0  0
 73 74  1  0  0  0  0
 73 75  1  0  0  0  0
 73 76  1  0  0  0  0
 76 77  1  0  0  0  0
 76 78  1  0  0  0  0
 76 79  1  0  0  0  0
 79 80  1  0  0  0  0
 80 81  2  0  0  0  0
 80 82  1  0  0  0  0
 82 83  1  0  0  0  0
 82 84  1  0  0  0  0
 82 85  1  0  0  0  0
M  BCL ATM N_Tr2TrTrPi C_TrTrTrPi H_S N_Tr2TrTrPi C_TrTrTrPi C_TrTrTrPi C_TrTrTrPi N_TrTrTrPi2 H_S H_S N_Tr2TrTrPi C_TrTrTrPi H_S N_TrTrTrPi2 C_TeTeTeTe H_S C_TeTeTeTe H_S O_Te2Te2TeTe H_S C_TeTeTeTe H_S O_Tr2TrTrPi2 P_TeTeTeTePi O_Te2Te2TeTe O_Tr2Tr2TrPi O_Te2Te2Te2Te C_TeTeTeTe H_S O_Te2Te2TeTe C_TeTeTeTe H_S H_S O_Tr2TrTrPi2 P_TeTeTeTePi O_Te2Te2TeTe O_Tr2Tr2TrPi O_Tr2TrTrPi2 P_TeTeTeTePi O_Tr2Tr2TrPi O_Te2Te2Te2Te O_Tr2TrTrPi2 C_TeTeTeTe C_TeTeTeTe H_S H_S C_TeTeTeTe H_S H_S H_S C_TeTeTeTe H_S H_S H_S C_TeTeTeTe H_S O_Te2Te2TeTe H_S C_TrTrTrPi O_Tr2Tr2TrPi N_TrTrTrPi2 H_S C_TeTeTeTe H_S H_S C_TeTeTeTe H_S H_S C_TrTrTrPi O_Tr2Tr2TrPi N_TrTrTrPi2 H_S C_TeTeTeTe H_S H_S C_TeTeTeTe H_S H_S S_Te2Te2TeTe C_TrTrTrPi O_Tr2Tr2TrPi C_TeTeTeTe H_S H_S H_S
M  BCL BND AromaticSingleBond AromaticDoubleBond NonConjugatedSingleBond AromaticDoubleBond AromaticSingleBond AromaticDoubleBond AromaticSingleBond AromaticSingleBond AromaticSingleBond ConjugatedSingleBond NonConjugatedSingleBond NonConjugatedSingleBond AromaticDoubleBond NonConjugatedSingleBond AromaticSingleBond NonConjugatedSingleBond NonConjugatedSingleBond NonConjugatedSingleBondInRing NonConjugatedSingleBondInRing NonConjugatedSingleBond NonConjugatedSingleBond NonConjugatedSingleBondInRing NonConjugatedSingleBond NonConjugatedSingleBond NonConjugatedSingleBond NonConjugatedSingleBondInRing ConjugatedSingleBond ConjugatedSingleBond ConjugatedDoubleBond ConjugatedSingleBond NonConjugatedSingleBond NonConjugatedSingleBondInRing NonConjugatedSingleBond NonConjugatedSingleBond NonConjugatedSingleBond NonConjugatedSingleBond ConjugatedSingleBond ConjugatedSingleBond ConjugatedDoubleBond ConjugatedSingleBond ConjugatedSingleBond ConjugatedDoubleBond ConjugatedSingleBond ConjugatedSingleBond NonConjugatedSingleBond NonConjugatedSingleBond NonConjugatedSingleBond NonConjugatedSingleBond NonConjugatedSingleBond NonConjugatedSingleBond NonConjugatedSingleBond NonConjugatedSingleBond NonConjugatedSingleBond NonConjugatedSingleBond NonConjugatedSingleBond NonConjugatedSingleBond NonConjugatedSingleBond NonConjugatedSingleBond NonConjugatedSingleBond NonConjugatedSingleBond NonConjugatedSingleBond ConjugatedDoubleBond AmideSingleBond NonConjugatedSingleBond NonConjugatedSingleBond NonConjugatedSingleBond NonConjugatedSingleBond NonConjugatedSingleBond NonConjugatedSingleBond NonConjugatedSingleBond NonConjugatedSingleBond ConjugatedDoubleBond AmideSingleBond NonConjugatedSingleBond NonConjugatedSingleBond NonConjugatedSingleBond NonConjugatedSingleBond NonConjugatedSingleBond NonConjugatedSingleBond NonConjugatedSingleBond NonConjugatedSingleBond ConjugatedSingleBond ConjugatedDoubleBond NonConjugatedSingleBond NonConjugatedSingleBond NonConjugatedSingleBond NonConjugatedSingleBond
M  BCL CHI  15   S  17   S  21   S  24   S  28   R  35   R  39   R  55   S
M  BCL DBI - - - - - - - - - -
M  END
> <ConfClashScore>
0.000707943 

> <ConfOneFourInteractionScore>
-0.985587 

> <ConfScore>
0.0490688 

> <ConfScorePBest>
0.00850649 

> <ConfTolerance>
2.4214 

$$$$
ACO.****
  PyMOL2.5          3D                             0

 85 87  0  0  0  0  0  0  0  0999 V2000
    4.8885    1.0790  -10.6382 N   0  0  0  1  0  0  0  0  0  0  0  0
    3.8392    1.9089  -10.5271 C   0  0  0  1  0  0  0  0  0  0  0  0
    3.8084    2.6894  -11.2137 H   0  0  0  1  0  0  0  0  0  0  0  0
    2.8356    1.8678   -9.6593 N   0  0  0  1  0  0  0  0  0  0  0  0
    2.9566    0.8337   -8.8256 C   0  0  0  1  0  0  0  0  0  0  0  0
    3.9885   -0.1143   -8.8114 C   0  0  0  1  0  0  0  0  0  0  0  0
    4.9773    0.0614   -9.7750 C   0  0  0  1  0  0  0  0  0  0  0  0
    6.0617   -0.7674   -9.8928 N   0  0  0  1  0  0  0  0  0  0  0  0
    6.7507   -0.5805  -10.5642 H   0  0  0  1  0  0  0  0  0  0  0  0
    6.1486   -1.5472   -9.3056 H   0  0  0  1  0  0  0  0  0  0  0  0
    3.7828   -1.0330   -7.7940 N   0  0  0  1  0  0  0  0  0  0  0  0
    2.6696   -0.6334   -7.2418 C   0  0  0  1  0  0  0  0  0  0  0  0
    2.2358   -1.1283   -6.4365 H   0  0  0  1  0  0  0  0  0  0  0  0
    2.1193    0.4797   -7.7993 N   0  0  0  1  0  0  0  0  0  0  0  0
    0.8905    1.1581   -7.3895 C   0  0  0  1  0  0  0  0  0  0  0  0
    0.2739    1.3292   -8.2471 H   0  0  0  1  0  0  0  0  0  0  0  0
    0.1399    0.3264   -6.3451 C   0  0  0  1  0  0  0  0  0  0  0  0
    0.4219   -0.7043   -6.4005 H   0  0  0  1  0  0  0  0  0  0  0  0
   -1.2750    0.4440   -6.5161 O   0  0  0  1  0  0  0  0  0  0  0  0
   -1.4801    0.5144   -7.4513 H   0  0  0  1  0  0  0  0  0  0  0  0
    0.5791    0.9372   -5.0403 C   0  0  0  1  0  0  0  0  0  0  0  0
    1.5052    0.5158   -4.7094 H   0  0  0  1  0  0  0  0  0  0  0  0
   -0.4247    0.7581   -4.0177 O   0  0  0  1  0  0  0  0  0  0  0  0
    0.0032    0.4894   -2.4574 P   0  0  0  1  0  0  0  0  0  0  0  0
   -1.3670    0.0879   -1.6507 O   0  0  0  0  0  0  0  0  0  0  0  0
    0.9594   -0.6401   -2.4772 O   0  0  0  1  0  0  0  0  0  0  0  0
    0.5447    1.8509   -1.7664 O   0  5  0  1  0  0  0  0  0  0  0  0
    0.7434    2.4208   -5.4009 C   0  0  0  1  0  0  0  0  0  0  0  0
   -0.1919    2.9350   -5.3254 H   0  0  0  1  0  0  0  0  0  0  0  0
    1.1964    2.4060   -6.7274 O   0  0  0  1  0  0  0  0  0  0  0  0
    1.7334    3.0668   -4.5176 C   0  0  0  1  0  0  0  0  0  0  0  0
    2.7103    2.9491   -4.9380 H   0  0  0  1  0  0  0  0  0  0  0  0
    1.7011    2.6033   -3.5538 H   0  0  0  1  0  0  0  0  0  0  0  0
    1.4435    4.4670   -4.3791 O   0  0  0  1  0  0  0  0  0  0  0  0
    2.4533    5.6468   -4.6941 P   0  0  0  1  0  0  0  0  0  0  0  0
    2.4680    5.8343   -6.1655 O   0  0  0  0  0  0  0  0  0  0  0  0
    3.7423    5.4393   -3.9819 O   0  0  0  1  0  0  0  0  0  0  0  0
    1.7661    6.9205   -3.9965 O   0  0  0  1  0  0  0  0  0  0  0  0
    2.3722    8.3377   -3.4362 P   0  0  0  1  0  0  0  0  0  0  0  0
    2.5528    8.3404   -1.9672 O   0  0  0  1  0  0  0  0  0  0  0  0
    3.6716    8.6802   -4.3411 O   0  5  0  1  0  0  0  0  0  0  0  0
    1.3028    9.4129   -3.8280 O   0  0  0  1  0  0  0  0  0  0  0  0
   -0.3326   11.1244   -3.6816 C   0  0  0  1  0  0  0  0  0  0  0  0
    0.4621   10.1312   -2.8992 C   0  0  0  1  0  0  0  0  0  0  0  0
    1.0673   10.6371   -2.1762 H   0  0  0  1  0  0  0  0  0  0  0  0
   -0.1953    9.4499   -2.4007 H   0  0  0  1  0  0  0  0  0  0  0  0
   -1.1312   12.0192   -2.7273 C   0  0  0  1  0  0  0  0  0  0  0  0
   -0.4871   12.7694   -2.3182 H   0  0  0  1  0  0  0  0  0  0  0  0
   -1.5343   11.4244   -1.9345 H   0  0  0  1  0  0  0  0  0  0  0  0
   -1.9296   12.4886   -3.2632 H   0  0  0  1  0  0  0  0  0  0  0  0
   -1.2942   10.3842   -4.6142 C   0  0  0  1  0  0  0  0  0  0  0  0
   -1.8639   11.0943   -5.1765 H   0  0  0  1  0  0  0  0  0  0  0  0
   -1.9559    9.7757   -4.0340 H   0  0  0  1  0  0  0  0  0  0  0  0
   -0.7350    9.7652   -5.2844 H   0  0  0  1  0  0  0  0  0  0  0  0
    0.6073   11.9830   -4.5119 C   0  0  0  1  0  0  0  0  0  0  0  0
    0.0747   12.8345   -4.8812 H   0  0  0  1  0  0  0  0  0  0  0  0
    1.6847   12.3846   -3.6851 O   0  0  0  1  0  0  0  0  0  0  0  0
    2.4101   12.6947   -4.2322 H   0  0  0  1  0  0  0  0  0  0  0  0
    1.1597   11.2036   -5.6695 C   0  0  0  1  0  0  0  0  0  0  0  0
    0.4948   10.8317   -6.6180 O   0  0  0  1  0  0  0  0  0  0  0  0
    2.4703   10.9216   -5.6147 N   0  0  0  1  0  0  0  0  0  0  0  0
    3.0031   11.2203   -4.8483 H   0  0  0  1  0  0  0  0  0  0  0  0
    3.1023   10.1732   -6.6909 C   0  0  0  1  0  0  0  0  0  0  0  0
    2.3629    9.9766   -7.4390 H   0  0  0  1  0  0  0  0  0  0  0  0
    3.4584    9.2477   -6.2888 H   0  0  0  1  0  0  0  0  0  0  0  0
    4.2738   10.8830   -7.3568 C   0  0  0  1  0  0  0  0  0  0  0  0
    5.0185   11.0811   -6.6145 H   0  0  0  1  0  0  0  0  0  0  0  0
    3.9235   11.8072   -7.7669 H   0  0  0  1  0  0  0  0  0  0  0  0
    4.9028   10.0742   -8.4641 C   0  0  0  1  0  0  0  0  0  0  0  0
    4.2594    9.7465   -9.4602 O   0  0  0  1  0  0  0  0  0  0  0  0
    6.1858    9.7462   -8.2865 N   0  0  0  1  0  0  0  0  0  0  0  0
    6.6381   10.0333   -7.4659 H   0  0  0  1  0  0  0  0  0  0  0  0
    6.9398    8.9721   -9.2758 C   0  0  0  1  0  0  0  0  0  0  0  0
    7.9622    9.2825   -9.2177 H   0  0  0  1  0  0  0  0  0  0  0  0
    6.5477    9.2131  -10.2417 H   0  0  0  1  0  0  0  0  0  0  0  0
    6.9109    7.4681   -9.1339 C   0  0  0  1  0  0  0  0  0  0  0  0
    5.8975    7.1305   -9.1978 H   0  0  0  1  0  0  0  0  0  0  0  0
    7.3176    7.1991   -8.1815 H   0  0  0  1  0  0  0  0  0  0  0  0
    7.8815    6.6729  -10.4365 S   0  0  0  1  0  0  0  0  0  0  0  0
    7.4827    4.9555  -10.2085 C   0  0  0  1  0  0  0  0  0  0  0  0
    6.8033    4.5465   -9.3061 O   0  0  0  1  0  0  0  0  0  0  0  0
    8.0950    4.0785  -11.2760 C   0  0  0  1  0  0  0  0  0  0  0  0
    8.6029    4.6897  -11.9925 H   0  0  0  1  0  0  0  0  0  0  0  0
    7.3235    3.5217  -11.7656 H   0  0  0  1  0  0  0  0  0  0  0  0
    8.7921    3.4031  -10.8258 H   0  0  0  1  0  0  0  0  0  0  0  0
  1  2  1  0  0  0  0
  1  7  2  0  0  0  0
  2  3  1  0  0  0  0
  2  4  2  0  0  0  0
  4  5  1  0  0  0  0
  5  6  2  0  0  0  0
  5 14  1  0  0  0  0
  6  7  1  0  0  0  0
  6 11  1  0  0  0  0
  7  8  1  0  0  0  0
  8  9  1  0  0  0  0
  8 10  1  0  0  0  0
 11 12  2  0  0  0  0
 12 13  1  0  0  0  0
 12 14  1  0  0  0  0
 14 15  1  0  0  0  0
 15 16  1  0  0  0  0
 15 17  1  0  0  0  0
 15 30  1  0  0  0  0
 17 18  1  0  0  0  0
 17 19  1  0  0  0  0
 17 21  1  0  0  0  0
 19 20  1  0  0  0  0
 21 22  1  0  0  0  0
 21 23  1  0  0  0  0
 21 28  1  0  0  0  0
 23 24  1  0  0  0  0
 24 25  1  0  0  0  0
 24 26  2  0  0  0  0
 24 27  1  0  0  0  0
 28 29  1  0  0  0  0
 28 30  1  0  0  0  0
 28 31  1  0  0  0  0
 31 32  1  0  0  0  0
 31 33  1  0  0  0  0
 31 34  1  0  0  0  0
 34 35  1  0  0  0  0
 35 36  1  0  0  0  0
 35 37  2  0  0  0  0
 35 38  1  0  0  0  0
 38 39  1  0  0  0  0
 39 40  2  0  0  0  0
 39 41  1  0  0  0  0
 39 42  1  0  0  0  0
 42 44  1  0  0  0  0
 43 44  1  0  0  0  0
 43 47  1  0  0  0  0
 43 51  1  0  0  0  0
 43 55  1  0  0  0  0
 44 45  1  0  0  0  0
 44 46  1  0  0  0  0
 47 48  1  0  0  0  0
 47 49  1  0  0  0  0
 47 50  1  0  0  0  0
 51 52  1  0  0  0  0
 51 53  1  0  0  0  0
 51 54  1  0  0  0  0
 55 56  1  0  0  0  0
 55 57  1  0  0  0  0
 55 59  1  0  0  0  0
 57 58  1  0  0  0  0
 59 60  2  0  0  0  0
 59 61  1  0  0  0  0
 61 62  1  0  0  0  0
 61 63  1  0  0  0  0
 63 64  1  0  0  0  0
 63 65  1  0  0  0  0
 63 66  1  0  0  0  0
 66 67  1  0  0  0  0
 66 68  1  0  0  0  0
 66 69  1  0  0  0  0
 69 70  2  0  0  0  0
 69 71  1  0  0  0  0
 71 72  1  0  0  0  0
 71 73  1  0  0  0  0
 73 74  1  0  0  0  0
 73 75  1  0  0  0  0
 73 76  1  0  0  0  0
 76 77  1  0  0  0  0
 76 78  1  0  0  0  0
 76 79  1  0  0  0  0
 79 80  1  0  0  0  0
 80 81  2  0  0  0  0
 80 82  1  0  0  0  0
 82 83  1  0  0  0  0
 82 84  1  0  0  0  0
 82 85  1  0  0  0  0
M  BCL ATM N_Tr2TrTrPi C_TrTrTrPi H_S N_Tr2TrTrPi C_TrTrTrPi C_TrTrTrPi C_TrTrTrPi N_TrTrTrPi2 H_S H_S N_Tr2TrTrPi C_TrTrTrPi H_S N_TrTrTrPi2 C_TeTeTeTe H_S C_TeTeTeTe H_S O_Te2Te2TeTe H_S C_TeTeTeTe H_S O_Tr2TrTrPi2 P_TeTeTeTePi O_Te2Te2TeTe O_Tr2Tr2TrPi O_Te2Te2Te2Te C_TeTeTeTe H_S O_Te2Te2TeTe C_TeTeTeTe H_S H_S O_Tr2TrTrPi2 P_TeTeTeTePi O_Te2Te2TeTe O_Tr2Tr2TrPi O_Tr2TrTrPi2 P_TeTeTeTePi O_Tr2Tr2TrPi O_Te2Te2Te2Te O_Tr2TrTrPi2 C_TeTeTeTe C_TeTeTeTe H_S H_S C_TeTeTeTe H_S H_S H_S C_TeTeTeTe H_S H_S H_S C_TeTeTeTe H_S O_Te2Te2TeTe H_S C_TrTrTrPi O_Tr2Tr2TrPi N_TrTrTrPi2 H_S C_TeTeTeTe H_S H_S C_TeTeTeTe H_S H_S C_TrTrTrPi O_Tr2Tr2TrPi N_TrTrTrPi2 H_S C_TeTeTeTe H_S H_S C_TeTeTeTe H_S H_S S_Te2Te2TeTe C_TrTrTrPi O_Tr2Tr2TrPi C_TeTeTeTe H_S H_S H_S
M  BCL BND AromaticSingleBond AromaticDoubleBond NonConjugatedSingleBond AromaticDoubleBond AromaticSingleBond AromaticDoubleBond AromaticSingleBond AromaticSingleBond AromaticSingleBond ConjugatedSingleBond NonConjugatedSingleBond NonConjugatedSingleBond AromaticDoubleBond NonConjugatedSingleBond AromaticSingleBond NonConjugatedSingleBond NonConjugatedSingleBond NonConjugatedSingleBondInRing NonConjugatedSingleBondInRing NonConjugatedSingleBond NonConjugatedSingleBond NonConjugatedSingleBondInRing NonConjugatedSingleBond NonConjugatedSingleBond NonConjugatedSingleBond NonConjugatedSingleBondInRing ConjugatedSingleBond ConjugatedSingleBond ConjugatedDoubleBond ConjugatedSingleBond NonConjugatedSingleBond NonConjugatedSingleBondInRing NonConjugatedSingleBond NonConjugatedSingleBond NonConjugatedSingleBond NonConjugatedSingleBond ConjugatedSingleBond ConjugatedSingleBond ConjugatedDoubleBond ConjugatedSingleBond ConjugatedSingleBond ConjugatedDoubleBond ConjugatedSingleBond ConjugatedSingleBond NonConjugatedSingleBond NonConjugatedSingleBond NonConjugatedSingleBond NonConjugatedSingleBond NonConjugatedSingleBond NonConjugatedSingleBond NonConjugatedSingleBond NonConjugatedSingleBond NonConjugatedSingleBond NonConjugatedSingleBond NonConjugatedSingleBond NonConjugatedSingleBond NonConjugatedSingleBond NonConjugatedSingleBond NonConjugatedSingleBond NonConjugatedSingleBond NonConjugatedSingleBond ConjugatedDoubleBond AmideSingleBond NonConjugatedSingleBond NonConjugatedSingleBond NonConjugatedSingleBond NonConjugatedSingleBond NonConjugatedSingleBond NonConjugatedSingleBond NonConjugatedSingleBond NonConjugatedSingleBond ConjugatedDoubleBond AmideSingleBond NonConjugatedSingleBond NonConjugatedSingleBond NonConjugatedSingleBond NonConjugatedSingleBond NonConjugatedSingleBond NonConjugatedSingleBond NonConjugatedSingleBond NonConjugatedSingleBond ConjugatedSingleBond ConjugatedDoubleBond NonConjugatedSingleBond NonConjugatedSingleBond NonConjugatedSingleBond NonConjugatedSingleBond
M  BCL CHI  15   S  17   S  21   S  24   S  28   R  35   R  39   R  55   S
M  BCL DBI - - - - - - - - - -
M  END
> <ConfClashScore>
0 

> <ConfOneFourInteractionScore>
-0.97761 

> <ConfScore>
0.0499328 

> <ConfScorePBest>
0.00840348 

> <ConfTolerance>
2.59113 

$$$$
ACO.****
  PyMOL2.5          3D                             0

 85 87  0  0  0  0  0  0  0  0999 V2000
    4.8732    1.1108  -10.6607 N   0  0  0  1  0  0  0  0  0  0  0  0
    3.8173    1.9301  -10.5354 C   0  0  0  1  0  0  0  0  0  0  0  0
    3.7729    2.7142  -11.2172 H   0  0  0  1  0  0  0  0  0  0  0  0
    2.8221    1.8747   -9.6587 N   0  0  0  1  0  0  0  0  0  0  0  0
    2.9604    0.8372   -8.8321 C   0  0  0  1  0  0  0  0  0  0  0  0
    4.0012   -0.1011   -8.8326 C   0  0  0  1  0  0  0  0  0  0  0  0
    4.9795    0.0893   -9.8041 C   0  0  0  1  0  0  0  0  0  0  0  0
    6.0443   -0.7954   -9.8536 N   0  0  0  1  0  0  0  0  0  0  0  0
    6.7401   -0.6870  -10.5351 H   0  0  0  1  0  0  0  0  0  0  0  0
    6.1018   -1.5296   -9.2070 H   0  0  0  1  0  0  0  0  0  0  0  0
    3.8135   -1.0274   -7.8186 N   0  0  0  1  0  0  0  0  0  0  0  0
    2.7016   -0.6414   -7.2540 C   0  0  0  1  0  0  0  0  0  0  0  0
    2.2799   -1.1449   -6.4477 H   0  0  0  1  0  0  0  0  0  0  0  0
    2.1359    0.4696   -7.8002 N   0  0  0  1  0  0  0  0  0  0  0  0
    0.9094    1.1749   -7.4170 C   0  0  0  1  0  0  0  0  0  0  0  0
    0.3253    0.5515   -6.7727 H   0  0  0  1  0  0  0  0  0  0  0  0
    1.2512    2.4983   -6.7142 C   0  0  0  1  0  0  0  0  0  0  0  0
    2.1477    2.9263   -7.1119 H   0  0  0  1  0  0  0  0  0  0  0  0
    1.3964    2.3111   -5.3039 O   0  0  0  1  0  0  0  0  0  0  0  0
    2.2705    1.9618   -5.1153 H   0  0  0  1  0  0  0  0  0  0  0  0
    0.0439    3.3632   -7.0307 C   0  0  0  1  0  0  0  0  0  0  0  0
    0.3135    4.3974   -7.0816 H   0  0  0  1  0  0  0  0  0  0  0  0
   -1.0062    3.1826   -6.0364 O   0  0  0  1  0  0  0  0  0  0  0  0
   -1.7629    1.7303   -5.9478 P   0  0  0  1  0  0  0  0  0  0  0  0
   -3.0093    2.2448   -5.0143 O   0  0  0  0  0  0  0  0  0  0  0  0
   -2.2743    1.3645   -7.2876 O   0  0  0  1  0  0  0  0  0  0  0  0
   -0.8781    0.6534   -5.1221 O   0  5  0  1  0  0  0  0  0  0  0  0
   -0.4030    2.8346   -8.4161 C   0  0  0  1  0  0  0  0  0  0  0  0
   -1.4704    2.7764   -8.4635 H   0  0  0  1  0  0  0  0  0  0  0  0
    0.1736    1.5238   -8.5541 O   0  0  0  1  0  0  0  0  0  0  0  0
    0.0956    3.7350   -9.4981 C   0  0  0  1  0  0  0  0  0  0  0  0
   -0.6104    4.5196   -9.6735 H   0  0  0  1  0  0  0  0  0  0  0  0
    0.2401    3.1764  -10.3992 H   0  0  0  1  0  0  0  0  0  0  0  0
    1.3581    4.2961   -9.0571 O   0  0  0  1  0  0  0  0  0  0  0  0
    2.3021    5.1195  -10.0804 P   0  0  0  1  0  0  0  0  0  0  0  0
    1.6198    6.4310  -10.3537 O   0  0  0  0  0  0  0  0  0  0  0  0
    2.4863    4.3025  -11.2646 O   0  0  0  1  0  0  0  0  0  0  0  0
    3.6711    5.2611   -9.2515 O   0  0  0  1  0  0  0  0  0  0  0  0
    4.2979    6.4779   -8.3481 P   0  0  0  1  0  0  0  0  0  0  0  0
    3.2825    7.0386   -7.4289 O   0  0  0  1  0  0  0  0  0  0  0  0
    5.3551    5.7726   -7.3435 O   0  5  0  1  0  0  0  0  0  0  0  0
    5.0616    7.5385   -9.2244 O   0  0  0  1  0  0  0  0  0  0  0  0
    6.1851    9.5393   -9.7261 C   0  0  0  1  0  0  0  0  0  0  0  0
    5.8119    8.6068   -8.6069 C   0  0  0  1  0  0  0  0  0  0  0  0
    6.6907    8.2208   -8.1340 H   0  0  0  1  0  0  0  0  0  0  0  0
    5.2105    9.1150   -7.8824 H   0  0  0  1  0  0  0  0  0  0  0  0
    4.9544   10.2497  -10.3022 C   0  0  0  1  0  0  0  0  0  0  0  0
    5.2444   10.8368  -11.1485 H   0  0  0  1  0  0  0  0  0  0  0  0
    4.5286   10.8869   -9.5555 H   0  0  0  1  0  0  0  0  0  0  0  0
    4.2314    9.5213  -10.6047 H   0  0  0  1  0  0  0  0  0  0  0  0
    6.9265    8.7635  -10.8173 C   0  0  0  1  0  0  0  0  0  0  0  0
    7.7545    9.3435  -11.1680 H   0  0  0  1  0  0  0  0  0  0  0  0
    6.2595    8.5667  -11.6305 H   0  0  0  1  0  0  0  0  0  0  0  0
    7.2839    7.8381  -10.4165 H   0  0  0  1  0  0  0  0  0  0  0  0
    7.1032   10.6229   -9.1849 C   0  0  0  1  0  0  0  0  0  0  0  0
    6.6559   11.0659   -8.3197 H   0  0  0  1  0  0  0  0  0  0  0  0
    8.3471   10.0253   -8.8571 O   0  0  0  1  0  0  0  0  0  0  0  0
    9.0112   10.7092   -8.7440 H   0  0  0  1  0  0  0  0  0  0  0  0
    7.3456   11.6992  -10.2321 C   0  0  0  1  0  0  0  0  0  0  0  0
    8.3720   11.7217  -10.8912 O   0  0  0  1  0  0  0  0  0  0  0  0
    6.3653   12.6053  -10.3748 N   0  0  0  1  0  0  0  0  0  0  0  0
    5.5628   12.5255   -9.8181 H   0  0  0  1  0  0  0  0  0  0  0  0
    6.4530   13.7019  -11.3276 C   0  0  0  1  0  0  0  0  0  0  0  0
    7.0985   13.3992  -12.1255 H   0  0  0  1  0  0  0  0  0  0  0  0
    6.8773   14.5463  -10.8257 H   0  0  0  1  0  0  0  0  0  0  0  0
    5.1187   14.1293  -11.9318 C   0  0  0  1  0  0  0  0  0  0  0  0
    4.4675   14.4562  -11.1483 H   0  0  0  1  0  0  0  0  0  0  0  0
    4.6790   13.2948  -12.4370 H   0  0  0  1  0  0  0  0  0  0  0  0
    5.3162   15.2715  -12.9288 C   0  0  0  1  0  0  0  0  0  0  0  0
    6.4352   15.6969  -13.1641 O   0  0  0  1  0  0  0  0  0  0  0  0
    4.2158   15.8260  -13.4452 N   0  0  0  1  0  0  0  0  0  0  0  0
    3.3499   15.5030  -13.1191 H   0  0  0  1  0  0  0  0  0  0  0  0
    4.2061   16.8725  -14.4547 C   0  0  0  1  0  0  0  0  0  0  0  0
    3.6980   16.5071  -15.3226 H   0  0  0  1  0  0  0  0  0  0  0  0
    5.2173   17.1140  -14.7079 H   0  0  0  1  0  0  0  0  0  0  0  0
    3.5085   18.1360  -13.9778 C   0  0  0  1  0  0  0  0  0  0  0  0
    4.0069   18.4764  -13.0944 H   0  0  0  1  0  0  0  0  0  0  0  0
    2.4950   17.8862  -13.7424 H   0  0  0  1  0  0  0  0  0  0  0  0
    3.4876   19.4970  -15.1687 S   0  0  0  1  0  0  0  0  0  0  0  0
    2.5257   18.8382  -16.4664 C   0  0  0  1  0  0  0  0  0  0  0  0
    1.9573   17.7765  -16.4056 O   0  0  0  1  0  0  0  0  0  0  0  0
    2.4035   19.7922  -17.6425 C   0  0  0  1  0  0  0  0  0  0  0  0
    3.2022   20.5035  -17.6100 H   0  0  0  1  0  0  0  0  0  0  0  0
    1.4664   20.3058  -17.5889 H   0  0  0  1  0  0  0  0  0  0  0  0
    2.4559   19.2390  -18.5570 H   0  0  0  1  0  0  0  0  0  0  0  0
  1  2  1  0  0  0  0
  1  7  2  0  0  0  0
  2  3  1  0  0  0  0
  2  4  2  0  0  0  0
  4  5  1  0  0  0  0
  5  6  2  0  0  0  0
  5 14  1  0  0  0  0
  6  7  1  0  0  0  0
  6 11  1  0  0  0  0
  7  8  1  0  0  0  0
  8  9  1  0  0  0  0
  8 10  1  0  0  0  0
 11 12  2  0  0  0  0
 12 13  1  0  0  0  0
 12 14  1  0  0  0  0
 14 15  1  0  0  0  0
 15 16  1  0  0  0  0
 15 17  1  0  0  0  0
 15 30  1  0  0  0  0
 17 18  1  0  0  0  0
 17 19  1  0  0  0  0
 17 21  1  0  0  0  0
 19 20  1  0  0  0  0
 21 22  1  0  0  0  0
 21 23  1  0  0  0  0
 21 28  1  0  0  0  0
 23 24  1  0  0  0  0
 24 25  1  0  0  0  0
 24 26  2  0  0  0  0
 24 27  1  0  0  0  0
 28 29  1  0  0  0  0
 28 30  1  0  0  0  0
 28 31  1  0  0  0  0
 31 32  1  0  0  0  0
 31 33  1  0  0  0  0
 31 34  1  0  0  0  0
 34 35  1  0  0  0  0
 35 36  1  0  0  0  0
 35 37  2  0  0  0  0
 35 38  1  0  0  0  0
 38 39  1  0  0  0  0
 39 40  2  0  0  0  0
 39 41  1  0  0  0  0
 39 42  1  0  0  0  0
 42 44  1  0  0  0  0
 43 44  1  0  0  0  0
 43 47  1  0  0  0  0
 43 51  1  0  0  0  0
 43 55  1  0  0  0  0
 44 45  1  0  0  0  0
 44 46  1  0  0  0  0
 47 48  1  0  0  0  0
 47 49  1  0  0  0  0
 47 50  1  0  0  0  0
 51 52  1  0  0  0  0
 51 53  1  0  0  0  0
 51 54  1  0  0  0  0
 55 56  1  0  0  0  0
 55 57  1  0  0  0  0
 55 59  1  0  0  0  0
 57 58  1  0  0  0  0
 59 60  2  0  0  0  0
 59 61  1  0  0  0  0
 61 62  1  0  0  0  0
 61 63  1  0  0  0  0
 63 64  1  0  0  0  0
 63 65  1  0  0  0  0
 63 66  1  0  0  0  0
 66 67  1  0  0  0  0
 66 68  1  0  0  0  0
 66 69  1  0  0  0  0
 69 70  2  0  0  0  0
 69 71  1  0  0  0  0
 71 72  1  0  0  0  0
 71 73  1  0  0  0  0
 73 74  1  0  0  0  0
 73 75  1  0  0  0  0
 73 76  1  0  0  0  0
 76 77  1  0  0  0  0
 76 78  1  0  0  0  0
 76 79  1  0  0  0  0
 79 80  1  0  0  0  0
 80 81  2  0  0  0  0
 80 82  1  0  0  0  0
 82 83  1  0  0  0  0
 82 84  1  0  0  0  0
 82 85  1  0  0  0  0
M  BCL ATM N_Tr2TrTrPi C_TrTrTrPi H_S N_Tr2TrTrPi C_TrTrTrPi C_TrTrTrPi C_TrTrTrPi N_TrTrTrPi2 H_S H_S N_Tr2TrTrPi C_TrTrTrPi H_S N_TrTrTrPi2 C_TeTeTeTe H_S C_TeTeTeTe H_S O_Te2Te2TeTe H_S C_TeTeTeTe H_S O_Tr2TrTrPi2 P_TeTeTeTePi O_Te2Te2TeTe O_Tr2Tr2TrPi O_Te2Te2Te2Te C_TeTeTeTe H_S O_Te2Te2TeTe C_TeTeTeTe H_S H_S O_Tr2TrTrPi2 P_TeTeTeTePi O_Te2Te2TeTe O_Tr2Tr2TrPi O_Tr2TrTrPi2 P_TeTeTeTePi O_Tr2Tr2TrPi O_Te2Te2Te2Te O_Tr2TrTrPi2 C_TeTeTeTe C_TeTeTeTe H_S H_S C_TeTeTeTe H_S H_S H_S C_TeTeTeTe H_S H_S H_S C_TeTeTeTe H_S O_Te2Te2TeTe H_S C_TrTrTrPi O_Tr2Tr2TrPi N_TrTrTrPi2 H_S C_TeTeTeTe H_S H_S C_TeTeTeTe H_S H_S C_TrTrTrPi O_Tr2Tr2TrPi N_TrTrTrPi2 H_S C_TeTeTeTe H_S H_S C_TeTeTeTe H_S H_S S_Te2Te2TeTe C_TrTrTrPi O_Tr2Tr2TrPi C_TeTeTeTe H_S H_S H_S
M  BCL BND AromaticSingleBond AromaticDoubleBond NonConjugatedSingleBond AromaticDoubleBond AromaticSingleBond AromaticDoubleBond AromaticSingleBond AromaticSingleBond AromaticSingleBond ConjugatedSingleBond NonConjugatedSingleBond NonConjugatedSingleBond AromaticDoubleBond NonConjugatedSingleBond AromaticSingleBond NonConjugatedSingleBond NonConjugatedSingleBond NonConjugatedSingleBondInRing NonConjugatedSingleBondInRing NonConjugatedSingleBond NonConjugatedSingleBond NonConjugatedSingleBondInRing NonConjugatedSingleBond NonConjugatedSingleBond NonConjugatedSingleBond NonConjugatedSingleBondInRing ConjugatedSingleBond ConjugatedSingleBond ConjugatedDoubleBond ConjugatedSingleBond NonConjugatedSingleBond NonConjugatedSingleBondInRing NonConjugatedSingleBond NonConjugatedSingleBond NonConjugatedSingleBond NonConjugatedSingleBond ConjugatedSingleBond ConjugatedSingleBond ConjugatedDoubleBond ConjugatedSingleBond ConjugatedSingleBond ConjugatedDoubleBond ConjugatedSingleBond ConjugatedSingleBond NonConjugatedSingleBond NonConjugatedSingleBond NonConjugatedSingleBond NonConjugatedSingleBond NonConjugatedSingleBond NonConjugatedSingleBond NonConjugatedSingleBond NonConjugatedSingleBond NonConjugatedSingleBond NonConjugatedSingleBond NonConjugatedSingleBond NonConjugatedSingleBond NonConjugatedSingleBond NonConjugatedSingleBond NonConjugatedSingleBond NonConjugatedSingleBond NonConjugatedSingleBond ConjugatedDoubleBond AmideSingleBond NonConjugatedSingleBond NonConjugatedSingleBond NonConjugatedSingleBond NonConjugatedSingleBond NonConjugatedSingleBond NonConjugatedSingleBond NonConjugatedSingleBond NonConjugatedSingleBond ConjugatedDoubleBond AmideSingleBond NonConjugatedSingleBond NonConjugatedSingleBond NonConjugatedSingleBond NonConjugatedSingleBond NonConjugatedSingleBond NonConjugatedSingleBond NonConjugatedSingleBond NonConjugatedSingleBond ConjugatedSingleBond ConjugatedDoubleBond NonConjugatedSingleBond NonConjugatedSingleBond NonConjugatedSingleBond NonConjugatedSingleBond
M  BCL CHI  15   S  17   S  21   S  24   S  28   R  35   R  39   R  55   S
M  BCL DBI - - - - - - - - - -
M  END
> <ConfClashScore>
0 

> <ConfOneFourInteractionScore>
-0.973564 

> <ConfScore>
0.0510524 

> <ConfScorePBest>
0.00830048 

> <ConfTolerance>
2.53822 

$$$$
ACO.****
  PyMOL2.5          3D                             0

 85 87  0  0  0  0  0  0  0  0999 V2000
    4.8735    1.1198  -10.6748 N   0  0  0  1  0  0  0  0  0  0  0  0
    3.8151    1.9352  -10.5447 C   0  0  0  1  0  0  0  0  0  0  0  0
    3.7654    2.7198  -11.2256 H   0  0  0  1  0  0  0  0  0  0  0  0
    2.8235    1.8754   -9.6644 N   0  0  0  1  0  0  0  0  0  0  0  0
    2.9685    0.8376   -8.8392 C   0  0  0  1  0  0  0  0  0  0  0  0
    4.0126   -0.0970   -8.8446 C   0  0  0  1  0  0  0  0  0  0  0  0
    4.9866    0.0978   -9.8195 C   0  0  0  1  0  0  0  0  0  0  0  0
    6.0103   -0.7936   -9.8282 N   0  0  0  1  0  0  0  0  0  0  0  0
    6.6987   -0.7425  -10.5239 H   0  0  0  1  0  0  0  0  0  0  0  0
    6.0611   -1.4882   -9.1387 H   0  0  0  1  0  0  0  0  0  0  0  0
    3.8320   -1.0249   -7.8308 N   0  0  0  1  0  0  0  0  0  0  0  0
    2.7210   -0.6434   -7.2616 C   0  0  0  1  0  0  0  0  0  0  0  0
    2.3040   -1.1492   -6.4542 H   0  0  0  1  0  0  0  0  0  0  0  0
    2.1492    0.4661   -7.8046 N   0  0  0  1  0  0  0  0  0  0  0  0
    0.9317    1.1610   -7.4193 C   0  0  0  1  0  0  0  0  0  0  0  0
    0.3768    0.5557   -6.7332 H   0  0  0  1  0  0  0  0  0  0  0  0
    1.2629    2.5185   -6.7923 C   0  0  0  1  0  0  0  0  0  0  0  0
    2.2632    2.5321   -6.4127 H   0  0  0  1  0  0  0  0  0  0  0  0
    0.3483    2.8339   -5.7392 O   0  0  0  1  0  0  0  0  0  0  0  0
    0.0256    2.0221   -5.3411 H   0  0  0  1  0  0  0  0  0  0  0  0
    1.1097    3.4752   -7.9455 C   0  0  0  1  0  0  0  0  0  0  0  0
    2.0066    3.5255   -8.5267 H   0  0  0  1  0  0  0  0  0  0  0  0
    0.7601    4.8004   -7.4811 O   0  0  0  1  0  0  0  0  0  0  0  0
    1.5653    6.1532   -7.9405 P   0  0  0  1  0  0  0  0  0  0  0  0
    0.7244    7.4888   -7.4949 O   0  0  0  0  0  0  0  0  0  0  0  0
    2.9927    6.2335   -7.5576 O   0  0  0  1  0  0  0  0  0  0  0  0
    1.5660    6.2882   -9.5549 O   0  5  0  1  0  0  0  0  0  0  0  0
   -0.0381    2.8505   -8.7518 C   0  0  0  1  0  0  0  0  0  0  0  0
   -0.9861    3.1642   -8.3672 H   0  0  0  1  0  0  0  0  0  0  0  0
    0.1333    1.4694   -8.5841 O   0  0  0  1  0  0  0  0  0  0  0  0
    0.0634    3.2250  -10.1938 C   0  0  0  1  0  0  0  0  0  0  0  0
    1.0230    2.9459  -10.5761 H   0  0  0  1  0  0  0  0  0  0  0  0
   -0.0731    4.2802  -10.3068 H   0  0  0  1  0  0  0  0  0  0  0  0
   -0.9765    2.5145  -10.9065 O   0  0  0  1  0  0  0  0  0  0  0  0
   -1.2941    2.7502  -12.4850 P   0  0  0  1  0  0  0  0  0  0  0  0
   -1.4551    4.1899  -12.7991 O   0  0  0  0  0  0  0  0  0  0  0  0
   -2.3859    1.8335  -12.7569 O   0  0  0  1  0  0  0  0  0  0  0  0
    0.0615    2.2952  -13.2417 O   0  0  0  1  0  0  0  0  0  0  0  0
    1.0852    3.3133  -14.0196 P   0  0  0  1  0  0  0  0  0  0  0  0
    0.6277    3.6048  -15.3966 O   0  0  0  1  0  0  0  0  0  0  0  0
    1.2826    4.6308  -13.0978 O   0  5  0  1  0  0  0  0  0  0  0  0
    2.4562    2.5485  -13.9919 O   0  0  0  1  0  0  0  0  0  0  0  0
    4.2735    1.2214  -14.7410 C   0  0  0  1  0  0  0  0  0  0  0  0
    2.8574    1.6094  -15.0130 C   0  0  0  1  0  0  0  0  0  0  0  0
    2.7836    2.0664  -15.9777 H   0  0  0  1  0  0  0  0  0  0  0  0
    2.2294    0.7437  -14.9789 H   0  0  0  1  0  0  0  0  0  0  0  0
    4.3931    0.6495  -13.3257 C   0  0  0  1  0  0  0  0  0  0  0  0
    3.6918    1.1388  -12.6824 H   0  0  0  1  0  0  0  0  0  0  0  0
    5.3854    0.8101  -12.9590 H   0  0  0  1  0  0  0  0  0  0  0  0
    4.1855   -0.3999  -13.3466 H   0  0  0  1  0  0  0  0  0  0  0  0
    5.1767    2.4594  -14.8735 C   0  0  0  1  0  0  0  0  0  0  0  0
    4.8642    3.2060  -14.1736 H   0  0  0  1  0  0  0  0  0  0  0  0
    5.1033    2.8494  -15.8672 H   0  0  0  1  0  0  0  0  0  0  0  0
    6.1908    2.1841  -14.6718 H   0  0  0  1  0  0  0  0  0  0  0  0
    4.7169    0.1631  -15.7574 C   0  0  0  1  0  0  0  0  0  0  0  0
    4.2486   -0.7619  -15.4931 H   0  0  0  1  0  0  0  0  0  0  0  0
    4.3378    0.5191  -17.0849 O   0  0  0  1  0  0  0  0  0  0  0  0
    3.4106    0.3105  -17.2203 H   0  0  0  1  0  0  0  0  0  0  0  0
    6.2224   -0.0355  -15.6873 C   0  0  0  1  0  0  0  0  0  0  0  0
    6.8320    0.1086  -14.6403 O   0  0  0  1  0  0  0  0  0  0  0  0
    6.8174   -0.3732  -16.8349 N   0  0  0  1  0  0  0  0  0  0  0  0
    6.2672   -0.4836  -17.6383 H   0  0  0  1  0  0  0  0  0  0  0  0
    8.2542   -0.5826  -16.9334 C   0  0  0  1  0  0  0  0  0  0  0  0
    8.4686   -1.6044  -16.6992 H   0  0  0  1  0  0  0  0  0  0  0  0
    8.7429    0.0559  -16.2274 H   0  0  0  1  0  0  0  0  0  0  0  0
    8.7940   -0.2774  -18.3211 C   0  0  0  1  0  0  0  0  0  0  0  0
    8.5693    0.7389  -18.5693 H   0  0  0  1  0  0  0  0  0  0  0  0
    8.3281   -0.9296  -19.0300 H   0  0  0  1  0  0  0  0  0  0  0  0
   10.2958   -0.4809  -18.3706 C   0  0  0  1  0  0  0  0  0  0  0  0
   11.0670    0.3290  -17.8578 O   0  0  0  1  0  0  0  0  0  0  0  0
   10.7117   -1.5836  -19.0000 N   0  0  0  1  0  0  0  0  0  0  0  0
   10.0473   -2.2472  -19.2804 H   0  0  0  1  0  0  0  0  0  0  0  0
   12.1159   -1.8333  -19.2835 C   0  0  0  1  0  0  0  0  0  0  0  0
   12.5487   -2.2732  -18.4094 H   0  0  0  1  0  0  0  0  0  0  0  0
   12.5798   -0.8883  -19.4749 H   0  0  0  1  0  0  0  0  0  0  0  0
   12.4273   -2.7399  -20.4528 C   0  0  0  1  0  0  0  0  0  0  0  0
   11.5761   -3.3655  -20.6228 H   0  0  0  1  0  0  0  0  0  0  0  0
   13.2685   -3.3456  -20.1875 H   0  0  0  1  0  0  0  0  0  0  0  0
   12.8156   -1.8894  -22.0010 S   0  0  0  1  0  0  0  0  0  0  0  0
   14.5734   -1.8373  -21.9672 C   0  0  0  1  0  0  0  0  0  0  0  0
   15.2623   -2.3413  -21.1217 O   0  0  0  1  0  0  0  0  0  0  0  0
   15.1696   -1.0716  -23.1429 C   0  0  0  1  0  0  0  0  0  0  0  0
   15.5619   -1.7640  -23.8581 H   0  0  0  1  0  0  0  0  0  0  0  0
   15.9565   -0.4368  -22.7926 H   0  0  0  1  0  0  0  0  0  0  0  0
   14.4088   -0.4765  -23.6033 H   0  0  0  1  0  0  0  0  0  0  0  0
  1  2  1  0  0  0  0
  1  7  2  0  0  0  0
  2  3  1  0  0  0  0
  2  4  2  0  0  0  0
  4  5  1  0  0  0  0
  5  6  2  0  0  0  0
  5 14  1  0  0  0  0
  6  7  1  0  0  0  0
  6 11  1  0  0  0  0
  7  8  1  0  0  0  0
  8  9  1  0  0  0  0
  8 10  1  0  0  0  0
 11 12  2  0  0  0  0
 12 13  1  0  0  0  0
 12 14  1  0  0  0  0
 14 15  1  0  0  0  0
 15 16  1  0  0  0  0
 15 17  1  0  0  0  0
 15 30  1  0  0  0  0
 17 18  1  0  0  0  0
 17 19  1  0  0  0  0
 17 21  1  0  0  0  0
 19 20  1  0  0  0  0
 21 22  1  0  0  0  0
 21 23  1  0  0  0  0
 21 28  1  0  0  0  0
 23 24  1  0  0  0  0
 24 25  1  0  0  0  0
 24 26  2  0  0  0  0
 24 27  1  0  0  0  0
 28 29  1  0  0  0  0
 28 30  1  0  0  0  0
 28 31  1  0  0  0  0
 31 32  1  0  0  0  0
 31 33  1  0  0  0  0
 31 34  1  0  0  0  0
 34 35  1  0  0  0  0
 35 36  1  0  0  0  0
 35 37  2  0  0  0  0
 35 38  1  0  0  0  0
 38 39  1  0  0  0  0
 39 40  2  0  0  0  0
 39 41  1  0  0  0  0
 39 42  1  0  0  0  0
 42 44  1  0  0  0  0
 43 44  1  0  0  0  0
 43 47  1  0  0  0  0
 43 51  1  0  0  0  0
 43 55  1  0  0  0  0
 44 45  1  0  0  0  0
 44 46  1  0  0  0  0
 47 48  1  0  0  0  0
 47 49  1  0  0  0  0
 47 50  1  0  0  0  0
 51 52  1  0  0  0  0
 51 53  1  0  0  0  0
 51 54  1  0  0  0  0
 55 56  1  0  0  0  0
 55 57  1  0  0  0  0
 55 59  1  0  0  0  0
 57 58  1  0  0  0  0
 59 60  2  0  0  0  0
 59 61  1  0  0  0  0
 61 62  1  0  0  0  0
 61 63  1  0  0  0  0
 63 64  1  0  0  0  0
 63 65  1  0  0  0  0
 63 66  1  0  0  0  0
 66 67  1  0  0  0  0
 66 68  1  0  0  0  0
 66 69  1  0  0  0  0
 69 70  2  0  0  0  0
 69 71  1  0  0  0  0
 71 72  1  0  0  0  0
 71 73  1  0  0  0  0
 73 74  1  0  0  0  0
 73 75  1  0  0  0  0
 73 76  1  0  0  0  0
 76 77  1  0  0  0  0
 76 78  1  0  0  0  0
 76 79  1  0  0  0  0
 79 80  1  0  0  0  0
 80 81  2  0  0  0  0
 80 82  1  0  0  0  0
 82 83  1  0  0  0  0
 82 84  1  0  0  0  0
 82 85  1  0  0  0  0
M  BCL ATM N_Tr2TrTrPi C_TrTrTrPi H_S N_Tr2TrTrPi C_TrTrTrPi C_TrTrTrPi C_TrTrTrPi N_TrTrTrPi2 H_S H_S N_Tr2TrTrPi C_TrTrTrPi H_S N_TrTrTrPi2 C_TeTeTeTe H_S C_TeTeTeTe H_S O_Te2Te2TeTe H_S C_TeTeTeTe H_S O_Tr2TrTrPi2 P_TeTeTeTePi O_Te2Te2TeTe O_Tr2Tr2TrPi O_Te2Te2Te2Te C_TeTeTeTe H_S O_Te2Te2TeTe C_TeTeTeTe H_S H_S O_Tr2TrTrPi2 P_TeTeTeTePi O_Te2Te2TeTe O_Tr2Tr2TrPi O_Tr2TrTrPi2 P_TeTeTeTePi O_Tr2Tr2TrPi O_Te2Te2Te2Te O_Tr2TrTrPi2 C_TeTeTeTe C_TeTeTeTe H_S H_S C_TeTeTeTe H_S H_S H_S C_TeTeTeTe H_S H_S H_S C_TeTeTeTe H_S O_Te2Te2TeTe H_S C_TrTrTrPi O_Tr2Tr2TrPi N_TrTrTrPi2 H_S C_TeTeTeTe H_S H_S C_TeTeTeTe H_S H_S C_TrTrTrPi O_Tr2Tr2TrPi N_TrTrTrPi2 H_S C_TeTeTeTe H_S H_S C_TeTeTeTe H_S H_S S_Te2Te2TeTe C_TrTrTrPi O_Tr2Tr2TrPi C_TeTeTeTe H_S H_S H_S
M  BCL BND AromaticSingleBond AromaticDoubleBond NonConjugatedSingleBond AromaticDoubleBond AromaticSingleBond AromaticDoubleBond AromaticSingleBond AromaticSingleBond AromaticSingleBond ConjugatedSingleBond NonConjugatedSingleBond NonConjugatedSingleBond AromaticDoubleBond NonConjugatedSingleBond AromaticSingleBond NonConjugatedSingleBond NonConjugatedSingleBond NonConjugatedSingleBondInRing NonConjugatedSingleBondInRing NonConjugatedSingleBond NonConjugatedSingleBond NonConjugatedSingleBondInRing NonConjugatedSingleBond NonConjugatedSingleBond NonConjugatedSingleBond NonConjugatedSingleBondInRing ConjugatedSingleBond ConjugatedSingleBond ConjugatedDoubleBond ConjugatedSingleBond NonConjugatedSingleBond NonConjugatedSingleBondInRing NonConjugatedSingleBond NonConjugatedSingleBond NonConjugatedSingleBond NonConjugatedSingleBond ConjugatedSingleBond ConjugatedSingleBond ConjugatedDoubleBond ConjugatedSingleBond ConjugatedSingleBond ConjugatedDoubleBond ConjugatedSingleBond ConjugatedSingleBond NonConjugatedSingleBond NonConjugatedSingleBond NonConjugatedSingleBond NonConjugatedSingleBond NonConjugatedSingleBond NonConjugatedSingleBond NonConjugatedSingleBond NonConjugatedSingleBond NonConjugatedSingleBond NonConjugatedSingleBond NonConjugatedSingleBond NonConjugatedSingleBond NonConjugatedSingleBond NonConjugatedSingleBond NonConjugatedSingleBond NonConjugatedSingleBond NonConjugatedSingleBond ConjugatedDoubleBond AmideSingleBond NonConjugatedSingleBond NonConjugatedSingleBond NonConjugatedSingleBond NonConjugatedSingleBond NonConjugatedSingleBond NonConjugatedSingleBond NonConjugatedSingleBond NonConjugatedSingleBond ConjugatedDoubleBond AmideSingleBond NonConjugatedSingleBond NonConjugatedSingleBond NonConjugatedSingleBond NonConjugatedSingleBond NonConjugatedSingleBond NonConjugatedSingleBond NonConjugatedSingleBond NonConjugatedSingleBond ConjugatedSingleBond ConjugatedDoubleBond NonConjugatedSingleBond NonConjugatedSingleBond NonConjugatedSingleBond NonConjugatedSingleBond
M  BCL CHI  15   S  17   S  21   S  24   S  28   R  35   R  39   R  55   S
M  BCL DBI - - - - - - - - - -
M  END
> <ConfClashScore>
0 

> <ConfOneFourInteractionScore>
-0.977293 

> <ConfScore>
0.0516249 

> <ConfScorePBest>
0.00819748 

> <ConfTolerance>
2.68917 

$$$$
ACO.****
  PyMOL2.5          3D                             0

 85 87  0  0  0  0  0  0  0  0999 V2000
    4.8850    1.0907  -10.6557 N   0  0  0  1  0  0  0  0  0  0  0  0
    3.8398    1.9241  -10.5328 C   0  0  0  1  0  0  0  0  0  0  0  0
    3.8042    2.7051  -11.2185 H   0  0  0  1  0  0  0  0  0  0  0  0
    2.8455    1.8858   -9.6541 N   0  0  0  1  0  0  0  0  0  0  0  0
    2.9720    0.8509   -8.8223 C   0  0  0  1  0  0  0  0  0  0  0  0
    4.0009   -0.1005   -8.8198 C   0  0  0  1  0  0  0  0  0  0  0  0
    4.9797    0.0724   -9.7939 C   0  0  0  1  0  0  0  0  0  0  0  0
    6.0361   -0.7871   -9.8790 N   0  0  0  1  0  0  0  0  0  0  0  0
    6.7142   -0.6627  -10.5754 H   0  0  0  1  0  0  0  0  0  0  0  0
    6.1166   -1.5289   -9.2436 H   0  0  0  1  0  0  0  0  0  0  0  0
    3.8031   -1.0191   -7.8006 N   0  0  0  1  0  0  0  0  0  0  0  0
    2.6973   -0.6161   -7.2362 C   0  0  0  1  0  0  0  0  0  0  0  0
    2.2706   -1.1100   -6.4265 H   0  0  0  1  0  0  0  0  0  0  0  0
    2.1448    0.4992   -7.7871 N   0  0  0  1  0  0  0  0  0  0  0  0
    0.8432    1.0702   -7.4286 C   0  0  0  1  0  0  0  0  0  0  0  0
    0.2006    1.0594   -8.2841 H   0  0  0  1  0  0  0  0  0  0  0  0
    0.2112    0.2946   -6.2638 C   0  0  0  1  0  0  0  0  0  0  0  0
    0.4631   -0.7443   -6.3104 H   0  0  0  1  0  0  0  0  0  0  0  0
   -1.2113    0.4411   -6.2583 O   0  0  0  1  0  0  0  0  0  0  0  0
   -1.5701    0.0561   -5.4554 H   0  0  0  1  0  0  0  0  0  0  0  0
    0.8291    0.9495   -5.0563 C   0  0  0  1  0  0  0  0  0  0  0  0
    1.7813    0.5168   -4.8302 H   0  0  0  1  0  0  0  0  0  0  0  0
   -0.0368    0.8372   -3.9062 O   0  0  0  1  0  0  0  0  0  0  0  0
    0.4974    0.3895   -2.4216 P   0  0  0  1  0  0  0  0  0  0  0  0
    1.7391    1.4009   -2.0681 O   0  0  0  0  0  0  0  0  0  0  0  0
   -0.6737    0.6025   -1.5421 O   0  0  0  1  0  0  0  0  0  0  0  0
    1.1530   -1.0870   -2.5419 O   0  5  0  1  0  0  0  0  0  0  0  0
    0.9789    2.4105   -5.4906 C   0  0  0  1  0  0  0  0  0  0  0  0
    0.1545    2.9938   -5.1370 H   0  0  0  1  0  0  0  0  0  0  0  0
    0.9918    2.3740   -6.9355 O   0  0  0  1  0  0  0  0  0  0  0  0
    2.2554    2.9841   -4.9694 C   0  0  0  1  0  0  0  0  0  0  0  0
    2.4423    3.9329   -5.4273 H   0  0  0  1  0  0  0  0  0  0  0  0
    3.0667    2.3194   -5.1810 H   0  0  0  1  0  0  0  0  0  0  0  0
    2.1117    3.1474   -3.5356 O   0  0  0  1  0  0  0  0  0  0  0  0
    3.3739    3.7022   -2.6881 P   0  0  0  1  0  0  0  0  0  0  0  0
    3.3602    5.1982   -2.7273 O   0  0  0  0  0  0  0  0  0  0  0  0
    4.5252    2.9571   -3.1987 O   0  0  0  1  0  0  0  0  0  0  0  0
    3.0251    3.3436   -1.1613 O   0  0  0  1  0  0  0  0  0  0  0  0
    2.4718    4.2478    0.0901 P   0  0  0  1  0  0  0  0  0  0  0  0
    1.0017    4.4166    0.0671 O   0  0  0  1  0  0  0  0  0  0  0  0
    2.8301    3.4711    1.4659 O   0  5  0  1  0  0  0  0  0  0  0  0
    3.2446    5.6185    0.0933 O   0  0  0  1  0  0  0  0  0  0  0  0
    3.5148    8.0104   -0.0589 C   0  0  0  1  0  0  0  0  0  0  0  0
    2.6529    6.8033   -0.4824 C   0  0  0  1  0  0  0  0  0  0  0  0
    1.6534    6.9243   -0.1202 H   0  0  0  1  0  0  0  0  0  0  0  0
    2.6388    6.7220   -1.5493 H   0  0  0  1  0  0  0  0  0  0  0  0
    2.8798    9.3243   -0.6343 C   0  0  0  1  0  0  0  0  0  0  0  0
    2.8357    9.2620   -1.7016 H   0  0  0  1  0  0  0  0  0  0  0  0
    3.4795   10.1638   -0.3508 H   0  0  0  1  0  0  0  0  0  0  0  0
    1.8910    9.4433   -0.2431 H   0  0  0  1  0  0  0  0  0  0  0  0
    4.9407    7.8428   -0.6708 C   0  0  0  1  0  0  0  0  0  0  0  0
    5.5373    8.6964   -0.4252 H   0  0  0  1  0  0  0  0  0  0  0  0
    4.8641    7.7556   -1.7345 H   0  0  0  1  0  0  0  0  0  0  0  0
    5.3982    6.9615   -0.2722 H   0  0  0  1  0  0  0  0  0  0  0  0
    3.6191    8.0822    1.4665 C   0  0  0  1  0  0  0  0  0  0  0  0
    4.0673    9.0153    1.7372 H   0  0  0  1  0  0  0  0  0  0  0  0
    2.3382    7.9654    2.0443 O   0  0  0  1  0  0  0  0  0  0  0  0
    2.4234    7.6866    2.9590 H   0  0  0  1  0  0  0  0  0  0  0  0
    4.5104    6.9490    1.9518 C   0  0  0  1  0  0  0  0  0  0  0  0
    4.0444    5.8639    2.2583 O   0  0  0  1  0  0  0  0  0  0  0  0
    5.8223    7.2258    2.0165 N   0  0  0  1  0  0  0  0  0  0  0  0
    6.0902    8.1668    1.9610 H   0  0  0  1  0  0  0  0  0  0  0  0
    6.8769    6.2336    2.1629 C   0  0  0  1  0  0  0  0  0  0  0  0
    6.9495    5.6600    1.2626 H   0  0  0  1  0  0  0  0  0  0  0  0
    6.6410    5.5857    2.9812 H   0  0  0  1  0  0  0  0  0  0  0  0
    8.2082    6.9163    2.4314 C   0  0  0  1  0  0  0  0  0  0  0  0
    8.5716    7.3464    1.5216 H   0  0  0  1  0  0  0  0  0  0  0  0
    8.9088    6.1906    2.7884 H   0  0  0  1  0  0  0  0  0  0  0  0
    8.0526    8.0040    3.4652 C   0  0  0  1  0  0  0  0  0  0  0  0
    7.6337    7.7557    4.5951 O   0  0  0  1  0  0  0  0  0  0  0  0
    8.3985    9.2390    3.0689 N   0  0  0  1  0  0  0  0  0  0  0  0
    8.6835    9.3530    2.1382 H   0  0  0  1  0  0  0  0  0  0  0  0
    8.3820   10.4205    3.9165 C   0  0  0  1  0  0  0  0  0  0  0  0
    7.5501   10.3398    4.5845 H   0  0  0  1  0  0  0  0  0  0  0  0
    8.2549   11.2784    3.2898 H   0  0  0  1  0  0  0  0  0  0  0  0
    9.6291   10.6217    4.7412 C   0  0  0  1  0  0  0  0  0  0  0  0
   10.4458   10.8818    4.1007 H   0  0  0  1  0  0  0  0  0  0  0  0
    9.8614    9.7196    5.2677 H   0  0  0  1  0  0  0  0  0  0  0  0
    9.3353   11.9575    5.9245 S   0  0  0  1  0  0  0  0  0  0  0  0
    9.9659   13.3781    5.1381 C   0  0  0  1  0  0  0  0  0  0  0  0
   10.5230   13.3606    4.0476 O   0  0  0  1  0  0  0  0  0  0  0  0
    9.6501   14.6945    5.8484 C   0  0  0  1  0  0  0  0  0  0  0  0
    9.0096   15.2889    5.2309 H   0  0  0  1  0  0  0  0  0  0  0  0
   10.5597   15.2263    6.0344 H   0  0  0  1  0  0  0  0  0  0  0  0
    9.1599   14.4896    6.7772 H   0  0  0  1  0  0  0  0  0  0  0  0
  1  2  1  0  0  0  0
  1  7  2  0  0  0  0
  2  3  1  0  0  0  0
  2  4  2  0  0  0  0
  4  5  1  0  0  0  0
  5  6  2  0  0  0  0
  5 14  1  0  0  0  0
  6  7  1  0  0  0  0
  6 11  1  0  0  0  0
  7  8  1  0  0  0  0
  8  9  1  0  0  0  0
  8 10  1  0  0  0  0
 11 12  2  0  0  0  0
 12 13  1  0  0  0  0
 12 14  1  0  0  0  0
 14 15  1  0  0  0  0
 15 16  1  0  0  0  0
 15 17  1  0  0  0  0
 15 30  1  0  0  0  0
 17 18  1  0  0  0  0
 17 19  1  0  0  0  0
 17 21  1  0  0  0  0
 19 20  1  0  0  0  0
 21 22  1  0  0  0  0
 21 23  1  0  0  0  0
 21 28  1  0  0  0  0
 23 24  1  0  0  0  0
 24 25  1  0  0  0  0
 24 26  2  0  0  0  0
 24 27  1  0  0  0  0
 28 29  1  0  0  0  0
 28 30  1  0  0  0  0
 28 31  1  0  0  0  0
 31 32  1  0  0  0  0
 31 33  1  0  0  0  0
 31 34  1  0  0  0  0
 34 35  1  0  0  0  0
 35 36  1  0  0  0  0
 35 37  2  0  0  0  0
 35 38  1  0  0  0  0
 38 39  1  0  0  0  0
 39 40  2  0  0  0  0
 39 41  1  0  0  0  0
 39 42  1  0  0  0  0
 42 44  1  0  0  0  0
 43 44  1  0  0  0  0
 43 47  1  0  0  0  0
 43 51  1  0  0  0  0
 43 55  1  0  0  0  0
 44 45  1  0  0  0  0
 44 46  1  0  0  0  0
 47 48  1  0  0  0  0
 47 49  1  0  0  0  0
 47 50  1  0  0  0  0
 51 52  1  0  0  0  0
 51 53  1  0  0  0  0
 51 54  1  0  0  0  0
 55 56  1  0  0  0  0
 55 57  1  0  0  0  0
 55 59  1  0  0  0  0
 57 58  1  0  0  0  0
 59 60  2  0  0  0  0
 59 61  1  0  0  0  0
 61 62  1  0  0  0  0
 61 63  1  0  0  0  0
 63 64  1  0  0  0  0
 63 65  1  0  0  0  0
 63 66  1  0  0  0  0
 66 67  1  0  0  0  0
 66 68  1  0  0  0  0
 66 69  1  0  0  0  0
 69 70  2  0  0  0  0
 69 71  1  0  0  0  0
 71 72  1  0  0  0  0
 71 73  1  0  0  0  0
 73 74  1  0  0  0  0
 73 75  1  0  0  0  0
 73 76  1  0  0  0  0
 76 77  1  0  0  0  0
 76 78  1  0  0  0  0
 76 79  1  0  0  0  0
 79 80  1  0  0  0  0
 80 81  2  0  0  0  0
 80 82  1  0  0  0  0
 82 83  1  0  0  0  0
 82 84  1  0  0  0  0
 82 85  1  0  0  0  0
M  BCL ATM N_Tr2TrTrPi C_TrTrTrPi H_S N_Tr2TrTrPi C_TrTrTrPi C_TrTrTrPi C_TrTrTrPi N_TrTrTrPi2 H_S H_S N_Tr2TrTrPi C_TrTrTrPi H_S N_TrTrTrPi2 C_TeTeTeTe H_S C_TeTeTeTe H_S O_Te2Te2TeTe H_S C_TeTeTeTe H_S O_Tr2TrTrPi2 P_TeTeTeTePi O_Te2Te2TeTe O_Tr2Tr2TrPi O_Te2Te2Te2Te C_TeTeTeTe H_S O_Te2Te2TeTe C_TeTeTeTe H_S H_S O_Tr2TrTrPi2 P_TeTeTeTePi O_Te2Te2TeTe O_Tr2Tr2TrPi O_Tr2TrTrPi2 P_TeTeTeTePi O_Tr2Tr2TrPi O_Te2Te2Te2Te O_Tr2TrTrPi2 C_TeTeTeTe C_TeTeTeTe H_S H_S C_TeTeTeTe H_S H_S H_S C_TeTeTeTe H_S H_S H_S C_TeTeTeTe H_S O_Te2Te2TeTe H_S C_TrTrTrPi O_Tr2Tr2TrPi N_TrTrTrPi2 H_S C_TeTeTeTe H_S H_S C_TeTeTeTe H_S H_S C_TrTrTrPi O_Tr2Tr2TrPi N_TrTrTrPi2 H_S C_TeTeTeTe H_S H_S C_TeTeTeTe H_S H_S S_Te2Te2TeTe C_TrTrTrPi O_Tr2Tr2TrPi C_TeTeTeTe H_S H_S H_S
M  BCL BND AromaticSingleBond AromaticDoubleBond NonConjugatedSingleBond AromaticDoubleBond AromaticSingleBond AromaticDoubleBond AromaticSingleBond AromaticSingleBond AromaticSingleBond ConjugatedSingleBond NonConjugatedSingleBond NonConjugatedSingleBond AromaticDoubleBond NonConjugatedSingleBond AromaticSingleBond NonConjugatedSingleBond NonConjugatedSingleBond NonConjugatedSingleBondInRing NonConjugatedSingleBondInRing NonConjugatedSingleBond NonConjugatedSingleBond NonConjugatedSingleBondInRing NonConjugatedSingleBond NonConjugatedSingleBond NonConjugatedSingleBond NonConjugatedSingleBondInRing ConjugatedSingleBond ConjugatedSingleBond ConjugatedDoubleBond ConjugatedSingleBond NonConjugatedSingleBond NonConjugatedSingleBondInRing NonConjugatedSingleBond NonConjugatedSingleBond NonConjugatedSingleBond NonConjugatedSingleBond ConjugatedSingleBond ConjugatedSingleBond ConjugatedDoubleBond ConjugatedSingleBond ConjugatedSingleBond ConjugatedDoubleBond ConjugatedSingleBond ConjugatedSingleBond NonConjugatedSingleBond NonConjugatedSingleBond NonConjugatedSingleBond NonConjugatedSingleBond NonConjugatedSingleBond NonConjugatedSingleBond NonConjugatedSingleBond NonConjugatedSingleBond NonConjugatedSingleBond NonConjugatedSingleBond NonConjugatedSingleBond NonConjugatedSingleBond NonConjugatedSingleBond NonConjugatedSingleBond NonConjugatedSingleBond NonConjugatedSingleBond NonConjugatedSingleBond ConjugatedDoubleBond AmideSingleBond NonConjugatedSingleBond NonConjugatedSingleBond NonConjugatedSingleBond NonConjugatedSingleBond NonConjugatedSingleBond NonConjugatedSingleBond NonConjugatedSingleBond NonConjugatedSingleBond ConjugatedDoubleBond AmideSingleBond NonConjugatedSingleBond NonConjugatedSingleBond NonConjugatedSingleBond NonConjugatedSingleBond NonConjugatedSingleBond NonConjugatedSingleBond NonConjugatedSingleBond NonConjugatedSingleBond ConjugatedSingleBond ConjugatedDoubleBond NonConjugatedSingleBond NonConjugatedSingleBond NonConjugatedSingleBond NonConjugatedSingleBond
M  BCL CHI  15   S  17   S  21   S  24   S  28   R  35   R  39   R  55   S
M  BCL DBI - - - - - - - - - -
M  END
> <ConfClashScore>
0 

> <ConfOneFourInteractionScore>
-0.973945 

> <ConfScore>
0.0517199 

> <ConfScorePBest>
0.00809448 

> <ConfTolerance>
2.6145 

$$$$
ACO.****
  PyMOL2.5          3D                             0

 85 87  0  0  0  0  0  0  0  0999 V2000
    4.8868    1.0614  -10.6275 N   0  0  0  1  0  0  0  0  0  0  0  0
    3.8400    1.8953  -10.5232 C   0  0  0  1  0  0  0  0  0  0  0  0
    3.8135    2.6725  -11.2138 H   0  0  0  1  0  0  0  0  0  0  0  0
    2.8342    1.8620   -9.6576 N   0  0  0  1  0  0  0  0  0  0  0  0
    2.9497    0.8318   -8.8184 C   0  0  0  1  0  0  0  0  0  0  0  0
    3.9784   -0.1195   -8.7968 C   0  0  0  1  0  0  0  0  0  0  0  0
    4.9701    0.0480   -9.7588 C   0  0  0  1  0  0  0  0  0  0  0  0
    6.0884   -0.7628   -9.9199 N   0  0  0  1  0  0  0  0  0  0  0  0
    6.7286   -0.5776  -10.6383 H   0  0  0  1  0  0  0  0  0  0  0  0
    6.2362   -1.5195   -9.3149 H   0  0  0  1  0  0  0  0  0  0  0  0
    3.7672   -1.0323   -7.7752 N   0  0  0  1  0  0  0  0  0  0  0  0
    2.6540   -0.6263   -7.2277 C   0  0  0  1  0  0  0  0  0  0  0  0
    2.2166   -1.1156   -6.4210 H   0  0  0  1  0  0  0  0  0  0  0  0
    2.1088    0.4859   -7.7922 N   0  0  0  1  0  0  0  0  0  0  0  0
    0.8804    1.1708   -7.3886 C   0  0  0  1  0  0  0  0  0  0  0  0
    0.1760    0.4541   -7.0213 H   0  0  0  1  0  0  0  0  0  0  0  0
    1.1759    2.2541   -6.3208 C   0  0  0  1  0  0  0  0  0  0  0  0
    2.1039    2.7494   -6.5165 H   0  0  0  1  0  0  0  0  0  0  0  0
    1.2023    1.6930   -5.0057 O   0  0  0  1  0  0  0  0  0  0  0  0
    0.3034    1.5606   -4.6957 H   0  0  0  1  0  0  0  0  0  0  0  0
   -0.0258    3.2194   -6.4972 C   0  0  0  1  0  0  0  0  0  0  0  0
    0.2898    4.2384   -6.4136 H   0  0  0  1  0  0  0  0  0  0  0  0
   -1.0541    2.9482   -5.5098 O   0  0  0  1  0  0  0  0  0  0  0  0
   -2.4185    3.8558   -5.4458 P   0  0  0  1  0  0  0  0  0  0  0  0
   -3.0020    3.5680   -6.9512 O   0  0  0  0  0  0  0  0  0  0  0  0
   -3.3648    3.5926   -4.3386 O   0  0  0  1  0  0  0  0  0  0  0  0
   -1.9564    5.4084   -5.4610 O   0  5  0  1  0  0  0  0  0  0  0  0
   -0.5398    2.9204   -7.9191 C   0  0  0  1  0  0  0  0  0  0  0  0
   -1.5434    2.5521   -7.8752 H   0  0  0  1  0  0  0  0  0  0  0  0
    0.3247    1.9234   -8.4878 O   0  0  0  1  0  0  0  0  0  0  0  0
   -0.5005    4.1623   -8.7475 C   0  0  0  1  0  0  0  0  0  0  0  0
    0.5148    4.4496   -8.9254 H   0  0  0  1  0  0  0  0  0  0  0  0
   -1.0123    4.9541   -8.2416 H   0  0  0  1  0  0  0  0  0  0  0  0
   -1.1584    3.8736  -10.0037 O   0  0  0  1  0  0  0  0  0  0  0  0
   -1.8962    4.9869  -10.7878 P   0  0  0  1  0  0  0  0  0  0  0  0
   -3.1330    5.3605   -9.9337 O   0  0  0  0  0  0  0  0  0  0  0  0
   -2.1517    4.5898  -12.1759 O   0  0  0  1  0  0  0  0  0  0  0  0
   -0.8606    6.2079  -10.6547 O   0  0  0  1  0  0  0  0  0  0  0  0
    0.6667    6.4302  -11.2094 P   0  0  0  1  0  0  0  0  0  0  0  0
    1.0065    7.8655  -11.0876 O   0  0  0  1  0  0  0  0  0  0  0  0
    1.5915    5.6062  -10.1653 O   0  5  0  1  0  0  0  0  0  0  0  0
    0.6450    5.7625  -12.6340 O   0  0  0  1  0  0  0  0  0  0  0  0
    0.2619    5.5851  -14.9679 C   0  0  0  1  0  0  0  0  0  0  0  0
    0.0838    6.4572  -13.7688 C   0  0  0  1  0  0  0  0  0  0  0  0
    0.5932    7.3867  -13.9154 H   0  0  0  1  0  0  0  0  0  0  0  0
   -0.9571    6.6424  -13.6044 H   0  0  0  1  0  0  0  0  0  0  0  0
   -0.5230    4.2862  -14.7639 C   0  0  0  1  0  0  0  0  0  0  0  0
   -1.1934    4.4000  -13.9378 H   0  0  0  1  0  0  0  0  0  0  0  0
    0.1582    3.4860  -14.5625 H   0  0  0  1  0  0  0  0  0  0  0  0
   -1.0822    4.0650  -15.6489 H   0  0  0  1  0  0  0  0  0  0  0  0
    1.7473    5.2652  -15.2066 C   0  0  0  1  0  0  0  0  0  0  0  0
    1.8382    4.5787  -16.0222 H   0  0  0  1  0  0  0  0  0  0  0  0
    2.1639    4.8271  -14.3237 H   0  0  0  1  0  0  0  0  0  0  0  0
    2.2731    6.1675  -15.4398 H   0  0  0  1  0  0  0  0  0  0  0  0
   -0.3100    6.3057  -16.1915 C   0  0  0  1  0  0  0  0  0  0  0  0
    0.1057    7.2916  -16.1867 H   0  0  0  1  0  0  0  0  0  0  0  0
    0.0794    5.6740  -17.3993 O   0  0  0  1  0  0  0  0  0  0  0  0
    0.3166    4.7609  -17.2214 H   0  0  0  1  0  0  0  0  0  0  0  0
   -1.8149    6.4663  -16.0989 C   0  0  0  1  0  0  0  0  0  0  0  0
   -2.3821    6.5518  -15.0105 O   0  0  0  1  0  0  0  0  0  0  0  0
   -2.4660    6.5073  -17.2624 N   0  0  0  1  0  0  0  0  0  0  0  0
   -1.9503    6.4659  -18.0947 H   0  0  0  1  0  0  0  0  0  0  0  0
   -3.9156    6.6112  -17.3388 C   0  0  0  1  0  0  0  0  0  0  0  0
   -4.3270    6.1999  -16.4408 H   0  0  0  1  0  0  0  0  0  0  0  0
   -4.2470    6.0374  -18.1790 H   0  0  0  1  0  0  0  0  0  0  0  0
   -4.4442    8.0309  -17.4959 C   0  0  0  1  0  0  0  0  0  0  0  0
   -4.1681    8.5950  -16.6296 H   0  0  0  1  0  0  0  0  0  0  0  0
   -5.5108    7.9909  -17.5711 H   0  0  0  1  0  0  0  0  0  0  0  0
   -3.9039    8.7298  -18.7148 C   0  0  0  1  0  0  0  0  0  0  0  0
   -3.1418    8.1862  -19.4934 O   0  0  0  1  0  0  0  0  0  0  0  0
   -4.2721    9.9971  -18.9567 N   0  0  0  1  0  0  0  0  0  0  0  0
   -4.8347   10.4745  -18.3117 H   0  0  0  1  0  0  0  0  0  0  0  0
   -3.8381   10.6639  -20.1739 C   0  0  0  1  0  0  0  0  0  0  0  0
   -2.8344   10.3630  -20.3905 H   0  0  0  1  0  0  0  0  0  0  0  0
   -3.8674   11.7215  -20.0146 H   0  0  0  1  0  0  0  0  0  0  0  0
   -4.7091   10.3293  -21.3586 C   0  0  0  1  0  0  0  0  0  0  0  0
   -4.3080   10.8154  -22.2234 H   0  0  0  1  0  0  0  0  0  0  0  0
   -5.6964   10.6954  -21.1688 H   0  0  0  1  0  0  0  0  0  0  0  0
   -4.8083    8.5544  -21.6912 S   0  0  0  1  0  0  0  0  0  0  0  0
   -3.1366    8.0812  -22.0628 C   0  0  0  1  0  0  0  0  0  0  0  0
   -2.2356    8.8438  -22.2007 O   0  0  0  1  0  0  0  0  0  0  0  0
   -3.0243    6.5878  -22.3001 C   0  0  0  1  0  0  0  0  0  0  0  0
   -3.3132    6.3632  -23.3056 H   0  0  0  1  0  0  0  0  0  0  0  0
   -3.6677    6.0695  -21.6202 H   0  0  0  1  0  0  0  0  0  0  0  0
   -2.0127    6.2768  -22.1421 H   0  0  0  1  0  0  0  0  0  0  0  0
  1  2  1  0  0  0  0
  1  7  2  0  0  0  0
  2  3  1  0  0  0  0
  2  4  2  0  0  0  0
  4  5  1  0  0  0  0
  5  6  2  0  0  0  0
  5 14  1  0  0  0  0
  6  7  1  0  0  0  0
  6 11  1  0  0  0  0
  7  8  1  0  0  0  0
  8  9  1  0  0  0  0
  8 10  1  0  0  0  0
 11 12  2  0  0  0  0
 12 13  1  0  0  0  0
 12 14  1  0  0  0  0
 14 15  1  0  0  0  0
 15 16  1  0  0  0  0
 15 17  1  0  0  0  0
 15 30  1  0  0  0  0
 17 18  1  0  0  0  0
 17 19  1  0  0  0  0
 17 21  1  0  0  0  0
 19 20  1  0  0  0  0
 21 22  1  0  0  0  0
 21 23  1  0  0  0  0
 21 28  1  0  0  0  0
 23 24  1  0  0  0  0
 24 25  1  0  0  0  0
 24 26  2  0  0  0  0
 24 27  1  0  0  0  0
 28 29  1  0  0  0  0
 28 30  1  0  0  0  0
 28 31  1  0  0  0  0
 31 32  1  0  0  0  0
 31 33  1  0  0  0  0
 31 34  1  0  0  0  0
 34 35  1  0  0  0  0
 35 36  1  0  0  0  0
 35 37  2  0  0  0  0
 35 38  1  0  0  0  0
 38 39  1  0  0  0  0
 39 40  2  0  0  0  0
 39 41  1  0  0  0  0
 39 42  1  0  0  0  0
 42 44  1  0  0  0  0
 43 44  1  0  0  0  0
 43 47  1  0  0  0  0
 43 51  1  0  0  0  0
 43 55  1  0  0  0  0
 44 45  1  0  0  0  0
 44 46  1  0  0  0  0
 47 48  1  0  0  0  0
 47 49  1  0  0  0  0
 47 50  1  0  0  0  0
 51 52  1  0  0  0  0
 51 53  1  0  0  0  0
 51 54  1  0  0  0  0
 55 56  1  0  0  0  0
 55 57  1  0  0  0  0
 55 59  1  0  0  0  0
 57 58  1  0  0  0  0
 59 60  2  0  0  0  0
 59 61  1  0  0  0  0
 61 62  1  0  0  0  0
 61 63  1  0  0  0  0
 63 64  1  0  0  0  0
 63 65  1  0  0  0  0
 63 66  1  0  0  0  0
 66 67  1  0  0  0  0
 66 68  1  0  0  0  0
 66 69  1  0  0  0  0
 69 70  2  0  0  0  0
 69 71  1  0  0  0  0
 71 72  1  0  0  0  0
 71 73  1  0  0  0  0
 73 74  1  0  0  0  0
 73 75  1  0  0  0  0
 73 76  1  0  0  0  0
 76 77  1  0  0  0  0
 76 78  1  0  0  0  0
 76 79  1  0  0  0  0
 79 80  1  0  0  0  0
 80 81  2  0  0  0  0
 80 82  1  0  0  0  0
 82 83  1  0  0  0  0
 82 84  1  0  0  0  0
 82 85  1  0  0  0  0
M  BCL ATM N_Tr2TrTrPi C_TrTrTrPi H_S N_Tr2TrTrPi C_TrTrTrPi C_TrTrTrPi C_TrTrTrPi N_TrTrTrPi2 H_S H_S N_Tr2TrTrPi C_TrTrTrPi H_S N_TrTrTrPi2 C_TeTeTeTe H_S C_TeTeTeTe H_S O_Te2Te2TeTe H_S C_TeTeTeTe H_S O_Tr2TrTrPi2 P_TeTeTeTePi O_Te2Te2TeTe O_Tr2Tr2TrPi O_Te2Te2Te2Te C_TeTeTeTe H_S O_Te2Te2TeTe C_TeTeTeTe H_S H_S O_Tr2TrTrPi2 P_TeTeTeTePi O_Te2Te2TeTe O_Tr2Tr2TrPi O_Tr2TrTrPi2 P_TeTeTeTePi O_Tr2Tr2TrPi O_Te2Te2Te2Te O_Tr2TrTrPi2 C_TeTeTeTe C_TeTeTeTe H_S H_S C_TeTeTeTe H_S H_S H_S C_TeTeTeTe H_S H_S H_S C_TeTeTeTe H_S O_Te2Te2TeTe H_S C_TrTrTrPi O_Tr2Tr2TrPi N_TrTrTrPi2 H_S C_TeTeTeTe H_S H_S C_TeTeTeTe H_S H_S C_TrTrTrPi O_Tr2Tr2TrPi N_TrTrTrPi2 H_S C_TeTeTeTe H_S H_S C_TeTeTeTe H_S H_S S_Te2Te2TeTe C_TrTrTrPi O_Tr2Tr2TrPi C_TeTeTeTe H_S H_S H_S
M  BCL BND AromaticSingleBond AromaticDoubleBond NonConjugatedSingleBond AromaticDoubleBond AromaticSingleBond AromaticDoubleBond AromaticSingleBond AromaticSingleBond AromaticSingleBond ConjugatedSingleBond NonConjugatedSingleBond NonConjugatedSingleBond AromaticDoubleBond NonConjugatedSingleBond AromaticSingleBond NonConjugatedSingleBond NonConjugatedSingleBond NonConjugatedSingleBondInRing NonConjugatedSingleBondInRing NonConjugatedSingleBond NonConjugatedSingleBond NonConjugatedSingleBondInRing NonConjugatedSingleBond NonConjugatedSingleBond NonConjugatedSingleBond NonConjugatedSingleBondInRing ConjugatedSingleBond ConjugatedSingleBond ConjugatedDoubleBond ConjugatedSingleBond NonConjugatedSingleBond NonConjugatedSingleBondInRing NonConjugatedSingleBond NonConjugatedSingleBond NonConjugatedSingleBond NonConjugatedSingleBond ConjugatedSingleBond ConjugatedSingleBond ConjugatedDoubleBond ConjugatedSingleBond ConjugatedSingleBond ConjugatedDoubleBond ConjugatedSingleBond ConjugatedSingleBond NonConjugatedSingleBond NonConjugatedSingleBond NonConjugatedSingleBond NonConjugatedSingleBond NonConjugatedSingleBond NonConjugatedSingleBond NonConjugatedSingleBond NonConjugatedSingleBond NonConjugatedSingleBond NonConjugatedSingleBond NonConjugatedSingleBond NonConjugatedSingleBond NonConjugatedSingleBond NonConjugatedSingleBond NonConjugatedSingleBond NonConjugatedSingleBond NonConjugatedSingleBond ConjugatedDoubleBond AmideSingleBond NonConjugatedSingleBond NonConjugatedSingleBond NonConjugatedSingleBond NonConjugatedSingleBond NonConjugatedSingleBond NonConjugatedSingleBond NonConjugatedSingleBond NonConjugatedSingleBond ConjugatedDoubleBond AmideSingleBond NonConjugatedSingleBond NonConjugatedSingleBond NonConjugatedSingleBond NonConjugatedSingleBond NonConjugatedSingleBond NonConjugatedSingleBond NonConjugatedSingleBond NonConjugatedSingleBond ConjugatedSingleBond ConjugatedDoubleBond NonConjugatedSingleBond NonConjugatedSingleBond NonConjugatedSingleBond NonConjugatedSingleBond
M  BCL CHI  15   S  17   S  21   S  24   S  28   R  35   R  39   R  55   S
M  BCL DBI - - - - - - - - - -
M  END
> <ConfClashScore>
0 

> <ConfOneFourInteractionScore>
-0.982022 

> <ConfScore>
0.0542455 

> <ConfScorePBest>
0.00799148 

> <ConfTolerance>
2.52273 

$$$$
ACO.****
  PyMOL2.5          3D                             0

 85 87  0  0  0  0  0  0  0  0999 V2000
    4.8891    1.0762  -10.6384 N   0  0  0  1  0  0  0  0  0  0  0  0
    3.8481    1.9153  -10.5197 C   0  0  0  1  0  0  0  0  0  0  0  0
    3.8191    2.6960  -11.2062 H   0  0  0  1  0  0  0  0  0  0  0  0
    2.8508    1.8833   -9.6444 N   0  0  0  1  0  0  0  0  0  0  0  0
    2.9688    0.8484   -8.8113 C   0  0  0  1  0  0  0  0  0  0  0  0
    3.9924   -0.1087   -8.8045 C   0  0  0  1  0  0  0  0  0  0  0  0
    4.9754    0.0580   -9.7755 C   0  0  0  1  0  0  0  0  0  0  0  0
    6.0516   -0.7804   -9.9012 N   0  0  0  1  0  0  0  0  0  0  0  0
    6.1818   -1.5100   -9.2600 H   0  0  0  1  0  0  0  0  0  0  0  0
    6.6911   -0.6505  -10.6323 H   0  0  0  1  0  0  0  0  0  0  0  0
    3.7862   -1.0253   -7.7853 N   0  0  0  1  0  0  0  0  0  0  0  0
    2.6807   -0.6158   -7.2249 C   0  0  0  1  0  0  0  0  0  0  0  0
    2.2486   -1.1067   -6.4163 H   0  0  0  1  0  0  0  0  0  0  0  0
    2.1361    0.5021   -7.7786 N   0  0  0  1  0  0  0  0  0  0  0  0
    0.8332    1.0924   -7.4753 C   0  0  0  1  0  0  0  0  0  0  0  0
    0.6021    1.8413   -8.2037 H   0  0  0  1  0  0  0  0  0  0  0  0
   -0.2700    0.0052   -7.4300 C   0  0  0  1  0  0  0  0  0  0  0  0
    0.0955   -0.9011   -6.9943 H   0  0  0  1  0  0  0  0  0  0  0  0
   -0.7847   -0.2667   -8.7362 O   0  0  0  1  0  0  0  0  0  0  0  0
   -0.3709   -1.0596   -9.0851 H   0  0  0  1  0  0  0  0  0  0  0  0
   -1.3437    0.6703   -6.5289 C   0  0  0  1  0  0  0  0  0  0  0  0
   -1.7767   -0.0458   -5.8620 H   0  0  0  1  0  0  0  0  0  0  0  0
   -2.3878    1.2764   -7.3331 O   0  0  0  1  0  0  0  0  0  0  0  0
   -3.9504    0.8038   -7.1770 P   0  0  0  1  0  0  0  0  0  0  0  0
   -4.9126    1.7918   -8.0645 O   0  0  0  0  0  0  0  0  0  0  0  0
   -4.0327   -0.6353   -7.5127 O   0  0  0  1  0  0  0  0  0  0  0  0
   -4.1642    1.0476   -5.5898 O   0  5  0  1  0  0  0  0  0  0  0  0
   -0.5622    1.7440   -5.7468 C   0  0  0  1  0  0  0  0  0  0  0  0
   -0.9420    2.7164   -5.9817 H   0  0  0  1  0  0  0  0  0  0  0  0
    0.8157    1.6464   -6.1426 O   0  0  0  1  0  0  0  0  0  0  0  0
   -0.6865    1.5067   -4.3180 C   0  0  0  1  0  0  0  0  0  0  0  0
    0.0798    0.8231   -4.0174 H   0  0  0  1  0  0  0  0  0  0  0  0
   -1.6463    1.0745   -4.1258 H   0  0  0  1  0  0  0  0  0  0  0  0
   -0.5594    2.7167   -3.5342 O   0  0  0  1  0  0  0  0  0  0  0  0
   -0.3379    2.6501   -1.9778 P   0  0  0  1  0  0  0  0  0  0  0  0
   -1.2404    1.5445   -1.4536 O   0  0  0  0  0  0  0  0  0  0  0  0
   -0.4978    3.9939   -1.3475 O   0  0  0  1  0  0  0  0  0  0  0  0
    1.1883    2.1909   -1.8435 O   0  0  0  1  0  0  0  0  0  0  0  0
    2.4439    2.5995   -0.8708 P   0  0  0  1  0  0  0  0  0  0  0  0
    2.7949    4.0258   -1.0516 O   0  0  0  1  0  0  0  0  0  0  0  0
    1.9520    2.3450    0.6516 O   0  5  0  1  0  0  0  0  0  0  0  0
    3.6887    1.6975   -1.2070 O   0  0  0  1  0  0  0  0  0  0  0  0
    3.7285   -0.4564   -2.1991 C   0  0  0  1  0  0  0  0  0  0  0  0
    3.6833    0.2856   -0.9040 C   0  0  0  1  0  0  0  0  0  0  0  0
    2.7923    0.0311   -0.3690 H   0  0  0  1  0  0  0  0  0  0  0  0
    4.5389    0.0368   -0.3115 H   0  0  0  1  0  0  0  0  0  0  0  0
    4.9487   -0.0669   -3.0653 C   0  0  0  1  0  0  0  0  0  0  0  0
    4.8686    0.9603   -3.3540 H   0  0  0  1  0  0  0  0  0  0  0  0
    4.9755   -0.6820   -3.9404 H   0  0  0  1  0  0  0  0  0  0  0  0
    5.8465   -0.2095   -2.5009 H   0  0  0  1  0  0  0  0  0  0  0  0
    2.4656   -0.1280   -3.0130 C   0  0  0  1  0  0  0  0  0  0  0  0
    2.2591   -0.9297   -3.6909 H   0  0  0  1  0  0  0  0  0  0  0  0
    2.6225    0.7746   -3.5657 H   0  0  0  1  0  0  0  0  0  0  0  0
    1.6365   -0.0005   -2.3487 H   0  0  0  1  0  0  0  0  0  0  0  0
    3.7301   -1.9590   -1.9001 C   0  0  0  1  0  0  0  0  0  0  0  0
    4.6355   -2.1951   -1.3810 H   0  0  0  1  0  0  0  0  0  0  0  0
    2.6147   -2.2049   -1.0520 O   0  0  0  1  0  0  0  0  0  0  0  0
    1.8038   -1.9892   -1.5183 H   0  0  0  1  0  0  0  0  0  0  0  0
    3.6911   -2.7642   -3.1837 C   0  0  0  1  0  0  0  0  0  0  0  0
    2.6192   -3.1026   -3.6840 O   0  0  0  1  0  0  0  0  0  0  0  0
    4.8590   -3.0960   -3.7564 N   0  0  0  1  0  0  0  0  0  0  0  0
    5.6929   -2.8828   -3.2877 H   0  0  0  1  0  0  0  0  0  0  0  0
    4.9300   -3.7611   -5.0488 C   0  0  0  1  0  0  0  0  0  0  0  0
    5.5210   -3.1627   -5.7103 H   0  0  0  1  0  0  0  0  0  0  0  0
    3.9389   -3.8546   -5.4411 H   0  0  0  1  0  0  0  0  0  0  0  0
    5.5507   -5.1455   -4.9587 C   0  0  0  1  0  0  0  0  0  0  0  0
    6.5395   -5.0502   -4.5610 H   0  0  0  1  0  0  0  0  0  0  0  0
    5.6003   -5.5613   -5.9434 H   0  0  0  1  0  0  0  0  0  0  0  0
    4.7700   -6.0855   -4.0808 C   0  0  0  1  0  0  0  0  0  0  0  0
    3.6790   -5.8345   -3.6030 O   0  0  0  1  0  0  0  0  0  0  0  0
    5.3910   -7.2545   -3.8616 N   0  0  0  1  0  0  0  0  0  0  0  0
    6.2687   -7.4247   -4.2629 H   0  0  0  1  0  0  0  0  0  0  0  0
    4.7644   -8.2694   -3.0299 C   0  0  0  1  0  0  0  0  0  0  0  0
    4.3092   -7.7900   -2.1885 H   0  0  0  1  0  0  0  0  0  0  0  0
    5.5188   -8.9475   -2.6896 H   0  0  0  1  0  0  0  0  0  0  0  0
    3.7084   -9.0527   -3.7696 C   0  0  0  1  0  0  0  0  0  0  0  0
    4.1644   -9.5233   -4.6155 H   0  0  0  1  0  0  0  0  0  0  0  0
    2.9524   -8.3731   -4.1034 H   0  0  0  1  0  0  0  0  0  0  0  0
    2.9262  -10.3290   -2.7545 S   0  0  0  1  0  0  0  0  0  0  0  0
    2.1706  -11.3736   -3.9785 C   0  0  0  1  0  0  0  0  0  0  0  0
    2.3850  -11.2768   -5.1567 O   0  0  0  1  0  0  0  0  0  0  0  0
    1.2344  -12.3893   -3.3660 C   0  0  0  1  0  0  0  0  0  0  0  0
    1.4434  -12.4830   -2.3208 H   0  0  0  1  0  0  0  0  0  0  0  0
    1.3742  -13.3365   -3.8437 H   0  0  0  1  0  0  0  0  0  0  0  0
    0.2227  -12.0678   -3.4998 H   0  0  0  1  0  0  0  0  0  0  0  0
  1  2  1  0  0  0  0
  1  7  2  0  0  0  0
  2  3  1  0  0  0  0
  2  4  2  0  0  0  0
  4  5  1  0  0  0  0
  5  6  2  0  0  0  0
  5 14  1  0  0  0  0
  6  7  1  0  0  0  0
  6 11  1  0  0  0  0
  7  8  1  0  0  0  0
  8  9  1  0  0  0  0
  8 10  1  0  0  0  0
 11 12  2  0  0  0  0
 12 13  1  0  0  0  0
 12 14  1  0  0  0  0
 14 15  1  0  0  0  0
 15 16  1  0  0  0  0
 15 17  1  0  0  0  0
 15 30  1  0  0  0  0
 17 18  1  0  0  0  0
 17 19  1  0  0  0  0
 17 21  1  0  0  0  0
 19 20  1  0  0  0  0
 21 22  1  0  0  0  0
 21 23  1  0  0  0  0
 21 28  1  0  0  0  0
 23 24  1  0  0  0  0
 24 25  1  0  0  0  0
 24 26  2  0  0  0  0
 24 27  1  0  0  0  0
 28 29  1  0  0  0  0
 28 30  1  0  0  0  0
 28 31  1  0  0  0  0
 31 32  1  0  0  0  0
 31 33  1  0  0  0  0
 31 34  1  0  0  0  0
 34 35  1  0  0  0  0
 35 36  1  0  0  0  0
 35 37  2  0  0  0  0
 35 38  1  0  0  0  0
 38 39  1  0  0  0  0
 39 40  2  0  0  0  0
 39 41  1  0  0  0  0
 39 42  1  0  0  0  0
 42 44  1  0  0  0  0
 43 44  1  0  0  0  0
 43 47  1  0  0  0  0
 43 51  1  0  0  0  0
 43 55  1  0  0  0  0
 44 45  1  0  0  0  0
 44 46  1  0  0  0  0
 47 48  1  0  0  0  0
 47 49  1  0  0  0  0
 47 50  1  0  0  0  0
 51 52  1  0  0  0  0
 51 53  1  0  0  0  0
 51 54  1  0  0  0  0
 55 56  1  0  0  0  0
 55 57  1  0  0  0  0
 55 59  1  0  0  0  0
 57 58  1  0  0  0  0
 59 60  2  0  0  0  0
 59 61  1  0  0  0  0
 61 62  1  0  0  0  0
 61 63  1  0  0  0  0
 63 64  1  0  0  0  0
 63 65  1  0  0  0  0
 63 66  1  0  0  0  0
 66 67  1  0  0  0  0
 66 68  1  0  0  0  0
 66 69  1  0  0  0  0
 69 70  2  0  0  0  0
 69 71  1  0  0  0  0
 71 72  1  0  0  0  0
 71 73  1  0  0  0  0
 73 74  1  0  0  0  0
 73 75  1  0  0  0  0
 73 76  1  0  0  0  0
 76 77  1  0  0  0  0
 76 78  1  0  0  0  0
 76 79  1  0  0  0  0
 79 80  1  0  0  0  0
 80 81  2  0  0  0  0
 80 82  1  0  0  0  0
 82 83  1  0  0  0  0
 82 84  1  0  0  0  0
 82 85  1  0  0  0  0
M  BCL ATM N_Tr2TrTrPi C_TrTrTrPi H_S N_Tr2TrTrPi C_TrTrTrPi C_TrTrTrPi C_TrTrTrPi N_TrTrTrPi2 H_S H_S N_Tr2TrTrPi C_TrTrTrPi H_S N_TrTrTrPi2 C_TeTeTeTe H_S C_TeTeTeTe H_S O_Te2Te2TeTe H_S C_TeTeTeTe H_S O_Tr2TrTrPi2 P_TeTeTeTePi O_Te2Te2TeTe O_Tr2Tr2TrPi O_Te2Te2Te2Te C_TeTeTeTe H_S O_Te2Te2TeTe C_TeTeTeTe H_S H_S O_Tr2TrTrPi2 P_TeTeTeTePi O_Te2Te2TeTe O_Tr2Tr2TrPi O_Tr2TrTrPi2 P_TeTeTeTePi O_Tr2Tr2TrPi O_Te2Te2Te2Te O_Tr2TrTrPi2 C_TeTeTeTe C_TeTeTeTe H_S H_S C_TeTeTeTe H_S H_S H_S C_TeTeTeTe H_S H_S H_S C_TeTeTeTe H_S O_Te2Te2TeTe H_S C_TrTrTrPi O_Tr2Tr2TrPi N_TrTrTrPi2 H_S C_TeTeTeTe H_S H_S C_TeTeTeTe H_S H_S C_TrTrTrPi O_Tr2Tr2TrPi N_TrTrTrPi2 H_S C_TeTeTeTe H_S H_S C_TeTeTeTe H_S H_S S_Te2Te2TeTe C_TrTrTrPi O_Tr2Tr2TrPi C_TeTeTeTe H_S H_S H_S
M  BCL BND AromaticSingleBond AromaticDoubleBond NonConjugatedSingleBond AromaticDoubleBond AromaticSingleBond AromaticDoubleBond AromaticSingleBond AromaticSingleBond AromaticSingleBond ConjugatedSingleBond NonConjugatedSingleBond NonConjugatedSingleBond AromaticDoubleBond NonConjugatedSingleBond AromaticSingleBond NonConjugatedSingleBond NonConjugatedSingleBond NonConjugatedSingleBondInRing NonConjugatedSingleBondInRing NonConjugatedSingleBond NonConjugatedSingleBond NonConjugatedSingleBondInRing NonConjugatedSingleBond NonConjugatedSingleBond NonConjugatedSingleBond NonConjugatedSingleBondInRing ConjugatedSingleBond ConjugatedSingleBond ConjugatedDoubleBond ConjugatedSingleBond NonConjugatedSingleBond NonConjugatedSingleBondInRing NonConjugatedSingleBond NonConjugatedSingleBond NonConjugatedSingleBond NonConjugatedSingleBond ConjugatedSingleBond ConjugatedSingleBond ConjugatedDoubleBond ConjugatedSingleBond ConjugatedSingleBond ConjugatedDoubleBond ConjugatedSingleBond ConjugatedSingleBond NonConjugatedSingleBond NonConjugatedSingleBond NonConjugatedSingleBond NonConjugatedSingleBond NonConjugatedSingleBond NonConjugatedSingleBond NonConjugatedSingleBond NonConjugatedSingleBond NonConjugatedSingleBond NonConjugatedSingleBond NonConjugatedSingleBond NonConjugatedSingleBond NonConjugatedSingleBond NonConjugatedSingleBond NonConjugatedSingleBond NonConjugatedSingleBond NonConjugatedSingleBond ConjugatedDoubleBond AmideSingleBond NonConjugatedSingleBond NonConjugatedSingleBond NonConjugatedSingleBond NonConjugatedSingleBond NonConjugatedSingleBond NonConjugatedSingleBond NonConjugatedSingleBond NonConjugatedSingleBond ConjugatedDoubleBond AmideSingleBond NonConjugatedSingleBond NonConjugatedSingleBond NonConjugatedSingleBond NonConjugatedSingleBond NonConjugatedSingleBond NonConjugatedSingleBond NonConjugatedSingleBond NonConjugatedSingleBond ConjugatedSingleBond ConjugatedDoubleBond NonConjugatedSingleBond NonConjugatedSingleBond NonConjugatedSingleBond NonConjugatedSingleBond
M  BCL CHI  15   S  17   S  21   S  24   S  28   R  35   R  39   R  55   S
M  BCL DBI - - - - - - - - - -
M  END
> <ConfClashScore>
0 

> <ConfOneFourInteractionScore>
-0.977188 

> <ConfScore>
0.0557881 

> <ConfScorePBest>
0.00788848 

> <ConfTolerance>
2.54191 

$$$$
ACO.****
  PyMOL2.5          3D                             0

 85 87  0  0  0  0  0  0  0  0999 V2000
    4.8849    1.1123  -10.6581 N   0  0  0  1  0  0  0  0  0  0  0  0
    3.8307    1.9341  -10.5347 C   0  0  0  1  0  0  0  0  0  0  0  0
    3.7910    2.7200  -11.2148 H   0  0  0  1  0  0  0  0  0  0  0  0
    2.8321    1.8792   -9.6619 N   0  0  0  1  0  0  0  0  0  0  0  0
    2.9645    0.8394   -8.8373 C   0  0  0  1  0  0  0  0  0  0  0  0
    4.0029   -0.1017   -8.8362 C   0  0  0  1  0  0  0  0  0  0  0  0
    4.9852    0.0884   -9.8036 C   0  0  0  1  0  0  0  0  0  0  0  0
    6.0362   -0.7892   -9.8507 N   0  0  0  1  0  0  0  0  0  0  0  0
    6.7872   -0.6221  -10.4576 H   0  0  0  1  0  0  0  0  0  0  0  0
    6.0369   -1.5840   -9.2775 H   0  0  0  1  0  0  0  0  0  0  0  0
    3.8089   -1.0300   -7.8251 N   0  0  0  1  0  0  0  0  0  0  0  0
    2.6960   -0.6424   -7.2638 C   0  0  0  1  0  0  0  0  0  0  0  0
    2.2699   -1.1467   -6.4602 H   0  0  0  1  0  0  0  0  0  0  0  0
    2.1352    0.4715   -7.8093 N   0  0  0  1  0  0  0  0  0  0  0  0
    0.8913    1.1451   -7.3831 C   0  0  0  1  0  0  0  0  0  0  0  0
    0.4020    0.5534   -6.6379 H   0  0  0  1  0  0  0  0  0  0  0  0
    1.1876    2.5702   -6.8518 C   0  0  0  1  0  0  0  0  0  0  0  0
    1.9634    3.0422   -7.4178 H   0  0  0  1  0  0  0  0  0  0  0  0
    1.5528    2.5432   -5.4742 O   0  0  0  1  0  0  0  0  0  0  0  0
    2.4798    2.3076   -5.3930 H   0  0  0  1  0  0  0  0  0  0  0  0
   -0.1745    3.2832   -7.0595 C   0  0  0  1  0  0  0  0  0  0  0  0
   -0.0301    4.2851   -7.4063 H   0  0  0  1  0  0  0  0  0  0  0  0
   -0.9413    3.3030   -5.8232 O   0  0  0  1  0  0  0  0  0  0  0  0
   -1.9542    4.5469   -5.4819 P   0  0  0  1  0  0  0  0  0  0  0  0
   -2.6537    4.2141   -4.0364 O   0  0  0  0  0  0  0  0  0  0  0  0
   -1.2199    5.8143   -5.2700 O   0  0  0  1  0  0  0  0  0  0  0  0
   -3.0573    4.5447   -6.6683 O   0  5  0  1  0  0  0  0  0  0  0  0
   -0.8835    2.4304   -8.1298 C   0  0  0  1  0  0  0  0  0  0  0  0
   -1.7824    2.0122   -7.7275 H   0  0  0  1  0  0  0  0  0  0  0  0
    0.0199    1.3795   -8.5096 O   0  0  0  1  0  0  0  0  0  0  0  0
   -1.2138    3.2733   -9.3174 C   0  0  0  1  0  0  0  0  0  0  0  0
   -1.8503    4.0820   -9.0246 H   0  0  0  1  0  0  0  0  0  0  0  0
   -1.7075    2.6806  -10.0589 H   0  0  0  1  0  0  0  0  0  0  0  0
    0.0288    3.7914   -9.8478 O   0  0  0  1  0  0  0  0  0  0  0  0
    0.1196    4.3078  -11.3314 P   0  0  0  1  0  0  0  0  0  0  0  0
    1.5556    4.7554  -11.5525 O   0  0  0  0  0  0  0  0  0  0  0  0
   -0.9443    5.3157  -11.6233 O   0  0  0  1  0  0  0  0  0  0  0  0
   -0.1597    2.9915  -12.1960 O   0  0  0  1  0  0  0  0  0  0  0  0
   -1.3342    2.5105  -13.2348 P   0  0  0  1  0  0  0  0  0  0  0  0
   -2.6907    2.4469  -12.6465 O   0  0  0  1  0  0  0  0  0  0  0  0
   -1.3583    3.4579  -14.5486 O   0  5  0  1  0  0  0  0  0  0  0  0
   -1.0384    1.0597  -13.7676 O   0  0  0  1  0  0  0  0  0  0  0  0
   -0.0340    0.2794  -15.7694 C   0  0  0  1  0  0  0  0  0  0  0  0
    0.2324    0.7383  -14.3736 C   0  0  0  1  0  0  0  0  0  0  0  0
    0.7137   -0.0403  -13.8196 H   0  0  0  1  0  0  0  0  0  0  0  0
    0.8587    1.6057  -14.3885 H   0  0  0  1  0  0  0  0  0  0  0  0
   -0.7486    1.4078  -16.5219 C   0  0  0  1  0  0  0  0  0  0  0  0
   -0.4765    2.3503  -16.0946 H   0  0  0  1  0  0  0  0  0  0  0  0
   -1.8073    1.2735  -16.4441 H   0  0  0  1  0  0  0  0  0  0  0  0
   -0.4607    1.3872  -17.5523 H   0  0  0  1  0  0  0  0  0  0  0  0
   -0.9468   -0.9466  -15.7492 C   0  0  0  1  0  0  0  0  0  0  0  0
   -1.6532   -0.8529  -14.9510 H   0  0  0  1  0  0  0  0  0  0  0  0
   -0.3574   -1.8274  -15.6020 H   0  0  0  1  0  0  0  0  0  0  0  0
   -1.4689   -1.0177  -16.6806 H   0  0  0  1  0  0  0  0  0  0  0  0
    1.2682   -0.0634  -16.5027 C   0  0  0  1  0  0  0  0  0  0  0  0
    1.0147   -0.5171  -17.4380 H   0  0  0  1  0  0  0  0  0  0  0  0
    2.0003    1.1340  -16.7353 O   0  0  0  1  0  0  0  0  0  0  0  0
    1.4710    1.8898  -16.4705 H   0  0  0  1  0  0  0  0  0  0  0  0
    2.0762   -1.0635  -15.6898 C   0  0  0  1  0  0  0  0  0  0  0  0
    1.6023   -2.1503  -15.3612 O   0  0  0  1  0  0  0  0  0  0  0  0
    3.3207   -0.6801  -15.3637 N   0  0  0  1  0  0  0  0  0  0  0  0
    3.5863    0.2496  -15.5237 H   0  0  0  1  0  0  0  0  0  0  0  0
    4.2890   -1.5969  -14.7808 C   0  0  0  1  0  0  0  0  0  0  0  0
    5.2289   -1.4812  -15.2789 H   0  0  0  1  0  0  0  0  0  0  0  0
    3.9416   -2.6016  -14.9024 H   0  0  0  1  0  0  0  0  0  0  0  0
    4.4670   -1.3027  -13.2971 C   0  0  0  1  0  0  0  0  0  0  0  0
    4.1895   -0.2853  -13.1159 H   0  0  0  1  0  0  0  0  0  0  0  0
    5.4969   -1.4427  -13.0433 H   0  0  0  1  0  0  0  0  0  0  0  0
    3.6319   -2.1908  -12.4161 C   0  0  0  1  0  0  0  0  0  0  0  0
    3.7582   -3.4140  -12.4522 O   0  0  0  1  0  0  0  0  0  0  0  0
    2.7509   -1.6118  -11.5953 N   0  0  0  1  0  0  0  0  0  0  0  0
    2.7437   -0.6346  -11.5224 H   0  0  0  1  0  0  0  0  0  0  0  0
    1.7953   -2.3871  -10.8003 C   0  0  0  1  0  0  0  0  0  0  0  0
    1.4667   -1.7867   -9.9778 H   0  0  0  1  0  0  0  0  0  0  0  0
    2.2876   -3.2619  -10.4297 H   0  0  0  1  0  0  0  0  0  0  0  0
    0.5867   -2.8143  -11.6013 C   0  0  0  1  0  0  0  0  0  0  0  0
    0.0293   -3.5428  -11.0503 H   0  0  0  1  0  0  0  0  0  0  0  0
    0.9032   -3.2360  -12.5323 H   0  0  0  1  0  0  0  0  0  0  0  0
   -0.4484   -1.3641  -11.9115 S   0  0  0  1  0  0  0  0  0  0  0  0
   -1.2090   -1.1087  -10.3497 C   0  0  0  1  0  0  0  0  0  0  0  0
   -0.9550   -1.8621   -9.4490 O   0  0  0  1  0  0  0  0  0  0  0  0
   -2.1829    0.0644  -10.1514 C   0  0  0  1  0  0  0  0  0  0  0  0
   -2.9760   -0.0050  -10.8663 H   0  0  0  1  0  0  0  0  0  0  0  0
   -1.6605    0.9883  -10.2874 H   0  0  0  1  0  0  0  0  0  0  0  0
   -2.5900    0.0264   -9.1626 H   0  0  0  1  0  0  0  0  0  0  0  0
  1  2  1  0  0  0  0
  1  7  2  0  0  0  0
  2  3  1  0  0  0  0
  2  4  2  0  0  0  0
  4  5  1  0  0  0  0
  5  6  2  0  0  0  0
  5 14  1  0  0  0  0
  6  7  1  0  0  0  0
  6 11  1  0  0  0  0
  7  8  1  0  0  0  0
  8  9  1  0  0  0  0
  8 10  1  0  0  0  0
 11 12  2  0  0  0  0
 12 13  1  0  0  0  0
 12 14  1  0  0  0  0
 14 15  1  0  0  0  0
 15 16  1  0  0  0  0
 15 17  1  0  0  0  0
 15 30  1  0  0  0  0
 17 18  1  0  0  0  0
 17 19  1  0  0  0  0
 17 21  1  0  0  0  0
 19 20  1  0  0  0  0
 21 22  1  0  0  0  0
 21 23  1  0  0  0  0
 21 28  1  0  0  0  0
 23 24  1  0  0  0  0
 24 25  1  0  0  0  0
 24 26  2  0  0  0  0
 24 27  1  0  0  0  0
 28 29  1  0  0  0  0
 28 30  1  0  0  0  0
 28 31  1  0  0  0  0
 31 32  1  0  0  0  0
 31 33  1  0  0  0  0
 31 34  1  0  0  0  0
 34 35  1  0  0  0  0
 35 36  1  0  0  0  0
 35 37  2  0  0  0  0
 35 38  1  0  0  0  0
 38 39  1  0  0  0  0
 39 40  2  0  0  0  0
 39 41  1  0  0  0  0
 39 42  1  0  0  0  0
 42 44  1  0  0  0  0
 43 44  1  0  0  0  0
 43 47  1  0  0  0  0
 43 51  1  0  0  0  0
 43 55  1  0  0  0  0
 44 45  1  0  0  0  0
 44 46  1  0  0  0  0
 47 48  1  0  0  0  0
 47 49  1  0  0  0  0
 47 50  1  0  0  0  0
 51 52  1  0  0  0  0
 51 53  1  0  0  0  0
 51 54  1  0  0  0  0
 55 56  1  0  0  0  0
 55 57  1  0  0  0  0
 55 59  1  0  0  0  0
 57 58  1  0  0  0  0
 59 60  2  0  0  0  0
 59 61  1  0  0  0  0
 61 62  1  0  0  0  0
 61 63  1  0  0  0  0
 63 64  1  0  0  0  0
 63 65  1  0  0  0  0
 63 66  1  0  0  0  0
 66 67  1  0  0  0  0
 66 68  1  0  0  0  0
 66 69  1  0  0  0  0
 69 70  2  0  0  0  0
 69 71  1  0  0  0  0
 71 72  1  0  0  0  0
 71 73  1  0  0  0  0
 73 74  1  0  0  0  0
 73 75  1  0  0  0  0
 73 76  1  0  0  0  0
 76 77  1  0  0  0  0
 76 78  1  0  0  0  0
 76 79  1  0  0  0  0
 79 80  1  0  0  0  0
 80 81  2  0  0  0  0
 80 82  1  0  0  0  0
 82 83  1  0  0  0  0
 82 84  1  0  0  0  0
 82 85  1  0  0  0  0
M  BCL ATM N_Tr2TrTrPi C_TrTrTrPi H_S N_Tr2TrTrPi C_TrTrTrPi C_TrTrTrPi C_TrTrTrPi N_TrTrTrPi2 H_S H_S N_Tr2TrTrPi C_TrTrTrPi H_S N_TrTrTrPi2 C_TeTeTeTe H_S C_TeTeTeTe H_S O_Te2Te2TeTe H_S C_TeTeTeTe H_S O_Tr2TrTrPi2 P_TeTeTeTePi O_Te2Te2TeTe O_Tr2Tr2TrPi O_Te2Te2Te2Te C_TeTeTeTe H_S O_Te2Te2TeTe C_TeTeTeTe H_S H_S O_Tr2TrTrPi2 P_TeTeTeTePi O_Te2Te2TeTe O_Tr2Tr2TrPi O_Tr2TrTrPi2 P_TeTeTeTePi O_Tr2Tr2TrPi O_Te2Te2Te2Te O_Tr2TrTrPi2 C_TeTeTeTe C_TeTeTeTe H_S H_S C_TeTeTeTe H_S H_S H_S C_TeTeTeTe H_S H_S H_S C_TeTeTeTe H_S O_Te2Te2TeTe H_S C_TrTrTrPi O_Tr2Tr2TrPi N_TrTrTrPi2 H_S C_TeTeTeTe H_S H_S C_TeTeTeTe H_S H_S C_TrTrTrPi O_Tr2Tr2TrPi N_TrTrTrPi2 H_S C_TeTeTeTe H_S H_S C_TeTeTeTe H_S H_S S_Te2Te2TeTe C_TrTrTrPi O_Tr2Tr2TrPi C_TeTeTeTe H_S H_S H_S
M  BCL BND AromaticSingleBond AromaticDoubleBond NonConjugatedSingleBond AromaticDoubleBond AromaticSingleBond AromaticDoubleBond AromaticSingleBond AromaticSingleBond AromaticSingleBond ConjugatedSingleBond NonConjugatedSingleBond NonConjugatedSingleBond AromaticDoubleBond NonConjugatedSingleBond AromaticSingleBond NonConjugatedSingleBond NonConjugatedSingleBond NonConjugatedSingleBondInRing NonConjugatedSingleBondInRing NonConjugatedSingleBond NonConjugatedSingleBond NonConjugatedSingleBondInRing NonConjugatedSingleBond NonConjugatedSingleBond NonConjugatedSingleBond NonConjugatedSingleBondInRing ConjugatedSingleBond ConjugatedSingleBond ConjugatedDoubleBond ConjugatedSingleBond NonConjugatedSingleBond NonConjugatedSingleBondInRing NonConjugatedSingleBond NonConjugatedSingleBond NonConjugatedSingleBond NonConjugatedSingleBond ConjugatedSingleBond ConjugatedSingleBond ConjugatedDoubleBond ConjugatedSingleBond ConjugatedSingleBond ConjugatedDoubleBond ConjugatedSingleBond ConjugatedSingleBond NonConjugatedSingleBond NonConjugatedSingleBond NonConjugatedSingleBond NonConjugatedSingleBond NonConjugatedSingleBond NonConjugatedSingleBond NonConjugatedSingleBond NonConjugatedSingleBond NonConjugatedSingleBond NonConjugatedSingleBond NonConjugatedSingleBond NonConjugatedSingleBond NonConjugatedSingleBond NonConjugatedSingleBond NonConjugatedSingleBond NonConjugatedSingleBond NonConjugatedSingleBond ConjugatedDoubleBond AmideSingleBond NonConjugatedSingleBond NonConjugatedSingleBond NonConjugatedSingleBond NonConjugatedSingleBond NonConjugatedSingleBond NonConjugatedSingleBond NonConjugatedSingleBond NonConjugatedSingleBond ConjugatedDoubleBond AmideSingleBond NonConjugatedSingleBond NonConjugatedSingleBond NonConjugatedSingleBond NonConjugatedSingleBond NonConjugatedSingleBond NonConjugatedSingleBond NonConjugatedSingleBond NonConjugatedSingleBond ConjugatedSingleBond ConjugatedDoubleBond NonConjugatedSingleBond NonConjugatedSingleBond NonConjugatedSingleBond NonConjugatedSingleBond
M  BCL CHI  15   S  17   S  21   S  24   S  28   R  35   R  39   R  55   S
M  BCL DBI - - - - - - - - - -
M  END
> <ConfClashScore>
0 

> <ConfOneFourInteractionScore>
-0.985639 

> <ConfScore>
0.056123 

> <ConfScorePBest>
0.00778548 

> <ConfTolerance>
2.98806 

$$$$
ACO.****
  PyMOL2.5          3D                             0

 85 87  0  0  0  0  0  0  0  0999 V2000
    4.8853    1.0605  -10.6284 N   0  0  0  1  0  0  0  0  0  0  0  0
    3.8385    1.8944  -10.5244 C   0  0  0  1  0  0  0  0  0  0  0  0
    3.8116    2.6709  -11.2157 H   0  0  0  1  0  0  0  0  0  0  0  0
    2.8330    1.8617   -9.6584 N   0  0  0  1  0  0  0  0  0  0  0  0
    2.9490    0.8323   -8.8183 C   0  0  0  1  0  0  0  0  0  0  0  0
    3.9779   -0.1188   -8.7962 C   0  0  0  1  0  0  0  0  0  0  0  0
    4.9691    0.0479   -9.7588 C   0  0  0  1  0  0  0  0  0  0  0  0
    6.0875   -0.7629   -9.9195 N   0  0  0  1  0  0  0  0  0  0  0  0
    6.7151   -0.5923  -10.6526 H   0  0  0  1  0  0  0  0  0  0  0  0
    6.2479   -1.5049   -9.2997 H   0  0  0  1  0  0  0  0  0  0  0  0
    3.7672   -1.0308   -7.7737 N   0  0  0  1  0  0  0  0  0  0  0  0
    2.6541   -0.6243   -7.2262 C   0  0  0  1  0  0  0  0  0  0  0  0
    2.2171   -1.1130   -6.4188 H   0  0  0  1  0  0  0  0  0  0  0  0
    2.1085    0.4872   -7.7915 N   0  0  0  1  0  0  0  0  0  0  0  0
    0.8912    1.1662   -7.3917 C   0  0  0  1  0  0  0  0  0  0  0  0
    0.1797    0.4476   -7.0419 H   0  0  0  1  0  0  0  0  0  0  0  0
    1.1913    2.1991   -6.2938 C   0  0  0  1  0  0  0  0  0  0  0  0
    2.1612    2.6313   -6.4251 H   0  0  0  1  0  0  0  0  0  0  0  0
    1.1030    1.6105   -4.9935 O   0  0  0  1  0  0  0  0  0  0  0  0
    0.5392    0.8344   -5.0307 H   0  0  0  1  0  0  0  0  0  0  0  0
    0.0982    3.2322   -6.5030 C   0  0  0  1  0  0  0  0  0  0  0  0
    0.4292    4.2075   -6.2130 H   0  0  0  1  0  0  0  0  0  0  0  0
   -1.0963    2.8859   -5.7594 O   0  0  0  1  0  0  0  0  0  0  0  0
   -2.4583    3.7904   -5.8876 P   0  0  0  1  0  0  0  0  0  0  0  0
   -3.5289    2.9827   -4.9436 O   0  0  0  0  0  0  0  0  0  0  0  0
   -2.3776    5.2116   -5.4827 O   0  0  0  1  0  0  0  0  0  0  0  0
   -2.9955    3.5458   -7.3962 O   0  5  0  1  0  0  0  0  0  0  0  0
   -0.1545    3.1600   -8.0292 C   0  0  0  1  0  0  0  0  0  0  0  0
   -1.2028    3.2225   -8.2343 H   0  0  0  1  0  0  0  0  0  0  0  0
    0.3632    1.8905   -8.4652 O   0  0  0  1  0  0  0  0  0  0  0  0
    0.5602    4.2798   -8.7275 C   0  0  0  1  0  0  0  0  0  0  0  0
    0.3481    4.2734   -9.7763 H   0  0  0  1  0  0  0  0  0  0  0  0
    1.6173    4.2115   -8.5765 H   0  0  0  1  0  0  0  0  0  0  0  0
    0.0241    5.4680   -8.0992 O   0  0  0  1  0  0  0  0  0  0  0  0
    0.8126    6.8556   -8.0386 P   0  0  0  1  0  0  0  0  0  0  0  0
    1.0067    7.4029   -9.4206 O   0  0  0  0  0  0  0  0  0  0  0  0
    2.0549    6.7013   -7.2164 O   0  0  0  1  0  0  0  0  0  0  0  0
   -0.2170    7.7399   -7.1778 O   0  0  0  1  0  0  0  0  0  0  0  0
   -1.6618    8.3516   -7.6553 P   0  0  0  1  0  0  0  0  0  0  0  0
   -2.3443    7.3865   -8.5458 O   0  0  0  1  0  0  0  0  0  0  0  0
   -2.4698    8.6978   -6.2945 O   0  5  0  1  0  0  0  0  0  0  0  0
   -1.2555    9.6453   -8.4393 O   0  0  0  1  0  0  0  0  0  0  0  0
   -1.3762   10.4038  -10.7163 C   0  0  0  1  0  0  0  0  0  0  0  0
   -0.5733    9.6705   -9.7187 C   0  0  0  1  0  0  0  0  0  0  0  0
   -0.4220    8.6668  -10.0572 H   0  0  0  1  0  0  0  0  0  0  0  0
    0.3737   10.1551   -9.6036 H   0  0  0  1  0  0  0  0  0  0  0  0
   -1.5576   11.8525  -10.2502 C   0  0  0  1  0  0  0  0  0  0  0  0
   -1.8226   11.8637   -9.2136 H   0  0  0  1  0  0  0  0  0  0  0  0
   -2.3344   12.3161  -10.8217 H   0  0  0  1  0  0  0  0  0  0  0  0
   -0.6425   12.3891  -10.3900 H   0  0  0  1  0  0  0  0  0  0  0  0
   -2.7582    9.7481  -10.8086 C   0  0  0  1  0  0  0  0  0  0  0  0
   -2.6543    8.7441  -11.1638 H   0  0  0  1  0  0  0  0  0  0  0  0
   -3.3720   10.3041  -11.4862 H   0  0  0  1  0  0  0  0  0  0  0  0
   -3.2135    9.7383   -9.8403 H   0  0  0  1  0  0  0  0  0  0  0  0
   -0.6929   10.3566  -12.0939 C   0  0  0  1  0  0  0  0  0  0  0  0
    0.1597   11.0024  -12.0637 H   0  0  0  1  0  0  0  0  0  0  0  0
   -0.2760    9.0281  -12.3595 O   0  0  0  1  0  0  0  0  0  0  0  0
   -0.4093    8.8302  -13.2894 H   0  0  0  1  0  0  0  0  0  0  0  0
   -1.6400   10.8665  -13.1607 C   0  0  0  1  0  0  0  0  0  0  0  0
   -2.6127   11.5582  -12.8625 O   0  0  0  1  0  0  0  0  0  0  0  0
   -1.3871   10.5426  -14.4320 N   0  0  0  1  0  0  0  0  0  0  0  0
   -0.6160    9.9711  -14.6301 H   0  0  0  1  0  0  0  0  0  0  0  0
   -2.2168   11.0089  -15.5329 C   0  0  0  1  0  0  0  0  0  0  0  0
   -1.5798   11.3631  -16.3162 H   0  0  0  1  0  0  0  0  0  0  0  0
   -2.8320   11.8112  -15.1825 H   0  0  0  1  0  0  0  0  0  0  0  0
   -3.1152    9.9134  -16.0920 C   0  0  0  1  0  0  0  0  0  0  0  0
   -2.5029    9.0841  -16.3788 H   0  0  0  1  0  0  0  0  0  0  0  0
   -3.6238   10.2961  -16.9521 H   0  0  0  1  0  0  0  0  0  0  0  0
   -4.1572    9.4242  -15.0888 C   0  0  0  1  0  0  0  0  0  0  0  0
   -4.8409   10.2133  -14.4575 O   0  0  0  1  0  0  0  0  0  0  0  0
   -4.1933    8.1007  -14.9098 N   0  0  0  1  0  0  0  0  0  0  0  0
   -3.5071    7.5331  -15.3188 H   0  0  0  1  0  0  0  0  0  0  0  0
   -5.2495    7.5002  -14.1087 C   0  0  0  1  0  0  0  0  0  0  0  0
   -6.0432    7.1974  -14.7593 H   0  0  0  1  0  0  0  0  0  0  0  0
   -5.6135    8.2315  -13.4175 H   0  0  0  1  0  0  0  0  0  0  0  0
   -4.7732    6.2939  -13.3315 C   0  0  0  1  0  0  0  0  0  0  0  0
   -4.4766    5.5432  -14.0339 H   0  0  0  1  0  0  0  0  0  0  0  0
   -5.5928    5.9319  -12.7465 H   0  0  0  1  0  0  0  0  0  0  0  0
   -3.3817    6.5994  -12.2173 S   0  0  0  1  0  0  0  0  0  0  0  0
   -2.0385    6.2228  -13.2978 C   0  0  0  1  0  0  0  0  0  0  0  0
   -2.1513    5.8432  -14.4321 O   0  0  0  1  0  0  0  0  0  0  0  0
   -0.6750    6.4273  -12.6472 C   0  0  0  1  0  0  0  0  0  0  0  0
    0.0219    6.7763  -13.3803 H   0  0  0  1  0  0  0  0  0  0  0  0
   -0.3308    5.4988  -12.2418 H   0  0  0  1  0  0  0  0  0  0  0  0
   -0.7592    7.1502  -11.8629 H   0  0  0  1  0  0  0  0  0  0  0  0
  1  2  1  0  0  0  0
  1  7  2  0  0  0  0
  2  3  1  0  0  0  0
  2  4  2  0  0  0  0
  4  5  1  0  0  0  0
  5  6  2  0  0  0  0
  5 14  1  0  0  0  0
  6  7  1  0  0  0  0
  6 11  1  0  0  0  0
  7  8  1  0  0  0  0
  8  9  1  0  0  0  0
  8 10  1  0  0  0  0
 11 12  2  0  0  0  0
 12 13  1  0  0  0  0
 12 14  1  0  0  0  0
 14 15  1  0  0  0  0
 15 16  1  0  0  0  0
 15 17  1  0  0  0  0
 15 30  1  0  0  0  0
 17 18  1  0  0  0  0
 17 19  1  0  0  0  0
 17 21  1  0  0  0  0
 19 20  1  0  0  0  0
 21 22  1  0  0  0  0
 21 23  1  0  0  0  0
 21 28  1  0  0  0  0
 23 24  1  0  0  0  0
 24 25  1  0  0  0  0
 24 26  2  0  0  0  0
 24 27  1  0  0  0  0
 28 29  1  0  0  0  0
 28 30  1  0  0  0  0
 28 31  1  0  0  0  0
 31 32  1  0  0  0  0
 31 33  1  0  0  0  0
 31 34  1  0  0  0  0
 34 35  1  0  0  0  0
 35 36  1  0  0  0  0
 35 37  2  0  0  0  0
 35 38  1  0  0  0  0
 38 39  1  0  0  0  0
 39 40  2  0  0  0  0
 39 41  1  0  0  0  0
 39 42  1  0  0  0  0
 42 44  1  0  0  0  0
 43 44  1  0  0  0  0
 43 47  1  0  0  0  0
 43 51  1  0  0  0  0
 43 55  1  0  0  0  0
 44 45  1  0  0  0  0
 44 46  1  0  0  0  0
 47 48  1  0  0  0  0
 47 49  1  0  0  0  0
 47 50  1  0  0  0  0
 51 52  1  0  0  0  0
 51 53  1  0  0  0  0
 51 54  1  0  0  0  0
 55 56  1  0  0  0  0
 55 57  1  0  0  0  0
 55 59  1  0  0  0  0
 57 58  1  0  0  0  0
 59 60  2  0  0  0  0
 59 61  1  0  0  0  0
 61 62  1  0  0  0  0
 61 63  1  0  0  0  0
 63 64  1  0  0  0  0
 63 65  1  0  0  0  0
 63 66  1  0  0  0  0
 66 67  1  0  0  0  0
 66 68  1  0  0  0  0
 66 69  1  0  0  0  0
 69 70  2  0  0  0  0
 69 71  1  0  0  0  0
 71 72  1  0  0  0  0
 71 73  1  0  0  0  0
 73 74  1  0  0  0  0
 73 75  1  0  0  0  0
 73 76  1  0  0  0  0
 76 77  1  0  0  0  0
 76 78  1  0  0  0  0
 76 79  1  0  0  0  0
 79 80  1  0  0  0  0
 80 81  2  0  0  0  0
 80 82  1  0  0  0  0
 82 83  1  0  0  0  0
 82 84  1  0  0  0  0
 82 85  1  0  0  0  0
M  BCL ATM N_Tr2TrTrPi C_TrTrTrPi H_S N_Tr2TrTrPi C_TrTrTrPi C_TrTrTrPi C_TrTrTrPi N_TrTrTrPi2 H_S H_S N_Tr2TrTrPi C_TrTrTrPi H_S N_TrTrTrPi2 C_TeTeTeTe H_S C_TeTeTeTe H_S O_Te2Te2TeTe H_S C_TeTeTeTe H_S O_Tr2TrTrPi2 P_TeTeTeTePi O_Te2Te2TeTe O_Tr2Tr2TrPi O_Te2Te2Te2Te C_TeTeTeTe H_S O_Te2Te2TeTe C_TeTeTeTe H_S H_S O_Tr2TrTrPi2 P_TeTeTeTePi O_Te2Te2TeTe O_Tr2Tr2TrPi O_Tr2TrTrPi2 P_TeTeTeTePi O_Tr2Tr2TrPi O_Te2Te2Te2Te O_Tr2TrTrPi2 C_TeTeTeTe C_TeTeTeTe H_S H_S C_TeTeTeTe H_S H_S H_S C_TeTeTeTe H_S H_S H_S C_TeTeTeTe H_S O_Te2Te2TeTe H_S C_TrTrTrPi O_Tr2Tr2TrPi N_TrTrTrPi2 H_S C_TeTeTeTe H_S H_S C_TeTeTeTe H_S H_S C_TrTrTrPi O_Tr2Tr2TrPi N_TrTrTrPi2 H_S C_TeTeTeTe H_S H_S C_TeTeTeTe H_S H_S S_Te2Te2TeTe C_TrTrTrPi O_Tr2Tr2TrPi C_TeTeTeTe H_S H_S H_S
M  BCL BND AromaticSingleBond AromaticDoubleBond NonConjugatedSingleBond AromaticDoubleBond AromaticSingleBond AromaticDoubleBond AromaticSingleBond AromaticSingleBond AromaticSingleBond ConjugatedSingleBond NonConjugatedSingleBond NonConjugatedSingleBond AromaticDoubleBond NonConjugatedSingleBond AromaticSingleBond NonConjugatedSingleBond NonConjugatedSingleBond NonConjugatedSingleBondInRing NonConjugatedSingleBondInRing NonConjugatedSingleBond NonConjugatedSingleBond NonConjugatedSingleBondInRing NonConjugatedSingleBond NonConjugatedSingleBond NonConjugatedSingleBond NonConjugatedSingleBondInRing ConjugatedSingleBond ConjugatedSingleBond ConjugatedDoubleBond ConjugatedSingleBond NonConjugatedSingleBond NonConjugatedSingleBondInRing NonConjugatedSingleBond NonConjugatedSingleBond NonConjugatedSingleBond NonConjugatedSingleBond ConjugatedSingleBond ConjugatedSingleBond ConjugatedDoubleBond ConjugatedSingleBond ConjugatedSingleBond ConjugatedDoubleBond ConjugatedSingleBond ConjugatedSingleBond NonConjugatedSingleBond NonConjugatedSingleBond NonConjugatedSingleBond NonConjugatedSingleBond NonConjugatedSingleBond NonConjugatedSingleBond NonConjugatedSingleBond NonConjugatedSingleBond NonConjugatedSingleBond NonConjugatedSingleBond NonConjugatedSingleBond NonConjugatedSingleBond NonConjugatedSingleBond NonConjugatedSingleBond NonConjugatedSingleBond NonConjugatedSingleBond NonConjugatedSingleBond ConjugatedDoubleBond AmideSingleBond NonConjugatedSingleBond NonConjugatedSingleBond NonConjugatedSingleBond NonConjugatedSingleBond NonConjugatedSingleBond NonConjugatedSingleBond NonConjugatedSingleBond NonConjugatedSingleBond ConjugatedDoubleBond AmideSingleBond NonConjugatedSingleBond NonConjugatedSingleBond NonConjugatedSingleBond NonConjugatedSingleBond NonConjugatedSingleBond NonConjugatedSingleBond NonConjugatedSingleBond NonConjugatedSingleBond ConjugatedSingleBond ConjugatedDoubleBond NonConjugatedSingleBond NonConjugatedSingleBond NonConjugatedSingleBond NonConjugatedSingleBond
M  BCL CHI  15   S  17   S  21   S  24   S  28   R  35   R  39   R  55   S
M  BCL DBI - - - - - - - - - -
M  END
> <ConfClashScore>
0 

> <ConfOneFourInteractionScore>
-0.981211 

> <ConfScore>
0.060673 

> <ConfScorePBest>
0.00768248 

> <ConfTolerance>
2.79707 

$$$$
ACO.****
  PyMOL2.5          3D                             0

 85 87  0  0  0  0  0  0  0  0999 V2000
    4.8846    1.1116  -10.6623 N   0  0  0  1  0  0  0  0  0  0  0  0
    3.8311    1.9346  -10.5412 C   0  0  0  1  0  0  0  0  0  0  0  0
    3.7922    2.7189  -11.2231 H   0  0  0  1  0  0  0  0  0  0  0  0
    2.8322    1.8827   -9.6685 N   0  0  0  1  0  0  0  0  0  0  0  0
    2.9635    0.8447   -8.8413 C   0  0  0  1  0  0  0  0  0  0  0  0
    4.0010   -0.0973   -8.8377 C   0  0  0  1  0  0  0  0  0  0  0  0
    4.9838    0.0897   -9.8053 C   0  0  0  1  0  0  0  0  0  0  0  0
    6.0413   -0.7950   -9.8503 N   0  0  0  1  0  0  0  0  0  0  0  0
    6.7739   -0.6510  -10.4850 H   0  0  0  1  0  0  0  0  0  0  0  0
    6.0599   -1.5675   -9.2475 H   0  0  0  1  0  0  0  0  0  0  0  0
    3.8059   -1.0229   -7.8245 N   0  0  0  1  0  0  0  0  0  0  0  0
    2.6932   -0.6331   -7.2644 C   0  0  0  1  0  0  0  0  0  0  0  0
    2.2664   -1.1351   -6.4598 H   0  0  0  1  0  0  0  0  0  0  0  0
    2.1336    0.4800   -7.8128 N   0  0  0  1  0  0  0  0  0  0  0  0
    0.8903    1.1137   -7.3504 C   0  0  0  1  0  0  0  0  0  0  0  0
    0.4427    0.5089   -6.5896 H   0  0  0  1  0  0  0  0  0  0  0  0
    1.1776    2.5241   -6.8117 C   0  0  0  1  0  0  0  0  0  0  0  0
    1.9800    2.9862   -7.3481 H   0  0  0  1  0  0  0  0  0  0  0  0
    1.4908    2.4899   -5.4272 O   0  0  0  1  0  0  0  0  0  0  0  0
    1.6795    3.3794   -5.1192 H   0  0  0  1  0  0  0  0  0  0  0  0
   -0.1347    3.2471   -7.0590 C   0  0  0  1  0  0  0  0  0  0  0  0
    0.0269    4.2905   -7.2320 H   0  0  0  1  0  0  0  0  0  0  0  0
   -1.0290    3.0793   -5.9593 O   0  0  0  1  0  0  0  0  0  0  0  0
   -1.8321    4.2303   -5.1109 P   0  0  0  1  0  0  0  0  0  0  0  0
   -0.7735    5.2677   -4.4088 O   0  0  0  0  0  0  0  0  0  0  0  0
   -2.7941    4.8575   -6.0445 O   0  0  0  1  0  0  0  0  0  0  0  0
   -2.5901    3.4846   -3.8887 O   0  5  0  1  0  0  0  0  0  0  0  0
   -0.6769    2.5484   -8.3304 C   0  0  0  1  0  0  0  0  0  0  0  0
   -1.7325    2.3946   -8.2466 H   0  0  0  1  0  0  0  0  0  0  0  0
    0.0049    1.2847   -8.4193 O   0  0  0  1  0  0  0  0  0  0  0  0
   -0.3916    3.3676   -9.5241 C   0  0  0  1  0  0  0  0  0  0  0  0
   -0.8031    2.8876  -10.3874 H   0  0  0  1  0  0  0  0  0  0  0  0
    0.6677    3.4643   -9.6401 H   0  0  0  1  0  0  0  0  0  0  0  0
   -0.9792    4.6862   -9.3854 O   0  0  0  1  0  0  0  0  0  0  0  0
   -2.2081    5.0632  -10.2930 P   0  0  0  1  0  0  0  0  0  0  0  0
   -1.8207    4.5996  -11.6444 O   0  0  0  0  0  0  0  0  0  0  0  0
   -2.6671    6.4608  -10.1226 O   0  0  0  1  0  0  0  0  0  0  0  0
   -3.3097    4.0873   -9.6565 O   0  0  0  1  0  0  0  0  0  0  0  0
   -4.1872    4.2306   -8.2784 P   0  0  0  1  0  0  0  0  0  0  0  0
   -3.7677    3.1949   -7.3079 O   0  0  0  1  0  0  0  0  0  0  0  0
   -3.9721    5.7538   -7.7705 O   0  5  0  1  0  0  0  0  0  0  0  0
   -5.6688    3.9759   -8.7712 O   0  0  0  1  0  0  0  0  0  0  0  0
   -7.4711    4.4593  -10.3031 C   0  0  0  1  0  0  0  0  0  0  0  0
   -6.2991    4.9682   -9.6099 C   0  0  0  1  0  0  0  0  0  0  0  0
   -5.5892    5.3007  -10.3382 H   0  0  0  1  0  0  0  0  0  0  0  0
   -6.5962    5.7940   -8.9977 H   0  0  0  1  0  0  0  0  0  0  0  0
   -8.0547    5.5669  -11.1847 C   0  0  0  1  0  0  0  0  0  0  0  0
   -8.2906    6.4176  -10.5801 H   0  0  0  1  0  0  0  0  0  0  0  0
   -8.9439    5.2113  -11.6619 H   0  0  0  1  0  0  0  0  0  0  0  0
   -7.3374    5.8458  -11.9281 H   0  0  0  1  0  0  0  0  0  0  0  0
   -8.5268    4.0642   -9.2565 C   0  0  0  1  0  0  0  0  0  0  0  0
   -8.0867    3.4072   -8.5357 H   0  0  0  1  0  0  0  0  0  0  0  0
   -9.3409    3.5672   -9.7415 H   0  0  0  1  0  0  0  0  0  0  0  0
   -8.8872    4.9432   -8.7644 H   0  0  0  1  0  0  0  0  0  0  0  0
   -7.1023    3.2318  -11.1465 C   0  0  0  1  0  0  0  0  0  0  0  0
   -6.3233    3.5079  -11.8261 H   0  0  0  1  0  0  0  0  0  0  0  0
   -6.6050    2.2725  -10.1987 O   0  0  0  1  0  0  0  0  0  0  0  0
   -5.7946    1.8818  -10.5334 H   0  0  0  1  0  0  0  0  0  0  0  0
   -8.2428    2.6336  -11.9294 C   0  0  0  1  0  0  0  0  0  0  0  0
   -9.2171    3.3130  -12.2417 O   0  0  0  1  0  0  0  0  0  0  0  0
   -8.1615    1.3449  -12.2723 N   0  0  0  1  0  0  0  0  0  0  0  0
   -7.3772    0.8291  -11.9907 H   0  0  0  1  0  0  0  0  0  0  0  0
   -9.1971    0.6804  -13.0493 C   0  0  0  1  0  0  0  0  0  0  0  0
  -10.1243    1.1979  -12.9174 H   0  0  0  1  0  0  0  0  0  0  0  0
   -9.3002   -0.3291  -12.7100 H   0  0  0  1  0  0  0  0  0  0  0  0
   -8.8283    0.6787  -14.5271 C   0  0  0  1  0  0  0  0  0  0  0  0
   -8.9497    1.6706  -14.9095 H   0  0  0  1  0  0  0  0  0  0  0  0
   -9.4895    0.0137  -15.0423 H   0  0  0  1  0  0  0  0  0  0  0  0
   -7.4084    0.2365  -14.7812 C   0  0  0  1  0  0  0  0  0  0  0  0
   -7.1329   -0.9455  -14.9689 O   0  0  0  1  0  0  0  0  0  0  0  0
   -6.4924    1.2053  -14.7870 N   0  0  0  1  0  0  0  0  0  0  0  0
   -6.7541    2.1054  -14.5012 H   0  0  0  1  0  0  0  0  0  0  0  0
   -5.1185    0.9727  -15.2028 C   0  0  0  1  0  0  0  0  0  0  0  0
   -4.9515   -0.0826  -15.2597 H   0  0  0  1  0  0  0  0  0  0  0  0
   -4.4625    1.3993  -14.4729 H   0  0  0  1  0  0  0  0  0  0  0  0
   -4.8092    1.5842  -16.5468 C   0  0  0  1  0  0  0  0  0  0  0  0
   -3.7667    1.4735  -16.7609 H   0  0  0  1  0  0  0  0  0  0  0  0
   -5.0633    2.6236  -16.5360 H   0  0  0  1  0  0  0  0  0  0  0  0
   -5.7831    0.7336  -17.8114 S   0  0  0  1  0  0  0  0  0  0  0  0
   -7.3249    1.6170  -17.7572 C   0  0  0  1  0  0  0  0  0  0  0  0
   -7.5186    2.5644  -17.0536 O   0  0  0  1  0  0  0  0  0  0  0  0
   -8.3531    1.0333  -18.6983 C   0  0  0  1  0  0  0  0  0  0  0  0
   -9.1889    0.6734  -18.1354 H   0  0  0  1  0  0  0  0  0  0  0  0
   -7.9167    0.2239  -19.2453 H   0  0  0  1  0  0  0  0  0  0  0  0
   -8.6818    1.7893  -19.3804 H   0  0  0  1  0  0  0  0  0  0  0  0
  1  2  1  0  0  0  0
  1  7  2  0  0  0  0
  2  3  1  0  0  0  0
  2  4  2  0  0  0  0
  4  5  1  0  0  0  0
  5  6  2  0  0  0  0
  5 14  1  0  0  0  0
  6  7  1  0  0  0  0
  6 11  1  0  0  0  0
  7  8  1  0  0  0  0
  8  9  1  0  0  0  0
  8 10  1  0  0  0  0
 11 12  2  0  0  0  0
 12 13  1  0  0  0  0
 12 14  1  0  0  0  0
 14 15  1  0  0  0  0
 15 16  1  0  0  0  0
 15 17  1  0  0  0  0
 15 30  1  0  0  0  0
 17 18  1  0  0  0  0
 17 19  1  0  0  0  0
 17 21  1  0  0  0  0
 19 20  1  0  0  0  0
 21 22  1  0  0  0  0
 21 23  1  0  0  0  0
 21 28  1  0  0  0  0
 23 24  1  0  0  0  0
 24 25  1  0  0  0  0
 24 26  2  0  0  0  0
 24 27  1  0  0  0  0
 28 29  1  0  0  0  0
 28 30  1  0  0  0  0
 28 31  1  0  0  0  0
 31 32  1  0  0  0  0
 31 33  1  0  0  0  0
 31 34  1  0  0  0  0
 34 35  1  0  0  0  0
 35 36  1  0  0  0  0
 35 37  2  0  0  0  0
 35 38  1  0  0  0  0
 38 39  1  0  0  0  0
 39 40  2  0  0  0  0
 39 41  1  0  0  0  0
 39 42  1  0  0  0  0
 42 44  1  0  0  0  0
 43 44  1  0  0  0  0
 43 47  1  0  0  0  0
 43 51  1  0  0  0  0
 43 55  1  0  0  0  0
 44 45  1  0  0  0  0
 44 46  1  0  0  0  0
 47 48  1  0  0  0  0
 47 49  1  0  0  0  0
 47 50  1  0  0  0  0
 51 52  1  0  0  0  0
 51 53  1  0  0  0  0
 51 54  1  0  0  0  0
 55 56  1  0  0  0  0
 55 57  1  0  0  0  0
 55 59  1  0  0  0  0
 57 58  1  0  0  0  0
 59 60  2  0  0  0  0
 59 61  1  0  0  0  0
 61 62  1  0  0  0  0
 61 63  1  0  0  0  0
 63 64  1  0  0  0  0
 63 65  1  0  0  0  0
 63 66  1  0  0  0  0
 66 67  1  0  0  0  0
 66 68  1  0  0  0  0
 66 69  1  0  0  0  0
 69 70  2  0  0  0  0
 69 71  1  0  0  0  0
 71 72  1  0  0  0  0
 71 73  1  0  0  0  0
 73 74  1  0  0  0  0
 73 75  1  0  0  0  0
 73 76  1  0  0  0  0
 76 77  1  0  0  0  0
 76 78  1  0  0  0  0
 76 79  1  0  0  0  0
 79 80  1  0  0  0  0
 80 81  2  0  0  0  0
 80 82  1  0  0  0  0
 82 83  1  0  0  0  0
 82 84  1  0  0  0  0
 82 85  1  0  0  0  0
M  BCL ATM N_Tr2TrTrPi C_TrTrTrPi H_S N_Tr2TrTrPi C_TrTrTrPi C_TrTrTrPi C_TrTrTrPi N_TrTrTrPi2 H_S H_S N_Tr2TrTrPi C_TrTrTrPi H_S N_TrTrTrPi2 C_TeTeTeTe H_S C_TeTeTeTe H_S O_Te2Te2TeTe H_S C_TeTeTeTe H_S O_Tr2TrTrPi2 P_TeTeTeTePi O_Te2Te2TeTe O_Tr2Tr2TrPi O_Te2Te2Te2Te C_TeTeTeTe H_S O_Te2Te2TeTe C_TeTeTeTe H_S H_S O_Tr2TrTrPi2 P_TeTeTeTePi O_Te2Te2TeTe O_Tr2Tr2TrPi O_Tr2TrTrPi2 P_TeTeTeTePi O_Tr2Tr2TrPi O_Te2Te2Te2Te O_Tr2TrTrPi2 C_TeTeTeTe C_TeTeTeTe H_S H_S C_TeTeTeTe H_S H_S H_S C_TeTeTeTe H_S H_S H_S C_TeTeTeTe H_S O_Te2Te2TeTe H_S C_TrTrTrPi O_Tr2Tr2TrPi N_TrTrTrPi2 H_S C_TeTeTeTe H_S H_S C_TeTeTeTe H_S H_S C_TrTrTrPi O_Tr2Tr2TrPi N_TrTrTrPi2 H_S C_TeTeTeTe H_S H_S C_TeTeTeTe H_S H_S S_Te2Te2TeTe C_TrTrTrPi O_Tr2Tr2TrPi C_TeTeTeTe H_S H_S H_S
M  BCL BND AromaticSingleBond AromaticDoubleBond NonConjugatedSingleBond AromaticDoubleBond AromaticSingleBond AromaticDoubleBond AromaticSingleBond AromaticSingleBond AromaticSingleBond ConjugatedSingleBond NonConjugatedSingleBond NonConjugatedSingleBond AromaticDoubleBond NonConjugatedSingleBond AromaticSingleBond NonConjugatedSingleBond NonConjugatedSingleBond NonConjugatedSingleBondInRing NonConjugatedSingleBondInRing NonConjugatedSingleBond NonConjugatedSingleBond NonConjugatedSingleBondInRing NonConjugatedSingleBond NonConjugatedSingleBond NonConjugatedSingleBond NonConjugatedSingleBondInRing ConjugatedSingleBond ConjugatedSingleBond ConjugatedDoubleBond ConjugatedSingleBond NonConjugatedSingleBond NonConjugatedSingleBondInRing NonConjugatedSingleBond NonConjugatedSingleBond NonConjugatedSingleBond NonConjugatedSingleBond ConjugatedSingleBond ConjugatedSingleBond ConjugatedDoubleBond ConjugatedSingleBond ConjugatedSingleBond ConjugatedDoubleBond ConjugatedSingleBond ConjugatedSingleBond NonConjugatedSingleBond NonConjugatedSingleBond NonConjugatedSingleBond NonConjugatedSingleBond NonConjugatedSingleBond NonConjugatedSingleBond NonConjugatedSingleBond NonConjugatedSingleBond NonConjugatedSingleBond NonConjugatedSingleBond NonConjugatedSingleBond NonConjugatedSingleBond NonConjugatedSingleBond NonConjugatedSingleBond NonConjugatedSingleBond NonConjugatedSingleBond NonConjugatedSingleBond ConjugatedDoubleBond AmideSingleBond NonConjugatedSingleBond NonConjugatedSingleBond NonConjugatedSingleBond NonConjugatedSingleBond NonConjugatedSingleBond NonConjugatedSingleBond NonConjugatedSingleBond NonConjugatedSingleBond ConjugatedDoubleBond AmideSingleBond NonConjugatedSingleBond NonConjugatedSingleBond NonConjugatedSingleBond NonConjugatedSingleBond NonConjugatedSingleBond NonConjugatedSingleBond NonConjugatedSingleBond NonConjugatedSingleBond ConjugatedSingleBond ConjugatedDoubleBond NonConjugatedSingleBond NonConjugatedSingleBond NonConjugatedSingleBond NonConjugatedSingleBond
M  BCL CHI  15   S  17   S  21   S  24   S  28   R  35   R  39   R  55   S
M  BCL DBI - - - - - - - - - -
M  END
> <ConfClashScore>
0.000308026 

> <ConfOneFourInteractionScore>
-0.983094 

> <ConfScore>
0.0608002 

> <ConfScorePBest>
0.00757948 

> <ConfTolerance>
2.57416 

$$$$
ACO.****
  PyMOL2.5          3D                             0

 85 87  0  0  0  0  0  0  0  0999 V2000
    4.8855    1.0756  -10.6420 N   0  0  0  1  0  0  0  0  0  0  0  0
    3.8357    1.9049  -10.5315 C   0  0  0  1  0  0  0  0  0  0  0  0
    3.8033    2.6836  -11.2201 H   0  0  0  1  0  0  0  0  0  0  0  0
    2.8336    1.8653   -9.6620 N   0  0  0  1  0  0  0  0  0  0  0  0
    2.9566    0.8336   -8.8257 C   0  0  0  1  0  0  0  0  0  0  0  0
    3.9893   -0.1136   -8.8106 C   0  0  0  1  0  0  0  0  0  0  0  0
    4.9765    0.0603   -9.7761 C   0  0  0  1  0  0  0  0  0  0  0  0
    6.0614   -0.7679   -9.8934 N   0  0  0  1  0  0  0  0  0  0  0  0
    6.7107   -0.6259  -10.6136 H   0  0  0  1  0  0  0  0  0  0  0  0
    6.1882   -1.5024   -9.2571 H   0  0  0  1  0  0  0  0  0  0  0  0
    3.7859   -1.0297   -7.7904 N   0  0  0  1  0  0  0  0  0  0  0  0
    2.6733   -0.6296   -7.2375 C   0  0  0  1  0  0  0  0  0  0  0  0
    2.2411   -1.1227   -6.4303 H   0  0  0  1  0  0  0  0  0  0  0  0
    2.1212    0.4817   -7.7971 N   0  0  0  1  0  0  0  0  0  0  0  0
    0.8908    1.1610   -7.3867 C   0  0  0  1  0  0  0  0  0  0  0  0
    0.9798    2.2095   -7.5810 H   0  0  0  1  0  0  0  0  0  0  0  0
   -0.3112    0.5835   -8.1591 C   0  0  0  1  0  0  0  0  0  0  0  0
   -0.1550   -0.4456   -8.4070 H   0  0  0  1  0  0  0  0  0  0  0  0
   -0.5667    1.3278   -9.3516 O   0  0  0  1  0  0  0  0  0  0  0  0
   -1.0102    2.1493   -9.1278 H   0  0  0  1  0  0  0  0  0  0  0  0
   -1.4530    0.7449   -7.1472 C   0  0  0  1  0  0  0  0  0  0  0  0
   -2.1776   -0.0344   -7.2586 H   0  0  0  1  0  0  0  0  0  0  0  0
   -2.1017    2.0344   -7.2958 O   0  0  0  1  0  0  0  0  0  0  0  0
   -3.6625    2.1386   -7.7884 P   0  0  0  1  0  0  0  0  0  0  0  0
   -3.8474    1.4358   -9.2586 O   0  0  0  0  0  0  0  0  0  0  0  0
   -4.4917    1.5561   -6.7097 O   0  0  0  1  0  0  0  0  0  0  0  0
   -3.9924    3.7092   -8.0092 O   0  5  0  1  0  0  0  0  0  0  0  0
   -0.7377    0.6417   -5.7945 C   0  0  0  1  0  0  0  0  0  0  0  0
   -1.1557    1.3433   -5.1033 H   0  0  0  1  0  0  0  0  0  0  0  0
    0.6602    0.9473   -6.0303 O   0  0  0  1  0  0  0  0  0  0  0  0
   -0.8733   -0.7242   -5.2526 C   0  0  0  1  0  0  0  0  0  0  0  0
   -1.8200   -0.8163   -4.7626 H   0  0  0  1  0  0  0  0  0  0  0  0
   -0.0877   -0.9035   -4.5486 H   0  0  0  1  0  0  0  0  0  0  0  0
   -0.7908   -1.7027   -6.3197 O   0  0  0  1  0  0  0  0  0  0  0  0
   -0.0086   -3.0766   -6.0442 P   0  0  0  1  0  0  0  0  0  0  0  0
    1.3857   -2.7584   -5.6506 O   0  0  0  0  0  0  0  0  0  0  0  0
   -0.2313   -3.9894   -7.1771 O   0  0  0  1  0  0  0  0  0  0  0  0
   -0.8417   -3.6687   -4.8039 O   0  0  0  1  0  0  0  0  0  0  0  0
   -0.7929   -3.1871   -3.2370 P   0  0  0  1  0  0  0  0  0  0  0  0
   -0.7442   -4.4147   -2.4118 O   0  0  0  1  0  0  0  0  0  0  0  0
    0.4980   -2.2278   -3.0428 O   0  5  0  1  0  0  0  0  0  0  0  0
   -2.0899   -2.3306   -3.0432 O   0  0  0  1  0  0  0  0  0  0  0  0
   -4.3218   -1.6911   -2.5589 C   0  0  0  1  0  0  0  0  0  0  0  0
   -3.3763   -2.8445   -2.6353 C   0  0  0  1  0  0  0  0  0  0  0  0
   -3.2944   -3.3126   -1.6766 H   0  0  0  1  0  0  0  0  0  0  0  0
   -3.7280   -3.5571   -3.3519 H   0  0  0  1  0  0  0  0  0  0  0  0
   -4.4239   -1.0507   -3.9476 C   0  0  0  1  0  0  0  0  0  0  0  0
   -3.4695   -1.0896   -4.4298 H   0  0  0  1  0  0  0  0  0  0  0  0
   -4.7316   -0.0308   -3.8480 H   0  0  0  1  0  0  0  0  0  0  0  0
   -5.1417   -1.5847   -4.5344 H   0  0  0  1  0  0  0  0  0  0  0  0
   -3.8287   -0.6037   -1.5799 C   0  0  0  1  0  0  0  0  0  0  0  0
   -2.8219   -0.3347   -1.8225 H   0  0  0  1  0  0  0  0  0  0  0  0
   -3.8656   -0.9815   -0.5795 H   0  0  0  1  0  0  0  0  0  0  0  0
   -4.4570    0.2588   -1.6594 H   0  0  0  1  0  0  0  0  0  0  0  0
   -5.7040   -2.2129   -2.1440 C   0  0  0  1  0  0  0  0  0  0  0  0
   -5.5903   -2.7191   -1.2082 H   0  0  0  1  0  0  0  0  0  0  0  0
   -6.5520   -1.0752   -1.9547 O   0  0  0  1  0  0  0  0  0  0  0  0
   -7.4683   -1.3599   -1.9256 H   0  0  0  1  0  0  0  0  0  0  0  0
   -6.2968   -3.2025   -3.1409 C   0  0  0  1  0  0  0  0  0  0  0  0
   -7.2836   -2.8496   -3.7853 O   0  0  0  1  0  0  0  0  0  0  0  0
   -5.7177   -4.3950   -3.2628 N   0  0  0  1  0  0  0  0  0  0  0  0
   -4.9183   -4.5678   -2.7228 H   0  0  0  1  0  0  0  0  0  0  0  0
   -6.1821   -5.4612   -4.1376 C   0  0  0  1  0  0  0  0  0  0  0  0
   -6.6781   -5.0045   -4.9684 H   0  0  0  1  0  0  0  0  0  0  0  0
   -6.8823   -6.0513   -3.5840 H   0  0  0  1  0  0  0  0  0  0  0  0
   -5.1230   -6.4068   -4.6964 C   0  0  0  1  0  0  0  0  0  0  0  0
   -4.3770   -5.8350   -5.2077 H   0  0  0  1  0  0  0  0  0  0  0  0
   -5.5854   -7.0854   -5.3824 H   0  0  0  1  0  0  0  0  0  0  0  0
   -4.4715   -7.1909   -3.5907 C   0  0  0  1  0  0  0  0  0  0  0  0
   -5.0555   -7.6120   -2.6093 O   0  0  0  1  0  0  0  0  0  0  0  0
   -3.1643   -7.3932   -3.7785 N   0  0  0  1  0  0  0  0  0  0  0  0
   -2.7580   -7.1070   -4.6231 H   0  0  0  1  0  0  0  0  0  0  0  0
   -2.3171   -8.0280   -2.7657 C   0  0  0  1  0  0  0  0  0  0  0  0
   -2.7901   -7.9480   -1.8092 H   0  0  0  1  0  0  0  0  0  0  0  0
   -1.3689   -7.5331   -2.7378 H   0  0  0  1  0  0  0  0  0  0  0  0
   -2.1086   -9.4849   -3.0976 C   0  0  0  1  0  0  0  0  0  0  0  0
   -1.4309   -9.8949   -2.3782 H   0  0  0  1  0  0  0  0  0  0  0  0
   -1.6727   -9.5434   -4.0730 H   0  0  0  1  0  0  0  0  0  0  0  0
   -3.6087  -10.4952   -3.0931 S   0  0  0  1  0  0  0  0  0  0  0  0
   -3.0149  -12.0543   -3.7070 C   0  0  0  1  0  0  0  0  0  0  0  0
   -1.8787  -12.2432   -4.0488 O   0  0  0  1  0  0  0  0  0  0  0  0
   -4.1001  -13.1051   -3.7473 C   0  0  0  1  0  0  0  0  0  0  0  0
   -4.5990  -13.0672   -4.6931 H   0  0  0  1  0  0  0  0  0  0  0  0
   -4.8055  -12.9193   -2.9645 H   0  0  0  1  0  0  0  0  0  0  0  0
   -3.6641  -14.0730   -3.6129 H   0  0  0  1  0  0  0  0  0  0  0  0
  1  2  1  0  0  0  0
  1  7  2  0  0  0  0
  2  3  1  0  0  0  0
  2  4  2  0  0  0  0
  4  5  1  0  0  0  0
  5  6  2  0  0  0  0
  5 14  1  0  0  0  0
  6  7  1  0  0  0  0
  6 11  1  0  0  0  0
  7  8  1  0  0  0  0
  8  9  1  0  0  0  0
  8 10  1  0  0  0  0
 11 12  2  0  0  0  0
 12 13  1  0  0  0  0
 12 14  1  0  0  0  0
 14 15  1  0  0  0  0
 15 16  1  0  0  0  0
 15 17  1  0  0  0  0
 15 30  1  0  0  0  0
 17 18  1  0  0  0  0
 17 19  1  0  0  0  0
 17 21  1  0  0  0  0
 19 20  1  0  0  0  0
 21 22  1  0  0  0  0
 21 23  1  0  0  0  0
 21 28  1  0  0  0  0
 23 24  1  0  0  0  0
 24 25  1  0  0  0  0
 24 26  2  0  0  0  0
 24 27  1  0  0  0  0
 28 29  1  0  0  0  0
 28 30  1  0  0  0  0
 28 31  1  0  0  0  0
 31 32  1  0  0  0  0
 31 33  1  0  0  0  0
 31 34  1  0  0  0  0
 34 35  1  0  0  0  0
 35 36  1  0  0  0  0
 35 37  2  0  0  0  0
 35 38  1  0  0  0  0
 38 39  1  0  0  0  0
 39 40  2  0  0  0  0
 39 41  1  0  0  0  0
 39 42  1  0  0  0  0
 42 44  1  0  0  0  0
 43 44  1  0  0  0  0
 43 47  1  0  0  0  0
 43 51  1  0  0  0  0
 43 55  1  0  0  0  0
 44 45  1  0  0  0  0
 44 46  1  0  0  0  0
 47 48  1  0  0  0  0
 47 49  1  0  0  0  0
 47 50  1  0  0  0  0
 51 52  1  0  0  0  0
 51 53  1  0  0  0  0
 51 54  1  0  0  0  0
 55 56  1  0  0  0  0
 55 57  1  0  0  0  0
 55 59  1  0  0  0  0
 57 58  1  0  0  0  0
 59 60  2  0  0  0  0
 59 61  1  0  0  0  0
 61 62  1  0  0  0  0
 61 63  1  0  0  0  0
 63 64  1  0  0  0  0
 63 65  1  0  0  0  0
 63 66  1  0  0  0  0
 66 67  1  0  0  0  0
 66 68  1  0  0  0  0
 66 69  1  0  0  0  0
 69 70  2  0  0  0  0
 69 71  1  0  0  0  0
 71 72  1  0  0  0  0
 71 73  1  0  0  0  0
 73 74  1  0  0  0  0
 73 75  1  0  0  0  0
 73 76  1  0  0  0  0
 76 77  1  0  0  0  0
 76 78  1  0  0  0  0
 76 79  1  0  0  0  0
 79 80  1  0  0  0  0
 80 81  2  0  0  0  0
 80 82  1  0  0  0  0
 82 83  1  0  0  0  0
 82 84  1  0  0  0  0
 82 85  1  0  0  0  0
M  BCL ATM N_Tr2TrTrPi C_TrTrTrPi H_S N_Tr2TrTrPi C_TrTrTrPi C_TrTrTrPi C_TrTrTrPi N_TrTrTrPi2 H_S H_S N_Tr2TrTrPi C_TrTrTrPi H_S N_TrTrTrPi2 C_TeTeTeTe H_S C_TeTeTeTe H_S O_Te2Te2TeTe H_S C_TeTeTeTe H_S O_Tr2TrTrPi2 P_TeTeTeTePi O_Te2Te2TeTe O_Tr2Tr2TrPi O_Te2Te2Te2Te C_TeTeTeTe H_S O_Te2Te2TeTe C_TeTeTeTe H_S H_S O_Tr2TrTrPi2 P_TeTeTeTePi O_Te2Te2TeTe O_Tr2Tr2TrPi O_Tr2TrTrPi2 P_TeTeTeTePi O_Tr2Tr2TrPi O_Te2Te2Te2Te O_Tr2TrTrPi2 C_TeTeTeTe C_TeTeTeTe H_S H_S C_TeTeTeTe H_S H_S H_S C_TeTeTeTe H_S H_S H_S C_TeTeTeTe H_S O_Te2Te2TeTe H_S C_TrTrTrPi O_Tr2Tr2TrPi N_TrTrTrPi2 H_S C_TeTeTeTe H_S H_S C_TeTeTeTe H_S H_S C_TrTrTrPi O_Tr2Tr2TrPi N_TrTrTrPi2 H_S C_TeTeTeTe H_S H_S C_TeTeTeTe H_S H_S S_Te2Te2TeTe C_TrTrTrPi O_Tr2Tr2TrPi C_TeTeTeTe H_S H_S H_S
M  BCL BND AromaticSingleBond AromaticDoubleBond NonConjugatedSingleBond AromaticDoubleBond AromaticSingleBond AromaticDoubleBond AromaticSingleBond AromaticSingleBond AromaticSingleBond ConjugatedSingleBond NonConjugatedSingleBond NonConjugatedSingleBond AromaticDoubleBond NonConjugatedSingleBond AromaticSingleBond NonConjugatedSingleBond NonConjugatedSingleBond NonConjugatedSingleBondInRing NonConjugatedSingleBondInRing NonConjugatedSingleBond NonConjugatedSingleBond NonConjugatedSingleBondInRing NonConjugatedSingleBond NonConjugatedSingleBond NonConjugatedSingleBond NonConjugatedSingleBondInRing ConjugatedSingleBond ConjugatedSingleBond ConjugatedDoubleBond ConjugatedSingleBond NonConjugatedSingleBond NonConjugatedSingleBondInRing NonConjugatedSingleBond NonConjugatedSingleBond NonConjugatedSingleBond NonConjugatedSingleBond ConjugatedSingleBond ConjugatedSingleBond ConjugatedDoubleBond ConjugatedSingleBond ConjugatedSingleBond ConjugatedDoubleBond ConjugatedSingleBond ConjugatedSingleBond NonConjugatedSingleBond NonConjugatedSingleBond NonConjugatedSingleBond NonConjugatedSingleBond NonConjugatedSingleBond NonConjugatedSingleBond NonConjugatedSingleBond NonConjugatedSingleBond NonConjugatedSingleBond NonConjugatedSingleBond NonConjugatedSingleBond NonConjugatedSingleBond NonConjugatedSingleBond NonConjugatedSingleBond NonConjugatedSingleBond NonConjugatedSingleBond NonConjugatedSingleBond ConjugatedDoubleBond AmideSingleBond NonConjugatedSingleBond NonConjugatedSingleBond NonConjugatedSingleBond NonConjugatedSingleBond NonConjugatedSingleBond NonConjugatedSingleBond NonConjugatedSingleBond NonConjugatedSingleBond ConjugatedDoubleBond AmideSingleBond NonConjugatedSingleBond NonConjugatedSingleBond NonConjugatedSingleBond NonConjugatedSingleBond NonConjugatedSingleBond NonConjugatedSingleBond NonConjugatedSingleBond NonConjugatedSingleBond ConjugatedSingleBond ConjugatedDoubleBond NonConjugatedSingleBond NonConjugatedSingleBond NonConjugatedSingleBond NonConjugatedSingleBond
M  BCL CHI  15   S  17   S  21   S  24   S  28   R  35   R  39   R  55   S
M  BCL DBI - - - - - - - - - -
M  END
> <ConfClashScore>
0.000193302 

> <ConfOneFourInteractionScore>
-0.974729 

> <ConfScore>
0.0636144 

> <ConfScorePBest>
0.00747648 

> <ConfTolerance>
2.57172 

$$$$
ACO.****
  PyMOL2.5          3D                             0

 85 87  0  0  0  0  0  0  0  0999 V2000
    4.8746    1.0305  -10.6381 N   0  0  0  1  0  0  0  0  0  0  0  0
    3.8345    1.8730  -10.5367 C   0  0  0  1  0  0  0  0  0  0  0  0
    3.8055    2.6385  -11.2400 H   0  0  0  1  0  0  0  0  0  0  0  0
    2.8380    1.8610   -9.6598 N   0  0  0  1  0  0  0  0  0  0  0  0
    2.9560    0.8444   -8.8045 C   0  0  0  1  0  0  0  0  0  0  0  0
    3.9787   -0.1133   -8.7780 C   0  0  0  1  0  0  0  0  0  0  0  0
    4.9609    0.0313   -9.7533 C   0  0  0  1  0  0  0  0  0  0  0  0
    6.0907   -0.7684   -9.9487 N   0  0  0  1  0  0  0  0  0  0  0  0
    6.4822   -0.8533  -10.8431 H   0  0  0  1  0  0  0  0  0  0  0  0
    6.4911   -1.2442   -9.1913 H   0  0  0  1  0  0  0  0  0  0  0  0
    3.7728   -1.0073   -7.7388 N   0  0  0  1  0  0  0  0  0  0  0  0
    2.6683   -0.5846   -7.1863 C   0  0  0  1  0  0  0  0  0  0  0  0
    2.2365   -1.0573   -6.3667 H   0  0  0  1  0  0  0  0  0  0  0  0
    2.1241    0.5214   -7.7637 N   0  0  0  1  0  0  0  0  0  0  0  0
    0.8393    1.1023   -7.4250 C   0  0  0  1  0  0  0  0  0  0  0  0
    0.3601    0.5006   -6.6812 H   0  0  0  1  0  0  0  0  0  0  0  0
    1.0210    2.5402   -6.9135 C   0  0  0  1  0  0  0  0  0  0  0  0
    1.8420    3.0226   -7.4013 H   0  0  0  1  0  0  0  0  0  0  0  0
    1.2267    2.5623   -5.4985 O   0  0  0  1  0  0  0  0  0  0  0  0
    0.8033    3.3389   -5.1252 H   0  0  0  1  0  0  0  0  0  0  0  0
   -0.2983    3.1936   -7.2857 C   0  0  0  1  0  0  0  0  0  0  0  0
   -0.1696    4.2378   -7.4806 H   0  0  0  1  0  0  0  0  0  0  0  0
   -1.2797    3.0155   -6.2414 O   0  0  0  1  0  0  0  0  0  0  0  0
   -1.4818    4.0793   -5.0096 P   0  0  0  1  0  0  0  0  0  0  0  0
   -3.0583    4.3200   -4.6275 O   0  0  0  0  0  0  0  0  0  0  0  0
   -0.6396    3.8222   -3.8201 O   0  0  0  1  0  0  0  0  0  0  0  0
   -1.1991    5.5714   -5.5737 O   0  5  0  1  0  0  0  0  0  0  0  0
   -0.7074    2.4327   -8.5710 C   0  0  0  1  0  0  0  0  0  0  0  0
   -1.7585    2.2325   -8.5641 H   0  0  0  1  0  0  0  0  0  0  0  0
    0.0342    1.1998   -8.5644 O   0  0  0  1  0  0  0  0  0  0  0  0
   -0.3652    3.2279   -9.7660 C   0  0  0  1  0  0  0  0  0  0  0  0
   -0.9259    4.1392   -9.7552 H   0  0  0  1  0  0  0  0  0  0  0  0
   -0.6106    2.6679  -10.6440 H   0  0  0  1  0  0  0  0  0  0  0  0
    1.0379    3.5361   -9.7783 O   0  0  0  1  0  0  0  0  0  0  0  0
    1.8263    4.2588  -10.9930 P   0  0  0  1  0  0  0  0  0  0  0  0
    1.7834    3.3662  -12.1934 O   0  0  0  0  0  0  0  0  0  0  0  0
    3.1171    4.6703  -10.4136 O   0  0  0  1  0  0  0  0  0  0  0  0
    0.8959    5.5057  -11.3941 O   0  0  0  1  0  0  0  0  0  0  0  0
    1.1883    6.8775  -12.2440 P   0  0  0  1  0  0  0  0  0  0  0  0
    2.2693    6.7516  -13.2470 O   0  0  0  1  0  0  0  0  0  0  0  0
   -0.1844    7.2361  -13.0258 O   0  5  0  1  0  0  0  0  0  0  0  0
    1.4754    8.0624  -11.2546 O   0  0  0  1  0  0  0  0  0  0  0  0
    3.1088    9.5878  -10.5322 C   0  0  0  1  0  0  0  0  0  0  0  0
    2.6743    8.1503  -10.4544 C   0  0  0  1  0  0  0  0  0  0  0  0
    3.4344    7.5088  -10.8491 H   0  0  0  1  0  0  0  0  0  0  0  0
    2.4674    7.8772   -9.4408 H   0  0  0  1  0  0  0  0  0  0  0  0
    1.9071   10.4709  -10.1847 C   0  0  0  1  0  0  0  0  0  0  0  0
    1.7053   10.4030   -9.1361 H   0  0  0  1  0  0  0  0  0  0  0  0
    1.0509   10.1401  -10.7346 H   0  0  0  1  0  0  0  0  0  0  0  0
    2.1254   11.4866  -10.4406 H   0  0  0  1  0  0  0  0  0  0  0  0
    3.5071    9.8738  -11.9765 C   0  0  0  1  0  0  0  0  0  0  0  0
    4.3658    9.2891  -12.2327 H   0  0  0  1  0  0  0  0  0  0  0  0
    3.7388   10.9130  -12.0832 H   0  0  0  1  0  0  0  0  0  0  0  0
    2.6962    9.6201  -12.6268 H   0  0  0  1  0  0  0  0  0  0  0  0
    4.2917    9.9351   -9.6252 C   0  0  0  1  0  0  0  0  0  0  0  0
    5.1826    9.5116  -10.0396 H   0  0  0  1  0  0  0  0  0  0  0  0
    4.3841   11.3414   -9.5828 O   0  0  0  1  0  0  0  0  0  0  0  0
    3.8021   11.7210  -10.2451 H   0  0  0  1  0  0  0  0  0  0  0  0
    4.0548    9.3433   -8.2641 C   0  0  0  1  0  0  0  0  0  0  0  0
    4.4157    8.2180   -7.9711 O   0  0  0  1  0  0  0  0  0  0  0  0
    3.4260   10.0738   -7.3389 N   0  0  0  1  0  0  0  0  0  0  0  0
    3.1932   11.0026   -7.5475 H   0  0  0  1  0  0  0  0  0  0  0  0
    3.0748    9.5382   -6.0321 C   0  0  0  1  0  0  0  0  0  0  0  0
    2.8932    8.4873   -6.1185 H   0  0  0  1  0  0  0  0  0  0  0  0
    2.1908   10.0254   -5.6769 H   0  0  0  1  0  0  0  0  0  0  0  0
    4.2073    9.7722   -5.0458 C   0  0  0  1  0  0  0  0  0  0  0  0
    4.4403   10.8163   -5.0676 H   0  0  0  1  0  0  0  0  0  0  0  0
    5.0513    9.2107   -5.3882 H   0  0  0  1  0  0  0  0  0  0  0  0
    3.9662    9.3913   -3.5980 C   0  0  0  1  0  0  0  0  0  0  0  0
    3.0965    8.5783   -3.2881 O   0  0  0  1  0  0  0  0  0  0  0  0
    4.7518    9.9914   -2.7024 N   0  0  0  1  0  0  0  0  0  0  0  0
    5.3456   10.7016   -3.0242 H   0  0  0  1  0  0  0  0  0  0  0  0
    4.7937    9.6689   -1.2739 C   0  0  0  1  0  0  0  0  0  0  0  0
    5.2317    8.7001   -1.1538 H   0  0  0  1  0  0  0  0  0  0  0  0
    3.7930    9.6578   -0.8954 H   0  0  0  1  0  0  0  0  0  0  0  0
    5.6001   10.6659   -0.4790 C   0  0  0  1  0  0  0  0  0  0  0  0
    6.5944   10.7042   -0.8727 H   0  0  0  1  0  0  0  0  0  0  0  0
    5.6327   10.3529    0.5437 H   0  0  0  1  0  0  0  0  0  0  0  0
    4.8654   12.3161   -0.5686 S   0  0  0  1  0  0  0  0  0  0  0  0
    3.9686   12.4130    0.9633 C   0  0  0  1  0  0  0  0  0  0  0  0
    3.9375   11.5241    1.7710 O   0  0  0  1  0  0  0  0  0  0  0  0
    3.2558   13.7353    1.1274 C   0  0  0  1  0  0  0  0  0  0  0  0
    3.8155   14.5057    0.6394 H   0  0  0  1  0  0  0  0  0  0  0  0
    3.1662   13.9651    2.1686 H   0  0  0  1  0  0  0  0  0  0  0  0
    2.2812   13.6715    0.6905 H   0  0  0  1  0  0  0  0  0  0  0  0
  1  2  1  0  0  0  0
  1  7  2  0  0  0  0
  2  3  1  0  0  0  0
  2  4  2  0  0  0  0
  4  5  1  0  0  0  0
  5  6  2  0  0  0  0
  5 14  1  0  0  0  0
  6  7  1  0  0  0  0
  6 11  1  0  0  0  0
  7  8  1  0  0  0  0
  8  9  1  0  0  0  0
  8 10  1  0  0  0  0
 11 12  2  0  0  0  0
 12 13  1  0  0  0  0
 12 14  1  0  0  0  0
 14 15  1  0  0  0  0
 15 16  1  0  0  0  0
 15 17  1  0  0  0  0
 15 30  1  0  0  0  0
 17 18  1  0  0  0  0
 17 19  1  0  0  0  0
 17 21  1  0  0  0  0
 19 20  1  0  0  0  0
 21 22  1  0  0  0  0
 21 23  1  0  0  0  0
 21 28  1  0  0  0  0
 23 24  1  0  0  0  0
 24 25  1  0  0  0  0
 24 26  2  0  0  0  0
 24 27  1  0  0  0  0
 28 29  1  0  0  0  0
 28 30  1  0  0  0  0
 28 31  1  0  0  0  0
 31 32  1  0  0  0  0
 31 33  1  0  0  0  0
 31 34  1  0  0  0  0
 34 35  1  0  0  0  0
 35 36  1  0  0  0  0
 35 37  2  0  0  0  0
 35 38  1  0  0  0  0
 38 39  1  0  0  0  0
 39 40  2  0  0  0  0
 39 41  1  0  0  0  0
 39 42  1  0  0  0  0
 42 44  1  0  0  0  0
 43 44  1  0  0  0  0
 43 47  1  0  0  0  0
 43 51  1  0  0  0  0
 43 55  1  0  0  0  0
 44 45  1  0  0  0  0
 44 46  1  0  0  0  0
 47 48  1  0  0  0  0
 47 49  1  0  0  0  0
 47 50  1  0  0  0  0
 51 52  1  0  0  0  0
 51 53  1  0  0  0  0
 51 54  1  0  0  0  0
 55 56  1  0  0  0  0
 55 57  1  0  0  0  0
 55 59  1  0  0  0  0
 57 58  1  0  0  0  0
 59 60  2  0  0  0  0
 59 61  1  0  0  0  0
 61 62  1  0  0  0  0
 61 63  1  0  0  0  0
 63 64  1  0  0  0  0
 63 65  1  0  0  0  0
 63 66  1  0  0  0  0
 66 67  1  0  0  0  0
 66 68  1  0  0  0  0
 66 69  1  0  0  0  0
 69 70  2  0  0  0  0
 69 71  1  0  0  0  0
 71 72  1  0  0  0  0
 71 73  1  0  0  0  0
 73 74  1  0  0  0  0
 73 75  1  0  0  0  0
 73 76  1  0  0  0  0
 76 77  1  0  0  0  0
 76 78  1  0  0  0  0
 76 79  1  0  0  0  0
 79 80  1  0  0  0  0
 80 81  2  0  0  0  0
 80 82  1  0  0  0  0
 82 83  1  0  0  0  0
 82 84  1  0  0  0  0
 82 85  1  0  0  0  0
M  BCL ATM N_Tr2TrTrPi C_TrTrTrPi H_S N_Tr2TrTrPi C_TrTrTrPi C_TrTrTrPi C_TrTrTrPi N_TrTrTrPi2 H_S H_S N_Tr2TrTrPi C_TrTrTrPi H_S N_TrTrTrPi2 C_TeTeTeTe H_S C_TeTeTeTe H_S O_Te2Te2TeTe H_S C_TeTeTeTe H_S O_Tr2TrTrPi2 P_TeTeTeTePi O_Te2Te2TeTe O_Tr2Tr2TrPi O_Te2Te2Te2Te C_TeTeTeTe H_S O_Te2Te2TeTe C_TeTeTeTe H_S H_S O_Tr2TrTrPi2 P_TeTeTeTePi O_Te2Te2TeTe O_Tr2Tr2TrPi O_Tr2TrTrPi2 P_TeTeTeTePi O_Tr2Tr2TrPi O_Te2Te2Te2Te O_Tr2TrTrPi2 C_TeTeTeTe C_TeTeTeTe H_S H_S C_TeTeTeTe H_S H_S H_S C_TeTeTeTe H_S H_S H_S C_TeTeTeTe H_S O_Te2Te2TeTe H_S C_TrTrTrPi O_Tr2Tr2TrPi N_TrTrTrPi2 H_S C_TeTeTeTe H_S H_S C_TeTeTeTe H_S H_S C_TrTrTrPi O_Tr2Tr2TrPi N_TrTrTrPi2 H_S C_TeTeTeTe H_S H_S C_TeTeTeTe H_S H_S S_Te2Te2TeTe C_TrTrTrPi O_Tr2Tr2TrPi C_TeTeTeTe H_S H_S H_S
M  BCL BND AromaticSingleBond AromaticDoubleBond NonConjugatedSingleBond AromaticDoubleBond AromaticSingleBond AromaticDoubleBond AromaticSingleBond AromaticSingleBond AromaticSingleBond ConjugatedSingleBond NonConjugatedSingleBond NonConjugatedSingleBond AromaticDoubleBond NonConjugatedSingleBond AromaticSingleBond NonConjugatedSingleBond NonConjugatedSingleBond NonConjugatedSingleBondInRing NonConjugatedSingleBondInRing NonConjugatedSingleBond NonConjugatedSingleBond NonConjugatedSingleBondInRing NonConjugatedSingleBond NonConjugatedSingleBond NonConjugatedSingleBond NonConjugatedSingleBondInRing ConjugatedSingleBond ConjugatedSingleBond ConjugatedDoubleBond ConjugatedSingleBond NonConjugatedSingleBond NonConjugatedSingleBondInRing NonConjugatedSingleBond NonConjugatedSingleBond NonConjugatedSingleBond NonConjugatedSingleBond ConjugatedSingleBond ConjugatedSingleBond ConjugatedDoubleBond ConjugatedSingleBond ConjugatedSingleBond ConjugatedDoubleBond ConjugatedSingleBond ConjugatedSingleBond NonConjugatedSingleBond NonConjugatedSingleBond NonConjugatedSingleBond NonConjugatedSingleBond NonConjugatedSingleBond NonConjugatedSingleBond NonConjugatedSingleBond NonConjugatedSingleBond NonConjugatedSingleBond NonConjugatedSingleBond NonConjugatedSingleBond NonConjugatedSingleBond NonConjugatedSingleBond NonConjugatedSingleBond NonConjugatedSingleBond NonConjugatedSingleBond NonConjugatedSingleBond ConjugatedDoubleBond AmideSingleBond NonConjugatedSingleBond NonConjugatedSingleBond NonConjugatedSingleBond NonConjugatedSingleBond NonConjugatedSingleBond NonConjugatedSingleBond NonConjugatedSingleBond NonConjugatedSingleBond ConjugatedDoubleBond AmideSingleBond NonConjugatedSingleBond NonConjugatedSingleBond NonConjugatedSingleBond NonConjugatedSingleBond NonConjugatedSingleBond NonConjugatedSingleBond NonConjugatedSingleBond NonConjugatedSingleBond ConjugatedSingleBond ConjugatedDoubleBond NonConjugatedSingleBond NonConjugatedSingleBond NonConjugatedSingleBond NonConjugatedSingleBond
M  BCL CHI  15   S  17   S  21   S  24   S  28   R  35   R  39   R  55   S
M  BCL DBI - - - - - - - - - -
M  END
> <ConfClashScore>
0 

> <ConfOneFourInteractionScore>
-0.981376 

> <ConfScore>
0.0651248 

> <ConfScorePBest>
0.00737347 

> <ConfTolerance>
2.55863 

$$$$
ACO.****
  PyMOL2.5          3D                             0

 85 87  0  0  0  0  0  0  0  0999 V2000
    4.8881    1.0738  -10.6412 N   0  0  0  1  0  0  0  0  0  0  0  0
    3.8392    1.9043  -10.5322 C   0  0  0  1  0  0  0  0  0  0  0  0
    3.8083    2.6827  -11.2211 H   0  0  0  1  0  0  0  0  0  0  0  0
    2.8360    1.8661   -9.6638 N   0  0  0  1  0  0  0  0  0  0  0  0
    2.9570    0.8346   -8.8270 C   0  0  0  1  0  0  0  0  0  0  0  0
    3.9887   -0.1136   -8.8103 C   0  0  0  1  0  0  0  0  0  0  0  0
    4.9771    0.0588   -9.7748 C   0  0  0  1  0  0  0  0  0  0  0  0
    6.0613   -0.7706   -9.8906 N   0  0  0  1  0  0  0  0  0  0  0  0
    6.1536   -1.5425   -9.2939 H   0  0  0  1  0  0  0  0  0  0  0  0
    6.7445   -0.5921  -10.5702 H   0  0  0  1  0  0  0  0  0  0  0  0
    3.7832   -1.0292   -7.7900 N   0  0  0  1  0  0  0  0  0  0  0  0
    2.6704   -0.6276   -7.2385 C   0  0  0  1  0  0  0  0  0  0  0  0
    2.2368   -1.1200   -6.4315 H   0  0  0  1  0  0  0  0  0  0  0  0
    2.1201    0.4840   -7.7991 N   0  0  0  1  0  0  0  0  0  0  0  0
    0.8887    1.1655   -7.3899 C   0  0  0  1  0  0  0  0  0  0  0  0
    0.1771    0.4430   -7.0483 H   0  0  0  1  0  0  0  0  0  0  0  0
    1.1781    2.2195   -6.2915 C   0  0  0  1  0  0  0  0  0  0  0  0
    2.1104    2.7151   -6.4649 H   0  0  0  1  0  0  0  0  0  0  0  0
    1.1882    1.6288   -5.0003 O   0  0  0  1  0  0  0  0  0  0  0  0
    0.3199    1.2684   -4.8060 H   0  0  0  1  0  0  0  0  0  0  0  0
   -0.0172    3.1949   -6.4552 C   0  0  0  1  0  0  0  0  0  0  0  0
    0.3022    4.2098   -6.3421 H   0  0  0  1  0  0  0  0  0  0  0  0
   -1.0481    2.9059   -5.4940 O   0  0  0  1  0  0  0  0  0  0  0  0
   -1.4291    4.0501   -4.3826 P   0  0  0  1  0  0  0  0  0  0  0  0
   -0.0533    4.3979   -3.5606 O   0  0  0  0  0  0  0  0  0  0  0  0
   -2.1207    5.1313   -5.1196 O   0  0  0  1  0  0  0  0  0  0  0  0
   -2.5330    3.3987   -3.3918 O   0  5  0  1  0  0  0  0  0  0  0  0
   -0.5178    2.9352   -7.8896 C   0  0  0  1  0  0  0  0  0  0  0  0
   -1.5235    2.5708   -7.8654 H   0  0  0  1  0  0  0  0  0  0  0  0
    0.3479    1.9489   -8.4749 O   0  0  0  1  0  0  0  0  0  0  0  0
   -0.4641    4.1978   -8.6852 C   0  0  0  1  0  0  0  0  0  0  0  0
   -0.9622    4.9833   -8.1562 H   0  0  0  1  0  0  0  0  0  0  0  0
   -0.9361    4.0509   -9.6341 H   0  0  0  1  0  0  0  0  0  0  0  0
    0.9193    4.5359   -8.8740 O   0  0  0  1  0  0  0  0  0  0  0  0
    1.6075    4.6777  -10.2079 P   0  0  0  1  0  0  0  0  0  0  0  0
    1.5480    6.1472  -10.7308 O   0  0  0  0  0  0  0  0  0  0  0  0
    1.1039    3.7523  -11.2663 O   0  0  0  1  0  0  0  0  0  0  0  0
    3.1852    4.3514  -10.0628 O   0  0  0  1  0  0  0  0  0  0  0  0
    4.1288    4.8337   -8.8112 P   0  0  0  1  0  0  0  0  0  0  0  0
    3.7968    4.1403   -7.5465 O   0  0  0  1  0  0  0  0  0  0  0  0
    5.6555    4.7392   -9.3446 O   0  5  0  1  0  0  0  0  0  0  0  0
    3.9037    6.3757   -8.5928 O   0  0  0  1  0  0  0  0  0  0  0  0
    2.6593    8.3414   -8.1320 C   0  0  0  1  0  0  0  0  0  0  0  0
    2.7200    6.8638   -7.9249 C   0  0  0  1  0  0  0  0  0  0  0  0
    2.7751    6.6443   -6.8791 H   0  0  0  1  0  0  0  0  0  0  0  0
    1.8497    6.4014   -8.3416 H   0  0  0  1  0  0  0  0  0  0  0  0
    1.4038    8.8454   -7.3819 C   0  0  0  1  0  0  0  0  0  0  0  0
    1.5470    8.7297   -6.3279 H   0  0  0  1  0  0  0  0  0  0  0  0
    0.5519    8.2763   -7.6905 H   0  0  0  1  0  0  0  0  0  0  0  0
    1.2441    9.8789   -7.6086 H   0  0  0  1  0  0  0  0  0  0  0  0
    2.5606    8.6149   -9.6346 C   0  0  0  1  0  0  0  0  0  0  0  0
    3.4827    8.3483  -10.1075 H   0  0  0  1  0  0  0  0  0  0  0  0
    2.3650    9.6545   -9.7956 H   0  0  0  1  0  0  0  0  0  0  0  0
    1.7651    8.0331  -10.0513 H   0  0  0  1  0  0  0  0  0  0  0  0
    3.9476    8.9659   -7.5902 C   0  0  0  1  0  0  0  0  0  0  0  0
    4.0312    8.6913   -6.5594 H   0  0  0  1  0  0  0  0  0  0  0  0
    5.0331    8.3943   -8.3105 O   0  0  0  1  0  0  0  0  0  0  0  0
    5.3002    8.9905   -9.0139 H   0  0  0  1  0  0  0  0  0  0  0  0
    3.9555   10.4851   -7.6662 C   0  0  0  1  0  0  0  0  0  0  0  0
    2.9539   11.1042   -8.0218 O   0  0  0  1  0  0  0  0  0  0  0  0
    5.0811   11.1247   -7.3358 N   0  0  0  1  0  0  0  0  0  0  0  0
    5.8459   10.6017   -7.0166 H   0  0  0  1  0  0  0  0  0  0  0  0
    5.2107   12.5709   -7.4334 C   0  0  0  1  0  0  0  0  0  0  0  0
    4.3577   13.0235   -6.9725 H   0  0  0  1  0  0  0  0  0  0  0  0
    5.2444   12.8431   -8.4676 H   0  0  0  1  0  0  0  0  0  0  0  0
    6.4658   13.0910   -6.7517 C   0  0  0  1  0  0  0  0  0  0  0  0
    7.2700   12.4264   -6.9894 H   0  0  0  1  0  0  0  0  0  0  0  0
    6.2955   13.0822   -5.6954 H   0  0  0  1  0  0  0  0  0  0  0  0
    6.8895   14.5052   -7.1495 C   0  0  0  1  0  0  0  0  0  0  0  0
    6.1129   15.2370   -7.7618 O   0  0  0  1  0  0  0  0  0  0  0  0
    8.1497   14.8605   -6.8838 N   0  0  0  1  0  0  0  0  0  0  0  0
    8.7228   14.2374   -6.3901 H   0  0  0  1  0  0  0  0  0  0  0  0
    8.7006   16.1397   -7.3018 C   0  0  0  1  0  0  0  0  0  0  0  0
    9.2155   16.5786   -6.4728 H   0  0  0  1  0  0  0  0  0  0  0  0
    7.8959   16.7782   -7.6010 H   0  0  0  1  0  0  0  0  0  0  0  0
    9.6689   16.0051   -8.4581 C   0  0  0  1  0  0  0  0  0  0  0  0
    9.1871   15.4609   -9.2433 H   0  0  0  1  0  0  0  0  0  0  0  0
   10.5270   15.4618   -8.1214 H   0  0  0  1  0  0  0  0  0  0  0  0
   10.2187   17.5975   -9.1160 S   0  0  0  1  0  0  0  0  0  0  0  0
    8.6809   18.4025   -9.4871 C   0  0  0  1  0  0  0  0  0  0  0  0
    7.6364   17.8572   -9.2706 O   0  0  0  1  0  0  0  0  0  0  0  0
    8.7943   19.7879  -10.0796 C   0  0  0  1  0  0  0  0  0  0  0  0
    8.0697   19.9037  -10.8584 H   0  0  0  1  0  0  0  0  0  0  0  0
    9.7760   19.9238  -10.4831 H   0  0  0  1  0  0  0  0  0  0  0  0
    8.6175   20.5173   -9.3170 H   0  0  0  1  0  0  0  0  0  0  0  0
  1  2  1  0  0  0  0
  1  7  2  0  0  0  0
  2  3  1  0  0  0  0
  2  4  2  0  0  0  0
  4  5  1  0  0  0  0
  5  6  2  0  0  0  0
  5 14  1  0  0  0  0
  6  7  1  0  0  0  0
  6 11  1  0  0  0  0
  7  8  1  0  0  0  0
  8  9  1  0  0  0  0
  8 10  1  0  0  0  0
 11 12  2  0  0  0  0
 12 13  1  0  0  0  0
 12 14  1  0  0  0  0
 14 15  1  0  0  0  0
 15 16  1  0  0  0  0
 15 17  1  0  0  0  0
 15 30  1  0  0  0  0
 17 18  1  0  0  0  0
 17 19  1  0  0  0  0
 17 21  1  0  0  0  0
 19 20  1  0  0  0  0
 21 22  1  0  0  0  0
 21 23  1  0  0  0  0
 21 28  1  0  0  0  0
 23 24  1  0  0  0  0
 24 25  1  0  0  0  0
 24 26  2  0  0  0  0
 24 27  1  0  0  0  0
 28 29  1  0  0  0  0
 28 30  1  0  0  0  0
 28 31  1  0  0  0  0
 31 32  1  0  0  0  0
 31 33  1  0  0  0  0
 31 34  1  0  0  0  0
 34 35  1  0  0  0  0
 35 36  1  0  0  0  0
 35 37  2  0  0  0  0
 35 38  1  0  0  0  0
 38 39  1  0  0  0  0
 39 40  2  0  0  0  0
 39 41  1  0  0  0  0
 39 42  1  0  0  0  0
 42 44  1  0  0  0  0
 43 44  1  0  0  0  0
 43 47  1  0  0  0  0
 43 51  1  0  0  0  0
 43 55  1  0  0  0  0
 44 45  1  0  0  0  0
 44 46  1  0  0  0  0
 47 48  1  0  0  0  0
 47 49  1  0  0  0  0
 47 50  1  0  0  0  0
 51 52  1  0  0  0  0
 51 53  1  0  0  0  0
 51 54  1  0  0  0  0
 55 56  1  0  0  0  0
 55 57  1  0  0  0  0
 55 59  1  0  0  0  0
 57 58  1  0  0  0  0
 59 60  2  0  0  0  0
 59 61  1  0  0  0  0
 61 62  1  0  0  0  0
 61 63  1  0  0  0  0
 63 64  1  0  0  0  0
 63 65  1  0  0  0  0
 63 66  1  0  0  0  0
 66 67  1  0  0  0  0
 66 68  1  0  0  0  0
 66 69  1  0  0  0  0
 69 70  2  0  0  0  0
 69 71  1  0  0  0  0
 71 72  1  0  0  0  0
 71 73  1  0  0  0  0
 73 74  1  0  0  0  0
 73 75  1  0  0  0  0
 73 76  1  0  0  0  0
 76 77  1  0  0  0  0
 76 78  1  0  0  0  0
 76 79  1  0  0  0  0
 79 80  1  0  0  0  0
 80 81  2  0  0  0  0
 80 82  1  0  0  0  0
 82 83  1  0  0  0  0
 82 84  1  0  0  0  0
 82 85  1  0  0  0  0
M  BCL ATM N_Tr2TrTrPi C_TrTrTrPi H_S N_Tr2TrTrPi C_TrTrTrPi C_TrTrTrPi C_TrTrTrPi N_TrTrTrPi2 H_S H_S N_Tr2TrTrPi C_TrTrTrPi H_S N_TrTrTrPi2 C_TeTeTeTe H_S C_TeTeTeTe H_S O_Te2Te2TeTe H_S C_TeTeTeTe H_S O_Tr2TrTrPi2 P_TeTeTeTePi O_Te2Te2TeTe O_Tr2Tr2TrPi O_Te2Te2Te2Te C_TeTeTeTe H_S O_Te2Te2TeTe C_TeTeTeTe H_S H_S O_Tr2TrTrPi2 P_TeTeTeTePi O_Te2Te2TeTe O_Tr2Tr2TrPi O_Tr2TrTrPi2 P_TeTeTeTePi O_Tr2Tr2TrPi O_Te2Te2Te2Te O_Tr2TrTrPi2 C_TeTeTeTe C_TeTeTeTe H_S H_S C_TeTeTeTe H_S H_S H_S C_TeTeTeTe H_S H_S H_S C_TeTeTeTe H_S O_Te2Te2TeTe H_S C_TrTrTrPi O_Tr2Tr2TrPi N_TrTrTrPi2 H_S C_TeTeTeTe H_S H_S C_TeTeTeTe H_S H_S C_TrTrTrPi O_Tr2Tr2TrPi N_TrTrTrPi2 H_S C_TeTeTeTe H_S H_S C_TeTeTeTe H_S H_S S_Te2Te2TeTe C_TrTrTrPi O_Tr2Tr2TrPi C_TeTeTeTe H_S H_S H_S
M  BCL BND AromaticSingleBond AromaticDoubleBond NonConjugatedSingleBond AromaticDoubleBond AromaticSingleBond AromaticDoubleBond AromaticSingleBond AromaticSingleBond AromaticSingleBond ConjugatedSingleBond NonConjugatedSingleBond NonConjugatedSingleBond AromaticDoubleBond NonConjugatedSingleBond AromaticSingleBond NonConjugatedSingleBond NonConjugatedSingleBond NonConjugatedSingleBondInRing NonConjugatedSingleBondInRing NonConjugatedSingleBond NonConjugatedSingleBond NonConjugatedSingleBondInRing NonConjugatedSingleBond NonConjugatedSingleBond NonConjugatedSingleBond NonConjugatedSingleBondInRing ConjugatedSingleBond ConjugatedSingleBond ConjugatedDoubleBond ConjugatedSingleBond NonConjugatedSingleBond NonConjugatedSingleBondInRing NonConjugatedSingleBond NonConjugatedSingleBond NonConjugatedSingleBond NonConjugatedSingleBond ConjugatedSingleBond ConjugatedSingleBond ConjugatedDoubleBond ConjugatedSingleBond ConjugatedSingleBond ConjugatedDoubleBond ConjugatedSingleBond ConjugatedSingleBond NonConjugatedSingleBond NonConjugatedSingleBond NonConjugatedSingleBond NonConjugatedSingleBond NonConjugatedSingleBond NonConjugatedSingleBond NonConjugatedSingleBond NonConjugatedSingleBond NonConjugatedSingleBond NonConjugatedSingleBond NonConjugatedSingleBond NonConjugatedSingleBond NonConjugatedSingleBond NonConjugatedSingleBond NonConjugatedSingleBond NonConjugatedSingleBond NonConjugatedSingleBond ConjugatedDoubleBond AmideSingleBond NonConjugatedSingleBond NonConjugatedSingleBond NonConjugatedSingleBond NonConjugatedSingleBond NonConjugatedSingleBond NonConjugatedSingleBond NonConjugatedSingleBond NonConjugatedSingleBond ConjugatedDoubleBond AmideSingleBond NonConjugatedSingleBond NonConjugatedSingleBond NonConjugatedSingleBond NonConjugatedSingleBond NonConjugatedSingleBond NonConjugatedSingleBond NonConjugatedSingleBond NonConjugatedSingleBond ConjugatedSingleBond ConjugatedDoubleBond NonConjugatedSingleBond NonConjugatedSingleBond NonConjugatedSingleBond NonConjugatedSingleBond
M  BCL CHI  15   S  17   S  21   S  24   S  28   R  35   R  39   R  55   S
M  BCL DBI - - - - - - - - - -
M  END
> <ConfClashScore>
0 

> <ConfOneFourInteractionScore>
-0.984923 

> <ConfScore>
0.0652277 

> <ConfScorePBest>
0.00727047 

> <ConfTolerance>
2.7258 

$$$$
ACO.****
  PyMOL2.5          3D                             0

 85 87  0  0  0  0  0  0  0  0999 V2000
    4.8938    1.0699  -10.6489 N   0  0  0  1  0  0  0  0  0  0  0  0
    3.8461    1.9026  -10.5441 C   0  0  0  1  0  0  0  0  0  0  0  0
    3.8173    2.6785  -11.2360 H   0  0  0  1  0  0  0  0  0  0  0  0
    2.8420    1.8694   -9.6767 N   0  0  0  1  0  0  0  0  0  0  0  0
    2.9604    0.8408   -8.8358 C   0  0  0  1  0  0  0  0  0  0  0  0
    3.9905   -0.1091   -8.8145 C   0  0  0  1  0  0  0  0  0  0  0  0
    4.9802    0.0581   -9.7787 C   0  0  0  1  0  0  0  0  0  0  0  0
    6.0631   -0.7736   -9.8902 N   0  0  0  1  0  0  0  0  0  0  0  0
    6.1256   -1.5746   -9.3289 H   0  0  0  1  0  0  0  0  0  0  0  0
    6.7751   -0.5677  -10.5312 H   0  0  0  1  0  0  0  0  0  0  0  0
    3.7824   -1.0204   -7.7910 N   0  0  0  1  0  0  0  0  0  0  0  0
    2.6697   -0.6149   -7.2422 C   0  0  0  1  0  0  0  0  0  0  0  0
    2.2344   -1.1034   -6.4338 H   0  0  0  1  0  0  0  0  0  0  0  0
    2.1219    0.4955   -7.8076 N   0  0  0  1  0  0  0  0  0  0  0  0
    0.8505    1.1230   -7.3143 C   0  0  0  1  0  0  0  0  0  0  0  0
    0.3253    1.5605   -8.1376 H   0  0  0  1  0  0  0  0  0  0  0  0
   -0.0340    0.0811   -6.5843 C   0  0  0  1  0  0  0  0  0  0  0  0
    0.5605   -0.6013   -6.0135 H   0  0  0  1  0  0  0  0  0  0  0  0
   -0.8393   -0.6445   -7.5015 O   0  0  0  1  0  0  0  0  0  0  0  0
   -0.6586   -1.5832   -7.4136 H   0  0  0  1  0  0  0  0  0  0  0  0
   -0.9003    0.9800   -5.6630 C   0  0  0  1  0  0  0  0  0  0  0  0
   -1.0283    0.5275   -4.7019 H   0  0  0  1  0  0  0  0  0  0  0  0
   -2.1974    1.2271   -6.2576 O   0  0  0  1  0  0  0  0  0  0  0  0
   -3.4116    0.1645   -5.9640 P   0  0  0  1  0  0  0  0  0  0  0  0
   -2.9672   -1.2452   -6.6744 O   0  0  0  0  0  0  0  0  0  0  0  0
   -3.5236   -0.1598   -4.5244 O   0  0  0  1  0  0  0  0  0  0  0  0
   -4.7260    0.7250   -6.7274 O   0  5  0  1  0  0  0  0  0  0  0  0
   -0.0921    2.2874   -5.5493 C   0  0  0  1  0  0  0  0  0  0  0  0
   -0.6542    3.1013   -5.9573 H   0  0  0  1  0  0  0  0  0  0  0  0
    1.1231    2.1076   -6.2948 O   0  0  0  1  0  0  0  0  0  0  0  0
    0.2209    2.5652   -4.1343 C   0  0  0  1  0  0  0  0  0  0  0  0
    0.7979    1.7571   -3.7358 H   0  0  0  1  0  0  0  0  0  0  0  0
   -0.6917    2.6582   -3.5833 H   0  0  0  1  0  0  0  0  0  0  0  0
    0.9778    3.7965   -4.0156 O   0  0  0  1  0  0  0  0  0  0  0  0
    1.3392    4.4072   -2.5703 P   0  0  0  1  0  0  0  0  0  0  0  0
    2.1202    5.6306   -2.8767 O   0  0  0  0  0  0  0  0  0  0  0  0
    1.9045    3.3641   -1.6842 O   0  0  0  1  0  0  0  0  0  0  0  0
   -0.1530    4.8296   -2.0965 O   0  0  0  1  0  0  0  0  0  0  0  0
   -0.6118    6.3531   -1.6989 P   0  0  0  1  0  0  0  0  0  0  0  0
    0.2255    6.8061   -0.5658 O   0  0  0  1  0  0  0  0  0  0  0  0
   -0.2211    7.1332   -3.0639 O   0  5  0  1  0  0  0  0  0  0  0  0
   -2.1651    6.3857   -1.4488 O   0  0  0  1  0  0  0  0  0  0  0  0
   -4.2480    7.6055   -1.3316 C   0  0  0  1  0  0  0  0  0  0  0  0
   -2.8246    7.6058   -1.0366 C   0  0  0  1  0  0  0  0  0  0  0  0
   -2.3702    8.4290   -1.5472 H   0  0  0  1  0  0  0  0  0  0  0  0
   -2.6946    7.7245    0.0188 H   0  0  0  1  0  0  0  0  0  0  0  0
   -4.8498    8.9409   -0.9012 C   0  0  0  1  0  0  0  0  0  0  0  0
   -5.5858    8.7732   -0.1429 H   0  0  0  1  0  0  0  0  0  0  0  0
   -5.3083    9.4136   -1.7446 H   0  0  0  1  0  0  0  0  0  0  0  0
   -4.0771    9.5720   -0.5145 H   0  0  0  1  0  0  0  0  0  0  0  0
   -4.9174    6.4856   -0.5170 C   0  0  0  1  0  0  0  0  0  0  0  0
   -5.7949    6.1480   -1.0279 H   0  0  0  1  0  0  0  0  0  0  0  0
   -5.1887    6.8602    0.4479 H   0  0  0  1  0  0  0  0  0  0  0  0
   -4.2344    5.6698   -0.4044 H   0  0  0  1  0  0  0  0  0  0  0  0
   -4.4835    7.3611   -2.8262 C   0  0  0  1  0  0  0  0  0  0  0  0
   -4.2026    8.2468   -3.3569 H   0  0  0  1  0  0  0  0  0  0  0  0
   -3.6779    6.2748   -3.2510 O   0  0  0  1  0  0  0  0  0  0  0  0
   -3.3650    6.4378   -4.1438 H   0  0  0  1  0  0  0  0  0  0  0  0
   -5.9578    7.0975   -3.0848 C   0  0  0  1  0  0  0  0  0  0  0  0
   -6.8174    7.8682   -2.6905 O   0  0  0  1  0  0  0  0  0  0  0  0
   -6.2376    5.9807   -3.7627 N   0  0  0  1  0  0  0  0  0  0  0  0
   -5.5015    5.3885   -4.0230 H   0  0  0  1  0  0  0  0  0  0  0  0
   -7.5975    5.6131   -4.1280 C   0  0  0  1  0  0  0  0  0  0  0  0
   -7.8682    6.1418   -5.0180 H   0  0  0  1  0  0  0  0  0  0  0  0
   -8.2544    5.8946   -3.3316 H   0  0  0  1  0  0  0  0  0  0  0  0
   -7.7503    4.1223   -4.3815 C   0  0  0  1  0  0  0  0  0  0  0  0
   -7.1366    3.8541   -5.2159 H   0  0  0  1  0  0  0  0  0  0  0  0
   -8.7752    3.9193   -4.6121 H   0  0  0  1  0  0  0  0  0  0  0  0
   -7.3458    3.2730   -3.1922 C   0  0  0  1  0  0  0  0  0  0  0  0
   -7.9702    3.3189   -2.1331 O   0  0  0  1  0  0  0  0  0  0  0  0
   -6.2817    2.4864   -3.3759 N   0  0  0  1  0  0  0  0  0  0  0  0
   -5.8673    2.4508   -4.2632 H   0  0  0  1  0  0  0  0  0  0  0  0
   -5.7169    1.6811   -2.3049 C   0  0  0  1  0  0  0  0  0  0  0  0
   -5.3299    0.7759   -2.7241 H   0  0  0  1  0  0  0  0  0  0  0  0
   -6.4926    1.4479   -1.6057 H   0  0  0  1  0  0  0  0  0  0  0  0
   -4.6038    2.3897   -1.5735 C   0  0  0  1  0  0  0  0  0  0  0  0
   -4.9144    3.3977   -1.3939 H   0  0  0  1  0  0  0  0  0  0  0  0
   -3.7397    2.3892   -2.2046 H   0  0  0  1  0  0  0  0  0  0  0  0
   -4.1390    1.6558    0.0128 S   0  0  0  1  0  0  0  0  0  0  0  0
   -2.5389    2.3974    0.2365 C   0  0  0  1  0  0  0  0  0  0  0  0
   -2.0709    3.2119   -0.5200 O   0  0  0  1  0  0  0  0  0  0  0  0
   -1.8405    1.8903    1.4768 C   0  0  0  1  0  0  0  0  0  0  0  0
   -1.6853    0.8350    1.3931 H   0  0  0  1  0  0  0  0  0  0  0  0
   -2.4457    2.0946    2.3353 H   0  0  0  1  0  0  0  0  0  0  0  0
   -0.8960    2.3824    1.5804 H   0  0  0  1  0  0  0  0  0  0  0  0
  1  2  1  0  0  0  0
  1  7  2  0  0  0  0
  2  3  1  0  0  0  0
  2  4  2  0  0  0  0
  4  5  1  0  0  0  0
  5  6  2  0  0  0  0
  5 14  1  0  0  0  0
  6  7  1  0  0  0  0
  6 11  1  0  0  0  0
  7  8  1  0  0  0  0
  8  9  1  0  0  0  0
  8 10  1  0  0  0  0
 11 12  2  0  0  0  0
 12 13  1  0  0  0  0
 12 14  1  0  0  0  0
 14 15  1  0  0  0  0
 15 16  1  0  0  0  0
 15 17  1  0  0  0  0
 15 30  1  0  0  0  0
 17 18  1  0  0  0  0
 17 19  1  0  0  0  0
 17 21  1  0  0  0  0
 19 20  1  0  0  0  0
 21 22  1  0  0  0  0
 21 23  1  0  0  0  0
 21 28  1  0  0  0  0
 23 24  1  0  0  0  0
 24 25  1  0  0  0  0
 24 26  2  0  0  0  0
 24 27  1  0  0  0  0
 28 29  1  0  0  0  0
 28 30  1  0  0  0  0
 28 31  1  0  0  0  0
 31 32  1  0  0  0  0
 31 33  1  0  0  0  0
 31 34  1  0  0  0  0
 34 35  1  0  0  0  0
 35 36  1  0  0  0  0
 35 37  2  0  0  0  0
 35 38  1  0  0  0  0
 38 39  1  0  0  0  0
 39 40  2  0  0  0  0
 39 41  1  0  0  0  0
 39 42  1  0  0  0  0
 42 44  1  0  0  0  0
 43 44  1  0  0  0  0
 43 47  1  0  0  0  0
 43 51  1  0  0  0  0
 43 55  1  0  0  0  0
 44 45  1  0  0  0  0
 44 46  1  0  0  0  0
 47 48  1  0  0  0  0
 47 49  1  0  0  0  0
 47 50  1  0  0  0  0
 51 52  1  0  0  0  0
 51 53  1  0  0  0  0
 51 54  1  0  0  0  0
 55 56  1  0  0  0  0
 55 57  1  0  0  0  0
 55 59  1  0  0  0  0
 57 58  1  0  0  0  0
 59 60  2  0  0  0  0
 59 61  1  0  0  0  0
 61 62  1  0  0  0  0
 61 63  1  0  0  0  0
 63 64  1  0  0  0  0
 63 65  1  0  0  0  0
 63 66  1  0  0  0  0
 66 67  1  0  0  0  0
 66 68  1  0  0  0  0
 66 69  1  0  0  0  0
 69 70  2  0  0  0  0
 69 71  1  0  0  0  0
 71 72  1  0  0  0  0
 71 73  1  0  0  0  0
 73 74  1  0  0  0  0
 73 75  1  0  0  0  0
 73 76  1  0  0  0  0
 76 77  1  0  0  0  0
 76 78  1  0  0  0  0
 76 79  1  0  0  0  0
 79 80  1  0  0  0  0
 80 81  2  0  0  0  0
 80 82  1  0  0  0  0
 82 83  1  0  0  0  0
 82 84  1  0  0  0  0
 82 85  1  0  0  0  0
M  BCL ATM N_Tr2TrTrPi C_TrTrTrPi H_S N_Tr2TrTrPi C_TrTrTrPi C_TrTrTrPi C_TrTrTrPi N_TrTrTrPi2 H_S H_S N_Tr2TrTrPi C_TrTrTrPi H_S N_TrTrTrPi2 C_TeTeTeTe H_S C_TeTeTeTe H_S O_Te2Te2TeTe H_S C_TeTeTeTe H_S O_Tr2TrTrPi2 P_TeTeTeTePi O_Te2Te2TeTe O_Tr2Tr2TrPi O_Te2Te2Te2Te C_TeTeTeTe H_S O_Te2Te2TeTe C_TeTeTeTe H_S H_S O_Tr2TrTrPi2 P_TeTeTeTePi O_Te2Te2TeTe O_Tr2Tr2TrPi O_Tr2TrTrPi2 P_TeTeTeTePi O_Tr2Tr2TrPi O_Te2Te2Te2Te O_Tr2TrTrPi2 C_TeTeTeTe C_TeTeTeTe H_S H_S C_TeTeTeTe H_S H_S H_S C_TeTeTeTe H_S H_S H_S C_TeTeTeTe H_S O_Te2Te2TeTe H_S C_TrTrTrPi O_Tr2Tr2TrPi N_TrTrTrPi2 H_S C_TeTeTeTe H_S H_S C_TeTeTeTe H_S H_S C_TrTrTrPi O_Tr2Tr2TrPi N_TrTrTrPi2 H_S C_TeTeTeTe H_S H_S C_TeTeTeTe H_S H_S S_Te2Te2TeTe C_TrTrTrPi O_Tr2Tr2TrPi C_TeTeTeTe H_S H_S H_S
M  BCL BND AromaticSingleBond AromaticDoubleBond NonConjugatedSingleBond AromaticDoubleBond AromaticSingleBond AromaticDoubleBond AromaticSingleBond AromaticSingleBond AromaticSingleBond ConjugatedSingleBond NonConjugatedSingleBond NonConjugatedSingleBond AromaticDoubleBond NonConjugatedSingleBond AromaticSingleBond NonConjugatedSingleBond NonConjugatedSingleBond NonConjugatedSingleBondInRing NonConjugatedSingleBondInRing NonConjugatedSingleBond NonConjugatedSingleBond NonConjugatedSingleBondInRing NonConjugatedSingleBond NonConjugatedSingleBond NonConjugatedSingleBond NonConjugatedSingleBondInRing ConjugatedSingleBond ConjugatedSingleBond ConjugatedDoubleBond ConjugatedSingleBond NonConjugatedSingleBond NonConjugatedSingleBondInRing NonConjugatedSingleBond NonConjugatedSingleBond NonConjugatedSingleBond NonConjugatedSingleBond ConjugatedSingleBond ConjugatedSingleBond ConjugatedDoubleBond ConjugatedSingleBond ConjugatedSingleBond ConjugatedDoubleBond ConjugatedSingleBond ConjugatedSingleBond NonConjugatedSingleBond NonConjugatedSingleBond NonConjugatedSingleBond NonConjugatedSingleBond NonConjugatedSingleBond NonConjugatedSingleBond NonConjugatedSingleBond NonConjugatedSingleBond NonConjugatedSingleBond NonConjugatedSingleBond NonConjugatedSingleBond NonConjugatedSingleBond NonConjugatedSingleBond NonConjugatedSingleBond NonConjugatedSingleBond NonConjugatedSingleBond NonConjugatedSingleBond ConjugatedDoubleBond AmideSingleBond NonConjugatedSingleBond NonConjugatedSingleBond NonConjugatedSingleBond NonConjugatedSingleBond NonConjugatedSingleBond NonConjugatedSingleBond NonConjugatedSingleBond NonConjugatedSingleBond ConjugatedDoubleBond AmideSingleBond NonConjugatedSingleBond NonConjugatedSingleBond NonConjugatedSingleBond NonConjugatedSingleBond NonConjugatedSingleBond NonConjugatedSingleBond NonConjugatedSingleBond NonConjugatedSingleBond ConjugatedSingleBond ConjugatedDoubleBond NonConjugatedSingleBond NonConjugatedSingleBond NonConjugatedSingleBond NonConjugatedSingleBond
M  BCL CHI  15   S  17   S  21   S  24   S  28   R  35   R  39   R  55   S
M  BCL DBI - - - - - - - - - -
M  END
> <ConfClashScore>
0 

> <ConfOneFourInteractionScore>
-0.9784 

> <ConfScore>
0.0653397 

> <ConfScorePBest>
0.00716747 

> <ConfTolerance>
2.96318 

$$$$
ACO.****
  PyMOL2.5          3D                             0

 85 87  0  0  0  0  0  0  0  0999 V2000
    4.8837    1.0928  -10.6528 N   0  0  0  1  0  0  0  0  0  0  0  0
    3.8272    1.9134  -10.5419 C   0  0  0  1  0  0  0  0  0  0  0  0
    3.7900    2.6940  -11.2281 H   0  0  0  1  0  0  0  0  0  0  0  0
    2.8235    1.8632   -9.6747 N   0  0  0  1  0  0  0  0  0  0  0  0
    2.9530    0.8298   -8.8414 C   0  0  0  1  0  0  0  0  0  0  0  0
    3.9932   -0.1092   -8.8270 C   0  0  0  1  0  0  0  0  0  0  0  0
    4.9809    0.0756   -9.7900 C   0  0  0  1  0  0  0  0  0  0  0  0
    6.0527   -0.7745   -9.8632 N   0  0  0  1  0  0  0  0  0  0  0  0
    6.1176   -1.5353   -9.2489 H   0  0  0  1  0  0  0  0  0  0  0  0
    6.7546   -0.6218  -10.5299 H   0  0  0  1  0  0  0  0  0  0  0  0
    3.7949   -1.0301   -7.8101 N   0  0  0  1  0  0  0  0  0  0  0  0
    2.6780   -0.6405   -7.2583 C   0  0  0  1  0  0  0  0  0  0  0  0
    2.2481   -1.1396   -6.4535 H   0  0  0  1  0  0  0  0  0  0  0  0
    2.1183    0.4681   -7.8156 N   0  0  0  1  0  0  0  0  0  0  0  0
    0.9372    1.1881   -7.3385 C   0  0  0  1  0  0  0  0  0  0  0  0
    1.1929    2.2104   -7.1531 H   0  0  0  1  0  0  0  0  0  0  0  0
   -0.1987    1.0952   -8.3616 C   0  0  0  1  0  0  0  0  0  0  0  0
    0.1814    0.8812   -9.3387 H   0  0  0  1  0  0  0  0  0  0  0  0
   -0.9560    2.3077   -8.3989 O   0  0  0  1  0  0  0  0  0  0  0  0
   -0.8638    2.7689   -7.5620 H   0  0  0  1  0  0  0  0  0  0  0  0
   -1.0331   -0.0472   -7.8445 C   0  0  0  1  0  0  0  0  0  0  0  0
   -0.6518   -0.9877   -8.1834 H   0  0  0  1  0  0  0  0  0  0  0  0
   -2.4052    0.0884   -8.2500 O   0  0  0  1  0  0  0  0  0  0  0  0
   -2.8615    0.8432   -9.6326 P   0  0  0  1  0  0  0  0  0  0  0  0
   -1.5709    0.8145  -10.6441 O   0  0  0  0  0  0  0  0  0  0  0  0
   -4.0411    0.1760  -10.2275 O   0  0  0  1  0  0  0  0  0  0  0  0
   -3.1212    2.3817   -9.1969 O   0  5  0  1  0  0  0  0  0  0  0  0
   -0.8894    0.0924   -6.3221 C   0  0  0  1  0  0  0  0  0  0  0  0
   -1.6048    0.7881   -5.9360 H   0  0  0  1  0  0  0  0  0  0  0  0
    0.4159    0.5701   -6.1404 O   0  0  0  1  0  0  0  0  0  0  0  0
   -1.0671   -1.2296   -5.6506 C   0  0  0  1  0  0  0  0  0  0  0  0
   -0.8348   -1.1437   -4.6096 H   0  0  0  1  0  0  0  0  0  0  0  0
   -0.4242   -1.9565   -6.1012 H   0  0  0  1  0  0  0  0  0  0  0  0
   -2.4525   -1.6250   -5.8165 O   0  0  0  1  0  0  0  0  0  0  0  0
   -2.8262   -3.0414   -6.4208 P   0  0  0  1  0  0  0  0  0  0  0  0
   -2.2983   -3.0838   -7.8025 O   0  0  0  0  0  0  0  0  0  0  0  0
   -4.2546   -3.3472   -6.1905 O   0  0  0  1  0  0  0  0  0  0  0  0
   -2.0030   -4.0679   -5.4989 O   0  0  0  1  0  0  0  0  0  0  0  0
   -2.5269   -5.1454   -4.3789 P   0  0  0  1  0  0  0  0  0  0  0  0
   -3.9757   -5.0664   -4.0871 O   0  0  0  1  0  0  0  0  0  0  0  0
   -2.3122   -6.6539   -4.9291 O   0  5  0  1  0  0  0  0  0  0  0  0
   -1.6667   -5.0296   -3.0664 O   0  0  0  1  0  0  0  0  0  0  0  0
   -1.1378   -5.5768   -0.8201 C   0  0  0  1  0  0  0  0  0  0  0  0
   -2.2519   -5.2904   -1.7722 C   0  0  0  1  0  0  0  0  0  0  0  0
   -2.9065   -6.1347   -1.8318 H   0  0  0  1  0  0  0  0  0  0  0  0
   -2.8024   -4.4342   -1.4421 H   0  0  0  1  0  0  0  0  0  0  0  0
   -0.3587   -6.7777   -1.3637 C   0  0  0  1  0  0  0  0  0  0  0  0
   -1.0047   -7.6292   -1.4144 H   0  0  0  1  0  0  0  0  0  0  0  0
    0.4639   -6.9925   -0.7141 H   0  0  0  1  0  0  0  0  0  0  0  0
    0.0089   -6.5505   -2.3426 H   0  0  0  1  0  0  0  0  0  0  0  0
   -1.7179   -5.9142    0.5552 C   0  0  0  1  0  0  0  0  0  0  0  0
   -1.8784   -6.9697    0.6260 H   0  0  0  1  0  0  0  0  0  0  0  0
   -2.6488   -5.4027    0.6846 H   0  0  0  1  0  0  0  0  0  0  0  0
   -1.0323   -5.6060    1.3167 H   0  0  0  1  0  0  0  0  0  0  0  0
   -0.2037   -4.3661   -0.7516 C   0  0  0  1  0  0  0  0  0  0  0  0
    0.5934   -4.5976   -0.0763 H   0  0  0  1  0  0  0  0  0  0  0  0
    0.3268   -4.1137   -2.0473 O   0  0  0  1  0  0  0  0  0  0  0  0
    0.5212   -3.1779   -2.1372 H   0  0  0  1  0  0  0  0  0  0  0  0
   -0.9519   -3.1627   -0.2119 C   0  0  0  1  0  0  0  0  0  0  0  0
   -1.3027   -2.2537   -0.9461 O   0  0  0  1  0  0  0  0  0  0  0  0
   -1.1952   -3.1712    1.1083 N   0  0  0  1  0  0  0  0  0  0  0  0
   -0.9205   -3.9395    1.6512 H   0  0  0  1  0  0  0  0  0  0  0  0
   -1.8706   -2.0345    1.7392 C   0  0  0  1  0  0  0  0  0  0  0  0
   -2.8366   -1.9078    1.2968 H   0  0  0  1  0  0  0  0  0  0  0  0
   -1.2891   -1.1493    1.5867 H   0  0  0  1  0  0  0  0  0  0  0  0
   -2.0302   -2.2789    3.2309 C   0  0  0  1  0  0  0  0  0  0  0  0
   -1.0572   -2.3585    3.6690 H   0  0  0  1  0  0  0  0  0  0  0  0
   -2.5610   -3.1974    3.3706 H   0  0  0  1  0  0  0  0  0  0  0  0
   -2.7881   -1.1713    3.9366 C   0  0  0  1  0  0  0  0  0  0  0  0
   -2.9811   -0.0839    3.3943 O   0  0  0  1  0  0  0  0  0  0  0  0
   -3.2224   -1.4579    5.1671 N   0  0  0  1  0  0  0  0  0  0  0  0
   -3.0257   -2.3478    5.5274 H   0  0  0  1  0  0  0  0  0  0  0  0
   -3.9740   -0.5265    6.0122 C   0  0  0  1  0  0  0  0  0  0  0  0
   -4.8949   -0.9834    6.3089 H   0  0  0  1  0  0  0  0  0  0  0  0
   -4.1800    0.3654    5.4581 H   0  0  0  1  0  0  0  0  0  0  0  0
   -3.1738   -0.1749    7.2419 C   0  0  0  1  0  0  0  0  0  0  0  0
   -2.2801    0.3265    6.9340 H   0  0  0  1  0  0  0  0  0  0  0  0
   -2.9179   -1.0804    7.7513 H   0  0  0  1  0  0  0  0  0  0  0  0
   -4.0679    0.8980    8.3910 S   0  0  0  1  0  0  0  0  0  0  0  0
   -3.5036    2.4733    7.7368 C   0  0  0  1  0  0  0  0  0  0  0  0
   -2.7988    2.5437    6.7664 O   0  0  0  1  0  0  0  0  0  0  0  0
   -4.0993    3.6737    8.4463 C   0  0  0  1  0  0  0  0  0  0  0  0
   -5.1659    3.6427    8.3665 H   0  0  0  1  0  0  0  0  0  0  0  0
   -3.7341    4.5723    7.9945 H   0  0  0  1  0  0  0  0  0  0  0  0
   -3.8184    3.6532    9.4786 H   0  0  0  1  0  0  0  0  0  0  0  0
  1  2  1  0  0  0  0
  1  7  2  0  0  0  0
  2  3  1  0  0  0  0
  2  4  2  0  0  0  0
  4  5  1  0  0  0  0
  5  6  2  0  0  0  0
  5 14  1  0  0  0  0
  6  7  1  0  0  0  0
  6 11  1  0  0  0  0
  7  8  1  0  0  0  0
  8  9  1  0  0  0  0
  8 10  1  0  0  0  0
 11 12  2  0  0  0  0
 12 13  1  0  0  0  0
 12 14  1  0  0  0  0
 14 15  1  0  0  0  0
 15 16  1  0  0  0  0
 15 17  1  0  0  0  0
 15 30  1  0  0  0  0
 17 18  1  0  0  0  0
 17 19  1  0  0  0  0
 17 21  1  0  0  0  0
 19 20  1  0  0  0  0
 21 22  1  0  0  0  0
 21 23  1  0  0  0  0
 21 28  1  0  0  0  0
 23 24  1  0  0  0  0
 24 25  1  0  0  0  0
 24 26  2  0  0  0  0
 24 27  1  0  0  0  0
 28 29  1  0  0  0  0
 28 30  1  0  0  0  0
 28 31  1  0  0  0  0
 31 32  1  0  0  0  0
 31 33  1  0  0  0  0
 31 34  1  0  0  0  0
 34 35  1  0  0  0  0
 35 36  1  0  0  0  0
 35 37  2  0  0  0  0
 35 38  1  0  0  0  0
 38 39  1  0  0  0  0
 39 40  2  0  0  0  0
 39 41  1  0  0  0  0
 39 42  1  0  0  0  0
 42 44  1  0  0  0  0
 43 44  1  0  0  0  0
 43 47  1  0  0  0  0
 43 51  1  0  0  0  0
 43 55  1  0  0  0  0
 44 45  1  0  0  0  0
 44 46  1  0  0  0  0
 47 48  1  0  0  0  0
 47 49  1  0  0  0  0
 47 50  1  0  0  0  0
 51 52  1  0  0  0  0
 51 53  1  0  0  0  0
 51 54  1  0  0  0  0
 55 56  1  0  0  0  0
 55 57  1  0  0  0  0
 55 59  1  0  0  0  0
 57 58  1  0  0  0  0
 59 60  2  0  0  0  0
 59 61  1  0  0  0  0
 61 62  1  0  0  0  0
 61 63  1  0  0  0  0
 63 64  1  0  0  0  0
 63 65  1  0  0  0  0
 63 66  1  0  0  0  0
 66 67  1  0  0  0  0
 66 68  1  0  0  0  0
 66 69  1  0  0  0  0
 69 70  2  0  0  0  0
 69 71  1  0  0  0  0
 71 72  1  0  0  0  0
 71 73  1  0  0  0  0
 73 74  1  0  0  0  0
 73 75  1  0  0  0  0
 73 76  1  0  0  0  0
 76 77  1  0  0  0  0
 76 78  1  0  0  0  0
 76 79  1  0  0  0  0
 79 80  1  0  0  0  0
 80 81  2  0  0  0  0
 80 82  1  0  0  0  0
 82 83  1  0  0  0  0
 82 84  1  0  0  0  0
 82 85  1  0  0  0  0
M  BCL ATM N_Tr2TrTrPi C_TrTrTrPi H_S N_Tr2TrTrPi C_TrTrTrPi C_TrTrTrPi C_TrTrTrPi N_TrTrTrPi2 H_S H_S N_Tr2TrTrPi C_TrTrTrPi H_S N_TrTrTrPi2 C_TeTeTeTe H_S C_TeTeTeTe H_S O_Te2Te2TeTe H_S C_TeTeTeTe H_S O_Tr2TrTrPi2 P_TeTeTeTePi O_Te2Te2TeTe O_Tr2Tr2TrPi O_Te2Te2Te2Te C_TeTeTeTe H_S O_Te2Te2TeTe C_TeTeTeTe H_S H_S O_Tr2TrTrPi2 P_TeTeTeTePi O_Te2Te2TeTe O_Tr2Tr2TrPi O_Tr2TrTrPi2 P_TeTeTeTePi O_Tr2Tr2TrPi O_Te2Te2Te2Te O_Tr2TrTrPi2 C_TeTeTeTe C_TeTeTeTe H_S H_S C_TeTeTeTe H_S H_S H_S C_TeTeTeTe H_S H_S H_S C_TeTeTeTe H_S O_Te2Te2TeTe H_S C_TrTrTrPi O_Tr2Tr2TrPi N_TrTrTrPi2 H_S C_TeTeTeTe H_S H_S C_TeTeTeTe H_S H_S C_TrTrTrPi O_Tr2Tr2TrPi N_TrTrTrPi2 H_S C_TeTeTeTe H_S H_S C_TeTeTeTe H_S H_S S_Te2Te2TeTe C_TrTrTrPi O_Tr2Tr2TrPi C_TeTeTeTe H_S H_S H_S
M  BCL BND AromaticSingleBond AromaticDoubleBond NonConjugatedSingleBond AromaticDoubleBond AromaticSingleBond AromaticDoubleBond AromaticSingleBond AromaticSingleBond AromaticSingleBond ConjugatedSingleBond NonConjugatedSingleBond NonConjugatedSingleBond AromaticDoubleBond NonConjugatedSingleBond AromaticSingleBond NonConjugatedSingleBond NonConjugatedSingleBond NonConjugatedSingleBondInRing NonConjugatedSingleBondInRing NonConjugatedSingleBond NonConjugatedSingleBond NonConjugatedSingleBondInRing NonConjugatedSingleBond NonConjugatedSingleBond NonConjugatedSingleBond NonConjugatedSingleBondInRing ConjugatedSingleBond ConjugatedSingleBond ConjugatedDoubleBond ConjugatedSingleBond NonConjugatedSingleBond NonConjugatedSingleBondInRing NonConjugatedSingleBond NonConjugatedSingleBond NonConjugatedSingleBond NonConjugatedSingleBond ConjugatedSingleBond ConjugatedSingleBond ConjugatedDoubleBond ConjugatedSingleBond ConjugatedSingleBond ConjugatedDoubleBond ConjugatedSingleBond ConjugatedSingleBond NonConjugatedSingleBond NonConjugatedSingleBond NonConjugatedSingleBond NonConjugatedSingleBond NonConjugatedSingleBond NonConjugatedSingleBond NonConjugatedSingleBond NonConjugatedSingleBond NonConjugatedSingleBond NonConjugatedSingleBond NonConjugatedSingleBond NonConjugatedSingleBond NonConjugatedSingleBond NonConjugatedSingleBond NonConjugatedSingleBond NonConjugatedSingleBond NonConjugatedSingleBond ConjugatedDoubleBond AmideSingleBond NonConjugatedSingleBond NonConjugatedSingleBond NonConjugatedSingleBond NonConjugatedSingleBond NonConjugatedSingleBond NonConjugatedSingleBond NonConjugatedSingleBond NonConjugatedSingleBond ConjugatedDoubleBond AmideSingleBond NonConjugatedSingleBond NonConjugatedSingleBond NonConjugatedSingleBond NonConjugatedSingleBond NonConjugatedSingleBond NonConjugatedSingleBond NonConjugatedSingleBond NonConjugatedSingleBond ConjugatedSingleBond ConjugatedDoubleBond NonConjugatedSingleBond NonConjugatedSingleBond NonConjugatedSingleBond NonConjugatedSingleBond
M  BCL CHI  15   S  17   S  21   S  24   S  28   R  35   R  39   R  55   S
M  BCL DBI - - - - - - - - - -
M  END
> <ConfClashScore>
0 

> <ConfOneFourInteractionScore>
-0.972181 

> <ConfScore>
0.0689864 

> <ConfScorePBest>
0.00706447 

> <ConfTolerance>
2.69546 

$$$$
ACO.****
  PyMOL2.5          3D                             0

 85 87  0  0  0  0  0  0  0  0999 V2000
    4.8931    1.0774  -10.6366 N   0  0  0  1  0  0  0  0  0  0  0  0
    3.8374    1.9005  -10.5367 C   0  0  0  1  0  0  0  0  0  0  0  0
    3.8083    2.6801  -11.2244 H   0  0  0  1  0  0  0  0  0  0  0  0
    2.8257    1.8537   -9.6788 N   0  0  0  1  0  0  0  0  0  0  0  0
    2.9452    0.8213   -8.8428 C   0  0  0  1  0  0  0  0  0  0  0  0
    3.9832   -0.1198   -8.8174 C   0  0  0  1  0  0  0  0  0  0  0  0
    4.9802    0.0613   -9.7714 C   0  0  0  1  0  0  0  0  0  0  0  0
    6.0667   -0.7572   -9.8772 N   0  0  0  1  0  0  0  0  0  0  0  0
    6.1968   -1.4846   -9.2335 H   0  0  0  1  0  0  0  0  0  0  0  0
    6.7170   -0.6177  -10.5970 H   0  0  0  1  0  0  0  0  0  0  0  0
    3.7735   -1.0388   -7.8010 N   0  0  0  1  0  0  0  0  0  0  0  0
    2.6524   -0.6460   -7.2601 C   0  0  0  1  0  0  0  0  0  0  0  0
    2.2139   -1.1429   -6.4586 H   0  0  0  1  0  0  0  0  0  0  0  0
    2.1003    0.4630   -7.8242 N   0  0  0  1  0  0  0  0  0  0  0  0
    0.9592    1.2237   -7.3142 C   0  0  0  1  0  0  0  0  0  0  0  0
    0.0708    0.6329   -7.3958 H   0  0  0  1  0  0  0  0  0  0  0  0
    1.1972    1.6297   -5.8585 C   0  0  0  1  0  0  0  0  0  0  0  0
    1.8291    0.9292   -5.3536 H   0  0  0  1  0  0  0  0  0  0  0  0
   -0.0322    1.7642   -5.1439 O   0  0  0  1  0  0  0  0  0  0  0  0
   -0.5323    0.9475   -5.2101 H   0  0  0  1  0  0  0  0  0  0  0  0
    1.8871    2.9736   -6.0410 C   0  0  0  1  0  0  0  0  0  0  0  0
    2.9410    2.8396   -6.1686 H   0  0  0  1  0  0  0  0  0  0  0  0
    1.6441    3.8259   -4.9008 O   0  0  0  1  0  0  0  0  0  0  0  0
    1.7059    3.2909   -3.3518 P   0  0  0  1  0  0  0  0  0  0  0  0
    1.0017    4.4304   -2.4057 O   0  0  0  0  0  0  0  0  0  0  0  0
    1.1827    1.9193   -3.1634 O   0  0  0  1  0  0  0  0  0  0  0  0
    3.2385    3.3636   -2.8320 O   0  5  0  1  0  0  0  0  0  0  0  0
    1.2926    3.5523   -7.2509 C   0  0  0  1  0  0  0  0  0  0  0  0
    0.4822    4.2005   -6.9903 H   0  0  0  1  0  0  0  0  0  0  0  0
    0.8117    2.4491   -8.0407 O   0  0  0  1  0  0  0  0  0  0  0  0
    2.3210    4.3216   -8.0129 C   0  0  0  1  0  0  0  0  0  0  0  0
    2.4989    5.2630   -7.5365 H   0  0  0  1  0  0  0  0  0  0  0  0
    1.9844    4.4863   -9.0151 H   0  0  0  1  0  0  0  0  0  0  0  0
    3.5373    3.5374   -8.0242 O   0  0  0  1  0  0  0  0  0  0  0  0
    4.8184    4.1060   -8.5796 P   0  0  0  1  0  0  0  0  0  0  0  0
    4.6939    4.4189  -10.1038 O   0  0  0  0  0  0  0  0  0  0  0  0
    6.0323    3.2553   -8.3414 O   0  0  0  1  0  0  0  0  0  0  0  0
    5.1462    5.5311   -7.8879 O   0  0  0  1  0  0  0  0  0  0  0  0
    4.8022    5.9162   -6.3313 P   0  0  0  1  0  0  0  0  0  0  0  0
    3.4627    5.5701   -5.8057 O   0  0  0  1  0  0  0  0  0  0  0  0
    5.8544    5.1929   -5.3342 O   0  5  0  1  0  0  0  0  0  0  0  0
    5.0957    7.4607   -6.1548 O   0  0  0  1  0  0  0  0  0  0  0  0
    5.6703    9.4130   -4.9368 C   0  0  0  1  0  0  0  0  0  0  0  0
    5.2292    7.9913   -4.8183 C   0  0  0  1  0  0  0  0  0  0  0  0
    5.9579    7.4279   -4.2737 H   0  0  0  1  0  0  0  0  0  0  0  0
    4.2882    7.9427   -4.3113 H   0  0  0  1  0  0  0  0  0  0  0  0
    6.9956    9.4647   -5.7049 C   0  0  0  1  0  0  0  0  0  0  0  0
    6.8225    9.8425   -6.6909 H   0  0  0  1  0  0  0  0  0  0  0  0
    7.4096    8.4801   -5.7680 H   0  0  0  1  0  0  0  0  0  0  0  0
    7.6800   10.1077   -5.1920 H   0  0  0  1  0  0  0  0  0  0  0  0
    5.8455   10.0615   -3.5438 C   0  0  0  1  0  0  0  0  0  0  0  0
    6.5953   10.8231   -3.5961 H   0  0  0  1  0  0  0  0  0  0  0  0
    6.1445    9.3148   -2.8382 H   0  0  0  1  0  0  0  0  0  0  0  0
    4.9179   10.4953   -3.2334 H   0  0  0  1  0  0  0  0  0  0  0  0
    4.6202   10.1908   -5.7358 C   0  0  0  1  0  0  0  0  0  0  0  0
    4.5802    9.8043   -6.7327 H   0  0  0  1  0  0  0  0  0  0  0  0
    3.3435   10.1091   -5.1135 O   0  0  0  1  0  0  0  0  0  0  0  0
    3.4303   10.3037   -4.1774 H   0  0  0  1  0  0  0  0  0  0  0  0
    5.0028   11.6624   -5.7823 C   0  0  0  1  0  0  0  0  0  0  0  0
    4.9362   12.3713   -4.7790 O   0  0  0  1  0  0  0  0  0  0  0  0
    5.4106   12.1215   -6.9760 N   0  0  0  1  0  0  0  0  0  0  0  0
    5.4592   11.4985   -7.7309 H   0  0  0  1  0  0  0  0  0  0  0  0
    5.7831   13.5122   -7.1880 C   0  0  0  1  0  0  0  0  0  0  0  0
    5.2007   14.1179   -6.5256 H   0  0  0  1  0  0  0  0  0  0  0  0
    5.5530   13.7681   -8.2012 H   0  0  0  1  0  0  0  0  0  0  0  0
    7.2513   13.8205   -6.9437 C   0  0  0  1  0  0  0  0  0  0  0  0
    7.4481   13.6843   -5.9008 H   0  0  0  1  0  0  0  0  0  0  0  0
    7.4225   14.8429   -7.2089 H   0  0  0  1  0  0  0  0  0  0  0  0
    8.2331   12.9651   -7.7207 C   0  0  0  1  0  0  0  0  0  0  0  0
    8.2657   12.9877   -8.9503 O   0  0  0  1  0  0  0  0  0  0  0  0
    9.0445   12.1997   -6.9853 N   0  0  0  1  0  0  0  0  0  0  0  0
    8.9756   12.2630   -6.0098 H   0  0  0  1  0  0  0  0  0  0  0  0
   10.0243   11.2781   -7.5407 C   0  0  0  1  0  0  0  0  0  0  0  0
   10.4146   11.6965   -8.4449 H   0  0  0  1  0  0  0  0  0  0  0  0
    9.5378   10.3501   -7.7575 H   0  0  0  1  0  0  0  0  0  0  0  0
   11.1701   11.0140   -6.5966 C   0  0  0  1  0  0  0  0  0  0  0  0
   11.6528   11.9439   -6.3794 H   0  0  0  1  0  0  0  0  0  0  0  0
   11.8628   10.3560   -7.0784 H   0  0  0  1  0  0  0  0  0  0  0  0
   10.6493   10.2590   -5.0379 S   0  0  0  1  0  0  0  0  0  0  0  0
   10.3108    8.6055   -5.5964 C   0  0  0  1  0  0  0  0  0  0  0  0
   10.5104    8.2312   -6.7204 O   0  0  0  1  0  0  0  0  0  0  0  0
    9.7467    7.7340   -4.4983 C   0  0  0  1  0  0  0  0  0  0  0  0
   10.5476    7.2487   -3.9806 H   0  0  0  1  0  0  0  0  0  0  0  0
    9.0997    6.9966   -4.9255 H   0  0  0  1  0  0  0  0  0  0  0  0
    9.1935    8.3397   -3.8113 H   0  0  0  1  0  0  0  0  0  0  0  0
  1  2  1  0  0  0  0
  1  7  2  0  0  0  0
  2  3  1  0  0  0  0
  2  4  2  0  0  0  0
  4  5  1  0  0  0  0
  5  6  2  0  0  0  0
  5 14  1  0  0  0  0
  6  7  1  0  0  0  0
  6 11  1  0  0  0  0
  7  8  1  0  0  0  0
  8  9  1  0  0  0  0
  8 10  1  0  0  0  0
 11 12  2  0  0  0  0
 12 13  1  0  0  0  0
 12 14  1  0  0  0  0
 14 15  1  0  0  0  0
 15 16  1  0  0  0  0
 15 17  1  0  0  0  0
 15 30  1  0  0  0  0
 17 18  1  0  0  0  0
 17 19  1  0  0  0  0
 17 21  1  0  0  0  0
 19 20  1  0  0  0  0
 21 22  1  0  0  0  0
 21 23  1  0  0  0  0
 21 28  1  0  0  0  0
 23 24  1  0  0  0  0
 24 25  1  0  0  0  0
 24 26  2  0  0  0  0
 24 27  1  0  0  0  0
 28 29  1  0  0  0  0
 28 30  1  0  0  0  0
 28 31  1  0  0  0  0
 31 32  1  0  0  0  0
 31 33  1  0  0  0  0
 31 34  1  0  0  0  0
 34 35  1  0  0  0  0
 35 36  1  0  0  0  0
 35 37  2  0  0  0  0
 35 38  1  0  0  0  0
 38 39  1  0  0  0  0
 39 40  2  0  0  0  0
 39 41  1  0  0  0  0
 39 42  1  0  0  0  0
 42 44  1  0  0  0  0
 43 44  1  0  0  0  0
 43 47  1  0  0  0  0
 43 51  1  0  0  0  0
 43 55  1  0  0  0  0
 44 45  1  0  0  0  0
 44 46  1  0  0  0  0
 47 48  1  0  0  0  0
 47 49  1  0  0  0  0
 47 50  1  0  0  0  0
 51 52  1  0  0  0  0
 51 53  1  0  0  0  0
 51 54  1  0  0  0  0
 55 56  1  0  0  0  0
 55 57  1  0  0  0  0
 55 59  1  0  0  0  0
 57 58  1  0  0  0  0
 59 60  2  0  0  0  0
 59 61  1  0  0  0  0
 61 62  1  0  0  0  0
 61 63  1  0  0  0  0
 63 64  1  0  0  0  0
 63 65  1  0  0  0  0
 63 66  1  0  0  0  0
 66 67  1  0  0  0  0
 66 68  1  0  0  0  0
 66 69  1  0  0  0  0
 69 70  2  0  0  0  0
 69 71  1  0  0  0  0
 71 72  1  0  0  0  0
 71 73  1  0  0  0  0
 73 74  1  0  0  0  0
 73 75  1  0  0  0  0
 73 76  1  0  0  0  0
 76 77  1  0  0  0  0
 76 78  1  0  0  0  0
 76 79  1  0  0  0  0
 79 80  1  0  0  0  0
 80 81  2  0  0  0  0
 80 82  1  0  0  0  0
 82 83  1  0  0  0  0
 82 84  1  0  0  0  0
 82 85  1  0  0  0  0
M  BCL ATM N_Tr2TrTrPi C_TrTrTrPi H_S N_Tr2TrTrPi C_TrTrTrPi C_TrTrTrPi C_TrTrTrPi N_TrTrTrPi2 H_S H_S N_Tr2TrTrPi C_TrTrTrPi H_S N_TrTrTrPi2 C_TeTeTeTe H_S C_TeTeTeTe H_S O_Te2Te2TeTe H_S C_TeTeTeTe H_S O_Tr2TrTrPi2 P_TeTeTeTePi O_Te2Te2TeTe O_Tr2Tr2TrPi O_Te2Te2Te2Te C_TeTeTeTe H_S O_Te2Te2TeTe C_TeTeTeTe H_S H_S O_Tr2TrTrPi2 P_TeTeTeTePi O_Te2Te2TeTe O_Tr2Tr2TrPi O_Tr2TrTrPi2 P_TeTeTeTePi O_Tr2Tr2TrPi O_Te2Te2Te2Te O_Tr2TrTrPi2 C_TeTeTeTe C_TeTeTeTe H_S H_S C_TeTeTeTe H_S H_S H_S C_TeTeTeTe H_S H_S H_S C_TeTeTeTe H_S O_Te2Te2TeTe H_S C_TrTrTrPi O_Tr2Tr2TrPi N_TrTrTrPi2 H_S C_TeTeTeTe H_S H_S C_TeTeTeTe H_S H_S C_TrTrTrPi O_Tr2Tr2TrPi N_TrTrTrPi2 H_S C_TeTeTeTe H_S H_S C_TeTeTeTe H_S H_S S_Te2Te2TeTe C_TrTrTrPi O_Tr2Tr2TrPi C_TeTeTeTe H_S H_S H_S
M  BCL BND AromaticSingleBond AromaticDoubleBond NonConjugatedSingleBond AromaticDoubleBond AromaticSingleBond AromaticDoubleBond AromaticSingleBond AromaticSingleBond AromaticSingleBond ConjugatedSingleBond NonConjugatedSingleBond NonConjugatedSingleBond AromaticDoubleBond NonConjugatedSingleBond AromaticSingleBond NonConjugatedSingleBond NonConjugatedSingleBond NonConjugatedSingleBondInRing NonConjugatedSingleBondInRing NonConjugatedSingleBond NonConjugatedSingleBond NonConjugatedSingleBondInRing NonConjugatedSingleBond NonConjugatedSingleBond NonConjugatedSingleBond NonConjugatedSingleBondInRing ConjugatedSingleBond ConjugatedSingleBond ConjugatedDoubleBond ConjugatedSingleBond NonConjugatedSingleBond NonConjugatedSingleBondInRing NonConjugatedSingleBond NonConjugatedSingleBond NonConjugatedSingleBond NonConjugatedSingleBond ConjugatedSingleBond ConjugatedSingleBond ConjugatedDoubleBond ConjugatedSingleBond ConjugatedSingleBond ConjugatedDoubleBond ConjugatedSingleBond ConjugatedSingleBond NonConjugatedSingleBond NonConjugatedSingleBond NonConjugatedSingleBond NonConjugatedSingleBond NonConjugatedSingleBond NonConjugatedSingleBond NonConjugatedSingleBond NonConjugatedSingleBond NonConjugatedSingleBond NonConjugatedSingleBond NonConjugatedSingleBond NonConjugatedSingleBond NonConjugatedSingleBond NonConjugatedSingleBond NonConjugatedSingleBond NonConjugatedSingleBond NonConjugatedSingleBond ConjugatedDoubleBond AmideSingleBond NonConjugatedSingleBond NonConjugatedSingleBond NonConjugatedSingleBond NonConjugatedSingleBond NonConjugatedSingleBond NonConjugatedSingleBond NonConjugatedSingleBond NonConjugatedSingleBond ConjugatedDoubleBond AmideSingleBond NonConjugatedSingleBond NonConjugatedSingleBond NonConjugatedSingleBond NonConjugatedSingleBond NonConjugatedSingleBond NonConjugatedSingleBond NonConjugatedSingleBond NonConjugatedSingleBond ConjugatedSingleBond ConjugatedDoubleBond NonConjugatedSingleBond NonConjugatedSingleBond NonConjugatedSingleBond NonConjugatedSingleBond
M  BCL CHI  15   S  17   S  21   S  24   S  28   R  35   R  39   R  55   S
M  BCL DBI - - - - - - - - - -
M  END
> <ConfClashScore>
0 

> <ConfOneFourInteractionScore>
-0.979069 

> <ConfScore>
0.0693596 

> <ConfScorePBest>
0.00696147 

> <ConfTolerance>
2.83469 

$$$$
ACO.****
  PyMOL2.5          3D                             0

 85 87  0  0  0  0  0  0  0  0999 V2000
    4.8879    1.0982  -10.6475 N   0  0  0  1  0  0  0  0  0  0  0  0
    3.8362    1.9240  -10.5295 C   0  0  0  1  0  0  0  0  0  0  0  0
    3.8012    2.7081  -11.2117 H   0  0  0  1  0  0  0  0  0  0  0  0
    2.8347    1.8747   -9.6596 N   0  0  0  1  0  0  0  0  0  0  0  0
    2.9610    0.8366   -8.8318 C   0  0  0  1  0  0  0  0  0  0  0  0
    3.9962   -0.1080   -8.8251 C   0  0  0  1  0  0  0  0  0  0  0  0
    4.9822    0.0763   -9.7900 C   0  0  0  1  0  0  0  0  0  0  0  0
    6.0492   -0.7792   -9.8705 N   0  0  0  1  0  0  0  0  0  0  0  0
    6.7870   -0.5857  -10.4858 H   0  0  0  1  0  0  0  0  0  0  0  0
    6.0747   -1.5846   -9.3128 H   0  0  0  1  0  0  0  0  0  0  0  0
    3.7959   -1.0329   -7.8123 N   0  0  0  1  0  0  0  0  0  0  0  0
    2.6826   -0.6401   -7.2553 C   0  0  0  1  0  0  0  0  0  0  0  0
    2.2523   -1.1408   -6.4518 H   0  0  0  1  0  0  0  0  0  0  0  0
    2.1274    0.4742   -7.8055 N   0  0  0  1  0  0  0  0  0  0  0  0
    0.8844    1.1531   -7.3849 C   0  0  0  1  0  0  0  0  0  0  0  0
    1.1094    2.1543   -7.0815 H   0  0  0  1  0  0  0  0  0  0  0  0
   -0.1361    1.1596   -8.5340 C   0  0  0  1  0  0  0  0  0  0  0  0
   -0.0506    0.2759   -9.1313 H   0  0  0  1  0  0  0  0  0  0  0  0
    0.0264    2.3084   -9.3589 O   0  0  0  1  0  0  0  0  0  0  0  0
   -0.8039    2.7879   -9.4078 H   0  0  0  1  0  0  0  0  0  0  0  0
   -1.4638    1.1970   -7.7979 C   0  0  0  1  0  0  0  0  0  0  0  0
   -2.2301    0.7055   -8.3602 H   0  0  0  1  0  0  0  0  0  0  0  0
   -1.8680    2.5619   -7.5186 O   0  0  0  1  0  0  0  0  0  0  0  0
   -3.4273    3.0662   -7.5809 P   0  0  0  1  0  0  0  0  0  0  0  0
   -4.3947    1.8686   -7.0155 O   0  0  0  0  0  0  0  0  0  0  0  0
   -3.4736    4.3240   -6.8023 O   0  0  0  1  0  0  0  0  0  0  0  0
   -3.8043    3.2578   -9.1448 O   0  5  0  1  0  0  0  0  0  0  0  0
   -1.1525    0.4288   -6.4897 C   0  0  0  1  0  0  0  0  0  0  0  0
   -1.6213    0.9103   -5.6571 H   0  0  0  1  0  0  0  0  0  0  0  0
    0.2780    0.4523   -6.3376 O   0  0  0  1  0  0  0  0  0  0  0  0
   -1.6385   -0.9797   -6.5894 C   0  0  0  1  0  0  0  0  0  0  0  0
   -1.0471   -1.5199   -7.2990 H   0  0  0  1  0  0  0  0  0  0  0  0
   -2.6633   -0.9907   -6.8967 H   0  0  0  1  0  0  0  0  0  0  0  0
   -1.5100   -1.5826   -5.2803 O   0  0  0  1  0  0  0  0  0  0  0  0
   -1.8099   -3.0763   -5.0025 P   0  0  0  1  0  0  0  0  0  0  0  0
   -0.4450   -3.7303   -4.6739 O   0  0  0  0  0  0  0  0  0  0  0  0
   -2.5840   -3.6820   -6.0905 O   0  0  0  1  0  0  0  0  0  0  0  0
   -2.6187   -2.9851   -3.6209 O   0  0  0  1  0  0  0  0  0  0  0  0
   -3.2830   -1.6919   -2.8619 P   0  0  0  1  0  0  0  0  0  0  0  0
   -2.3269   -0.8252   -2.1374 O   0  0  0  1  0  0  0  0  0  0  0  0
   -3.8420   -0.8382   -4.1201 O   0  5  0  1  0  0  0  0  0  0  0  0
   -4.5527   -2.0555   -2.0064 O   0  0  0  1  0  0  0  0  0  0  0  0
   -5.8390   -3.0485   -0.3476 C   0  0  0  1  0  0  0  0  0  0  0  0
   -4.4207   -2.7399   -0.7293 C   0  0  0  1  0  0  0  0  0  0  0  0
   -3.9586   -2.1057   -0.0019 H   0  0  0  1  0  0  0  0  0  0  0  0
   -3.8491   -3.6383   -0.8345 H   0  0  0  1  0  0  0  0  0  0  0  0
   -6.4448   -4.0284   -1.3561 C   0  0  0  1  0  0  0  0  0  0  0  0
   -6.8596   -4.8661   -0.8353 H   0  0  0  1  0  0  0  0  0  0  0  0
   -5.6824   -4.3672   -2.0260 H   0  0  0  1  0  0  0  0  0  0  0  0
   -7.2159   -3.5368   -1.9117 H   0  0  0  1  0  0  0  0  0  0  0  0
   -6.7097   -1.7921   -0.3408 C   0  0  0  1  0  0  0  0  0  0  0  0
   -6.5591   -1.2581    0.5742 H   0  0  0  1  0  0  0  0  0  0  0  0
   -7.7392   -2.0714   -0.4251 H   0  0  0  1  0  0  0  0  0  0  0  0
   -6.4403   -1.1672   -1.1665 H   0  0  0  1  0  0  0  0  0  0  0  0
   -5.8617   -3.6590    1.0587 C   0  0  0  1  0  0  0  0  0  0  0  0
   -5.3123   -4.5771    1.0448 H   0  0  0  1  0  0  0  0  0  0  0  0
   -5.2865   -2.7531    1.9926 O   0  0  0  1  0  0  0  0  0  0  0  0
   -5.7866   -1.9336    1.9939 H   0  0  0  1  0  0  0  0  0  0  0  0
   -7.2847   -3.9482    1.4385 C   0  0  0  1  0  0  0  0  0  0  0  0
   -8.0655   -4.5601    0.7344 O   0  0  0  1  0  0  0  0  0  0  0  0
   -7.6762   -3.4878    2.6301 N   0  0  0  1  0  0  0  0  0  0  0  0
   -7.0271   -3.0134    3.1904 H   0  0  0  1  0  0  0  0  0  0  0  0
   -9.0362   -3.6668    3.1260 C   0  0  0  1  0  0  0  0  0  0  0  0
   -8.9938   -4.1716    4.0684 H   0  0  0  1  0  0  0  0  0  0  0  0
   -9.5809   -4.2641    2.4250 H   0  0  0  1  0  0  0  0  0  0  0  0
   -9.7684   -2.3444    3.3132 C   0  0  0  1  0  0  0  0  0  0  0  0
  -10.7873   -2.5521    3.5656 H   0  0  0  1  0  0  0  0  0  0  0  0
   -9.7323   -1.8017    2.3918 H   0  0  0  1  0  0  0  0  0  0  0  0
   -9.1668   -1.4818    4.4054 C   0  0  0  1  0  0  0  0  0  0  0  0
   -9.3168   -1.7602    5.5943 O   0  0  0  1  0  0  0  0  0  0  0  0
   -8.4749   -0.4173    3.9893 N   0  0  0  1  0  0  0  0  0  0  0  0
   -8.3643   -0.2719    3.0264 H   0  0  0  1  0  0  0  0  0  0  0  0
   -7.8763    0.5397    4.9216 C   0  0  0  1  0  0  0  0  0  0  0  0
   -8.5475    0.6671    5.7450 H   0  0  0  1  0  0  0  0  0  0  0  0
   -7.7565    1.4722    4.4108 H   0  0  0  1  0  0  0  0  0  0  0  0
   -6.5298    0.1277    5.4713 C   0  0  0  1  0  0  0  0  0  0  0  0
   -6.6404   -0.8104    5.9739 H   0  0  0  1  0  0  0  0  0  0  0  0
   -6.2058    0.8710    6.1694 H   0  0  0  1  0  0  0  0  0  0  0  0
   -5.2629   -0.0511    4.1930 S   0  0  0  1  0  0  0  0  0  0  0  0
   -5.2013    1.5106    3.4239 C   0  0  0  1  0  0  0  0  0  0  0  0
   -5.9516    2.4369    3.7053 O   0  0  0  1  0  0  0  0  0  0  0  0
   -4.0363    1.6982    2.4520 C   0  0  0  1  0  0  0  0  0  0  0  0
   -3.8542    0.7812    1.9315 H   0  0  0  1  0  0  0  0  0  0  0  0
   -3.1593    1.9790    2.9968 H   0  0  0  1  0  0  0  0  0  0  0  0
   -4.2801    2.4657    1.7473 H   0  0  0  1  0  0  0  0  0  0  0  0
  1  2  1  0  0  0  0
  1  7  2  0  0  0  0
  2  3  1  0  0  0  0
  2  4  2  0  0  0  0
  4  5  1  0  0  0  0
  5  6  2  0  0  0  0
  5 14  1  0  0  0  0
  6  7  1  0  0  0  0
  6 11  1  0  0  0  0
  7  8  1  0  0  0  0
  8  9  1  0  0  0  0
  8 10  1  0  0  0  0
 11 12  2  0  0  0  0
 12 13  1  0  0  0  0
 12 14  1  0  0  0  0
 14 15  1  0  0  0  0
 15 16  1  0  0  0  0
 15 17  1  0  0  0  0
 15 30  1  0  0  0  0
 17 18  1  0  0  0  0
 17 19  1  0  0  0  0
 17 21  1  0  0  0  0
 19 20  1  0  0  0  0
 21 22  1  0  0  0  0
 21 23  1  0  0  0  0
 21 28  1  0  0  0  0
 23 24  1  0  0  0  0
 24 25  1  0  0  0  0
 24 26  2  0  0  0  0
 24 27  1  0  0  0  0
 28 29  1  0  0  0  0
 28 30  1  0  0  0  0
 28 31  1  0  0  0  0
 31 32  1  0  0  0  0
 31 33  1  0  0  0  0
 31 34  1  0  0  0  0
 34 35  1  0  0  0  0
 35 36  1  0  0  0  0
 35 37  2  0  0  0  0
 35 38  1  0  0  0  0
 38 39  1  0  0  0  0
 39 40  2  0  0  0  0
 39 41  1  0  0  0  0
 39 42  1  0  0  0  0
 42 44  1  0  0  0  0
 43 44  1  0  0  0  0
 43 47  1  0  0  0  0
 43 51  1  0  0  0  0
 43 55  1  0  0  0  0
 44 45  1  0  0  0  0
 44 46  1  0  0  0  0
 47 48  1  0  0  0  0
 47 49  1  0  0  0  0
 47 50  1  0  0  0  0
 51 52  1  0  0  0  0
 51 53  1  0  0  0  0
 51 54  1  0  0  0  0
 55 56  1  0  0  0  0
 55 57  1  0  0  0  0
 55 59  1  0  0  0  0
 57 58  1  0  0  0  0
 59 60  2  0  0  0  0
 59 61  1  0  0  0  0
 61 62  1  0  0  0  0
 61 63  1  0  0  0  0
 63 64  1  0  0  0  0
 63 65  1  0  0  0  0
 63 66  1  0  0  0  0
 66 67  1  0  0  0  0
 66 68  1  0  0  0  0
 66 69  1  0  0  0  0
 69 70  2  0  0  0  0
 69 71  1  0  0  0  0
 71 72  1  0  0  0  0
 71 73  1  0  0  0  0
 73 74  1  0  0  0  0
 73 75  1  0  0  0  0
 73 76  1  0  0  0  0
 76 77  1  0  0  0  0
 76 78  1  0  0  0  0
 76 79  1  0  0  0  0
 79 80  1  0  0  0  0
 80 81  2  0  0  0  0
 80 82  1  0  0  0  0
 82 83  1  0  0  0  0
 82 84  1  0  0  0  0
 82 85  1  0  0  0  0
M  BCL ATM N_Tr2TrTrPi C_TrTrTrPi H_S N_Tr2TrTrPi C_TrTrTrPi C_TrTrTrPi C_TrTrTrPi N_TrTrTrPi2 H_S H_S N_Tr2TrTrPi C_TrTrTrPi H_S N_TrTrTrPi2 C_TeTeTeTe H_S C_TeTeTeTe H_S O_Te2Te2TeTe H_S C_TeTeTeTe H_S O_Tr2TrTrPi2 P_TeTeTeTePi O_Te2Te2TeTe O_Tr2Tr2TrPi O_Te2Te2Te2Te C_TeTeTeTe H_S O_Te2Te2TeTe C_TeTeTeTe H_S H_S O_Tr2TrTrPi2 P_TeTeTeTePi O_Te2Te2TeTe O_Tr2Tr2TrPi O_Tr2TrTrPi2 P_TeTeTeTePi O_Tr2Tr2TrPi O_Te2Te2Te2Te O_Tr2TrTrPi2 C_TeTeTeTe C_TeTeTeTe H_S H_S C_TeTeTeTe H_S H_S H_S C_TeTeTeTe H_S H_S H_S C_TeTeTeTe H_S O_Te2Te2TeTe H_S C_TrTrTrPi O_Tr2Tr2TrPi N_TrTrTrPi2 H_S C_TeTeTeTe H_S H_S C_TeTeTeTe H_S H_S C_TrTrTrPi O_Tr2Tr2TrPi N_TrTrTrPi2 H_S C_TeTeTeTe H_S H_S C_TeTeTeTe H_S H_S S_Te2Te2TeTe C_TrTrTrPi O_Tr2Tr2TrPi C_TeTeTeTe H_S H_S H_S
M  BCL BND AromaticSingleBond AromaticDoubleBond NonConjugatedSingleBond AromaticDoubleBond AromaticSingleBond AromaticDoubleBond AromaticSingleBond AromaticSingleBond AromaticSingleBond ConjugatedSingleBond NonConjugatedSingleBond NonConjugatedSingleBond AromaticDoubleBond NonConjugatedSingleBond AromaticSingleBond NonConjugatedSingleBond NonConjugatedSingleBond NonConjugatedSingleBondInRing NonConjugatedSingleBondInRing NonConjugatedSingleBond NonConjugatedSingleBond NonConjugatedSingleBondInRing NonConjugatedSingleBond NonConjugatedSingleBond NonConjugatedSingleBond NonConjugatedSingleBondInRing ConjugatedSingleBond ConjugatedSingleBond ConjugatedDoubleBond ConjugatedSingleBond NonConjugatedSingleBond NonConjugatedSingleBondInRing NonConjugatedSingleBond NonConjugatedSingleBond NonConjugatedSingleBond NonConjugatedSingleBond ConjugatedSingleBond ConjugatedSingleBond ConjugatedDoubleBond ConjugatedSingleBond ConjugatedSingleBond ConjugatedDoubleBond ConjugatedSingleBond ConjugatedSingleBond NonConjugatedSingleBond NonConjugatedSingleBond NonConjugatedSingleBond NonConjugatedSingleBond NonConjugatedSingleBond NonConjugatedSingleBond NonConjugatedSingleBond NonConjugatedSingleBond NonConjugatedSingleBond NonConjugatedSingleBond NonConjugatedSingleBond NonConjugatedSingleBond NonConjugatedSingleBond NonConjugatedSingleBond NonConjugatedSingleBond NonConjugatedSingleBond NonConjugatedSingleBond ConjugatedDoubleBond AmideSingleBond NonConjugatedSingleBond NonConjugatedSingleBond NonConjugatedSingleBond NonConjugatedSingleBond NonConjugatedSingleBond NonConjugatedSingleBond NonConjugatedSingleBond NonConjugatedSingleBond ConjugatedDoubleBond AmideSingleBond NonConjugatedSingleBond NonConjugatedSingleBond NonConjugatedSingleBond NonConjugatedSingleBond NonConjugatedSingleBond NonConjugatedSingleBond NonConjugatedSingleBond NonConjugatedSingleBond ConjugatedSingleBond ConjugatedDoubleBond NonConjugatedSingleBond NonConjugatedSingleBond NonConjugatedSingleBond NonConjugatedSingleBond
M  BCL CHI  15   S  17   S  21   S  24   S  28   R  35   R  39   R  55   S
M  BCL DBI - - - - - - - - - -
M  END
> <ConfClashScore>
0 

> <ConfOneFourInteractionScore>
-0.981376 

> <ConfScore>
0.0700017 

> <ConfScorePBest>
0.00685847 

> <ConfTolerance>
2.95347 

$$$$
ACO.****
  PyMOL2.5          3D                             0

 85 87  0  0  0  0  0  0  0  0999 V2000
    4.8990    1.1082  -10.6348 N   0  0  0  1  0  0  0  0  0  0  0  0
    3.8490    1.9360  -10.5156 C   0  0  0  1  0  0  0  0  0  0  0  0
    3.8200    2.7259  -11.1915 H   0  0  0  1  0  0  0  0  0  0  0  0
    2.8427    1.8824   -9.6517 N   0  0  0  1  0  0  0  0  0  0  0  0
    2.9615    0.8371   -8.8319 C   0  0  0  1  0  0  0  0  0  0  0  0
    3.9938   -0.1106   -8.8275 C   0  0  0  1  0  0  0  0  0  0  0  0
    4.9856    0.0788   -9.7854 C   0  0  0  1  0  0  0  0  0  0  0  0
    6.0463   -0.7755   -9.8669 N   0  0  0  1  0  0  0  0  0  0  0  0
    6.3358   -1.2743   -9.0746 H   0  0  0  1  0  0  0  0  0  0  0  0
    6.5187   -0.8904  -10.7179 H   0  0  0  1  0  0  0  0  0  0  0  0
    3.7854   -1.0433   -7.8235 N   0  0  0  1  0  0  0  0  0  0  0  0
    2.6702   -0.6519   -7.2694 C   0  0  0  1  0  0  0  0  0  0  0  0
    2.2341   -1.1581   -6.4724 H   0  0  0  1  0  0  0  0  0  0  0  0
    2.1212    0.4686   -7.8132 N   0  0  0  1  0  0  0  0  0  0  0  0
    0.8898    1.1411   -7.3977 C   0  0  0  1  0  0  0  0  0  0  0  0
    0.3824    0.5407   -6.6718 H   0  0  0  1  0  0  0  0  0  0  0  0
    1.2011    2.5274   -6.8259 C   0  0  0  1  0  0  0  0  0  0  0  0
    2.2146    2.5843   -6.4875 H   0  0  0  1  0  0  0  0  0  0  0  0
    0.3251    2.8448   -5.7544 O   0  0  0  1  0  0  0  0  0  0  0  0
   -0.3755    3.4189   -6.0726 H   0  0  0  1  0  0  0  0  0  0  0  0
    0.9716    3.4421   -8.0004 C   0  0  0  1  0  0  0  0  0  0  0  0
    1.8429    3.5021   -8.6186 H   0  0  0  1  0  0  0  0  0  0  0  0
    0.5956    4.7768   -7.5601 O   0  0  0  1  0  0  0  0  0  0  0  0
    1.4768    6.0873   -8.0024 P   0  0  0  1  0  0  0  0  0  0  0  0
    1.2147    7.1655   -6.7947 O   0  0  0  0  0  0  0  0  0  0  0  0
    2.8369    5.6052   -8.3311 O   0  0  0  1  0  0  0  0  0  0  0  0
    0.6992    6.6552   -9.3052 O   0  5  0  1  0  0  0  0  0  0  0  0
   -0.1861    2.7566   -8.7405 C   0  0  0  1  0  0  0  0  0  0  0  0
   -1.1279    3.0524   -8.3276 H   0  0  0  1  0  0  0  0  0  0  0  0
    0.0367    1.3875   -8.5382 O   0  0  0  1  0  0  0  0  0  0  0  0
   -0.1536    3.0884  -10.1961 C   0  0  0  1  0  0  0  0  0  0  0  0
   -0.9807    2.6266  -10.6937 H   0  0  0  1  0  0  0  0  0  0  0  0
    0.7618    2.7421  -10.6284 H   0  0  0  1  0  0  0  0  0  0  0  0
   -0.2443    4.5272  -10.3209 O   0  0  0  1  0  0  0  0  0  0  0  0
   -1.5806    5.2190  -10.8445 P   0  0  0  1  0  0  0  0  0  0  0  0
   -2.5970    5.3143   -9.7682 O   0  0  0  0  0  0  0  0  0  0  0  0
   -1.9612    4.6231  -12.1386 O   0  0  0  1  0  0  0  0  0  0  0  0
   -0.9319    6.6635  -11.0969 O   0  0  0  1  0  0  0  0  0  0  0  0
    0.3845    7.1538  -11.9433 P   0  0  0  1  0  0  0  0  0  0  0  0
    1.6314    6.4807  -11.5158 O   0  0  0  1  0  0  0  0  0  0  0  0
    0.1505    7.2152  -13.5451 O   0  5  0  1  0  0  0  0  0  0  0  0
    0.5418    8.6871  -11.5865 O   0  0  0  1  0  0  0  0  0  0  0  0
   -0.2464   10.9482  -11.4576 C   0  0  0  1  0  0  0  0  0  0  0  0
   -0.4750    9.6095  -12.0347 C   0  0  0  1  0  0  0  0  0  0  0  0
   -1.4353    9.2522  -11.7265 H   0  0  0  1  0  0  0  0  0  0  0  0
   -0.4444    9.6761  -13.1022 H   0  0  0  1  0  0  0  0  0  0  0  0
   -0.2886   10.8693   -9.9276 C   0  0  0  1  0  0  0  0  0  0  0  0
   -0.9615   11.6106   -9.5501 H   0  0  0  1  0  0  0  0  0  0  0  0
    0.6911   11.0440   -9.5345 H   0  0  0  1  0  0  0  0  0  0  0  0
   -0.6249    9.8981   -9.6299 H   0  0  0  1  0  0  0  0  0  0  0  0
   -1.3331   11.9065  -11.9508 C   0  0  0  1  0  0  0  0  0  0  0  0
   -0.8805   12.7143  -12.4869 H   0  0  0  1  0  0  0  0  0  0  0  0
   -1.8740   12.2937  -11.1127 H   0  0  0  1  0  0  0  0  0  0  0  0
   -2.0045   11.3814  -12.5976 H   0  0  0  1  0  0  0  0  0  0  0  0
    1.1228   11.4680  -11.9028 C   0  0  0  1  0  0  0  0  0  0  0  0
    1.2688   12.4182  -11.4332 H   0  0  0  1  0  0  0  0  0  0  0  0
    2.1248   10.5638  -11.4171 O   0  0  0  1  0  0  0  0  0  0  0  0
    1.7562   10.0251  -10.7132 H   0  0  0  1  0  0  0  0  0  0  0  0
    1.2668   11.6720  -13.3925 C   0  0  0  1  0  0  0  0  0  0  0  0
    0.6048   12.5213  -13.9875 O   0  0  0  1  0  0  0  0  0  0  0  0
    2.1534   10.8734  -14.0074 N   0  0  0  1  0  0  0  0  0  0  0  0
    2.6412   10.2103  -13.4756 H   0  0  0  1  0  0  0  0  0  0  0  0
    2.4156   10.9581  -15.4364 C   0  0  0  1  0  0  0  0  0  0  0  0
    3.3673   10.5123  -15.6374 H   0  0  0  1  0  0  0  0  0  0  0  0
    2.4372   11.9895  -15.7205 H   0  0  0  1  0  0  0  0  0  0  0  0
    1.3594   10.2465  -16.2661 C   0  0  0  1  0  0  0  0  0  0  0  0
    0.4254   10.7517  -16.1344 H   0  0  0  1  0  0  0  0  0  0  0  0
    1.2730    9.2391  -15.9160 H   0  0  0  1  0  0  0  0  0  0  0  0
    1.6902   10.2163  -17.7585 C   0  0  0  1  0  0  0  0  0  0  0  0
    2.8516   10.2080  -18.1318 O   0  0  0  1  0  0  0  0  0  0  0  0
    0.6642   10.2913  -18.6111 N   0  0  0  1  0  0  0  0  0  0  0  0
   -0.2484   10.2924  -18.2540 H   0  0  0  1  0  0  0  0  0  0  0  0
    0.8548   10.3715  -20.0516 C   0  0  0  1  0  0  0  0  0  0  0  0
    1.7820   10.8684  -20.2477 H   0  0  0  1  0  0  0  0  0  0  0  0
    0.0503   10.9373  -20.4730 H   0  0  0  1  0  0  0  0  0  0  0  0
    0.8862    9.0103  -20.7091 C   0  0  0  1  0  0  0  0  0  0  0  0
   -0.0673    8.5406  -20.5857 H   0  0  0  1  0  0  0  0  0  0  0  0
    1.6414    8.4137  -20.2416 H   0  0  0  1  0  0  0  0  0  0  0  0
    1.2521    9.1489  -22.4749 S   0  0  0  1  0  0  0  0  0  0  0  0
    1.4327    7.4474  -22.9571 C   0  0  0  1  0  0  0  0  0  0  0  0
    1.4086    6.5316  -22.1798 O   0  0  0  1  0  0  0  0  0  0  0  0
    1.6187    7.2911  -24.4485 C   0  0  0  1  0  0  0  0  0  0  0  0
    0.6979    7.5089  -24.9481 H   0  0  0  1  0  0  0  0  0  0  0  0
    1.9140    6.2862  -24.6675 H   0  0  0  1  0  0  0  0  0  0  0  0
    2.3760    7.9674  -24.7861 H   0  0  0  1  0  0  0  0  0  0  0  0
  1  2  1  0  0  0  0
  1  7  2  0  0  0  0
  2  3  1  0  0  0  0
  2  4  2  0  0  0  0
  4  5  1  0  0  0  0
  5  6  2  0  0  0  0
  5 14  1  0  0  0  0
  6  7  1  0  0  0  0
  6 11  1  0  0  0  0
  7  8  1  0  0  0  0
  8  9  1  0  0  0  0
  8 10  1  0  0  0  0
 11 12  2  0  0  0  0
 12 13  1  0  0  0  0
 12 14  1  0  0  0  0
 14 15  1  0  0  0  0
 15 16  1  0  0  0  0
 15 17  1  0  0  0  0
 15 30  1  0  0  0  0
 17 18  1  0  0  0  0
 17 19  1  0  0  0  0
 17 21  1  0  0  0  0
 19 20  1  0  0  0  0
 21 22  1  0  0  0  0
 21 23  1  0  0  0  0
 21 28  1  0  0  0  0
 23 24  1  0  0  0  0
 24 25  1  0  0  0  0
 24 26  2  0  0  0  0
 24 27  1  0  0  0  0
 28 29  1  0  0  0  0
 28 30  1  0  0  0  0
 28 31  1  0  0  0  0
 31 32  1  0  0  0  0
 31 33  1  0  0  0  0
 31 34  1  0  0  0  0
 34 35  1  0  0  0  0
 35 36  1  0  0  0  0
 35 37  2  0  0  0  0
 35 38  1  0  0  0  0
 38 39  1  0  0  0  0
 39 40  2  0  0  0  0
 39 41  1  0  0  0  0
 39 42  1  0  0  0  0
 42 44  1  0  0  0  0
 43 44  1  0  0  0  0
 43 47  1  0  0  0  0
 43 51  1  0  0  0  0
 43 55  1  0  0  0  0
 44 45  1  0  0  0  0
 44 46  1  0  0  0  0
 47 48  1  0  0  0  0
 47 49  1  0  0  0  0
 47 50  1  0  0  0  0
 51 52  1  0  0  0  0
 51 53  1  0  0  0  0
 51 54  1  0  0  0  0
 55 56  1  0  0  0  0
 55 57  1  0  0  0  0
 55 59  1  0  0  0  0
 57 58  1  0  0  0  0
 59 60  2  0  0  0  0
 59 61  1  0  0  0  0
 61 62  1  0  0  0  0
 61 63  1  0  0  0  0
 63 64  1  0  0  0  0
 63 65  1  0  0  0  0
 63 66  1  0  0  0  0
 66 67  1  0  0  0  0
 66 68  1  0  0  0  0
 66 69  1  0  0  0  0
 69 70  2  0  0  0  0
 69 71  1  0  0  0  0
 71 72  1  0  0  0  0
 71 73  1  0  0  0  0
 73 74  1  0  0  0  0
 73 75  1  0  0  0  0
 73 76  1  0  0  0  0
 76 77  1  0  0  0  0
 76 78  1  0  0  0  0
 76 79  1  0  0  0  0
 79 80  1  0  0  0  0
 80 81  2  0  0  0  0
 80 82  1  0  0  0  0
 82 83  1  0  0  0  0
 82 84  1  0  0  0  0
 82 85  1  0  0  0  0
M  BCL ATM N_Tr2TrTrPi C_TrTrTrPi H_S N_Tr2TrTrPi C_TrTrTrPi C_TrTrTrPi C_TrTrTrPi N_TrTrTrPi2 H_S H_S N_Tr2TrTrPi C_TrTrTrPi H_S N_TrTrTrPi2 C_TeTeTeTe H_S C_TeTeTeTe H_S O_Te2Te2TeTe H_S C_TeTeTeTe H_S O_Tr2TrTrPi2 P_TeTeTeTePi O_Te2Te2TeTe O_Tr2Tr2TrPi O_Te2Te2Te2Te C_TeTeTeTe H_S O_Te2Te2TeTe C_TeTeTeTe H_S H_S O_Tr2TrTrPi2 P_TeTeTeTePi O_Te2Te2TeTe O_Tr2Tr2TrPi O_Tr2TrTrPi2 P_TeTeTeTePi O_Tr2Tr2TrPi O_Te2Te2Te2Te O_Tr2TrTrPi2 C_TeTeTeTe C_TeTeTeTe H_S H_S C_TeTeTeTe H_S H_S H_S C_TeTeTeTe H_S H_S H_S C_TeTeTeTe H_S O_Te2Te2TeTe H_S C_TrTrTrPi O_Tr2Tr2TrPi N_TrTrTrPi2 H_S C_TeTeTeTe H_S H_S C_TeTeTeTe H_S H_S C_TrTrTrPi O_Tr2Tr2TrPi N_TrTrTrPi2 H_S C_TeTeTeTe H_S H_S C_TeTeTeTe H_S H_S S_Te2Te2TeTe C_TrTrTrPi O_Tr2Tr2TrPi C_TeTeTeTe H_S H_S H_S
M  BCL BND AromaticSingleBond AromaticDoubleBond NonConjugatedSingleBond AromaticDoubleBond AromaticSingleBond AromaticDoubleBond AromaticSingleBond AromaticSingleBond AromaticSingleBond ConjugatedSingleBond NonConjugatedSingleBond NonConjugatedSingleBond AromaticDoubleBond NonConjugatedSingleBond AromaticSingleBond NonConjugatedSingleBond NonConjugatedSingleBond NonConjugatedSingleBondInRing NonConjugatedSingleBondInRing NonConjugatedSingleBond NonConjugatedSingleBond NonConjugatedSingleBondInRing NonConjugatedSingleBond NonConjugatedSingleBond NonConjugatedSingleBond NonConjugatedSingleBondInRing ConjugatedSingleBond ConjugatedSingleBond ConjugatedDoubleBond ConjugatedSingleBond NonConjugatedSingleBond NonConjugatedSingleBondInRing NonConjugatedSingleBond NonConjugatedSingleBond NonConjugatedSingleBond NonConjugatedSingleBond ConjugatedSingleBond ConjugatedSingleBond ConjugatedDoubleBond ConjugatedSingleBond ConjugatedSingleBond ConjugatedDoubleBond ConjugatedSingleBond ConjugatedSingleBond NonConjugatedSingleBond NonConjugatedSingleBond NonConjugatedSingleBond NonConjugatedSingleBond NonConjugatedSingleBond NonConjugatedSingleBond NonConjugatedSingleBond NonConjugatedSingleBond NonConjugatedSingleBond NonConjugatedSingleBond NonConjugatedSingleBond NonConjugatedSingleBond NonConjugatedSingleBond NonConjugatedSingleBond NonConjugatedSingleBond NonConjugatedSingleBond NonConjugatedSingleBond ConjugatedDoubleBond AmideSingleBond NonConjugatedSingleBond NonConjugatedSingleBond NonConjugatedSingleBond NonConjugatedSingleBond NonConjugatedSingleBond NonConjugatedSingleBond NonConjugatedSingleBond NonConjugatedSingleBond ConjugatedDoubleBond AmideSingleBond NonConjugatedSingleBond NonConjugatedSingleBond NonConjugatedSingleBond NonConjugatedSingleBond NonConjugatedSingleBond NonConjugatedSingleBond NonConjugatedSingleBond NonConjugatedSingleBond ConjugatedSingleBond ConjugatedDoubleBond NonConjugatedSingleBond NonConjugatedSingleBond NonConjugatedSingleBond NonConjugatedSingleBond
M  BCL CHI  15   S  17   S  21   S  24   S  28   R  35   R  39   R  55   S
M  BCL DBI - - - - - - - - - -
M  END
> <ConfClashScore>
0 

> <ConfOneFourInteractionScore>
-0.98226 

> <ConfScore>
0.0724588 

> <ConfScorePBest>
0.00675547 

> <ConfTolerance>
2.87438 

$$$$
ACO.****
  PyMOL2.5          3D                             0

 85 87  0  0  0  0  0  0  0  0999 V2000
    4.8824    1.0590  -10.6312 N   0  0  0  1  0  0  0  0  0  0  0  0
    3.8350    1.8922  -10.5273 C   0  0  0  1  0  0  0  0  0  0  0  0
    3.8066    2.6674  -11.2200 H   0  0  0  1  0  0  0  0  0  0  0  0
    2.8307    1.8602   -9.6600 N   0  0  0  1  0  0  0  0  0  0  0  0
    2.9486    0.8324   -8.8182 C   0  0  0  1  0  0  0  0  0  0  0  0
    3.9782   -0.1179   -8.7958 C   0  0  0  1  0  0  0  0  0  0  0  0
    4.9681    0.0479   -9.7599 C   0  0  0  1  0  0  0  0  0  0  0  0
    6.0928   -0.7666   -9.9215 N   0  0  0  1  0  0  0  0  0  0  0  0
    6.6904   -0.6306  -10.6862 H   0  0  0  1  0  0  0  0  0  0  0  0
    6.2835   -1.4735   -9.2701 H   0  0  0  1  0  0  0  0  0  0  0  0
    3.7696   -1.0282   -7.7714 N   0  0  0  1  0  0  0  0  0  0  0  0
    2.6569   -0.6217   -7.2232 C   0  0  0  1  0  0  0  0  0  0  0  0
    2.2213   -1.1093   -6.4144 H   0  0  0  1  0  0  0  0  0  0  0  0
    2.1097    0.4884   -7.7897 N   0  0  0  1  0  0  0  0  0  0  0  0
    0.8792    1.1745   -7.3851 C   0  0  0  1  0  0  0  0  0  0  0  0
    1.0459    2.2314   -7.3763 H   0  0  0  1  0  0  0  0  0  0  0  0
   -0.2948    0.8072   -8.3273 C   0  0  0  1  0  0  0  0  0  0  0  0
   -0.2486   -0.2201   -8.6231 H   0  0  0  1  0  0  0  0  0  0  0  0
   -0.3064    1.6381   -9.4898 O   0  0  0  1  0  0  0  0  0  0  0  0
   -0.7398    2.4699   -9.2849 H   0  0  0  1  0  0  0  0  0  0  0  0
   -1.5295    1.0794   -7.4281 C   0  0  0  1  0  0  0  0  0  0  0  0
   -2.2761    0.3260   -7.5694 H   0  0  0  1  0  0  0  0  0  0  0  0
   -2.0963    2.3811   -7.7131 O   0  0  0  1  0  0  0  0  0  0  0  0
   -3.1192    2.5943   -8.9771 P   0  0  0  1  0  0  0  0  0  0  0  0
   -2.8334    1.3627  -10.0216 O   0  0  0  0  0  0  0  0  0  0  0  0
   -4.5614    2.6479   -8.6491 O   0  0  0  1  0  0  0  0  0  0  0  0
   -2.5495    3.8293   -9.8573 O   0  5  0  1  0  0  0  0  0  0  0  0
   -0.9660    1.0296   -5.9945 C   0  0  0  1  0  0  0  0  0  0  0  0
   -1.0926    1.9796   -5.5187 H   0  0  0  1  0  0  0  0  0  0  0  0
    0.4320    0.7122   -6.0930 O   0  0  0  1  0  0  0  0  0  0  0  0
   -1.6734   -0.0218   -5.2044 C   0  0  0  1  0  0  0  0  0  0  0  0
   -1.5190   -0.9807   -5.6534 H   0  0  0  1  0  0  0  0  0  0  0  0
   -2.7213    0.1917   -5.1698 H   0  0  0  1  0  0  0  0  0  0  0  0
   -1.1236   -0.0101   -3.8660 O   0  0  0  1  0  0  0  0  0  0  0  0
   -1.8679    0.6241   -2.6375 P   0  0  0  1  0  0  0  0  0  0  0  0
   -0.9741    0.6602   -1.4233 O   0  0  0  0  0  0  0  0  0  0  0  0
   -3.1079   -0.1512   -2.5192 O   0  0  0  1  0  0  0  0  0  0  0  0
   -2.2566    2.0674   -3.2265 O   0  0  0  1  0  0  0  0  0  0  0  0
   -1.4429    3.4895   -3.2995 P   0  0  0  1  0  0  0  0  0  0  0  0
   -1.6342    4.3458   -2.1076 O   0  0  0  1  0  0  0  0  0  0  0  0
    0.0625    3.0681   -3.7243 O   0  5  0  1  0  0  0  0  0  0  0  0
   -2.1954    4.1513   -4.5127 O   0  0  0  1  0  0  0  0  0  0  0  0
   -3.2017    6.2722   -4.8664 C   0  0  0  1  0  0  0  0  0  0  0  0
   -1.9148    5.5157   -4.9046 C   0  0  0  1  0  0  0  0  0  0  0  0
   -1.5103    5.5345   -5.8950 H   0  0  0  1  0  0  0  0  0  0  0  0
   -1.2144    5.9535   -4.2244 H   0  0  0  1  0  0  0  0  0  0  0  0
   -3.6798    6.4920   -3.4146 C   0  0  0  1  0  0  0  0  0  0  0  0
   -2.9131    6.9886   -2.8574 H   0  0  0  1  0  0  0  0  0  0  0  0
   -3.8930    5.5459   -2.9625 H   0  0  0  1  0  0  0  0  0  0  0  0
   -4.5646    7.0937   -3.4180 H   0  0  0  1  0  0  0  0  0  0  0  0
   -4.2374    5.5523   -5.7262 C   0  0  0  1  0  0  0  0  0  0  0  0
   -4.2946    4.5252   -5.4315 H   0  0  0  1  0  0  0  0  0  0  0  0
   -3.9502    5.6124   -6.7552 H   0  0  0  1  0  0  0  0  0  0  0  0
   -5.1934    6.0146   -5.5946 H   0  0  0  1  0  0  0  0  0  0  0  0
   -2.9452    7.6588   -5.4669 C   0  0  0  1  0  0  0  0  0  0  0  0
   -3.8851    8.1257   -5.6753 H   0  0  0  1  0  0  0  0  0  0  0  0
   -2.2230    8.4050   -4.5021 O   0  0  0  1  0  0  0  0  0  0  0  0
   -2.6822    9.2293   -4.3250 H   0  0  0  1  0  0  0  0  0  0  0  0
   -2.1715    7.5007   -6.7607 C   0  0  0  1  0  0  0  0  0  0  0  0
   -2.5728    6.7611   -7.6583 O   0  0  0  1  0  0  0  0  0  0  0  0
   -1.0450    8.2090   -6.8526 N   0  0  0  1  0  0  0  0  0  0  0  0
   -0.7769    8.7714   -6.0961 H   0  0  0  1  0  0  0  0  0  0  0  0
   -0.2002    8.1758   -8.0371 C   0  0  0  1  0  0  0  0  0  0  0  0
   -0.2955    9.1087   -8.5524 H   0  0  0  1  0  0  0  0  0  0  0  0
   -0.5316    7.3813   -8.6724 H   0  0  0  1  0  0  0  0  0  0  0  0
    1.2684    7.9517   -7.7011 C   0  0  0  1  0  0  0  0  0  0  0  0
    1.6052    8.7621   -7.0889 H   0  0  0  1  0  0  0  0  0  0  0  0
    1.8279    7.9364   -8.6130 H   0  0  0  1  0  0  0  0  0  0  0  0
    1.5196    6.6368   -6.9520 C   0  0  0  1  0  0  0  0  0  0  0  0
    0.8592    5.6369   -7.2306 O   0  0  0  1  0  0  0  0  0  0  0  0
    2.5257    6.6274   -6.0730 N   0  0  0  1  0  0  0  0  0  0  0  0
    2.9516    7.4766   -5.8326 H   0  0  0  1  0  0  0  0  0  0  0  0
    3.0110    5.3999   -5.4602 C   0  0  0  1  0  0  0  0  0  0  0  0
    4.0608    5.4992   -5.2785 H   0  0  0  1  0  0  0  0  0  0  0  0
    2.8407    4.5884   -6.1365 H   0  0  0  1  0  0  0  0  0  0  0  0
    2.3200    5.0928   -4.1514 C   0  0  0  1  0  0  0  0  0  0  0  0
    1.2622    5.1305   -4.3084 H   0  0  0  1  0  0  0  0  0  0  0  0
    2.6015    5.8366   -3.4356 H   0  0  0  1  0  0  0  0  0  0  0  0
    2.7445    3.4654   -3.4864 S   0  0  0  1  0  0  0  0  0  0  0  0
    2.1544    3.5032   -1.8298 C   0  0  0  1  0  0  0  0  0  0  0  0
    1.5822    4.4343   -1.3197 O   0  0  0  1  0  0  0  0  0  0  0  0
    2.4374    2.2141   -1.0668 C   0  0  0  1  0  0  0  0  0  0  0  0
    1.5803    1.5753   -1.1143 H   0  0  0  1  0  0  0  0  0  0  0  0
    2.6536    2.4450   -0.0446 H   0  0  0  1  0  0  0  0  0  0  0  0
    3.2771    1.7171   -1.5059 H   0  0  0  1  0  0  0  0  0  0  0  0
  1  2  1  0  0  0  0
  1  7  2  0  0  0  0
  2  3  1  0  0  0  0
  2  4  2  0  0  0  0
  4  5  1  0  0  0  0
  5  6  2  0  0  0  0
  5 14  1  0  0  0  0
  6  7  1  0  0  0  0
  6 11  1  0  0  0  0
  7  8  1  0  0  0  0
  8  9  1  0  0  0  0
  8 10  1  0  0  0  0
 11 12  2  0  0  0  0
 12 13  1  0  0  0  0
 12 14  1  0  0  0  0
 14 15  1  0  0  0  0
 15 16  1  0  0  0  0
 15 17  1  0  0  0  0
 15 30  1  0  0  0  0
 17 18  1  0  0  0  0
 17 19  1  0  0  0  0
 17 21  1  0  0  0  0
 19 20  1  0  0  0  0
 21 22  1  0  0  0  0
 21 23  1  0  0  0  0
 21 28  1  0  0  0  0
 23 24  1  0  0  0  0
 24 25  1  0  0  0  0
 24 26  2  0  0  0  0
 24 27  1  0  0  0  0
 28 29  1  0  0  0  0
 28 30  1  0  0  0  0
 28 31  1  0  0  0  0
 31 32  1  0  0  0  0
 31 33  1  0  0  0  0
 31 34  1  0  0  0  0
 34 35  1  0  0  0  0
 35 36  1  0  0  0  0
 35 37  2  0  0  0  0
 35 38  1  0  0  0  0
 38 39  1  0  0  0  0
 39 40  2  0  0  0  0
 39 41  1  0  0  0  0
 39 42  1  0  0  0  0
 42 44  1  0  0  0  0
 43 44  1  0  0  0  0
 43 47  1  0  0  0  0
 43 51  1  0  0  0  0
 43 55  1  0  0  0  0
 44 45  1  0  0  0  0
 44 46  1  0  0  0  0
 47 48  1  0  0  0  0
 47 49  1  0  0  0  0
 47 50  1  0  0  0  0
 51 52  1  0  0  0  0
 51 53  1  0  0  0  0
 51 54  1  0  0  0  0
 55 56  1  0  0  0  0
 55 57  1  0  0  0  0
 55 59  1  0  0  0  0
 57 58  1  0  0  0  0
 59 60  2  0  0  0  0
 59 61  1  0  0  0  0
 61 62  1  0  0  0  0
 61 63  1  0  0  0  0
 63 64  1  0  0  0  0
 63 65  1  0  0  0  0
 63 66  1  0  0  0  0
 66 67  1  0  0  0  0
 66 68  1  0  0  0  0
 66 69  1  0  0  0  0
 69 70  2  0  0  0  0
 69 71  1  0  0  0  0
 71 72  1  0  0  0  0
 71 73  1  0  0  0  0
 73 74  1  0  0  0  0
 73 75  1  0  0  0  0
 73 76  1  0  0  0  0
 76 77  1  0  0  0  0
 76 78  1  0  0  0  0
 76 79  1  0  0  0  0
 79 80  1  0  0  0  0
 80 81  2  0  0  0  0
 80 82  1  0  0  0  0
 82 83  1  0  0  0  0
 82 84  1  0  0  0  0
 82 85  1  0  0  0  0
M  BCL ATM N_Tr2TrTrPi C_TrTrTrPi H_S N_Tr2TrTrPi C_TrTrTrPi C_TrTrTrPi C_TrTrTrPi N_TrTrTrPi2 H_S H_S N_Tr2TrTrPi C_TrTrTrPi H_S N_TrTrTrPi2 C_TeTeTeTe H_S C_TeTeTeTe H_S O_Te2Te2TeTe H_S C_TeTeTeTe H_S O_Tr2TrTrPi2 P_TeTeTeTePi O_Te2Te2TeTe O_Tr2Tr2TrPi O_Te2Te2Te2Te C_TeTeTeTe H_S O_Te2Te2TeTe C_TeTeTeTe H_S H_S O_Tr2TrTrPi2 P_TeTeTeTePi O_Te2Te2TeTe O_Tr2Tr2TrPi O_Tr2TrTrPi2 P_TeTeTeTePi O_Tr2Tr2TrPi O_Te2Te2Te2Te O_Tr2TrTrPi2 C_TeTeTeTe C_TeTeTeTe H_S H_S C_TeTeTeTe H_S H_S H_S C_TeTeTeTe H_S H_S H_S C_TeTeTeTe H_S O_Te2Te2TeTe H_S C_TrTrTrPi O_Tr2Tr2TrPi N_TrTrTrPi2 H_S C_TeTeTeTe H_S H_S C_TeTeTeTe H_S H_S C_TrTrTrPi O_Tr2Tr2TrPi N_TrTrTrPi2 H_S C_TeTeTeTe H_S H_S C_TeTeTeTe H_S H_S S_Te2Te2TeTe C_TrTrTrPi O_Tr2Tr2TrPi C_TeTeTeTe H_S H_S H_S
M  BCL BND AromaticSingleBond AromaticDoubleBond NonConjugatedSingleBond AromaticDoubleBond AromaticSingleBond AromaticDoubleBond AromaticSingleBond AromaticSingleBond AromaticSingleBond ConjugatedSingleBond NonConjugatedSingleBond NonConjugatedSingleBond AromaticDoubleBond NonConjugatedSingleBond AromaticSingleBond NonConjugatedSingleBond NonConjugatedSingleBond NonConjugatedSingleBondInRing NonConjugatedSingleBondInRing NonConjugatedSingleBond NonConjugatedSingleBond NonConjugatedSingleBondInRing NonConjugatedSingleBond NonConjugatedSingleBond NonConjugatedSingleBond NonConjugatedSingleBondInRing ConjugatedSingleBond ConjugatedSingleBond ConjugatedDoubleBond ConjugatedSingleBond NonConjugatedSingleBond NonConjugatedSingleBondInRing NonConjugatedSingleBond NonConjugatedSingleBond NonConjugatedSingleBond NonConjugatedSingleBond ConjugatedSingleBond ConjugatedSingleBond ConjugatedDoubleBond ConjugatedSingleBond ConjugatedSingleBond ConjugatedDoubleBond ConjugatedSingleBond ConjugatedSingleBond NonConjugatedSingleBond NonConjugatedSingleBond NonConjugatedSingleBond NonConjugatedSingleBond NonConjugatedSingleBond NonConjugatedSingleBond NonConjugatedSingleBond NonConjugatedSingleBond NonConjugatedSingleBond NonConjugatedSingleBond NonConjugatedSingleBond NonConjugatedSingleBond NonConjugatedSingleBond NonConjugatedSingleBond NonConjugatedSingleBond NonConjugatedSingleBond NonConjugatedSingleBond ConjugatedDoubleBond AmideSingleBond NonConjugatedSingleBond NonConjugatedSingleBond NonConjugatedSingleBond NonConjugatedSingleBond NonConjugatedSingleBond NonConjugatedSingleBond NonConjugatedSingleBond NonConjugatedSingleBond ConjugatedDoubleBond AmideSingleBond NonConjugatedSingleBond NonConjugatedSingleBond NonConjugatedSingleBond NonConjugatedSingleBond NonConjugatedSingleBond NonConjugatedSingleBond NonConjugatedSingleBond NonConjugatedSingleBond ConjugatedSingleBond ConjugatedDoubleBond NonConjugatedSingleBond NonConjugatedSingleBond NonConjugatedSingleBond NonConjugatedSingleBond
M  BCL CHI  15   S  17   S  21   S  24   S  28   R  35   R  39   R  55   S
M  BCL DBI - - - - - - - - - -
M  END
> <ConfClashScore>
0.000261306 

> <ConfOneFourInteractionScore>
-0.98397 

> <ConfScore>
0.0738831 

> <ConfScorePBest>
0.00665247 

> <ConfTolerance>
3.38066 

$$$$
ACO.****
  PyMOL2.5          3D                             0

 85 87  0  0  0  0  0  0  0  0999 V2000
    4.8754    1.1068  -10.6657 N   0  0  0  1  0  0  0  0  0  0  0  0
    3.8203    1.9277  -10.5434 C   0  0  0  1  0  0  0  0  0  0  0  0
    3.7771    2.7096  -11.2277 H   0  0  0  1  0  0  0  0  0  0  0  0
    2.8247    1.8762   -9.6669 N   0  0  0  1  0  0  0  0  0  0  0  0
    2.9615    0.8412   -8.8368 C   0  0  0  1  0  0  0  0  0  0  0  0
    4.0014   -0.0982   -8.8340 C   0  0  0  1  0  0  0  0  0  0  0  0
    4.9802    0.0879   -9.8057 C   0  0  0  1  0  0  0  0  0  0  0  0
    6.0396   -0.7943   -9.8517 N   0  0  0  1  0  0  0  0  0  0  0  0
    6.7073   -0.7215  -10.5653 H   0  0  0  1  0  0  0  0  0  0  0  0
    6.1246   -1.4939   -9.1706 H   0  0  0  1  0  0  0  0  0  0  0  0
    3.8122   -1.0211   -7.8170 N   0  0  0  1  0  0  0  0  0  0  0  0
    2.7006   -0.6320   -7.2541 C   0  0  0  1  0  0  0  0  0  0  0  0
    2.2780   -1.1324   -6.4463 H   0  0  0  1  0  0  0  0  0  0  0  0
    2.1363    0.4778   -7.8041 N   0  0  0  1  0  0  0  0  0  0  0  0
    0.9139    1.1404   -7.3848 C   0  0  0  1  0  0  0  0  0  0  0  0
    0.2253    1.1708   -8.2032 H   0  0  0  1  0  0  0  0  0  0  0  0
    0.2902    0.4041   -6.1886 C   0  0  0  1  0  0  0  0  0  0  0  0
    1.0450   -0.0211   -5.5607 H   0  0  0  1  0  0  0  0  0  0  0  0
   -0.6022   -0.6229   -6.6238 O   0  0  0  1  0  0  0  0  0  0  0  0
   -0.4812   -1.4044   -6.0796 H   0  0  0  1  0  0  0  0  0  0  0  0
   -0.4590    1.5129   -5.4708 C   0  0  0  1  0  0  0  0  0  0  0  0
   -0.5058    1.3274   -4.4180 H   0  0  0  1  0  0  0  0  0  0  0  0
   -1.8028    1.6608   -5.9967 O   0  0  0  1  0  0  0  0  0  0  0  0
   -2.8404    2.7574   -5.3561 P   0  0  0  1  0  0  0  0  0  0  0  0
   -2.0406    4.1891   -5.3619 O   0  0  0  0  0  0  0  0  0  0  0  0
   -3.9831    2.7842   -6.2962 O   0  0  0  1  0  0  0  0  0  0  0  0
   -3.1486    2.3205   -3.8268 O   0  5  0  1  0  0  0  0  0  0  0  0
    0.4012    2.7633   -5.7790 C   0  0  0  1  0  0  0  0  0  0  0  0
   -0.2280    3.6034   -5.9873 H   0  0  0  1  0  0  0  0  0  0  0  0
    1.1922    2.4351   -6.9351 O   0  0  0  1  0  0  0  0  0  0  0  0
    1.2874    3.0796   -4.6194 C   0  0  0  1  0  0  0  0  0  0  0  0
    2.0376    2.3235   -4.5173 H   0  0  0  1  0  0  0  0  0  0  0  0
    0.7079    3.1313   -3.7214 H   0  0  0  1  0  0  0  0  0  0  0  0
    1.9101    4.3600   -4.8786 O   0  0  0  1  0  0  0  0  0  0  0  0
    3.5197    4.4216   -5.0363 P   0  0  0  1  0  0  0  0  0  0  0  0
    3.9509    5.8545   -5.0161 O   0  0  0  0  0  0  0  0  0  0  0  0
    3.8199    3.5628   -6.2064 O   0  0  0  1  0  0  0  0  0  0  0  0
    4.0885    3.8151   -3.6486 O   0  0  0  1  0  0  0  0  0  0  0  0
    4.5732    4.7762   -2.4112 P   0  0  0  1  0  0  0  0  0  0  0  0
    5.8655    5.4327   -2.7101 O   0  0  0  1  0  0  0  0  0  0  0  0
    3.3664    5.8429   -2.2374 O   0  5  0  1  0  0  0  0  0  0  0  0
    4.5458    3.8791   -1.1228 O   0  0  0  1  0  0  0  0  0  0  0  0
    5.3252    4.9132    0.8983 C   0  0  0  1  0  0  0  0  0  0  0  0
    5.5974    3.8894   -0.1289 C   0  0  0  1  0  0  0  0  0  0  0  0
    6.5303    4.1075   -0.6052 H   0  0  0  1  0  0  0  0  0  0  0  0
    5.6507    2.9278    0.3376 H   0  0  0  1  0  0  0  0  0  0  0  0
    5.4413    6.3478    0.3389 C   0  0  0  1  0  0  0  0  0  0  0  0
    4.7910    6.9982    0.8858 H   0  0  0  1  0  0  0  0  0  0  0  0
    5.1623    6.3512   -0.6941 H   0  0  0  1  0  0  0  0  0  0  0  0
    6.4509    6.6882    0.4373 H   0  0  0  1  0  0  0  0  0  0  0  0
    6.3125    4.7373    2.0523 C   0  0  0  1  0  0  0  0  0  0  0  0
    6.9926    3.9438    1.8226 H   0  0  0  1  0  0  0  0  0  0  0  0
    5.7761    4.4992    2.9470 H   0  0  0  1  0  0  0  0  0  0  0  0
    6.8596    5.6457    2.1948 H   0  0  0  1  0  0  0  0  0  0  0  0
    3.9100    4.7033    1.4486 C   0  0  0  1  0  0  0  0  0  0  0  0
    3.7592    5.3610    2.2790 H   0  0  0  1  0  0  0  0  0  0  0  0
    3.0044    5.0091    0.4011 O   0  0  0  1  0  0  0  0  0  0  0  0
    2.5463    5.8283    0.6025 H   0  0  0  1  0  0  0  0  0  0  0  0
    3.7713    3.2640    1.9225 C   0  0  0  1  0  0  0  0  0  0  0  0
    4.2529    2.8950    2.9929 O   0  0  0  1  0  0  0  0  0  0  0  0
    3.0977    2.4422    1.1022 N   0  0  0  1  0  0  0  0  0  0  0  0
    2.6434    2.8039    0.3128 H   0  0  0  1  0  0  0  0  0  0  0  0
    3.0402    1.0058    1.3845 C   0  0  0  1  0  0  0  0  0  0  0  0
    2.4093    0.8375    2.2321 H   0  0  0  1  0  0  0  0  0  0  0  0
    4.0261    0.6479    1.5964 H   0  0  0  1  0  0  0  0  0  0  0  0
    2.4791    0.2530    0.1818 C   0  0  0  1  0  0  0  0  0  0  0  0
    3.0722    0.4769   -0.6801 H   0  0  0  1  0  0  0  0  0  0  0  0
    1.4699    0.5656    0.0120 H   0  0  0  1  0  0  0  0  0  0  0  0
    2.5016   -1.2434    0.4258 C   0  0  0  1  0  0  0  0  0  0  0  0
    2.9930   -1.7078    1.4536 O   0  0  0  1  0  0  0  0  0  0  0  0
    1.9705   -2.0434   -0.5113 N   0  0  0  1  0  0  0  0  0  0  0  0
    1.5133   -1.6532   -1.2854 H   0  0  0  1  0  0  0  0  0  0  0  0
    2.0717   -3.4880   -0.3808 C   0  0  0  1  0  0  0  0  0  0  0  0
    1.4242   -3.8072    0.4089 H   0  0  0  1  0  0  0  0  0  0  0  0
    3.0828   -3.7403   -0.1376 H   0  0  0  1  0  0  0  0  0  0  0  0
    1.6810   -4.2174   -1.6558 C   0  0  0  1  0  0  0  0  0  0  0  0
    2.3721   -3.9480   -2.4270 H   0  0  0  1  0  0  0  0  0  0  0  0
    0.6954   -3.9088   -1.9356 H   0  0  0  1  0  0  0  0  0  0  0  0
    1.6908   -6.0173   -1.4785 S   0  0  0  1  0  0  0  0  0  0  0  0
    3.4388   -6.2667   -1.6855 C   0  0  0  1  0  0  0  0  0  0  0  0
    4.2274   -5.3681   -1.8046 O   0  0  0  1  0  0  0  0  0  0  0  0
    3.8117   -7.7310   -1.6938 C   0  0  0  1  0  0  0  0  0  0  0  0
    4.5914   -7.8970   -2.4076 H   0  0  0  1  0  0  0  0  0  0  0  0
    2.9555   -8.3154   -1.9589 H   0  0  0  1  0  0  0  0  0  0  0  0
    4.1524   -8.0176   -0.7208 H   0  0  0  1  0  0  0  0  0  0  0  0
  1  2  1  0  0  0  0
  1  7  2  0  0  0  0
  2  3  1  0  0  0  0
  2  4  2  0  0  0  0
  4  5  1  0  0  0  0
  5  6  2  0  0  0  0
  5 14  1  0  0  0  0
  6  7  1  0  0  0  0
  6 11  1  0  0  0  0
  7  8  1  0  0  0  0
  8  9  1  0  0  0  0
  8 10  1  0  0  0  0
 11 12  2  0  0  0  0
 12 13  1  0  0  0  0
 12 14  1  0  0  0  0
 14 15  1  0  0  0  0
 15 16  1  0  0  0  0
 15 17  1  0  0  0  0
 15 30  1  0  0  0  0
 17 18  1  0  0  0  0
 17 19  1  0  0  0  0
 17 21  1  0  0  0  0
 19 20  1  0  0  0  0
 21 22  1  0  0  0  0
 21 23  1  0  0  0  0
 21 28  1  0  0  0  0
 23 24  1  0  0  0  0
 24 25  1  0  0  0  0
 24 26  2  0  0  0  0
 24 27  1  0  0  0  0
 28 29  1  0  0  0  0
 28 30  1  0  0  0  0
 28 31  1  0  0  0  0
 31 32  1  0  0  0  0
 31 33  1  0  0  0  0
 31 34  1  0  0  0  0
 34 35  1  0  0  0  0
 35 36  1  0  0  0  0
 35 37  2  0  0  0  0
 35 38  1  0  0  0  0
 38 39  1  0  0  0  0
 39 40  2  0  0  0  0
 39 41  1  0  0  0  0
 39 42  1  0  0  0  0
 42 44  1  0  0  0  0
 43 44  1  0  0  0  0
 43 47  1  0  0  0  0
 43 51  1  0  0  0  0
 43 55  1  0  0  0  0
 44 45  1  0  0  0  0
 44 46  1  0  0  0  0
 47 48  1  0  0  0  0
 47 49  1  0  0  0  0
 47 50  1  0  0  0  0
 51 52  1  0  0  0  0
 51 53  1  0  0  0  0
 51 54  1  0  0  0  0
 55 56  1  0  0  0  0
 55 57  1  0  0  0  0
 55 59  1  0  0  0  0
 57 58  1  0  0  0  0
 59 60  2  0  0  0  0
 59 61  1  0  0  0  0
 61 62  1  0  0  0  0
 61 63  1  0  0  0  0
 63 64  1  0  0  0  0
 63 65  1  0  0  0  0
 63 66  1  0  0  0  0
 66 67  1  0  0  0  0
 66 68  1  0  0  0  0
 66 69  1  0  0  0  0
 69 70  2  0  0  0  0
 69 71  1  0  0  0  0
 71 72  1  0  0  0  0
 71 73  1  0  0  0  0
 73 74  1  0  0  0  0
 73 75  1  0  0  0  0
 73 76  1  0  0  0  0
 76 77  1  0  0  0  0
 76 78  1  0  0  0  0
 76 79  1  0  0  0  0
 79 80  1  0  0  0  0
 80 81  2  0  0  0  0
 80 82  1  0  0  0  0
 82 83  1  0  0  0  0
 82 84  1  0  0  0  0
 82 85  1  0  0  0  0
M  BCL ATM N_Tr2TrTrPi C_TrTrTrPi H_S N_Tr2TrTrPi C_TrTrTrPi C_TrTrTrPi C_TrTrTrPi N_TrTrTrPi2 H_S H_S N_Tr2TrTrPi C_TrTrTrPi H_S N_TrTrTrPi2 C_TeTeTeTe H_S C_TeTeTeTe H_S O_Te2Te2TeTe H_S C_TeTeTeTe H_S O_Tr2TrTrPi2 P_TeTeTeTePi O_Te2Te2TeTe O_Tr2Tr2TrPi O_Te2Te2Te2Te C_TeTeTeTe H_S O_Te2Te2TeTe C_TeTeTeTe H_S H_S O_Tr2TrTrPi2 P_TeTeTeTePi O_Te2Te2TeTe O_Tr2Tr2TrPi O_Tr2TrTrPi2 P_TeTeTeTePi O_Tr2Tr2TrPi O_Te2Te2Te2Te O_Tr2TrTrPi2 C_TeTeTeTe C_TeTeTeTe H_S H_S C_TeTeTeTe H_S H_S H_S C_TeTeTeTe H_S H_S H_S C_TeTeTeTe H_S O_Te2Te2TeTe H_S C_TrTrTrPi O_Tr2Tr2TrPi N_TrTrTrPi2 H_S C_TeTeTeTe H_S H_S C_TeTeTeTe H_S H_S C_TrTrTrPi O_Tr2Tr2TrPi N_TrTrTrPi2 H_S C_TeTeTeTe H_S H_S C_TeTeTeTe H_S H_S S_Te2Te2TeTe C_TrTrTrPi O_Tr2Tr2TrPi C_TeTeTeTe H_S H_S H_S
M  BCL BND AromaticSingleBond AromaticDoubleBond NonConjugatedSingleBond AromaticDoubleBond AromaticSingleBond AromaticDoubleBond AromaticSingleBond AromaticSingleBond AromaticSingleBond ConjugatedSingleBond NonConjugatedSingleBond NonConjugatedSingleBond AromaticDoubleBond NonConjugatedSingleBond AromaticSingleBond NonConjugatedSingleBond NonConjugatedSingleBond NonConjugatedSingleBondInRing NonConjugatedSingleBondInRing NonConjugatedSingleBond NonConjugatedSingleBond NonConjugatedSingleBondInRing NonConjugatedSingleBond NonConjugatedSingleBond NonConjugatedSingleBond NonConjugatedSingleBondInRing ConjugatedSingleBond ConjugatedSingleBond ConjugatedDoubleBond ConjugatedSingleBond NonConjugatedSingleBond NonConjugatedSingleBondInRing NonConjugatedSingleBond NonConjugatedSingleBond NonConjugatedSingleBond NonConjugatedSingleBond ConjugatedSingleBond ConjugatedSingleBond ConjugatedDoubleBond ConjugatedSingleBond ConjugatedSingleBond ConjugatedDoubleBond ConjugatedSingleBond ConjugatedSingleBond NonConjugatedSingleBond NonConjugatedSingleBond NonConjugatedSingleBond NonConjugatedSingleBond NonConjugatedSingleBond NonConjugatedSingleBond NonConjugatedSingleBond NonConjugatedSingleBond NonConjugatedSingleBond NonConjugatedSingleBond NonConjugatedSingleBond NonConjugatedSingleBond NonConjugatedSingleBond NonConjugatedSingleBond NonConjugatedSingleBond NonConjugatedSingleBond NonConjugatedSingleBond ConjugatedDoubleBond AmideSingleBond NonConjugatedSingleBond NonConjugatedSingleBond NonConjugatedSingleBond NonConjugatedSingleBond NonConjugatedSingleBond NonConjugatedSingleBond NonConjugatedSingleBond NonConjugatedSingleBond ConjugatedDoubleBond AmideSingleBond NonConjugatedSingleBond NonConjugatedSingleBond NonConjugatedSingleBond NonConjugatedSingleBond NonConjugatedSingleBond NonConjugatedSingleBond NonConjugatedSingleBond NonConjugatedSingleBond ConjugatedSingleBond ConjugatedDoubleBond NonConjugatedSingleBond NonConjugatedSingleBond NonConjugatedSingleBond NonConjugatedSingleBond
M  BCL CHI  15   S  17   S  21   S  24   S  28   R  35   R  39   R  55   S
M  BCL DBI - - - - - - - - - -
M  END
> <ConfClashScore>
0 

> <ConfOneFourInteractionScore>
-0.976232 

> <ConfScore>
0.0741628 

> <ConfScorePBest>
0.00654947 

> <ConfTolerance>
2.65391 

$$$$
ACO.****
  PyMOL2.5          3D                             0

 85 87  0  0  0  0  0  0  0  0999 V2000
    4.8930    1.0599  -10.6243 N   0  0  0  1  0  0  0  0  0  0  0  0
    3.8479    1.8962  -10.5223 C   0  0  0  1  0  0  0  0  0  0  0  0
    3.8251    2.6738  -11.2125 H   0  0  0  1  0  0  0  0  0  0  0  0
    2.8397    1.8646   -9.6595 N   0  0  0  1  0  0  0  0  0  0  0  0
    2.9504    0.8337   -8.8206 C   0  0  0  1  0  0  0  0  0  0  0  0
    3.9769   -0.1200   -8.7968 C   0  0  0  1  0  0  0  0  0  0  0  0
    4.9716    0.0457   -9.7560 C   0  0  0  1  0  0  0  0  0  0  0  0
    6.0885   -0.7676   -9.9144 N   0  0  0  1  0  0  0  0  0  0  0  0
    6.2479   -1.5077   -9.2922 H   0  0  0  1  0  0  0  0  0  0  0  0
    6.7161   -0.6006  -10.6483 H   0  0  0  1  0  0  0  0  0  0  0  0
    3.7608   -1.0330   -7.7763 N   0  0  0  1  0  0  0  0  0  0  0  0
    2.6470   -0.6246   -7.2317 C   0  0  0  1  0  0  0  0  0  0  0  0
    2.2063   -1.1135   -6.4264 H   0  0  0  1  0  0  0  0  0  0  0  0
    2.1059    0.4891   -7.7970 N   0  0  0  1  0  0  0  0  0  0  0  0
    0.8758    1.1779   -7.3956 C   0  0  0  1  0  0  0  0  0  0  0  0
    0.5221    0.7683   -6.4726 H   0  0  0  1  0  0  0  0  0  0  0  0
    1.1318    2.6861   -7.2479 C   0  0  0  1  0  0  0  0  0  0  0  0
    1.8639    3.0242   -7.9511 H   0  0  0  1  0  0  0  0  0  0  0  0
    1.5579    3.0092   -5.9234 O   0  0  0  1  0  0  0  0  0  0  0  0
    1.3761    2.2697   -5.3389 H   0  0  0  1  0  0  0  0  0  0  0  0
   -0.2317    3.2844   -7.5460 C   0  0  0  1  0  0  0  0  0  0  0  0
   -0.1386    4.2564   -7.9837 H   0  0  0  1  0  0  0  0  0  0  0  0
   -1.0412    3.3703   -6.3402 O   0  0  0  1  0  0  0  0  0  0  0  0
   -1.7077    4.7947   -5.8747 P   0  0  0  1  0  0  0  0  0  0  0  0
   -2.7747    4.4234   -4.6859 O   0  0  0  0  0  0  0  0  0  0  0  0
   -0.6573    5.7660   -5.4956 O   0  0  0  1  0  0  0  0  0  0  0  0
   -2.4755    5.3972   -7.1677 O   0  5  0  1  0  0  0  0  0  0  0  0
   -0.8365    2.2750   -8.5529 C   0  0  0  1  0  0  0  0  0  0  0  0
   -1.8727    2.1149   -8.3395 H   0  0  0  1  0  0  0  0  0  0  0  0
   -0.0995    1.0503   -8.3898 O   0  0  0  1  0  0  0  0  0  0  0  0
   -0.6881    2.7854   -9.9485 C   0  0  0  1  0  0  0  0  0  0  0  0
    0.2129    2.4044  -10.3819 H   0  0  0  1  0  0  0  0  0  0  0  0
   -0.6579    3.8550   -9.9440 H   0  0  0  1  0  0  0  0  0  0  0  0
   -1.8344    2.3269  -10.7092 O   0  0  0  1  0  0  0  0  0  0  0  0
   -1.9853    2.6850  -12.2607 P   0  0  0  1  0  0  0  0  0  0  0  0
   -0.9187    1.9462  -12.9599 O   0  0  0  0  0  0  0  0  0  0  0  0
   -2.1750    4.1354  -12.4476 O   0  0  0  1  0  0  0  0  0  0  0  0
   -3.4179    2.0535  -12.6214 O   0  0  0  1  0  0  0  0  0  0  0  0
   -3.8630    0.6088  -13.2575 P   0  0  0  1  0  0  0  0  0  0  0  0
   -4.1420    0.7417  -14.7049 O   0  0  0  1  0  0  0  0  0  0  0  0
   -2.6199   -0.4115  -13.0627 O   0  5  0  1  0  0  0  0  0  0  0  0
   -5.0659    0.0359  -12.4342 O   0  0  0  1  0  0  0  0  0  0  0  0
   -6.3872    0.9100  -10.7364 C   0  0  0  1  0  0  0  0  0  0  0  0
   -6.3377    0.7104  -12.2231 C   0  0  0  1  0  0  0  0  0  0  0  0
   -7.1528    0.1014  -12.5542 H   0  0  0  1  0  0  0  0  0  0  0  0
   -6.3621    1.6492  -12.7357 H   0  0  0  1  0  0  0  0  0  0  0  0
   -6.4863   -0.4496  -10.0391 C   0  0  0  1  0  0  0  0  0  0  0  0
   -6.5310   -0.3053   -8.9798 H   0  0  0  1  0  0  0  0  0  0  0  0
   -5.6269   -1.0386  -10.2826 H   0  0  0  1  0  0  0  0  0  0  0  0
   -7.3704   -0.9550  -10.3675 H   0  0  0  1  0  0  0  0  0  0  0  0
   -7.5721    1.8141  -10.3886 C   0  0  0  1  0  0  0  0  0  0  0  0
   -7.3000    2.4663   -9.5852 H   0  0  0  1  0  0  0  0  0  0  0  0
   -8.4052    1.2116  -10.0921 H   0  0  0  1  0  0  0  0  0  0  0  0
   -7.8396    2.3965  -11.2455 H   0  0  0  1  0  0  0  0  0  0  0  0
   -5.0887    1.6057  -10.3124 C   0  0  0  1  0  0  0  0  0  0  0  0
   -4.2832    0.9389  -10.5396 H   0  0  0  1  0  0  0  0  0  0  0  0
   -4.8797    2.8269  -11.0179 O   0  0  0  1  0  0  0  0  0  0  0  0
   -5.5543    2.9261  -11.6936 H   0  0  0  1  0  0  0  0  0  0  0  0
   -5.0404    1.8848   -8.8228 C   0  0  0  1  0  0  0  0  0  0  0  0
   -5.0964    0.9660   -8.0065 O   0  0  0  1  0  0  0  0  0  0  0  0
   -4.9348    3.1620   -8.4232 N   0  0  0  1  0  0  0  0  0  0  0  0
   -4.8938    3.8680   -9.1016 H   0  0  0  1  0  0  0  0  0  0  0  0
   -4.8792    3.5347   -7.0175 C   0  0  0  1  0  0  0  0  0  0  0  0
   -4.3198    4.4421   -6.9252 H   0  0  0  1  0  0  0  0  0  0  0  0
   -4.3868    2.7547   -6.4753 H   0  0  0  1  0  0  0  0  0  0  0  0
   -6.2510    3.7485   -6.4197 C   0  0  0  1  0  0  0  0  0  0  0  0
   -6.1600    3.6892   -5.3553 H   0  0  0  1  0  0  0  0  0  0  0  0
   -6.8889    2.9632   -6.7680 H   0  0  0  1  0  0  0  0  0  0  0  0
   -6.9044    5.0618   -6.7576 C   0  0  0  1  0  0  0  0  0  0  0  0
   -6.3925    5.9163   -7.4560 O   0  0  0  1  0  0  0  0  0  0  0  0
   -8.1246    5.2611   -6.2363 N   0  0  0  1  0  0  0  0  0  0  0  0
   -8.5280    4.5781   -5.6609 H   0  0  0  1  0  0  0  0  0  0  0  0
   -8.8496    6.4884   -6.5234 C   0  0  0  1  0  0  0  0  0  0  0  0
   -9.7189    6.5268   -5.9007 H   0  0  0  1  0  0  0  0  0  0  0  0
   -9.1467    6.4787   -7.5512 H   0  0  0  1  0  0  0  0  0  0  0  0
   -8.0136    7.7323   -6.2698 C   0  0  0  1  0  0  0  0  0  0  0  0
   -8.6336    8.5930   -6.4103 H   0  0  0  1  0  0  0  0  0  0  0  0
   -7.2101    7.7517   -6.9761 H   0  0  0  1  0  0  0  0  0  0  0  0
   -7.3149    7.7934   -4.6027 S   0  0  0  1  0  0  0  0  0  0  0  0
   -7.0266    9.5199   -4.3089 C   0  0  0  1  0  0  0  0  0  0  0  0
   -7.2714   10.3363   -5.1558 O   0  0  0  1  0  0  0  0  0  0  0  0
   -6.4657    9.8673   -2.9495 C   0  0  0  1  0  0  0  0  0  0  0  0
   -5.9505   10.8035   -3.0042 H   0  0  0  1  0  0  0  0  0  0  0  0
   -5.7840    9.1030   -2.6393 H   0  0  0  1  0  0  0  0  0  0  0  0
   -7.2653    9.9412   -2.2423 H   0  0  0  1  0  0  0  0  0  0  0  0
  1  2  1  0  0  0  0
  1  7  2  0  0  0  0
  2  3  1  0  0  0  0
  2  4  2  0  0  0  0
  4  5  1  0  0  0  0
  5  6  2  0  0  0  0
  5 14  1  0  0  0  0
  6  7  1  0  0  0  0
  6 11  1  0  0  0  0
  7  8  1  0  0  0  0
  8  9  1  0  0  0  0
  8 10  1  0  0  0  0
 11 12  2  0  0  0  0
 12 13  1  0  0  0  0
 12 14  1  0  0  0  0
 14 15  1  0  0  0  0
 15 16  1  0  0  0  0
 15 17  1  0  0  0  0
 15 30  1  0  0  0  0
 17 18  1  0  0  0  0
 17 19  1  0  0  0  0
 17 21  1  0  0  0  0
 19 20  1  0  0  0  0
 21 22  1  0  0  0  0
 21 23  1  0  0  0  0
 21 28  1  0  0  0  0
 23 24  1  0  0  0  0
 24 25  1  0  0  0  0
 24 26  2  0  0  0  0
 24 27  1  0  0  0  0
 28 29  1  0  0  0  0
 28 30  1  0  0  0  0
 28 31  1  0  0  0  0
 31 32  1  0  0  0  0
 31 33  1  0  0  0  0
 31 34  1  0  0  0  0
 34 35  1  0  0  0  0
 35 36  1  0  0  0  0
 35 37  2  0  0  0  0
 35 38  1  0  0  0  0
 38 39  1  0  0  0  0
 39 40  2  0  0  0  0
 39 41  1  0  0  0  0
 39 42  1  0  0  0  0
 42 44  1  0  0  0  0
 43 44  1  0  0  0  0
 43 47  1  0  0  0  0
 43 51  1  0  0  0  0
 43 55  1  0  0  0  0
 44 45  1  0  0  0  0
 44 46  1  0  0  0  0
 47 48  1  0  0  0  0
 47 49  1  0  0  0  0
 47 50  1  0  0  0  0
 51 52  1  0  0  0  0
 51 53  1  0  0  0  0
 51 54  1  0  0  0  0
 55 56  1  0  0  0  0
 55 57  1  0  0  0  0
 55 59  1  0  0  0  0
 57 58  1  0  0  0  0
 59 60  2  0  0  0  0
 59 61  1  0  0  0  0
 61 62  1  0  0  0  0
 61 63  1  0  0  0  0
 63 64  1  0  0  0  0
 63 65  1  0  0  0  0
 63 66  1  0  0  0  0
 66 67  1  0  0  0  0
 66 68  1  0  0  0  0
 66 69  1  0  0  0  0
 69 70  2  0  0  0  0
 69 71  1  0  0  0  0
 71 72  1  0  0  0  0
 71 73  1  0  0  0  0
 73 74  1  0  0  0  0
 73 75  1  0  0  0  0
 73 76  1  0  0  0  0
 76 77  1  0  0  0  0
 76 78  1  0  0  0  0
 76 79  1  0  0  0  0
 79 80  1  0  0  0  0
 80 81  2  0  0  0  0
 80 82  1  0  0  0  0
 82 83  1  0  0  0  0
 82 84  1  0  0  0  0
 82 85  1  0  0  0  0
M  BCL ATM N_Tr2TrTrPi C_TrTrTrPi H_S N_Tr2TrTrPi C_TrTrTrPi C_TrTrTrPi C_TrTrTrPi N_TrTrTrPi2 H_S H_S N_Tr2TrTrPi C_TrTrTrPi H_S N_TrTrTrPi2 C_TeTeTeTe H_S C_TeTeTeTe H_S O_Te2Te2TeTe H_S C_TeTeTeTe H_S O_Tr2TrTrPi2 P_TeTeTeTePi O_Te2Te2TeTe O_Tr2Tr2TrPi O_Te2Te2Te2Te C_TeTeTeTe H_S O_Te2Te2TeTe C_TeTeTeTe H_S H_S O_Tr2TrTrPi2 P_TeTeTeTePi O_Te2Te2TeTe O_Tr2Tr2TrPi O_Tr2TrTrPi2 P_TeTeTeTePi O_Tr2Tr2TrPi O_Te2Te2Te2Te O_Tr2TrTrPi2 C_TeTeTeTe C_TeTeTeTe H_S H_S C_TeTeTeTe H_S H_S H_S C_TeTeTeTe H_S H_S H_S C_TeTeTeTe H_S O_Te2Te2TeTe H_S C_TrTrTrPi O_Tr2Tr2TrPi N_TrTrTrPi2 H_S C_TeTeTeTe H_S H_S C_TeTeTeTe H_S H_S C_TrTrTrPi O_Tr2Tr2TrPi N_TrTrTrPi2 H_S C_TeTeTeTe H_S H_S C_TeTeTeTe H_S H_S S_Te2Te2TeTe C_TrTrTrPi O_Tr2Tr2TrPi C_TeTeTeTe H_S H_S H_S
M  BCL BND AromaticSingleBond AromaticDoubleBond NonConjugatedSingleBond AromaticDoubleBond AromaticSingleBond AromaticDoubleBond AromaticSingleBond AromaticSingleBond AromaticSingleBond ConjugatedSingleBond NonConjugatedSingleBond NonConjugatedSingleBond AromaticDoubleBond NonConjugatedSingleBond AromaticSingleBond NonConjugatedSingleBond NonConjugatedSingleBond NonConjugatedSingleBondInRing NonConjugatedSingleBondInRing NonConjugatedSingleBond NonConjugatedSingleBond NonConjugatedSingleBondInRing NonConjugatedSingleBond NonConjugatedSingleBond NonConjugatedSingleBond NonConjugatedSingleBondInRing ConjugatedSingleBond ConjugatedSingleBond ConjugatedDoubleBond ConjugatedSingleBond NonConjugatedSingleBond NonConjugatedSingleBondInRing NonConjugatedSingleBond NonConjugatedSingleBond NonConjugatedSingleBond NonConjugatedSingleBond ConjugatedSingleBond ConjugatedSingleBond ConjugatedDoubleBond ConjugatedSingleBond ConjugatedSingleBond ConjugatedDoubleBond ConjugatedSingleBond ConjugatedSingleBond NonConjugatedSingleBond NonConjugatedSingleBond NonConjugatedSingleBond NonConjugatedSingleBond NonConjugatedSingleBond NonConjugatedSingleBond NonConjugatedSingleBond NonConjugatedSingleBond NonConjugatedSingleBond NonConjugatedSingleBond NonConjugatedSingleBond NonConjugatedSingleBond NonConjugatedSingleBond NonConjugatedSingleBond NonConjugatedSingleBond NonConjugatedSingleBond NonConjugatedSingleBond ConjugatedDoubleBond AmideSingleBond NonConjugatedSingleBond NonConjugatedSingleBond NonConjugatedSingleBond NonConjugatedSingleBond NonConjugatedSingleBond NonConjugatedSingleBond NonConjugatedSingleBond NonConjugatedSingleBond ConjugatedDoubleBond AmideSingleBond NonConjugatedSingleBond NonConjugatedSingleBond NonConjugatedSingleBond NonConjugatedSingleBond NonConjugatedSingleBond NonConjugatedSingleBond NonConjugatedSingleBond NonConjugatedSingleBond ConjugatedSingleBond ConjugatedDoubleBond NonConjugatedSingleBond NonConjugatedSingleBond NonConjugatedSingleBond NonConjugatedSingleBond
M  BCL CHI  15   S  17   S  21   S  24   S  28   R  35   R  39   R  55   S
M  BCL DBI - - - - - - - - - -
M  END
> <ConfClashScore>
0 

> <ConfOneFourInteractionScore>
-0.977059 

> <ConfScore>
0.0755051 

> <ConfScorePBest>
0.00644647 

> <ConfTolerance>
2.94919 

$$$$
ACO.****
  PyMOL2.5          3D                             0

 85 87  0  0  0  0  0  0  0  0999 V2000
    4.8831    1.0910  -10.6536 N   0  0  0  1  0  0  0  0  0  0  0  0
    3.8309    1.9164  -10.5374 C   0  0  0  1  0  0  0  0  0  0  0  0
    3.7937    2.6971  -11.2235 H   0  0  0  1  0  0  0  0  0  0  0  0
    2.8315    1.8709   -9.6650 N   0  0  0  1  0  0  0  0  0  0  0  0
    2.9606    0.8371   -8.8322 C   0  0  0  1  0  0  0  0  0  0  0  0
    3.9965   -0.1066   -8.8230 C   0  0  0  1  0  0  0  0  0  0  0  0
    4.9801    0.0735   -9.7910 C   0  0  0  1  0  0  0  0  0  0  0  0
    6.0434   -0.7780   -9.8693 N   0  0  0  1  0  0  0  0  0  0  0  0
    6.1036   -1.5440   -9.2609 H   0  0  0  1  0  0  0  0  0  0  0  0
    6.7469   -0.6237  -10.5338 H   0  0  0  1  0  0  0  0  0  0  0  0
    3.7993   -1.0265   -7.8049 N   0  0  0  1  0  0  0  0  0  0  0  0
    2.6870   -0.6317   -7.2475 C   0  0  0  1  0  0  0  0  0  0  0  0
    2.2589   -1.1287   -6.4404 H   0  0  0  1  0  0  0  0  0  0  0  0
    2.1295    0.4793   -7.8021 N   0  0  0  1  0  0  0  0  0  0  0  0
    0.9082    1.1478   -7.3893 C   0  0  0  1  0  0  0  0  0  0  0  0
    0.9757    2.1902   -7.6210 H   0  0  0  1  0  0  0  0  0  0  0  0
   -0.3293    0.5088   -8.0685 C   0  0  0  1  0  0  0  0  0  0  0  0
   -0.2229   -0.5528   -8.1497 H   0  0  0  1  0  0  0  0  0  0  0  0
   -0.5527    1.0603   -9.3513 O   0  0  0  1  0  0  0  0  0  0  0  0
   -0.5735    2.0181   -9.2892 H   0  0  0  1  0  0  0  0  0  0  0  0
   -1.4694    0.8871   -7.0866 C   0  0  0  1  0  0  0  0  0  0  0  0
   -2.1541    0.0735   -6.9677 H   0  0  0  1  0  0  0  0  0  0  0  0
   -2.1845    2.0562   -7.5546 O   0  0  0  1  0  0  0  0  0  0  0  0
   -2.8108    3.1878   -6.5461 P   0  0  0  1  0  0  0  0  0  0  0  0
   -1.6258    4.0613   -5.8234 O   0  0  0  0  0  0  0  0  0  0  0  0
   -3.7365    4.0370   -7.3286 O   0  0  0  1  0  0  0  0  0  0  0  0
   -3.6075    2.2888   -5.4592 O   0  5  0  1  0  0  0  0  0  0  0  0
   -0.7389    1.1858   -5.7628 C   0  0  0  1  0  0  0  0  0  0  0  0
   -0.8964    2.2057   -5.4804 H   0  0  0  1  0  0  0  0  0  0  0  0
    0.6612    0.9474   -5.9814 O   0  0  0  1  0  0  0  0  0  0  0  0
   -1.2533    0.2755   -4.6727 C   0  0  0  1  0  0  0  0  0  0  0  0
   -1.0665   -0.7481   -4.9222 H   0  0  0  1  0  0  0  0  0  0  0  0
   -2.3033    0.4222   -4.5286 H   0  0  0  1  0  0  0  0  0  0  0  0
   -0.5235    0.6455   -3.4793 O   0  0  0  1  0  0  0  0  0  0  0  0
   -0.6952   -0.1908   -2.1142 P   0  0  0  1  0  0  0  0  0  0  0  0
   -0.1079   -1.5112   -2.4212 O   0  0  0  0  0  0  0  0  0  0  0  0
   -2.0918   -0.0911   -1.6037 O   0  0  0  1  0  0  0  0  0  0  0  0
    0.3204    0.6383   -1.1856 O   0  0  0  1  0  0  0  0  0  0  0  0
    1.1843    2.0092   -1.4384 P   0  0  0  1  0  0  0  0  0  0  0  0
    0.4009    2.8855   -2.3378 O   0  0  0  1  0  0  0  0  0  0  0  0
    1.2792    2.6141    0.0615 O   0  5  0  1  0  0  0  0  0  0  0  0
    2.5622    1.5873   -2.0521 O   0  0  0  1  0  0  0  0  0  0  0  0
    4.1286    0.2185   -3.1961 C   0  0  0  1  0  0  0  0  0  0  0  0
    2.7365    0.7583   -3.2252 C   0  0  0  1  0  0  0  0  0  0  0  0
    2.5908    1.3429   -4.1095 H   0  0  0  1  0  0  0  0  0  0  0  0
    2.0328   -0.0475   -3.2099 H   0  0  0  1  0  0  0  0  0  0  0  0
    5.1891    1.3251   -3.3888 C   0  0  0  1  0  0  0  0  0  0  0  0
    5.0252    1.8179   -4.3243 H   0  0  0  1  0  0  0  0  0  0  0  0
    6.1657    0.8878   -3.3826 H   0  0  0  1  0  0  0  0  0  0  0  0
    5.1111    2.0360   -2.5930 H   0  0  0  1  0  0  0  0  0  0  0  0
    4.2821   -0.8346   -4.3067 C   0  0  0  1  0  0  0  0  0  0  0  0
    4.0132   -0.4027   -5.2481 H   0  0  0  1  0  0  0  0  0  0  0  0
    3.6414   -1.6663   -4.1003 H   0  0  0  1  0  0  0  0  0  0  0  0
    5.2983   -1.1672   -4.3444 H   0  0  0  1  0  0  0  0  0  0  0  0
    4.3656   -0.4717   -1.8544 C   0  0  0  1  0  0  0  0  0  0  0  0
    5.3476   -0.8964   -1.8662 H   0  0  0  1  0  0  0  0  0  0  0  0
    4.2760    0.4930   -0.8126 O   0  0  0  1  0  0  0  0  0  0  0  0
    5.0863    1.0068   -0.7811 H   0  0  0  1  0  0  0  0  0  0  0  0
    3.3635   -1.5928   -1.6629 C   0  0  0  1  0  0  0  0  0  0  0  0
    2.4673   -1.7927   -2.4785 O   0  0  0  1  0  0  0  0  0  0  0  0
    3.5242   -2.3332   -0.5625 N   0  0  0  1  0  0  0  0  0  0  0  0
    4.3316   -2.2074   -0.0215 H   0  0  0  1  0  0  0  0  0  0  0  0
    2.5420   -3.3201   -0.1393 C   0  0  0  1  0  0  0  0  0  0  0  0
    2.3416   -3.9778   -0.9591 H   0  0  0  1  0  0  0  0  0  0  0  0
    1.6426   -2.8113    0.1386 H   0  0  0  1  0  0  0  0  0  0  0  0
    3.0207   -4.1504    1.0479 C   0  0  0  1  0  0  0  0  0  0  0  0
    3.3613   -3.4935    1.8209 H   0  0  0  1  0  0  0  0  0  0  0  0
    3.8266   -4.7801    0.7334 H   0  0  0  1  0  0  0  0  0  0  0  0
    1.9028   -5.0091    1.5856 C   0  0  0  1  0  0  0  0  0  0  0  0
    0.8066   -5.0293    1.0506 O   0  0  0  1  0  0  0  0  0  0  0  0
    2.1964   -5.7319    2.6702 N   0  0  0  1  0  0  0  0  0  0  0  0
    3.0681   -5.6281    3.1058 H   0  0  0  1  0  0  0  0  0  0  0  0
    1.2252   -6.6723    3.2057 C   0  0  0  1  0  0  0  0  0  0  0  0
    0.2421   -6.2939    3.0181 H   0  0  0  1  0  0  0  0  0  0  0  0
    1.3788   -6.7601    4.2610 H   0  0  0  1  0  0  0  0  0  0  0  0
    1.3431   -8.0471    2.5822 C   0  0  0  1  0  0  0  0  0  0  0  0
    2.3795   -8.3121    2.5579 H   0  0  0  1  0  0  0  0  0  0  0  0
    0.9652   -7.9912    1.5828 H   0  0  0  1  0  0  0  0  0  0  0  0
    0.4489   -9.3615    3.4468 S   0  0  0  1  0  0  0  0  0  0  0  0
    0.4142  -10.6564    2.2308 C   0  0  0  1  0  0  0  0  0  0  0  0
    0.9400  -10.5953    1.1668 O   0  0  0  1  0  0  0  0  0  0  0  0
   -0.4759  -11.8119    2.6743 C   0  0  0  1  0  0  0  0  0  0  0  0
   -0.9175  -11.5797    3.6209 H   0  0  0  1  0  0  0  0  0  0  0  0
    0.1126  -12.7010    2.7640 H   0  0  0  1  0  0  0  0  0  0  0  0
   -1.2476  -11.9660    1.9493 H   0  0  0  1  0  0  0  0  0  0  0  0
  1  2  1  0  0  0  0
  1  7  2  0  0  0  0
  2  3  1  0  0  0  0
  2  4  2  0  0  0  0
  4  5  1  0  0  0  0
  5  6  2  0  0  0  0
  5 14  1  0  0  0  0
  6  7  1  0  0  0  0
  6 11  1  0  0  0  0
  7  8  1  0  0  0  0
  8  9  1  0  0  0  0
  8 10  1  0  0  0  0
 11 12  2  0  0  0  0
 12 13  1  0  0  0  0
 12 14  1  0  0  0  0
 14 15  1  0  0  0  0
 15 16  1  0  0  0  0
 15 17  1  0  0  0  0
 15 30  1  0  0  0  0
 17 18  1  0  0  0  0
 17 19  1  0  0  0  0
 17 21  1  0  0  0  0
 19 20  1  0  0  0  0
 21 22  1  0  0  0  0
 21 23  1  0  0  0  0
 21 28  1  0  0  0  0
 23 24  1  0  0  0  0
 24 25  1  0  0  0  0
 24 26  2  0  0  0  0
 24 27  1  0  0  0  0
 28 29  1  0  0  0  0
 28 30  1  0  0  0  0
 28 31  1  0  0  0  0
 31 32  1  0  0  0  0
 31 33  1  0  0  0  0
 31 34  1  0  0  0  0
 34 35  1  0  0  0  0
 35 36  1  0  0  0  0
 35 37  2  0  0  0  0
 35 38  1  0  0  0  0
 38 39  1  0  0  0  0
 39 40  2  0  0  0  0
 39 41  1  0  0  0  0
 39 42  1  0  0  0  0
 42 44  1  0  0  0  0
 43 44  1  0  0  0  0
 43 47  1  0  0  0  0
 43 51  1  0  0  0  0
 43 55  1  0  0  0  0
 44 45  1  0  0  0  0
 44 46  1  0  0  0  0
 47 48  1  0  0  0  0
 47 49  1  0  0  0  0
 47 50  1  0  0  0  0
 51 52  1  0  0  0  0
 51 53  1  0  0  0  0
 51 54  1  0  0  0  0
 55 56  1  0  0  0  0
 55 57  1  0  0  0  0
 55 59  1  0  0  0  0
 57 58  1  0  0  0  0
 59 60  2  0  0  0  0
 59 61  1  0  0  0  0
 61 62  1  0  0  0  0
 61 63  1  0  0  0  0
 63 64  1  0  0  0  0
 63 65  1  0  0  0  0
 63 66  1  0  0  0  0
 66 67  1  0  0  0  0
 66 68  1  0  0  0  0
 66 69  1  0  0  0  0
 69 70  2  0  0  0  0
 69 71  1  0  0  0  0
 71 72  1  0  0  0  0
 71 73  1  0  0  0  0
 73 74  1  0  0  0  0
 73 75  1  0  0  0  0
 73 76  1  0  0  0  0
 76 77  1  0  0  0  0
 76 78  1  0  0  0  0
 76 79  1  0  0  0  0
 79 80  1  0  0  0  0
 80 81  2  0  0  0  0
 80 82  1  0  0  0  0
 82 83  1  0  0  0  0
 82 84  1  0  0  0  0
 82 85  1  0  0  0  0
M  BCL ATM N_Tr2TrTrPi C_TrTrTrPi H_S N_Tr2TrTrPi C_TrTrTrPi C_TrTrTrPi C_TrTrTrPi N_TrTrTrPi2 H_S H_S N_Tr2TrTrPi C_TrTrTrPi H_S N_TrTrTrPi2 C_TeTeTeTe H_S C_TeTeTeTe H_S O_Te2Te2TeTe H_S C_TeTeTeTe H_S O_Tr2TrTrPi2 P_TeTeTeTePi O_Te2Te2TeTe O_Tr2Tr2TrPi O_Te2Te2Te2Te C_TeTeTeTe H_S O_Te2Te2TeTe C_TeTeTeTe H_S H_S O_Tr2TrTrPi2 P_TeTeTeTePi O_Te2Te2TeTe O_Tr2Tr2TrPi O_Tr2TrTrPi2 P_TeTeTeTePi O_Tr2Tr2TrPi O_Te2Te2Te2Te O_Tr2TrTrPi2 C_TeTeTeTe C_TeTeTeTe H_S H_S C_TeTeTeTe H_S H_S H_S C_TeTeTeTe H_S H_S H_S C_TeTeTeTe H_S O_Te2Te2TeTe H_S C_TrTrTrPi O_Tr2Tr2TrPi N_TrTrTrPi2 H_S C_TeTeTeTe H_S H_S C_TeTeTeTe H_S H_S C_TrTrTrPi O_Tr2Tr2TrPi N_TrTrTrPi2 H_S C_TeTeTeTe H_S H_S C_TeTeTeTe H_S H_S S_Te2Te2TeTe C_TrTrTrPi O_Tr2Tr2TrPi C_TeTeTeTe H_S H_S H_S
M  BCL BND AromaticSingleBond AromaticDoubleBond NonConjugatedSingleBond AromaticDoubleBond AromaticSingleBond AromaticDoubleBond AromaticSingleBond AromaticSingleBond AromaticSingleBond ConjugatedSingleBond NonConjugatedSingleBond NonConjugatedSingleBond AromaticDoubleBond NonConjugatedSingleBond AromaticSingleBond NonConjugatedSingleBond NonConjugatedSingleBond NonConjugatedSingleBondInRing NonConjugatedSingleBondInRing NonConjugatedSingleBond NonConjugatedSingleBond NonConjugatedSingleBondInRing NonConjugatedSingleBond NonConjugatedSingleBond NonConjugatedSingleBond NonConjugatedSingleBondInRing ConjugatedSingleBond ConjugatedSingleBond ConjugatedDoubleBond ConjugatedSingleBond NonConjugatedSingleBond NonConjugatedSingleBondInRing NonConjugatedSingleBond NonConjugatedSingleBond NonConjugatedSingleBond NonConjugatedSingleBond ConjugatedSingleBond ConjugatedSingleBond ConjugatedDoubleBond ConjugatedSingleBond ConjugatedSingleBond ConjugatedDoubleBond ConjugatedSingleBond ConjugatedSingleBond NonConjugatedSingleBond NonConjugatedSingleBond NonConjugatedSingleBond NonConjugatedSingleBond NonConjugatedSingleBond NonConjugatedSingleBond NonConjugatedSingleBond NonConjugatedSingleBond NonConjugatedSingleBond NonConjugatedSingleBond NonConjugatedSingleBond NonConjugatedSingleBond NonConjugatedSingleBond NonConjugatedSingleBond NonConjugatedSingleBond NonConjugatedSingleBond NonConjugatedSingleBond ConjugatedDoubleBond AmideSingleBond NonConjugatedSingleBond NonConjugatedSingleBond NonConjugatedSingleBond NonConjugatedSingleBond NonConjugatedSingleBond NonConjugatedSingleBond NonConjugatedSingleBond NonConjugatedSingleBond ConjugatedDoubleBond AmideSingleBond NonConjugatedSingleBond NonConjugatedSingleBond NonConjugatedSingleBond NonConjugatedSingleBond NonConjugatedSingleBond NonConjugatedSingleBond NonConjugatedSingleBond NonConjugatedSingleBond ConjugatedSingleBond ConjugatedDoubleBond NonConjugatedSingleBond NonConjugatedSingleBond NonConjugatedSingleBond NonConjugatedSingleBond
M  BCL CHI  15   S  17   S  21   S  24   S  28   R  35   R  39   R  55   S
M  BCL DBI - - - - - - - - - -
M  END
> <ConfClashScore>
0.000688592 

> <ConfOneFourInteractionScore>
-0.974886 

> <ConfScore>
0.0755904 

> <ConfScorePBest>
0.00634346 

> <ConfTolerance>
2.82558 

$$$$
ACO.****
  PyMOL2.5          3D                             0

 85 87  0  0  0  0  0  0  0  0999 V2000
    4.8898    1.0678  -10.6218 N   0  0  0  1  0  0  0  0  0  0  0  0
    3.8396    1.8979  -10.5221 C   0  0  0  1  0  0  0  0  0  0  0  0
    3.8154    2.6773  -11.2103 H   0  0  0  1  0  0  0  0  0  0  0  0
    2.8279    1.8583   -9.6637 N   0  0  0  1  0  0  0  0  0  0  0  0
    2.9408    0.8258   -8.8271 C   0  0  0  1  0  0  0  0  0  0  0  0
    3.9725   -0.1223   -8.8015 C   0  0  0  1  0  0  0  0  0  0  0  0
    4.9704    0.0517   -9.7559 C   0  0  0  1  0  0  0  0  0  0  0  0
    6.0983   -0.7591   -9.9126 N   0  0  0  1  0  0  0  0  0  0  0  0
    6.7911   -0.5149  -10.5613 H   0  0  0  1  0  0  0  0  0  0  0  0
    6.1963   -1.5718   -9.3737 H   0  0  0  1  0  0  0  0  0  0  0  0
    3.7571   -1.0392   -7.7844 N   0  0  0  1  0  0  0  0  0  0  0  0
    2.6388   -0.6386   -7.2435 C   0  0  0  1  0  0  0  0  0  0  0  0
    2.1973   -1.1321   -6.4415 H   0  0  0  1  0  0  0  0  0  0  0  0
    2.0939    0.4736   -7.8081 N   0  0  0  1  0  0  0  0  0  0  0  0
    0.9238    1.1995   -7.3467 C   0  0  0  1  0  0  0  0  0  0  0  0
    0.2419    0.5190   -6.8810 H   0  0  0  1  0  0  0  0  0  0  0  0
    1.3256    2.3346   -6.3714 C   0  0  0  1  0  0  0  0  0  0  0  0
    2.2413    2.7992   -6.6723 H   0  0  0  1  0  0  0  0  0  0  0  0
    1.4546    1.8477   -5.0330 O   0  0  0  1  0  0  0  0  0  0  0  0
    2.0412    2.4238   -4.5376 H   0  0  0  1  0  0  0  0  0  0  0  0
    0.1285    3.3129   -6.5019 C   0  0  0  1  0  0  0  0  0  0  0  0
    0.4659    4.3283   -6.5037 H   0  0  0  1  0  0  0  0  0  0  0  0
   -0.8186    3.1180   -5.4155 O   0  0  0  1  0  0  0  0  0  0  0  0
   -1.7490    4.3849   -4.9476 P   0  0  0  1  0  0  0  0  0  0  0  0
   -2.1015    4.1616   -3.3615 O   0  0  0  0  0  0  0  0  0  0  0  0
   -1.0403    5.6665   -5.1608 O   0  0  0  1  0  0  0  0  0  0  0  0
   -3.1342    4.3104   -5.7844 O   0  5  0  1  0  0  0  0  0  0  0  0
   -0.5087    2.9453   -7.8562 C   0  0  0  1  0  0  0  0  0  0  0  0
   -1.5107    2.6006   -7.7073 H   0  0  0  1  0  0  0  0  0  0  0  0
    0.2888    1.9006   -8.4369 O   0  0  0  1  0  0  0  0  0  0  0  0
   -0.5203    4.1378   -8.7550 C   0  0  0  1  0  0  0  0  0  0  0  0
    0.2446    4.8249   -8.4588 H   0  0  0  1  0  0  0  0  0  0  0  0
   -1.4734    4.6216   -8.7062 H   0  0  0  1  0  0  0  0  0  0  0  0
   -0.2713    3.6744  -10.1030 O   0  0  0  1  0  0  0  0  0  0  0  0
    1.0269    4.0354  -10.9091 P   0  0  0  1  0  0  0  0  0  0  0  0
    1.1667    2.9124  -11.9340 O   0  0  0  0  0  0  0  0  0  0  0  0
    2.2192    4.2149  -10.0483 O   0  0  0  1  0  0  0  0  0  0  0  0
    0.7774    5.4246  -11.6702 O   0  0  0  1  0  0  0  0  0  0  0  0
   -0.2579    6.6506  -11.3319 P   0  0  0  1  0  0  0  0  0  0  0  0
   -0.4218    6.9971   -9.9023 O   0  0  0  1  0  0  0  0  0  0  0  0
    0.1386    8.0294  -12.0843 O   0  5  0  1  0  0  0  0  0  0  0  0
   -1.6319    6.2065  -11.9487 O   0  0  0  1  0  0  0  0  0  0  0  0
   -3.2408    5.7580  -13.6358 C   0  0  0  1  0  0  0  0  0  0  0  0
   -1.7808    5.7775  -13.3226 C   0  0  0  1  0  0  0  0  0  0  0  0
   -1.3687    4.7977  -13.4451 H   0  0  0  1  0  0  0  0  0  0  0  0
   -1.2774    6.4608  -13.9743 H   0  0  0  1  0  0  0  0  0  0  0  0
   -3.4618    5.1836  -15.0402 C   0  0  0  1  0  0  0  0  0  0  0  0
   -3.4080    5.9724  -15.7613 H   0  0  0  1  0  0  0  0  0  0  0  0
   -4.4257    4.7216  -15.0887 H   0  0  0  1  0  0  0  0  0  0  0  0
   -2.7060    4.4561  -15.2508 H   0  0  0  1  0  0  0  0  0  0  0  0
   -3.8211    7.1807  -13.5649 C   0  0  0  1  0  0  0  0  0  0  0  0
   -4.8888    7.1339  -13.6156 H   0  0  0  1  0  0  0  0  0  0  0  0
   -3.4503    7.7582  -14.3859 H   0  0  0  1  0  0  0  0  0  0  0  0
   -3.5277    7.6398  -12.6440 H   0  0  0  1  0  0  0  0  0  0  0  0
   -4.0241    4.8725  -12.6604 C   0  0  0  1  0  0  0  0  0  0  0  0
   -3.7882    5.2032  -11.6705 H   0  0  0  1  0  0  0  0  0  0  0  0
   -5.4188    4.9905  -12.8606 O   0  0  0  1  0  0  0  0  0  0  0  0
   -5.8524    5.1367  -12.0166 H   0  0  0  1  0  0  0  0  0  0  0  0
   -3.5355    3.4369  -12.7903 C   0  0  0  1  0  0  0  0  0  0  0  0
   -2.3362    3.1631  -12.8104 O   0  0  0  1  0  0  0  0  0  0  0  0
   -4.5265    2.5355  -12.8773 N   0  0  0  1  0  0  0  0  0  0  0  0
   -5.4587    2.8231  -12.7838 H   0  0  0  1  0  0  0  0  0  0  0  0
   -4.2195    1.1322  -13.1103 C   0  0  0  1  0  0  0  0  0  0  0  0
   -3.5363    0.7911  -12.3608 H   0  0  0  1  0  0  0  0  0  0  0  0
   -3.7727    1.0242  -14.0765 H   0  0  0  1  0  0  0  0  0  0  0  0
   -5.4915    0.2968  -13.0485 C   0  0  0  1  0  0  0  0  0  0  0  0
   -5.9998    0.5174  -12.1331 H   0  0  0  1  0  0  0  0  0  0  0  0
   -5.2205   -0.7382  -13.0661 H   0  0  0  1  0  0  0  0  0  0  0  0
   -6.4368    0.5678  -14.2028 C   0  0  0  1  0  0  0  0  0  0  0  0
   -6.0340    0.5989  -15.3626 O   0  0  0  1  0  0  0  0  0  0  0  0
   -7.7137    0.7661  -13.8718 N   0  0  0  1  0  0  0  0  0  0  0  0
   -7.9381    0.7763  -12.9179 H   0  0  0  1  0  0  0  0  0  0  0  0
   -8.8057    0.9697  -14.8268 C   0  0  0  1  0  0  0  0  0  0  0  0
   -9.6285    0.3466  -14.5447 H   0  0  0  1  0  0  0  0  0  0  0  0
   -8.4647    0.6913  -15.8020 H   0  0  0  1  0  0  0  0  0  0  0  0
   -9.2803    2.4131  -14.8705 C   0  0  0  1  0  0  0  0  0  0  0  0
   -8.5220    3.0278  -15.3087 H   0  0  0  1  0  0  0  0  0  0  0  0
   -9.4868    2.7539  -13.8775 H   0  0  0  1  0  0  0  0  0  0  0  0
  -10.7859    2.5008  -15.8687 S   0  0  0  1  0  0  0  0  0  0  0  0
  -10.9925    4.2531  -16.0860 C   0  0  0  1  0  0  0  0  0  0  0  0
  -10.2662    5.0760  -15.5866 O   0  0  0  1  0  0  0  0  0  0  0  0
  -12.1767    4.5861  -16.9636 C   0  0  0  1  0  0  0  0  0  0  0  0
  -12.2962    3.8249  -17.7061 H   0  0  0  1  0  0  0  0  0  0  0  0
  -12.0114    5.5284  -17.4427 H   0  0  0  1  0  0  0  0  0  0  0  0
  -13.0609    4.6406  -16.3635 H   0  0  0  1  0  0  0  0  0  0  0  0
  1  2  1  0  0  0  0
  1  7  2  0  0  0  0
  2  3  1  0  0  0  0
  2  4  2  0  0  0  0
  4  5  1  0  0  0  0
  5  6  2  0  0  0  0
  5 14  1  0  0  0  0
  6  7  1  0  0  0  0
  6 11  1  0  0  0  0
  7  8  1  0  0  0  0
  8  9  1  0  0  0  0
  8 10  1  0  0  0  0
 11 12  2  0  0  0  0
 12 13  1  0  0  0  0
 12 14  1  0  0  0  0
 14 15  1  0  0  0  0
 15 16  1  0  0  0  0
 15 17  1  0  0  0  0
 15 30  1  0  0  0  0
 17 18  1  0  0  0  0
 17 19  1  0  0  0  0
 17 21  1  0  0  0  0
 19 20  1  0  0  0  0
 21 22  1  0  0  0  0
 21 23  1  0  0  0  0
 21 28  1  0  0  0  0
 23 24  1  0  0  0  0
 24 25  1  0  0  0  0
 24 26  2  0  0  0  0
 24 27  1  0  0  0  0
 28 29  1  0  0  0  0
 28 30  1  0  0  0  0
 28 31  1  0  0  0  0
 31 32  1  0  0  0  0
 31 33  1  0  0  0  0
 31 34  1  0  0  0  0
 34 35  1  0  0  0  0
 35 36  1  0  0  0  0
 35 37  2  0  0  0  0
 35 38  1  0  0  0  0
 38 39  1  0  0  0  0
 39 40  2  0  0  0  0
 39 41  1  0  0  0  0
 39 42  1  0  0  0  0
 42 44  1  0  0  0  0
 43 44  1  0  0  0  0
 43 47  1  0  0  0  0
 43 51  1  0  0  0  0
 43 55  1  0  0  0  0
 44 45  1  0  0  0  0
 44 46  1  0  0  0  0
 47 48  1  0  0  0  0
 47 49  1  0  0  0  0
 47 50  1  0  0  0  0
 51 52  1  0  0  0  0
 51 53  1  0  0  0  0
 51 54  1  0  0  0  0
 55 56  1  0  0  0  0
 55 57  1  0  0  0  0
 55 59  1  0  0  0  0
 57 58  1  0  0  0  0
 59 60  2  0  0  0  0
 59 61  1  0  0  0  0
 61 62  1  0  0  0  0
 61 63  1  0  0  0  0
 63 64  1  0  0  0  0
 63 65  1  0  0  0  0
 63 66  1  0  0  0  0
 66 67  1  0  0  0  0
 66 68  1  0  0  0  0
 66 69  1  0  0  0  0
 69 70  2  0  0  0  0
 69 71  1  0  0  0  0
 71 72  1  0  0  0  0
 71 73  1  0  0  0  0
 73 74  1  0  0  0  0
 73 75  1  0  0  0  0
 73 76  1  0  0  0  0
 76 77  1  0  0  0  0
 76 78  1  0  0  0  0
 76 79  1  0  0  0  0
 79 80  1  0  0  0  0
 80 81  2  0  0  0  0
 80 82  1  0  0  0  0
 82 83  1  0  0  0  0
 82 84  1  0  0  0  0
 82 85  1  0  0  0  0
M  BCL ATM N_Tr2TrTrPi C_TrTrTrPi H_S N_Tr2TrTrPi C_TrTrTrPi C_TrTrTrPi C_TrTrTrPi N_TrTrTrPi2 H_S H_S N_Tr2TrTrPi C_TrTrTrPi H_S N_TrTrTrPi2 C_TeTeTeTe H_S C_TeTeTeTe H_S O_Te2Te2TeTe H_S C_TeTeTeTe H_S O_Tr2TrTrPi2 P_TeTeTeTePi O_Te2Te2TeTe O_Tr2Tr2TrPi O_Te2Te2Te2Te C_TeTeTeTe H_S O_Te2Te2TeTe C_TeTeTeTe H_S H_S O_Tr2TrTrPi2 P_TeTeTeTePi O_Te2Te2TeTe O_Tr2Tr2TrPi O_Tr2TrTrPi2 P_TeTeTeTePi O_Tr2Tr2TrPi O_Te2Te2Te2Te O_Tr2TrTrPi2 C_TeTeTeTe C_TeTeTeTe H_S H_S C_TeTeTeTe H_S H_S H_S C_TeTeTeTe H_S H_S H_S C_TeTeTeTe H_S O_Te2Te2TeTe H_S C_TrTrTrPi O_Tr2Tr2TrPi N_TrTrTrPi2 H_S C_TeTeTeTe H_S H_S C_TeTeTeTe H_S H_S C_TrTrTrPi O_Tr2Tr2TrPi N_TrTrTrPi2 H_S C_TeTeTeTe H_S H_S C_TeTeTeTe H_S H_S S_Te2Te2TeTe C_TrTrTrPi O_Tr2Tr2TrPi C_TeTeTeTe H_S H_S H_S
M  BCL BND AromaticSingleBond AromaticDoubleBond NonConjugatedSingleBond AromaticDoubleBond AromaticSingleBond AromaticDoubleBond AromaticSingleBond AromaticSingleBond AromaticSingleBond ConjugatedSingleBond NonConjugatedSingleBond NonConjugatedSingleBond AromaticDoubleBond NonConjugatedSingleBond AromaticSingleBond NonConjugatedSingleBond NonConjugatedSingleBond NonConjugatedSingleBondInRing NonConjugatedSingleBondInRing NonConjugatedSingleBond NonConjugatedSingleBond NonConjugatedSingleBondInRing NonConjugatedSingleBond NonConjugatedSingleBond NonConjugatedSingleBond NonConjugatedSingleBondInRing ConjugatedSingleBond ConjugatedSingleBond ConjugatedDoubleBond ConjugatedSingleBond NonConjugatedSingleBond NonConjugatedSingleBondInRing NonConjugatedSingleBond NonConjugatedSingleBond NonConjugatedSingleBond NonConjugatedSingleBond ConjugatedSingleBond ConjugatedSingleBond ConjugatedDoubleBond ConjugatedSingleBond ConjugatedSingleBond ConjugatedDoubleBond ConjugatedSingleBond ConjugatedSingleBond NonConjugatedSingleBond NonConjugatedSingleBond NonConjugatedSingleBond NonConjugatedSingleBond NonConjugatedSingleBond NonConjugatedSingleBond NonConjugatedSingleBond NonConjugatedSingleBond NonConjugatedSingleBond NonConjugatedSingleBond NonConjugatedSingleBond NonConjugatedSingleBond NonConjugatedSingleBond NonConjugatedSingleBond NonConjugatedSingleBond NonConjugatedSingleBond NonConjugatedSingleBond ConjugatedDoubleBond AmideSingleBond NonConjugatedSingleBond NonConjugatedSingleBond NonConjugatedSingleBond NonConjugatedSingleBond NonConjugatedSingleBond NonConjugatedSingleBond NonConjugatedSingleBond NonConjugatedSingleBond ConjugatedDoubleBond AmideSingleBond NonConjugatedSingleBond NonConjugatedSingleBond NonConjugatedSingleBond NonConjugatedSingleBond NonConjugatedSingleBond NonConjugatedSingleBond NonConjugatedSingleBond NonConjugatedSingleBond ConjugatedSingleBond ConjugatedDoubleBond NonConjugatedSingleBond NonConjugatedSingleBond NonConjugatedSingleBond NonConjugatedSingleBond
M  BCL CHI  15   S  17   S  21   S  24   S  28   R  35   R  39   R  55   S
M  BCL DBI - - - - - - - - - -
M  END
> <ConfClashScore>
0 

> <ConfOneFourInteractionScore>
-0.981846 

> <ConfScore>
0.076257 

> <ConfScorePBest>
0.00624046 

> <ConfTolerance>
2.86277 

$$$$
ACO.****
  PyMOL2.5          3D                             0

 85 87  0  0  0  0  0  0  0  0999 V2000
    4.8882    1.0629  -10.6259 N   0  0  0  1  0  0  0  0  0  0  0  0
    3.8417    1.8971  -10.5213 C   0  0  0  1  0  0  0  0  0  0  0  0
    3.8159    2.6751  -11.2109 H   0  0  0  1  0  0  0  0  0  0  0  0
    2.8353    1.8630   -9.6564 N   0  0  0  1  0  0  0  0  0  0  0  0
    2.9499    0.8317   -8.8184 C   0  0  0  1  0  0  0  0  0  0  0  0
    3.9783   -0.1200   -8.7973 C   0  0  0  1  0  0  0  0  0  0  0  0
    4.9707    0.0484   -9.7584 C   0  0  0  1  0  0  0  0  0  0  0  0
    6.0888   -0.7626   -9.9197 N   0  0  0  1  0  0  0  0  0  0  0  0
    6.7470   -0.5568  -10.6159 H   0  0  0  1  0  0  0  0  0  0  0  0
    6.2185   -1.5399   -9.3371 H   0  0  0  1  0  0  0  0  0  0  0  0
    3.7661   -1.0340   -7.7769 N   0  0  0  1  0  0  0  0  0  0  0  0
    2.6526   -0.6282   -7.2297 C   0  0  0  1  0  0  0  0  0  0  0  0
    2.2145   -1.1184   -6.4239 H   0  0  0  1  0  0  0  0  0  0  0  0
    2.1081    0.4848   -7.7932 N   0  0  0  1  0  0  0  0  0  0  0  0
    0.8775    1.1709   -7.3889 C   0  0  0  1  0  0  0  0  0  0  0  0
    0.0471    0.7600   -7.9242 H   0  0  0  1  0  0  0  0  0  0  0  0
    0.6608    1.0512   -5.8734 C   0  0  0  1  0  0  0  0  0  0  0  0
    1.0209    0.1133   -5.5052 H   0  0  0  1  0  0  0  0  0  0  0  0
   -0.7215    1.1971   -5.5372 O   0  0  0  1  0  0  0  0  0  0  0  0
   -0.8999    2.1111   -5.3042 H   0  0  0  1  0  0  0  0  0  0  0  0
    1.4753    2.1963   -5.3313 C   0  0  0  1  0  0  0  0  0  0  0  0
    2.5002    1.9141   -5.2089 H   0  0  0  1  0  0  0  0  0  0  0  0
    0.9448    2.6572   -4.0617 O   0  0  0  1  0  0  0  0  0  0  0  0
    1.1708    4.2047   -3.5681 P   0  0  0  1  0  0  0  0  0  0  0  0
    0.1889    4.4249   -2.2731 O   0  0  0  0  0  0  0  0  0  0  0  0
    2.5387    4.5878   -3.1529 O   0  0  0  1  0  0  0  0  0  0  0  0
    0.4897    5.2589   -4.5923 O   0  5  0  1  0  0  0  0  0  0  0  0
    1.3269    3.2717   -6.4116 C   0  0  0  1  0  0  0  0  0  0  0  0
    0.5516    3.9615   -6.1509 H   0  0  0  1  0  0  0  0  0  0  0  0
    0.9808    2.5504   -7.6154 O   0  0  0  1  0  0  0  0  0  0  0  0
    2.6259    4.0198   -6.5969 C   0  0  0  1  0  0  0  0  0  0  0  0
    2.8267    4.6356   -5.7452 H   0  0  0  1  0  0  0  0  0  0  0  0
    2.5839    4.6286   -7.4758 H   0  0  0  1  0  0  0  0  0  0  0  0
    3.6455    3.0022   -6.7358 O   0  0  0  1  0  0  0  0  0  0  0  0
    4.9505    3.3296   -7.6366 P   0  0  0  1  0  0  0  0  0  0  0  0
    4.3998    3.8368   -8.9276 O   0  0  0  0  0  0  0  0  0  0  0  0
    5.9003    2.1926   -7.6801 O   0  0  0  1  0  0  0  0  0  0  0  0
    5.7235    4.4847   -6.8308 O   0  0  0  1  0  0  0  0  0  0  0  0
    7.0735    5.3542   -7.1643 P   0  0  0  1  0  0  0  0  0  0  0  0
    8.0126    5.3561   -6.0204 O   0  0  0  1  0  0  0  0  0  0  0  0
    7.7793    4.6307   -8.4303 O   0  5  0  1  0  0  0  0  0  0  0  0
    6.6349    6.7708   -7.6906 O   0  0  0  1  0  0  0  0  0  0  0  0
    6.6294    9.1285   -7.4333 C   0  0  0  1  0  0  0  0  0  0  0  0
    7.4981    7.9181   -7.5351 C   0  0  0  1  0  0  0  0  0  0  0  0
    8.1456    8.0045   -8.3826 H   0  0  0  1  0  0  0  0  0  0  0  0
    8.0849    7.8149   -6.6464 H   0  0  0  1  0  0  0  0  0  0  0  0
    5.8064    9.0479   -6.1446 C   0  0  0  1  0  0  0  0  0  0  0  0
    6.3491    8.4924   -5.4085 H   0  0  0  1  0  0  0  0  0  0  0  0
    4.8762    8.5589   -6.3458 H   0  0  0  1  0  0  0  0  0  0  0  0
    5.6189   10.0358   -5.7791 H   0  0  0  1  0  0  0  0  0  0  0  0
    5.6903    9.2420   -8.6461 C   0  0  0  1  0  0  0  0  0  0  0  0
    4.6905    9.4190   -8.3083 H   0  0  0  1  0  0  0  0  0  0  0  0
    5.7210    8.3314   -9.2071 H   0  0  0  1  0  0  0  0  0  0  0  0
    6.0060   10.0546   -9.2666 H   0  0  0  1  0  0  0  0  0  0  0  0
    7.5154   10.3630   -7.3583 C   0  0  0  1  0  0  0  0  0  0  0  0
    8.1829   10.3539   -8.1945 H   0  0  0  1  0  0  0  0  0  0  0  0
    6.6596   11.5099   -7.4352 O   0  0  0  1  0  0  0  0  0  0  0  0
    5.7487   11.2239   -7.5357 H   0  0  0  1  0  0  0  0  0  0  0  0
    8.3358   10.4389   -6.0854 C   0  0  0  1  0  0  0  0  0  0  0  0
    9.2665    9.6778   -5.8782 O   0  0  0  1  0  0  0  0  0  0  0  0
    7.9360   11.4042   -5.2425 N   0  0  0  1  0  0  0  0  0  0  0  0
    7.1143   11.8984   -5.4450 H   0  0  0  1  0  0  0  0  0  0  0  0
    8.6802   11.7423   -4.0385 C   0  0  0  1  0  0  0  0  0  0  0  0
    9.1053   12.7151   -4.1717 H   0  0  0  1  0  0  0  0  0  0  0  0
    9.4638   11.0236   -3.9183 H   0  0  0  1  0  0  0  0  0  0  0  0
    7.8508   11.7578   -2.7612 C   0  0  0  1  0  0  0  0  0  0  0  0
    7.0945   12.5089   -2.8554 H   0  0  0  1  0  0  0  0  0  0  0  0
    8.4936   11.9991   -1.9406 H   0  0  0  1  0  0  0  0  0  0  0  0
    7.1785   10.4295   -2.4734 C   0  0  0  1  0  0  0  0  0  0  0  0
    7.7586    9.3634   -2.6750 O   0  0  0  1  0  0  0  0  0  0  0  0
    5.9336   10.5009   -1.9938 N   0  0  0  1  0  0  0  0  0  0  0  0
    5.5165   11.3817   -1.8900 H   0  0  0  1  0  0  0  0  0  0  0  0
    5.1702    9.3084   -1.6175 C   0  0  0  1  0  0  0  0  0  0  0  0
    5.5158    8.9526   -0.6694 H   0  0  0  1  0  0  0  0  0  0  0  0
    5.3137    8.5492   -2.3577 H   0  0  0  1  0  0  0  0  0  0  0  0
    3.7019    9.6375   -1.5203 C   0  0  0  1  0  0  0  0  0  0  0  0
    3.5305   10.3346   -0.7268 H   0  0  0  1  0  0  0  0  0  0  0  0
    3.1341    8.7481   -1.3433 H   0  0  0  1  0  0  0  0  0  0  0  0
    3.2382   10.3705   -3.1086 S   0  0  0  1  0  0  0  0  0  0  0  0
    1.6157   10.9165   -2.7274 C   0  0  0  1  0  0  0  0  0  0  0  0
    1.1657   10.6845   -1.6407 O   0  0  0  1  0  0  0  0  0  0  0  0
    0.7942   11.6796   -3.7794 C   0  0  0  1  0  0  0  0  0  0  0  0
    1.2699   12.6134   -3.9956 H   0  0  0  1  0  0  0  0  0  0  0  0
   -0.1901   11.8604   -3.4006 H   0  0  0  1  0  0  0  0  0  0  0  0
    0.7310   11.0962   -4.6742 H   0  0  0  1  0  0  0  0  0  0  0  0
  1  2  1  0  0  0  0
  1  7  2  0  0  0  0
  2  3  1  0  0  0  0
  2  4  2  0  0  0  0
  4  5  1  0  0  0  0
  5  6  2  0  0  0  0
  5 14  1  0  0  0  0
  6  7  1  0  0  0  0
  6 11  1  0  0  0  0
  7  8  1  0  0  0  0
  8  9  1  0  0  0  0
  8 10  1  0  0  0  0
 11 12  2  0  0  0  0
 12 13  1  0  0  0  0
 12 14  1  0  0  0  0
 14 15  1  0  0  0  0
 15 16  1  0  0  0  0
 15 17  1  0  0  0  0
 15 30  1  0  0  0  0
 17 18  1  0  0  0  0
 17 19  1  0  0  0  0
 17 21  1  0  0  0  0
 19 20  1  0  0  0  0
 21 22  1  0  0  0  0
 21 23  1  0  0  0  0
 21 28  1  0  0  0  0
 23 24  1  0  0  0  0
 24 25  1  0  0  0  0
 24 26  2  0  0  0  0
 24 27  1  0  0  0  0
 28 29  1  0  0  0  0
 28 30  1  0  0  0  0
 28 31  1  0  0  0  0
 31 32  1  0  0  0  0
 31 33  1  0  0  0  0
 31 34  1  0  0  0  0
 34 35  1  0  0  0  0
 35 36  1  0  0  0  0
 35 37  2  0  0  0  0
 35 38  1  0  0  0  0
 38 39  1  0  0  0  0
 39 40  2  0  0  0  0
 39 41  1  0  0  0  0
 39 42  1  0  0  0  0
 42 44  1  0  0  0  0
 43 44  1  0  0  0  0
 43 47  1  0  0  0  0
 43 51  1  0  0  0  0
 43 55  1  0  0  0  0
 44 45  1  0  0  0  0
 44 46  1  0  0  0  0
 47 48  1  0  0  0  0
 47 49  1  0  0  0  0
 47 50  1  0  0  0  0
 51 52  1  0  0  0  0
 51 53  1  0  0  0  0
 51 54  1  0  0  0  0
 55 56  1  0  0  0  0
 55 57  1  0  0  0  0
 55 59  1  0  0  0  0
 57 58  1  0  0  0  0
 59 60  2  0  0  0  0
 59 61  1  0  0  0  0
 61 62  1  0  0  0  0
 61 63  1  0  0  0  0
 63 64  1  0  0  0  0
 63 65  1  0  0  0  0
 63 66  1  0  0  0  0
 66 67  1  0  0  0  0
 66 68  1  0  0  0  0
 66 69  1  0  0  0  0
 69 70  2  0  0  0  0
 69 71  1  0  0  0  0
 71 72  1  0  0  0  0
 71 73  1  0  0  0  0
 73 74  1  0  0  0  0
 73 75  1  0  0  0  0
 73 76  1  0  0  0  0
 76 77  1  0  0  0  0
 76 78  1  0  0  0  0
 76 79  1  0  0  0  0
 79 80  1  0  0  0  0
 80 81  2  0  0  0  0
 80 82  1  0  0  0  0
 82 83  1  0  0  0  0
 82 84  1  0  0  0  0
 82 85  1  0  0  0  0
M  BCL ATM N_Tr2TrTrPi C_TrTrTrPi H_S N_Tr2TrTrPi C_TrTrTrPi C_TrTrTrPi C_TrTrTrPi N_TrTrTrPi2 H_S H_S N_Tr2TrTrPi C_TrTrTrPi H_S N_TrTrTrPi2 C_TeTeTeTe H_S C_TeTeTeTe H_S O_Te2Te2TeTe H_S C_TeTeTeTe H_S O_Tr2TrTrPi2 P_TeTeTeTePi O_Te2Te2TeTe O_Tr2Tr2TrPi O_Te2Te2Te2Te C_TeTeTeTe H_S O_Te2Te2TeTe C_TeTeTeTe H_S H_S O_Tr2TrTrPi2 P_TeTeTeTePi O_Te2Te2TeTe O_Tr2Tr2TrPi O_Tr2TrTrPi2 P_TeTeTeTePi O_Tr2Tr2TrPi O_Te2Te2Te2Te O_Tr2TrTrPi2 C_TeTeTeTe C_TeTeTeTe H_S H_S C_TeTeTeTe H_S H_S H_S C_TeTeTeTe H_S H_S H_S C_TeTeTeTe H_S O_Te2Te2TeTe H_S C_TrTrTrPi O_Tr2Tr2TrPi N_TrTrTrPi2 H_S C_TeTeTeTe H_S H_S C_TeTeTeTe H_S H_S C_TrTrTrPi O_Tr2Tr2TrPi N_TrTrTrPi2 H_S C_TeTeTeTe H_S H_S C_TeTeTeTe H_S H_S S_Te2Te2TeTe C_TrTrTrPi O_Tr2Tr2TrPi C_TeTeTeTe H_S H_S H_S
M  BCL BND AromaticSingleBond AromaticDoubleBond NonConjugatedSingleBond AromaticDoubleBond AromaticSingleBond AromaticDoubleBond AromaticSingleBond AromaticSingleBond AromaticSingleBond ConjugatedSingleBond NonConjugatedSingleBond NonConjugatedSingleBond AromaticDoubleBond NonConjugatedSingleBond AromaticSingleBond NonConjugatedSingleBond NonConjugatedSingleBond NonConjugatedSingleBondInRing NonConjugatedSingleBondInRing NonConjugatedSingleBond NonConjugatedSingleBond NonConjugatedSingleBondInRing NonConjugatedSingleBond NonConjugatedSingleBond NonConjugatedSingleBond NonConjugatedSingleBondInRing ConjugatedSingleBond ConjugatedSingleBond ConjugatedDoubleBond ConjugatedSingleBond NonConjugatedSingleBond NonConjugatedSingleBondInRing NonConjugatedSingleBond NonConjugatedSingleBond NonConjugatedSingleBond NonConjugatedSingleBond ConjugatedSingleBond ConjugatedSingleBond ConjugatedDoubleBond ConjugatedSingleBond ConjugatedSingleBond ConjugatedDoubleBond ConjugatedSingleBond ConjugatedSingleBond NonConjugatedSingleBond NonConjugatedSingleBond NonConjugatedSingleBond NonConjugatedSingleBond NonConjugatedSingleBond NonConjugatedSingleBond NonConjugatedSingleBond NonConjugatedSingleBond NonConjugatedSingleBond NonConjugatedSingleBond NonConjugatedSingleBond NonConjugatedSingleBond NonConjugatedSingleBond NonConjugatedSingleBond NonConjugatedSingleBond NonConjugatedSingleBond NonConjugatedSingleBond ConjugatedDoubleBond AmideSingleBond NonConjugatedSingleBond NonConjugatedSingleBond NonConjugatedSingleBond NonConjugatedSingleBond NonConjugatedSingleBond NonConjugatedSingleBond NonConjugatedSingleBond NonConjugatedSingleBond ConjugatedDoubleBond AmideSingleBond NonConjugatedSingleBond NonConjugatedSingleBond NonConjugatedSingleBond NonConjugatedSingleBond NonConjugatedSingleBond NonConjugatedSingleBond NonConjugatedSingleBond NonConjugatedSingleBond ConjugatedSingleBond ConjugatedDoubleBond NonConjugatedSingleBond NonConjugatedSingleBond NonConjugatedSingleBond NonConjugatedSingleBond
M  BCL CHI  15   S  17   S  21   S  24   S  28   R  35   R  39   R  55   S
M  BCL DBI - - - - - - - - - -
M  END
> <ConfClashScore>
0 

> <ConfOneFourInteractionScore>
-0.975802 

> <ConfScore>
0.0781394 

> <ConfScorePBest>
0.00613746 

> <ConfTolerance>
3.07899 

$$$$
ACO.****
  PyMOL2.5          3D                             0

 85 87  0  0  0  0  0  0  0  0999 V2000
    4.8864    1.0610  -10.6280 N   0  0  0  1  0  0  0  0  0  0  0  0
    3.8396    1.8948  -10.5237 C   0  0  0  1  0  0  0  0  0  0  0  0
    3.8128    2.6717  -11.2146 H   0  0  0  1  0  0  0  0  0  0  0  0
    2.8339    1.8617   -9.6580 N   0  0  0  1  0  0  0  0  0  0  0  0
    2.9497    0.8318   -8.8184 C   0  0  0  1  0  0  0  0  0  0  0  0
    3.9785   -0.1194   -8.7967 C   0  0  0  1  0  0  0  0  0  0  0  0
    4.9700    0.0478   -9.7590 C   0  0  0  1  0  0  0  0  0  0  0  0
    6.0883   -0.7629   -9.9199 N   0  0  0  1  0  0  0  0  0  0  0  0
    6.7235   -0.5834  -10.6443 H   0  0  0  1  0  0  0  0  0  0  0  0
    6.2413   -1.5138   -9.3090 H   0  0  0  1  0  0  0  0  0  0  0  0
    3.7676   -1.0319   -7.7747 N   0  0  0  1  0  0  0  0  0  0  0  0
    2.6545   -0.6258   -7.2272 C   0  0  0  1  0  0  0  0  0  0  0  0
    2.2173   -1.1149   -6.4202 H   0  0  0  1  0  0  0  0  0  0  0  0
    2.1090    0.4861   -7.7920 N   0  0  0  1  0  0  0  0  0  0  0  0
    0.8806    1.1711   -7.3884 C   0  0  0  1  0  0  0  0  0  0  0  0
    1.0403    2.2290   -7.4027 H   0  0  0  1  0  0  0  0  0  0  0  0
   -0.3012    0.7771   -8.3098 C   0  0  0  1  0  0  0  0  0  0  0  0
   -0.2514   -0.2556   -8.5852 H   0  0  0  1  0  0  0  0  0  0  0  0
   -0.3310    1.5775   -9.4787 O   0  0  0  1  0  0  0  0  0  0  0  0
   -1.1974    1.5156   -9.8874 H   0  0  0  1  0  0  0  0  0  0  0  0
   -1.5277    1.0595   -7.4025 C   0  0  0  1  0  0  0  0  0  0  0  0
   -2.2707    0.2986   -7.5203 H   0  0  0  1  0  0  0  0  0  0  0  0
   -2.1047    2.3479   -7.7065 O   0  0  0  1  0  0  0  0  0  0  0  0
   -3.5789    2.3992   -8.4232 P   0  0  0  1  0  0  0  0  0  0  0  0
   -4.6932    1.9256   -7.3170 O   0  0  0  0  0  0  0  0  0  0  0  0
   -3.8474    3.7352   -9.0006 O   0  0  0  1  0  0  0  0  0  0  0  0
   -3.5548    1.1447   -9.4479 O   0  5  0  1  0  0  0  0  0  0  0  0
   -0.9481    1.0424   -5.9746 C   0  0  0  1  0  0  0  0  0  0  0  0
   -1.0758    2.0010   -5.5167 H   0  0  0  1  0  0  0  0  0  0  0  0
    0.4508    0.7322   -6.0822 O   0  0  0  1  0  0  0  0  0  0  0  0
   -1.6315    0.0150   -5.1653 C   0  0  0  1  0  0  0  0  0  0  0  0
   -2.6901    0.1295   -5.2715 H   0  0  0  1  0  0  0  0  0  0  0  0
   -1.3603    0.1380   -4.1376 H   0  0  0  1  0  0  0  0  0  0  0  0
   -1.2485   -1.3129   -5.6046 O   0  0  0  1  0  0  0  0  0  0  0  0
   -2.3556   -2.3886   -6.0271 P   0  0  0  1  0  0  0  0  0  0  0  0
   -3.3303   -1.7507   -6.9653 O   0  0  0  0  0  0  0  0  0  0  0  0
   -2.8267   -3.0528   -4.7862 O   0  0  0  1  0  0  0  0  0  0  0  0
   -1.5015   -3.4731   -6.8490 O   0  0  0  1  0  0  0  0  0  0  0  0
   -1.6467   -4.9362   -7.5756 P   0  0  0  1  0  0  0  0  0  0  0  0
   -0.7579   -6.0239   -7.1094 O   0  0  0  1  0  0  0  0  0  0  0  0
   -3.2278   -5.2854   -7.5252 O   0  5  0  1  0  0  0  0  0  0  0  0
   -1.3703   -4.6073   -9.0983 O   0  0  0  1  0  0  0  0  0  0  0  0
   -0.0300   -4.0905  -10.9854 C   0  0  0  1  0  0  0  0  0  0  0  0
   -0.0118   -4.3504   -9.5150 C   0  0  0  1  0  0  0  0  0  0  0  0
    0.6015   -5.2011   -9.3029 H   0  0  0  1  0  0  0  0  0  0  0  0
    0.3723   -3.4956   -8.9986 H   0  0  0  1  0  0  0  0  0  0  0  0
   -1.0064   -2.9644  -11.3457 C   0  0  0  1  0  0  0  0  0  0  0  0
   -0.9471   -2.7622  -12.3947 H   0  0  0  1  0  0  0  0  0  0  0  0
   -0.7504   -2.0817  -10.7976 H   0  0  0  1  0  0  0  0  0  0  0  0
   -2.0030   -3.2633  -11.0960 H   0  0  0  1  0  0  0  0  0  0  0  0
   -0.4335   -5.3489  -11.7511 C   0  0  0  1  0  0  0  0  0  0  0  0
    0.4321   -5.9528  -11.9272 H   0  0  0  1  0  0  0  0  0  0  0  0
   -0.8711   -5.0716  -12.6873 H   0  0  0  1  0  0  0  0  0  0  0  0
   -1.1442   -5.9040  -11.1751 H   0  0  0  1  0  0  0  0  0  0  0  0
    1.3922   -3.6903  -11.3863 C   0  0  0  1  0  0  0  0  0  0  0  0
    1.6108   -2.7396  -10.9465 H   0  0  0  1  0  0  0  0  0  0  0  0
    2.2311   -4.6939  -10.8048 O   0  0  0  1  0  0  0  0  0  0  0  0
    2.7803   -4.2978  -10.1243 H   0  0  0  1  0  0  0  0  0  0  0  0
    1.5905   -3.5873  -12.8786 C   0  0  0  1  0  0  0  0  0  0  0  0
    0.6299   -3.4486  -13.6347 O   0  0  0  1  0  0  0  0  0  0  0  0
    2.8440   -3.6517  -13.3547 N   0  0  0  1  0  0  0  0  0  0  0  0
    3.5809   -3.8058  -12.7272 H   0  0  0  1  0  0  0  0  0  0  0  0
    3.1468   -3.5004  -14.7701 C   0  0  0  1  0  0  0  0  0  0  0  0
    4.0175   -2.8868  -14.8707 H   0  0  0  1  0  0  0  0  0  0  0  0
    2.3169   -3.0243  -15.2492 H   0  0  0  1  0  0  0  0  0  0  0  0
    3.4075   -4.8343  -15.4574 C   0  0  0  1  0  0  0  0  0  0  0  0
    3.9756   -5.4535  -14.7950 H   0  0  0  1  0  0  0  0  0  0  0  0
    3.9712   -4.6537  -16.3488 H   0  0  0  1  0  0  0  0  0  0  0  0
    2.1412   -5.5648  -15.8298 C   0  0  0  1  0  0  0  0  0  0  0  0
    1.2510   -5.0116  -16.4743 O   0  0  0  1  0  0  0  0  0  0  0  0
    2.0592   -6.8325  -15.4160 N   0  0  0  1  0  0  0  0  0  0  0  0
    2.7830   -7.1980  -14.8656 H   0  0  0  1  0  0  0  0  0  0  0  0
    0.9326   -7.6893  -15.7541 C   0  0  0  1  0  0  0  0  0  0  0  0
    0.6611   -7.5123  -16.7738 H   0  0  0  1  0  0  0  0  0  0  0  0
    0.1096   -7.4408  -15.1171 H   0  0  0  1  0  0  0  0  0  0  0  0
    1.2489   -9.1540  -15.5855 C   0  0  0  1  0  0  0  0  0  0  0  0
    2.1871   -9.3751  -16.0501 H   0  0  0  1  0  0  0  0  0  0  0  0
    0.4787   -9.7427  -16.0384 H   0  0  0  1  0  0  0  0  0  0  0  0
    1.3419   -9.5301  -13.8189 S   0  0  0  1  0  0  0  0  0  0  0  0
   -0.3525   -9.6461  -13.3734 C   0  0  0  1  0  0  0  0  0  0  0  0
   -1.1847   -9.3982  -14.1943 O   0  0  0  1  0  0  0  0  0  0  0  0
   -0.7456  -10.0614  -11.9461 C   0  0  0  1  0  0  0  0  0  0  0  0
   -1.3272   -9.2845  -11.4955 H   0  0  0  1  0  0  0  0  0  0  0  0
    0.1387  -10.2264  -11.3666 H   0  0  0  1  0  0  0  0  0  0  0  0
   -1.3217  -10.9623  -11.9829 H   0  0  0  1  0  0  0  0  0  0  0  0
  1  2  1  0  0  0  0
  1  7  2  0  0  0  0
  2  3  1  0  0  0  0
  2  4  2  0  0  0  0
  4  5  1  0  0  0  0
  5  6  2  0  0  0  0
  5 14  1  0  0  0  0
  6  7  1  0  0  0  0
  6 11  1  0  0  0  0
  7  8  1  0  0  0  0
  8  9  1  0  0  0  0
  8 10  1  0  0  0  0
 11 12  2  0  0  0  0
 12 13  1  0  0  0  0
 12 14  1  0  0  0  0
 14 15  1  0  0  0  0
 15 16  1  0  0  0  0
 15 17  1  0  0  0  0
 15 30  1  0  0  0  0
 17 18  1  0  0  0  0
 17 19  1  0  0  0  0
 17 21  1  0  0  0  0
 19 20  1  0  0  0  0
 21 22  1  0  0  0  0
 21 23  1  0  0  0  0
 21 28  1  0  0  0  0
 23 24  1  0  0  0  0
 24 25  1  0  0  0  0
 24 26  2  0  0  0  0
 24 27  1  0  0  0  0
 28 29  1  0  0  0  0
 28 30  1  0  0  0  0
 28 31  1  0  0  0  0
 31 32  1  0  0  0  0
 31 33  1  0  0  0  0
 31 34  1  0  0  0  0
 34 35  1  0  0  0  0
 35 36  1  0  0  0  0
 35 37  2  0  0  0  0
 35 38  1  0  0  0  0
 38 39  1  0  0  0  0
 39 40  2  0  0  0  0
 39 41  1  0  0  0  0
 39 42  1  0  0  0  0
 42 44  1  0  0  0  0
 43 44  1  0  0  0  0
 43 47  1  0  0  0  0
 43 51  1  0  0  0  0
 43 55  1  0  0  0  0
 44 45  1  0  0  0  0
 44 46  1  0  0  0  0
 47 48  1  0  0  0  0
 47 49  1  0  0  0  0
 47 50  1  0  0  0  0
 51 52  1  0  0  0  0
 51 53  1  0  0  0  0
 51 54  1  0  0  0  0
 55 56  1  0  0  0  0
 55 57  1  0  0  0  0
 55 59  1  0  0  0  0
 57 58  1  0  0  0  0
 59 60  2  0  0  0  0
 59 61  1  0  0  0  0
 61 62  1  0  0  0  0
 61 63  1  0  0  0  0
 63 64  1  0  0  0  0
 63 65  1  0  0  0  0
 63 66  1  0  0  0  0
 66 67  1  0  0  0  0
 66 68  1  0  0  0  0
 66 69  1  0  0  0  0
 69 70  2  0  0  0  0
 69 71  1  0  0  0  0
 71 72  1  0  0  0  0
 71 73  1  0  0  0  0
 73 74  1  0  0  0  0
 73 75  1  0  0  0  0
 73 76  1  0  0  0  0
 76 77  1  0  0  0  0
 76 78  1  0  0  0  0
 76 79  1  0  0  0  0
 79 80  1  0  0  0  0
 80 81  2  0  0  0  0
 80 82  1  0  0  0  0
 82 83  1  0  0  0  0
 82 84  1  0  0  0  0
 82 85  1  0  0  0  0
M  BCL ATM N_Tr2TrTrPi C_TrTrTrPi H_S N_Tr2TrTrPi C_TrTrTrPi C_TrTrTrPi C_TrTrTrPi N_TrTrTrPi2 H_S H_S N_Tr2TrTrPi C_TrTrTrPi H_S N_TrTrTrPi2 C_TeTeTeTe H_S C_TeTeTeTe H_S O_Te2Te2TeTe H_S C_TeTeTeTe H_S O_Tr2TrTrPi2 P_TeTeTeTePi O_Te2Te2TeTe O_Tr2Tr2TrPi O_Te2Te2Te2Te C_TeTeTeTe H_S O_Te2Te2TeTe C_TeTeTeTe H_S H_S O_Tr2TrTrPi2 P_TeTeTeTePi O_Te2Te2TeTe O_Tr2Tr2TrPi O_Tr2TrTrPi2 P_TeTeTeTePi O_Tr2Tr2TrPi O_Te2Te2Te2Te O_Tr2TrTrPi2 C_TeTeTeTe C_TeTeTeTe H_S H_S C_TeTeTeTe H_S H_S H_S C_TeTeTeTe H_S H_S H_S C_TeTeTeTe H_S O_Te2Te2TeTe H_S C_TrTrTrPi O_Tr2Tr2TrPi N_TrTrTrPi2 H_S C_TeTeTeTe H_S H_S C_TeTeTeTe H_S H_S C_TrTrTrPi O_Tr2Tr2TrPi N_TrTrTrPi2 H_S C_TeTeTeTe H_S H_S C_TeTeTeTe H_S H_S S_Te2Te2TeTe C_TrTrTrPi O_Tr2Tr2TrPi C_TeTeTeTe H_S H_S H_S
M  BCL BND AromaticSingleBond AromaticDoubleBond NonConjugatedSingleBond AromaticDoubleBond AromaticSingleBond AromaticDoubleBond AromaticSingleBond AromaticSingleBond AromaticSingleBond ConjugatedSingleBond NonConjugatedSingleBond NonConjugatedSingleBond AromaticDoubleBond NonConjugatedSingleBond AromaticSingleBond NonConjugatedSingleBond NonConjugatedSingleBond NonConjugatedSingleBondInRing NonConjugatedSingleBondInRing NonConjugatedSingleBond NonConjugatedSingleBond NonConjugatedSingleBondInRing NonConjugatedSingleBond NonConjugatedSingleBond NonConjugatedSingleBond NonConjugatedSingleBondInRing ConjugatedSingleBond ConjugatedSingleBond ConjugatedDoubleBond ConjugatedSingleBond NonConjugatedSingleBond NonConjugatedSingleBondInRing NonConjugatedSingleBond NonConjugatedSingleBond NonConjugatedSingleBond NonConjugatedSingleBond ConjugatedSingleBond ConjugatedSingleBond ConjugatedDoubleBond ConjugatedSingleBond ConjugatedSingleBond ConjugatedDoubleBond ConjugatedSingleBond ConjugatedSingleBond NonConjugatedSingleBond NonConjugatedSingleBond NonConjugatedSingleBond NonConjugatedSingleBond NonConjugatedSingleBond NonConjugatedSingleBond NonConjugatedSingleBond NonConjugatedSingleBond NonConjugatedSingleBond NonConjugatedSingleBond NonConjugatedSingleBond NonConjugatedSingleBond NonConjugatedSingleBond NonConjugatedSingleBond NonConjugatedSingleBond NonConjugatedSingleBond NonConjugatedSingleBond ConjugatedDoubleBond AmideSingleBond NonConjugatedSingleBond NonConjugatedSingleBond NonConjugatedSingleBond NonConjugatedSingleBond NonConjugatedSingleBond NonConjugatedSingleBond NonConjugatedSingleBond NonConjugatedSingleBond ConjugatedDoubleBond AmideSingleBond NonConjugatedSingleBond NonConjugatedSingleBond NonConjugatedSingleBond NonConjugatedSingleBond NonConjugatedSingleBond NonConjugatedSingleBond NonConjugatedSingleBond NonConjugatedSingleBond ConjugatedSingleBond ConjugatedDoubleBond NonConjugatedSingleBond NonConjugatedSingleBond NonConjugatedSingleBond NonConjugatedSingleBond
M  BCL CHI  15   S  17   S  21   S  24   S  28   R  35   R  39   R  55   S
M  BCL DBI - - - - - - - - - -
M  END
> <ConfClashScore>
0 

> <ConfOneFourInteractionScore>
-0.98025 

> <ConfScore>
0.0797493 

> <ConfScorePBest>
0.00603446 

> <ConfTolerance>
2.87815 

$$$$
ACO.****
  PyMOL2.5          3D                             0

 85 87  0  0  0  0  0  0  0  0999 V2000
    4.8788    1.1231  -10.6776 N   0  0  0  1  0  0  0  0  0  0  0  0
    3.8260    1.9452  -10.5440 C   0  0  0  1  0  0  0  0  0  0  0  0
    3.7795    2.7306  -11.2241 H   0  0  0  1  0  0  0  0  0  0  0  0
    2.8364    1.8910   -9.6610 N   0  0  0  1  0  0  0  0  0  0  0  0
    2.9770    0.8516   -8.8371 C   0  0  0  1  0  0  0  0  0  0  0  0
    4.0152   -0.0897   -8.8461 C   0  0  0  1  0  0  0  0  0  0  0  0
    4.9876    0.0997   -9.8236 C   0  0  0  1  0  0  0  0  0  0  0  0
    6.0057   -0.7982   -9.8357 N   0  0  0  1  0  0  0  0  0  0  0  0
    6.0250   -1.5260   -9.1797 H   0  0  0  1  0  0  0  0  0  0  0  0
    6.7214   -0.7186  -10.5005 H   0  0  0  1  0  0  0  0  0  0  0  0
    3.8313   -1.0173   -7.8326 N   0  0  0  1  0  0  0  0  0  0  0  0
    2.7243   -0.6292   -7.2601 C   0  0  0  1  0  0  0  0  0  0  0  0
    2.3063   -1.1330   -6.4520 H   0  0  0  1  0  0  0  0  0  0  0  0
    2.1582    0.4844   -7.8006 N   0  0  0  1  0  0  0  0  0  0  0  0
    0.8805    1.0602   -7.3993 C   0  0  0  1  0  0  0  0  0  0  0  0
    0.9211    2.1247   -7.5000 H   0  0  0  1  0  0  0  0  0  0  0  0
   -0.2459    0.4906   -8.2424 C   0  0  0  1  0  0  0  0  0  0  0  0
    0.0871    0.2693   -9.2349 H   0  0  0  1  0  0  0  0  0  0  0  0
   -1.3551    1.3914   -8.3008 O   0  0  0  1  0  0  0  0  0  0  0  0
   -1.2963    2.0194   -7.5771 H   0  0  0  1  0  0  0  0  0  0  0  0
   -0.6040   -0.7675   -7.4941 C   0  0  0  1  0  0  0  0  0  0  0  0
    0.0768   -1.5621   -7.7179 H   0  0  0  1  0  0  0  0  0  0  0  0
   -1.9627   -1.1939   -7.7921 O   0  0  0  1  0  0  0  0  0  0  0  0
   -2.2608   -2.6868   -8.4019 P   0  0  0  1  0  0  0  0  0  0  0  0
   -1.4937   -3.8218   -7.5003 O   0  0  0  0  0  0  0  0  0  0  0  0
   -3.7274   -2.8368   -8.5321 O   0  0  0  1  0  0  0  0  0  0  0  0
   -1.4809   -2.8443   -9.8130 O   0  5  0  1  0  0  0  0  0  0  0  0
   -0.4689   -0.3097   -6.0425 C   0  0  0  1  0  0  0  0  0  0  0  0
   -1.3897    0.1075   -5.6917 H   0  0  0  1  0  0  0  0  0  0  0  0
    0.5745    0.7021   -6.0681 O   0  0  0  1  0  0  0  0  0  0  0  0
   -0.0729   -1.4516   -5.1655 C   0  0  0  1  0  0  0  0  0  0  0  0
    0.8853   -1.8239   -5.4626 H   0  0  0  1  0  0  0  0  0  0  0  0
   -0.7984   -2.2348   -5.2373 H   0  0  0  1  0  0  0  0  0  0  0  0
   -0.0107   -0.9594   -3.8028 O   0  0  0  1  0  0  0  0  0  0  0  0
   -0.2841   -1.8561   -2.5606 P   0  0  0  1  0  0  0  0  0  0  0  0
    0.9307   -2.7490   -2.2906 O   0  0  0  0  0  0  0  0  0  0  0  0
   -1.5303   -2.6136   -2.8214 O   0  0  0  1  0  0  0  0  0  0  0  0
   -0.3961   -0.9069   -1.2555 O   0  0  0  1  0  0  0  0  0  0  0  0
    0.7974    0.0763   -0.7089 P   0  0  0  1  0  0  0  0  0  0  0  0
    1.2563   -0.1589    0.6783 O   0  0  0  1  0  0  0  0  0  0  0  0
    1.9144   -0.0188   -1.8784 O   0  5  0  1  0  0  0  0  0  0  0  0
    0.1923    1.5046   -0.9937 O   0  0  0  1  0  0  0  0  0  0  0  0
    0.5758    3.7282   -1.6540 C   0  0  0  1  0  0  0  0  0  0  0  0
    1.0738    2.6277   -0.7583 C   0  0  0  1  0  0  0  0  0  0  0  0
    2.0817    2.3700   -1.0087 H   0  0  0  1  0  0  0  0  0  0  0  0
    1.0267    2.9307    0.2668 H   0  0  0  1  0  0  0  0  0  0  0  0
   -0.8542    4.0734   -1.1821 C   0  0  0  1  0  0  0  0  0  0  0  0
   -1.4123    3.1710   -1.0437 H   0  0  0  1  0  0  0  0  0  0  0  0
   -1.3359    4.6809   -1.9195 H   0  0  0  1  0  0  0  0  0  0  0  0
   -0.8047    4.6074   -0.2562 H   0  0  0  1  0  0  0  0  0  0  0  0
    0.5805    3.2164   -3.0964 C   0  0  0  1  0  0  0  0  0  0  0  0
    0.8174    4.0214   -3.7602 H   0  0  0  1  0  0  0  0  0  0  0  0
   -0.3858    2.8266   -3.3394 H   0  0  0  1  0  0  0  0  0  0  0  0
    1.3134    2.4434   -3.1979 H   0  0  0  1  0  0  0  0  0  0  0  0
    1.5281    4.9225   -1.5401 C   0  0  0  1  0  0  0  0  0  0  0  0
    2.4991    4.6060   -1.8596 H   0  0  0  1  0  0  0  0  0  0  0  0
    1.0663    5.9639   -2.3777 O   0  0  0  1  0  0  0  0  0  0  0  0
    1.0138    5.6478   -3.2827 H   0  0  0  1  0  0  0  0  0  0  0  0
    1.6275    5.3742   -0.0884 C   0  0  0  1  0  0  0  0  0  0  0  0
    2.5080    4.9397    0.6530 O   0  0  0  1  0  0  0  0  0  0  0  0
    0.7654    6.3266    0.2990 N   0  0  0  1  0  0  0  0  0  0  0  0
    0.0938    6.5988   -0.3607 H   0  0  0  1  0  0  0  0  0  0  0  0
    0.7140    7.0056    1.5960 C   0  0  0  1  0  0  0  0  0  0  0  0
    0.3512    8.0012    1.4475 H   0  0  0  1  0  0  0  0  0  0  0  0
    1.7029    7.0429    2.0029 H   0  0  0  1  0  0  0  0  0  0  0  0
   -0.1966    6.2975    2.5905 C   0  0  0  1  0  0  0  0  0  0  0  0
   -1.1649    6.1893    2.1483 H   0  0  0  1  0  0  0  0  0  0  0  0
   -0.2717    6.8994    3.4719 H   0  0  0  1  0  0  0  0  0  0  0  0
    0.3098    4.9240    2.9857 C   0  0  0  1  0  0  0  0  0  0  0  0
    1.4078    4.5278    2.6311 O   0  0  0  1  0  0  0  0  0  0  0  0
   -0.5195    4.1936    3.7366 N   0  0  0  1  0  0  0  0  0  0  0  0
   -1.2889    4.6328    4.1557 H   0  0  0  1  0  0  0  0  0  0  0  0
   -0.3203    2.7696    3.9537 C   0  0  0  1  0  0  0  0  0  0  0  0
    0.0836    2.6255    4.9340 H   0  0  0  1  0  0  0  0  0  0  0  0
    0.3730    2.4054    3.2246 H   0  0  0  1  0  0  0  0  0  0  0  0
   -1.6114    1.9759    3.8373 C   0  0  0  1  0  0  0  0  0  0  0  0
   -2.0327    2.1522    2.8696 H   0  0  0  1  0  0  0  0  0  0  0  0
   -2.2901    2.3185    4.5902 H   0  0  0  1  0  0  0  0  0  0  0  0
   -1.3740    0.1950    4.0449 S   0  0  0  1  0  0  0  0  0  0  0  0
   -1.6193    0.0558    5.8002 C   0  0  0  1  0  0  0  0  0  0  0  0
   -1.9463    0.9804    6.5021 O   0  0  0  1  0  0  0  0  0  0  0  0
   -1.3713   -1.3471    6.3040 C   0  0  0  1  0  0  0  0  0  0  0  0
   -0.5385   -1.3433    6.9758 H   0  0  0  1  0  0  0  0  0  0  0  0
   -1.1584   -1.9906    5.4761 H   0  0  0  1  0  0  0  0  0  0  0  0
   -2.2413   -1.7006    6.8167 H   0  0  0  1  0  0  0  0  0  0  0  0
  1  2  1  0  0  0  0
  1  7  2  0  0  0  0
  2  3  1  0  0  0  0
  2  4  2  0  0  0  0
  4  5  1  0  0  0  0
  5  6  2  0  0  0  0
  5 14  1  0  0  0  0
  6  7  1  0  0  0  0
  6 11  1  0  0  0  0
  7  8  1  0  0  0  0
  8  9  1  0  0  0  0
  8 10  1  0  0  0  0
 11 12  2  0  0  0  0
 12 13  1  0  0  0  0
 12 14  1  0  0  0  0
 14 15  1  0  0  0  0
 15 16  1  0  0  0  0
 15 17  1  0  0  0  0
 15 30  1  0  0  0  0
 17 18  1  0  0  0  0
 17 19  1  0  0  0  0
 17 21  1  0  0  0  0
 19 20  1  0  0  0  0
 21 22  1  0  0  0  0
 21 23  1  0  0  0  0
 21 28  1  0  0  0  0
 23 24  1  0  0  0  0
 24 25  1  0  0  0  0
 24 26  2  0  0  0  0
 24 27  1  0  0  0  0
 28 29  1  0  0  0  0
 28 30  1  0  0  0  0
 28 31  1  0  0  0  0
 31 32  1  0  0  0  0
 31 33  1  0  0  0  0
 31 34  1  0  0  0  0
 34 35  1  0  0  0  0
 35 36  1  0  0  0  0
 35 37  2  0  0  0  0
 35 38  1  0  0  0  0
 38 39  1  0  0  0  0
 39 40  2  0  0  0  0
 39 41  1  0  0  0  0
 39 42  1  0  0  0  0
 42 44  1  0  0  0  0
 43 44  1  0  0  0  0
 43 47  1  0  0  0  0
 43 51  1  0  0  0  0
 43 55  1  0  0  0  0
 44 45  1  0  0  0  0
 44 46  1  0  0  0  0
 47 48  1  0  0  0  0
 47 49  1  0  0  0  0
 47 50  1  0  0  0  0
 51 52  1  0  0  0  0
 51 53  1  0  0  0  0
 51 54  1  0  0  0  0
 55 56  1  0  0  0  0
 55 57  1  0  0  0  0
 55 59  1  0  0  0  0
 57 58  1  0  0  0  0
 59 60  2  0  0  0  0
 59 61  1  0  0  0  0
 61 62  1  0  0  0  0
 61 63  1  0  0  0  0
 63 64  1  0  0  0  0
 63 65  1  0  0  0  0
 63 66  1  0  0  0  0
 66 67  1  0  0  0  0
 66 68  1  0  0  0  0
 66 69  1  0  0  0  0
 69 70  2  0  0  0  0
 69 71  1  0  0  0  0
 71 72  1  0  0  0  0
 71 73  1  0  0  0  0
 73 74  1  0  0  0  0
 73 75  1  0  0  0  0
 73 76  1  0  0  0  0
 76 77  1  0  0  0  0
 76 78  1  0  0  0  0
 76 79  1  0  0  0  0
 79 80  1  0  0  0  0
 80 81  2  0  0  0  0
 80 82  1  0  0  0  0
 82 83  1  0  0  0  0
 82 84  1  0  0  0  0
 82 85  1  0  0  0  0
M  BCL ATM N_Tr2TrTrPi C_TrTrTrPi H_S N_Tr2TrTrPi C_TrTrTrPi C_TrTrTrPi C_TrTrTrPi N_TrTrTrPi2 H_S H_S N_Tr2TrTrPi C_TrTrTrPi H_S N_TrTrTrPi2 C_TeTeTeTe H_S C_TeTeTeTe H_S O_Te2Te2TeTe H_S C_TeTeTeTe H_S O_Tr2TrTrPi2 P_TeTeTeTePi O_Te2Te2TeTe O_Tr2Tr2TrPi O_Te2Te2Te2Te C_TeTeTeTe H_S O_Te2Te2TeTe C_TeTeTeTe H_S H_S O_Tr2TrTrPi2 P_TeTeTeTePi O_Te2Te2TeTe O_Tr2Tr2TrPi O_Tr2TrTrPi2 P_TeTeTeTePi O_Tr2Tr2TrPi O_Te2Te2Te2Te O_Tr2TrTrPi2 C_TeTeTeTe C_TeTeTeTe H_S H_S C_TeTeTeTe H_S H_S H_S C_TeTeTeTe H_S H_S H_S C_TeTeTeTe H_S O_Te2Te2TeTe H_S C_TrTrTrPi O_Tr2Tr2TrPi N_TrTrTrPi2 H_S C_TeTeTeTe H_S H_S C_TeTeTeTe H_S H_S C_TrTrTrPi O_Tr2Tr2TrPi N_TrTrTrPi2 H_S C_TeTeTeTe H_S H_S C_TeTeTeTe H_S H_S S_Te2Te2TeTe C_TrTrTrPi O_Tr2Tr2TrPi C_TeTeTeTe H_S H_S H_S
M  BCL BND AromaticSingleBond AromaticDoubleBond NonConjugatedSingleBond AromaticDoubleBond AromaticSingleBond AromaticDoubleBond AromaticSingleBond AromaticSingleBond AromaticSingleBond ConjugatedSingleBond NonConjugatedSingleBond NonConjugatedSingleBond AromaticDoubleBond NonConjugatedSingleBond AromaticSingleBond NonConjugatedSingleBond NonConjugatedSingleBond NonConjugatedSingleBondInRing NonConjugatedSingleBondInRing NonConjugatedSingleBond NonConjugatedSingleBond NonConjugatedSingleBondInRing NonConjugatedSingleBond NonConjugatedSingleBond NonConjugatedSingleBond NonConjugatedSingleBondInRing ConjugatedSingleBond ConjugatedSingleBond ConjugatedDoubleBond ConjugatedSingleBond NonConjugatedSingleBond NonConjugatedSingleBondInRing NonConjugatedSingleBond NonConjugatedSingleBond NonConjugatedSingleBond NonConjugatedSingleBond ConjugatedSingleBond ConjugatedSingleBond ConjugatedDoubleBond ConjugatedSingleBond ConjugatedSingleBond ConjugatedDoubleBond ConjugatedSingleBond ConjugatedSingleBond NonConjugatedSingleBond NonConjugatedSingleBond NonConjugatedSingleBond NonConjugatedSingleBond NonConjugatedSingleBond NonConjugatedSingleBond NonConjugatedSingleBond NonConjugatedSingleBond NonConjugatedSingleBond NonConjugatedSingleBond NonConjugatedSingleBond NonConjugatedSingleBond NonConjugatedSingleBond NonConjugatedSingleBond NonConjugatedSingleBond NonConjugatedSingleBond NonConjugatedSingleBond ConjugatedDoubleBond AmideSingleBond NonConjugatedSingleBond NonConjugatedSingleBond NonConjugatedSingleBond NonConjugatedSingleBond NonConjugatedSingleBond NonConjugatedSingleBond NonConjugatedSingleBond NonConjugatedSingleBond ConjugatedDoubleBond AmideSingleBond NonConjugatedSingleBond NonConjugatedSingleBond NonConjugatedSingleBond NonConjugatedSingleBond NonConjugatedSingleBond NonConjugatedSingleBond NonConjugatedSingleBond NonConjugatedSingleBond ConjugatedSingleBond ConjugatedDoubleBond NonConjugatedSingleBond NonConjugatedSingleBond NonConjugatedSingleBond NonConjugatedSingleBond
M  BCL CHI  15   S  17   S  21   S  24   S  28   R  35   R  39   R  55   S
M  BCL DBI - - - - - - - - - -
M  END
> <ConfClashScore>
0 

> <ConfOneFourInteractionScore>
-0.984164 

> <ConfScore>
0.0864944 

> <ConfScorePBest>
0.00593146 

> <ConfTolerance>
3.02156 

$$$$
ACO.****
  PyMOL2.5          3D                             0

 85 87  0  0  0  0  0  0  0  0999 V2000
    4.8862    1.0729  -10.6419 N   0  0  0  1  0  0  0  0  0  0  0  0
    3.8415    1.9082  -10.5278 C   0  0  0  1  0  0  0  0  0  0  0  0
    3.8106    2.6866  -11.2167 H   0  0  0  1  0  0  0  0  0  0  0  0
    2.8426    1.8747   -9.6543 N   0  0  0  1  0  0  0  0  0  0  0  0
    2.9632    0.8429   -8.8178 C   0  0  0  1  0  0  0  0  0  0  0  0
    3.9907   -0.1100   -8.8061 C   0  0  0  1  0  0  0  0  0  0  0  0
    4.9750    0.0578   -9.7757 C   0  0  0  1  0  0  0  0  0  0  0  0
    6.0548   -0.7766   -9.8968 N   0  0  0  1  0  0  0  0  0  0  0  0
    6.1410   -1.5550   -9.3077 H   0  0  0  1  0  0  0  0  0  0  0  0
    6.7410   -0.5950  -10.5725 H   0  0  0  1  0  0  0  0  0  0  0  0
    3.7864   -1.0244   -7.7845 N   0  0  0  1  0  0  0  0  0  0  0  0
    2.6781   -0.6177   -7.2275 C   0  0  0  1  0  0  0  0  0  0  0  0
    2.2465   -1.1078   -6.4181 H   0  0  0  1  0  0  0  0  0  0  0  0
    2.1301    0.4963   -7.7856 N   0  0  0  1  0  0  0  0  0  0  0  0
    0.8653    1.1212   -7.4409 C   0  0  0  1  0  0  0  0  0  0  0  0
    0.8864    2.1519   -7.7274 H   0  0  0  1  0  0  0  0  0  0  0  0
   -0.2966    0.3963   -8.1384 C   0  0  0  1  0  0  0  0  0  0  0  0
   -0.0960   -0.6503   -8.2355 H   0  0  0  1  0  0  0  0  0  0  0  0
   -0.5527    0.9551   -9.4296 O   0  0  0  1  0  0  0  0  0  0  0  0
   -0.7597    1.8882   -9.3396 H   0  0  0  1  0  0  0  0  0  0  0  0
   -1.4584    0.6460   -7.1930 C   0  0  0  1  0  0  0  0  0  0  0  0
   -2.1624   -0.1590   -7.2266 H   0  0  0  1  0  0  0  0  0  0  0  0
   -2.1297    1.8883   -7.5092 O   0  0  0  1  0  0  0  0  0  0  0  0
   -3.7332    1.8499   -7.8514 P   0  0  0  1  0  0  0  0  0  0  0  0
   -4.4552    1.0836   -6.5940 O   0  0  0  0  0  0  0  0  0  0  0  0
   -4.2421    3.2032   -8.1676 O   0  0  0  1  0  0  0  0  0  0  0  0
   -3.9100    0.9878   -9.2115 O   0  5  0  1  0  0  0  0  0  0  0  0
   -0.7650    0.7232   -5.8103 C   0  0  0  1  0  0  0  0  0  0  0  0
   -1.1972    1.5058   -5.2225 H   0  0  0  1  0  0  0  0  0  0  0  0
    0.6224    1.0028   -6.0687 O   0  0  0  1  0  0  0  0  0  0  0  0
   -0.9028   -0.5616   -5.0976 C   0  0  0  1  0  0  0  0  0  0  0  0
   -0.8907   -0.3824   -4.0428 H   0  0  0  1  0  0  0  0  0  0  0  0
   -0.0855   -1.2000   -5.3609 H   0  0  0  1  0  0  0  0  0  0  0  0
   -2.1468   -1.2076   -5.4569 O   0  0  0  1  0  0  0  0  0  0  0  0
   -2.6631   -2.3875   -4.6671 P   0  0  0  1  0  0  0  0  0  0  0  0
   -3.5267   -1.9534   -3.4933 O   0  0  0  0  0  0  0  0  0  0  0  0
   -1.6137   -3.4069   -4.3010 O   0  0  0  1  0  0  0  0  0  0  0  0
   -3.7357   -3.1570   -5.5840 O   0  0  0  1  0  0  0  0  0  0  0  0
   -3.6520   -3.4573   -7.1941 P   0  0  0  1  0  0  0  0  0  0  0  0
   -4.2529   -4.7853   -7.4507 O   0  0  0  1  0  0  0  0  0  0  0  0
   -4.3168   -2.1621   -7.9046 O   0  5  0  1  0  0  0  0  0  0  0  0
   -2.1094   -3.5474   -7.4915 O   0  0  0  1  0  0  0  0  0  0  0  0
   -0.0719   -4.5264   -8.2172 C   0  0  0  1  0  0  0  0  0  0  0  0
   -1.5013   -4.8007   -7.8831 C   0  0  0  1  0  0  0  0  0  0  0  0
   -2.0056   -5.1987   -8.7387 H   0  0  0  1  0  0  0  0  0  0  0  0
   -1.5590   -5.5014   -7.0765 H   0  0  0  1  0  0  0  0  0  0  0  0
    0.0087   -3.3479   -9.2052 C   0  0  0  1  0  0  0  0  0  0  0  0
    0.4551   -2.5051   -8.7202 H   0  0  0  1  0  0  0  0  0  0  0  0
   -0.9765   -3.0898   -9.5333 H   0  0  0  1  0  0  0  0  0  0  0  0
    0.6036   -3.6301  -10.0487 H   0  0  0  1  0  0  0  0  0  0  0  0
    0.6967   -5.7179   -8.8330 C   0  0  0  1  0  0  0  0  0  0  0  0
    0.1721   -6.0744   -9.6947 H   0  0  0  1  0  0  0  0  0  0  0  0
    0.7727   -6.5042   -8.1114 H   0  0  0  1  0  0  0  0  0  0  0  0
    1.6774   -5.3997   -9.1192 H   0  0  0  1  0  0  0  0  0  0  0  0
    0.6566   -4.1185   -6.9317 C   0  0  0  1  0  0  0  0  0  0  0  0
    0.1730   -3.2361   -6.5679 H   0  0  0  1  0  0  0  0  0  0  0  0
    0.5271   -5.1362   -5.9417 O   0  0  0  1  0  0  0  0  0  0  0  0
   -0.0174   -4.8136   -5.2199 H   0  0  0  1  0  0  0  0  0  0  0  0
    2.1000   -3.7478   -7.2180 C   0  0  0  1  0  0  0  0  0  0  0  0
    2.4018   -3.0321   -8.1588 O   0  0  0  1  0  0  0  0  0  0  0  0
    2.9752   -4.2776   -6.3500 N   0  0  0  1  0  0  0  0  0  0  0  0
    2.6349   -4.8088   -5.6000 H   0  0  0  1  0  0  0  0  0  0  0  0
    4.4111   -4.0911   -6.4834 C   0  0  0  1  0  0  0  0  0  0  0  0
    4.6575   -4.0586   -7.5241 H   0  0  0  1  0  0  0  0  0  0  0  0
    4.9086   -4.9197   -6.0242 H   0  0  0  1  0  0  0  0  0  0  0  0
    4.8967   -2.8055   -5.8266 C   0  0  0  1  0  0  0  0  0  0  0  0
    4.1303   -2.0647   -5.9203 H   0  0  0  1  0  0  0  0  0  0  0  0
    5.7776   -2.4746   -6.3359 H   0  0  0  1  0  0  0  0  0  0  0  0
    5.2265   -2.9778   -4.3494 C   0  0  0  1  0  0  0  0  0  0  0  0
    6.0825   -3.7753   -3.9685 O   0  0  0  1  0  0  0  0  0  0  0  0
    4.5064   -2.1926   -3.5433 N   0  0  0  1  0  0  0  0  0  0  0  0
    3.8453   -1.5873   -3.9396 H   0  0  0  1  0  0  0  0  0  0  0  0
    4.6695   -2.2047   -2.0984 C   0  0  0  1  0  0  0  0  0  0  0  0
    5.4856   -2.8545   -1.8607 H   0  0  0  1  0  0  0  0  0  0  0  0
    3.7696   -2.5880   -1.6647 H   0  0  0  1  0  0  0  0  0  0  0  0
    4.9492   -0.8552   -1.4845 C   0  0  0  1  0  0  0  0  0  0  0  0
    5.7627   -0.3959   -2.0063 H   0  0  0  1  0  0  0  0  0  0  0  0
    5.2135   -0.9872   -0.4561 H   0  0  0  1  0  0  0  0  0  0  0  0
    3.4986    0.2200   -1.5882 S   0  0  0  1  0  0  0  0  0  0  0  0
    4.2299    1.7615   -1.1382 C   0  0  0  1  0  0  0  0  0  0  0  0
    5.3750    1.9099   -0.7963 O   0  0  0  1  0  0  0  0  0  0  0  0
    3.2549    2.9305   -1.2219 C   0  0  0  1  0  0  0  0  0  0  0  0
    2.2626    2.5829   -1.0234 H   0  0  0  1  0  0  0  0  0  0  0  0
    3.2935    3.3574   -2.2023 H   0  0  0  1  0  0  0  0  0  0  0  0
    3.5242    3.6717   -0.4987 H   0  0  0  1  0  0  0  0  0  0  0  0
  1  2  1  0  0  0  0
  1  7  2  0  0  0  0
  2  3  1  0  0  0  0
  2  4  2  0  0  0  0
  4  5  1  0  0  0  0
  5  6  2  0  0  0  0
  5 14  1  0  0  0  0
  6  7  1  0  0  0  0
  6 11  1  0  0  0  0
  7  8  1  0  0  0  0
  8  9  1  0  0  0  0
  8 10  1  0  0  0  0
 11 12  2  0  0  0  0
 12 13  1  0  0  0  0
 12 14  1  0  0  0  0
 14 15  1  0  0  0  0
 15 16  1  0  0  0  0
 15 17  1  0  0  0  0
 15 30  1  0  0  0  0
 17 18  1  0  0  0  0
 17 19  1  0  0  0  0
 17 21  1  0  0  0  0
 19 20  1  0  0  0  0
 21 22  1  0  0  0  0
 21 23  1  0  0  0  0
 21 28  1  0  0  0  0
 23 24  1  0  0  0  0
 24 25  1  0  0  0  0
 24 26  2  0  0  0  0
 24 27  1  0  0  0  0
 28 29  1  0  0  0  0
 28 30  1  0  0  0  0
 28 31  1  0  0  0  0
 31 32  1  0  0  0  0
 31 33  1  0  0  0  0
 31 34  1  0  0  0  0
 34 35  1  0  0  0  0
 35 36  1  0  0  0  0
 35 37  2  0  0  0  0
 35 38  1  0  0  0  0
 38 39  1  0  0  0  0
 39 40  2  0  0  0  0
 39 41  1  0  0  0  0
 39 42  1  0  0  0  0
 42 44  1  0  0  0  0
 43 44  1  0  0  0  0
 43 47  1  0  0  0  0
 43 51  1  0  0  0  0
 43 55  1  0  0  0  0
 44 45  1  0  0  0  0
 44 46  1  0  0  0  0
 47 48  1  0  0  0  0
 47 49  1  0  0  0  0
 47 50  1  0  0  0  0
 51 52  1  0  0  0  0
 51 53  1  0  0  0  0
 51 54  1  0  0  0  0
 55 56  1  0  0  0  0
 55 57  1  0  0  0  0
 55 59  1  0  0  0  0
 57 58  1  0  0  0  0
 59 60  2  0  0  0  0
 59 61  1  0  0  0  0
 61 62  1  0  0  0  0
 61 63  1  0  0  0  0
 63 64  1  0  0  0  0
 63 65  1  0  0  0  0
 63 66  1  0  0  0  0
 66 67  1  0  0  0  0
 66 68  1  0  0  0  0
 66 69  1  0  0  0  0
 69 70  2  0  0  0  0
 69 71  1  0  0  0  0
 71 72  1  0  0  0  0
 71 73  1  0  0  0  0
 73 74  1  0  0  0  0
 73 75  1  0  0  0  0
 73 76  1  0  0  0  0
 76 77  1  0  0  0  0
 76 78  1  0  0  0  0
 76 79  1  0  0  0  0
 79 80  1  0  0  0  0
 80 81  2  0  0  0  0
 80 82  1  0  0  0  0
 82 83  1  0  0  0  0
 82 84  1  0  0  0  0
 82 85  1  0  0  0  0
M  BCL ATM N_Tr2TrTrPi C_TrTrTrPi H_S N_Tr2TrTrPi C_TrTrTrPi C_TrTrTrPi C_TrTrTrPi N_TrTrTrPi2 H_S H_S N_Tr2TrTrPi C_TrTrTrPi H_S N_TrTrTrPi2 C_TeTeTeTe H_S C_TeTeTeTe H_S O_Te2Te2TeTe H_S C_TeTeTeTe H_S O_Tr2TrTrPi2 P_TeTeTeTePi O_Te2Te2TeTe O_Tr2Tr2TrPi O_Te2Te2Te2Te C_TeTeTeTe H_S O_Te2Te2TeTe C_TeTeTeTe H_S H_S O_Tr2TrTrPi2 P_TeTeTeTePi O_Te2Te2TeTe O_Tr2Tr2TrPi O_Tr2TrTrPi2 P_TeTeTeTePi O_Tr2Tr2TrPi O_Te2Te2Te2Te O_Tr2TrTrPi2 C_TeTeTeTe C_TeTeTeTe H_S H_S C_TeTeTeTe H_S H_S H_S C_TeTeTeTe H_S H_S H_S C_TeTeTeTe H_S O_Te2Te2TeTe H_S C_TrTrTrPi O_Tr2Tr2TrPi N_TrTrTrPi2 H_S C_TeTeTeTe H_S H_S C_TeTeTeTe H_S H_S C_TrTrTrPi O_Tr2Tr2TrPi N_TrTrTrPi2 H_S C_TeTeTeTe H_S H_S C_TeTeTeTe H_S H_S S_Te2Te2TeTe C_TrTrTrPi O_Tr2Tr2TrPi C_TeTeTeTe H_S H_S H_S
M  BCL BND AromaticSingleBond AromaticDoubleBond NonConjugatedSingleBond AromaticDoubleBond AromaticSingleBond AromaticDoubleBond AromaticSingleBond AromaticSingleBond AromaticSingleBond ConjugatedSingleBond NonConjugatedSingleBond NonConjugatedSingleBond AromaticDoubleBond NonConjugatedSingleBond AromaticSingleBond NonConjugatedSingleBond NonConjugatedSingleBond NonConjugatedSingleBondInRing NonConjugatedSingleBondInRing NonConjugatedSingleBond NonConjugatedSingleBond NonConjugatedSingleBondInRing NonConjugatedSingleBond NonConjugatedSingleBond NonConjugatedSingleBond NonConjugatedSingleBondInRing ConjugatedSingleBond ConjugatedSingleBond ConjugatedDoubleBond ConjugatedSingleBond NonConjugatedSingleBond NonConjugatedSingleBondInRing NonConjugatedSingleBond NonConjugatedSingleBond NonConjugatedSingleBond NonConjugatedSingleBond ConjugatedSingleBond ConjugatedSingleBond ConjugatedDoubleBond ConjugatedSingleBond ConjugatedSingleBond ConjugatedDoubleBond ConjugatedSingleBond ConjugatedSingleBond NonConjugatedSingleBond NonConjugatedSingleBond NonConjugatedSingleBond NonConjugatedSingleBond NonConjugatedSingleBond NonConjugatedSingleBond NonConjugatedSingleBond NonConjugatedSingleBond NonConjugatedSingleBond NonConjugatedSingleBond NonConjugatedSingleBond NonConjugatedSingleBond NonConjugatedSingleBond NonConjugatedSingleBond NonConjugatedSingleBond NonConjugatedSingleBond NonConjugatedSingleBond ConjugatedDoubleBond AmideSingleBond NonConjugatedSingleBond NonConjugatedSingleBond NonConjugatedSingleBond NonConjugatedSingleBond NonConjugatedSingleBond NonConjugatedSingleBond NonConjugatedSingleBond NonConjugatedSingleBond ConjugatedDoubleBond AmideSingleBond NonConjugatedSingleBond NonConjugatedSingleBond NonConjugatedSingleBond NonConjugatedSingleBond NonConjugatedSingleBond NonConjugatedSingleBond NonConjugatedSingleBond NonConjugatedSingleBond ConjugatedSingleBond ConjugatedDoubleBond NonConjugatedSingleBond NonConjugatedSingleBond NonConjugatedSingleBond NonConjugatedSingleBond
M  BCL CHI  15   S  17   S  21   S  24   S  28   R  35   R  39   R  55   S
M  BCL DBI - - - - - - - - - -
M  END
> <ConfClashScore>
0 

> <ConfOneFourInteractionScore>
-0.981803 

> <ConfScore>
0.0947034 

> <ConfScorePBest>
0.00582846 

> <ConfTolerance>
3.23073 

$$$$
ACO.****
  PyMOL2.5          3D                             0

 85 87  0  0  0  0  0  0  0  0999 V2000
    4.8949    1.0917  -10.6281 N   0  0  0  1  0  0  0  0  0  0  0  0
    3.8297    1.9033  -10.5351 C   0  0  0  1  0  0  0  0  0  0  0  0
    3.7894    2.6742  -11.2320 H   0  0  0  1  0  0  0  0  0  0  0  0
    2.8208    1.8547   -9.6738 N   0  0  0  1  0  0  0  0  0  0  0  0
    2.9549    0.8340   -8.8258 C   0  0  0  1  0  0  0  0  0  0  0  0
    4.0041   -0.0943   -8.7921 C   0  0  0  1  0  0  0  0  0  0  0  0
    4.9964    0.0872   -9.7510 C   0  0  0  1  0  0  0  0  0  0  0  0
    6.0621   -0.7841   -9.9054 N   0  0  0  1  0  0  0  0  0  0  0  0
    6.6287   -0.7287  -10.7032 H   0  0  0  1  0  0  0  0  0  0  0  0
    6.2496   -1.4559   -9.2170 H   0  0  0  1  0  0  0  0  0  0  0  0
    3.8082   -1.0035   -7.7642 N   0  0  0  1  0  0  0  0  0  0  0  0
    2.6838   -0.6176   -7.2249 C   0  0  0  1  0  0  0  0  0  0  0  0
    2.2535   -1.1100   -6.4163 H   0  0  0  1  0  0  0  0  0  0  0  0
    2.1170    0.4778   -7.8008 N   0  0  0  1  0  0  0  0  0  0  0  0
    0.8600    1.1453   -7.4043 C   0  0  0  1  0  0  0  0  0  0  0  0
    1.0142    2.2034   -7.3659 H   0  0  0  1  0  0  0  0  0  0  0  0
   -0.2727    0.7958   -8.3804 C   0  0  0  1  0  0  0  0  0  0  0  0
    0.1001    0.6729   -9.3759 H   0  0  0  1  0  0  0  0  0  0  0  0
   -1.2892    1.8016   -8.3720 O   0  0  0  1  0  0  0  0  0  0  0  0
   -0.9407    2.6125   -8.7496 H   0  0  0  1  0  0  0  0  0  0  0  0
   -0.7929   -0.5065   -7.8309 C   0  0  0  1  0  0  0  0  0  0  0  0
   -0.2204   -1.3333   -8.1964 H   0  0  0  1  0  0  0  0  0  0  0  0
   -2.1896   -0.6953   -8.1741 O   0  0  0  1  0  0  0  0  0  0  0  0
   -2.7966   -2.1969   -8.4316 P   0  0  0  1  0  0  0  0  0  0  0  0
   -4.4131   -2.1555   -8.7053 O   0  0  0  0  0  0  0  0  0  0  0  0
   -2.0140   -2.9204   -9.4584 O   0  0  0  1  0  0  0  0  0  0  0  0
   -2.5198   -2.8933   -6.9953 O   0  5  0  1  0  0  0  0  0  0  0  0
   -0.6163   -0.3420   -6.3184 C   0  0  0  1  0  0  0  0  0  0  0  0
   -1.5301   -0.0164   -5.8668 H   0  0  0  1  0  0  0  0  0  0  0  0
    0.4109    0.6636   -6.1669 O   0  0  0  1  0  0  0  0  0  0  0  0
   -0.1862   -1.6253   -5.7000 C   0  0  0  1  0  0  0  0  0  0  0  0
   -1.0425   -2.2254   -5.4729 H   0  0  0  1  0  0  0  0  0  0  0  0
    0.3623   -1.4313   -4.8021 H   0  0  0  1  0  0  0  0  0  0  0  0
    0.6271   -2.2871   -6.6199 O   0  0  0  1  0  0  0  0  0  0  0  0
    1.4949   -3.6300   -6.3134 P   0  0  0  1  0  0  0  0  0  0  0  0
    1.9149   -3.6492   -4.8909 O   0  0  0  0  0  0  0  0  0  0  0  0
    2.4982   -3.8642   -7.3772 O   0  0  0  1  0  0  0  0  0  0  0  0
    0.2185   -4.5820   -6.5274 O   0  0  0  1  0  0  0  0  0  0  0  0
    0.0628   -6.1179   -7.0808 P   0  0  0  1  0  0  0  0  0  0  0  0
    0.7302   -6.3454   -8.3820 O   0  0  0  1  0  0  0  0  0  0  0  0
    0.4401   -7.1998   -5.9356 O   0  5  0  1  0  0  0  0  0  0  0  0
   -1.4743   -6.4294   -7.2093 O   0  0  0  1  0  0  0  0  0  0  0  0
   -3.3310   -7.6651   -8.0902 C   0  0  0  1  0  0  0  0  0  0  0  0
   -1.9990   -7.0984   -8.3766 C   0  0  0  1  0  0  0  0  0  0  0  0
   -1.3338   -7.8874   -8.6593 H   0  0  0  1  0  0  0  0  0  0  0  0
   -2.0804   -6.3951   -9.1789 H   0  0  0  1  0  0  0  0  0  0  0  0
   -4.2926   -6.5280   -7.7276 C   0  0  0  1  0  0  0  0  0  0  0  0
   -4.4283   -5.8907   -8.5763 H   0  0  0  1  0  0  0  0  0  0  0  0
   -3.8843   -5.9607   -6.9175 H   0  0  0  1  0  0  0  0  0  0  0  0
   -5.2366   -6.9389   -7.4359 H   0  0  0  1  0  0  0  0  0  0  0  0
   -3.2667   -8.6759   -6.9437 C   0  0  0  1  0  0  0  0  0  0  0  0
   -4.0610   -9.3852   -7.0479 H   0  0  0  1  0  0  0  0  0  0  0  0
   -3.3672   -8.1628   -6.0101 H   0  0  0  1  0  0  0  0  0  0  0  0
   -2.3268   -9.1866   -6.9712 H   0  0  0  1  0  0  0  0  0  0  0  0
   -3.8560   -8.3553   -9.3532 C   0  0  0  1  0  0  0  0  0  0  0  0
   -3.2043   -9.1679   -9.5979 H   0  0  0  1  0  0  0  0  0  0  0  0
   -5.1748   -8.8288   -9.1356 O   0  0  0  1  0  0  0  0  0  0  0  0
   -5.2623   -9.1274   -8.2274 H   0  0  0  1  0  0  0  0  0  0  0  0
   -3.8485   -7.3546  -10.4989 C   0  0  0  1  0  0  0  0  0  0  0  0
   -2.7986   -6.8611  -10.9086 O   0  0  0  1  0  0  0  0  0  0  0  0
   -5.0490   -7.0556  -11.0199 N   0  0  0  1  0  0  0  0  0  0  0  0
   -5.8394   -7.5324  -10.6909 H   0  0  0  1  0  0  0  0  0  0  0  0
   -5.2175   -6.0480  -12.0563 C   0  0  0  1  0  0  0  0  0  0  0  0
   -4.4809   -5.2826  -11.9277 H   0  0  0  1  0  0  0  0  0  0  0  0
   -6.1949   -5.6200  -11.9771 H   0  0  0  1  0  0  0  0  0  0  0  0
   -5.0541   -6.6762  -13.4341 C   0  0  0  1  0  0  0  0  0  0  0  0
   -4.0799   -7.1146  -13.4952 H   0  0  0  1  0  0  0  0  0  0  0  0
   -5.1466   -5.9071  -14.1723 H   0  0  0  1  0  0  0  0  0  0  0  0
   -6.0853   -7.7496  -13.7236 C   0  0  0  1  0  0  0  0  0  0  0  0
   -7.2864   -7.4863  -13.7653 O   0  0  0  1  0  0  0  0  0  0  0  0
   -5.6004   -8.9840  -13.9270 N   0  0  0  1  0  0  0  0  0  0  0  0
   -4.6292   -9.1118  -13.9563 H   0  0  0  1  0  0  0  0  0  0  0  0
   -6.4794  -10.1568  -14.1083 C   0  0  0  1  0  0  0  0  0  0  0  0
   -5.9284  -10.9587  -14.5535 H   0  0  0  1  0  0  0  0  0  0  0  0
   -7.3053   -9.8983  -14.7376 H   0  0  0  1  0  0  0  0  0  0  0  0
   -6.9818  -10.5731  -12.7481 C   0  0  0  1  0  0  0  0  0  0  0  0
   -7.7375  -11.3176  -12.8877 H   0  0  0  1  0  0  0  0  0  0  0  0
   -7.4100   -9.7137  -12.2758 H   0  0  0  1  0  0  0  0  0  0  0  0
   -5.7240  -11.2526  -11.6404 S   0  0  0  1  0  0  0  0  0  0  0  0
   -5.4429  -12.8570  -12.3312 C   0  0  0  1  0  0  0  0  0  0  0  0
   -6.0037  -13.3190  -13.2799 O   0  0  0  1  0  0  0  0  0  0  0  0
   -4.3716  -13.6132  -11.5599 C   0  0  0  1  0  0  0  0  0  0  0  0
   -3.4502  -13.0709  -11.6036 H   0  0  0  1  0  0  0  0  0  0  0  0
   -4.2362  -14.5816  -11.9943 H   0  0  0  1  0  0  0  0  0  0  0  0
   -4.6749  -13.7188  -10.5392 H   0  0  0  1  0  0  0  0  0  0  0  0
  1  2  1  0  0  0  0
  1  7  2  0  0  0  0
  2  3  1  0  0  0  0
  2  4  2  0  0  0  0
  4  5  1  0  0  0  0
  5  6  2  0  0  0  0
  5 14  1  0  0  0  0
  6  7  1  0  0  0  0
  6 11  1  0  0  0  0
  7  8  1  0  0  0  0
  8  9  1  0  0  0  0
  8 10  1  0  0  0  0
 11 12  2  0  0  0  0
 12 13  1  0  0  0  0
 12 14  1  0  0  0  0
 14 15  1  0  0  0  0
 15 16  1  0  0  0  0
 15 17  1  0  0  0  0
 15 30  1  0  0  0  0
 17 18  1  0  0  0  0
 17 19  1  0  0  0  0
 17 21  1  0  0  0  0
 19 20  1  0  0  0  0
 21 22  1  0  0  0  0
 21 23  1  0  0  0  0
 21 28  1  0  0  0  0
 23 24  1  0  0  0  0
 24 25  1  0  0  0  0
 24 26  2  0  0  0  0
 24 27  1  0  0  0  0
 28 29  1  0  0  0  0
 28 30  1  0  0  0  0
 28 31  1  0  0  0  0
 31 32  1  0  0  0  0
 31 33  1  0  0  0  0
 31 34  1  0  0  0  0
 34 35  1  0  0  0  0
 35 36  1  0  0  0  0
 35 37  2  0  0  0  0
 35 38  1  0  0  0  0
 38 39  1  0  0  0  0
 39 40  2  0  0  0  0
 39 41  1  0  0  0  0
 39 42  1  0  0  0  0
 42 44  1  0  0  0  0
 43 44  1  0  0  0  0
 43 47  1  0  0  0  0
 43 51  1  0  0  0  0
 43 55  1  0  0  0  0
 44 45  1  0  0  0  0
 44 46  1  0  0  0  0
 47 48  1  0  0  0  0
 47 49  1  0  0  0  0
 47 50  1  0  0  0  0
 51 52  1  0  0  0  0
 51 53  1  0  0  0  0
 51 54  1  0  0  0  0
 55 56  1  0  0  0  0
 55 57  1  0  0  0  0
 55 59  1  0  0  0  0
 57 58  1  0  0  0  0
 59 60  2  0  0  0  0
 59 61  1  0  0  0  0
 61 62  1  0  0  0  0
 61 63  1  0  0  0  0
 63 64  1  0  0  0  0
 63 65  1  0  0  0  0
 63 66  1  0  0  0  0
 66 67  1  0  0  0  0
 66 68  1  0  0  0  0
 66 69  1  0  0  0  0
 69 70  2  0  0  0  0
 69 71  1  0  0  0  0
 71 72  1  0  0  0  0
 71 73  1  0  0  0  0
 73 74  1  0  0  0  0
 73 75  1  0  0  0  0
 73 76  1  0  0  0  0
 76 77  1  0  0  0  0
 76 78  1  0  0  0  0
 76 79  1  0  0  0  0
 79 80  1  0  0  0  0
 80 81  2  0  0  0  0
 80 82  1  0  0  0  0
 82 83  1  0  0  0  0
 82 84  1  0  0  0  0
 82 85  1  0  0  0  0
M  BCL ATM N_Tr2TrTrPi C_TrTrTrPi H_S N_Tr2TrTrPi C_TrTrTrPi C_TrTrTrPi C_TrTrTrPi N_TrTrTrPi2 H_S H_S N_Tr2TrTrPi C_TrTrTrPi H_S N_TrTrTrPi2 C_TeTeTeTe H_S C_TeTeTeTe H_S O_Te2Te2TeTe H_S C_TeTeTeTe H_S O_Tr2TrTrPi2 P_TeTeTeTePi O_Te2Te2TeTe O_Tr2Tr2TrPi O_Te2Te2Te2Te C_TeTeTeTe H_S O_Te2Te2TeTe C_TeTeTeTe H_S H_S O_Tr2TrTrPi2 P_TeTeTeTePi O_Te2Te2TeTe O_Tr2Tr2TrPi O_Tr2TrTrPi2 P_TeTeTeTePi O_Tr2Tr2TrPi O_Te2Te2Te2Te O_Tr2TrTrPi2 C_TeTeTeTe C_TeTeTeTe H_S H_S C_TeTeTeTe H_S H_S H_S C_TeTeTeTe H_S H_S H_S C_TeTeTeTe H_S O_Te2Te2TeTe H_S C_TrTrTrPi O_Tr2Tr2TrPi N_TrTrTrPi2 H_S C_TeTeTeTe H_S H_S C_TeTeTeTe H_S H_S C_TrTrTrPi O_Tr2Tr2TrPi N_TrTrTrPi2 H_S C_TeTeTeTe H_S H_S C_TeTeTeTe H_S H_S S_Te2Te2TeTe C_TrTrTrPi O_Tr2Tr2TrPi C_TeTeTeTe H_S H_S H_S
M  BCL BND AromaticSingleBond AromaticDoubleBond NonConjugatedSingleBond AromaticDoubleBond AromaticSingleBond AromaticDoubleBond AromaticSingleBond AromaticSingleBond AromaticSingleBond ConjugatedSingleBond NonConjugatedSingleBond NonConjugatedSingleBond AromaticDoubleBond NonConjugatedSingleBond AromaticSingleBond NonConjugatedSingleBond NonConjugatedSingleBond NonConjugatedSingleBondInRing NonConjugatedSingleBondInRing NonConjugatedSingleBond NonConjugatedSingleBond NonConjugatedSingleBondInRing NonConjugatedSingleBond NonConjugatedSingleBond NonConjugatedSingleBond NonConjugatedSingleBondInRing ConjugatedSingleBond ConjugatedSingleBond ConjugatedDoubleBond ConjugatedSingleBond NonConjugatedSingleBond NonConjugatedSingleBondInRing NonConjugatedSingleBond NonConjugatedSingleBond NonConjugatedSingleBond NonConjugatedSingleBond ConjugatedSingleBond ConjugatedSingleBond ConjugatedDoubleBond ConjugatedSingleBond ConjugatedSingleBond ConjugatedDoubleBond ConjugatedSingleBond ConjugatedSingleBond NonConjugatedSingleBond NonConjugatedSingleBond NonConjugatedSingleBond NonConjugatedSingleBond NonConjugatedSingleBond NonConjugatedSingleBond NonConjugatedSingleBond NonConjugatedSingleBond NonConjugatedSingleBond NonConjugatedSingleBond NonConjugatedSingleBond NonConjugatedSingleBond NonConjugatedSingleBond NonConjugatedSingleBond NonConjugatedSingleBond NonConjugatedSingleBond NonConjugatedSingleBond ConjugatedDoubleBond AmideSingleBond NonConjugatedSingleBond NonConjugatedSingleBond NonConjugatedSingleBond NonConjugatedSingleBond NonConjugatedSingleBond NonConjugatedSingleBond NonConjugatedSingleBond NonConjugatedSingleBond ConjugatedDoubleBond AmideSingleBond NonConjugatedSingleBond NonConjugatedSingleBond NonConjugatedSingleBond NonConjugatedSingleBond NonConjugatedSingleBond NonConjugatedSingleBond NonConjugatedSingleBond NonConjugatedSingleBond ConjugatedSingleBond ConjugatedDoubleBond NonConjugatedSingleBond NonConjugatedSingleBond NonConjugatedSingleBond NonConjugatedSingleBond
M  BCL CHI  15   S  17   S  21   S  24   S  28   R  35   R  39   R  55   S
M  BCL DBI - - - - - - - - - -
M  END
> <ConfClashScore>
0.000823662 

> <ConfOneFourInteractionScore>
-0.98226 

> <ConfScore>
0.098123 

> <ConfScorePBest>
0.00572546 

> <ConfTolerance>
3.19904 

$$$$
ACO.****
  PyMOL2.5          3D                             0

 85 87  0  0  0  0  0  0  0  0999 V2000
    4.8898    1.0779  -10.6399 N   0  0  0  1  0  0  0  0  0  0  0  0
    3.8358    1.9025  -10.5342 C   0  0  0  1  0  0  0  0  0  0  0  0
    3.8041    2.6822  -11.2217 H   0  0  0  1  0  0  0  0  0  0  0  0
    2.8287    1.8571   -9.6708 N   0  0  0  1  0  0  0  0  0  0  0  0
    2.9512    0.8245   -8.8355 C   0  0  0  1  0  0  0  0  0  0  0  0
    3.9879   -0.1181   -8.8158 C   0  0  0  1  0  0  0  0  0  0  0  0
    4.9800    0.0616   -9.7751 C   0  0  0  1  0  0  0  0  0  0  0  0
    6.0692   -0.7617   -9.8873 N   0  0  0  1  0  0  0  0  0  0  0  0
    6.7444   -0.5900  -10.5766 H   0  0  0  1  0  0  0  0  0  0  0  0
    6.1732   -1.5225   -9.2783 H   0  0  0  1  0  0  0  0  0  0  0  0
    3.7824   -1.0369   -7.7983 N   0  0  0  1  0  0  0  0  0  0  0  0
    2.6648   -0.6425   -7.2514 C   0  0  0  1  0  0  0  0  0  0  0  0
    2.2300   -1.1388   -6.4475 H   0  0  0  1  0  0  0  0  0  0  0  0
    2.1113    0.4673   -7.8125 N   0  0  0  1  0  0  0  0  0  0  0  0
    0.9003    1.2111   -7.3288 C   0  0  0  1  0  0  0  0  0  0  0  0
    0.9535    2.2294   -7.6530 H   0  0  0  1  0  0  0  0  0  0  0  0
   -0.3777    0.5499   -7.8806 C   0  0  0  1  0  0  0  0  0  0  0  0
   -0.2399   -0.5015   -8.0237 H   0  0  0  1  0  0  0  0  0  0  0  0
   -0.7814    1.1507   -9.1139 O   0  0  0  1  0  0  0  0  0  0  0  0
   -1.7159    0.9861   -9.2598 H   0  0  0  1  0  0  0  0  0  0  0  0
   -1.3937    0.8312   -6.7659 C   0  0  0  1  0  0  0  0  0  0  0  0
   -2.1173    0.0458   -6.6991 H   0  0  0  1  0  0  0  0  0  0  0  0
   -2.0711    2.0971   -6.9857 O   0  0  0  1  0  0  0  0  0  0  0  0
   -3.3854    2.5720   -6.1273 P   0  0  0  1  0  0  0  0  0  0  0  0
   -3.6958    4.0644   -6.7323 O   0  0  0  0  0  0  0  0  0  0  0  0
   -4.5572    1.6685   -6.1536 O   0  0  0  1  0  0  0  0  0  0  0  0
   -2.6574    2.7570   -4.6920 O   0  5  0  1  0  0  0  0  0  0  0  0
   -0.5224    0.8852   -5.5050 C   0  0  0  1  0  0  0  0  0  0  0  0
   -0.8640    1.6638   -4.8555 H   0  0  0  1  0  0  0  0  0  0  0  0
    0.8341    1.1580   -5.9390 O   0  0  0  1  0  0  0  0  0  0  0  0
   -0.5778   -0.4231   -4.7871 C   0  0  0  1  0  0  0  0  0  0  0  0
    0.1418   -0.4349   -3.9952 H   0  0  0  1  0  0  0  0  0  0  0  0
   -0.3719   -1.2218   -5.4687 H   0  0  0  1  0  0  0  0  0  0  0  0
   -1.9138   -0.5704   -4.2426 O   0  0  0  1  0  0  0  0  0  0  0  0
   -2.2152   -1.6331   -3.0597 P   0  0  0  1  0  0  0  0  0  0  0  0
   -3.6584   -1.5315   -2.6773 O   0  0  0  0  0  0  0  0  0  0  0  0
   -1.1581   -1.3951   -2.0595 O   0  0  0  1  0  0  0  0  0  0  0  0
   -2.0940   -3.0679   -3.7654 O   0  0  0  1  0  0  0  0  0  0  0  0
   -0.7751   -3.8765   -4.3095 P   0  0  0  1  0  0  0  0  0  0  0  0
   -0.9793   -4.4418   -5.6620 O   0  0  0  1  0  0  0  0  0  0  0  0
    0.4660   -2.8403   -4.2071 O   0  5  0  1  0  0  0  0  0  0  0  0
   -0.4614   -4.8741   -3.1336 O   0  0  0  1  0  0  0  0  0  0  0  0
    0.7024   -5.2596   -1.0699 C   0  0  0  1  0  0  0  0  0  0  0  0
   -0.2504   -4.3899   -1.7865 C   0  0  0  1  0  0  0  0  0  0  0  0
   -1.1840   -4.3843   -1.2638 H   0  0  0  1  0  0  0  0  0  0  0  0
    0.1422   -3.3954   -1.8270 H   0  0  0  1  0  0  0  0  0  0  0  0
    2.0077   -5.3652   -1.8634 C   0  0  0  1  0  0  0  0  0  0  0  0
    2.7179   -5.9411   -1.3077 H   0  0  0  1  0  0  0  0  0  0  0  0
    2.4004   -4.3849   -2.0357 H   0  0  0  1  0  0  0  0  0  0  0  0
    1.8168   -5.8434   -2.8014 H   0  0  0  1  0  0  0  0  0  0  0  0
    0.0873   -6.6622   -0.9007 C   0  0  0  1  0  0  0  0  0  0  0  0
    0.7626   -7.2845   -0.3515 H   0  0  0  1  0  0  0  0  0  0  0  0
   -0.0901   -7.0922   -1.8643 H   0  0  0  1  0  0  0  0  0  0  0  0
   -0.8379   -6.5839   -0.3688 H   0  0  0  1  0  0  0  0  0  0  0  0
    0.9936   -4.6665    0.3137 C   0  0  0  1  0  0  0  0  0  0  0  0
    1.5724   -5.3699    0.8751 H   0  0  0  1  0  0  0  0  0  0  0  0
    1.6974   -3.4434    0.1795 O   0  0  0  1  0  0  0  0  0  0  0  0
    1.4132   -2.9963   -0.6211 H   0  0  0  1  0  0  0  0  0  0  0  0
   -0.3274   -4.4274    1.0344 C   0  0  0  1  0  0  0  0  0  0  0  0
   -0.8169   -3.3008    1.1032 O   0  0  0  1  0  0  0  0  0  0  0  0
   -0.8491   -5.5064    1.6391 N   0  0  0  1  0  0  0  0  0  0  0  0
   -0.3633   -6.3562    1.5917 H   0  0  0  1  0  0  0  0  0  0  0  0
   -2.1109   -5.4580    2.3626 C   0  0  0  1  0  0  0  0  0  0  0  0
   -2.4775   -4.4530    2.3456 H   0  0  0  1  0  0  0  0  0  0  0  0
   -1.9373   -5.7579    3.3750 H   0  0  0  1  0  0  0  0  0  0  0  0
   -3.1649   -6.3713    1.7581 C   0  0  0  1  0  0  0  0  0  0  0  0
   -3.9986   -6.4019    2.4280 H   0  0  0  1  0  0  0  0  0  0  0  0
   -2.7419   -7.3501    1.6693 H   0  0  0  1  0  0  0  0  0  0  0  0
   -3.6773   -5.9575    0.3923 C   0  0  0  1  0  0  0  0  0  0  0  0
   -4.1859   -4.8523    0.2091 O   0  0  0  1  0  0  0  0  0  0  0  0
   -3.5378   -6.8682   -0.5831 N   0  0  0  1  0  0  0  0  0  0  0  0
   -3.2753   -7.7815   -0.3434 H   0  0  0  1  0  0  0  0  0  0  0  0
   -3.7642   -6.5448   -1.9940 C   0  0  0  1  0  0  0  0  0  0  0  0
   -3.8983   -5.4883   -2.0969 H   0  0  0  1  0  0  0  0  0  0  0  0
   -4.6425   -7.0514   -2.3358 H   0  0  0  1  0  0  0  0  0  0  0  0
   -2.5873   -6.9785   -2.8227 C   0  0  0  1  0  0  0  0  0  0  0  0
   -2.5970   -8.0478   -2.8590 H   0  0  0  1  0  0  0  0  0  0  0  0
   -1.7022   -6.6461   -2.3217 H   0  0  0  1  0  0  0  0  0  0  0  0
   -2.5035   -6.3800   -4.5232 S   0  0  0  1  0  0  0  0  0  0  0  0
   -1.8658   -7.8039   -5.3950 C   0  0  0  1  0  0  0  0  0  0  0  0
   -1.5319   -8.8281   -4.8655 O   0  0  0  1  0  0  0  0  0  0  0  0
   -1.5423   -7.5320   -6.8805 C   0  0  0  1  0  0  0  0  0  0  0  0
   -0.6582   -6.9333   -6.9498 H   0  0  0  1  0  0  0  0  0  0  0  0
   -2.3607   -7.0131   -7.3343 H   0  0  0  1  0  0  0  0  0  0  0  0
   -1.3840   -8.4614   -7.3867 H   0  0  0  1  0  0  0  0  0  0  0  0
  1  2  1  0  0  0  0
  1  7  2  0  0  0  0
  2  3  1  0  0  0  0
  2  4  2  0  0  0  0
  4  5  1  0  0  0  0
  5  6  2  0  0  0  0
  5 14  1  0  0  0  0
  6  7  1  0  0  0  0
  6 11  1  0  0  0  0
  7  8  1  0  0  0  0
  8  9  1  0  0  0  0
  8 10  1  0  0  0  0
 11 12  2  0  0  0  0
 12 13  1  0  0  0  0
 12 14  1  0  0  0  0
 14 15  1  0  0  0  0
 15 16  1  0  0  0  0
 15 17  1  0  0  0  0
 15 30  1  0  0  0  0
 17 18  1  0  0  0  0
 17 19  1  0  0  0  0
 17 21  1  0  0  0  0
 19 20  1  0  0  0  0
 21 22  1  0  0  0  0
 21 23  1  0  0  0  0
 21 28  1  0  0  0  0
 23 24  1  0  0  0  0
 24 25  1  0  0  0  0
 24 26  2  0  0  0  0
 24 27  1  0  0  0  0
 28 29  1  0  0  0  0
 28 30  1  0  0  0  0
 28 31  1  0  0  0  0
 31 32  1  0  0  0  0
 31 33  1  0  0  0  0
 31 34  1  0  0  0  0
 34 35  1  0  0  0  0
 35 36  1  0  0  0  0
 35 37  2  0  0  0  0
 35 38  1  0  0  0  0
 38 39  1  0  0  0  0
 39 40  2  0  0  0  0
 39 41  1  0  0  0  0
 39 42  1  0  0  0  0
 42 44  1  0  0  0  0
 43 44  1  0  0  0  0
 43 47  1  0  0  0  0
 43 51  1  0  0  0  0
 43 55  1  0  0  0  0
 44 45  1  0  0  0  0
 44 46  1  0  0  0  0
 47 48  1  0  0  0  0
 47 49  1  0  0  0  0
 47 50  1  0  0  0  0
 51 52  1  0  0  0  0
 51 53  1  0  0  0  0
 51 54  1  0  0  0  0
 55 56  1  0  0  0  0
 55 57  1  0  0  0  0
 55 59  1  0  0  0  0
 57 58  1  0  0  0  0
 59 60  2  0  0  0  0
 59 61  1  0  0  0  0
 61 62  1  0  0  0  0
 61 63  1  0  0  0  0
 63 64  1  0  0  0  0
 63 65  1  0  0  0  0
 63 66  1  0  0  0  0
 66 67  1  0  0  0  0
 66 68  1  0  0  0  0
 66 69  1  0  0  0  0
 69 70  2  0  0  0  0
 69 71  1  0  0  0  0
 71 72  1  0  0  0  0
 71 73  1  0  0  0  0
 73 74  1  0  0  0  0
 73 75  1  0  0  0  0
 73 76  1  0  0  0  0
 76 77  1  0  0  0  0
 76 78  1  0  0  0  0
 76 79  1  0  0  0  0
 79 80  1  0  0  0  0
 80 81  2  0  0  0  0
 80 82  1  0  0  0  0
 82 83  1  0  0  0  0
 82 84  1  0  0  0  0
 82 85  1  0  0  0  0
M  BCL ATM N_Tr2TrTrPi C_TrTrTrPi H_S N_Tr2TrTrPi C_TrTrTrPi C_TrTrTrPi C_TrTrTrPi N_TrTrTrPi2 H_S H_S N_Tr2TrTrPi C_TrTrTrPi H_S N_TrTrTrPi2 C_TeTeTeTe H_S C_TeTeTeTe H_S O_Te2Te2TeTe H_S C_TeTeTeTe H_S O_Tr2TrTrPi2 P_TeTeTeTePi O_Te2Te2TeTe O_Tr2Tr2TrPi O_Te2Te2Te2Te C_TeTeTeTe H_S O_Te2Te2TeTe C_TeTeTeTe H_S H_S O_Tr2TrTrPi2 P_TeTeTeTePi O_Te2Te2TeTe O_Tr2Tr2TrPi O_Tr2TrTrPi2 P_TeTeTeTePi O_Tr2Tr2TrPi O_Te2Te2Te2Te O_Tr2TrTrPi2 C_TeTeTeTe C_TeTeTeTe H_S H_S C_TeTeTeTe H_S H_S H_S C_TeTeTeTe H_S H_S H_S C_TeTeTeTe H_S O_Te2Te2TeTe H_S C_TrTrTrPi O_Tr2Tr2TrPi N_TrTrTrPi2 H_S C_TeTeTeTe H_S H_S C_TeTeTeTe H_S H_S C_TrTrTrPi O_Tr2Tr2TrPi N_TrTrTrPi2 H_S C_TeTeTeTe H_S H_S C_TeTeTeTe H_S H_S S_Te2Te2TeTe C_TrTrTrPi O_Tr2Tr2TrPi C_TeTeTeTe H_S H_S H_S
M  BCL BND AromaticSingleBond AromaticDoubleBond NonConjugatedSingleBond AromaticDoubleBond AromaticSingleBond AromaticDoubleBond AromaticSingleBond AromaticSingleBond AromaticSingleBond ConjugatedSingleBond NonConjugatedSingleBond NonConjugatedSingleBond AromaticDoubleBond NonConjugatedSingleBond AromaticSingleBond NonConjugatedSingleBond NonConjugatedSingleBond NonConjugatedSingleBondInRing NonConjugatedSingleBondInRing NonConjugatedSingleBond NonConjugatedSingleBond NonConjugatedSingleBondInRing NonConjugatedSingleBond NonConjugatedSingleBond NonConjugatedSingleBond NonConjugatedSingleBondInRing ConjugatedSingleBond ConjugatedSingleBond ConjugatedDoubleBond ConjugatedSingleBond NonConjugatedSingleBond NonConjugatedSingleBondInRing NonConjugatedSingleBond NonConjugatedSingleBond NonConjugatedSingleBond NonConjugatedSingleBond ConjugatedSingleBond ConjugatedSingleBond ConjugatedDoubleBond ConjugatedSingleBond ConjugatedSingleBond ConjugatedDoubleBond ConjugatedSingleBond ConjugatedSingleBond NonConjugatedSingleBond NonConjugatedSingleBond NonConjugatedSingleBond NonConjugatedSingleBond NonConjugatedSingleBond NonConjugatedSingleBond NonConjugatedSingleBond NonConjugatedSingleBond NonConjugatedSingleBond NonConjugatedSingleBond NonConjugatedSingleBond NonConjugatedSingleBond NonConjugatedSingleBond NonConjugatedSingleBond NonConjugatedSingleBond NonConjugatedSingleBond NonConjugatedSingleBond ConjugatedDoubleBond AmideSingleBond NonConjugatedSingleBond NonConjugatedSingleBond NonConjugatedSingleBond NonConjugatedSingleBond NonConjugatedSingleBond NonConjugatedSingleBond NonConjugatedSingleBond NonConjugatedSingleBond ConjugatedDoubleBond AmideSingleBond NonConjugatedSingleBond NonConjugatedSingleBond NonConjugatedSingleBond NonConjugatedSingleBond NonConjugatedSingleBond NonConjugatedSingleBond NonConjugatedSingleBond NonConjugatedSingleBond ConjugatedSingleBond ConjugatedDoubleBond NonConjugatedSingleBond NonConjugatedSingleBond NonConjugatedSingleBond NonConjugatedSingleBond
M  BCL CHI  15   S  17   S  21   S  24   S  28   R  35   R  39   R  55   S
M  BCL DBI - - - - - - - - - -
M  END
> <ConfClashScore>
0.000473925 

> <ConfOneFourInteractionScore>
-0.978231 

> <ConfScore>
0.102676 

> <ConfScorePBest>
0.00562246 

> <ConfTolerance>
3.24384 

$$$$
ACO.****
  PyMOL2.5          3D                             0

 85 87  0  0  0  0  0  0  0  0999 V2000
    4.8832    1.0528  -10.6301 N   0  0  0  1  0  0  0  0  0  0  0  0
    3.8359    1.8862  -10.5272 C   0  0  0  1  0  0  0  0  0  0  0  0
    3.8073    2.6604  -11.2209 H   0  0  0  1  0  0  0  0  0  0  0  0
    2.8319    1.8555   -9.6595 N   0  0  0  1  0  0  0  0  0  0  0  0
    2.9499    0.8290   -8.8162 C   0  0  0  1  0  0  0  0  0  0  0  0
    3.9795   -0.1214   -8.7927 C   0  0  0  1  0  0  0  0  0  0  0  0
    4.9691    0.0430   -9.7574 C   0  0  0  1  0  0  0  0  0  0  0  0
    6.0878   -0.7675   -9.9173 N   0  0  0  1  0  0  0  0  0  0  0  0
    6.1638   -1.6032   -9.4111 H   0  0  0  1  0  0  0  0  0  0  0  0
    6.8002   -0.5030  -10.5361 H   0  0  0  1  0  0  0  0  0  0  0  0
    3.7711   -1.0301   -7.7669 N   0  0  0  1  0  0  0  0  0  0  0  0
    2.6587   -0.6227   -7.2189 C   0  0  0  1  0  0  0  0  0  0  0  0
    2.2233   -1.1091   -6.4093 H   0  0  0  1  0  0  0  0  0  0  0  0
    2.1113    0.4866   -7.7870 N   0  0  0  1  0  0  0  0  0  0  0  0
    0.8800    1.2176   -7.4234 C   0  0  0  1  0  0  0  0  0  0  0  0
    1.1324    2.2099   -7.1127 H   0  0  0  1  0  0  0  0  0  0  0  0
   -0.0918    1.2555   -8.6065 C   0  0  0  1  0  0  0  0  0  0  0  0
    0.4245    1.1090   -9.5322 H   0  0  0  1  0  0  0  0  0  0  0  0
   -0.8021    2.4960   -8.6473 O   0  0  0  1  0  0  0  0  0  0  0  0
   -0.3516    3.1040   -9.2381 H   0  0  0  1  0  0  0  0  0  0  0  0
   -1.0247    0.1080   -8.3208 C   0  0  0  1  0  0  0  0  0  0  0  0
   -0.6222   -0.8154   -8.6818 H   0  0  0  1  0  0  0  0  0  0  0  0
   -2.3226    0.3324   -8.9128 O   0  0  0  1  0  0  0  0  0  0  0  0
   -2.9295   -0.7070  -10.0268 P   0  0  0  1  0  0  0  0  0  0  0  0
   -1.9596   -0.4514  -11.3243 O   0  0  0  0  0  0  0  0  0  0  0  0
   -2.8725   -2.1338   -9.6378 O   0  0  0  1  0  0  0  0  0  0  0  0
   -4.3888   -0.2758  -10.5827 O   0  5  0  1  0  0  0  0  0  0  0  0
   -1.1071    0.1142   -6.7875 C   0  0  0  1  0  0  0  0  0  0  0  0
   -1.8534    0.8031   -6.4508 H   0  0  0  1  0  0  0  0  0  0  0  0
    0.1686    0.5229   -6.3744 O   0  0  0  1  0  0  0  0  0  0  0  0
   -1.4151   -1.2349   -6.2751 C   0  0  0  1  0  0  0  0  0  0  0  0
   -0.6377   -1.9091   -6.5684 H   0  0  0  1  0  0  0  0  0  0  0  0
   -2.3468   -1.5636   -6.6861 H   0  0  0  1  0  0  0  0  0  0  0  0
   -1.5110   -1.2172   -4.8314 O   0  0  0  1  0  0  0  0  0  0  0  0
   -0.5593   -2.0225   -3.9837 P   0  0  0  1  0  0  0  0  0  0  0  0
    0.0946   -1.1489   -2.8675 O   0  0  0  0  0  0  0  0  0  0  0  0
    0.5145   -2.7327   -4.7561 O   0  0  0  1  0  0  0  0  0  0  0  0
   -1.3595   -3.1823   -3.1888 O   0  0  0  1  0  0  0  0  0  0  0  0
   -0.6039   -4.2194   -2.1675 P   0  0  0  1  0  0  0  0  0  0  0  0
    0.5775   -3.6771   -1.4600 O   0  0  0  1  0  0  0  0  0  0  0  0
   -1.7430   -4.6817   -1.1124 O   0  5  0  1  0  0  0  0  0  0  0  0
   -0.1349   -5.5131   -2.9306 O   0  0  0  1  0  0  0  0  0  0  0  0
    1.6811   -6.5205   -4.1297 C   0  0  0  1  0  0  0  0  0  0  0  0
    0.7004   -5.4182   -4.1048 C   0  0  0  1  0  0  0  0  0  0  0  0
    1.2212   -4.4836   -4.0920 H   0  0  0  1  0  0  0  0  0  0  0  0
    0.0864   -5.4731   -4.9794 H   0  0  0  1  0  0  0  0  0  0  0  0
    2.5993   -6.4269   -2.9079 C   0  0  0  1  0  0  0  0  0  0  0  0
    2.0514   -6.0302   -2.0789 H   0  0  0  1  0  0  0  0  0  0  0  0
    3.4244   -5.7832   -3.1307 H   0  0  0  1  0  0  0  0  0  0  0  0
    2.9638   -7.4020   -2.6604 H   0  0  0  1  0  0  0  0  0  0  0  0
    2.5156   -6.4273   -5.4033 C   0  0  0  1  0  0  0  0  0  0  0  0
    3.1725   -7.2699   -5.4624 H   0  0  0  1  0  0  0  0  0  0  0  0
    3.0924   -5.5263   -5.3864 H   0  0  0  1  0  0  0  0  0  0  0  0
    1.8673   -6.4205   -6.2545 H   0  0  0  1  0  0  0  0  0  0  0  0
    0.9406   -7.8631   -4.1092 C   0  0  0  1  0  0  0  0  0  0  0  0
    0.2427   -7.8744   -4.9203 H   0  0  0  1  0  0  0  0  0  0  0  0
    1.9580   -8.8443   -4.3356 O   0  0  0  1  0  0  0  0  0  0  0  0
    2.8221   -8.4318   -4.2668 H   0  0  0  1  0  0  0  0  0  0  0  0
    0.1904   -8.1171   -2.8248 C   0  0  0  1  0  0  0  0  0  0  0  0
   -0.9446   -7.6725   -2.6585 O   0  0  0  1  0  0  0  0  0  0  0  0
    0.8011   -8.8450   -1.8670 N   0  0  0  1  0  0  0  0  0  0  0  0
    1.6685   -9.2698   -2.0330 H   0  0  0  1  0  0  0  0  0  0  0  0
    0.1351   -8.9813   -0.5802 C   0  0  0  1  0  0  0  0  0  0  0  0
   -0.1381  -10.0066   -0.4425 H   0  0  0  1  0  0  0  0  0  0  0  0
   -0.7460   -8.3743   -0.5842 H   0  0  0  1  0  0  0  0  0  0  0  0
    1.0170   -8.5521    0.5810 C   0  0  0  1  0  0  0  0  0  0  0  0
    1.3019   -7.5334    0.4202 H   0  0  0  1  0  0  0  0  0  0  0  0
    1.8895   -9.1715    0.5794 H   0  0  0  1  0  0  0  0  0  0  0  0
    0.3778   -8.6481    1.9526 C   0  0  0  1  0  0  0  0  0  0  0  0
   -0.7889   -8.9792    2.0857 O   0  0  0  1  0  0  0  0  0  0  0  0
    1.1713   -8.3491    2.9850 N   0  0  0  1  0  0  0  0  0  0  0  0
    2.0923   -8.0652    2.8070 H   0  0  0  1  0  0  0  0  0  0  0  0
    0.7161   -8.4302    4.3637 C   0  0  0  1  0  0  0  0  0  0  0  0
   -0.2932   -8.7853    4.3711 H   0  0  0  1  0  0  0  0  0  0  0  0
    0.7538   -7.4518    4.7952 H   0  0  0  1  0  0  0  0  0  0  0  0
    1.5617   -9.3597    5.1985 C   0  0  0  1  0  0  0  0  0  0  0  0
    2.2307   -9.8774    4.5433 H   0  0  0  1  0  0  0  0  0  0  0  0
    0.9105  -10.0636    5.6732 H   0  0  0  1  0  0  0  0  0  0  0  0
    2.5477   -8.5542    6.4831 S   0  0  0  1  0  0  0  0  0  0  0  0
    1.6792   -8.9089    7.9932 C   0  0  0  1  0  0  0  0  0  0  0  0
    0.7611   -9.6875    8.0661 O   0  0  0  1  0  0  0  0  0  0  0  0
    2.2236   -8.1252    9.1650 C   0  0  0  1  0  0  0  0  0  0  0  0
    3.2689   -7.9476    9.0212 H   0  0  0  1  0  0  0  0  0  0  0  0
    2.0776   -8.6837   10.0659 H   0  0  0  1  0  0  0  0  0  0  0  0
    1.7097   -7.1895    9.2375 H   0  0  0  1  0  0  0  0  0  0  0  0
  1  2  1  0  0  0  0
  1  7  2  0  0  0  0
  2  3  1  0  0  0  0
  2  4  2  0  0  0  0
  4  5  1  0  0  0  0
  5  6  2  0  0  0  0
  5 14  1  0  0  0  0
  6  7  1  0  0  0  0
  6 11  1  0  0  0  0
  7  8  1  0  0  0  0
  8  9  1  0  0  0  0
  8 10  1  0  0  0  0
 11 12  2  0  0  0  0
 12 13  1  0  0  0  0
 12 14  1  0  0  0  0
 14 15  1  0  0  0  0
 15 16  1  0  0  0  0
 15 17  1  0  0  0  0
 15 30  1  0  0  0  0
 17 18  1  0  0  0  0
 17 19  1  0  0  0  0
 17 21  1  0  0  0  0
 19 20  1  0  0  0  0
 21 22  1  0  0  0  0
 21 23  1  0  0  0  0
 21 28  1  0  0  0  0
 23 24  1  0  0  0  0
 24 25  1  0  0  0  0
 24 26  2  0  0  0  0
 24 27  1  0  0  0  0
 28 29  1  0  0  0  0
 28 30  1  0  0  0  0
 28 31  1  0  0  0  0
 31 32  1  0  0  0  0
 31 33  1  0  0  0  0
 31 34  1  0  0  0  0
 34 35  1  0  0  0  0
 35 36  1  0  0  0  0
 35 37  2  0  0  0  0
 35 38  1  0  0  0  0
 38 39  1  0  0  0  0
 39 40  2  0  0  0  0
 39 41  1  0  0  0  0
 39 42  1  0  0  0  0
 42 44  1  0  0  0  0
 43 44  1  0  0  0  0
 43 47  1  0  0  0  0
 43 51  1  0  0  0  0
 43 55  1  0  0  0  0
 44 45  1  0  0  0  0
 44 46  1  0  0  0  0
 47 48  1  0  0  0  0
 47 49  1  0  0  0  0
 47 50  1  0  0  0  0
 51 52  1  0  0  0  0
 51 53  1  0  0  0  0
 51 54  1  0  0  0  0
 55 56  1  0  0  0  0
 55 57  1  0  0  0  0
 55 59  1  0  0  0  0
 57 58  1  0  0  0  0
 59 60  2  0  0  0  0
 59 61  1  0  0  0  0
 61 62  1  0  0  0  0
 61 63  1  0  0  0  0
 63 64  1  0  0  0  0
 63 65  1  0  0  0  0
 63 66  1  0  0  0  0
 66 67  1  0  0  0  0
 66 68  1  0  0  0  0
 66 69  1  0  0  0  0
 69 70  2  0  0  0  0
 69 71  1  0  0  0  0
 71 72  1  0  0  0  0
 71 73  1  0  0  0  0
 73 74  1  0  0  0  0
 73 75  1  0  0  0  0
 73 76  1  0  0  0  0
 76 77  1  0  0  0  0
 76 78  1  0  0  0  0
 76 79  1  0  0  0  0
 79 80  1  0  0  0  0
 80 81  2  0  0  0  0
 80 82  1  0  0  0  0
 82 83  1  0  0  0  0
 82 84  1  0  0  0  0
 82 85  1  0  0  0  0
M  BCL ATM N_Tr2TrTrPi C_TrTrTrPi H_S N_Tr2TrTrPi C_TrTrTrPi C_TrTrTrPi C_TrTrTrPi N_TrTrTrPi2 H_S H_S N_Tr2TrTrPi C_TrTrTrPi H_S N_TrTrTrPi2 C_TeTeTeTe H_S C_TeTeTeTe H_S O_Te2Te2TeTe H_S C_TeTeTeTe H_S O_Tr2TrTrPi2 P_TeTeTeTePi O_Te2Te2TeTe O_Tr2Tr2TrPi O_Te2Te2Te2Te C_TeTeTeTe H_S O_Te2Te2TeTe C_TeTeTeTe H_S H_S O_Tr2TrTrPi2 P_TeTeTeTePi O_Te2Te2TeTe O_Tr2Tr2TrPi O_Tr2TrTrPi2 P_TeTeTeTePi O_Tr2Tr2TrPi O_Te2Te2Te2Te O_Tr2TrTrPi2 C_TeTeTeTe C_TeTeTeTe H_S H_S C_TeTeTeTe H_S H_S H_S C_TeTeTeTe H_S H_S H_S C_TeTeTeTe H_S O_Te2Te2TeTe H_S C_TrTrTrPi O_Tr2Tr2TrPi N_TrTrTrPi2 H_S C_TeTeTeTe H_S H_S C_TeTeTeTe H_S H_S C_TrTrTrPi O_Tr2Tr2TrPi N_TrTrTrPi2 H_S C_TeTeTeTe H_S H_S C_TeTeTeTe H_S H_S S_Te2Te2TeTe C_TrTrTrPi O_Tr2Tr2TrPi C_TeTeTeTe H_S H_S H_S
M  BCL BND AromaticSingleBond AromaticDoubleBond NonConjugatedSingleBond AromaticDoubleBond AromaticSingleBond AromaticDoubleBond AromaticSingleBond AromaticSingleBond AromaticSingleBond ConjugatedSingleBond NonConjugatedSingleBond NonConjugatedSingleBond AromaticDoubleBond NonConjugatedSingleBond AromaticSingleBond NonConjugatedSingleBond NonConjugatedSingleBond NonConjugatedSingleBondInRing NonConjugatedSingleBondInRing NonConjugatedSingleBond NonConjugatedSingleBond NonConjugatedSingleBondInRing NonConjugatedSingleBond NonConjugatedSingleBond NonConjugatedSingleBond NonConjugatedSingleBondInRing ConjugatedSingleBond ConjugatedSingleBond ConjugatedDoubleBond ConjugatedSingleBond NonConjugatedSingleBond NonConjugatedSingleBondInRing NonConjugatedSingleBond NonConjugatedSingleBond NonConjugatedSingleBond NonConjugatedSingleBond ConjugatedSingleBond ConjugatedSingleBond ConjugatedDoubleBond ConjugatedSingleBond ConjugatedSingleBond ConjugatedDoubleBond ConjugatedSingleBond ConjugatedSingleBond NonConjugatedSingleBond NonConjugatedSingleBond NonConjugatedSingleBond NonConjugatedSingleBond NonConjugatedSingleBond NonConjugatedSingleBond NonConjugatedSingleBond NonConjugatedSingleBond NonConjugatedSingleBond NonConjugatedSingleBond NonConjugatedSingleBond NonConjugatedSingleBond NonConjugatedSingleBond NonConjugatedSingleBond NonConjugatedSingleBond NonConjugatedSingleBond NonConjugatedSingleBond ConjugatedDoubleBond AmideSingleBond NonConjugatedSingleBond NonConjugatedSingleBond NonConjugatedSingleBond NonConjugatedSingleBond NonConjugatedSingleBond NonConjugatedSingleBond NonConjugatedSingleBond NonConjugatedSingleBond ConjugatedDoubleBond AmideSingleBond NonConjugatedSingleBond NonConjugatedSingleBond NonConjugatedSingleBond NonConjugatedSingleBond NonConjugatedSingleBond NonConjugatedSingleBond NonConjugatedSingleBond NonConjugatedSingleBond ConjugatedSingleBond ConjugatedDoubleBond NonConjugatedSingleBond NonConjugatedSingleBond NonConjugatedSingleBond NonConjugatedSingleBond
M  BCL CHI  15   S  17   S  21   S  24   S  28   R  35   R  39   R  55   S
M  BCL DBI - - - - - - - - - -
M  END
> <ConfClashScore>
0 

> <ConfOneFourInteractionScore>
-0.980293 

> <ConfScore>
0.103906 

> <ConfScorePBest>
0.00551946 

> <ConfTolerance>
3.0822 

$$$$
ACO.****
  PyMOL2.5          3D                             0

 85 87  0  0  0  0  0  0  0  0999 V2000
    4.8918    1.0754  -10.6406 N   0  0  0  1  0  0  0  0  0  0  0  0
    3.8503    1.9144  -10.5250 C   0  0  0  1  0  0  0  0  0  0  0  0
    3.8224    2.6942  -11.2125 H   0  0  0  1  0  0  0  0  0  0  0  0
    2.8512    1.8830   -9.6517 N   0  0  0  1  0  0  0  0  0  0  0  0
    2.9679    0.8492   -8.8171 C   0  0  0  1  0  0  0  0  0  0  0  0
    3.9918   -0.1076   -8.8072 C   0  0  0  1  0  0  0  0  0  0  0  0
    4.9767    0.0583   -9.7764 C   0  0  0  1  0  0  0  0  0  0  0  0
    6.0534   -0.7799   -9.8989 N   0  0  0  1  0  0  0  0  0  0  0  0
    6.1772   -1.5148   -9.2625 H   0  0  0  1  0  0  0  0  0  0  0  0
    6.6998   -0.6446  -10.6230 H   0  0  0  1  0  0  0  0  0  0  0  0
    3.7838   -1.0231   -7.7873 N   0  0  0  1  0  0  0  0  0  0  0  0
    2.6771   -0.6133   -7.2296 C   0  0  0  1  0  0  0  0  0  0  0  0
    2.2435   -1.1033   -6.4212 H   0  0  0  1  0  0  0  0  0  0  0  0
    2.1333    0.5038   -7.7857 N   0  0  0  1  0  0  0  0  0  0  0  0
    0.8328    1.0822   -7.4353 C   0  0  0  1  0  0  0  0  0  0  0  0
    0.4355    0.5762   -6.5803 H   0  0  0  1  0  0  0  0  0  0  0  0
    0.9571    2.6037   -7.1699 C   0  0  0  1  0  0  0  0  0  0  0  0
    1.6568    3.0588   -7.8394 H   0  0  0  1  0  0  0  0  0  0  0  0
    1.3491    2.8648   -5.8197 O   0  0  0  1  0  0  0  0  0  0  0  0
    1.1205    2.1128   -5.2685 H   0  0  0  1  0  0  0  0  0  0  0  0
   -0.4876    3.0994   -7.4428 C   0  0  0  1  0  0  0  0  0  0  0  0
   -0.4767    4.0346   -7.9626 H   0  0  0  1  0  0  0  0  0  0  0  0
   -1.2245    3.2432   -6.2045 O   0  0  0  1  0  0  0  0  0  0  0  0
   -1.9837    4.6299   -5.7684 P   0  0  0  1  0  0  0  0  0  0  0  0
   -3.4113    4.7973   -6.5581 O   0  0  0  0  0  0  0  0  0  0  0  0
   -2.2818    4.7521   -4.3239 O   0  0  0  1  0  0  0  0  0  0  0  0
   -1.0264    5.8227   -6.3026 O   0  5  0  1  0  0  0  0  0  0  0  0
   -1.1030    1.9923   -8.3207 C   0  0  0  1  0  0  0  0  0  0  0  0
   -1.9347    1.5460   -7.8167 H   0  0  0  1  0  0  0  0  0  0  0  0
   -0.0817    1.0077   -8.5495 O   0  0  0  1  0  0  0  0  0  0  0  0
   -1.5530    2.5600   -9.6063 C   0  0  0  1  0  0  0  0  0  0  0  0
   -2.2158    3.3785   -9.4172 H   0  0  0  1  0  0  0  0  0  0  0  0
   -2.0673    1.8054  -10.1639 H   0  0  0  1  0  0  0  0  0  0  0  0
   -0.4183    3.0325  -10.3759 O   0  0  0  1  0  0  0  0  0  0  0  0
   -0.5744    4.2568  -11.4098 P   0  0  0  1  0  0  0  0  0  0  0  0
   -0.7469    5.4400  -10.5468 O   0  0  0  0  0  0  0  0  0  0  0  0
   -1.5780    3.9414  -12.4521 O   0  0  0  1  0  0  0  0  0  0  0  0
    0.9119    4.2578  -12.0198 O   0  0  0  1  0  0  0  0  0  0  0  0
    1.7676    3.1342  -12.8535 P   0  0  0  1  0  0  0  0  0  0  0  0
    3.1945    3.4404  -13.0993 O   0  0  0  1  0  0  0  0  0  0  0  0
    1.7830    1.7271  -12.0508 O   0  5  0  1  0  0  0  0  0  0  0  0
    1.0079    2.7433  -14.1662 O   0  0  0  1  0  0  0  0  0  0  0  0
   -0.1648    1.1776  -15.5114 C   0  0  0  1  0  0  0  0  0  0  0  0
   -0.1957    1.9425  -14.2292 C   0  0  0  1  0  0  0  0  0  0  0  0
   -1.0571    2.5767  -14.2039 H   0  0  0  1  0  0  0  0  0  0  0  0
   -0.2264    1.2652  -13.4015 H   0  0  0  1  0  0  0  0  0  0  0  0
   -0.0073    2.1448  -16.6907 C   0  0  0  1  0  0  0  0  0  0  0  0
   -0.5790    1.7898  -17.5226 H   0  0  0  1  0  0  0  0  0  0  0  0
    1.0246    2.2049  -16.9671 H   0  0  0  1  0  0  0  0  0  0  0  0
   -0.3577    3.1148  -16.4054 H   0  0  0  1  0  0  0  0  0  0  0  0
   -1.4750    0.3869  -15.6661 C   0  0  0  1  0  0  0  0  0  0  0  0
   -1.9622    0.6770  -16.5735 H   0  0  0  1  0  0  0  0  0  0  0  0
   -2.1165    0.5941  -14.8351 H   0  0  0  1  0  0  0  0  0  0  0  0
   -1.2578   -0.6603  -15.6972 H   0  0  0  1  0  0  0  0  0  0  0  0
    1.0150    0.1994  -15.4936 C   0  0  0  1  0  0  0  0  0  0  0  0
    1.8950    0.7693  -15.2801 H   0  0  0  1  0  0  0  0  0  0  0  0
    0.8723   -0.8024  -14.5009 O   0  0  0  1  0  0  0  0  0  0  0  0
    0.0194   -0.7077  -14.0704 H   0  0  0  1  0  0  0  0  0  0  0  0
    1.1582   -0.3361  -16.9003 C   0  0  0  1  0  0  0  0  0  0  0  0
    0.1989   -0.3511  -17.6704 O   0  0  0  1  0  0  0  0  0  0  0  0
    2.3611   -0.7936  -17.2820 N   0  0  0  1  0  0  0  0  0  0  0  0
    3.0864   -0.8236  -16.6236 H   0  0  0  1  0  0  0  0  0  0  0  0
    2.6256   -1.2465  -18.6395 C   0  0  0  1  0  0  0  0  0  0  0  0
    3.6479   -1.0386  -18.8772 H   0  0  0  1  0  0  0  0  0  0  0  0
    1.9869   -0.7109  -19.3102 H   0  0  0  1  0  0  0  0  0  0  0  0
    2.3778   -2.7357  -18.8158 C   0  0  0  1  0  0  0  0  0  0  0  0
    2.3321   -2.9517  -19.8628 H   0  0  0  1  0  0  0  0  0  0  0  0
    1.4418   -2.9816  -18.3593 H   0  0  0  1  0  0  0  0  0  0  0  0
    3.4597   -3.5959  -18.1923 C   0  0  0  1  0  0  0  0  0  0  0  0
    4.5231   -3.1159  -17.8357 O   0  0  0  1  0  0  0  0  0  0  0  0
    3.1679   -4.8934  -18.0645 N   0  0  0  1  0  0  0  0  0  0  0  0
    2.3235   -5.2269  -18.4336 H   0  0  0  1  0  0  0  0  0  0  0  0
    4.0664   -5.8350  -17.3921 C   0  0  0  1  0  0  0  0  0  0  0  0
    4.9367   -5.3123  -17.0540 H   0  0  0  1  0  0  0  0  0  0  0  0
    4.3550   -6.6010  -18.0811 H   0  0  0  1  0  0  0  0  0  0  0  0
    3.3677   -6.4694  -16.2005 C   0  0  0  1  0  0  0  0  0  0  0  0
    2.5196   -7.0167  -16.5555 H   0  0  0  1  0  0  0  0  0  0  0  0
    3.0408   -5.6904  -15.5438 H   0  0  0  1  0  0  0  0  0  0  0  0
    4.4310   -7.5976  -15.2690 S   0  0  0  1  0  0  0  0  0  0  0  0
    3.5617   -7.8682  -13.7519 C   0  0  0  1  0  0  0  0  0  0  0  0
    2.5076   -7.3703  -13.4428 O   0  0  0  1  0  0  0  0  0  0  0  0
    4.3154   -8.8335  -12.8440 C   0  0  0  1  0  0  0  0  0  0  0  0
    5.1812   -9.2012  -13.3540 H   0  0  0  1  0  0  0  0  0  0  0  0
    3.6776   -9.6534  -12.5877 H   0  0  0  1  0  0  0  0  0  0  0  0
    4.6166   -8.3232  -11.9530 H   0  0  0  1  0  0  0  0  0  0  0  0
  1  2  1  0  0  0  0
  1  7  2  0  0  0  0
  2  3  1  0  0  0  0
  2  4  2  0  0  0  0
  4  5  1  0  0  0  0
  5  6  2  0  0  0  0
  5 14  1  0  0  0  0
  6  7  1  0  0  0  0
  6 11  1  0  0  0  0
  7  8  1  0  0  0  0
  8  9  1  0  0  0  0
  8 10  1  0  0  0  0
 11 12  2  0  0  0  0
 12 13  1  0  0  0  0
 12 14  1  0  0  0  0
 14 15  1  0  0  0  0
 15 16  1  0  0  0  0
 15 17  1  0  0  0  0
 15 30  1  0  0  0  0
 17 18  1  0  0  0  0
 17 19  1  0  0  0  0
 17 21  1  0  0  0  0
 19 20  1  0  0  0  0
 21 22  1  0  0  0  0
 21 23  1  0  0  0  0
 21 28  1  0  0  0  0
 23 24  1  0  0  0  0
 24 25  1  0  0  0  0
 24 26  2  0  0  0  0
 24 27  1  0  0  0  0
 28 29  1  0  0  0  0
 28 30  1  0  0  0  0
 28 31  1  0  0  0  0
 31 32  1  0  0  0  0
 31 33  1  0  0  0  0
 31 34  1  0  0  0  0
 34 35  1  0  0  0  0
 35 36  1  0  0  0  0
 35 37  2  0  0  0  0
 35 38  1  0  0  0  0
 38 39  1  0  0  0  0
 39 40  2  0  0  0  0
 39 41  1  0  0  0  0
 39 42  1  0  0  0  0
 42 44  1  0  0  0  0
 43 44  1  0  0  0  0
 43 47  1  0  0  0  0
 43 51  1  0  0  0  0
 43 55  1  0  0  0  0
 44 45  1  0  0  0  0
 44 46  1  0  0  0  0
 47 48  1  0  0  0  0
 47 49  1  0  0  0  0
 47 50  1  0  0  0  0
 51 52  1  0  0  0  0
 51 53  1  0  0  0  0
 51 54  1  0  0  0  0
 55 56  1  0  0  0  0
 55 57  1  0  0  0  0
 55 59  1  0  0  0  0
 57 58  1  0  0  0  0
 59 60  2  0  0  0  0
 59 61  1  0  0  0  0
 61 62  1  0  0  0  0
 61 63  1  0  0  0  0
 63 64  1  0  0  0  0
 63 65  1  0  0  0  0
 63 66  1  0  0  0  0
 66 67  1  0  0  0  0
 66 68  1  0  0  0  0
 66 69  1  0  0  0  0
 69 70  2  0  0  0  0
 69 71  1  0  0  0  0
 71 72  1  0  0  0  0
 71 73  1  0  0  0  0
 73 74  1  0  0  0  0
 73 75  1  0  0  0  0
 73 76  1  0  0  0  0
 76 77  1  0  0  0  0
 76 78  1  0  0  0  0
 76 79  1  0  0  0  0
 79 80  1  0  0  0  0
 80 81  2  0  0  0  0
 80 82  1  0  0  0  0
 82 83  1  0  0  0  0
 82 84  1  0  0  0  0
 82 85  1  0  0  0  0
M  BCL ATM N_Tr2TrTrPi C_TrTrTrPi H_S N_Tr2TrTrPi C_TrTrTrPi C_TrTrTrPi C_TrTrTrPi N_TrTrTrPi2 H_S H_S N_Tr2TrTrPi C_TrTrTrPi H_S N_TrTrTrPi2 C_TeTeTeTe H_S C_TeTeTeTe H_S O_Te2Te2TeTe H_S C_TeTeTeTe H_S O_Tr2TrTrPi2 P_TeTeTeTePi O_Te2Te2TeTe O_Tr2Tr2TrPi O_Te2Te2Te2Te C_TeTeTeTe H_S O_Te2Te2TeTe C_TeTeTeTe H_S H_S O_Tr2TrTrPi2 P_TeTeTeTePi O_Te2Te2TeTe O_Tr2Tr2TrPi O_Tr2TrTrPi2 P_TeTeTeTePi O_Tr2Tr2TrPi O_Te2Te2Te2Te O_Tr2TrTrPi2 C_TeTeTeTe C_TeTeTeTe H_S H_S C_TeTeTeTe H_S H_S H_S C_TeTeTeTe H_S H_S H_S C_TeTeTeTe H_S O_Te2Te2TeTe H_S C_TrTrTrPi O_Tr2Tr2TrPi N_TrTrTrPi2 H_S C_TeTeTeTe H_S H_S C_TeTeTeTe H_S H_S C_TrTrTrPi O_Tr2Tr2TrPi N_TrTrTrPi2 H_S C_TeTeTeTe H_S H_S C_TeTeTeTe H_S H_S S_Te2Te2TeTe C_TrTrTrPi O_Tr2Tr2TrPi C_TeTeTeTe H_S H_S H_S
M  BCL BND AromaticSingleBond AromaticDoubleBond NonConjugatedSingleBond AromaticDoubleBond AromaticSingleBond AromaticDoubleBond AromaticSingleBond AromaticSingleBond AromaticSingleBond ConjugatedSingleBond NonConjugatedSingleBond NonConjugatedSingleBond AromaticDoubleBond NonConjugatedSingleBond AromaticSingleBond NonConjugatedSingleBond NonConjugatedSingleBond NonConjugatedSingleBondInRing NonConjugatedSingleBondInRing NonConjugatedSingleBond NonConjugatedSingleBond NonConjugatedSingleBondInRing NonConjugatedSingleBond NonConjugatedSingleBond NonConjugatedSingleBond NonConjugatedSingleBondInRing ConjugatedSingleBond ConjugatedSingleBond ConjugatedDoubleBond ConjugatedSingleBond NonConjugatedSingleBond NonConjugatedSingleBondInRing NonConjugatedSingleBond NonConjugatedSingleBond NonConjugatedSingleBond NonConjugatedSingleBond ConjugatedSingleBond ConjugatedSingleBond ConjugatedDoubleBond ConjugatedSingleBond ConjugatedSingleBond ConjugatedDoubleBond ConjugatedSingleBond ConjugatedSingleBond NonConjugatedSingleBond NonConjugatedSingleBond NonConjugatedSingleBond NonConjugatedSingleBond NonConjugatedSingleBond NonConjugatedSingleBond NonConjugatedSingleBond NonConjugatedSingleBond NonConjugatedSingleBond NonConjugatedSingleBond NonConjugatedSingleBond NonConjugatedSingleBond NonConjugatedSingleBond NonConjugatedSingleBond NonConjugatedSingleBond NonConjugatedSingleBond NonConjugatedSingleBond ConjugatedDoubleBond AmideSingleBond NonConjugatedSingleBond NonConjugatedSingleBond NonConjugatedSingleBond NonConjugatedSingleBond NonConjugatedSingleBond NonConjugatedSingleBond NonConjugatedSingleBond NonConjugatedSingleBond ConjugatedDoubleBond AmideSingleBond NonConjugatedSingleBond NonConjugatedSingleBond NonConjugatedSingleBond NonConjugatedSingleBond NonConjugatedSingleBond NonConjugatedSingleBond NonConjugatedSingleBond NonConjugatedSingleBond ConjugatedSingleBond ConjugatedDoubleBond NonConjugatedSingleBond NonConjugatedSingleBond NonConjugatedSingleBond NonConjugatedSingleBond
M  BCL CHI  15   S  17   S  21   S  24   S  28   R  35   R  39   R  55   S
M  BCL DBI - - - - - - - - - -
M  END
> <ConfClashScore>
0 

> <ConfOneFourInteractionScore>
-0.988047 

> <ConfScore>
0.108801 

> <ConfScorePBest>
0.00541646 

> <ConfTolerance>
2.78126 

$$$$
ACO.****
  PyMOL2.5          3D                             0

 85 87  0  0  0  0  0  0  0  0999 V2000
    4.8859    1.0713  -10.6439 N   0  0  0  1  0  0  0  0  0  0  0  0
    3.8365    1.9014  -10.5353 C   0  0  0  1  0  0  0  0  0  0  0  0
    3.8045    2.6785  -11.2257 H   0  0  0  1  0  0  0  0  0  0  0  0
    2.8343    1.8644   -9.6657 N   0  0  0  1  0  0  0  0  0  0  0  0
    2.9569    0.8346   -8.8270 C   0  0  0  1  0  0  0  0  0  0  0  0
    3.9891   -0.1130   -8.8096 C   0  0  0  1  0  0  0  0  0  0  0  0
    4.9763    0.0581   -9.7756 C   0  0  0  1  0  0  0  0  0  0  0  0
    6.0608   -0.7710   -9.8910 N   0  0  0  1  0  0  0  0  0  0  0  0
    6.1255   -1.5738   -9.3326 H   0  0  0  1  0  0  0  0  0  0  0  0
    6.7719   -0.5614  -10.5319 H   0  0  0  1  0  0  0  0  0  0  0  0
    3.7853   -1.0267   -7.7873 N   0  0  0  1  0  0  0  0  0  0  0  0
    2.6728   -0.6247   -7.2353 C   0  0  0  1  0  0  0  0  0  0  0  0
    2.2404   -1.1157   -6.4269 H   0  0  0  1  0  0  0  0  0  0  0  0
    2.1213    0.4855   -7.7976 N   0  0  0  1  0  0  0  0  0  0  0  0
    0.8913    1.1665   -7.3887 C   0  0  0  1  0  0  0  0  0  0  0  0
    0.8281    2.1151   -7.8796 H   0  0  0  1  0  0  0  0  0  0  0  0
   -0.3528    0.2974   -7.7016 C   0  0  0  1  0  0  0  0  0  0  0  0
   -0.1546   -0.7402   -7.5307 H   0  0  0  1  0  0  0  0  0  0  0  0
   -0.7905    0.4839   -9.0501 O   0  0  0  1  0  0  0  0  0  0  0  0
   -0.9032    1.4214   -9.2237 H   0  0  0  1  0  0  0  0  0  0  0  0
   -1.3939    0.8459   -6.6905 C   0  0  0  1  0  0  0  0  0  0  0  0
   -1.9764    0.0500   -6.2754 H   0  0  0  1  0  0  0  0  0  0  0  0
   -2.2734    1.8085   -7.3275 O   0  0  0  1  0  0  0  0  0  0  0  0
   -2.9275    3.0448   -6.4713 P   0  0  0  1  0  0  0  0  0  0  0  0
   -4.2354    3.6611   -7.2453 O   0  0  0  0  0  0  0  0  0  0  0  0
   -3.2586    2.7954   -5.0505 O   0  0  0  1  0  0  0  0  0  0  0  0
   -1.7522    4.1515   -6.6065 O   0  5  0  1  0  0  0  0  0  0  0  0
   -0.5377    1.5228   -5.6025 C   0  0  0  1  0  0  0  0  0  0  0  0
   -0.7573    2.5693   -5.5629 H   0  0  0  1  0  0  0  0  0  0  0  0
    0.8411    1.3235   -5.9548 O   0  0  0  1  0  0  0  0  0  0  0  0
   -0.8192    0.9037   -4.2730 C   0  0  0  1  0  0  0  0  0  0  0  0
   -0.3689    1.4866   -3.4969 H   0  0  0  1  0  0  0  0  0  0  0  0
   -0.4282   -0.0919   -4.2445 H   0  0  0  1  0  0  0  0  0  0  0  0
   -2.2552    0.8745   -4.0972 O   0  0  0  1  0  0  0  0  0  0  0  0
   -2.9043    0.3296   -2.7407 P   0  0  0  1  0  0  0  0  0  0  0  0
   -4.3671    0.2635   -2.9781 O   0  0  0  0  0  0  0  0  0  0  0  0
   -2.3365    1.0315   -1.5668 O   0  0  0  1  0  0  0  0  0  0  0  0
   -2.2965   -1.1543   -2.6409 O   0  0  0  1  0  0  0  0  0  0  0  0
   -2.3684   -2.3043   -1.4739 P   0  0  0  1  0  0  0  0  0  0  0  0
   -3.0833   -1.9266   -0.2343 O   0  0  0  1  0  0  0  0  0  0  0  0
   -3.0796   -3.6169   -2.1029 O   0  5  0  1  0  0  0  0  0  0  0  0
   -0.9291   -2.8359   -1.0882 O   0  0  0  1  0  0  0  0  0  0  0  0
    0.6347   -4.1495    0.1177 C   0  0  0  1  0  0  0  0  0  0  0  0
   -0.8134   -3.8188   -0.0366 C   0  0  0  1  0  0  0  0  0  0  0  0
   -1.3623   -4.6991   -0.2985 H   0  0  0  1  0  0  0  0  0  0  0  0
   -1.1954   -3.4189    0.8795 H   0  0  0  1  0  0  0  0  0  0  0  0
    1.2049   -4.5589   -1.2432 C   0  0  0  1  0  0  0  0  0  0  0  0
    0.7550   -5.4775   -1.5573 H   0  0  0  1  0  0  0  0  0  0  0  0
    2.2636   -4.6903   -1.1610 H   0  0  0  1  0  0  0  0  0  0  0  0
    0.9946   -3.7948   -1.9622 H   0  0  0  1  0  0  0  0  0  0  0  0
    0.7647   -5.3376    1.0737 C   0  0  0  1  0  0  0  0  0  0  0  0
    0.0118   -5.2706    1.8311 H   0  0  0  1  0  0  0  0  0  0  0  0
    1.7322   -5.3232    1.5306 H   0  0  0  1  0  0  0  0  0  0  0  0
    0.6410   -6.2495    0.5279 H   0  0  0  1  0  0  0  0  0  0  0  0
    1.4018   -2.9446    0.6893 C   0  0  0  1  0  0  0  0  0  0  0  0
    1.0085   -2.7302    1.6610 H   0  0  0  1  0  0  0  0  0  0  0  0
    2.7575   -3.3439    0.7991 O   0  0  0  1  0  0  0  0  0  0  0  0
    3.1897   -3.2483   -0.0528 H   0  0  0  1  0  0  0  0  0  0  0  0
    1.2124   -1.7323   -0.1751 C   0  0  0  1  0  0  0  0  0  0  0  0
    1.7633   -1.5688   -1.2473 O   0  0  0  1  0  0  0  0  0  0  0  0
    0.3801   -0.8010    0.2993 N   0  0  0  1  0  0  0  0  0  0  0  0
   -0.0225   -0.9324    1.1831 H   0  0  0  1  0  0  0  0  0  0  0  0
    0.0504    0.4017   -0.4507 C   0  0  0  1  0  0  0  0  0  0  0  0
   -0.9095    0.7517   -0.1329 H   0  0  0  1  0  0  0  0  0  0  0  0
    0.0148    0.1576   -1.4919 H   0  0  0  1  0  0  0  0  0  0  0  0
    1.0664    1.5134   -0.2457 C   0  0  0  1  0  0  0  0  0  0  0  0
    1.2116    1.6525    0.8053 H   0  0  0  1  0  0  0  0  0  0  0  0
    0.6779    2.4133   -0.6747 H   0  0  0  1  0  0  0  0  0  0  0  0
    2.3998    1.2177   -0.8786 C   0  0  0  1  0  0  0  0  0  0  0  0
    2.4777    0.5217   -1.8900 O   0  0  0  1  0  0  0  0  0  0  0  0
    3.5040    1.7382   -0.3040 N   0  0  0  1  0  0  0  0  0  0  0  0
    3.4381    2.3044    0.4932 H   0  0  0  1  0  0  0  0  0  0  0  0
    4.7948    1.4351   -0.9011 C   0  0  0  1  0  0  0  0  0  0  0  0
    5.0677    2.2380   -1.5536 H   0  0  0  1  0  0  0  0  0  0  0  0
    4.7074    0.5302   -1.4654 H   0  0  0  1  0  0  0  0  0  0  0  0
    5.8822    1.2590    0.1297 C   0  0  0  1  0  0  0  0  0  0  0  0
    5.6370    1.8650    0.9768 H   0  0  0  1  0  0  0  0  0  0  0  0
    6.8023    1.5985   -0.2981 H   0  0  0  1  0  0  0  0  0  0  0  0
    6.1251   -0.4372    0.7062 S   0  0  0  1  0  0  0  0  0  0  0  0
    6.9464   -0.1919    2.2637 C   0  0  0  1  0  0  0  0  0  0  0  0
    7.2682    0.8878    2.6810 O   0  0  0  1  0  0  0  0  0  0  0  0
    7.1897   -1.4921    2.9943 C   0  0  0  1  0  0  0  0  0  0  0  0
    7.1709   -1.3176    4.0498 H   0  0  0  1  0  0  0  0  0  0  0  0
    8.1451   -1.8845    2.7149 H   0  0  0  1  0  0  0  0  0  0  0  0
    6.4253   -2.1947    2.7355 H   0  0  0  1  0  0  0  0  0  0  0  0
  1  2  1  0  0  0  0
  1  7  2  0  0  0  0
  2  3  1  0  0  0  0
  2  4  2  0  0  0  0
  4  5  1  0  0  0  0
  5  6  2  0  0  0  0
  5 14  1  0  0  0  0
  6  7  1  0  0  0  0
  6 11  1  0  0  0  0
  7  8  1  0  0  0  0
  8  9  1  0  0  0  0
  8 10  1  0  0  0  0
 11 12  2  0  0  0  0
 12 13  1  0  0  0  0
 12 14  1  0  0  0  0
 14 15  1  0  0  0  0
 15 16  1  0  0  0  0
 15 17  1  0  0  0  0
 15 30  1  0  0  0  0
 17 18  1  0  0  0  0
 17 19  1  0  0  0  0
 17 21  1  0  0  0  0
 19 20  1  0  0  0  0
 21 22  1  0  0  0  0
 21 23  1  0  0  0  0
 21 28  1  0  0  0  0
 23 24  1  0  0  0  0
 24 25  1  0  0  0  0
 24 26  2  0  0  0  0
 24 27  1  0  0  0  0
 28 29  1  0  0  0  0
 28 30  1  0  0  0  0
 28 31  1  0  0  0  0
 31 32  1  0  0  0  0
 31 33  1  0  0  0  0
 31 34  1  0  0  0  0
 34 35  1  0  0  0  0
 35 36  1  0  0  0  0
 35 37  2  0  0  0  0
 35 38  1  0  0  0  0
 38 39  1  0  0  0  0
 39 40  2  0  0  0  0
 39 41  1  0  0  0  0
 39 42  1  0  0  0  0
 42 44  1  0  0  0  0
 43 44  1  0  0  0  0
 43 47  1  0  0  0  0
 43 51  1  0  0  0  0
 43 55  1  0  0  0  0
 44 45  1  0  0  0  0
 44 46  1  0  0  0  0
 47 48  1  0  0  0  0
 47 49  1  0  0  0  0
 47 50  1  0  0  0  0
 51 52  1  0  0  0  0
 51 53  1  0  0  0  0
 51 54  1  0  0  0  0
 55 56  1  0  0  0  0
 55 57  1  0  0  0  0
 55 59  1  0  0  0  0
 57 58  1  0  0  0  0
 59 60  2  0  0  0  0
 59 61  1  0  0  0  0
 61 62  1  0  0  0  0
 61 63  1  0  0  0  0
 63 64  1  0  0  0  0
 63 65  1  0  0  0  0
 63 66  1  0  0  0  0
 66 67  1  0  0  0  0
 66 68  1  0  0  0  0
 66 69  1  0  0  0  0
 69 70  2  0  0  0  0
 69 71  1  0  0  0  0
 71 72  1  0  0  0  0
 71 73  1  0  0  0  0
 73 74  1  0  0  0  0
 73 75  1  0  0  0  0
 73 76  1  0  0  0  0
 76 77  1  0  0  0  0
 76 78  1  0  0  0  0
 76 79  1  0  0  0  0
 79 80  1  0  0  0  0
 80 81  2  0  0  0  0
 80 82  1  0  0  0  0
 82 83  1  0  0  0  0
 82 84  1  0  0  0  0
 82 85  1  0  0  0  0
M  BCL ATM N_Tr2TrTrPi C_TrTrTrPi H_S N_Tr2TrTrPi C_TrTrTrPi C_TrTrTrPi C_TrTrTrPi N_TrTrTrPi2 H_S H_S N_Tr2TrTrPi C_TrTrTrPi H_S N_TrTrTrPi2 C_TeTeTeTe H_S C_TeTeTeTe H_S O_Te2Te2TeTe H_S C_TeTeTeTe H_S O_Tr2TrTrPi2 P_TeTeTeTePi O_Te2Te2TeTe O_Tr2Tr2TrPi O_Te2Te2Te2Te C_TeTeTeTe H_S O_Te2Te2TeTe C_TeTeTeTe H_S H_S O_Tr2TrTrPi2 P_TeTeTeTePi O_Te2Te2TeTe O_Tr2Tr2TrPi O_Tr2TrTrPi2 P_TeTeTeTePi O_Tr2Tr2TrPi O_Te2Te2Te2Te O_Tr2TrTrPi2 C_TeTeTeTe C_TeTeTeTe H_S H_S C_TeTeTeTe H_S H_S H_S C_TeTeTeTe H_S H_S H_S C_TeTeTeTe H_S O_Te2Te2TeTe H_S C_TrTrTrPi O_Tr2Tr2TrPi N_TrTrTrPi2 H_S C_TeTeTeTe H_S H_S C_TeTeTeTe H_S H_S C_TrTrTrPi O_Tr2Tr2TrPi N_TrTrTrPi2 H_S C_TeTeTeTe H_S H_S C_TeTeTeTe H_S H_S S_Te2Te2TeTe C_TrTrTrPi O_Tr2Tr2TrPi C_TeTeTeTe H_S H_S H_S
M  BCL BND AromaticSingleBond AromaticDoubleBond NonConjugatedSingleBond AromaticDoubleBond AromaticSingleBond AromaticDoubleBond AromaticSingleBond AromaticSingleBond AromaticSingleBond ConjugatedSingleBond NonConjugatedSingleBond NonConjugatedSingleBond AromaticDoubleBond NonConjugatedSingleBond AromaticSingleBond NonConjugatedSingleBond NonConjugatedSingleBond NonConjugatedSingleBondInRing NonConjugatedSingleBondInRing NonConjugatedSingleBond NonConjugatedSingleBond NonConjugatedSingleBondInRing NonConjugatedSingleBond NonConjugatedSingleBond NonConjugatedSingleBond NonConjugatedSingleBondInRing ConjugatedSingleBond ConjugatedSingleBond ConjugatedDoubleBond ConjugatedSingleBond NonConjugatedSingleBond NonConjugatedSingleBondInRing NonConjugatedSingleBond NonConjugatedSingleBond NonConjugatedSingleBond NonConjugatedSingleBond ConjugatedSingleBond ConjugatedSingleBond ConjugatedDoubleBond ConjugatedSingleBond ConjugatedSingleBond ConjugatedDoubleBond ConjugatedSingleBond ConjugatedSingleBond NonConjugatedSingleBond NonConjugatedSingleBond NonConjugatedSingleBond NonConjugatedSingleBond NonConjugatedSingleBond NonConjugatedSingleBond NonConjugatedSingleBond NonConjugatedSingleBond NonConjugatedSingleBond NonConjugatedSingleBond NonConjugatedSingleBond NonConjugatedSingleBond NonConjugatedSingleBond NonConjugatedSingleBond NonConjugatedSingleBond NonConjugatedSingleBond NonConjugatedSingleBond ConjugatedDoubleBond AmideSingleBond NonConjugatedSingleBond NonConjugatedSingleBond NonConjugatedSingleBond NonConjugatedSingleBond NonConjugatedSingleBond NonConjugatedSingleBond NonConjugatedSingleBond NonConjugatedSingleBond ConjugatedDoubleBond AmideSingleBond NonConjugatedSingleBond NonConjugatedSingleBond NonConjugatedSingleBond NonConjugatedSingleBond NonConjugatedSingleBond NonConjugatedSingleBond NonConjugatedSingleBond NonConjugatedSingleBond ConjugatedSingleBond ConjugatedDoubleBond NonConjugatedSingleBond NonConjugatedSingleBond NonConjugatedSingleBond NonConjugatedSingleBond
M  BCL CHI  15   S  17   S  21   S  24   S  28   R  35   R  39   R  55   S
M  BCL DBI - - - - - - - - - -
M  END
> <ConfClashScore>
0 

> <ConfOneFourInteractionScore>
-0.97537 

> <ConfScore>
0.124121 

> <ConfScorePBest>
0.00531345 

> <ConfTolerance>
3.36441 

$$$$
ACO.****
  PyMOL2.5          3D                             0

 85 87  0  0  0  0  0  0  0  0999 V2000
    4.8898    1.0583  -10.6271 N   0  0  0  1  0  0  0  0  0  0  0  0
    3.8442    1.8939  -10.5253 C   0  0  0  1  0  0  0  0  0  0  0  0
    3.8199    2.6703  -11.2170 H   0  0  0  1  0  0  0  0  0  0  0  0
    2.8371    1.8632   -9.6612 N   0  0  0  1  0  0  0  0  0  0  0  0
    2.9498    0.8339   -8.8205 C   0  0  0  1  0  0  0  0  0  0  0  0
    3.9770   -0.1190   -8.7962 C   0  0  0  1  0  0  0  0  0  0  0  0
    4.9704    0.0458   -9.7570 C   0  0  0  1  0  0  0  0  0  0  0  0
    6.0935   -0.7712   -9.9163 N   0  0  0  1  0  0  0  0  0  0  0  0
    6.2230   -1.5458   -9.3301 H   0  0  0  1  0  0  0  0  0  0  0  0
    6.7513   -0.5694  -10.6141 H   0  0  0  1  0  0  0  0  0  0  0  0
    3.7630   -1.0302   -7.7738 N   0  0  0  1  0  0  0  0  0  0  0  0
    2.6496   -0.6217   -7.2284 C   0  0  0  1  0  0  0  0  0  0  0  0
    2.2103   -1.1093   -6.4217 H   0  0  0  1  0  0  0  0  0  0  0  0
    2.1069    0.4906   -7.7951 N   0  0  0  1  0  0  0  0  0  0  0  0
    0.8671    1.1846   -7.3902 C   0  0  0  1  0  0  0  0  0  0  0  0
    1.1088    2.1557   -7.0115 H   0  0  0  1  0  0  0  0  0  0  0  0
   -0.0861    1.2964   -8.5663 C   0  0  0  1  0  0  0  0  0  0  0  0
    0.4470    1.3976   -9.4885 H   0  0  0  1  0  0  0  0  0  0  0  0
   -0.9777    2.4030   -8.4063 O   0  0  0  1  0  0  0  0  0  0  0  0
   -0.5292    3.1107   -7.9377 H   0  0  0  1  0  0  0  0  0  0  0  0
   -0.8274   -0.0143   -8.5060 C   0  0  0  1  0  0  0  0  0  0  0  0
   -0.2543   -0.8073   -8.9391 H   0  0  0  1  0  0  0  0  0  0  0  0
   -2.1099    0.0734   -9.1704 O   0  0  0  1  0  0  0  0  0  0  0  0
   -2.2747    0.4685  -10.7535 P   0  0  0  1  0  0  0  0  0  0  0  0
   -1.8233   -0.8349  -11.6407 O   0  0  0  0  0  0  0  0  0  0  0  0
   -3.7217    0.6611  -10.9974 O   0  0  0  1  0  0  0  0  0  0  0  0
   -1.3417    1.7522  -11.0792 O   0  5  0  1  0  0  0  0  0  0  0  0
   -0.9921   -0.2041   -6.9987 C   0  0  0  1  0  0  0  0  0  0  0  0
   -1.8890    0.2675   -6.6553 H   0  0  0  1  0  0  0  0  0  0  0  0
    0.1770    0.4324   -6.4146 O   0  0  0  1  0  0  0  0  0  0  0  0
   -1.0288   -1.6721   -6.6486 C   0  0  0  1  0  0  0  0  0  0  0  0
   -1.8982   -2.1341   -7.0676 H   0  0  0  1  0  0  0  0  0  0  0  0
   -1.0317   -1.8026   -5.5866 H   0  0  0  1  0  0  0  0  0  0  0  0
    0.1627   -2.2360   -7.2195 O   0  0  0  1  0  0  0  0  0  0  0  0
    0.2216   -3.1377   -8.5737 P   0  0  0  1  0  0  0  0  0  0  0  0
    0.6214   -4.5277   -8.2412 O   0  0  0  0  0  0  0  0  0  0  0  0
    0.9176   -2.4174   -9.6542 O   0  0  0  1  0  0  0  0  0  0  0  0
   -1.3697   -3.0524   -8.7775 O   0  0  0  1  0  0  0  0  0  0  0  0
   -2.4035   -3.8501   -9.7697 P   0  0  0  1  0  0  0  0  0  0  0  0
   -2.1115   -5.2900   -9.5920 O   0  0  0  1  0  0  0  0  0  0  0  0
   -3.8251   -3.3364   -9.1867 O   0  5  0  1  0  0  0  0  0  0  0  0
   -2.0633   -3.3064  -11.1986 O   0  0  0  1  0  0  0  0  0  0  0  0
   -0.7999   -4.6616  -12.6794 C   0  0  0  1  0  0  0  0  0  0  0  0
   -2.1459   -4.0678  -12.4229 C   0  0  0  1  0  0  0  0  0  0  0  0
   -2.4214   -3.4258  -13.2334 H   0  0  0  1  0  0  0  0  0  0  0  0
   -2.8736   -4.8455  -12.3200 H   0  0  0  1  0  0  0  0  0  0  0  0
   -0.3667   -5.4931  -11.4687 C   0  0  0  1  0  0  0  0  0  0  0  0
    0.6132   -5.8876  -11.6386 H   0  0  0  1  0  0  0  0  0  0  0  0
   -1.0555   -6.2992  -11.3251 H   0  0  0  1  0  0  0  0  0  0  0  0
   -0.3552   -4.8734  -10.5965 H   0  0  0  1  0  0  0  0  0  0  0  0
    0.2009   -3.5342  -12.9848 C   0  0  0  1  0  0  0  0  0  0  0  0
    1.0771   -3.9478  -13.4388 H   0  0  0  1  0  0  0  0  0  0  0  0
    0.4703   -3.0405  -12.0746 H   0  0  0  1  0  0  0  0  0  0  0  0
   -0.2485   -2.8302  -13.6536 H   0  0  0  1  0  0  0  0  0  0  0  0
   -0.9144   -5.5721  -13.9072 C   0  0  0  1  0  0  0  0  0  0  0  0
   -1.5905   -6.3530  -13.6278 H   0  0  0  1  0  0  0  0  0  0  0  0
   -1.5030   -4.8794  -14.9897 O   0  0  0  1  0  0  0  0  0  0  0  0
   -1.2283   -5.2834  -15.8161 H   0  0  0  1  0  0  0  0  0  0  0  0
    0.4076   -6.2520  -14.2021 C   0  0  0  1  0  0  0  0  0  0  0  0
    0.9994   -6.8862  -13.3296 O   0  0  0  1  0  0  0  0  0  0  0  0
    0.9117   -6.1413  -15.4413 N   0  0  0  1  0  0  0  0  0  0  0  0
    0.4647   -5.5503  -16.0826 H   0  0  0  1  0  0  0  0  0  0  0  0
    2.0987   -6.8685  -15.8656 C   0  0  0  1  0  0  0  0  0  0  0  0
    1.8053   -7.7027  -16.4681 H   0  0  0  1  0  0  0  0  0  0  0  0
    2.6253   -7.2190  -15.0026 H   0  0  0  1  0  0  0  0  0  0  0  0
    3.0104   -5.9611  -16.6752 C   0  0  0  1  0  0  0  0  0  0  0  0
    3.9233   -6.4884  -16.8579 H   0  0  0  1  0  0  0  0  0  0  0  0
    3.2128   -5.0889  -16.0894 H   0  0  0  1  0  0  0  0  0  0  0  0
    2.4562   -5.5084  -18.0121 C   0  0  0  1  0  0  0  0  0  0  0  0
    1.2564   -5.2807  -18.1617 O   0  0  0  1  0  0  0  0  0  0  0  0
    3.3498   -5.3775  -18.9966 N   0  0  0  1  0  0  0  0  0  0  0  0
    4.2792   -5.6400  -18.8297 H   0  0  0  1  0  0  0  0  0  0  0  0
    2.9914   -4.8593  -20.3071 C   0  0  0  1  0  0  0  0  0  0  0  0
    2.1336   -4.2299  -20.1933 H   0  0  0  1  0  0  0  0  0  0  0  0
    2.7452   -5.6882  -20.9373 H   0  0  0  1  0  0  0  0  0  0  0  0
    4.0749   -4.0585  -20.9859 C   0  0  0  1  0  0  0  0  0  0  0  0
    3.7723   -3.8626  -21.9933 H   0  0  0  1  0  0  0  0  0  0  0  0
    4.9744   -4.6381  -20.9894 H   0  0  0  1  0  0  0  0  0  0  0  0
    4.4116   -2.4800  -20.1697 S   0  0  0  1  0  0  0  0  0  0  0  0
    5.6612   -1.7214  -21.1764 C   0  0  0  1  0  0  0  0  0  0  0  0
    6.0649   -2.2657  -22.1684 O   0  0  0  1  0  0  0  0  0  0  0  0
    6.1614   -0.3722  -20.6962 C   0  0  0  1  0  0  0  0  0  0  0  0
    6.9322   -0.5156  -19.9680 H   0  0  0  1  0  0  0  0  0  0  0  0
    5.3521    0.1719  -20.2561 H   0  0  0  1  0  0  0  0  0  0  0  0
    6.5529    0.1786  -21.5257 H   0  0  0  1  0  0  0  0  0  0  0  0
  1  2  1  0  0  0  0
  1  7  2  0  0  0  0
  2  3  1  0  0  0  0
  2  4  2  0  0  0  0
  4  5  1  0  0  0  0
  5  6  2  0  0  0  0
  5 14  1  0  0  0  0
  6  7  1  0  0  0  0
  6 11  1  0  0  0  0
  7  8  1  0  0  0  0
  8  9  1  0  0  0  0
  8 10  1  0  0  0  0
 11 12  2  0  0  0  0
 12 13  1  0  0  0  0
 12 14  1  0  0  0  0
 14 15  1  0  0  0  0
 15 16  1  0  0  0  0
 15 17  1  0  0  0  0
 15 30  1  0  0  0  0
 17 18  1  0  0  0  0
 17 19  1  0  0  0  0
 17 21  1  0  0  0  0
 19 20  1  0  0  0  0
 21 22  1  0  0  0  0
 21 23  1  0  0  0  0
 21 28  1  0  0  0  0
 23 24  1  0  0  0  0
 24 25  1  0  0  0  0
 24 26  2  0  0  0  0
 24 27  1  0  0  0  0
 28 29  1  0  0  0  0
 28 30  1  0  0  0  0
 28 31  1  0  0  0  0
 31 32  1  0  0  0  0
 31 33  1  0  0  0  0
 31 34  1  0  0  0  0
 34 35  1  0  0  0  0
 35 36  1  0  0  0  0
 35 37  2  0  0  0  0
 35 38  1  0  0  0  0
 38 39  1  0  0  0  0
 39 40  2  0  0  0  0
 39 41  1  0  0  0  0
 39 42  1  0  0  0  0
 42 44  1  0  0  0  0
 43 44  1  0  0  0  0
 43 47  1  0  0  0  0
 43 51  1  0  0  0  0
 43 55  1  0  0  0  0
 44 45  1  0  0  0  0
 44 46  1  0  0  0  0
 47 48  1  0  0  0  0
 47 49  1  0  0  0  0
 47 50  1  0  0  0  0
 51 52  1  0  0  0  0
 51 53  1  0  0  0  0
 51 54  1  0  0  0  0
 55 56  1  0  0  0  0
 55 57  1  0  0  0  0
 55 59  1  0  0  0  0
 57 58  1  0  0  0  0
 59 60  2  0  0  0  0
 59 61  1  0  0  0  0
 61 62  1  0  0  0  0
 61 63  1  0  0  0  0
 63 64  1  0  0  0  0
 63 65  1  0  0  0  0
 63 66  1  0  0  0  0
 66 67  1  0  0  0  0
 66 68  1  0  0  0  0
 66 69  1  0  0  0  0
 69 70  2  0  0  0  0
 69 71  1  0  0  0  0
 71 72  1  0  0  0  0
 71 73  1  0  0  0  0
 73 74  1  0  0  0  0
 73 75  1  0  0  0  0
 73 76  1  0  0  0  0
 76 77  1  0  0  0  0
 76 78  1  0  0  0  0
 76 79  1  0  0  0  0
 79 80  1  0  0  0  0
 80 81  2  0  0  0  0
 80 82  1  0  0  0  0
 82 83  1  0  0  0  0
 82 84  1  0  0  0  0
 82 85  1  0  0  0  0
M  BCL ATM N_Tr2TrTrPi C_TrTrTrPi H_S N_Tr2TrTrPi C_TrTrTrPi C_TrTrTrPi C_TrTrTrPi N_TrTrTrPi2 H_S H_S N_Tr2TrTrPi C_TrTrTrPi H_S N_TrTrTrPi2 C_TeTeTeTe H_S C_TeTeTeTe H_S O_Te2Te2TeTe H_S C_TeTeTeTe H_S O_Tr2TrTrPi2 P_TeTeTeTePi O_Te2Te2TeTe O_Tr2Tr2TrPi O_Te2Te2Te2Te C_TeTeTeTe H_S O_Te2Te2TeTe C_TeTeTeTe H_S H_S O_Tr2TrTrPi2 P_TeTeTeTePi O_Te2Te2TeTe O_Tr2Tr2TrPi O_Tr2TrTrPi2 P_TeTeTeTePi O_Tr2Tr2TrPi O_Te2Te2Te2Te O_Tr2TrTrPi2 C_TeTeTeTe C_TeTeTeTe H_S H_S C_TeTeTeTe H_S H_S H_S C_TeTeTeTe H_S H_S H_S C_TeTeTeTe H_S O_Te2Te2TeTe H_S C_TrTrTrPi O_Tr2Tr2TrPi N_TrTrTrPi2 H_S C_TeTeTeTe H_S H_S C_TeTeTeTe H_S H_S C_TrTrTrPi O_Tr2Tr2TrPi N_TrTrTrPi2 H_S C_TeTeTeTe H_S H_S C_TeTeTeTe H_S H_S S_Te2Te2TeTe C_TrTrTrPi O_Tr2Tr2TrPi C_TeTeTeTe H_S H_S H_S
M  BCL BND AromaticSingleBond AromaticDoubleBond NonConjugatedSingleBond AromaticDoubleBond AromaticSingleBond AromaticDoubleBond AromaticSingleBond AromaticSingleBond AromaticSingleBond ConjugatedSingleBond NonConjugatedSingleBond NonConjugatedSingleBond AromaticDoubleBond NonConjugatedSingleBond AromaticSingleBond NonConjugatedSingleBond NonConjugatedSingleBond NonConjugatedSingleBondInRing NonConjugatedSingleBondInRing NonConjugatedSingleBond NonConjugatedSingleBond NonConjugatedSingleBondInRing NonConjugatedSingleBond NonConjugatedSingleBond NonConjugatedSingleBond NonConjugatedSingleBondInRing ConjugatedSingleBond ConjugatedSingleBond ConjugatedDoubleBond ConjugatedSingleBond NonConjugatedSingleBond NonConjugatedSingleBondInRing NonConjugatedSingleBond NonConjugatedSingleBond NonConjugatedSingleBond NonConjugatedSingleBond ConjugatedSingleBond ConjugatedSingleBond ConjugatedDoubleBond ConjugatedSingleBond ConjugatedSingleBond ConjugatedDoubleBond ConjugatedSingleBond ConjugatedSingleBond NonConjugatedSingleBond NonConjugatedSingleBond NonConjugatedSingleBond NonConjugatedSingleBond NonConjugatedSingleBond NonConjugatedSingleBond NonConjugatedSingleBond NonConjugatedSingleBond NonConjugatedSingleBond NonConjugatedSingleBond NonConjugatedSingleBond NonConjugatedSingleBond NonConjugatedSingleBond NonConjugatedSingleBond NonConjugatedSingleBond NonConjugatedSingleBond NonConjugatedSingleBond ConjugatedDoubleBond AmideSingleBond NonConjugatedSingleBond NonConjugatedSingleBond NonConjugatedSingleBond NonConjugatedSingleBond NonConjugatedSingleBond NonConjugatedSingleBond NonConjugatedSingleBond NonConjugatedSingleBond ConjugatedDoubleBond AmideSingleBond NonConjugatedSingleBond NonConjugatedSingleBond NonConjugatedSingleBond NonConjugatedSingleBond NonConjugatedSingleBond NonConjugatedSingleBond NonConjugatedSingleBond NonConjugatedSingleBond ConjugatedSingleBond ConjugatedDoubleBond NonConjugatedSingleBond NonConjugatedSingleBond NonConjugatedSingleBond NonConjugatedSingleBond
M  BCL CHI  15   S  17   S  21   S  24   S  28   R  35   R  39   R  55   S
M  BCL DBI - - - - - - - - - -
M  END
> <ConfClashScore>
0 

> <ConfOneFourInteractionScore>
-0.984429 

> <ConfScore>
0.128015 

> <ConfScorePBest>
0.00521045 

> <ConfTolerance>
3.26011 

$$$$
ACO.****
  PyMOL2.5          3D                             0

 85 87  0  0  0  0  0  0  0  0999 V2000
    4.8923    1.0763  -10.6398 N   0  0  0  1  0  0  0  0  0  0  0  0
    3.8490    1.9134  -10.5270 C   0  0  0  1  0  0  0  0  0  0  0  0
    3.8216    2.6932  -11.2145 H   0  0  0  1  0  0  0  0  0  0  0  0
    2.8475    1.8802   -9.6564 N   0  0  0  1  0  0  0  0  0  0  0  0
    2.9638    0.8465   -8.8216 C   0  0  0  1  0  0  0  0  0  0  0  0
    3.9894   -0.1084   -8.8089 C   0  0  0  1  0  0  0  0  0  0  0  0
    4.9766    0.0593   -9.7754 C   0  0  0  1  0  0  0  0  0  0  0  0
    6.0552   -0.7770   -9.8950 N   0  0  0  1  0  0  0  0  0  0  0  0
    6.1840   -1.5055   -9.2524 H   0  0  0  1  0  0  0  0  0  0  0  0
    6.6979   -0.6466  -10.6233 H   0  0  0  1  0  0  0  0  0  0  0  0
    3.7803   -1.0244   -7.7896 N   0  0  0  1  0  0  0  0  0  0  0  0
    2.6713   -0.6166   -7.2349 C   0  0  0  1  0  0  0  0  0  0  0  0
    2.2364   -1.1075   -6.4278 H   0  0  0  1  0  0  0  0  0  0  0  0
    2.1270    0.4995   -7.7924 N   0  0  0  1  0  0  0  0  0  0  0  0
    0.8609    1.0916   -7.4153 C   0  0  0  1  0  0  0  0  0  0  0  0
    0.9339    2.1576   -7.4727 H   0  0  0  1  0  0  0  0  0  0  0  0
   -0.2858    0.5661   -8.3151 C   0  0  0  1  0  0  0  0  0  0  0  0
   -0.1524   -0.4695   -8.5492 H   0  0  0  1  0  0  0  0  0  0  0  0
   -0.3828    1.3206   -9.5261 O   0  0  0  1  0  0  0  0  0  0  0  0
    0.1022    0.8721  -10.2227 H   0  0  0  1  0  0  0  0  0  0  0  0
   -1.5303    0.7840   -7.4146 C   0  0  0  1  0  0  0  0  0  0  0  0
   -2.2090   -0.0389   -7.4986 H   0  0  0  1  0  0  0  0  0  0  0  0
   -2.2140    2.0139   -7.7692 O   0  0  0  1  0  0  0  0  0  0  0  0
   -3.5666    2.5403   -7.0057 P   0  0  0  1  0  0  0  0  0  0  0  0
   -3.8355    4.0891   -7.4732 O   0  0  0  0  0  0  0  0  0  0  0  0
   -4.7624    1.7164   -7.2914 O   0  0  0  1  0  0  0  0  0  0  0  0
   -3.2927    2.8008   -5.4304 O   0  5  0  1  0  0  0  0  0  0  0  0
   -0.9497    0.8716   -5.9896 C   0  0  0  1  0  0  0  0  0  0  0  0
   -1.1546    1.8343   -5.5699 H   0  0  0  1  0  0  0  0  0  0  0  0
    0.4697    0.6721   -6.0908 O   0  0  0  1  0  0  0  0  0  0  0  0
   -1.5535   -0.1871   -5.1267 C   0  0  0  1  0  0  0  0  0  0  0  0
   -1.4539   -1.1423   -5.5984 H   0  0  0  1  0  0  0  0  0  0  0  0
   -2.5896    0.0238   -4.9623 H   0  0  0  1  0  0  0  0  0  0  0  0
   -0.8490   -0.1838   -3.8748 O   0  0  0  1  0  0  0  0  0  0  0  0
   -0.8836    1.0128   -2.7845 P   0  0  0  1  0  0  0  0  0  0  0  0
   -1.1802    0.3338   -1.4890 O   0  0  0  0  0  0  0  0  0  0  0  0
   -1.7577    2.1230   -3.2039 O   0  0  0  1  0  0  0  0  0  0  0  0
    0.5975    1.6234   -2.8029 O   0  0  0  1  0  0  0  0  0  0  0  0
    1.9386    1.7062   -3.7433 P   0  0  0  1  0  0  0  0  0  0  0  0
    3.1428    2.1782   -3.0238 O   0  0  0  1  0  0  0  0  0  0  0  0
    1.9577    0.2190   -4.3852 O   0  5  0  1  0  0  0  0  0  0  0  0
    1.5564    2.6242   -4.9629 O   0  0  0  1  0  0  0  0  0  0  0  0
    1.0116    4.9322   -4.9964 C   0  0  0  1  0  0  0  0  0  0  0  0
    2.1259    3.9438   -5.1033 C   0  0  0  1  0  0  0  0  0  0  0  0
    2.6036    4.0349   -6.0564 H   0  0  0  1  0  0  0  0  0  0  0  0
    2.8417    4.1163   -4.3270 H   0  0  0  1  0  0  0  0  0  0  0  0
   -0.1632    4.5560   -5.9060 C   0  0  0  1  0  0  0  0  0  0  0  0
    0.1185    4.6945   -6.9289 H   0  0  0  1  0  0  0  0  0  0  0  0
   -1.0028    5.1795   -5.6800 H   0  0  0  1  0  0  0  0  0  0  0  0
   -0.4253    3.5313   -5.7441 H   0  0  0  1  0  0  0  0  0  0  0  0
    1.4939    6.3342   -5.3762 C   0  0  0  1  0  0  0  0  0  0  0  0
    1.8687    6.3237   -6.3784 H   0  0  0  1  0  0  0  0  0  0  0  0
    2.2727    6.6365   -4.7076 H   0  0  0  1  0  0  0  0  0  0  0  0
    0.6776    7.0226   -5.3082 H   0  0  0  1  0  0  0  0  0  0  0  0
    0.5525    4.9345   -3.5280 C   0  0  0  1  0  0  0  0  0  0  0  0
    0.3132    3.9312   -3.2431 H   0  0  0  1  0  0  0  0  0  0  0  0
    1.6684    5.4086   -2.7673 O   0  0  0  1  0  0  0  0  0  0  0  0
    2.4478    5.4395   -3.3268 H   0  0  0  1  0  0  0  0  0  0  0  0
   -0.6534    5.8010   -3.3096 C   0  0  0  1  0  0  0  0  0  0  0  0
   -0.5993    6.9863   -3.0413 O   0  0  0  1  0  0  0  0  0  0  0  0
   -1.8428    5.1913   -3.4268 N   0  0  0  1  0  0  0  0  0  0  0  0
   -1.8840    4.2216   -3.5625 H   0  0  0  1  0  0  0  0  0  0  0  0
   -3.0719    5.9669   -3.3528 C   0  0  0  1  0  0  0  0  0  0  0  0
   -3.8019    5.4949   -3.9767 H   0  0  0  1  0  0  0  0  0  0  0  0
   -2.8683    6.9502   -3.7224 H   0  0  0  1  0  0  0  0  0  0  0  0
   -3.6567    6.0981   -1.9560 C   0  0  0  1  0  0  0  0  0  0  0  0
   -4.5280    6.7160   -2.0196 H   0  0  0  1  0  0  0  0  0  0  0  0
   -2.9261    6.5736   -1.3355 H   0  0  0  1  0  0  0  0  0  0  0  0
   -4.0557    4.7939   -1.2933 C   0  0  0  1  0  0  0  0  0  0  0  0
   -3.5192    3.7306   -1.6021 O   0  0  0  1  0  0  0  0  0  0  0  0
   -5.0144    4.8829   -0.3671 N   0  0  0  1  0  0  0  0  0  0  0  0
   -5.3741    5.7664   -0.1421 H   0  0  0  1  0  0  0  0  0  0  0  0
   -5.5468    3.7059    0.3239 C   0  0  0  1  0  0  0  0  0  0  0  0
   -5.4315    2.8601   -0.3213 H   0  0  0  1  0  0  0  0  0  0  0  0
   -6.5868    3.8721    0.5125 H   0  0  0  1  0  0  0  0  0  0  0  0
   -4.8759    3.3894    1.6376 C   0  0  0  1  0  0  0  0  0  0  0  0
   -3.8186    3.3484    1.4782 H   0  0  0  1  0  0  0  0  0  0  0  0
   -5.2234    2.4356    1.9758 H   0  0  0  1  0  0  0  0  0  0  0  0
   -5.2159    4.6141    2.9244 S   0  0  0  1  0  0  0  0  0  0  0  0
   -4.2857    6.0206    2.3612 C   0  0  0  1  0  0  0  0  0  0  0  0
   -3.6548    6.0323    1.3389 O   0  0  0  1  0  0  0  0  0  0  0  0
   -4.3822    7.1899    3.3135 C   0  0  0  1  0  0  0  0  0  0  0  0
   -4.3298    8.1051    2.7617 H   0  0  0  1  0  0  0  0  0  0  0  0
   -3.5729    7.1482    4.0123 H   0  0  0  1  0  0  0  0  0  0  0  0
   -5.3121    7.1444    3.8408 H   0  0  0  1  0  0  0  0  0  0  0  0
  1  2  1  0  0  0  0
  1  7  2  0  0  0  0
  2  3  1  0  0  0  0
  2  4  2  0  0  0  0
  4  5  1  0  0  0  0
  5  6  2  0  0  0  0
  5 14  1  0  0  0  0
  6  7  1  0  0  0  0
  6 11  1  0  0  0  0
  7  8  1  0  0  0  0
  8  9  1  0  0  0  0
  8 10  1  0  0  0  0
 11 12  2  0  0  0  0
 12 13  1  0  0  0  0
 12 14  1  0  0  0  0
 14 15  1  0  0  0  0
 15 16  1  0  0  0  0
 15 17  1  0  0  0  0
 15 30  1  0  0  0  0
 17 18  1  0  0  0  0
 17 19  1  0  0  0  0
 17 21  1  0  0  0  0
 19 20  1  0  0  0  0
 21 22  1  0  0  0  0
 21 23  1  0  0  0  0
 21 28  1  0  0  0  0
 23 24  1  0  0  0  0
 24 25  1  0  0  0  0
 24 26  2  0  0  0  0
 24 27  1  0  0  0  0
 28 29  1  0  0  0  0
 28 30  1  0  0  0  0
 28 31  1  0  0  0  0
 31 32  1  0  0  0  0
 31 33  1  0  0  0  0
 31 34  1  0  0  0  0
 34 35  1  0  0  0  0
 35 36  1  0  0  0  0
 35 37  2  0  0  0  0
 35 38  1  0  0  0  0
 38 39  1  0  0  0  0
 39 40  2  0  0  0  0
 39 41  1  0  0  0  0
 39 42  1  0  0  0  0
 42 44  1  0  0  0  0
 43 44  1  0  0  0  0
 43 47  1  0  0  0  0
 43 51  1  0  0  0  0
 43 55  1  0  0  0  0
 44 45  1  0  0  0  0
 44 46  1  0  0  0  0
 47 48  1  0  0  0  0
 47 49  1  0  0  0  0
 47 50  1  0  0  0  0
 51 52  1  0  0  0  0
 51 53  1  0  0  0  0
 51 54  1  0  0  0  0
 55 56  1  0  0  0  0
 55 57  1  0  0  0  0
 55 59  1  0  0  0  0
 57 58  1  0  0  0  0
 59 60  2  0  0  0  0
 59 61  1  0  0  0  0
 61 62  1  0  0  0  0
 61 63  1  0  0  0  0
 63 64  1  0  0  0  0
 63 65  1  0  0  0  0
 63 66  1  0  0  0  0
 66 67  1  0  0  0  0
 66 68  1  0  0  0  0
 66 69  1  0  0  0  0
 69 70  2  0  0  0  0
 69 71  1  0  0  0  0
 71 72  1  0  0  0  0
 71 73  1  0  0  0  0
 73 74  1  0  0  0  0
 73 75  1  0  0  0  0
 73 76  1  0  0  0  0
 76 77  1  0  0  0  0
 76 78  1  0  0  0  0
 76 79  1  0  0  0  0
 79 80  1  0  0  0  0
 80 81  2  0  0  0  0
 80 82  1  0  0  0  0
 82 83  1  0  0  0  0
 82 84  1  0  0  0  0
 82 85  1  0  0  0  0
M  BCL ATM N_Tr2TrTrPi C_TrTrTrPi H_S N_Tr2TrTrPi C_TrTrTrPi C_TrTrTrPi C_TrTrTrPi N_TrTrTrPi2 H_S H_S N_Tr2TrTrPi C_TrTrTrPi H_S N_TrTrTrPi2 C_TeTeTeTe H_S C_TeTeTeTe H_S O_Te2Te2TeTe H_S C_TeTeTeTe H_S O_Tr2TrTrPi2 P_TeTeTeTePi O_Te2Te2TeTe O_Tr2Tr2TrPi O_Te2Te2Te2Te C_TeTeTeTe H_S O_Te2Te2TeTe C_TeTeTeTe H_S H_S O_Tr2TrTrPi2 P_TeTeTeTePi O_Te2Te2TeTe O_Tr2Tr2TrPi O_Tr2TrTrPi2 P_TeTeTeTePi O_Tr2Tr2TrPi O_Te2Te2Te2Te O_Tr2TrTrPi2 C_TeTeTeTe C_TeTeTeTe H_S H_S C_TeTeTeTe H_S H_S H_S C_TeTeTeTe H_S H_S H_S C_TeTeTeTe H_S O_Te2Te2TeTe H_S C_TrTrTrPi O_Tr2Tr2TrPi N_TrTrTrPi2 H_S C_TeTeTeTe H_S H_S C_TeTeTeTe H_S H_S C_TrTrTrPi O_Tr2Tr2TrPi N_TrTrTrPi2 H_S C_TeTeTeTe H_S H_S C_TeTeTeTe H_S H_S S_Te2Te2TeTe C_TrTrTrPi O_Tr2Tr2TrPi C_TeTeTeTe H_S H_S H_S
M  BCL BND AromaticSingleBond AromaticDoubleBond NonConjugatedSingleBond AromaticDoubleBond AromaticSingleBond AromaticDoubleBond AromaticSingleBond AromaticSingleBond AromaticSingleBond ConjugatedSingleBond NonConjugatedSingleBond NonConjugatedSingleBond AromaticDoubleBond NonConjugatedSingleBond AromaticSingleBond NonConjugatedSingleBond NonConjugatedSingleBond NonConjugatedSingleBondInRing NonConjugatedSingleBondInRing NonConjugatedSingleBond NonConjugatedSingleBond NonConjugatedSingleBondInRing NonConjugatedSingleBond NonConjugatedSingleBond NonConjugatedSingleBond NonConjugatedSingleBondInRing ConjugatedSingleBond ConjugatedSingleBond ConjugatedDoubleBond ConjugatedSingleBond NonConjugatedSingleBond NonConjugatedSingleBondInRing NonConjugatedSingleBond NonConjugatedSingleBond NonConjugatedSingleBond NonConjugatedSingleBond ConjugatedSingleBond ConjugatedSingleBond ConjugatedDoubleBond ConjugatedSingleBond ConjugatedSingleBond ConjugatedDoubleBond ConjugatedSingleBond ConjugatedSingleBond NonConjugatedSingleBond NonConjugatedSingleBond NonConjugatedSingleBond NonConjugatedSingleBond NonConjugatedSingleBond NonConjugatedSingleBond NonConjugatedSingleBond NonConjugatedSingleBond NonConjugatedSingleBond NonConjugatedSingleBond NonConjugatedSingleBond NonConjugatedSingleBond NonConjugatedSingleBond NonConjugatedSingleBond NonConjugatedSingleBond NonConjugatedSingleBond NonConjugatedSingleBond ConjugatedDoubleBond AmideSingleBond NonConjugatedSingleBond NonConjugatedSingleBond NonConjugatedSingleBond NonConjugatedSingleBond NonConjugatedSingleBond NonConjugatedSingleBond NonConjugatedSingleBond NonConjugatedSingleBond ConjugatedDoubleBond AmideSingleBond NonConjugatedSingleBond NonConjugatedSingleBond NonConjugatedSingleBond NonConjugatedSingleBond NonConjugatedSingleBond NonConjugatedSingleBond NonConjugatedSingleBond NonConjugatedSingleBond ConjugatedSingleBond ConjugatedDoubleBond NonConjugatedSingleBond NonConjugatedSingleBond NonConjugatedSingleBond NonConjugatedSingleBond
M  BCL CHI  15   S  17   S  21   S  24   S  28   R  35   R  39   R  55   S
M  BCL DBI - - - - - - - - - -
M  END
> <ConfClashScore>
0 

> <ConfOneFourInteractionScore>
-0.982188 

> <ConfScore>
0.137268 

> <ConfScorePBest>
0.00510745 

> <ConfTolerance>
4.1156 

$$$$
ACO.****
  PyMOL2.5          3D                             0

 85 87  0  0  0  0  0  0  0  0999 V2000
    4.8726    1.1210  -10.6750 N   0  0  0  1  0  0  0  0  0  0  0  0
    3.8141    1.9362  -10.5444 C   0  0  0  1  0  0  0  0  0  0  0  0
    3.7640    2.7209  -11.2251 H   0  0  0  1  0  0  0  0  0  0  0  0
    2.8226    1.8759   -9.6639 N   0  0  0  1  0  0  0  0  0  0  0  0
    2.9680    0.8379   -8.8391 C   0  0  0  1  0  0  0  0  0  0  0  0
    4.0124   -0.0965   -8.8449 C   0  0  0  1  0  0  0  0  0  0  0  0
    4.9861    0.0988   -9.8200 C   0  0  0  1  0  0  0  0  0  0  0  0
    6.0153   -0.7969   -9.8292 N   0  0  0  1  0  0  0  0  0  0  0  0
    6.7046   -0.7442  -10.5238 H   0  0  0  1  0  0  0  0  0  0  0  0
    6.0653   -1.4929   -9.1410 H   0  0  0  1  0  0  0  0  0  0  0  0
    3.8321   -1.0247   -7.8313 N   0  0  0  1  0  0  0  0  0  0  0  0
    2.7211   -0.6437   -7.2619 C   0  0  0  1  0  0  0  0  0  0  0  0
    2.3044   -1.1497   -6.4545 H   0  0  0  1  0  0  0  0  0  0  0  0
    2.1490    0.4659   -7.8044 N   0  0  0  1  0  0  0  0  0  0  0  0
    0.9214    1.1661   -7.4155 C   0  0  0  1  0  0  0  0  0  0  0  0
    1.1456    1.8846   -6.6550 H   0  0  0  1  0  0  0  0  0  0  0  0
    0.2914    1.8576   -8.6350 C   0  0  0  1  0  0  0  0  0  0  0  0
    0.4607    1.2939   -9.5286 H   0  0  0  1  0  0  0  0  0  0  0  0
    0.8064    3.1813   -8.8008 O   0  0  0  1  0  0  0  0  0  0  0  0
    1.1739    3.2741   -9.6828 H   0  0  0  1  0  0  0  0  0  0  0  0
   -1.1837    1.8845   -8.2754 C   0  0  0  1  0  0  0  0  0  0  0  0
   -1.7950    1.8416   -9.1526 H   0  0  0  1  0  0  0  0  0  0  0  0
   -1.5139    3.0740   -7.5127 O   0  0  0  1  0  0  0  0  0  0  0  0
   -2.0026    4.4467   -8.2653 P   0  0  0  1  0  0  0  0  0  0  0  0
   -2.4295    5.4704   -7.0573 O   0  0  0  0  0  0  0  0  0  0  0  0
   -0.9645    4.9915   -9.1687 O   0  0  0  1  0  0  0  0  0  0  0  0
   -3.2969    4.0999   -9.1758 O   0  5  0  1  0  0  0  0  0  0  0  0
   -1.3507    0.6069   -7.4163 C   0  0  0  1  0  0  0  0  0  0  0  0
   -1.9939    0.8021   -6.5837 H   0  0  0  1  0  0  0  0  0  0  0  0
   -0.0341    0.2539   -6.9562 O   0  0  0  1  0  0  0  0  0  0  0  0
   -1.9238   -0.4987   -8.2404 C   0  0  0  1  0  0  0  0  0  0  0  0
   -1.2795   -0.7073   -9.0688 H   0  0  0  1  0  0  0  0  0  0  0  0
   -2.8915   -0.2199   -8.6019 H   0  0  0  1  0  0  0  0  0  0  0  0
   -2.0311   -1.6588   -7.3999 O   0  0  0  1  0  0  0  0  0  0  0  0
   -2.5920   -3.0843   -7.8590 P   0  0  0  1  0  0  0  0  0  0  0  0
   -1.8253   -3.6311   -9.0222 O   0  0  0  0  0  0  0  0  0  0  0  0
   -4.0767   -3.0494   -8.0159 O   0  0  0  1  0  0  0  0  0  0  0  0
   -2.1296   -3.9581   -6.5926 O   0  0  0  1  0  0  0  0  0  0  0  0
   -2.3900   -3.8887   -4.9749 P   0  0  0  1  0  0  0  0  0  0  0  0
   -1.1940   -3.6803   -4.1284 O   0  0  0  1  0  0  0  0  0  0  0  0
   -3.5390   -2.7583   -4.8121 O   0  5  0  1  0  0  0  0  0  0  0  0
   -3.2089   -5.2060   -4.7576 O   0  0  0  1  0  0  0  0  0  0  0  0
   -4.7333   -7.0086   -5.2635 C   0  0  0  1  0  0  0  0  0  0  0  0
   -4.2894   -5.6654   -5.5984 C   0  0  0  1  0  0  0  0  0  0  0  0
   -3.9571   -5.6592   -6.6155 H   0  0  0  1  0  0  0  0  0  0  0  0
   -5.1162   -4.9952   -5.4886 H   0  0  0  1  0  0  0  0  0  0  0  0
   -5.7731   -7.4636   -6.2913 C   0  0  0  1  0  0  0  0  0  0  0  0
   -5.4535   -7.1799   -7.2723 H   0  0  0  1  0  0  0  0  0  0  0  0
   -6.7137   -7.0015   -6.0753 H   0  0  0  1  0  0  0  0  0  0  0  0
   -5.8786   -8.5273   -6.2446 H   0  0  0  1  0  0  0  0  0  0  0  0
   -5.3397   -7.0573   -3.8509 C   0  0  0  1  0  0  0  0  0  0  0  0
   -5.0080   -6.2084   -3.2903 H   0  0  0  1  0  0  0  0  0  0  0  0
   -5.0258   -7.9541   -3.3590 H   0  0  0  1  0  0  0  0  0  0  0  0
   -6.4074   -7.0432   -3.9207 H   0  0  0  1  0  0  0  0  0  0  0  0
   -3.5331   -7.9587   -5.3394 C   0  0  0  1  0  0  0  0  0  0  0  0
   -2.6910   -7.4575   -4.9100 H   0  0  0  1  0  0  0  0  0  0  0  0
   -3.7745   -9.1596   -4.6330 O   0  0  0  1  0  0  0  0  0  0  0  0
   -2.9837   -9.4122   -4.1508 H   0  0  0  1  0  0  0  0  0  0  0  0
   -3.1997   -8.2731   -6.7949 C   0  0  0  1  0  0  0  0  0  0  0  0
   -2.5929   -7.4764   -7.4917 O   0  0  0  1  0  0  0  0  0  0  0  0
   -3.6133   -9.4624   -7.2414 N   0  0  0  1  0  0  0  0  0  0  0  0
   -4.1134  -10.0475   -6.6347 H   0  0  0  1  0  0  0  0  0  0  0  0
   -3.3472   -9.9194   -8.5972 C   0  0  0  1  0  0  0  0  0  0  0  0
   -3.5212   -9.1081   -9.2728 H   0  0  0  1  0  0  0  0  0  0  0  0
   -4.0150  -10.7236   -8.8253 H   0  0  0  1  0  0  0  0  0  0  0  0
   -1.9158  -10.4072   -8.7788 C   0  0  0  1  0  0  0  0  0  0  0  0
   -1.2503   -9.5958   -8.5700 H   0  0  0  1  0  0  0  0  0  0  0  0
   -1.7891  -10.7209   -9.7939 H   0  0  0  1  0  0  0  0  0  0  0  0
   -1.5660  -11.5586   -7.8743 C   0  0  0  1  0  0  0  0  0  0  0  0
   -2.1938  -12.6154   -7.9267 O   0  0  0  1  0  0  0  0  0  0  0  0
   -0.5555  -11.3979   -7.0152 N   0  0  0  1  0  0  0  0  0  0  0  0
   -0.0483  -10.5596   -7.0331 H   0  0  0  1  0  0  0  0  0  0  0  0
   -0.1821  -12.4237   -6.0546 C   0  0  0  1  0  0  0  0  0  0  0  0
    0.5246  -13.0827   -6.5140 H   0  0  0  1  0  0  0  0  0  0  0  0
   -1.0586  -12.9736   -5.7822 H   0  0  0  1  0  0  0  0  0  0  0  0
    0.4355  -11.8482   -4.8042 C   0  0  0  1  0  0  0  0  0  0  0  0
    1.2328  -11.1939   -5.0890 H   0  0  0  1  0  0  0  0  0  0  0  0
    0.8262  -12.6526   -4.2168 H   0  0  0  1  0  0  0  0  0  0  0  0
   -0.7390  -10.9166   -3.7936 S   0  0  0  1  0  0  0  0  0  0  0  0
    0.3044  -10.1562   -2.6205 C   0  0  0  1  0  0  0  0  0  0  0  0
    1.4912  -10.3163   -2.5836 O   0  0  0  1  0  0  0  0  0  0  0  0
   -0.4447   -9.1928   -1.7121 C   0  0  0  1  0  0  0  0  0  0  0  0
   -1.1129   -9.7421   -1.0822 H   0  0  0  1  0  0  0  0  0  0  0  0
   -1.0038   -8.5023   -2.3084 H   0  0  0  1  0  0  0  0  0  0  0  0
    0.2557   -8.6563   -1.1066 H   0  0  0  1  0  0  0  0  0  0  0  0
  1  2  1  0  0  0  0
  1  7  2  0  0  0  0
  2  3  1  0  0  0  0
  2  4  2  0  0  0  0
  4  5  1  0  0  0  0
  5  6  2  0  0  0  0
  5 14  1  0  0  0  0
  6  7  1  0  0  0  0
  6 11  1  0  0  0  0
  7  8  1  0  0  0  0
  8  9  1  0  0  0  0
  8 10  1  0  0  0  0
 11 12  2  0  0  0  0
 12 13  1  0  0  0  0
 12 14  1  0  0  0  0
 14 15  1  0  0  0  0
 15 16  1  0  0  0  0
 15 17  1  0  0  0  0
 15 30  1  0  0  0  0
 17 18  1  0  0  0  0
 17 19  1  0  0  0  0
 17 21  1  0  0  0  0
 19 20  1  0  0  0  0
 21 22  1  0  0  0  0
 21 23  1  0  0  0  0
 21 28  1  0  0  0  0
 23 24  1  0  0  0  0
 24 25  1  0  0  0  0
 24 26  2  0  0  0  0
 24 27  1  0  0  0  0
 28 29  1  0  0  0  0
 28 30  1  0  0  0  0
 28 31  1  0  0  0  0
 31 32  1  0  0  0  0
 31 33  1  0  0  0  0
 31 34  1  0  0  0  0
 34 35  1  0  0  0  0
 35 36  1  0  0  0  0
 35 37  2  0  0  0  0
 35 38  1  0  0  0  0
 38 39  1  0  0  0  0
 39 40  2  0  0  0  0
 39 41  1  0  0  0  0
 39 42  1  0  0  0  0
 42 44  1  0  0  0  0
 43 44  1  0  0  0  0
 43 47  1  0  0  0  0
 43 51  1  0  0  0  0
 43 55  1  0  0  0  0
 44 45  1  0  0  0  0
 44 46  1  0  0  0  0
 47 48  1  0  0  0  0
 47 49  1  0  0  0  0
 47 50  1  0  0  0  0
 51 52  1  0  0  0  0
 51 53  1  0  0  0  0
 51 54  1  0  0  0  0
 55 56  1  0  0  0  0
 55 57  1  0  0  0  0
 55 59  1  0  0  0  0
 57 58  1  0  0  0  0
 59 60  2  0  0  0  0
 59 61  1  0  0  0  0
 61 62  1  0  0  0  0
 61 63  1  0  0  0  0
 63 64  1  0  0  0  0
 63 65  1  0  0  0  0
 63 66  1  0  0  0  0
 66 67  1  0  0  0  0
 66 68  1  0  0  0  0
 66 69  1  0  0  0  0
 69 70  2  0  0  0  0
 69 71  1  0  0  0  0
 71 72  1  0  0  0  0
 71 73  1  0  0  0  0
 73 74  1  0  0  0  0
 73 75  1  0  0  0  0
 73 76  1  0  0  0  0
 76 77  1  0  0  0  0
 76 78  1  0  0  0  0
 76 79  1  0  0  0  0
 79 80  1  0  0  0  0
 80 81  2  0  0  0  0
 80 82  1  0  0  0  0
 82 83  1  0  0  0  0
 82 84  1  0  0  0  0
 82 85  1  0  0  0  0
M  BCL ATM N_Tr2TrTrPi C_TrTrTrPi H_S N_Tr2TrTrPi C_TrTrTrPi C_TrTrTrPi C_TrTrTrPi N_TrTrTrPi2 H_S H_S N_Tr2TrTrPi C_TrTrTrPi H_S N_TrTrTrPi2 C_TeTeTeTe H_S C_TeTeTeTe H_S O_Te2Te2TeTe H_S C_TeTeTeTe H_S O_Tr2TrTrPi2 P_TeTeTeTePi O_Te2Te2TeTe O_Tr2Tr2TrPi O_Te2Te2Te2Te C_TeTeTeTe H_S O_Te2Te2TeTe C_TeTeTeTe H_S H_S O_Tr2TrTrPi2 P_TeTeTeTePi O_Te2Te2TeTe O_Tr2Tr2TrPi O_Tr2TrTrPi2 P_TeTeTeTePi O_Tr2Tr2TrPi O_Te2Te2Te2Te O_Tr2TrTrPi2 C_TeTeTeTe C_TeTeTeTe H_S H_S C_TeTeTeTe H_S H_S H_S C_TeTeTeTe H_S H_S H_S C_TeTeTeTe H_S O_Te2Te2TeTe H_S C_TrTrTrPi O_Tr2Tr2TrPi N_TrTrTrPi2 H_S C_TeTeTeTe H_S H_S C_TeTeTeTe H_S H_S C_TrTrTrPi O_Tr2Tr2TrPi N_TrTrTrPi2 H_S C_TeTeTeTe H_S H_S C_TeTeTeTe H_S H_S S_Te2Te2TeTe C_TrTrTrPi O_Tr2Tr2TrPi C_TeTeTeTe H_S H_S H_S
M  BCL BND AromaticSingleBond AromaticDoubleBond NonConjugatedSingleBond AromaticDoubleBond AromaticSingleBond AromaticDoubleBond AromaticSingleBond AromaticSingleBond AromaticSingleBond ConjugatedSingleBond NonConjugatedSingleBond NonConjugatedSingleBond AromaticDoubleBond NonConjugatedSingleBond AromaticSingleBond NonConjugatedSingleBond NonConjugatedSingleBond NonConjugatedSingleBondInRing NonConjugatedSingleBondInRing NonConjugatedSingleBond NonConjugatedSingleBond NonConjugatedSingleBondInRing NonConjugatedSingleBond NonConjugatedSingleBond NonConjugatedSingleBond NonConjugatedSingleBondInRing ConjugatedSingleBond ConjugatedSingleBond ConjugatedDoubleBond ConjugatedSingleBond NonConjugatedSingleBond NonConjugatedSingleBondInRing NonConjugatedSingleBond NonConjugatedSingleBond NonConjugatedSingleBond NonConjugatedSingleBond ConjugatedSingleBond ConjugatedSingleBond ConjugatedDoubleBond ConjugatedSingleBond ConjugatedSingleBond ConjugatedDoubleBond ConjugatedSingleBond ConjugatedSingleBond NonConjugatedSingleBond NonConjugatedSingleBond NonConjugatedSingleBond NonConjugatedSingleBond NonConjugatedSingleBond NonConjugatedSingleBond NonConjugatedSingleBond NonConjugatedSingleBond NonConjugatedSingleBond NonConjugatedSingleBond NonConjugatedSingleBond NonConjugatedSingleBond NonConjugatedSingleBond NonConjugatedSingleBond NonConjugatedSingleBond NonConjugatedSingleBond NonConjugatedSingleBond ConjugatedDoubleBond AmideSingleBond NonConjugatedSingleBond NonConjugatedSingleBond NonConjugatedSingleBond NonConjugatedSingleBond NonConjugatedSingleBond NonConjugatedSingleBond NonConjugatedSingleBond NonConjugatedSingleBond ConjugatedDoubleBond AmideSingleBond NonConjugatedSingleBond NonConjugatedSingleBond NonConjugatedSingleBond NonConjugatedSingleBond NonConjugatedSingleBond NonConjugatedSingleBond NonConjugatedSingleBond NonConjugatedSingleBond ConjugatedSingleBond ConjugatedDoubleBond NonConjugatedSingleBond NonConjugatedSingleBond NonConjugatedSingleBond NonConjugatedSingleBond
M  BCL CHI  15   S  17   S  21   S  24   S  28   R  35   R  39   R  55   S
M  BCL DBI - - - - - - - - - -
M  END
> <ConfClashScore>
0 

> <ConfOneFourInteractionScore>
-0.983331 

> <ConfScore>
0.153335 

> <ConfScorePBest>
0.00500445 

> <ConfTolerance>
4.02369 

$$$$
ACO.****
  PyMOL2.5          3D                             0

 85 87  0  0  0  0  0  0  0  0999 V2000
    4.9090    1.0949  -10.6225 N   0  0  0  1  0  0  0  0  0  0  0  0
    3.8630    1.9287  -10.5102 C   0  0  0  1  0  0  0  0  0  0  0  0
    3.8422    2.7179  -11.1872 H   0  0  0  1  0  0  0  0  0  0  0  0
    2.8516    1.8819   -9.6519 N   0  0  0  1  0  0  0  0  0  0  0  0
    2.9600    0.8369   -8.8302 C   0  0  0  1  0  0  0  0  0  0  0  0
    3.9870   -0.1165   -8.8188 C   0  0  0  1  0  0  0  0  0  0  0  0
    4.9851    0.0661   -9.7714 C   0  0  0  1  0  0  0  0  0  0  0  0
    6.0664   -0.7667   -9.8901 N   0  0  0  1  0  0  0  0  0  0  0  0
    6.9189   -0.4182  -10.2250 H   0  0  0  1  0  0  0  0  0  0  0  0
    5.9873   -1.7110   -9.6400 H   0  0  0  1  0  0  0  0  0  0  0  0
    3.7677   -1.0468   -7.8148 N   0  0  0  1  0  0  0  0  0  0  0  0
    2.6517   -0.6485   -7.2674 C   0  0  0  1  0  0  0  0  0  0  0  0
    2.2083   -1.1512   -6.4722 H   0  0  0  1  0  0  0  0  0  0  0  0
    2.1119    0.4744   -7.8157 N   0  0  0  1  0  0  0  0  0  0  0  0
    0.8431    1.1322   -7.3566 C   0  0  0  1  0  0  0  0  0  0  0  0
    0.4361    0.5863   -6.5312 H   0  0  0  1  0  0  0  0  0  0  0  0
    1.0947    2.5517   -6.9754 C   0  0  0  1  0  0  0  0  0  0  0  0
    1.8496    2.9857   -7.5973 H   0  0  0  1  0  0  0  0  0  0  0  0
    1.4910    2.6491   -5.6049 O   0  0  0  1  0  0  0  0  0  0  0  0
    1.5175    3.5726   -5.3438 H   0  0  0  1  0  0  0  0  0  0  0  0
   -0.2375    3.2224   -7.1991 C   0  0  0  1  0  0  0  0  0  0  0  0
   -0.1018    4.1978   -7.6176 H   0  0  0  1  0  0  0  0  0  0  0  0
   -0.9710    3.3283   -5.9515 O   0  0  0  1  0  0  0  0  0  0  0  0
   -0.6388    4.5245   -4.8799 P   0  0  0  1  0  0  0  0  0  0  0  0
   -2.0547    4.8367   -4.1135 O   0  0  0  0  0  0  0  0  0  0  0  0
    0.2895    4.0385   -3.8347 O   0  0  0  1  0  0  0  0  0  0  0  0
   -0.1283    5.7681   -5.7839 O   0  5  0  1  0  0  0  0  0  0  0  0
   -0.9633    2.3313   -8.1634 C   0  0  0  1  0  0  0  0  0  0  0  0
   -1.8818    1.9956   -7.7292 H   0  0  0  1  0  0  0  0  0  0  0  0
   -0.1139    1.2082   -8.4403 O   0  0  0  1  0  0  0  0  0  0  0  0
   -1.2514    3.0752   -9.4259 C   0  0  0  1  0  0  0  0  0  0  0  0
   -0.5432    3.8673   -9.5517 H   0  0  0  1  0  0  0  0  0  0  0  0
   -2.2403    3.4823   -9.3914 H   0  0  0  1  0  0  0  0  0  0  0  0
   -1.1423    2.1378  -10.5228 O   0  0  0  1  0  0  0  0  0  0  0  0
   -1.2905    2.5393  -11.9684 P   0  0  0  1  0  0  0  0  0  0  0  0
   -2.7625    2.9336  -12.3063 O   0  0  0  0  0  0  0  0  0  0  0  0
   -0.8094    1.5127  -12.9525 O   0  0  0  1  0  0  0  0  0  0  0  0
   -0.4306    3.8587  -12.2702 O   0  0  0  1  0  0  0  0  0  0  0  0
   -0.7663    5.4365  -11.9749 P   0  0  0  1  0  0  0  0  0  0  0  0
   -1.7105    5.9177  -13.0080 O   0  0  0  1  0  0  0  0  0  0  0  0
   -1.3348    5.4756  -10.4584 O   0  5  0  1  0  0  0  0  0  0  0  0
    0.5438    6.3057  -12.0408 O   0  0  0  1  0  0  0  0  0  0  0  0
    2.0847    6.8985  -10.3348 C   0  0  0  1  0  0  0  0  0  0  0  0
    1.7531    5.8765  -11.3720 C   0  0  0  1  0  0  0  0  0  0  0  0
    2.5532    5.8015  -12.0785 H   0  0  0  1  0  0  0  0  0  0  0  0
    1.5953    4.9251  -10.9087 H   0  0  0  1  0  0  0  0  0  0  0  0
    0.9104    6.9912   -9.3538 C   0  0  0  1  0  0  0  0  0  0  0  0
    0.6105    6.0066   -9.0616 H   0  0  0  1  0  0  0  0  0  0  0  0
    0.0893    7.4883   -9.8267 H   0  0  0  1  0  0  0  0  0  0  0  0
    1.2117    7.5436   -8.4884 H   0  0  0  1  0  0  0  0  0  0  0  0
    2.2785    8.2647  -10.9930 C   0  0  0  1  0  0  0  0  0  0  0  0
    1.3419    8.6128  -11.3757 H   0  0  0  1  0  0  0  0  0  0  0  0
    2.9811    8.1774  -11.7952 H   0  0  0  1  0  0  0  0  0  0  0  0
    2.6481    8.9600  -10.2686 H   0  0  0  1  0  0  0  0  0  0  0  0
    3.3537    6.5177   -9.5607 C   0  0  0  1  0  0  0  0  0  0  0  0
    3.4004    7.0988   -8.6634 H   0  0  0  1  0  0  0  0  0  0  0  0
    3.2581    5.1363   -9.2546 O   0  0  0  1  0  0  0  0  0  0  0  0
    2.8161    5.0252   -8.4097 H   0  0  0  1  0  0  0  0  0  0  0  0
    4.5717    6.8306  -10.4204 C   0  0  0  1  0  0  0  0  0  0  0  0
    4.9263    7.9904  -10.6271 O   0  0  0  1  0  0  0  0  0  0  0  0
    5.2172    5.7677  -10.9261 N   0  0  0  1  0  0  0  0  0  0  0  0
    4.8502    4.8801  -10.7316 H   0  0  0  1  0  0  0  0  0  0  0  0
    6.4207    5.8344  -11.7415 C   0  0  0  1  0  0  0  0  0  0  0  0
    6.6517    6.8653  -11.9111 H   0  0  0  1  0  0  0  0  0  0  0  0
    6.2168    5.3556  -12.6764 H   0  0  0  1  0  0  0  0  0  0  0  0
    7.6444    5.1693  -11.1250 C   0  0  0  1  0  0  0  0  0  0  0  0
    7.8710    5.6616  -10.2024 H   0  0  0  1  0  0  0  0  0  0  0  0
    8.4676    5.2786  -11.7998 H   0  0  0  1  0  0  0  0  0  0  0  0
    7.4410    3.6927  -10.8469 C   0  0  0  1  0  0  0  0  0  0  0  0
    7.3223    2.8807  -11.7636 O   0  0  0  1  0  0  0  0  0  0  0  0
    7.4009    3.3435   -9.5520 N   0  0  0  1  0  0  0  0  0  0  0  0
    7.5658    4.0454   -8.8882 H   0  0  0  1  0  0  0  0  0  0  0  0
    7.1310    2.0023   -9.0594 C   0  0  0  1  0  0  0  0  0  0  0  0
    6.9280    1.3648   -9.8944 H   0  0  0  1  0  0  0  0  0  0  0  0
    6.2735    2.0378   -8.4204 H   0  0  0  1  0  0  0  0  0  0  0  0
    8.2893    1.4272   -8.2825 C   0  0  0  1  0  0  0  0  0  0  0  0
    8.5537    2.1155   -7.5071 H   0  0  0  1  0  0  0  0  0  0  0  0
    9.1176    1.3041   -8.9486 H   0  0  0  1  0  0  0  0  0  0  0  0
    7.9175   -0.1676   -7.5303 S   0  0  0  1  0  0  0  0  0  0  0  0
    7.4727    0.2002   -5.9953 C   0  0  0  1  0  0  0  0  0  0  0  0
    7.2790    1.0410   -5.3469 O   0  0  0  1  0  0  0  0  0  0  0  0
    7.1415   -1.3077   -5.1599 C   0  0  0  1  0  0  0  0  0  0  0  0
    7.1318   -2.1122   -5.8653 H   0  0  0  1  0  0  0  0  0  0  0  0
    6.1887   -1.2458   -4.6769 H   0  0  0  1  0  0  0  0  0  0  0  0
    7.9021   -1.4843   -4.4283 H   0  0  0  1  0  0  0  0  0  0  0  0
  1  2  1  0  0  0  0
  1  7  2  0  0  0  0
  2  3  1  0  0  0  0
  2  4  2  0  0  0  0
  4  5  1  0  0  0  0
  5  6  2  0  0  0  0
  5 14  1  0  0  0  0
  6  7  1  0  0  0  0
  6 11  1  0  0  0  0
  7  8  1  0  0  0  0
  8  9  1  0  0  0  0
  8 10  1  0  0  0  0
 11 12  2  0  0  0  0
 12 13  1  0  0  0  0
 12 14  1  0  0  0  0
 14 15  1  0  0  0  0
 15 16  1  0  0  0  0
 15 17  1  0  0  0  0
 15 30  1  0  0  0  0
 17 18  1  0  0  0  0
 17 19  1  0  0  0  0
 17 21  1  0  0  0  0
 19 20  1  0  0  0  0
 21 22  1  0  0  0  0
 21 23  1  0  0  0  0
 21 28  1  0  0  0  0
 23 24  1  0  0  0  0
 24 25  1  0  0  0  0
 24 26  2  0  0  0  0
 24 27  1  0  0  0  0
 28 29  1  0  0  0  0
 28 30  1  0  0  0  0
 28 31  1  0  0  0  0
 31 32  1  0  0  0  0
 31 33  1  0  0  0  0
 31 34  1  0  0  0  0
 34 35  1  0  0  0  0
 35 36  1  0  0  0  0
 35 37  2  0  0  0  0
 35 38  1  0  0  0  0
 38 39  1  0  0  0  0
 39 40  2  0  0  0  0
 39 41  1  0  0  0  0
 39 42  1  0  0  0  0
 42 44  1  0  0  0  0
 43 44  1  0  0  0  0
 43 47  1  0  0  0  0
 43 51  1  0  0  0  0
 43 55  1  0  0  0  0
 44 45  1  0  0  0  0
 44 46  1  0  0  0  0
 47 48  1  0  0  0  0
 47 49  1  0  0  0  0
 47 50  1  0  0  0  0
 51 52  1  0  0  0  0
 51 53  1  0  0  0  0
 51 54  1  0  0  0  0
 55 56  1  0  0  0  0
 55 57  1  0  0  0  0
 55 59  1  0  0  0  0
 57 58  1  0  0  0  0
 59 60  2  0  0  0  0
 59 61  1  0  0  0  0
 61 62  1  0  0  0  0
 61 63  1  0  0  0  0
 63 64  1  0  0  0  0
 63 65  1  0  0  0  0
 63 66  1  0  0  0  0
 66 67  1  0  0  0  0
 66 68  1  0  0  0  0
 66 69  1  0  0  0  0
 69 70  2  0  0  0  0
 69 71  1  0  0  0  0
 71 72  1  0  0  0  0
 71 73  1  0  0  0  0
 73 74  1  0  0  0  0
 73 75  1  0  0  0  0
 73 76  1  0  0  0  0
 76 77  1  0  0  0  0
 76 78  1  0  0  0  0
 76 79  1  0  0  0  0
 79 80  1  0  0  0  0
 80 81  2  0  0  0  0
 80 82  1  0  0  0  0
 82 83  1  0  0  0  0
 82 84  1  0  0  0  0
 82 85  1  0  0  0  0
M  BCL ATM N_Tr2TrTrPi C_TrTrTrPi H_S N_Tr2TrTrPi C_TrTrTrPi C_TrTrTrPi C_TrTrTrPi N_TrTrTrPi2 H_S H_S N_Tr2TrTrPi C_TrTrTrPi H_S N_TrTrTrPi2 C_TeTeTeTe H_S C_TeTeTeTe H_S O_Te2Te2TeTe H_S C_TeTeTeTe H_S O_Tr2TrTrPi2 P_TeTeTeTePi O_Te2Te2TeTe O_Tr2Tr2TrPi O_Te2Te2Te2Te C_TeTeTeTe H_S O_Te2Te2TeTe C_TeTeTeTe H_S H_S O_Tr2TrTrPi2 P_TeTeTeTePi O_Te2Te2TeTe O_Tr2Tr2TrPi O_Tr2TrTrPi2 P_TeTeTeTePi O_Tr2Tr2TrPi O_Te2Te2Te2Te O_Tr2TrTrPi2 C_TeTeTeTe C_TeTeTeTe H_S H_S C_TeTeTeTe H_S H_S H_S C_TeTeTeTe H_S H_S H_S C_TeTeTeTe H_S O_Te2Te2TeTe H_S C_TrTrTrPi O_Tr2Tr2TrPi N_TrTrTrPi2 H_S C_TeTeTeTe H_S H_S C_TeTeTeTe H_S H_S C_TrTrTrPi O_Tr2Tr2TrPi N_TrTrTrPi2 H_S C_TeTeTeTe H_S H_S C_TeTeTeTe H_S H_S S_Te2Te2TeTe C_TrTrTrPi O_Tr2Tr2TrPi C_TeTeTeTe H_S H_S H_S
M  BCL BND AromaticSingleBond AromaticDoubleBond NonConjugatedSingleBond AromaticDoubleBond AromaticSingleBond AromaticDoubleBond AromaticSingleBond AromaticSingleBond AromaticSingleBond ConjugatedSingleBond NonConjugatedSingleBond NonConjugatedSingleBond AromaticDoubleBond NonConjugatedSingleBond AromaticSingleBond NonConjugatedSingleBond NonConjugatedSingleBond NonConjugatedSingleBondInRing NonConjugatedSingleBondInRing NonConjugatedSingleBond NonConjugatedSingleBond NonConjugatedSingleBondInRing NonConjugatedSingleBond NonConjugatedSingleBond NonConjugatedSingleBond NonConjugatedSingleBondInRing ConjugatedSingleBond ConjugatedSingleBond ConjugatedDoubleBond ConjugatedSingleBond NonConjugatedSingleBond NonConjugatedSingleBondInRing NonConjugatedSingleBond NonConjugatedSingleBond NonConjugatedSingleBond NonConjugatedSingleBond ConjugatedSingleBond ConjugatedSingleBond ConjugatedDoubleBond ConjugatedSingleBond ConjugatedSingleBond ConjugatedDoubleBond ConjugatedSingleBond ConjugatedSingleBond NonConjugatedSingleBond NonConjugatedSingleBond NonConjugatedSingleBond NonConjugatedSingleBond NonConjugatedSingleBond NonConjugatedSingleBond NonConjugatedSingleBond NonConjugatedSingleBond NonConjugatedSingleBond NonConjugatedSingleBond NonConjugatedSingleBond NonConjugatedSingleBond NonConjugatedSingleBond NonConjugatedSingleBond NonConjugatedSingleBond NonConjugatedSingleBond NonConjugatedSingleBond ConjugatedDoubleBond AmideSingleBond NonConjugatedSingleBond NonConjugatedSingleBond NonConjugatedSingleBond NonConjugatedSingleBond NonConjugatedSingleBond NonConjugatedSingleBond NonConjugatedSingleBond NonConjugatedSingleBond ConjugatedDoubleBond AmideSingleBond NonConjugatedSingleBond NonConjugatedSingleBond NonConjugatedSingleBond NonConjugatedSingleBond NonConjugatedSingleBond NonConjugatedSingleBond NonConjugatedSingleBond NonConjugatedSingleBond ConjugatedSingleBond ConjugatedDoubleBond NonConjugatedSingleBond NonConjugatedSingleBond NonConjugatedSingleBond NonConjugatedSingleBond
M  BCL CHI  15   S  17   S  21   S  24   S  28   R  35   R  39   R  55   S
M  BCL DBI - - - - - - - - - -
M  END
> <ConfClashScore>
0 

> <ConfOneFourInteractionScore>
-0.985637 

> <ConfScore>
0.201211 

> <ConfScorePBest>
0.00490145 

> <ConfTolerance>
6.15956 

$$$$
