ACO.****
  PyMOL2.5          3D                             0

 85 87  0  0  0  0  0  0  0  0999 V2000
    4.8800    1.1080  -10.6500 N   0  0  0  0  0  0  0  0  0  0  0  0
    3.8650    1.9490  -10.5870 C   0  0  0  0  0  0  0  0  0  0  0  0
    3.8190    2.7620  -11.2960 H   0  0  0  0  0  0  0  0  0  0  0  0
    2.9060    1.8340   -9.6920 N   0  0  0  0  0  0  0  0  0  0  0  0
    2.9220    0.8440   -8.8060 C   0  0  0  0  0  0  0  0  0  0  0  0
    3.9850   -0.0740   -8.8280 C   0  0  0  0  0  0  0  0  0  0  0  0
    4.9840    0.0900   -9.8020 C   0  0  0  0  0  0  0  0  0  0  0  0
    6.0520   -0.7860   -9.8760 N   0  0  0  0  0  0  0  0  0  0  0  0
    6.1200   -1.5550   -9.2250 H   0  0  0  0  0  0  0  0  0  0  0  0
    6.7630   -0.6570  -10.5810 H   0  0  0  0  0  0  0  0  0  0  0  0
    3.7650   -0.9630   -7.8300 N   0  0  0  0  0  0  0  0  0  0  0  0
    2.6640   -0.6530   -7.2080 C   0  0  0  0  0  0  0  0  0  0  0  0
    2.2520   -1.1950   -6.3700 H   0  0  0  0  0  0  0  0  0  0  0  0
    2.1090    0.4570   -7.7710 N   0  0  0  0  0  0  0  0  0  0  0  0
    0.8670    1.1130   -7.3520 C   0  0  0  0  0  0  0  0  0  0  0  0
    0.9760    2.1650   -7.6150 H   0  0  0  0  0  0  0  0  0  0  0  0
   -0.3590    0.4460   -8.0250 C   0  0  0  0  0  0  0  0  0  0  0  0
   -0.2380   -0.6230   -8.1990 H   0  0  0  0  0  0  0  0  0  0  0  0
   -0.6070    1.0170   -9.3120 O   0  0  0  0  0  0  0  0  0  0  0  0
   -1.4060    0.6130   -9.6600 H   0  0  0  0  0  0  0  0  0  0  0  0
   -1.5020    0.7960   -7.0360 C   0  0  0  0  0  0  0  0  0  0  0  0
   -2.2300   -0.0090   -6.9290 H   0  0  0  0  0  0  0  0  0  0  0  0
   -2.2290    1.9370   -7.4960 O   0  0  0  0  0  0  0  0  0  0  0  0
   -3.7620    1.4740   -7.6650 P   0  0  0  0  0  0  0  0  0  0  0  0
   -4.2840    1.0090   -6.3610 O   0  0  0  0  0  0  0  0  0  0  0  0
   -4.6440    2.7170   -8.1840 O   0  5  0  0  0  0  0  0  0  0  0  0
   -3.8450    0.2740   -8.7360 O   0  5  0  0  0  0  0  0  0  0  0  0
   -0.7710    1.1100   -5.7160 C   0  0  0  0  0  0  0  0  0  0  0  0
   -0.9650    2.1360   -5.4030 H   0  0  0  0  0  0  0  0  0  0  0  0
    0.6330    0.9050   -5.9430 O   0  0  0  0  0  0  0  0  0  0  0  0
   -1.2620    0.1710   -4.6130 C   0  0  0  0  0  0  0  0  0  0  0  0
   -1.0660   -0.8620   -4.9010 H   0  0  0  0  0  0  0  0  0  0  0  0
   -2.3330    0.3110   -4.4670 H   0  0  0  0  0  0  0  0  0  0  0  0
   -0.5740    0.4640   -3.3960 O   0  0  0  0  0  0  0  0  0  0  0  0
   -1.1380   -0.5550   -2.2850 P   0  0  0  0  0  0  0  0  0  0  0  0
   -0.8750   -1.9470   -2.7140 O   0  0  0  0  0  0  0  0  0  0  0  0
   -2.7240   -0.3370   -2.1120 O   0  5  0  0  0  0  0  0  0  0  0  0
   -0.4010   -0.2790   -0.8800 O   0  0  0  0  0  0  0  0  0  0  0  0
   -1.0100   -1.3290    0.1780 P   0  0  0  0  0  0  0  0  0  0  0  0
   -2.4700   -1.1160    0.2990 O   0  0  0  0  0  0  0  0  0  0  0  0
   -0.7270   -2.8300   -0.3300 O   0  5  0  0  0  0  0  0  0  0  0  0
   -0.3150   -1.1080    1.6130 O   0  0  0  0  0  0  0  0  0  0  0  0
   -0.2730   -1.9070    3.8930 C   0  0  0  0  0  0  0  0  0  0  0  0
   -0.8940   -2.0630    2.5040 C   0  0  0  0  0  0  0  0  0  0  0  0
   -0.7030   -3.0690    2.1320 H   0  0  0  0  0  0  0  0  0  0  0  0
   -1.9690   -1.8960    2.5660 H   0  0  0  0  0  0  0  0  0  0  0  0
   -0.5420   -0.4940    4.4160 C   0  0  0  0  0  0  0  0  0  0  0  0
   -0.1000    0.2350    3.7370 H   0  0  0  0  0  0  0  0  0  0  0  0
   -0.1000   -0.3830    5.4060 H   0  0  0  0  0  0  0  0  0  0  0  0
   -1.6170   -0.3280    4.4780 H   0  0  0  0  0  0  0  0  0  0  0  0
    1.2360   -2.1400    3.8070 C   0  0  0  0  0  0  0  0  0  0  0  0
    1.6780   -1.4120    3.1270 H   0  0  0  0  0  0  0  0  0  0  0  0
    1.4280   -3.1470    3.4360 H   0  0  0  0  0  0  0  0  0  0  0  0
    1.6780   -2.0280    4.7970 H   0  0  0  0  0  0  0  0  0  0  0  0
   -0.8930   -2.9290    4.8470 C   0  0  0  0  0  0  0  0  0  0  0  0
   -1.9520   -2.7070    4.9770 H   0  0  0  0  0  0  0  0  0  0  0  0
   -0.7440   -4.2420    4.3020 O   0  0  0  0  0  0  0  0  0  0  0  0
    0.1960   -4.4090    4.1990 H   0  0  0  0  0  0  0  0  0  0  0  0
   -0.1970   -2.8580    6.1820 C   0  0  0  0  0  0  0  0  0  0  0  0
    0.5790   -3.7300    6.5080 O   0  0  0  0  0  0  0  0  0  0  0  0
   -0.4380   -1.8250    7.0130 N   0  0  0  0  0  0  0  0  0  0  0  0
   -1.0950   -1.1050    6.7470 H   0  0  0  0  0  0  0  0  0  0  0  0
    0.2520   -1.7450    8.3020 C   0  0  0  0  0  0  0  0  0  0  0  0
    1.3280   -1.7040    8.1350 H   0  0  0  0  0  0  0  0  0  0  0  0
    0.0100   -2.6250    8.8980 H   0  0  0  0  0  0  0  0  0  0  0  0
   -0.1970   -0.4860    9.0460 C   0  0  0  0  0  0  0  0  0  0  0  0
   -1.2730   -0.5270    9.2120 H   0  0  0  0  0  0  0  0  0  0  0  0
    0.0450    0.3940    8.4500 H   0  0  0  0  0  0  0  0  0  0  0  0
    0.5130   -0.4040   10.3720 C   0  0  0  0  0  0  0  0  0  0  0  0
    1.3020   -1.2680   10.6910 O   0  0  0  0  0  0  0  0  0  0  0  0
    0.2720    0.6280   11.2030 N   0  0  0  0  0  0  0  0  0  0  0  0
   -0.3860    1.3470   10.9370 H   0  0  0  0  0  0  0  0  0  0  0  0
    0.9630    0.7080   12.4920 C   0  0  0  0  0  0  0  0  0  0  0  0
    2.0390    0.7490   12.3250 H   0  0  0  0  0  0  0  0  0  0  0  0
    0.7210   -0.1710   13.0890 H   0  0  0  0  0  0  0  0  0  0  0  0
    0.5130    1.9680   13.2350 C   0  0  0  0  0  0  0  0  0  0  0  0
   -0.5630    1.9270   13.4020 H   0  0  0  0  0  0  0  0  0  0  0  0
    0.7550    2.8480   12.6380 H   0  0  0  0  0  0  0  0  0  0  0  0
    1.3670    2.0660   14.8280 S   0  0  0  0  0  0  0  0  0  0  0  0
    0.7000    3.5220   15.4340 C   0  0  0  0  0  0  0  0  0  0  0  0
   -0.1110    4.1370   14.7750 O   0  0  0  0  0  0  0  0  0  0  0  0
    1.1220    4.0390   16.7850 C   0  0  0  0  0  0  0  0  0  0  0  0
    1.8510    3.3580   17.2230 H   0  0  0  0  0  0  0  0  0  0  0  0
    0.2510    4.1070   17.4370 H   0  0  0  0  0  0  0  0  0  0  0  0
    1.5690    5.0270   16.6730 H   0  0  0  0  0  0  0  0  0  0  0  0
  2  3  1  0  0  0  0
  5 14  1  0  0  0  0
  6 11  1  0  0  0  0
  7  8  1  0  0  0  0
  8  9  1  0  0  0  0
  8 10  1  0  0  0  0
 11 12  2  0  0  0  0
 12 13  1  0  0  0  0
 12 14  1  0  0  0  0
 14 15  1  0  0  0  0
 15 16  1  0  0  0  0
 15 17  1  0  0  0  0
 15 30  1  0  0  0  0
 17 18  1  0  0  0  0
 17 19  1  0  0  0  0
 17 21  1  0  0  0  0
 19 20  1  0  0  0  0
 21 22  1  0  0  0  0
 21 23  1  0  0  0  0
 21 28  1  0  0  0  0
 23 24  1  0  0  0  0
 28 29  1  0  0  0  0
 28 30  1  0  0  0  0
 28 31  1  0  0  0  0
 31 32  1  0  0  0  0
 31 33  1  0  0  0  0
 31 34  1  0  0  0  0
 34 35  1  0  0  0  0
 35 38  1  0  0  0  0
 38 39  1  0  0  0  0
 39 42  1  0  0  0  0
 42 44  1  0  0  0  0
 43 44  1  0  0  0  0
 43 47  1  0  0  0  0
 43 51  1  0  0  0  0
 43 55  1  0  0  0  0
 44 45  1  0  0  0  0
 44 46  1  0  0  0  0
 47 48  1  0  0  0  0
 47 49  1  0  0  0  0
 47 50  1  0  0  0  0
 51 52  1  0  0  0  0
 51 53  1  0  0  0  0
 51 54  1  0  0  0  0
 55 56  1  0  0  0  0
 55 57  1  0  0  0  0
 55 59  1  0  0  0  0
 57 58  1  0  0  0  0
 59 60  2  0  0  0  0
 59 61  1  0  0  0  0
 61 62  1  0  0  0  0
 61 63  1  0  0  0  0
 63 64  1  0  0  0  0
 63 65  1  0  0  0  0
 63 66  1  0  0  0  0
 66 67  1  0  0  0  0
 66 68  1  0  0  0  0
 66 69  1  0  0  0  0
 69 70  2  0  0  0  0
 69 71  1  0  0  0  0
 71 72  1  0  0  0  0
 71 73  1  0  0  0  0
 73 74  1  0  0  0  0
 73 75  1  0  0  0  0
 73 76  1  0  0  0  0
 76 77  1  0  0  0  0
 76 78  1  0  0  0  0
 76 79  1  0  0  0  0
 79 80  1  0  0  0  0
 80 81  2  0  0  0  0
 80 82  1  0  0  0  0
 82 83  1  0  0  0  0
 82 84  1  0  0  0  0
 82 85  1  0  0  0  0
 39 41  1  0  0  0  0
 39 40  2  0  0  0  0
 35 36  1  0  0  0  0
 35 37  2  0  0  0  0
 24 26  2  0  0  0  0
 24 25  1  0  0  0  0
 24 27  1  0  0  0  0
  5  6  2  0  0  0  0
  2  4  2  0  0  0  0
  1  7  2  0  0  0  0
  6  7  1  0  0  0  0
  4  5  1  0  0  0  0
  1  2  1  0  0  0  0
M  END
$$$$
