# created with PyMOL 2.4.0
@<TRIPOS>MOLECULE
ACO.****
85 87 1                 
SMALL
USER_CHARGES
@<TRIPOS>ATOM
1	   N	4.880	1.108	-10.650	N.2	1	UNK0	0.000	
2	   C	3.865	1.949	-10.587	C.2	1	UNK0	0.000	
3	   H	3.819	2.762	-11.296	 H	1	UNK0	0.000	
4	   N	2.906	1.834	-9.692	N.2	1	UNK0	0.000	
5	   C	2.922	0.844	-8.806	C.2	1	UNK0	0.000	
6	   C	3.985	-0.074	-8.828	C.2	1	UNK0	0.000	
7	   C	4.984	0.090	-9.802	C.2	1	UNK0	0.000	
8	   N	6.052	-0.786	-9.876	N.pl3	1	UNK0	0.000	
9	   H	6.120	-1.555	-9.225	 H	1	UNK0	0.000	
10	   H	6.763	-0.657	-10.581	 H	1	UNK0	0.000	
11	   N	3.765	-0.963	-7.830	N.2	1	UNK0	0.000	
12	   C	2.664	-0.653	-7.208	C.2	1	UNK0	0.000	
13	   H	2.252	-1.195	-6.370	 H	1	UNK0	0.000	
14	   N	2.109	0.457	-7.771	N.pl3	1	UNK0	0.000	
15	   C	0.867	1.113	-7.352	C.3	1	UNK0	0.000	
16	   H	0.976	2.165	-7.615	 H	1	UNK0	0.000	
17	   C	-0.359	0.446	-8.025	C.3	1	UNK0	0.000	
18	   H	-0.238	-0.623	-8.199	 H	1	UNK0	0.000	
19	   O	-0.607	1.017	-9.312	O.3	1	UNK0	0.000	
20	   H	-1.406	0.613	-9.660	 H	1	UNK0	0.000	
21	   C	-1.502	0.796	-7.036	C.3	1	UNK0	0.000	
22	   H	-2.230	-0.009	-6.929	 H	1	UNK0	0.000	
23	   O	-2.229	1.937	-7.496	O.3	1	UNK0	0.000	
24	   P	-3.762	1.474	-7.665	P.3	1	UNK0	0.000	
25	   O	-4.284	1.009	-6.361	O.co2	1	UNK0	0.000	
26	   O	-4.644	2.717	-8.184	O.co2	1	UNK0	0.000	
27	   O	-3.845	0.274	-8.736	O.co2	1	UNK0	0.000	
28	   C	-0.771	1.110	-5.716	C.3	1	UNK0	0.000	
29	   H	-0.965	2.136	-5.403	 H	1	UNK0	0.000	
30	   O	0.633	0.905	-5.943	O.3	1	UNK0	0.000	
31	   C	-1.262	0.171	-4.613	C.3	1	UNK0	0.000	
32	   H	-1.066	-0.862	-4.901	 H	1	UNK0	0.000	
33	   H	-2.333	0.311	-4.467	 H	1	UNK0	0.000	
34	   O	-0.574	0.464	-3.396	O.3	1	UNK0	0.000	
35	   P	-1.138	-0.555	-2.285	P.3	1	UNK0	0.000	
36	   O	-0.875	-1.947	-2.714	O.co2	1	UNK0	0.000	
37	   O	-2.724	-0.337	-2.112	O.co2	1	UNK0	0.000	
38	   O	-0.401	-0.279	-0.880	O.3	1	UNK0	0.000	
39	   P	-1.010	-1.329	0.178	P.3	1	UNK0	0.000	
40	   O	-2.470	-1.116	0.299	O.co2	1	UNK0	0.000	
41	   O	-0.727	-2.830	-0.330	O.co2	1	UNK0	0.000	
42	   O	-0.315	-1.108	1.613	O.3	1	UNK0	0.000	
43	   C	-0.273	-1.907	3.893	C.3	1	UNK0	0.000	
44	   C	-0.894	-2.063	2.504	C.3	1	UNK0	0.000	
45	   H	-0.703	-3.069	2.132	 H	1	UNK0	0.000	
46	   H	-1.969	-1.896	2.566	 H	1	UNK0	0.000	
47	   C	-0.542	-0.494	4.416	C.3	1	UNK0	0.000	
48	   H	-0.100	0.235	3.737	 H	1	UNK0	0.000	
49	   H	-0.100	-0.383	5.406	 H	1	UNK0	0.000	
50	   H	-1.617	-0.328	4.478	 H	1	UNK0	0.000	
51	   C	1.236	-2.140	3.807	C.3	1	UNK0	0.000	
52	   H	1.678	-1.412	3.127	 H	1	UNK0	0.000	
53	   H	1.428	-3.147	3.436	 H	1	UNK0	0.000	
54	   H	1.678	-2.028	4.797	 H	1	UNK0	0.000	
55	   C	-0.893	-2.929	4.847	C.3	1	UNK0	0.000	
56	   H	-1.952	-2.707	4.977	 H	1	UNK0	0.000	
57	   O	-0.744	-4.242	4.302	O.3	1	UNK0	0.000	
58	   H	0.196	-4.409	4.199	 H	1	UNK0	0.000	
59	   C	-0.197	-2.858	6.182	C.2	1	UNK0	0.000	
60	   O	0.579	-3.730	6.508	O.2	1	UNK0	0.000	
61	   N	-0.438	-1.825	7.013	N.pl3	1	UNK0	0.000	
62	   H	-1.095	-1.105	6.747	 H	1	UNK0	0.000	
63	   C	0.252	-1.745	8.302	C.3	1	UNK0	0.000	
64	   H	1.328	-1.704	8.135	 H	1	UNK0	0.000	
65	   H	0.010	-2.625	8.898	 H	1	UNK0	0.000	
66	   C	-0.197	-0.486	9.046	C.3	1	UNK0	0.000	
67	   H	-1.273	-0.527	9.212	 H	1	UNK0	0.000	
68	   H	0.045	0.394	8.450	 H	1	UNK0	0.000	
69	   C	0.513	-0.404	10.372	C.2	1	UNK0	0.000	
70	   O	1.302	-1.268	10.691	O.2	1	UNK0	0.000	
71	   N	0.272	0.628	11.203	N.pl3	1	UNK0	0.000	
72	   H	-0.386	1.347	10.937	 H	1	UNK0	0.000	
73	   C	0.963	0.708	12.492	C.3	1	UNK0	0.000	
74	   H	2.039	0.749	12.325	 H	1	UNK0	0.000	
75	   H	0.721	-0.171	13.089	 H	1	UNK0	0.000	
76	   C	0.513	1.968	13.235	C.3	1	UNK0	0.000	
77	   H	-0.563	1.927	13.402	 H	1	UNK0	0.000	
78	   H	0.755	2.848	12.638	 H	1	UNK0	0.000	
79	   S	1.367	2.066	14.828	S.3	1	UNK0	0.000	
80	   C	0.700	3.522	15.434	C.2	1	UNK0	0.000	
81	   O	-0.111	4.137	14.775	O.2	1	UNK0	0.000	
82	   C	1.122	4.039	16.785	C.3	1	UNK0	0.000	
83	   H	1.851	3.358	17.223	 H	1	UNK0	0.000	
84	   H	0.251	4.107	17.437	 H	1	UNK0	0.000	
85	   H	1.569	5.027	16.673	 H	1	UNK0	0.000	
@<TRIPOS>BOND
1 1 2 1
2 1 7 2
3 2 3 1
4 2 4 2
5 4 5 1
6 5 6 2
7 5 14 1
8 6 7 1
9 6 11 1
10 7 8 1
11 8 9 1
12 8 10 1
13 11 12 2
14 12 13 1
15 12 14 1
16 14 15 1
17 15 16 1
18 15 17 1
19 15 30 1
20 17 18 1
21 17 19 1
22 17 21 1
23 19 20 1
24 21 22 1
25 21 23 1
26 21 28 1
27 23 24 1
28 24 25 1
29 24 26 2
30 24 27 1
31 28 29 1
32 28 30 1
33 28 31 1
34 31 32 1
35 31 33 1
36 31 34 1
37 34 35 1
38 35 36 1
39 35 37 2
40 35 38 1
41 38 39 1
42 39 40 2
43 39 41 1
44 39 42 1
45 42 44 1
46 43 44 1
47 43 47 1
48 43 51 1
49 43 55 1
50 44 45 1
51 44 46 1
52 47 48 1
53 47 49 1
54 47 50 1
55 51 52 1
56 51 53 1
57 51 54 1
58 55 56 1
59 55 57 1
60 55 59 1
61 57 58 1
62 59 60 2
63 59 61 1
64 61 62 1
65 61 63 1
66 63 64 1
67 63 65 1
68 63 66 1
69 66 67 1
70 66 68 1
71 66 69 1
72 69 70 2
73 69 71 1
74 71 72 1
75 71 73 1
76 73 74 1
77 73 75 1
78 73 76 1
79 76 77 1
80 76 78 1
81 76 79 1
82 79 80 1
83 80 81 2
84 80 82 1
85 82 83 1
86 82 84 1
87 82 85 1
@<TRIPOS>SUBSTRUCTURE
1	UNK0	1	GROUP	1 ****	UNK
