# created with PyMOL 2.4.0
@<TRIPOS>MOLECULE
ADN.****
32 34 1                 
SMALL
USER_CHARGES
@<TRIPOS>ATOM
1	   O	-2.224	0.992	-4.318	O.3	1	UNK0	0.000	
2	   H	-2.658	1.074	-3.466	 H	1	UNK0	0.000	
3	   C	-1.228	-0.026	-4.200	C.3	1	UNK0	0.000	
4	   H	-0.715	-0.144	-5.154	 H	1	UNK0	0.000	
5	   H	-1.702	-0.968	-3.923	 H	1	UNK0	0.000	
6	   C	-0.217	0.372	-3.123	C.3	1	UNK0	0.000	
7	   H	0.240	1.306	-3.450	 H	1	UNK0	0.000	
8	   O	-0.871	0.501	-1.842	O.3	1	UNK0	0.000	
9	   C	0.826	-0.748	-2.921	C.3	1	UNK0	0.000	
10	   H	0.477	-1.716	-3.280	 H	1	UNK0	0.000	
11	   O	2.023	-0.455	-3.645	O.3	1	UNK0	0.000	
12	   H	2.345	0.397	-3.341	 H	1	UNK0	0.000	
13	   C	1.097	-0.740	-1.398	C.3	1	UNK0	0.000	
14	   H	0.897	-1.703	-0.928	 H	1	UNK0	0.000	
15	   O	2.470	-0.444	-1.136	O.3	1	UNK0	0.000	
16	   H	2.997	-1.147	-1.522	 H	1	UNK0	0.000	
17	   C	0.182	0.382	-0.862	C.3	1	UNK0	0.000	
18	   H	0.719	1.320	-0.720	 H	1	UNK0	0.000	
19	   N	-0.372	0.009	0.440	N.pl3	1	UNK0	0.000	
20	   C	-1.525	-0.685	0.657	C.2	1	UNK0	0.000	
21	   H	-2.182	-1.051	-0.117	 H	1	UNK0	0.000	
22	   N	-1.717	-0.841	1.935	N.2	1	UNK0	0.000	
23	   C	-0.699	-0.262	2.617	C.2	1	UNK0	0.000	
24	   C	-0.383	-0.109	3.978	C.2	1	UNK0	0.000	
25	   N	-1.206	-0.632	4.959	N.pl3	1	UNK0	0.000	
26	   H	-0.965	-0.520	5.933	 H	1	UNK0	0.000	
27	   H	-2.048	-1.126	4.701	 H	1	UNK0	0.000	
28	   N	0.728	0.543	4.300	N.2	1	UNK0	0.000	
29	   C	1.520	1.045	3.370	C.2	1	UNK0	0.000	
30	   H	2.414	1.568	3.676	 H	1	UNK0	0.000	
31	   N	1.261	0.932	2.084	N.2	1	UNK0	0.000	
32	   C	0.172	0.295	1.667	C.2	1	UNK0	0.000	
@<TRIPOS>BOND
1 1 2 1
2 1 3 1
3 3 4 1
4 3 5 1
5 3 6 1
6 6 7 1
7 6 8 1
8 6 9 1
9 8 17 1
10 9 10 1
11 9 11 1
12 9 13 1
13 11 12 1
14 13 14 1
15 13 15 1
16 13 17 1
17 15 16 1
18 17 18 1
19 17 19 1
20 19 20 1
21 19 32 1
22 20 21 1
23 20 22 2
24 22 23 1
25 23 24 ar
26 23 32 ar
27 24 25 1
28 24 28 ar
29 25 26 1
30 25 27 1
31 28 29 ar
32 29 30 1
33 29 31 ar
34 31 32 ar
@<TRIPOS>SUBSTRUCTURE
1	UNK0	1	GROUP	1 ****	UNK
