ADN.****
  PyMOL2.4          3D                             0

 32 34  0  0  0  0  0  0  0  0999 V2000
   -1.8243   -1.1666   -3.8941 O   0  0  0  1  0  0  0  0  0  0  0  0
   -1.3234   -1.8278   -4.3774 H   0  0  0  1  0  0  0  0  0  0  0  0
   -1.2862    0.1253   -4.1595 C   0  0  0  1  0  0  0  0  0  0  0  0
   -2.0581    0.8632   -4.0927 H   0  0  0  1  0  0  0  0  0  0  0  0
   -0.8548    0.1472   -5.1384 H   0  0  0  1  0  0  0  0  0  0  0  0
   -0.2132    0.3983   -3.1116 C   0  0  0  1  0  0  0  0  0  0  0  0
    0.3156    1.2929   -3.3666 H   0  0  0  1  0  0  0  0  0  0  0  0
   -0.8021    0.5123   -1.7980 O   0  0  0  1  0  0  0  0  0  0  0  0
    0.7589   -0.7961   -3.0044 C   0  0  0  1  0  0  0  0  0  0  0  0
    0.2898   -1.6985   -3.3369 H   0  0  0  1  0  0  0  0  0  0  0  0
    1.9386   -0.5604   -3.7743 O   0  0  0  1  0  0  0  0  0  0  0  0
    2.6087   -0.1563   -3.2182 H   0  0  0  1  0  0  0  0  0  0  0  0
    1.0939   -0.8748   -1.4962 C   0  0  0  1  0  0  0  0  0  0  0  0
    0.7915   -1.8166   -1.0882 H   0  0  0  1  0  0  0  0  0  0  0  0
    2.4927   -0.6871   -1.2766 O   0  0  0  1  0  0  0  0  0  0  0  0
    2.6665    0.2385   -1.0904 H   0  0  0  1  0  0  0  0  0  0  0  0
    0.2809    0.2798   -0.8725 C   0  0  0  1  0  0  0  0  0  0  0  0
    0.8865    1.1564   -0.7738 H   0  0  0  1  0  0  0  0  0  0  0  0
   -0.2372   -0.1056    0.4392 N   0  0  0  1  0  0  0  0  0  0  0  0
    0.0036    0.4499    1.6583 C   0  0  0  1  0  0  0  0  0  0  0  0
    0.6251    1.2742    1.7842 H   0  0  0  1  0  0  0  0  0  0  0  0
   -0.6044   -0.1298    2.6573 N   0  0  0  1  0  0  0  0  0  0  0  0
   -1.3181   -1.1532    2.0533 C   0  0  0  1  0  0  0  0  0  0  0  0
   -2.1639   -2.1542    2.5218 C   0  0  0  1  0  0  0  0  0  0  0  0
   -2.4757   -2.3098    3.8467 N   0  0  0  1  0  0  0  0  0  0  0  0
   -2.1168   -1.6853    4.5112 H   0  0  0  1  0  0  0  0  0  0  0  0
   -3.0577   -3.0457    4.1300 H   0  0  0  1  0  0  0  0  0  0  0  0
   -2.7109   -3.0176    1.6592 N   0  0  0  1  0  0  0  0  0  0  0  0
   -2.4042   -2.8876    0.3588 C   0  0  0  1  0  0  0  0  0  0  0  0
   -2.8461   -3.5802   -0.2789 H   0  0  0  1  0  0  0  0  0  0  0  0
   -1.6131   -1.9945   -0.2230 N   0  0  0  1  0  0  0  0  0  0  0  0
   -1.0981   -1.1475    0.6694 C   0  0  0  1  0  0  0  0  0  0  0  0
  1  2  1  0  0  0  0
  1  3  1  0  0  0  0
  3  4  1  0  0  0  0
  3  5  1  0  0  0  0
  3  6  1  0  0  0  0
  6  7  1  0  0  0  0
  6  8  1  0  0  0  0
  6  9  1  0  0  0  0
  8 17  1  0  0  0  0
  9 10  1  0  0  0  0
  9 11  1  0  0  0  0
  9 13  1  0  0  0  0
 11 12  1  0  0  0  0
 13 14  1  0  0  0  0
 13 15  1  0  0  0  0
 13 17  1  0  0  0  0
 15 16  1  0  0  0  0
 17 18  1  0  0  0  0
 17 19  1  0  0  0  0
 19 20  1  0  0  0  0
 19 32  1  0  0  0  0
 20 21  1  0  0  0  0
 20 22  2  0  0  0  0
 22 23  1  0  0  0  0
 23 24  1  0  0  0  0
 23 32  2  0  0  0  0
 24 25  1  0  0  0  0
 24 28  2  0  0  0  0
 25 26  1  0  0  0  0
 25 27  1  0  0  0  0
 28 29  1  0  0  0  0
 29 30  1  0  0  0  0
 29 31  2  0  0  0  0
 31 32  1  0  0  0  0
M  END
> <ConfClashScore>
0 

> <ConfOneFourInteractionScore>
-0.980915 

> <ConfScore>
0.0967742 

> <ConfScorePBest>
0.0150985 

> <ConfTolerance>
0.25 

$$$$
ADN.****
  PyMOL2.4          3D                             0

 32 34  0  0  0  0  0  0  0  0999 V2000
   -2.1449   -0.5930   -3.7771 O   0  0  0  1  0  0  0  0  0  0  0  0
   -1.8851   -1.4958   -3.9751 H   0  0  0  1  0  0  0  0  0  0  0  0
   -1.0979    0.2932   -4.1458 C   0  0  0  1  0  0  0  0  0  0  0  0
   -1.5256    1.2565   -4.3304 H   0  0  0  1  0  0  0  0  0  0  0  0
   -0.6487   -0.0762   -5.0439 H   0  0  0  1  0  0  0  0  0  0  0  0
   -0.0131    0.4508   -3.1067 C   0  0  0  1  0  0  0  0  0  0  0  0
    0.6796    1.2018   -3.4245 H   0  0  0  1  0  0  0  0  0  0  0  0
   -0.5789    0.7886   -1.8262 O   0  0  0  1  0  0  0  0  0  0  0  0
    0.6875   -0.8499   -2.8712 C   0  0  0  1  0  0  0  0  0  0  0  0
    0.0121   -1.6712   -2.9912 H   0  0  0  1  0  0  0  0  0  0  0  0
    1.7874   -1.0019   -3.7696 O   0  0  0  1  0  0  0  0  0  0  0  0
    2.5011   -0.4173   -3.5042 H   0  0  0  1  0  0  0  0  0  0  0  0
    1.1593   -0.7624   -1.4801 C   0  0  0  1  0  0  0  0  0  0  0  0
    1.1273   -1.7244   -1.0127 H   0  0  0  1  0  0  0  0  0  0  0  0
    2.4937   -0.2551   -1.4360 O   0  0  0  1  0  0  0  0  0  0  0  0
    2.4714    0.7045   -1.4192 H   0  0  0  1  0  0  0  0  0  0  0  0
    0.2206    0.1784   -0.8025 C   0  0  0  1  0  0  0  0  0  0  0  0
    0.7711    0.9272   -0.2722 H   0  0  0  1  0  0  0  0  0  0  0  0
   -0.6362   -0.5544    0.1342 N   0  0  0  1  0  0  0  0  0  0  0  0
   -0.7433   -0.3610    1.4773 C   0  0  0  1  0  0  0  0  0  0  0  0
   -0.1471    0.3166    1.9939 H   0  0  0  1  0  0  0  0  0  0  0  0
   -1.6506   -1.0902    2.0680 N   0  0  0  1  0  0  0  0  0  0  0  0
   -2.2017   -1.8260    1.0305 C   0  0  0  1  0  0  0  0  0  0  0  0
   -3.1983   -2.7942    0.9500 C   0  0  0  1  0  0  0  0  0  0  0  0
   -3.8966   -3.2357    2.0359 N   0  0  0  1  0  0  0  0  0  0  0  0
   -4.6018   -3.9071    1.9250 H   0  0  0  1  0  0  0  0  0  0  0  0
   -3.6930   -2.8814    2.9266 H   0  0  0  1  0  0  0  0  0  0  0  0
   -3.5051   -3.3329   -0.2350 N   0  0  0  1  0  0  0  0  0  0  0  0
   -2.8175   -2.9197   -1.3113 C   0  0  0  1  0  0  0  0  0  0  0  0
   -3.0827   -3.3652   -2.2128 H   0  0  0  1  0  0  0  0  0  0  0  0
   -1.8446   -2.0193   -1.3803 N   0  0  0  1  0  0  0  0  0  0  0  0
   -1.5780   -1.4996   -0.1812 C   0  0  0  1  0  0  0  0  0  0  0  0
  1  2  1  0  0  0  0
  1  3  1  0  0  0  0
  3  4  1  0  0  0  0
  3  5  1  0  0  0  0
  3  6  1  0  0  0  0
  6  7  1  0  0  0  0
  6  8  1  0  0  0  0
  6  9  1  0  0  0  0
  8 17  1  0  0  0  0
  9 10  1  0  0  0  0
  9 11  1  0  0  0  0
  9 13  1  0  0  0  0
 11 12  1  0  0  0  0
 13 14  1  0  0  0  0
 13 15  1  0  0  0  0
 13 17  1  0  0  0  0
 15 16  1  0  0  0  0
 17 18  1  0  0  0  0
 17 19  1  0  0  0  0
 19 20  1  0  0  0  0
 19 32  1  0  0  0  0
 20 21  1  0  0  0  0
 20 22  2  0  0  0  0
 22 23  1  0  0  0  0
 23 24  1  0  0  0  0
 23 32  2  0  0  0  0
 24 25  1  0  0  0  0
 24 28  2  0  0  0  0
 25 26  1  0  0  0  0
 25 27  1  0  0  0  0
 28 29  1  0  0  0  0
 29 30  1  0  0  0  0
 29 31  2  0  0  0  0
 31 32  1  0  0  0  0
M  END
> <ConfClashScore>
0 

> <ConfOneFourInteractionScore>
-0.987904 

> <ConfScore>
0.10135 

> <ConfScorePBest>
0.0149955 

> <ConfTolerance>
0.428632 

$$$$
ADN.****
  PyMOL2.4          3D                             0

 32 34  0  0  0  0  0  0  0  0999 V2000
   -1.7553   -1.5628   -2.7135 O   0  0  0  1  0  0  0  0  0  0  0  0
   -2.6776   -1.5880   -2.4483 H   0  0  0  1  0  0  0  0  0  0  0  0
   -1.5430   -0.4636   -3.5876 C   0  0  0  1  0  0  0  0  0  0  0  0
   -2.3862    0.1937   -3.5435 H   0  0  0  1  0  0  0  0  0  0  0  0
   -1.4222   -0.8230   -4.5881 H   0  0  0  1  0  0  0  0  0  0  0  0
   -0.2987    0.2865   -3.1694 C   0  0  0  1  0  0  0  0  0  0  0  0
   -0.0847    1.0512   -3.8866 H   0  0  0  1  0  0  0  0  0  0  0  0
   -0.4808    0.8646   -1.8646 O   0  0  0  1  0  0  0  0  0  0  0  0
    0.8996   -0.6874   -3.0508 C   0  0  0  1  0  0  0  0  0  0  0  0
    0.7148   -1.5930   -3.5898 H   0  0  0  1  0  0  0  0  0  0  0  0
    2.1021   -0.0840   -3.5303 O   0  0  0  1  0  0  0  0  0  0  0  0
    2.3190    0.6757   -2.9850 H   0  0  0  1  0  0  0  0  0  0  0  0
    0.9759   -0.9463   -1.5565 C   0  0  0  1  0  0  0  0  0  0  0  0
    0.3466   -1.7641   -1.2737 H   0  0  0  1  0  0  0  0  0  0  0  0
    2.3193   -1.2141   -1.1473 O   0  0  0  1  0  0  0  0  0  0  0  0
    2.7204   -0.4072   -0.8161 H   0  0  0  1  0  0  0  0  0  0  0  0
    0.4679    0.3762   -0.9605 C   0  0  0  1  0  0  0  0  0  0  0  0
    1.2745    1.0713   -0.8559 H   0  0  0  1  0  0  0  0  0  0  0  0
   -0.1478    0.1422    0.3461 N   0  0  0  1  0  0  0  0  0  0  0  0
    0.1634    0.7535    1.5218 C   0  0  0  1  0  0  0  0  0  0  0  0
    0.9005    1.4836    1.5944 H   0  0  0  1  0  0  0  0  0  0  0  0
   -0.5330    0.3545    2.5512 N   0  0  0  1  0  0  0  0  0  0  0  0
   -1.3870   -0.5973    2.0161 C   0  0  0  1  0  0  0  0  0  0  0  0
   -2.3773   -1.4195    2.5454 C   0  0  0  1  0  0  0  0  0  0  0  0
   -2.6790   -1.3776    3.8754 N   0  0  0  1  0  0  0  0  0  0  0  0
   -3.3728   -1.9663    4.2393 H   0  0  0  1  0  0  0  0  0  0  0  0
   -2.2019   -0.7588    4.4668 H   0  0  0  1  0  0  0  0  0  0  0  0
   -3.0404   -2.2595    1.7432 N   0  0  0  1  0  0  0  0  0  0  0  0
   -2.7068   -2.2835    0.4432 C   0  0  0  1  0  0  0  0  0  0  0  0
   -3.2422   -2.9524   -0.1463 H   0  0  0  1  0  0  0  0  0  0  0  0
   -1.7859   -1.5687   -0.1916 N   0  0  0  1  0  0  0  0  0  0  0  0
   -1.1572   -0.7377    0.6408 C   0  0  0  1  0  0  0  0  0  0  0  0
  1  2  1  0  0  0  0
  1  3  1  0  0  0  0
  3  4  1  0  0  0  0
  3  5  1  0  0  0  0
  3  6  1  0  0  0  0
  6  7  1  0  0  0  0
  6  8  1  0  0  0  0
  6  9  1  0  0  0  0
  8 17  1  0  0  0  0
  9 10  1  0  0  0  0
  9 11  1  0  0  0  0
  9 13  1  0  0  0  0
 11 12  1  0  0  0  0
 13 14  1  0  0  0  0
 13 15  1  0  0  0  0
 13 17  1  0  0  0  0
 15 16  1  0  0  0  0
 17 18  1  0  0  0  0
 17 19  1  0  0  0  0
 19 20  1  0  0  0  0
 19 32  1  0  0  0  0
 20 21  1  0  0  0  0
 20 22  2  0  0  0  0
 22 23  1  0  0  0  0
 23 24  1  0  0  0  0
 23 32  2  0  0  0  0
 24 25  1  0  0  0  0
 24 28  2  0  0  0  0
 25 26  1  0  0  0  0
 25 27  1  0  0  0  0
 28 29  1  0  0  0  0
 29 30  1  0  0  0  0
 29 31  2  0  0  0  0
 31 32  1  0  0  0  0
M  END
> <ConfClashScore>
0 

> <ConfOneFourInteractionScore>
-0.986581 

> <ConfScore>
0.104113 

> <ConfScorePBest>
0.0148925 

> <ConfTolerance>
0.25 

$$$$
ADN.****
  PyMOL2.4          3D                             0

 32 34  0  0  0  0  0  0  0  0999 V2000
   -1.6371   -1.2153   -3.9723 O   0  0  0  1  0  0  0  0  0  0  0  0
   -1.1255   -1.8556   -4.4723 H   0  0  0  1  0  0  0  0  0  0  0  0
   -1.1124    0.0873   -4.1924 C   0  0  0  1  0  0  0  0  0  0  0  0
   -1.9170    0.7906   -4.2454 H   0  0  0  1  0  0  0  0  0  0  0  0
   -0.5659    0.0998   -5.1123 H   0  0  0  1  0  0  0  0  0  0  0  0
   -0.1964    0.4610   -3.0627 C   0  0  0  1  0  0  0  0  0  0  0  0
    0.2235    1.4276   -3.2481 H   0  0  0  1  0  0  0  0  0  0  0  0
   -0.9073    0.4478   -1.8057 O   0  0  0  1  0  0  0  0  0  0  0  0
    0.9186   -0.5933   -2.8949 C   0  0  0  1  0  0  0  0  0  0  0  0
    0.6096   -1.5389   -3.2891 H   0  0  0  1  0  0  0  0  0  0  0  0
    2.1167   -0.1727   -3.5489 O   0  0  0  1  0  0  0  0  0  0  0  0
    2.1375   -0.5291   -4.4401 H   0  0  0  1  0  0  0  0  0  0  0  0
    1.1291   -0.6786   -1.3648 C   0  0  0  1  0  0  0  0  0  0  0  0
    0.9257   -1.6665   -1.0074 H   0  0  0  1  0  0  0  0  0  0  0  0
    2.4641   -0.3104   -1.0148 O   0  0  0  1  0  0  0  0  0  0  0  0
    3.0417   -1.0714   -1.1095 H   0  0  0  1  0  0  0  0  0  0  0  0
    0.1130    0.3323   -0.7913 C   0  0  0  1  0  0  0  0  0  0  0  0
    0.5806    1.2790   -0.6181 H   0  0  0  1  0  0  0  0  0  0  0  0
   -0.4590   -0.1661    0.4599 N   0  0  0  1  0  0  0  0  0  0  0  0
   -0.6913    0.5447    1.5972 C   0  0  0  1  0  0  0  0  0  0  0  0
   -0.4767    1.5593    1.6760 H   0  0  0  1  0  0  0  0  0  0  0  0
   -1.2035   -0.1428    2.5814 N   0  0  0  1  0  0  0  0  0  0  0  0
   -1.3322   -1.4183    2.0539 C   0  0  0  1  0  0  0  0  0  0  0  0
   -1.7933   -2.6329    2.5531 C   0  0  0  1  0  0  0  0  0  0  0  0
   -2.3686   -2.8210    3.8204 N   0  0  0  1  0  0  0  0  0  0  0  0
   -2.6605   -3.7142    4.0983 H   0  0  0  1  0  0  0  0  0  0  0  0
   -2.4783   -2.0589    4.4267 H   0  0  0  1  0  0  0  0  0  0  0  0
   -1.7849   -3.7174    1.7705 N   0  0  0  1  0  0  0  0  0  0  0  0
   -1.3112   -3.5884    0.5211 C   0  0  0  1  0  0  0  0  0  0  0  0
   -1.3176   -4.4549   -0.0540 H   0  0  0  1  0  0  0  0  0  0  0  0
   -0.8358   -2.5043   -0.0794 N   0  0  0  1  0  0  0  0  0  0  0  0
   -0.8723   -1.4451    0.7304 C   0  0  0  1  0  0  0  0  0  0  0  0
  1  2  1  0  0  0  0
  1  3  1  0  0  0  0
  3  4  1  0  0  0  0
  3  5  1  0  0  0  0
  3  6  1  0  0  0  0
  6  7  1  0  0  0  0
  6  8  1  0  0  0  0
  6  9  1  0  0  0  0
  8 17  1  0  0  0  0
  9 10  1  0  0  0  0
  9 11  1  0  0  0  0
  9 13  1  0  0  0  0
 11 12  1  0  0  0  0
 13 14  1  0  0  0  0
 13 15  1  0  0  0  0
 13 17  1  0  0  0  0
 15 16  1  0  0  0  0
 17 18  1  0  0  0  0
 17 19  1  0  0  0  0
 19 20  1  0  0  0  0
 19 32  1  0  0  0  0
 20 21  1  0  0  0  0
 20 22  2  0  0  0  0
 22 23  1  0  0  0  0
 23 24  1  0  0  0  0
 23 32  2  0  0  0  0
 24 25  1  0  0  0  0
 24 28  2  0  0  0  0
 25 26  1  0  0  0  0
 25 27  1  0  0  0  0
 28 29  1  0  0  0  0
 29 30  1  0  0  0  0
 29 31  2  0  0  0  0
 31 32  1  0  0  0  0
M  END
> <ConfClashScore>
0 

> <ConfOneFourInteractionScore>
-0.983365 

> <ConfScore>
0.109361 

> <ConfScorePBest>
0.0147895 

> <ConfTolerance>
0.25 

$$$$
ADN.****
  PyMOL2.4          3D                             0

 32 34  0  0  0  0  0  0  0  0999 V2000
   -1.6346   -1.7737   -2.6729 O   0  0  0  1  0  0  0  0  0  0  0  0
   -1.1715   -2.5358   -3.0284 H   0  0  0  1  0  0  0  0  0  0  0  0
   -1.4966   -0.6758   -3.5651 C   0  0  0  1  0  0  0  0  0  0  0  0
   -2.4123   -0.1223   -3.5725 H   0  0  0  1  0  0  0  0  0  0  0  0
   -1.2997   -1.0537   -4.5466 H   0  0  0  1  0  0  0  0  0  0  0  0
   -0.3774    0.2480   -3.1702 C   0  0  0  1  0  0  0  0  0  0  0  0
   -0.2796    1.0234   -3.9011 H   0  0  0  1  0  0  0  0  0  0  0  0
   -0.6346    0.8157   -1.8736 O   0  0  0  1  0  0  0  0  0  0  0  0
    0.9495   -0.5407   -3.0448 C   0  0  0  1  0  0  0  0  0  0  0  0
    0.8947   -1.4725   -3.5679 H   0  0  0  1  0  0  0  0  0  0  0  0
    2.0499    0.2216   -3.5427 O   0  0  0  1  0  0  0  0  0  0  0  0
    2.4523    0.7119   -2.8221 H   0  0  0  1  0  0  0  0  0  0  0  0
    1.0697   -0.7606   -1.5471 C   0  0  0  1  0  0  0  0  0  0  0  0
    0.5665   -1.6558   -1.2467 H   0  0  0  1  0  0  0  0  0  0  0  0
    2.4384   -0.8249   -1.1439 O   0  0  0  1  0  0  0  0  0  0  0  0
    2.6902   -1.7414   -1.0094 H   0  0  0  1  0  0  0  0  0  0  0  0
    0.3791    0.4846   -0.9687 C   0  0  0  1  0  0  0  0  0  0  0  0
    1.0775    1.2905   -0.8812 H   0  0  0  1  0  0  0  0  0  0  0  0
   -0.1945    0.1840    0.3566 N   0  0  0  1  0  0  0  0  0  0  0  0
   -1.1624   -0.7436    0.5921 C   0  0  0  1  0  0  0  0  0  0  0  0
   -1.5732   -1.3276   -0.1641 H   0  0  0  1  0  0  0  0  0  0  0  0
   -1.5363   -0.8450    1.8386 N   0  0  0  1  0  0  0  0  0  0  0  0
   -0.7451    0.0873    2.4917 C   0  0  0  1  0  0  0  0  0  0  0  0
   -0.6295    0.5058    3.8140 C   0  0  0  1  0  0  0  0  0  0  0  0
   -1.3908   -0.0176    4.8383 N   0  0  0  1  0  0  0  0  0  0  0  0
   -2.0443   -0.7238    4.6517 H   0  0  0  1  0  0  0  0  0  0  0  0
   -1.2783    0.3166    5.7526 H   0  0  0  1  0  0  0  0  0  0  0  0
    0.2534    1.4583    4.1332 N   0  0  0  1  0  0  0  0  0  0  0  0
    0.9921    1.9883    3.1455 C   0  0  0  1  0  0  0  0  0  0  0  0
    1.6635    2.7284    3.4336 H   0  0  0  1  0  0  0  0  0  0  0  0
    0.9814    1.6951    1.8510 N   0  0  0  1  0  0  0  0  0  0  0  0
    0.0971    0.7348    1.5778 C   0  0  0  1  0  0  0  0  0  0  0  0
  1  2  1  0  0  0  0
  1  3  1  0  0  0  0
  3  4  1  0  0  0  0
  3  5  1  0  0  0  0
  3  6  1  0  0  0  0
  6  7  1  0  0  0  0
  6  8  1  0  0  0  0
  6  9  1  0  0  0  0
  8 17  1  0  0  0  0
  9 10  1  0  0  0  0
  9 11  1  0  0  0  0
  9 13  1  0  0  0  0
 11 12  1  0  0  0  0
 13 14  1  0  0  0  0
 13 15  1  0  0  0  0
 13 17  1  0  0  0  0
 15 16  1  0  0  0  0
 17 18  1  0  0  0  0
 17 19  1  0  0  0  0
 19 20  1  0  0  0  0
 19 32  1  0  0  0  0
 20 21  1  0  0  0  0
 20 22  2  0  0  0  0
 22 23  1  0  0  0  0
 23 24  1  0  0  0  0
 23 32  2  0  0  0  0
 24 25  1  0  0  0  0
 24 28  2  0  0  0  0
 25 26  1  0  0  0  0
 25 27  1  0  0  0  0
 28 29  1  0  0  0  0
 29 30  1  0  0  0  0
 29 31  2  0  0  0  0
 31 32  1  0  0  0  0
M  END
> <ConfClashScore>
0 

> <ConfOneFourInteractionScore>
-0.986581 

> <ConfScore>
0.1149 

> <ConfScorePBest>
0.0146865 

> <ConfTolerance>
0.25 

$$$$
ADN.****
  PyMOL2.4          3D                             0

 32 34  0  0  0  0  0  0  0  0999 V2000
   -2.6157    0.4449   -3.5297 O   0  0  0  1  0  0  0  0  0  0  0  0
   -2.9412    0.4874   -2.6275 H   0  0  0  1  0  0  0  0  0  0  0  0
   -1.5236   -0.4626   -3.5978 C   0  0  0  1  0  0  0  0  0  0  0  0
   -1.4058   -0.8177   -4.6003 H   0  0  0  1  0  0  0  0  0  0  0  0
   -1.6960   -1.2913   -2.9433 H   0  0  0  1  0  0  0  0  0  0  0  0
   -0.2897    0.2826   -3.1687 C   0  0  0  1  0  0  0  0  0  0  0  0
   -0.0630    1.0419   -3.8877 H   0  0  0  1  0  0  0  0  0  0  0  0
   -0.4890    0.8698   -1.8705 O   0  0  0  1  0  0  0  0  0  0  0  0
    0.9037   -0.6940   -3.0263 C   0  0  0  1  0  0  0  0  0  0  0  0
    0.7240   -1.6027   -3.5620 H   0  0  0  1  0  0  0  0  0  0  0  0
    2.1150   -0.0974   -3.4922 O   0  0  0  1  0  0  0  0  0  0  0  0
    2.3377    0.6522   -2.9354 H   0  0  0  1  0  0  0  0  0  0  0  0
    0.9575   -0.9433   -1.5293 C   0  0  0  1  0  0  0  0  0  0  0  0
    0.3216   -1.7574   -1.2504 H   0  0  0  1  0  0  0  0  0  0  0  0
    2.2927   -1.2123   -1.0993 O   0  0  0  1  0  0  0  0  0  0  0  0
    2.7911   -0.3923   -1.0696 H   0  0  0  1  0  0  0  0  0  0  0  0
    0.4449    0.3845   -0.9495 C   0  0  0  1  0  0  0  0  0  0  0  0
    1.2521    1.0779   -0.8377 H   0  0  0  1  0  0  0  0  0  0  0  0
   -0.1899    0.1611    0.3485 N   0  0  0  1  0  0  0  0  0  0  0  0
    0.2667    0.5758    1.5619 C   0  0  0  1  0  0  0  0  0  0  0  0
    1.1048    1.1827    1.6664 H   0  0  0  1  0  0  0  0  0  0  0  0
   -0.4266    0.1544    2.5844 N   0  0  0  1  0  0  0  0  0  0  0  0
   -1.4362   -0.5978    2.0044 C   0  0  0  1  0  0  0  0  0  0  0  0
   -2.5070   -1.3336    2.5033 C   0  0  0  1  0  0  0  0  0  0  0  0
   -2.8307   -1.4842    3.8474 N   0  0  0  1  0  0  0  0  0  0  0  0
   -3.5897   -2.0465    4.1085 H   0  0  0  1  0  0  0  0  0  0  0  0
   -2.2999   -1.0281    4.5333 H   0  0  0  1  0  0  0  0  0  0  0  0
   -3.3253   -1.9698    1.6582 N   0  0  0  1  0  0  0  0  0  0  0  0
   -3.0659   -1.8811    0.3441 C   0  0  0  1  0  0  0  0  0  0  0  0
   -3.7223   -2.3928   -0.2795 H   0  0  0  1  0  0  0  0  0  0  0  0
   -2.0846   -1.2285   -0.2668 N   0  0  0  1  0  0  0  0  0  0  0  0
   -1.2999   -0.6000    0.6097 C   0  0  0  1  0  0  0  0  0  0  0  0
  1  2  1  0  0  0  0
  1  3  1  0  0  0  0
  3  4  1  0  0  0  0
  3  5  1  0  0  0  0
  3  6  1  0  0  0  0
  6  7  1  0  0  0  0
  6  8  1  0  0  0  0
  6  9  1  0  0  0  0
  8 17  1  0  0  0  0
  9 10  1  0  0  0  0
  9 11  1  0  0  0  0
  9 13  1  0  0  0  0
 11 12  1  0  0  0  0
 13 14  1  0  0  0  0
 13 15  1  0  0  0  0
 13 17  1  0  0  0  0
 15 16  1  0  0  0  0
 17 18  1  0  0  0  0
 17 19  1  0  0  0  0
 19 20  1  0  0  0  0
 19 32  1  0  0  0  0
 20 21  1  0  0  0  0
 20 22  2  0  0  0  0
 22 23  1  0  0  0  0
 23 24  1  0  0  0  0
 23 32  2  0  0  0  0
 24 25  1  0  0  0  0
 24 28  2  0  0  0  0
 25 26  1  0  0  0  0
 25 27  1  0  0  0  0
 28 29  1  0  0  0  0
 29 30  1  0  0  0  0
 29 31  2  0  0  0  0
 31 32  1  0  0  0  0
M  END
> <ConfClashScore>
0 

> <ConfOneFourInteractionScore>
-0.975227 

> <ConfScore>
0.122426 

> <ConfScorePBest>
0.0145835 

> <ConfTolerance>
0.25 

$$$$
ADN.****
  PyMOL2.4          3D                             0

 32 34  0  0  0  0  0  0  0  0999 V2000
   -2.1362   -0.2793   -3.3337 O   0  0  0  1  0  0  0  0  0  0  0  0
   -2.9654    0.1689   -3.5157 H   0  0  0  1  0  0  0  0  0  0  0  0
   -1.0660    0.4464   -3.9215 C   0  0  0  1  0  0  0  0  0  0  0  0
   -1.4223    1.4246   -4.1688 H   0  0  0  1  0  0  0  0  0  0  0  0
   -0.7692   -0.0620   -4.8150 H   0  0  0  1  0  0  0  0  0  0  0  0
    0.1516    0.5973   -3.0381 C   0  0  0  1  0  0  0  0  0  0  0  0
    0.8287    1.2983   -3.4798 H   0  0  0  1  0  0  0  0  0  0  0  0
   -0.2331    1.0291   -1.7134 O   0  0  0  1  0  0  0  0  0  0  0  0
    0.8377   -0.7565   -2.8325 C   0  0  0  1  0  0  0  0  0  0  0  0
    0.1527   -1.5624   -2.9941 H   0  0  0  1  0  0  0  0  0  0  0  0
    1.9584   -0.9008   -3.7061 O   0  0  0  1  0  0  0  0  0  0  0  0
    1.6701   -1.2880   -4.5359 H   0  0  0  1  0  0  0  0  0  0  0  0
    1.2782   -0.7024   -1.3931 C   0  0  0  1  0  0  0  0  0  0  0  0
    1.3430   -1.6841   -0.9724 H   0  0  0  1  0  0  0  0  0  0  0  0
    2.5395   -0.0446   -1.2650 O   0  0  0  1  0  0  0  0  0  0  0  0
    2.3986    0.8960   -1.1344 H   0  0  0  1  0  0  0  0  0  0  0  0
    0.1590    0.1121   -0.7283 C   0  0  0  1  0  0  0  0  0  0  0  0
    0.5245    0.6208    0.1391 H   0  0  0  1  0  0  0  0  0  0  0  0
   -0.9579   -0.7532   -0.3523 N   0  0  0  1  0  0  0  0  0  0  0  0
   -1.5350   -1.7258   -1.1097 C   0  0  0  1  0  0  0  0  0  0  0  0
   -1.2980   -1.8682   -2.1123 H   0  0  0  1  0  0  0  0  0  0  0  0
   -2.4084   -2.4662   -0.4830 N   0  0  0  1  0  0  0  0  0  0  0  0
   -2.4079   -1.9501    0.8036 C   0  0  0  1  0  0  0  0  0  0  0  0
   -3.1017   -2.2538    1.9712 C   0  0  0  1  0  0  0  0  0  0  0  0
   -4.0283   -3.2599    2.0499 N   0  0  0  1  0  0  0  0  0  0  0  0
   -4.2902   -3.7490    1.2421 H   0  0  0  1  0  0  0  0  0  0  0  0
   -4.4291   -3.4904    2.9139 H   0  0  0  1  0  0  0  0  0  0  0  0
   -2.8717   -1.5458    3.0823 N   0  0  0  1  0  0  0  0  0  0  0  0
   -1.9770   -0.5471    3.0183 C   0  0  0  1  0  0  0  0  0  0  0  0
   -1.8295   -0.0181    3.9015 H   0  0  0  1  0  0  0  0  0  0  0  0
   -1.2550   -0.1437    1.9801 N   0  0  0  1  0  0  0  0  0  0  0  0
   -1.5059   -0.8818    0.8979 C   0  0  0  1  0  0  0  0  0  0  0  0
  1  2  1  0  0  0  0
  1  3  1  0  0  0  0
  3  4  1  0  0  0  0
  3  5  1  0  0  0  0
  3  6  1  0  0  0  0
  6  7  1  0  0  0  0
  6  8  1  0  0  0  0
  6  9  1  0  0  0  0
  8 17  1  0  0  0  0
  9 10  1  0  0  0  0
  9 11  1  0  0  0  0
  9 13  1  0  0  0  0
 11 12  1  0  0  0  0
 13 14  1  0  0  0  0
 13 15  1  0  0  0  0
 13 17  1  0  0  0  0
 15 16  1  0  0  0  0
 17 18  1  0  0  0  0
 17 19  1  0  0  0  0
 19 20  1  0  0  0  0
 19 32  1  0  0  0  0
 20 21  1  0  0  0  0
 20 22  2  0  0  0  0
 22 23  1  0  0  0  0
 23 24  1  0  0  0  0
 23 32  2  0  0  0  0
 24 25  1  0  0  0  0
 24 28  2  0  0  0  0
 25 26  1  0  0  0  0
 25 27  1  0  0  0  0
 28 29  1  0  0  0  0
 29 30  1  0  0  0  0
 29 31  2  0  0  0  0
 31 32  1  0  0  0  0
M  END
> <ConfClashScore>
0 

> <ConfOneFourInteractionScore>
-0.983365 

> <ConfScore>
0.124582 

> <ConfScorePBest>
0.0144805 

> <ConfTolerance>
0.25 

$$$$
ADN.****
  PyMOL2.4          3D                             0

 32 34  0  0  0  0  0  0  0  0999 V2000
   -1.9813   -1.1687   -3.6647 O   0  0  0  1  0  0  0  0  0  0  0  0
   -2.8409   -0.9076   -3.3264 H   0  0  0  1  0  0  0  0  0  0  0  0
   -1.2992   -0.0244   -4.1608 C   0  0  0  1  0  0  0  0  0  0  0  0
   -1.9936    0.7737   -4.3214 H   0  0  0  1  0  0  0  0  0  0  0  0
   -0.8090   -0.2621   -5.0817 H   0  0  0  1  0  0  0  0  0  0  0  0
   -0.2848    0.3785   -3.1291 C   0  0  0  1  0  0  0  0  0  0  0  0
    0.1520    1.3157   -3.4046 H   0  0  0  1  0  0  0  0  0  0  0  0
   -0.8945    0.4657   -1.8230 O   0  0  0  1  0  0  0  0  0  0  0  0
    0.8034   -0.7068   -2.9834 C   0  0  0  1  0  0  0  0  0  0  0  0
    0.4322   -1.6609   -3.2946 H   0  0  0  1  0  0  0  0  0  0  0  0
    1.9599   -0.3714   -3.7516 O   0  0  0  1  0  0  0  0  0  0  0  0
    2.5317    0.2021   -3.2362 H   0  0  0  1  0  0  0  0  0  0  0  0
    1.1307   -0.7113   -1.4715 C   0  0  0  1  0  0  0  0  0  0  0  0
    0.9225   -1.6682   -1.0403 H   0  0  0  1  0  0  0  0  0  0  0  0
    2.5009   -0.3755   -1.2478 O   0  0  0  1  0  0  0  0  0  0  0  0
    3.0125   -1.1790   -1.1291 H   0  0  0  1  0  0  0  0  0  0  0  0
    0.1979    0.3698   -0.8845 C   0  0  0  1  0  0  0  0  0  0  0  0
    0.7097    1.3061   -0.8054 H   0  0  0  1  0  0  0  0  0  0  0  0
   -0.2901   -0.0325    0.4337 N   0  0  0  1  0  0  0  0  0  0  0  0
   -0.9906   -1.1582    0.7416 C   0  0  0  1  0  0  0  0  0  0  0  0
   -1.2464   -1.8703    0.0280 H   0  0  0  1  0  0  0  0  0  0  0  0
   -1.3171   -1.2767    1.9998 N   0  0  0  1  0  0  0  0  0  0  0  0
   -0.7820   -0.1385    2.5827 C   0  0  0  1  0  0  0  0  0  0  0  0
   -0.7656    0.3728    3.8770 C   0  0  0  1  0  0  0  0  0  0  0  0
   -1.3581   -0.2597    4.9380 N   0  0  0  1  0  0  0  0  0  0  0  0
   -1.8747   -1.0798    4.7933 H   0  0  0  1  0  0  0  0  0  0  0  0
   -1.2654    0.1080    5.8417 H   0  0  0  1  0  0  0  0  0  0  0  0
   -0.1495    1.5339    4.1234 N   0  0  0  1  0  0  0  0  0  0  0  0
    0.4239    2.1735    3.0918 C   0  0  0  1  0  0  0  0  0  0  0  0
    0.8889    3.0745    3.3236 H   0  0  0  1  0  0  0  0  0  0  0  0
    0.4776    1.8113    1.8160 N   0  0  0  1  0  0  0  0  0  0  0  0
   -0.1376    0.6450    1.6159 C   0  0  0  1  0  0  0  0  0  0  0  0
  1  2  1  0  0  0  0
  1  3  1  0  0  0  0
  3  4  1  0  0  0  0
  3  5  1  0  0  0  0
  3  6  1  0  0  0  0
  6  7  1  0  0  0  0
  6  8  1  0  0  0  0
  6  9  1  0  0  0  0
  8 17  1  0  0  0  0
  9 10  1  0  0  0  0
  9 11  1  0  0  0  0
  9 13  1  0  0  0  0
 11 12  1  0  0  0  0
 13 14  1  0  0  0  0
 13 15  1  0  0  0  0
 13 17  1  0  0  0  0
 15 16  1  0  0  0  0
 17 18  1  0  0  0  0
 17 19  1  0  0  0  0
 19 20  1  0  0  0  0
 19 32  1  0  0  0  0
 20 21  1  0  0  0  0
 20 22  2  0  0  0  0
 22 23  1  0  0  0  0
 23 24  1  0  0  0  0
 23 32  2  0  0  0  0
 24 25  1  0  0  0  0
 24 28  2  0  0  0  0
 25 26  1  0  0  0  0
 25 27  1  0  0  0  0
 28 29  1  0  0  0  0
 29 30  1  0  0  0  0
 29 31  2  0  0  0  0
 31 32  1  0  0  0  0
M  END
> <ConfClashScore>
0 

> <ConfOneFourInteractionScore>
-0.988639 

> <ConfScore>
0.125244 

> <ConfScorePBest>
0.0143775 

> <ConfTolerance>
0.25 

$$$$
ADN.****
  PyMOL2.4          3D                             0

 32 34  0  0  0  0  0  0  0  0999 V2000
   -1.5436   -1.5871   -2.8246 O   0  0  0  1  0  0  0  0  0  0  0  0
   -1.7732   -2.3278   -3.3904 H   0  0  0  1  0  0  0  0  0  0  0  0
   -1.4089   -0.4128   -3.6121 C   0  0  0  1  0  0  0  0  0  0  0  0
   -2.2757    0.2043   -3.4991 H   0  0  0  1  0  0  0  0  0  0  0  0
   -1.2894   -0.6756   -4.6424 H   0  0  0  1  0  0  0  0  0  0  0  0
   -0.1896    0.3205   -3.1247 C   0  0  0  1  0  0  0  0  0  0  0  0
    0.0750    1.0813   -3.8291 H   0  0  0  1  0  0  0  0  0  0  0  0
   -0.4502    0.9125   -1.8267 O   0  0  0  1  0  0  0  0  0  0  0  0
    0.9768   -0.6587   -2.9443 C   0  0  0  1  0  0  0  0  0  0  0  0
    0.8195   -1.5517   -3.5123 H   0  0  0  1  0  0  0  0  0  0  0  0
    2.2139   -0.0589   -3.3317 O   0  0  0  1  0  0  0  0  0  0  0  0
    2.0607    0.5523   -4.0559 H   0  0  0  1  0  0  0  0  0  0  0  0
    0.9557   -0.9532   -1.4388 C   0  0  0  1  0  0  0  0  0  0  0  0
    0.3223   -1.7861   -1.2152 H   0  0  0  1  0  0  0  0  0  0  0  0
    2.2601   -1.2053   -0.9462 O   0  0  0  1  0  0  0  0  0  0  0  0
    2.7686   -0.3911   -0.9542 H   0  0  0  1  0  0  0  0  0  0  0  0
    0.3831    0.3554   -0.8603 C   0  0  0  1  0  0  0  0  0  0  0  0
    1.1795    1.0323   -0.6310 H   0  0  0  1  0  0  0  0  0  0  0  0
   -0.3816    0.0715    0.3544 N   0  0  0  1  0  0  0  0  0  0  0  0
   -0.0317    0.3743    1.6346 C   0  0  0  1  0  0  0  0  0  0  0  0
    0.8538    0.8659    1.8708 H   0  0  0  1  0  0  0  0  0  0  0  0
   -0.8912    0.0010    2.5433 N   0  0  0  1  0  0  0  0  0  0  0  0
   -1.9044   -0.5931    1.8072 C   0  0  0  1  0  0  0  0  0  0  0  0
   -3.1090   -1.2085    2.1347 C   0  0  0  1  0  0  0  0  0  0  0  0
   -3.5538   -1.3423    3.4235 N   0  0  0  1  0  0  0  0  0  0  0  0
   -4.3930   -1.8144    3.6057 H   0  0  0  1  0  0  0  0  0  0  0  0
   -3.0327   -0.9659    4.1633 H   0  0  0  1  0  0  0  0  0  0  0  0
   -3.8873   -1.7007    1.1648 N   0  0  0  1  0  0  0  0  0  0  0  0
   -3.4591   -1.5904   -0.1027 C   0  0  0  1  0  0  0  0  0  0  0  0
   -4.0902   -1.9888   -0.8269 H   0  0  0  1  0  0  0  0  0  0  0  0
   -2.3389   -1.0415   -0.5564 N   0  0  0  1  0  0  0  0  0  0  0  0
   -1.5986   -0.5541    0.4402 C   0  0  0  1  0  0  0  0  0  0  0  0
  1  2  1  0  0  0  0
  1  3  1  0  0  0  0
  3  4  1  0  0  0  0
  3  5  1  0  0  0  0
  3  6  1  0  0  0  0
  6  7  1  0  0  0  0
  6  8  1  0  0  0  0
  6  9  1  0  0  0  0
  8 17  1  0  0  0  0
  9 10  1  0  0  0  0
  9 11  1  0  0  0  0
  9 13  1  0  0  0  0
 11 12  1  0  0  0  0
 13 14  1  0  0  0  0
 13 15  1  0  0  0  0
 13 17  1  0  0  0  0
 15 16  1  0  0  0  0
 17 18  1  0  0  0  0
 17 19  1  0  0  0  0
 19 20  1  0  0  0  0
 19 32  1  0  0  0  0
 20 21  1  0  0  0  0
 20 22  2  0  0  0  0
 22 23  1  0  0  0  0
 23 24  1  0  0  0  0
 23 32  2  0  0  0  0
 24 25  1  0  0  0  0
 24 28  2  0  0  0  0
 25 26  1  0  0  0  0
 25 27  1  0  0  0  0
 28 29  1  0  0  0  0
 29 30  1  0  0  0  0
 29 31  2  0  0  0  0
 31 32  1  0  0  0  0
M  END
> <ConfClashScore>
0 

> <ConfOneFourInteractionScore>
-0.980915 

> <ConfScore>
0.125526 

> <ConfScorePBest>
0.0142745 

> <ConfTolerance>
0.450303 

$$$$
ADN.****
  PyMOL2.4          3D                             0

 32 34  0  0  0  0  0  0  0  0999 V2000
   -2.1171   -0.4730   -3.5959 O   0  0  0  1  0  0  0  0  0  0  0  0
   -2.1438   -0.3857   -2.6402 H   0  0  0  1  0  0  0  0  0  0  0  0
   -1.0835    0.3510   -4.1188 C   0  0  0  1  0  0  0  0  0  0  0  0
   -1.4805    1.3182   -4.3463 H   0  0  0  1  0  0  0  0  0  0  0  0
   -0.6916   -0.0928   -5.0101 H   0  0  0  1  0  0  0  0  0  0  0  0
    0.0251    0.4896   -3.0960 C   0  0  0  1  0  0  0  0  0  0  0  0
    0.7419    1.2052   -3.4409 H   0  0  0  1  0  0  0  0  0  0  0  0
   -0.4936    0.8674   -1.8497 O   0  0  0  1  0  0  0  0  0  0  0  0
    0.6944   -0.8670   -2.8321 C   0  0  0  1  0  0  0  0  0  0  0  0
   -0.0146   -1.6658   -2.8956 H   0  0  0  1  0  0  0  0  0  0  0  0
    1.7614   -1.1023   -3.7520 O   0  0  0  1  0  0  0  0  0  0  0  0
    2.5663   -0.6983   -3.4194 H   0  0  0  1  0  0  0  0  0  0  0  0
    1.2134   -0.7119   -1.4267 C   0  0  0  1  0  0  0  0  0  0  0  0
    1.2831   -1.6605   -0.9365 H   0  0  0  1  0  0  0  0  0  0  0  0
    2.4927   -0.0767   -1.4201 O   0  0  0  1  0  0  0  0  0  0  0  0
    2.4309    0.7729   -1.8626 H   0  0  0  1  0  0  0  0  0  0  0  0
    0.1566    0.1743   -0.7606 C   0  0  0  1  0  0  0  0  0  0  0  0
    0.6180    0.8721   -0.0935 H   0  0  0  1  0  0  0  0  0  0  0  0
   -0.8070   -0.6418   -0.0235 N   0  0  0  1  0  0  0  0  0  0  0  0
   -1.6540   -1.5688   -0.5492 C   0  0  0  1  0  0  0  0  0  0  0  0
   -1.5959   -1.8814   -1.5394 H   0  0  0  1  0  0  0  0  0  0  0  0
   -2.5445   -2.0357    0.2832 N   0  0  0  1  0  0  0  0  0  0  0  0
   -2.2629   -1.3710    1.4665 C   0  0  0  1  0  0  0  0  0  0  0  0
   -2.8211   -1.3805    2.7414 C   0  0  0  1  0  0  0  0  0  0  0  0
   -3.8913   -2.1646    3.0829 N   0  0  0  1  0  0  0  0  0  0  0  0
   -4.2647   -2.7947    2.4317 H   0  0  0  1  0  0  0  0  0  0  0  0
   -4.2836   -2.0953    3.9783 H   0  0  0  1  0  0  0  0  0  0  0  0
   -2.3075   -0.5970    3.6959 N   0  0  0  1  0  0  0  0  0  0  0  0
   -1.2674    0.1881    3.3738 C   0  0  0  1  0  0  0  0  0  0  0  0
   -0.8996    0.7850    4.1418 H   0  0  0  1  0  0  0  0  0  0  0  0
   -0.6449    0.3053    2.2073 N   0  0  0  1  0  0  0  0  0  0  0  0
   -1.1800   -0.4996    1.2882 C   0  0  0  1  0  0  0  0  0  0  0  0
  1  2  1  0  0  0  0
  1  3  1  0  0  0  0
  3  4  1  0  0  0  0
  3  5  1  0  0  0  0
  3  6  1  0  0  0  0
  6  7  1  0  0  0  0
  6  8  1  0  0  0  0
  6  9  1  0  0  0  0
  8 17  1  0  0  0  0
  9 10  1  0  0  0  0
  9 11  1  0  0  0  0
  9 13  1  0  0  0  0
 11 12  1  0  0  0  0
 13 14  1  0  0  0  0
 13 15  1  0  0  0  0
 13 17  1  0  0  0  0
 15 16  1  0  0  0  0
 17 18  1  0  0  0  0
 17 19  1  0  0  0  0
 19 20  1  0  0  0  0
 19 32  1  0  0  0  0
 20 21  1  0  0  0  0
 20 22  2  0  0  0  0
 22 23  1  0  0  0  0
 23 24  1  0  0  0  0
 23 32  2  0  0  0  0
 24 25  1  0  0  0  0
 24 28  2  0  0  0  0
 25 26  1  0  0  0  0
 25 27  1  0  0  0  0
 28 29  1  0  0  0  0
 29 30  1  0  0  0  0
 29 31  2  0  0  0  0
 31 32  1  0  0  0  0
M  END
> <ConfClashScore>
0 

> <ConfOneFourInteractionScore>
-0.987904 

> <ConfScore>
0.125751 

> <ConfScorePBest>
0.0141715 

> <ConfTolerance>
0.362579 

$$$$
ADN.****
  PyMOL2.4          3D                             0

 32 34  0  0  0  0  0  0  0  0999 V2000
   -1.7671   -0.9479   -3.7687 O   0  0  0  1  0  0  0  0  0  0  0  0
   -1.2880   -1.7363   -4.0343 H   0  0  0  1  0  0  0  0  0  0  0  0
   -1.0224    0.2199   -4.1562 C   0  0  0  1  0  0  0  0  0  0  0  0
   -1.6683    1.0702   -4.2244 H   0  0  0  1  0  0  0  0  0  0  0  0
   -0.5405    0.0610   -5.0983 H   0  0  0  1  0  0  0  0  0  0  0  0
    0.0029    0.4214   -3.0656 C   0  0  0  1  0  0  0  0  0  0  0  0
    0.6493    1.2325   -3.3285 H   0  0  0  1  0  0  0  0  0  0  0  0
   -0.6389    0.6854   -1.8314 O   0  0  0  1  0  0  0  0  0  0  0  0
    0.7985   -0.8320   -2.8629 C   0  0  0  1  0  0  0  0  0  0  0  0
    0.2296   -1.6926   -3.1468 H   0  0  0  1  0  0  0  0  0  0  0  0
    2.0098   -0.7907   -3.6186 O   0  0  0  1  0  0  0  0  0  0  0  0
    2.0128   -0.0096   -4.1768 H   0  0  0  1  0  0  0  0  0  0  0  0
    1.0895   -0.8489   -1.3941 C   0  0  0  1  0  0  0  0  0  0  0  0
    0.8422   -1.8020   -0.9754 H   0  0  0  1  0  0  0  0  0  0  0  0
    2.4695   -0.5672   -1.1562 O   0  0  0  1  0  0  0  0  0  0  0  0
    2.6297    0.3720   -1.2736 H   0  0  0  1  0  0  0  0  0  0  0  0
    0.2292    0.2203   -0.8016 C   0  0  0  1  0  0  0  0  0  0  0  0
    0.8383    1.0246   -0.4454 H   0  0  0  1  0  0  0  0  0  0  0  0
   -0.5551   -0.3252    0.3052 N   0  0  0  1  0  0  0  0  0  0  0  0
   -1.6243   -1.1624    0.2123 C   0  0  0  1  0  0  0  0  0  0  0  0
   -1.9410   -1.5667   -0.6920 H   0  0  0  1  0  0  0  0  0  0  0  0
   -2.2222   -1.4195    1.3438 N   0  0  0  1  0  0  0  0  0  0  0  0
   -1.4848   -0.7003    2.2714 C   0  0  0  1  0  0  0  0  0  0  0  0
   -1.5727   -0.5156    3.6480 C   0  0  0  1  0  0  0  0  0  0  0  0
   -2.5396   -1.1027    4.4207 N   0  0  0  1  0  0  0  0  0  0  0  0
   -2.5715   -0.9257    5.3841 H   0  0  0  1  0  0  0  0  0  0  0  0
   -3.1996   -1.6996    4.0101 H   0  0  0  1  0  0  0  0  0  0  0  0
   -0.6839    0.2667    4.2701 N   0  0  0  1  0  0  0  0  0  0  0  0
    0.2616    0.8609    3.5251 C   0  0  0  1  0  0  0  0  0  0  0  0
    0.9306    1.4640    4.0449 H   0  0  0  1  0  0  0  0  0  0  0  0
    0.4579    0.7827    2.2147 N   0  0  0  1  0  0  0  0  0  0  0  0
   -0.4412   -0.0145    1.6357 C   0  0  0  1  0  0  0  0  0  0  0  0
  1  2  1  0  0  0  0
  1  3  1  0  0  0  0
  3  4  1  0  0  0  0
  3  5  1  0  0  0  0
  3  6  1  0  0  0  0
  6  7  1  0  0  0  0
  6  8  1  0  0  0  0
  6  9  1  0  0  0  0
  8 17  1  0  0  0  0
  9 10  1  0  0  0  0
  9 11  1  0  0  0  0
  9 13  1  0  0  0  0
 11 12  1  0  0  0  0
 13 14  1  0  0  0  0
 13 15  1  0  0  0  0
 13 17  1  0  0  0  0
 15 16  1  0  0  0  0
 17 18  1  0  0  0  0
 17 19  1  0  0  0  0
 19 20  1  0  0  0  0
 19 32  1  0  0  0  0
 20 21  1  0  0  0  0
 20 22  2  0  0  0  0
 22 23  1  0  0  0  0
 23 24  1  0  0  0  0
 23 32  2  0  0  0  0
 24 25  1  0  0  0  0
 24 28  2  0  0  0  0
 25 26  1  0  0  0  0
 25 27  1  0  0  0  0
 28 29  1  0  0  0  0
 29 30  1  0  0  0  0
 29 31  2  0  0  0  0
 31 32  1  0  0  0  0
M  END
> <ConfClashScore>
0 

> <ConfOneFourInteractionScore>
-0.980915 

> <ConfScore>
0.127343 

> <ConfScorePBest>
0.0140685 

> <ConfTolerance>
0.307082 

$$$$
ADN.****
  PyMOL2.4          3D                             0

 32 34  0  0  0  0  0  0  0  0999 V2000
   -2.2490    1.1592   -4.2097 O   0  0  0  1  0  0  0  0  0  0  0  0
   -1.9354    1.8645   -4.7805 H   0  0  0  1  0  0  0  0  0  0  0  0
   -1.2697    0.1268   -4.1479 C   0  0  0  1  0  0  0  0  0  0  0  0
   -0.7983    0.0430   -5.1048 H   0  0  0  1  0  0  0  0  0  0  0  0
   -1.7573   -0.7950   -3.9080 H   0  0  0  1  0  0  0  0  0  0  0  0
   -0.2137    0.3980   -3.1119 C   0  0  0  1  0  0  0  0  0  0  0  0
    0.3146    1.2930   -3.3662 H   0  0  0  1  0  0  0  0  0  0  0  0
   -0.8058    0.5120   -1.7997 O   0  0  0  1  0  0  0  0  0  0  0  0
    0.7594   -0.7953   -3.0018 C   0  0  0  1  0  0  0  0  0  0  0  0
    0.2921   -1.6984   -3.3348 H   0  0  0  1  0  0  0  0  0  0  0  0
    1.9406   -0.5587   -3.7691 O   0  0  0  1  0  0  0  0  0  0  0  0
    2.6204   -0.1846   -3.2038 H   0  0  0  1  0  0  0  0  0  0  0  0
    1.0911   -0.8728   -1.4928 C   0  0  0  1  0  0  0  0  0  0  0  0
    0.7888   -1.8147   -1.0849 H   0  0  0  1  0  0  0  0  0  0  0  0
    2.4892   -0.6834   -1.2701 O   0  0  0  1  0  0  0  0  0  0  0  0
    2.6698    0.2510   -1.1436 H   0  0  0  1  0  0  0  0  0  0  0  0
    0.2753    0.2813   -0.8716 C   0  0  0  1  0  0  0  0  0  0  0  0
    0.8797    1.1586   -0.7721 H   0  0  0  1  0  0  0  0  0  0  0  0
   -0.2467   -0.1050    0.4424 N   0  0  0  1  0  0  0  0  0  0  0  0
   -0.0695    0.4959    1.6509 C   0  0  0  1  0  0  0  0  0  0  0  0
    0.4942    1.3621    1.7674 H   0  0  0  1  0  0  0  0  0  0  0  0
   -0.6603   -0.0970    2.6525 N   0  0  0  1  0  0  0  0  0  0  0  0
   -1.2923   -1.1800    2.0616 C   0  0  0  1  0  0  0  0  0  0  0  0
   -2.0813   -2.2223    2.5394 C   0  0  0  1  0  0  0  0  0  0  0  0
   -2.3813   -2.3167    3.8728 N   0  0  0  1  0  0  0  0  0  0  0  0
   -1.9882   -1.6838    4.5095 H   0  0  0  1  0  0  0  0  0  0  0  0
   -2.9889   -3.0172    4.1899 H   0  0  0  1  0  0  0  0  0  0  0  0
   -2.5518   -3.1412    1.6892 N   0  0  0  1  0  0  0  0  0  0  0  0
   -2.2257   -3.0243    0.3923 C   0  0  0  1  0  0  0  0  0  0  0  0
   -2.6073   -3.7604   -0.2355 H   0  0  0  1  0  0  0  0  0  0  0  0
   -1.4818   -2.0963   -0.1969 N   0  0  0  1  0  0  0  0  0  0  0  0
   -1.0428   -1.1950    0.6828 C   0  0  0  1  0  0  0  0  0  0  0  0
  1  2  1  0  0  0  0
  1  3  1  0  0  0  0
  3  4  1  0  0  0  0
  3  5  1  0  0  0  0
  3  6  1  0  0  0  0
  6  7  1  0  0  0  0
  6  8  1  0  0  0  0
  6  9  1  0  0  0  0
  8 17  1  0  0  0  0
  9 10  1  0  0  0  0
  9 11  1  0  0  0  0
  9 13  1  0  0  0  0
 11 12  1  0  0  0  0
 13 14  1  0  0  0  0
 13 15  1  0  0  0  0
 13 17  1  0  0  0  0
 15 16  1  0  0  0  0
 17 18  1  0  0  0  0
 17 19  1  0  0  0  0
 19 20  1  0  0  0  0
 19 32  1  0  0  0  0
 20 21  1  0  0  0  0
 20 22  2  0  0  0  0
 22 23  1  0  0  0  0
 23 24  1  0  0  0  0
 23 32  2  0  0  0  0
 24 25  1  0  0  0  0
 24 28  2  0  0  0  0
 25 26  1  0  0  0  0
 25 27  1  0  0  0  0
 28 29  1  0  0  0  0
 29 30  1  0  0  0  0
 29 31  2  0  0  0  0
 31 32  1  0  0  0  0
M  END
> <ConfClashScore>
0 

> <ConfOneFourInteractionScore>
-0.970696 

> <ConfScore>
0.127617 

> <ConfScorePBest>
0.0139655 

> <ConfTolerance>
0.25 

$$$$
ADN.****
  PyMOL2.4          3D                             0

 32 34  0  0  0  0  0  0  0  0999 V2000
   -1.7769   -1.3373   -3.8859 O   0  0  0  1  0  0  0  0  0  0  0  0
   -1.2331   -1.9834   -4.3425 H   0  0  0  1  0  0  0  0  0  0  0  0
   -1.2996   -0.0301   -4.1704 C   0  0  0  1  0  0  0  0  0  0  0  0
   -2.1192    0.6576   -4.1608 H   0  0  0  1  0  0  0  0  0  0  0  0
   -0.8380   -0.0223   -5.1356 H   0  0  0  1  0  0  0  0  0  0  0  0
   -0.2869    0.3806   -3.1257 C   0  0  0  1  0  0  0  0  0  0  0  0
    0.1471    1.3197   -3.3987 H   0  0  0  1  0  0  0  0  0  0  0  0
   -0.9051    0.4652   -1.8234 O   0  0  0  1  0  0  0  0  0  0  0  0
    0.8055   -0.6994   -2.9730 C   0  0  0  1  0  0  0  0  0  0  0  0
    0.4409   -1.6554   -3.2861 H   0  0  0  1  0  0  0  0  0  0  0  0
    1.9652   -0.3588   -3.7340 O   0  0  0  1  0  0  0  0  0  0  0  0
    2.5951    0.0975   -3.1714 H   0  0  0  1  0  0  0  0  0  0  0  0
    1.1235   -0.7020   -1.4591 C   0  0  0  1  0  0  0  0  0  0  0  0
    0.9171   -1.6598   -1.0288 H   0  0  0  1  0  0  0  0  0  0  0  0
    2.4906   -0.3596   -1.2270 O   0  0  0  1  0  0  0  0  0  0  0  0
    3.0346   -1.1475   -1.2967 H   0  0  0  1  0  0  0  0  0  0  0  0
    0.1819    0.3747   -0.8781 C   0  0  0  1  0  0  0  0  0  0  0  0
    0.6888    1.3135   -0.7962 H   0  0  0  1  0  0  0  0  0  0  0  0
   -0.3136   -0.0305    0.4405 N   0  0  0  1  0  0  0  0  0  0  0  0
   -1.5350   -0.5554    0.7330 C   0  0  0  1  0  0  0  0  0  0  0  0
   -2.2575   -0.7295    0.0055 H   0  0  0  1  0  0  0  0  0  0  0  0
   -1.7311   -0.8237    1.9953 N   0  0  0  1  0  0  0  0  0  0  0  0
   -0.5369   -0.4550    2.5949 C   0  0  0  1  0  0  0  0  0  0  0  0
   -0.0658   -0.4623    3.9044 C   0  0  0  1  0  0  0  0  0  0  0  0
   -0.8130   -0.9022    4.9651 N   0  0  0  1  0  0  0  0  0  0  0  0
   -0.4523   -0.8478    5.8747 H   0  0  0  1  0  0  0  0  0  0  0  0
   -1.7083   -1.2712    4.8143 H   0  0  0  1  0  0  0  0  0  0  0  0
    1.1705   -0.0247    4.1667 N   0  0  0  1  0  0  0  0  0  0  0  0
    1.9106    0.4231    3.1403 C   0  0  0  1  0  0  0  0  0  0  0  0
    2.8640    0.7584    3.3858 H   0  0  0  1  0  0  0  0  0  0  0  0
    1.5901    0.4958    1.8543 N   0  0  0  1  0  0  0  0  0  0  0  0
    0.3559    0.0401    1.6349 C   0  0  0  1  0  0  0  0  0  0  0  0
  1  2  1  0  0  0  0
  1  3  1  0  0  0  0
  3  4  1  0  0  0  0
  3  5  1  0  0  0  0
  3  6  1  0  0  0  0
  6  7  1  0  0  0  0
  6  8  1  0  0  0  0
  6  9  1  0  0  0  0
  8 17  1  0  0  0  0
  9 10  1  0  0  0  0
  9 11  1  0  0  0  0
  9 13  1  0  0  0  0
 11 12  1  0  0  0  0
 13 14  1  0  0  0  0
 13 15  1  0  0  0  0
 13 17  1  0  0  0  0
 15 16  1  0  0  0  0
 17 18  1  0  0  0  0
 17 19  1  0  0  0  0
 19 20  1  0  0  0  0
 19 32  1  0  0  0  0
 20 21  1  0  0  0  0
 20 22  2  0  0  0  0
 22 23  1  0  0  0  0
 23 24  1  0  0  0  0
 23 32  2  0  0  0  0
 24 25  1  0  0  0  0
 24 28  2  0  0  0  0
 25 26  1  0  0  0  0
 25 27  1  0  0  0  0
 28 29  1  0  0  0  0
 29 30  1  0  0  0  0
 29 31  2  0  0  0  0
 31 32  1  0  0  0  0
M  END
> <ConfClashScore>
0 

> <ConfOneFourInteractionScore>
-0.986581 

> <ConfScore>
0.130977 

> <ConfScorePBest>
0.0138625 

> <ConfTolerance>
0.25 

$$$$
ADN.****
  PyMOL2.4          3D                             0

 32 34  0  0  0  0  0  0  0  0999 V2000
   -1.4717    1.6872   -4.5269 O   0  0  0  1  0  0  0  0  0  0  0  0
   -1.1557    1.9365   -5.3985 H   0  0  0  1  0  0  0  0  0  0  0  0
   -0.8766    0.4668   -4.1413 C   0  0  0  1  0  0  0  0  0  0  0  0
   -0.3866    0.0497   -4.9961 H   0  0  0  1  0  0  0  0  0  0  0  0
   -1.6523   -0.1946   -3.8161 H   0  0  0  1  0  0  0  0  0  0  0  0
    0.1387    0.5866   -3.0274 C   0  0  0  1  0  0  0  0  0  0  0  0
    0.8511    1.3460   -3.2737 H   0  0  0  1  0  0  0  0  0  0  0  0
   -0.4923    0.8739   -1.8091 O   0  0  0  1  0  0  0  0  0  0  0  0
    0.8392   -0.7578   -2.7832 C   0  0  0  1  0  0  0  0  0  0  0  0
    0.1704   -1.5768   -2.9472 H   0  0  0  1  0  0  0  0  0  0  0  0
    1.9847   -0.9019   -3.6242 O   0  0  0  1  0  0  0  0  0  0  0  0
    1.7610   -1.4515   -4.3789 H   0  0  0  1  0  0  0  0  0  0  0  0
    1.2381   -0.6645   -1.3337 C   0  0  0  1  0  0  0  0  0  0  0  0
    1.3069   -1.6362   -0.8913 H   0  0  0  1  0  0  0  0  0  0  0  0
    2.4861    0.0150   -1.1886 O   0  0  0  1  0  0  0  0  0  0  0  0
    2.4948    0.7928   -1.7511 H   0  0  0  1  0  0  0  0  0  0  0  0
    0.0967    0.1438   -0.7095 C   0  0  0  1  0  0  0  0  0  0  0  0
    0.4749    0.8187    0.0297 H   0  0  0  1  0  0  0  0  0  0  0  0
   -0.8886   -0.7469   -0.0986 N   0  0  0  1  0  0  0  0  0  0  0  0
   -1.1872   -0.8566    1.2249 C   0  0  0  1  0  0  0  0  0  0  0  0
   -0.7195   -0.2801    1.9533 H   0  0  0  1  0  0  0  0  0  0  0  0
   -2.1047   -1.7399    1.5111 N   0  0  0  1  0  0  0  0  0  0  0  0
   -2.4543   -2.2573    0.2735 C   0  0  0  1  0  0  0  0  0  0  0  0
   -3.3525   -3.2314   -0.1524 C   0  0  0  1  0  0  0  0  0  0  0  0
   -4.1156   -3.8834    0.7939 N   0  0  0  1  0  0  0  0  0  0  0  0
   -4.7741   -4.5537    0.5155 H   0  0  0  1  0  0  0  0  0  0  0  0
   -3.9992   -3.6763    1.7447 H   0  0  0  1  0  0  0  0  0  0  0  0
   -3.4568   -3.5128   -1.4557 N   0  0  0  1  0  0  0  0  0  0  0  0
   -2.6674   -2.8421   -2.3095 C   0  0  0  1  0  0  0  0  0  0  0  0
   -2.7753   -3.0924   -3.3131 H   0  0  0  1  0  0  0  0  0  0  0  0
   -1.7675   -1.9026   -2.0458 N   0  0  0  1  0  0  0  0  0  0  0  0
   -1.7034   -1.6448   -0.7387 C   0  0  0  1  0  0  0  0  0  0  0  0
  1  2  1  0  0  0  0
  1  3  1  0  0  0  0
  3  4  1  0  0  0  0
  3  5  1  0  0  0  0
  3  6  1  0  0  0  0
  6  7  1  0  0  0  0
  6  8  1  0  0  0  0
  6  9  1  0  0  0  0
  8 17  1  0  0  0  0
  9 10  1  0  0  0  0
  9 11  1  0  0  0  0
  9 13  1  0  0  0  0
 11 12  1  0  0  0  0
 13 14  1  0  0  0  0
 13 15  1  0  0  0  0
 13 17  1  0  0  0  0
 15 16  1  0  0  0  0
 17 18  1  0  0  0  0
 17 19  1  0  0  0  0
 19 20  1  0  0  0  0
 19 32  1  0  0  0  0
 20 21  1  0  0  0  0
 20 22  2  0  0  0  0
 22 23  1  0  0  0  0
 23 24  1  0  0  0  0
 23 32  2  0  0  0  0
 24 25  1  0  0  0  0
 24 28  2  0  0  0  0
 25 26  1  0  0  0  0
 25 27  1  0  0  0  0
 28 29  1  0  0  0  0
 29 30  1  0  0  0  0
 29 31  2  0  0  0  0
 31 32  1  0  0  0  0
M  END
> <ConfClashScore>
0 

> <ConfOneFourInteractionScore>
-0.970696 

> <ConfScore>
0.131595 

> <ConfScorePBest>
0.0137595 

> <ConfTolerance>
0.258273 

$$$$
ADN.****
  PyMOL2.4          3D                             0

 32 34  0  0  0  0  0  0  0  0999 V2000
   -1.6729   -1.7126   -2.8071 O   0  0  0  1  0  0  0  0  0  0  0  0
   -1.5369   -2.5354   -3.2826 H   0  0  0  1  0  0  0  0  0  0  0  0
   -1.4046   -0.6157   -3.6704 C   0  0  0  1  0  0  0  0  0  0  0  0
   -2.2898   -0.0204   -3.7544 H   0  0  0  1  0  0  0  0  0  0  0  0
   -1.1365   -0.9950   -4.6343 H   0  0  0  1  0  0  0  0  0  0  0  0
   -0.2795    0.2571   -3.1625 C   0  0  0  1  0  0  0  0  0  0  0  0
   -0.0997    1.0492   -3.8590 H   0  0  0  1  0  0  0  0  0  0  0  0
   -0.6186    0.7903   -1.9135 O   0  0  0  1  0  0  0  0  0  0  0  0
    0.9951   -0.5838   -2.9885 C   0  0  0  1  0  0  0  0  0  0  0  0
    0.9117   -1.5206   -3.4988 H   0  0  0  1  0  0  0  0  0  0  0  0
    2.1440    0.1182   -3.4653 O   0  0  0  1  0  0  0  0  0  0  0  0
    1.9887    1.0638   -3.4072 H   0  0  0  1  0  0  0  0  0  0  0  0
    1.0619   -0.7860   -1.4688 C   0  0  0  1  0  0  0  0  0  0  0  0
    0.5304   -1.6675   -1.1767 H   0  0  0  1  0  0  0  0  0  0  0  0
    2.4165   -0.8771   -1.0250 O   0  0  0  1  0  0  0  0  0  0  0  0
    2.6643   -1.8006   -0.9395 H   0  0  0  1  0  0  0  0  0  0  0  0
    0.3954    0.4539   -0.9183 C   0  0  0  1  0  0  0  0  0  0  0  0
    1.1028    1.2498   -0.8140 H   0  0  0  1  0  0  0  0  0  0  0  0
   -0.2236    0.1771    0.3795 N   0  0  0  1  0  0  0  0  0  0  0  0
   -1.5404   -0.0634    0.6265 C   0  0  0  1  0  0  0  0  0  0  0  0
   -2.2570   -0.0787   -0.1270 H   0  0  0  1  0  0  0  0  0  0  0  0
   -1.8360   -0.2734    1.8805 N   0  0  0  1  0  0  0  0  0  0  0  0
   -0.6121   -0.1733    2.5236 C   0  0  0  1  0  0  0  0  0  0  0  0
   -0.2014   -0.2756    3.8495 C   0  0  0  1  0  0  0  0  0  0  0  0
   -1.0648   -0.5327    4.8816 N   0  0  0  1  0  0  0  0  0  0  0  0
   -2.0272   -0.6010    4.7100 H   0  0  0  1  0  0  0  0  0  0  0  0
   -0.7200   -0.6483    5.7917 H   0  0  0  1  0  0  0  0  0  0  0  0
    1.0907   -0.1199    4.1572 N   0  0  0  1  0  0  0  0  0  0  0  0
    1.9478    0.1467    3.1590 C   0  0  0  1  0  0  0  0  0  0  0  0
    2.9422    0.2650    3.4396 H   0  0  0  1  0  0  0  0  0  0  0  0
    1.6974    0.2797    1.8623 N   0  0  0  1  0  0  0  0  0  0  0  0
    0.4018    0.1062    1.5975 C   0  0  0  1  0  0  0  0  0  0  0  0
  1  2  1  0  0  0  0
  1  3  1  0  0  0  0
  3  4  1  0  0  0  0
  3  5  1  0  0  0  0
  3  6  1  0  0  0  0
  6  7  1  0  0  0  0
  6  8  1  0  0  0  0
  6  9  1  0  0  0  0
  8 17  1  0  0  0  0
  9 10  1  0  0  0  0
  9 11  1  0  0  0  0
  9 13  1  0  0  0  0
 11 12  1  0  0  0  0
 13 14  1  0  0  0  0
 13 15  1  0  0  0  0
 13 17  1  0  0  0  0
 15 16  1  0  0  0  0
 17 18  1  0  0  0  0
 17 19  1  0  0  0  0
 19 20  1  0  0  0  0
 19 32  1  0  0  0  0
 20 21  1  0  0  0  0
 20 22  2  0  0  0  0
 22 23  1  0  0  0  0
 23 24  1  0  0  0  0
 23 32  2  0  0  0  0
 24 25  1  0  0  0  0
 24 28  2  0  0  0  0
 25 26  1  0  0  0  0
 25 27  1  0  0  0  0
 28 29  1  0  0  0  0
 29 30  1  0  0  0  0
 29 31  2  0  0  0  0
 31 32  1  0  0  0  0
M  END
> <ConfClashScore>
0 

> <ConfOneFourInteractionScore>
-0.987904 

> <ConfScore>
0.131607 

> <ConfScorePBest>
0.0136565 

> <ConfTolerance>
0.25 

$$$$
ADN.****
  PyMOL2.4          3D                             0

 32 34  0  0  0  0  0  0  0  0999 V2000
   -1.8606   -1.1913   -2.1371 O   0  0  0  1  0  0  0  0  0  0  0  0
   -2.5392   -0.6874   -1.6819 H   0  0  0  1  0  0  0  0  0  0  0  0
   -1.4856   -0.5134   -3.3289 C   0  0  0  1  0  0  0  0  0  0  0  0
   -2.2652    0.1693   -3.5955 H   0  0  0  1  0  0  0  0  0  0  0  0
   -1.3602   -1.2347   -4.1092 H   0  0  0  1  0  0  0  0  0  0  0  0
   -0.1961    0.2603   -3.1717 C   0  0  0  1  0  0  0  0  0  0  0  0
   -0.0326    0.8624   -4.0410 H   0  0  0  1  0  0  0  0  0  0  0  0
   -0.2328    1.0875   -1.9692 O   0  0  0  1  0  0  0  0  0  0  0  0
    0.9667   -0.6781   -2.9440 C   0  0  0  1  0  0  0  0  0  0  0  0
    0.8193   -1.6024   -3.4624 H   0  0  0  1  0  0  0  0  0  0  0  0
    2.1935   -0.0831   -3.3696 O   0  0  0  1  0  0  0  0  0  0  0  0
    2.1214    0.8728   -3.3167 H   0  0  0  1  0  0  0  0  0  0  0  0
    0.9603   -0.8944   -1.4248 C   0  0  0  1  0  0  0  0  0  0  0  0
    0.3400   -1.7238   -1.1560 H   0  0  0  1  0  0  0  0  0  0  0  0
    2.2829   -1.1080   -0.9297 O   0  0  0  1  0  0  0  0  0  0  0  0
    2.9209   -0.7834   -1.5694 H   0  0  0  1  0  0  0  0  0  0  0  0
    0.3780    0.4264   -0.8971 C   0  0  0  1  0  0  0  0  0  0  0  0
    1.1618    1.0338   -0.4949 H   0  0  0  1  0  0  0  0  0  0  0  0
   -0.6127    0.1513    0.1474 N   0  0  0  1  0  0  0  0  0  0  0  0
   -1.2745   -1.0183    0.3637 C   0  0  0  1  0  0  0  0  0  0  0  0
   -1.1203   -1.8645   -0.2209 H   0  0  0  1  0  0  0  0  0  0  0  0
   -2.1173   -0.9979    1.3603 N   0  0  0  1  0  0  0  0  0  0  0  0
   -2.0021    0.2913    1.8566 C   0  0  0  1  0  0  0  0  0  0  0  0
   -2.6113    0.9894    2.8950 C   0  0  0  1  0  0  0  0  0  0  0  0
   -3.5523    0.3844    3.6858 N   0  0  0  1  0  0  0  0  0  0  0  0
   -3.9948    0.8929    4.3972 H   0  0  0  1  0  0  0  0  0  0  0  0
   -3.7829   -0.5569    3.5402 H   0  0  0  1  0  0  0  0  0  0  0  0
   -2.2756    2.2636    3.1240 N   0  0  0  1  0  0  0  0  0  0  0  0
   -1.3604    2.8276    2.3200 C   0  0  0  1  0  0  0  0  0  0  0  0
   -1.1298    3.8201    2.5279 H   0  0  0  1  0  0  0  0  0  0  0  0
   -0.7102    2.2895    1.2955 N   0  0  0  1  0  0  0  0  0  0  0  0
   -1.0654    1.0175    1.1089 C   0  0  0  1  0  0  0  0  0  0  0  0
  1  2  1  0  0  0  0
  1  3  1  0  0  0  0
  3  4  1  0  0  0  0
  3  5  1  0  0  0  0
  3  6  1  0  0  0  0
  6  7  1  0  0  0  0
  6  8  1  0  0  0  0
  6  9  1  0  0  0  0
  8 17  1  0  0  0  0
  9 10  1  0  0  0  0
  9 11  1  0  0  0  0
  9 13  1  0  0  0  0
 11 12  1  0  0  0  0
 13 14  1  0  0  0  0
 13 15  1  0  0  0  0
 13 17  1  0  0  0  0
 15 16  1  0  0  0  0
 17 18  1  0  0  0  0
 17 19  1  0  0  0  0
 19 20  1  0  0  0  0
 19 32  1  0  0  0  0
 20 21  1  0  0  0  0
 20 22  2  0  0  0  0
 22 23  1  0  0  0  0
 23 24  1  0  0  0  0
 23 32  2  0  0  0  0
 24 25  1  0  0  0  0
 24 28  2  0  0  0  0
 25 26  1  0  0  0  0
 25 27  1  0  0  0  0
 28 29  1  0  0  0  0
 29 30  1  0  0  0  0
 29 31  2  0  0  0  0
 31 32  1  0  0  0  0
M  END
> <ConfClashScore>
0 

> <ConfOneFourInteractionScore>
-0.983365 

> <ConfScore>
0.133446 

> <ConfScorePBest>
0.0135535 

> <ConfTolerance>
0.375148 

$$$$
ADN.****
  PyMOL2.4          3D                             0

 32 34  0  0  0  0  0  0  0  0999 V2000
   -1.7713   -1.3317   -2.1765 O   0  0  0  1  0  0  0  0  0  0  0  0
   -1.4898   -2.2197   -2.4085 H   0  0  0  1  0  0  0  0  0  0  0  0
   -1.5541   -0.4617   -3.2795 C   0  0  0  1  0  0  0  0  0  0  0  0
   -2.3489    0.2539   -3.3139 H   0  0  0  1  0  0  0  0  0  0  0  0
   -1.5558   -1.0408   -4.1791 H   0  0  0  1  0  0  0  0  0  0  0  0
   -0.2393    0.2780   -3.1811 C   0  0  0  1  0  0  0  0  0  0  0  0
   -0.1124    0.8972   -4.0445 H   0  0  0  1  0  0  0  0  0  0  0  0
   -0.1853    1.0764   -1.9599 O   0  0  0  1  0  0  0  0  0  0  0  0
    0.9117   -0.6921   -3.0442 C   0  0  0  1  0  0  0  0  0  0  0  0
    0.7116   -1.5999   -3.5741 H   0  0  0  1  0  0  0  0  0  0  0  0
    2.1255   -0.1153   -3.5279 O   0  0  0  1  0  0  0  0  0  0  0  0
    2.1965    0.7900   -3.2165 H   0  0  0  1  0  0  0  0  0  0  0  0
    0.9890   -0.9451   -1.5327 C   0  0  0  1  0  0  0  0  0  0  0  0
    0.3655   -1.7663   -1.2468 H   0  0  0  1  0  0  0  0  0  0  0  0
    2.3329   -1.2011   -1.1217 O   0  0  0  1  0  0  0  0  0  0  0  0
    2.7429   -0.3808   -0.8377 H   0  0  0  1  0  0  0  0  0  0  0  0
    0.4711    0.3756   -0.9413 C   0  0  0  1  0  0  0  0  0  0  0  0
    1.2916    0.9548   -0.5724 H   0  0  0  1  0  0  0  0  0  0  0  0
   -0.4623    0.0982    0.1524 N   0  0  0  1  0  0  0  0  0  0  0  0
   -1.8163    0.0525    0.0205 C   0  0  0  1  0  0  0  0  0  0  0  0
   -2.2914    0.1341   -0.9010 H   0  0  0  1  0  0  0  0  0  0  0  0
   -2.4735   -0.1015    1.1378 N   0  0  0  1  0  0  0  0  0  0  0  0
   -1.4737   -0.1734    2.0952 C   0  0  0  1  0  0  0  0  0  0  0  0
   -1.4641   -0.3222    3.4790 C   0  0  0  1  0  0  0  0  0  0  0  0
   -2.5878   -0.4489    4.2884 N   0  0  0  1  0  0  0  0  0  0  0  0
   -2.4846   -0.5516    5.2575 H   0  0  0  1  0  0  0  0  0  0  0  0
   -3.4829   -0.4356    3.8896 H   0  0  0  1  0  0  0  0  0  0  0  0
   -0.2988   -0.3519    4.1346 N   0  0  0  1  0  0  0  0  0  0  0  0
    0.8294   -0.2206    3.4191 C   0  0  0  1  0  0  0  0  0  0  0  0
    1.7139   -0.2446    3.9656 H   0  0  0  1  0  0  0  0  0  0  0  0
    0.9686   -0.0643    2.1084 N   0  0  0  1  0  0  0  0  0  0  0  0
   -0.2144   -0.0514    1.4925 C   0  0  0  1  0  0  0  0  0  0  0  0
  1  2  1  0  0  0  0
  1  3  1  0  0  0  0
  3  4  1  0  0  0  0
  3  5  1  0  0  0  0
  3  6  1  0  0  0  0
  6  7  1  0  0  0  0
  6  8  1  0  0  0  0
  6  9  1  0  0  0  0
  8 17  1  0  0  0  0
  9 10  1  0  0  0  0
  9 11  1  0  0  0  0
  9 13  1  0  0  0  0
 11 12  1  0  0  0  0
 13 14  1  0  0  0  0
 13 15  1  0  0  0  0
 13 17  1  0  0  0  0
 15 16  1  0  0  0  0
 17 18  1  0  0  0  0
 17 19  1  0  0  0  0
 19 20  1  0  0  0  0
 19 32  1  0  0  0  0
 20 21  1  0  0  0  0
 20 22  2  0  0  0  0
 22 23  1  0  0  0  0
 23 24  1  0  0  0  0
 23 32  2  0  0  0  0
 24 25  1  0  0  0  0
 24 28  2  0  0  0  0
 25 26  1  0  0  0  0
 25 27  1  0  0  0  0
 28 29  1  0  0  0  0
 29 30  1  0  0  0  0
 29 31  2  0  0  0  0
 31 32  1  0  0  0  0
M  END
> <ConfClashScore>
0 

> <ConfOneFourInteractionScore>
-0.986581 

> <ConfScore>
0.133955 

> <ConfScorePBest>
0.0134505 

> <ConfTolerance>
0.42274 

$$$$
ADN.****
  PyMOL2.4          3D                             0

 32 34  0  0  0  0  0  0  0  0999 V2000
   -2.5270    0.3595   -3.9286 O   0  0  0  1  0  0  0  0  0  0  0  0
   -3.0972    0.4366   -3.1601 H   0  0  0  1  0  0  0  0  0  0  0  0
   -1.4555   -0.5279   -3.6373 C   0  0  0  1  0  0  0  0  0  0  0  0
   -1.1976   -1.0758   -4.5195 H   0  0  0  1  0  0  0  0  0  0  0  0
   -1.7567   -1.2091   -2.8691 H   0  0  0  1  0  0  0  0  0  0  0  0
   -0.2517    0.2630   -3.1656 C   0  0  0  1  0  0  0  0  0  0  0  0
   -0.0099    1.0118   -3.8906 H   0  0  0  1  0  0  0  0  0  0  0  0
   -0.5252    0.8733   -1.8918 O   0  0  0  1  0  0  0  0  0  0  0  0
    0.9567   -0.6804   -2.9459 C   0  0  0  1  0  0  0  0  0  0  0  0
    0.8238   -1.6047   -3.4682 H   0  0  0  1  0  0  0  0  0  0  0  0
    2.1741   -0.0641   -3.3693 O   0  0  0  1  0  0  0  0  0  0  0  0
    2.2102    0.8359   -3.0370 H   0  0  0  1  0  0  0  0  0  0  0  0
    0.9466   -0.8954   -1.4427 C   0  0  0  1  0  0  0  0  0  0  0  0
    0.3179   -1.7187   -1.1746 H   0  0  0  1  0  0  0  0  0  0  0  0
    2.2663   -1.1216   -0.9455 O   0  0  0  1  0  0  0  0  0  0  0  0
    2.9081   -0.8633   -1.6111 H   0  0  0  1  0  0  0  0  0  0  0  0
    0.3761    0.4317   -0.9178 C   0  0  0  1  0  0  0  0  0  0  0  0
    1.1605    1.1473   -0.7850 H   0  0  0  1  0  0  0  0  0  0  0  0
   -0.3131    0.2211    0.3545 N   0  0  0  1  0  0  0  0  0  0  0  0
   -0.1682    0.9014    1.5246 C   0  0  0  1  0  0  0  0  0  0  0  0
    0.4330    1.7457    1.6097 H   0  0  0  1  0  0  0  0  0  0  0  0
   -0.8405    0.4141    2.5317 N   0  0  0  1  0  0  0  0  0  0  0  0
   -1.4965   -0.6784    1.9860 C   0  0  0  1  0  0  0  0  0  0  0  0
   -2.3626   -1.6428    2.4927 C   0  0  0  1  0  0  0  0  0  0  0  0
   -2.8348   -1.7583    3.8034 N   0  0  0  1  0  0  0  0  0  0  0  0
   -2.5946   -1.0833    4.4720 H   0  0  0  1  0  0  0  0  0  0  0  0
   -3.4061   -2.5142    4.0535 H   0  0  0  1  0  0  0  0  0  0  0  0
   -2.8353   -2.5990    1.6859 N   0  0  0  1  0  0  0  0  0  0  0  0
   -2.4362   -2.5952    0.4042 C   0  0  0  1  0  0  0  0  0  0  0  0
   -2.8224   -3.3568   -0.1893 H   0  0  0  1  0  0  0  0  0  0  0  0
   -1.6152   -1.7506   -0.2078 N   0  0  0  1  0  0  0  0  0  0  0  0
   -1.1764   -0.8083    0.6279 C   0  0  0  1  0  0  0  0  0  0  0  0
  1  2  1  0  0  0  0
  1  3  1  0  0  0  0
  3  4  1  0  0  0  0
  3  5  1  0  0  0  0
  3  6  1  0  0  0  0
  6  7  1  0  0  0  0
  6  8  1  0  0  0  0
  6  9  1  0  0  0  0
  8 17  1  0  0  0  0
  9 10  1  0  0  0  0
  9 11  1  0  0  0  0
  9 13  1  0  0  0  0
 11 12  1  0  0  0  0
 13 14  1  0  0  0  0
 13 15  1  0  0  0  0
 13 17  1  0  0  0  0
 15 16  1  0  0  0  0
 17 18  1  0  0  0  0
 17 19  1  0  0  0  0
 19 20  1  0  0  0  0
 19 32  1  0  0  0  0
 20 21  1  0  0  0  0
 20 22  2  0  0  0  0
 22 23  1  0  0  0  0
 23 24  1  0  0  0  0
 23 32  2  0  0  0  0
 24 25  1  0  0  0  0
 24 28  2  0  0  0  0
 25 26  1  0  0  0  0
 25 27  1  0  0  0  0
 28 29  1  0  0  0  0
 29 30  1  0  0  0  0
 29 31  2  0  0  0  0
 31 32  1  0  0  0  0
M  END
> <ConfClashScore>
0 

> <ConfOneFourInteractionScore>
-0.966157 

> <ConfScore>
0.134958 

> <ConfScorePBest>
0.0133475 

> <ConfTolerance>
0.290697 

$$$$
ADN.****
  PyMOL2.4          3D                             0

 32 34  0  0  0  0  0  0  0  0999 V2000
   -1.7436   -0.6740   -3.9553 O   0  0  0  1  0  0  0  0  0  0  0  0
   -1.3658   -1.4420   -4.3902 H   0  0  0  1  0  0  0  0  0  0  0  0
   -0.8871    0.4441   -4.1390 C   0  0  0  1  0  0  0  0  0  0  0  0
   -1.4835    1.3319   -4.1709 H   0  0  0  1  0  0  0  0  0  0  0  0
   -0.3673    0.3295   -5.0673 H   0  0  0  1  0  0  0  0  0  0  0  0
    0.1280    0.5817   -3.0290 C   0  0  0  1  0  0  0  0  0  0  0  0
    0.8341    1.3444   -3.2832 H   0  0  0  1  0  0  0  0  0  0  0  0
   -0.5243    0.8924   -1.7841 O   0  0  0  1  0  0  0  0  0  0  0  0
    0.8318   -0.7330   -2.7888 C   0  0  0  1  0  0  0  0  0  0  0  0
    0.1717   -1.5602   -2.9467 H   0  0  0  1  0  0  0  0  0  0  0  0
    1.9763   -0.8685   -3.6324 O   0  0  0  1  0  0  0  0  0  0  0  0
    1.8564   -1.6205   -4.2169 H   0  0  0  1  0  0  0  0  0  0  0  0
    1.2324   -0.6229   -1.3381 C   0  0  0  1  0  0  0  0  0  0  0  0
    1.3296   -1.5912   -0.8934 H   0  0  0  1  0  0  0  0  0  0  0  0
    2.4620    0.0907   -1.2004 O   0  0  0  1  0  0  0  0  0  0  0  0
    2.5160    0.7696   -1.8770 H   0  0  0  1  0  0  0  0  0  0  0  0
    0.0868    0.1467   -0.7151 C   0  0  0  1  0  0  0  0  0  0  0  0
    0.4535    0.8119    0.0386 H   0  0  0  1  0  0  0  0  0  0  0  0
   -0.8821   -0.7772   -0.1223 N   0  0  0  1  0  0  0  0  0  0  0  0
   -2.0083   -1.2747   -0.7027 C   0  0  0  1  0  0  0  0  0  0  0  0
   -2.3303   -0.9759   -1.6454 H   0  0  0  1  0  0  0  0  0  0  0  0
   -2.6537   -2.1552    0.0129 N   0  0  0  1  0  0  0  0  0  0  0  0
   -1.8892   -2.2609    1.1644 C   0  0  0  1  0  0  0  0  0  0  0  0
   -1.9995   -3.0012    2.3377 C   0  0  0  1  0  0  0  0  0  0  0  0
   -3.0279   -3.8740    2.5769 N   0  0  0  1  0  0  0  0  0  0  0  0
   -3.0195   -4.4324    3.3823 H   0  0  0  1  0  0  0  0  0  0  0  0
   -3.7721   -3.9400    1.9427 H   0  0  0  1  0  0  0  0  0  0  0  0
   -1.0714   -2.8731    3.2922 N   0  0  0  1  0  0  0  0  0  0  0  0
   -0.0645   -2.0112    3.0794 C   0  0  0  1  0  0  0  0  0  0  0  0
    0.6339   -1.9372    3.8464 H   0  0  0  1  0  0  0  0  0  0  0  0
    0.1601   -1.2406    2.0222 N   0  0  0  1  0  0  0  0  0  0  0  0
   -0.7805   -1.4069    1.0913 C   0  0  0  1  0  0  0  0  0  0  0  0
  1  2  1  0  0  0  0
  1  3  1  0  0  0  0
  3  4  1  0  0  0  0
  3  5  1  0  0  0  0
  3  6  1  0  0  0  0
  6  7  1  0  0  0  0
  6  8  1  0  0  0  0
  6  9  1  0  0  0  0
  8 17  1  0  0  0  0
  9 10  1  0  0  0  0
  9 11  1  0  0  0  0
  9 13  1  0  0  0  0
 11 12  1  0  0  0  0
 13 14  1  0  0  0  0
 13 15  1  0  0  0  0
 13 17  1  0  0  0  0
 15 16  1  0  0  0  0
 17 18  1  0  0  0  0
 17 19  1  0  0  0  0
 19 20  1  0  0  0  0
 19 32  1  0  0  0  0
 20 21  1  0  0  0  0
 20 22  2  0  0  0  0
 22 23  1  0  0  0  0
 23 24  1  0  0  0  0
 23 32  2  0  0  0  0
 24 25  1  0  0  0  0
 24 28  2  0  0  0  0
 25 26  1  0  0  0  0
 25 27  1  0  0  0  0
 28 29  1  0  0  0  0
 29 30  1  0  0  0  0
 29 31  2  0  0  0  0
 31 32  1  0  0  0  0
M  END
> <ConfClashScore>
0 

> <ConfOneFourInteractionScore>
-0.986581 

> <ConfScore>
0.137665 

> <ConfScorePBest>
0.0132445 

> <ConfTolerance>
0.25 

$$$$
ADN.****
  PyMOL2.4          3D                             0

 32 34  0  0  0  0  0  0  0  0999 V2000
   -1.7655   -1.1792   -3.8847 O   0  0  0  1  0  0  0  0  0  0  0  0
   -1.6845   -1.7370   -4.6618 H   0  0  0  1  0  0  0  0  0  0  0  0
   -1.2248    0.1084   -4.1651 C   0  0  0  1  0  0  0  0  0  0  0  0
   -2.0052    0.8404   -4.1635 H   0  0  0  1  0  0  0  0  0  0  0  0
   -0.7429    0.1021   -5.1204 H   0  0  0  1  0  0  0  0  0  0  0  0
   -0.2254    0.4222   -3.0888 C   0  0  0  1  0  0  0  0  0  0  0  0
    0.2657    1.3454   -3.3155 H   0  0  0  1  0  0  0  0  0  0  0  0
   -0.8717    0.4930   -1.7994 O   0  0  0  1  0  0  0  0  0  0  0  0
    0.8026   -0.7212   -2.9511 C   0  0  0  1  0  0  0  0  0  0  0  0
    0.3950   -1.6436   -3.3089 H   0  0  0  1  0  0  0  0  0  0  0  0
    1.9983   -0.4174   -3.6707 O   0  0  0  1  0  0  0  0  0  0  0  0
    2.7577   -0.7450   -3.1833 H   0  0  0  1  0  0  0  0  0  0  0  0
    1.0806   -0.7967   -1.4312 C   0  0  0  1  0  0  0  0  0  0  0  0
    0.8116   -1.7567   -1.0426 H   0  0  0  1  0  0  0  0  0  0  0  0
    2.4590   -0.5385   -1.1534 O   0  0  0  1  0  0  0  0  0  0  0  0
    2.7799    0.1520   -1.7381 H   0  0  0  1  0  0  0  0  0  0  0  0
    0.1839    0.3083   -0.8325 C   0  0  0  1  0  0  0  0  0  0  0  0
    0.7385    1.2141   -0.7029 H   0  0  0  1  0  0  0  0  0  0  0  0
   -0.3659   -0.1162    0.4554 N   0  0  0  1  0  0  0  0  0  0  0  0
   -0.9236   -1.3264    0.7335 C   0  0  0  1  0  0  0  0  0  0  0  0
   -0.8459   -2.1392    0.0893 H   0  0  0  1  0  0  0  0  0  0  0  0
   -1.5631   -1.3899    1.8696 N   0  0  0  1  0  0  0  0  0  0  0  0
   -1.4123   -0.1175    2.3986 C   0  0  0  1  0  0  0  0  0  0  0  0
   -1.8443    0.5057    3.5656 C   0  0  0  1  0  0  0  0  0  0  0  0
   -2.6048   -0.0874    4.5675 N   0  0  0  1  0  0  0  0  0  0  0  0
   -2.9053    0.4439    5.3342 H   0  0  0  1  0  0  0  0  0  0  0  0
   -2.8403   -1.0368    4.5068 H   0  0  0  1  0  0  0  0  0  0  0  0
   -1.5270    1.7853    3.7905 N   0  0  0  1  0  0  0  0  0  0  0  0
   -0.8054    2.4280    2.8586 C   0  0  0  1  0  0  0  0  0  0  0  0
   -0.5829    3.4220    3.0685 H   0  0  0  1  0  0  0  0  0  0  0  0
   -0.3375    1.9660    1.7055 N   0  0  0  1  0  0  0  0  0  0  0  0
   -0.6661    0.6859    1.5260 C   0  0  0  1  0  0  0  0  0  0  0  0
  1  2  1  0  0  0  0
  1  3  1  0  0  0  0
  3  4  1  0  0  0  0
  3  5  1  0  0  0  0
  3  6  1  0  0  0  0
  6  7  1  0  0  0  0
  6  8  1  0  0  0  0
  6  9  1  0  0  0  0
  8 17  1  0  0  0  0
  9 10  1  0  0  0  0
  9 11  1  0  0  0  0
  9 13  1  0  0  0  0
 11 12  1  0  0  0  0
 13 14  1  0  0  0  0
 13 15  1  0  0  0  0
 13 17  1  0  0  0  0
 15 16  1  0  0  0  0
 17 18  1  0  0  0  0
 17 19  1  0  0  0  0
 19 20  1  0  0  0  0
 19 32  1  0  0  0  0
 20 21  1  0  0  0  0
 20 22  2  0  0  0  0
 22 23  1  0  0  0  0
 23 24  1  0  0  0  0
 23 32  2  0  0  0  0
 24 25  1  0  0  0  0
 24 28  2  0  0  0  0
 25 26  1  0  0  0  0
 25 27  1  0  0  0  0
 28 29  1  0  0  0  0
 29 30  1  0  0  0  0
 29 31  2  0  0  0  0
 31 32  1  0  0  0  0
M  END
> <ConfClashScore>
0 

> <ConfOneFourInteractionScore>
-0.976376 

> <ConfScore>
0.138997 

> <ConfScorePBest>
0.0131415 

> <ConfTolerance>
0.25 

$$$$
ADN.****
  PyMOL2.4          3D                             0

 32 34  0  0  0  0  0  0  0  0999 V2000
   -1.5432   -1.7608   -2.7016 O   0  0  0  1  0  0  0  0  0  0  0  0
   -2.0017   -1.4900   -1.9028 H   0  0  0  1  0  0  0  0  0  0  0  0
   -1.4519   -0.6577   -3.5934 C   0  0  0  1  0  0  0  0  0  0  0  0
   -2.3685   -0.1061   -3.5719 H   0  0  0  1  0  0  0  0  0  0  0  0
   -1.2742   -1.0164   -4.5857 H   0  0  0  1  0  0  0  0  0  0  0  0
   -0.3125    0.2441   -3.1732 C   0  0  0  1  0  0  0  0  0  0  0  0
   -0.1745    1.0108   -3.9067 H   0  0  0  1  0  0  0  0  0  0  0  0
   -0.5883    0.8288   -1.8879 O   0  0  0  1  0  0  0  0  0  0  0  0
    0.9889   -0.5788   -3.0069 C   0  0  0  1  0  0  0  0  0  0  0  0
    0.9229   -1.5129   -3.5245 H   0  0  0  1  0  0  0  0  0  0  0  0
    2.1224    0.1499   -3.4809 O   0  0  0  1  0  0  0  0  0  0  0  0
    2.1142    1.0340   -3.1069 H   0  0  0  1  0  0  0  0  0  0  0  0
    1.0637   -0.7900   -1.5050 C   0  0  0  1  0  0  0  0  0  0  0  0
    0.5287   -1.6690   -1.2116 H   0  0  0  1  0  0  0  0  0  0  0  0
    2.4191   -0.8877   -1.0651 O   0  0  0  1  0  0  0  0  0  0  0  0
    2.6703   -1.8122   -1.0040 H   0  0  0  1  0  0  0  0  0  0  0  0
    0.3919    0.4778   -0.9541 C   0  0  0  1  0  0  0  0  0  0  0  0
    1.1092    1.2654   -0.8538 H   0  0  0  1  0  0  0  0  0  0  0  0
   -0.2189    0.2055    0.3461 N   0  0  0  1  0  0  0  0  0  0  0  0
   -0.7736   -0.9650    0.7643 C   0  0  0  1  0  0  0  0  0  0  0  0
   -0.9235   -1.7723    0.1260 H   0  0  0  1  0  0  0  0  0  0  0  0
   -1.1033   -0.9979    2.0269 N   0  0  0  1  0  0  0  0  0  0  0  0
   -0.7292    0.2529    2.4928 C   0  0  0  1  0  0  0  0  0  0  0  0
   -0.8007    0.8894    3.7284 C   0  0  0  1  0  0  0  0  0  0  0  0
   -1.3245    0.2952    4.8461 N   0  0  0  1  0  0  0  0  0  0  0  0
   -1.2854    0.7560    5.7101 H   0  0  0  1  0  0  0  0  0  0  0  0
   -1.7385   -0.5908    4.7817 H   0  0  0  1  0  0  0  0  0  0  0  0
   -0.3435    2.1396    3.8576 N   0  0  0  1  0  0  0  0  0  0  0  0
    0.1600    2.7414    2.7684 C   0  0  0  1  0  0  0  0  0  0  0  0
    0.5010    3.7138    2.9089 H   0  0  0  1  0  0  0  0  0  0  0  0
    0.2814    2.2629    1.5362 N   0  0  0  1  0  0  0  0  0  0  0  0
   -0.1749    1.0123    1.4537 C   0  0  0  1  0  0  0  0  0  0  0  0
  1  2  1  0  0  0  0
  1  3  1  0  0  0  0
  3  4  1  0  0  0  0
  3  5  1  0  0  0  0
  3  6  1  0  0  0  0
  6  7  1  0  0  0  0
  6  8  1  0  0  0  0
  6  9  1  0  0  0  0
  8 17  1  0  0  0  0
  9 10  1  0  0  0  0
  9 11  1  0  0  0  0
  9 13  1  0  0  0  0
 11 12  1  0  0  0  0
 13 14  1  0  0  0  0
 13 15  1  0  0  0  0
 13 17  1  0  0  0  0
 15 16  1  0  0  0  0
 17 18  1  0  0  0  0
 17 19  1  0  0  0  0
 19 20  1  0  0  0  0
 19 32  1  0  0  0  0
 20 21  1  0  0  0  0
 20 22  2  0  0  0  0
 22 23  1  0  0  0  0
 23 24  1  0  0  0  0
 23 32  2  0  0  0  0
 24 25  1  0  0  0  0
 24 28  2  0  0  0  0
 25 26  1  0  0  0  0
 25 27  1  0  0  0  0
 28 29  1  0  0  0  0
 29 30  1  0  0  0  0
 29 31  2  0  0  0  0
 31 32  1  0  0  0  0
M  END
> <ConfClashScore>
0 

> <ConfOneFourInteractionScore>
-0.982042 

> <ConfScore>
0.14009 

> <ConfScorePBest>
0.0130385 

> <ConfTolerance>
0.422332 

$$$$
ADN.****
  PyMOL2.4          3D                             0

 32 34  0  0  0  0  0  0  0  0999 V2000
   -1.7571    1.5909   -4.2595 O   0  0  0  1  0  0  0  0  0  0  0  0
   -2.5452    1.5930   -3.7113 H   0  0  0  1  0  0  0  0  0  0  0  0
   -1.0797    0.3499   -4.1119 C   0  0  0  1  0  0  0  0  0  0  0  0
   -0.6605    0.0595   -5.0525 H   0  0  0  1  0  0  0  0  0  0  0  0
   -1.7726   -0.3966   -3.7839 H   0  0  0  1  0  0  0  0  0  0  0  0
    0.0206    0.4912   -3.0964 C   0  0  0  1  0  0  0  0  0  0  0  0
    0.7347    1.2097   -3.4411 H   0  0  0  1  0  0  0  0  0  0  0  0
   -0.4992    0.8665   -1.8499 O   0  0  0  1  0  0  0  0  0  0  0  0
    0.6952   -0.8629   -2.8333 C   0  0  0  1  0  0  0  0  0  0  0  0
   -0.0108   -1.6644   -2.8970 H   0  0  0  1  0  0  0  0  0  0  0  0
    1.7629   -1.0937   -3.7535 O   0  0  0  1  0  0  0  0  0  0  0  0
    2.5787   -0.7379   -3.3936 H   0  0  0  1  0  0  0  0  0  0  0  0
    1.2138   -0.7065   -1.4279 C   0  0  0  1  0  0  0  0  0  0  0  0
    1.2872   -1.6550   -0.9381 H   0  0  0  1  0  0  0  0  0  0  0  0
    2.4907   -0.0665   -1.4213 O   0  0  0  1  0  0  0  0  0  0  0  0
    2.4312    0.7722   -1.8846 H   0  0  0  1  0  0  0  0  0  0  0  0
    0.1538    0.1754   -0.7612 C   0  0  0  1  0  0  0  0  0  0  0  0
    0.6126    0.8746   -0.0938 H   0  0  0  1  0  0  0  0  0  0  0  0
   -0.8065   -0.6447   -0.0244 N   0  0  0  1  0  0  0  0  0  0  0  0
   -1.5273   -1.7186   -0.4486 C   0  0  0  1  0  0  0  0  0  0  0  0
   -1.4537   -2.0949   -1.4153 H   0  0  0  1  0  0  0  0  0  0  0  0
   -2.3178   -2.2407    0.4494 N   0  0  0  1  0  0  0  0  0  0  0  0
   -2.1000   -1.4544    1.5701 C   0  0  0  1  0  0  0  0  0  0  0  0
   -2.6142   -1.4444    2.8633 C   0  0  0  1  0  0  0  0  0  0  0  0
   -3.5476   -2.3387    3.3002 N   0  0  0  1  0  0  0  0  0  0  0  0
   -3.8982   -2.2745    4.2131 H   0  0  0  1  0  0  0  0  0  0  0  0
   -3.8675   -3.0451    2.7010 H   0  0  0  1  0  0  0  0  0  0  0  0
   -2.1905   -0.5260    3.7383 N   0  0  0  1  0  0  0  0  0  0  0  0
   -1.2827    0.3701    3.3201 C   0  0  0  1  0  0  0  0  0  0  0  0
   -0.9820    1.0698    4.0283 H   0  0  0  1  0  0  0  0  0  0  0  0
   -0.7171    0.4838    2.1246 N   0  0  0  1  0  0  0  0  0  0  0  0
   -1.1581   -0.4561    1.2873 C   0  0  0  1  0  0  0  0  0  0  0  0
  1  2  1  0  0  0  0
  1  3  1  0  0  0  0
  3  4  1  0  0  0  0
  3  5  1  0  0  0  0
  3  6  1  0  0  0  0
  6  7  1  0  0  0  0
  6  8  1  0  0  0  0
  6  9  1  0  0  0  0
  8 17  1  0  0  0  0
  9 10  1  0  0  0  0
  9 11  1  0  0  0  0
  9 13  1  0  0  0  0
 11 12  1  0  0  0  0
 13 14  1  0  0  0  0
 13 15  1  0  0  0  0
 13 17  1  0  0  0  0
 15 16  1  0  0  0  0
 17 18  1  0  0  0  0
 17 19  1  0  0  0  0
 19 20  1  0  0  0  0
 19 32  1  0  0  0  0
 20 21  1  0  0  0  0
 20 22  2  0  0  0  0
 22 23  1  0  0  0  0
 23 24  1  0  0  0  0
 23 32  2  0  0  0  0
 24 25  1  0  0  0  0
 24 28  2  0  0  0  0
 25 26  1  0  0  0  0
 25 27  1  0  0  0  0
 28 29  1  0  0  0  0
 29 30  1  0  0  0  0
 29 31  2  0  0  0  0
 31 32  1  0  0  0  0
M  END
> <ConfClashScore>
0 

> <ConfOneFourInteractionScore>
-0.966157 

> <ConfScore>
0.14622 

> <ConfScorePBest>
0.0129355 

> <ConfTolerance>
0.254719 

$$$$
ADN.****
  PyMOL2.4          3D                             0

 32 34  0  0  0  0  0  0  0  0999 V2000
   -1.9877   -0.5040   -3.6930 O   0  0  0  1  0  0  0  0  0  0  0  0
   -2.6494   -0.0855   -3.1374 H   0  0  0  1  0  0  0  0  0  0  0  0
   -1.0322    0.4645   -4.1047 C   0  0  0  1  0  0  0  0  0  0  0  0
   -1.5174    1.4090   -4.2367 H   0  0  0  1  0  0  0  0  0  0  0  0
   -0.5905    0.1575   -5.0297 H   0  0  0  1  0  0  0  0  0  0  0  0
    0.0444    0.5958   -3.0534 C   0  0  0  1  0  0  0  0  0  0  0  0
    0.7231    1.3746   -3.3325 H   0  0  0  1  0  0  0  0  0  0  0  0
   -0.5184    0.8547   -1.7960 O   0  0  0  1  0  0  0  0  0  0  0  0
    0.7890   -0.7343   -2.8684 C   0  0  0  1  0  0  0  0  0  0  0  0
    0.1305   -1.5669   -3.0022 H   0  0  0  1  0  0  0  0  0  0  0  0
    1.8847   -0.8419   -3.7784 O   0  0  0  1  0  0  0  0  0  0  0  0
    2.1086   -1.7672   -3.9023 H   0  0  0  1  0  0  0  0  0  0  0  0
    1.2723   -0.6475   -1.4445 C   0  0  0  1  0  0  0  0  0  0  0  0
    1.3900   -1.6222   -1.0191 H   0  0  0  1  0  0  0  0  0  0  0  0
    2.5109    0.0596   -1.3661 O   0  0  0  1  0  0  0  0  0  0  0  0
    2.3443    1.0039   -1.4129 H   0  0  0  1  0  0  0  0  0  0  0  0
    0.1525    0.1266   -0.7429 C   0  0  0  1  0  0  0  0  0  0  0  0
    0.5590    0.8021   -0.0194 H   0  0  0  1  0  0  0  0  0  0  0  0
   -0.7735   -0.7939   -0.0850 N   0  0  0  1  0  0  0  0  0  0  0  0
   -1.5413   -0.4282    0.9778 C   0  0  0  1  0  0  0  0  0  0  0  0
   -1.5193    0.5307    1.3799 H   0  0  0  1  0  0  0  0  0  0  0  0
   -2.3072   -1.3716    1.4544 N   0  0  0  1  0  0  0  0  0  0  0  0
   -2.0343   -2.4561    0.6353 C   0  0  0  1  0  0  0  0  0  0  0  0
   -2.4851   -3.7718    0.5849 C   0  0  0  1  0  0  0  0  0  0  0  0
   -3.4077   -4.2798    1.4611 N   0  0  0  1  0  0  0  0  0  0  0  0
   -3.7474   -5.1912    1.3412 H   0  0  0  1  0  0  0  0  0  0  0  0
   -3.7280   -3.7318    2.2078 H   0  0  0  1  0  0  0  0  0  0  0  0
   -2.0116   -4.5995   -0.3528 N   0  0  0  1  0  0  0  0  0  0  0  0
   -1.0962   -4.1212   -1.2104 C   0  0  0  1  0  0  0  0  0  0  0  0
   -0.7500   -4.7966   -1.9214 H   0  0  0  1  0  0  0  0  0  0  0  0
   -0.5734   -2.9028   -1.2733 N   0  0  0  1  0  0  0  0  0  0  0  0
   -1.0799   -2.1076   -0.3299 C   0  0  0  1  0  0  0  0  0  0  0  0
  1  2  1  0  0  0  0
  1  3  1  0  0  0  0
  3  4  1  0  0  0  0
  3  5  1  0  0  0  0
  3  6  1  0  0  0  0
  6  7  1  0  0  0  0
  6  8  1  0  0  0  0
  6  9  1  0  0  0  0
  8 17  1  0  0  0  0
  9 10  1  0  0  0  0
  9 11  1  0  0  0  0
  9 13  1  0  0  0  0
 11 12  1  0  0  0  0
 13 14  1  0  0  0  0
 13 15  1  0  0  0  0
 13 17  1  0  0  0  0
 15 16  1  0  0  0  0
 17 18  1  0  0  0  0
 17 19  1  0  0  0  0
 19 20  1  0  0  0  0
 19 32  1  0  0  0  0
 20 21  1  0  0  0  0
 20 22  2  0  0  0  0
 22 23  1  0  0  0  0
 23 24  1  0  0  0  0
 23 32  2  0  0  0  0
 24 25  1  0  0  0  0
 24 28  2  0  0  0  0
 25 26  1  0  0  0  0
 25 27  1  0  0  0  0
 28 29  1  0  0  0  0
 29 30  1  0  0  0  0
 29 31  2  0  0  0  0
 31 32  1  0  0  0  0
M  END
> <ConfClashScore>
0 

> <ConfOneFourInteractionScore>
-0.983365 

> <ConfScore>
0.14653 

> <ConfScorePBest>
0.0128325 

> <ConfTolerance>
0.34162 

$$$$
ADN.****
  PyMOL2.4          3D                             0

 32 34  0  0  0  0  0  0  0  0999 V2000
   -1.9650   -0.7736   -3.9822 O   0  0  0  1  0  0  0  0  0  0  0  0
   -1.6554   -1.5794   -4.4023 H   0  0  0  1  0  0  0  0  0  0  0  0
   -1.0342    0.2727   -4.2197 C   0  0  0  1  0  0  0  0  0  0  0  0
   -1.5717    1.1906   -4.3357 H   0  0  0  1  0  0  0  0  0  0  0  0
   -0.4974    0.0569   -5.1197 H   0  0  0  1  0  0  0  0  0  0  0  0
   -0.0435    0.4306   -3.0905 C   0  0  0  1  0  0  0  0  0  0  0  0
    0.6274    1.2336   -3.3137 H   0  0  0  1  0  0  0  0  0  0  0  0
   -0.7254    0.6717   -1.8498 O   0  0  0  1  0  0  0  0  0  0  0  0
    0.7139   -0.8442   -2.8709 C   0  0  0  1  0  0  0  0  0  0  0  0
    0.0870   -1.6965   -3.0310 H   0  0  0  1  0  0  0  0  0  0  0  0
    1.8513   -0.9205   -3.7315 O   0  0  0  1  0  0  0  0  0  0  0  0
    2.6035   -0.5023   -3.3062 H   0  0  0  1  0  0  0  0  0  0  0  0
    1.1351   -0.7431   -1.4195 C   0  0  0  1  0  0  0  0  0  0  0  0
    1.0700   -1.6985   -0.9421 H   0  0  0  1  0  0  0  0  0  0  0  0
    2.4717   -0.2497   -1.3186 O   0  0  0  1  0  0  0  0  0  0  0  0
    2.5879    0.4869   -1.9232 H   0  0  0  1  0  0  0  0  0  0  0  0
    0.1600    0.2315   -0.7932 C   0  0  0  1  0  0  0  0  0  0  0  0
    0.6870    1.0670   -0.3820 H   0  0  0  1  0  0  0  0  0  0  0  0
   -0.6065   -0.4311    0.2638 N   0  0  0  1  0  0  0  0  0  0  0  0
   -0.8913   -1.7582    0.3671 C   0  0  0  1  0  0  0  0  0  0  0  0
   -0.6302   -2.4450   -0.3689 H   0  0  0  1  0  0  0  0  0  0  0  0
   -1.5168   -2.1037    1.4594 N   0  0  0  1  0  0  0  0  0  0  0  0
   -1.6534   -0.9081    2.1473 C   0  0  0  1  0  0  0  0  0  0  0  0
   -2.2261   -0.5484    3.3637 C   0  0  0  1  0  0  0  0  0  0  0  0
   -2.7612   -1.4763    4.2506 N   0  0  0  1  0  0  0  0  0  0  0  0
   -2.8288   -2.4191    3.9918 H   0  0  0  1  0  0  0  0  0  0  0  0
   -3.0708   -1.1874    5.1344 H   0  0  0  1  0  0  0  0  0  0  0  0
   -2.1977    0.7293    3.7579 N   0  0  0  1  0  0  0  0  0  0  0  0
   -1.6208    1.6267    2.9431 C   0  0  0  1  0  0  0  0  0  0  0  0
   -1.6226    2.6095    3.2832 H   0  0  0  1  0  0  0  0  0  0  0  0
   -1.0483    1.4290    1.7619 N   0  0  0  1  0  0  0  0  0  0  0  0
   -1.0882    0.1425    1.4121 C   0  0  0  1  0  0  0  0  0  0  0  0
  1  2  1  0  0  0  0
  1  3  1  0  0  0  0
  3  4  1  0  0  0  0
  3  5  1  0  0  0  0
  3  6  1  0  0  0  0
  6  7  1  0  0  0  0
  6  8  1  0  0  0  0
  6  9  1  0  0  0  0
  8 17  1  0  0  0  0
  9 10  1  0  0  0  0
  9 11  1  0  0  0  0
  9 13  1  0  0  0  0
 11 12  1  0  0  0  0
 13 14  1  0  0  0  0
 13 15  1  0  0  0  0
 13 17  1  0  0  0  0
 15 16  1  0  0  0  0
 17 18  1  0  0  0  0
 17 19  1  0  0  0  0
 19 20  1  0  0  0  0
 19 32  1  0  0  0  0
 20 21  1  0  0  0  0
 20 22  2  0  0  0  0
 22 23  1  0  0  0  0
 23 24  1  0  0  0  0
 23 32  2  0  0  0  0
 24 25  1  0  0  0  0
 24 28  2  0  0  0  0
 25 26  1  0  0  0  0
 25 27  1  0  0  0  0
 28 29  1  0  0  0  0
 29 30  1  0  0  0  0
 29 31  2  0  0  0  0
 31 32  1  0  0  0  0
M  END
> <ConfClashScore>
0 

> <ConfOneFourInteractionScore>
-0.983365 

> <ConfScore>
0.146721 

> <ConfScorePBest>
0.0127295 

> <ConfTolerance>
0.419818 

$$$$
ADN.****
  PyMOL2.4          3D                             0

 32 34  0  0  0  0  0  0  0  0999 V2000
   -1.9235    1.4024   -4.2847 O   0  0  0  1  0  0  0  0  0  0  0  0
   -2.8342    1.1021   -4.2382 H   0  0  0  1  0  0  0  0  0  0  0  0
   -1.0506    0.2825   -4.2171 C   0  0  0  1  0  0  0  0  0  0  0  0
   -0.5118    0.1955   -5.1375 H   0  0  0  1  0  0  0  0  0  0  0  0
   -1.6240   -0.6060   -4.0536 H   0  0  0  1  0  0  0  0  0  0  0  0
   -0.0744    0.4665   -3.0793 C   0  0  0  1  0  0  0  0  0  0  0  0
    0.5594    1.3039   -3.2844 H   0  0  0  1  0  0  0  0  0  0  0  0
   -0.7733    0.6534   -1.8388 O   0  0  0  1  0  0  0  0  0  0  0  0
    0.7408   -0.7752   -2.8775 C   0  0  0  1  0  0  0  0  0  0  0  0
    0.1554   -1.6529   -3.0563 H   0  0  0  1  0  0  0  0  0  0  0  0
    1.8850   -0.7829   -3.7323 O   0  0  0  1  0  0  0  0  0  0  0  0
    2.6587   -1.0486   -3.2298 H   0  0  0  1  0  0  0  0  0  0  0  0
    1.1491   -0.6803   -1.4220 C   0  0  0  1  0  0  0  0  0  0  0  0
    1.1264   -1.6460   -0.9618 H   0  0  0  1  0  0  0  0  0  0  0  0
    2.4606   -0.1268   -1.3044 O   0  0  0  1  0  0  0  0  0  0  0  0
    2.6239    0.4694   -2.0388 H   0  0  0  1  0  0  0  0  0  0  0  0
    0.1262    0.2364   -0.7847 C   0  0  0  1  0  0  0  0  0  0  0  0
    0.6113    1.0882   -0.3557 H   0  0  0  1  0  0  0  0  0  0  0  0
   -0.6135   -0.4796    0.2552 N   0  0  0  1  0  0  0  0  0  0  0  0
   -0.6984   -0.1902    1.5825 C   0  0  0  1  0  0  0  0  0  0  0  0
   -0.3114    0.6849    1.9899 H   0  0  0  1  0  0  0  0  0  0  0  0
   -1.3020   -1.0939    2.3056 N   0  0  0  1  0  0  0  0  0  0  0  0
   -1.6578   -2.0643    1.3818 C   0  0  0  1  0  0  0  0  0  0  0  0
   -2.3107   -3.2905    1.4653 C   0  0  0  1  0  0  0  0  0  0  0  0
   -2.7782   -3.8097    2.6438 N   0  0  0  1  0  0  0  0  0  0  0  0
   -3.2054   -4.6916    2.6554 H   0  0  0  1  0  0  0  0  0  0  0  0
   -2.6853   -3.2992    3.4751 H   0  0  0  1  0  0  0  0  0  0  0  0
   -2.5037   -4.0156    0.3582 N   0  0  0  1  0  0  0  0  0  0  0  0
   -2.0391   -3.5276   -0.8028 C   0  0  0  1  0  0  0  0  0  0  0  0
   -2.2051   -4.1226   -1.6394 H   0  0  0  1  0  0  0  0  0  0  0  0
   -1.3963   -2.3881   -1.0272 N   0  0  0  1  0  0  0  0  0  0  0  0
   -1.2348   -1.6917    0.0988 C   0  0  0  1  0  0  0  0  0  0  0  0
  1  2  1  0  0  0  0
  1  3  1  0  0  0  0
  3  4  1  0  0  0  0
  3  5  1  0  0  0  0
  3  6  1  0  0  0  0
  6  7  1  0  0  0  0
  6  8  1  0  0  0  0
  6  9  1  0  0  0  0
  8 17  1  0  0  0  0
  9 10  1  0  0  0  0
  9 11  1  0  0  0  0
  9 13  1  0  0  0  0
 11 12  1  0  0  0  0
 13 14  1  0  0  0  0
 13 15  1  0  0  0  0
 13 17  1  0  0  0  0
 15 16  1  0  0  0  0
 17 18  1  0  0  0  0
 17 19  1  0  0  0  0
 19 20  1  0  0  0  0
 19 32  1  0  0  0  0
 20 21  1  0  0  0  0
 20 22  2  0  0  0  0
 22 23  1  0  0  0  0
 23 24  1  0  0  0  0
 23 32  2  0  0  0  0
 24 25  1  0  0  0  0
 24 28  2  0  0  0  0
 25 26  1  0  0  0  0
 25 27  1  0  0  0  0
 28 29  1  0  0  0  0
 29 30  1  0  0  0  0
 29 31  2  0  0  0  0
 31 32  1  0  0  0  0
M  END
> <ConfClashScore>
0 

> <ConfOneFourInteractionScore>
-0.970688 

> <ConfScore>
0.147293 

> <ConfScorePBest>
0.0126265 

> <ConfTolerance>
0.449418 

$$$$
ADN.****
  PyMOL2.4          3D                             0

 32 34  0  0  0  0  0  0  0  0999 V2000
   -2.1753    1.2004   -4.2280 O   0  0  0  1  0  0  0  0  0  0  0  0
   -2.8737    1.0646   -3.5834 H   0  0  0  1  0  0  0  0  0  0  0  0
   -1.2598    0.1159   -4.1705 C   0  0  0  1  0  0  0  0  0  0  0  0
   -0.7865   -0.0008   -5.1231 H   0  0  0  1  0  0  0  0  0  0  0  0
   -1.7866   -0.7814   -3.9211 H   0  0  0  1  0  0  0  0  0  0  0  0
   -0.2010    0.3936   -3.1094 C   0  0  0  1  0  0  0  0  0  0  0  0
    0.3333    1.2853   -3.3627 H   0  0  0  1  0  0  0  0  0  0  0  0
   -0.8083    0.5175   -1.8050 O   0  0  0  1  0  0  0  0  0  0  0  0
    0.7666   -0.8023   -2.9806 C   0  0  0  1  0  0  0  0  0  0  0  0
    0.3003   -1.7058   -3.3138 H   0  0  0  1  0  0  0  0  0  0  0  0
    1.9577   -0.5742   -3.7352 O   0  0  0  1  0  0  0  0  0  0  0  0
    2.6184   -0.1615   -3.1742 H   0  0  0  1  0  0  0  0  0  0  0  0
    1.0802   -0.8718   -1.4674 C   0  0  0  1  0  0  0  0  0  0  0  0
    0.7699   -1.8102   -1.0575 H   0  0  0  1  0  0  0  0  0  0  0  0
    2.4761   -0.6857   -1.2292 O   0  0  0  1  0  0  0  0  0  0  0  0
    2.6998    0.2410   -1.3424 H   0  0  0  1  0  0  0  0  0  0  0  0
    0.2610    0.2887   -0.8628 C   0  0  0  1  0  0  0  0  0  0  0  0
    0.8671    1.1646   -0.7613 H   0  0  0  1  0  0  0  0  0  0  0  0
   -0.2765   -0.0870    0.4439 N   0  0  0  1  0  0  0  0  0  0  0  0
   -0.8849   -1.2575    0.7793 C   0  0  0  1  0  0  0  0  0  0  0  0
   -1.0891   -2.0014    0.0818 H   0  0  0  1  0  0  0  0  0  0  0  0
   -1.1925   -1.3761    2.0423 N   0  0  0  1  0  0  0  0  0  0  0  0
   -0.7439   -0.1883    2.5986 C   0  0  0  1  0  0  0  0  0  0  0  0
   -0.7587    0.3484    3.8826 C   0  0  0  1  0  0  0  0  0  0  0  0
   -1.3062   -0.3509    4.9257 N   0  0  0  1  0  0  0  0  0  0  0  0
   -1.7142   -1.2277    4.7673 H   0  0  0  1  0  0  0  0  0  0  0  0
   -1.2897    0.0257    5.8303 H   0  0  0  1  0  0  0  0  0  0  0  0
   -0.2334    1.5587    4.1014 N   0  0  0  1  0  0  0  0  0  0  0  0
    0.2813    2.2204    3.0529 C   0  0  0  1  0  0  0  0  0  0  0  0
    0.6760    3.1593    3.2633 H   0  0  0  1  0  0  0  0  0  0  0  0
    0.3544    1.8382    1.7839 N   0  0  0  1  0  0  0  0  0  0  0  0
   -0.1693    0.6237    1.6115 C   0  0  0  1  0  0  0  0  0  0  0  0
  1  2  1  0  0  0  0
  1  3  1  0  0  0  0
  3  4  1  0  0  0  0
  3  5  1  0  0  0  0
  3  6  1  0  0  0  0
  6  7  1  0  0  0  0
  6  8  1  0  0  0  0
  6  9  1  0  0  0  0
  8 17  1  0  0  0  0
  9 10  1  0  0  0  0
  9 11  1  0  0  0  0
  9 13  1  0  0  0  0
 11 12  1  0  0  0  0
 13 14  1  0  0  0  0
 13 15  1  0  0  0  0
 13 17  1  0  0  0  0
 15 16  1  0  0  0  0
 17 18  1  0  0  0  0
 17 19  1  0  0  0  0
 19 20  1  0  0  0  0
 19 32  1  0  0  0  0
 20 21  1  0  0  0  0
 20 22  2  0  0  0  0
 22 23  1  0  0  0  0
 23 24  1  0  0  0  0
 23 32  2  0  0  0  0
 24 25  1  0  0  0  0
 24 28  2  0  0  0  0
 25 26  1  0  0  0  0
 25 27  1  0  0  0  0
 28 29  1  0  0  0  0
 29 30  1  0  0  0  0
 29 31  2  0  0  0  0
 31 32  1  0  0  0  0
M  END
> <ConfClashScore>
0 

> <ConfOneFourInteractionScore>
-0.966157 

> <ConfScore>
0.147778 

> <ConfScorePBest>
0.0125235 

> <ConfTolerance>
0.25 

$$$$
ADN.****
  PyMOL2.4          3D                             0

 32 34  0  0  0  0  0  0  0  0999 V2000
   -2.0791    1.1064   -4.2337 O   0  0  0  1  0  0  0  0  0  0  0  0
   -2.8974    0.7638   -3.8669 H   0  0  0  1  0  0  0  0  0  0  0  0
   -1.0835    0.0922   -4.2018 C   0  0  0  1  0  0  0  0  0  0  0  0
   -0.5650    0.0734   -5.1375 H   0  0  0  1  0  0  0  0  0  0  0  0
   -1.5478   -0.8566   -4.0315 H   0  0  0  1  0  0  0  0  0  0  0  0
   -0.1077    0.3761   -3.0959 C   0  0  0  1  0  0  0  0  0  0  0  0
    0.4535    1.2560   -3.3319 H   0  0  0  1  0  0  0  0  0  0  0  0
   -0.7974    0.5350   -1.8372 O   0  0  0  1  0  0  0  0  0  0  0  0
    0.8339   -0.8278   -2.8792 C   0  0  0  1  0  0  0  0  0  0  0  0
    0.3788   -1.7329   -3.2235 H   0  0  0  1  0  0  0  0  0  0  0  0
    2.0747   -0.6297   -3.5584 O   0  0  0  1  0  0  0  0  0  0  0  0
    2.2086    0.3080   -3.7143 H   0  0  0  1  0  0  0  0  0  0  0  0
    1.0468   -0.8684   -1.3475 C   0  0  0  1  0  0  0  0  0  0  0  0
    0.6983   -1.7942   -0.9396 H   0  0  0  1  0  0  0  0  0  0  0  0
    2.4265   -0.6934   -1.0219 O   0  0  0  1  0  0  0  0  0  0  0  0
    2.8567   -0.1842   -1.7128 H   0  0  0  1  0  0  0  0  0  0  0  0
    0.2049    0.3142   -0.8222 C   0  0  0  1  0  0  0  0  0  0  0  0
    0.8144    1.1850   -0.6992 H   0  0  0  1  0  0  0  0  0  0  0  0
   -0.4234   -0.0280    0.4572 N   0  0  0  1  0  0  0  0  0  0  0  0
   -1.4721   -0.8724    0.6571 C   0  0  0  1  0  0  0  0  0  0  0  0
   -1.9381   -1.3796   -0.1222 H   0  0  0  1  0  0  0  0  0  0  0  0
   -1.8490   -0.9976    1.9005 N   0  0  0  1  0  0  0  0  0  0  0  0
   -0.9724   -0.1742    2.5899 C   0  0  0  1  0  0  0  0  0  0  0  0
   -0.8135    0.1689    3.9293 C   0  0  0  1  0  0  0  0  0  0  0  0
   -1.5443   -0.3776    4.9969 N   0  0  0  1  0  0  0  0  0  0  0  0
   -1.2471   -0.2321    5.9194 H   0  0  0  1  0  0  0  0  0  0  0  0
   -2.3513   -0.9045    4.8194 H   0  0  0  1  0  0  0  0  0  0  0  0
    0.1550    1.0197    4.2854 N   0  0  0  1  0  0  0  0  0  0  0  0
    0.9358    1.5253    3.3176 C   0  0  0  1  0  0  0  0  0  0  0  0
    1.6740    2.1859    3.6343 H   0  0  0  1  0  0  0  0  0  0  0  0
    0.8931    1.2958    2.0109 N   0  0  0  1  0  0  0  0  0  0  0  0
   -0.0774    0.4352    1.7004 C   0  0  0  1  0  0  0  0  0  0  0  0
  1  2  1  0  0  0  0
  1  3  1  0  0  0  0
  3  4  1  0  0  0  0
  3  5  1  0  0  0  0
  3  6  1  0  0  0  0
  6  7  1  0  0  0  0
  6  8  1  0  0  0  0
  6  9  1  0  0  0  0
  8 17  1  0  0  0  0
  9 10  1  0  0  0  0
  9 11  1  0  0  0  0
  9 13  1  0  0  0  0
 11 12  1  0  0  0  0
 13 14  1  0  0  0  0
 13 15  1  0  0  0  0
 13 17  1  0  0  0  0
 15 16  1  0  0  0  0
 17 18  1  0  0  0  0
 17 19  1  0  0  0  0
 19 20  1  0  0  0  0
 19 32  1  0  0  0  0
 20 21  1  0  0  0  0
 20 22  2  0  0  0  0
 22 23  1  0  0  0  0
 23 24  1  0  0  0  0
 23 32  2  0  0  0  0
 24 25  1  0  0  0  0
 24 28  2  0  0  0  0
 25 26  1  0  0  0  0
 25 27  1  0  0  0  0
 28 29  1  0  0  0  0
 29 30  1  0  0  0  0
 29 31  2  0  0  0  0
 31 32  1  0  0  0  0
M  END
> <ConfClashScore>
0 

> <ConfOneFourInteractionScore>
-0.975227 

> <ConfScore>
0.147806 

> <ConfScorePBest>
0.0124205 

> <ConfTolerance>
0.25 

$$$$
ADN.****
  PyMOL2.4          3D                             0

 32 34  0  0  0  0  0  0  0  0999 V2000
   -2.7228    0.2422   -3.2118 O   0  0  0  1  0  0  0  0  0  0  0  0
   -3.3522   -0.0580   -3.8716 H   0  0  0  1  0  0  0  0  0  0  0  0
   -1.5458   -0.5321   -3.2969 C   0  0  0  1  0  0  0  0  0  0  0  0
   -1.5443   -1.0344   -4.2417 H   0  0  0  1  0  0  0  0  0  0  0  0
   -1.5641   -1.2550   -2.5082 H   0  0  0  1  0  0  0  0  0  0  0  0
   -0.2607    0.2604   -3.1813 C   0  0  0  1  0  0  0  0  0  0  0  0
   -0.1343    0.8652   -4.0549 H   0  0  0  1  0  0  0  0  0  0  0  0
   -0.2691    1.0864   -1.9774 O   0  0  0  1  0  0  0  0  0  0  0  0
    0.9219   -0.6619   -2.9930 C   0  0  0  1  0  0  0  0  0  0  0  0
    0.7703   -1.5879   -3.5073 H   0  0  0  1  0  0  0  0  0  0  0  0
    2.1257   -0.0497   -3.4582 O   0  0  0  1  0  0  0  0  0  0  0  0
    2.4183    0.6064   -2.8215 H   0  0  0  1  0  0  0  0  0  0  0  0
    0.9686   -0.8791   -1.4747 C   0  0  0  1  0  0  0  0  0  0  0  0
    0.3690   -1.7172   -1.1865 H   0  0  0  1  0  0  0  0  0  0  0  0
    2.3096   -1.0747   -1.0237 O   0  0  0  1  0  0  0  0  0  0  0  0
    2.9169   -0.6364   -1.6243 H   0  0  0  1  0  0  0  0  0  0  0  0
    0.3858    0.4332   -0.9268 C   0  0  0  1  0  0  0  0  0  0  0  0
    1.1739    1.0512   -0.5500 H   0  0  0  1  0  0  0  0  0  0  0  0
   -0.5651    0.1441    0.1485 N   0  0  0  1  0  0  0  0  0  0  0  0
   -1.7454   -0.5243    0.0355 C   0  0  0  1  0  0  0  0  0  0  0  0
   -2.0497   -0.9760   -0.8505 H   0  0  0  1  0  0  0  0  0  0  0  0
   -2.4666   -0.5558    1.1230 N   0  0  0  1  0  0  0  0  0  0  0  0
   -1.6992    0.1430    2.0418 C   0  0  0  1  0  0  0  0  0  0  0  0
   -1.8666    0.4950    3.3779 C   0  0  0  1  0  0  0  0  0  0  0  0
   -2.9755    0.1553    4.1070 N   0  0  0  1  0  0  0  0  0  0  0  0
   -3.7052   -0.3446    3.6850 H   0  0  0  1  0  0  0  0  0  0  0  0
   -3.0392    0.4121    5.0506 H   0  0  0  1  0  0  0  0  0  0  0  0
   -0.9155    1.1977    4.0026 N   0  0  0  1  0  0  0  0  0  0  0  0
    0.1713    1.5509    3.2982 C   0  0  0  1  0  0  0  0  0  0  0  0
    0.8855    2.0997    3.8181 H   0  0  0  1  0  0  0  0  0  0  0  0
    0.4574    1.2943    2.0276 N   0  0  0  1  0  0  0  0  0  0  0  0
   -0.5098    0.5836    1.4460 C   0  0  0  1  0  0  0  0  0  0  0  0
  1  2  1  0  0  0  0
  1  3  1  0  0  0  0
  3  4  1  0  0  0  0
  3  5  1  0  0  0  0
  3  6  1  0  0  0  0
  6  7  1  0  0  0  0
  6  8  1  0  0  0  0
  6  9  1  0  0  0  0
  8 17  1  0  0  0  0
  9 10  1  0  0  0  0
  9 11  1  0  0  0  0
  9 13  1  0  0  0  0
 11 12  1  0  0  0  0
 13 14  1  0  0  0  0
 13 15  1  0  0  0  0
 13 17  1  0  0  0  0
 15 16  1  0  0  0  0
 17 18  1  0  0  0  0
 17 19  1  0  0  0  0
 19 20  1  0  0  0  0
 19 32  1  0  0  0  0
 20 21  1  0  0  0  0
 20 22  2  0  0  0  0
 22 23  1  0  0  0  0
 23 24  1  0  0  0  0
 23 32  2  0  0  0  0
 24 25  1  0  0  0  0
 24 28  2  0  0  0  0
 25 26  1  0  0  0  0
 25 27  1  0  0  0  0
 28 29  1  0  0  0  0
 29 30  1  0  0  0  0
 29 31  2  0  0  0  0
 31 32  1  0  0  0  0
M  END
> <ConfClashScore>
0 

> <ConfOneFourInteractionScore>
-0.975227 

> <ConfScore>
0.148425 

> <ConfScorePBest>
0.0123175 

> <ConfTolerance>
0.396753 

$$$$
ADN.****
  PyMOL2.4          3D                             0

 32 34  0  0  0  0  0  0  0  0999 V2000
   -1.8348   -1.5152   -2.7551 O   0  0  0  1  0  0  0  0  0  0  0  0
   -2.7131   -1.3664   -2.3973 H   0  0  0  1  0  0  0  0  0  0  0  0
   -1.4869   -0.4429   -3.6191 C   0  0  0  1  0  0  0  0  0  0  0  0
   -2.3008    0.2510   -3.6500 H   0  0  0  1  0  0  0  0  0  0  0  0
   -1.3139   -0.8344   -4.5998 H   0  0  0  1  0  0  0  0  0  0  0  0
   -0.2443    0.2870   -3.1621 C   0  0  0  1  0  0  0  0  0  0  0  0
    0.0068    1.0452   -3.8741 H   0  0  0  1  0  0  0  0  0  0  0  0
   -0.4596    0.8730   -1.8659 O   0  0  0  1  0  0  0  0  0  0  0  0
    0.9322   -0.7071   -3.0004 C   0  0  0  1  0  0  0  0  0  0  0  0
    0.7496   -1.6115   -3.5424 H   0  0  0  1  0  0  0  0  0  0  0  0
    2.1604   -0.1265   -3.4415 O   0  0  0  1  0  0  0  0  0  0  0  0
    2.1281    0.8248   -3.3170 H   0  0  0  1  0  0  0  0  0  0  0  0
    0.9541   -0.9617   -1.5035 C   0  0  0  1  0  0  0  0  0  0  0  0
    0.3015   -1.7674   -1.2393 H   0  0  0  1  0  0  0  0  0  0  0  0
    2.2770   -1.2511   -1.0493 O   0  0  0  1  0  0  0  0  0  0  0  0
    2.7655   -0.4316   -0.9423 H   0  0  0  1  0  0  0  0  0  0  0  0
    0.4497    0.3716   -0.9291 C   0  0  0  1  0  0  0  0  0  0  0  0
    1.2645    1.0530   -0.7998 H   0  0  0  1  0  0  0  0  0  0  0  0
   -0.2136    0.1531    0.3578 N   0  0  0  1  0  0  0  0  0  0  0  0
   -1.4955    0.4694    0.6886 C   0  0  0  1  0  0  0  0  0  0  0  0
   -2.1301    0.9798    0.0418 H   0  0  0  1  0  0  0  0  0  0  0  0
   -1.8683    0.0839    1.8786 N   0  0  0  1  0  0  0  0  0  0  0  0
   -0.7433   -0.5509    2.3814 C   0  0  0  1  0  0  0  0  0  0  0  0
   -0.4405   -1.1794    3.5857 C   0  0  0  1  0  0  0  0  0  0  0  0
   -1.3742   -1.3688    4.5914 N   0  0  0  1  0  0  0  0  0  0  0  0
   -2.2834   -1.0177    4.4884 H   0  0  0  1  0  0  0  0  0  0  0  0
   -1.1256   -1.8539    5.4058 H   0  0  0  1  0  0  0  0  0  0  0  0
    0.7744   -1.7068    3.7713 N   0  0  0  1  0  0  0  0  0  0  0  0
    1.6687   -1.5927    2.7767 C   0  0  0  1  0  0  0  0  0  0  0  0
    2.6025   -2.0117    2.9612 H   0  0  0  1  0  0  0  0  0  0  0  0
    1.5221   -1.0175    1.5895 N   0  0  0  1  0  0  0  0  0  0  0  0
    0.2953   -0.5154    1.4413 C   0  0  0  1  0  0  0  0  0  0  0  0
  1  2  1  0  0  0  0
  1  3  1  0  0  0  0
  3  4  1  0  0  0  0
  3  5  1  0  0  0  0
  3  6  1  0  0  0  0
  6  7  1  0  0  0  0
  6  8  1  0  0  0  0
  6  9  1  0  0  0  0
  8 17  1  0  0  0  0
  9 10  1  0  0  0  0
  9 11  1  0  0  0  0
  9 13  1  0  0  0  0
 11 12  1  0  0  0  0
 13 14  1  0  0  0  0
 13 15  1  0  0  0  0
 13 17  1  0  0  0  0
 15 16  1  0  0  0  0
 17 18  1  0  0  0  0
 17 19  1  0  0  0  0
 19 20  1  0  0  0  0
 19 32  1  0  0  0  0
 20 21  1  0  0  0  0
 20 22  2  0  0  0  0
 22 23  1  0  0  0  0
 23 24  1  0  0  0  0
 23 32  2  0  0  0  0
 24 25  1  0  0  0  0
 24 28  2  0  0  0  0
 25 26  1  0  0  0  0
 25 27  1  0  0  0  0
 28 29  1  0  0  0  0
 29 30  1  0  0  0  0
 29 31  2  0  0  0  0
 31 32  1  0  0  0  0
M  END
> <ConfClashScore>
0 

> <ConfOneFourInteractionScore>
-0.986581 

> <ConfScore>
0.149961 

> <ConfScorePBest>
0.0122145 

> <ConfTolerance>
0.384201 

$$$$
ADN.****
  PyMOL2.4          3D                             0

 32 34  0  0  0  0  0  0  0  0999 V2000
   -1.6377    1.6537   -4.3611 O   0  0  0  1  0  0  0  0  0  0  0  0
   -2.2482    1.8873   -3.6580 H   0  0  0  1  0  0  0  0  0  0  0  0
   -1.0846    0.3701   -4.1024 C   0  0  0  1  0  0  0  0  0  0  0  0
   -0.6989   -0.0409   -5.0119 H   0  0  0  1  0  0  0  0  0  0  0  0
   -1.8462   -0.2737   -3.7143 H   0  0  0  1  0  0  0  0  0  0  0  0
    0.0259    0.4909   -3.0988 C   0  0  0  1  0  0  0  0  0  0  0  0
    0.7464    1.2011   -3.4472 H   0  0  0  1  0  0  0  0  0  0  0  0
   -0.4764    0.8673   -1.8454 O   0  0  0  1  0  0  0  0  0  0  0  0
    0.6840   -0.8737   -2.8488 C   0  0  0  1  0  0  0  0  0  0  0  0
   -0.0338   -1.6650   -2.9093 H   0  0  0  1  0  0  0  0  0  0  0  0
    1.7397   -1.1151   -3.7811 O   0  0  0  1  0  0  0  0  0  0  0  0
    2.5253   -0.6365   -3.5066 H   0  0  0  1  0  0  0  0  0  0  0  0
    1.2186   -0.7315   -1.4479 C   0  0  0  1  0  0  0  0  0  0  0  0
    1.2836   -1.6833   -0.9634 H   0  0  0  1  0  0  0  0  0  0  0  0
    2.5056   -0.1087   -1.4510 O   0  0  0  1  0  0  0  0  0  0  0  0
    2.4077    0.8283   -1.6354 H   0  0  0  1  0  0  0  0  0  0  0  0
    0.1777    0.1618   -0.7666 C   0  0  0  1  0  0  0  0  0  0  0  0
    0.6528    0.8514   -0.1005 H   0  0  0  1  0  0  0  0  0  0  0  0
   -0.7874   -0.6490   -0.0235 N   0  0  0  1  0  0  0  0  0  0  0  0
   -2.0523   -0.9756   -0.4059 C   0  0  0  1  0  0  0  0  0  0  0  0
   -2.4605   -0.6659   -1.3109 H   0  0  0  1  0  0  0  0  0  0  0  0
   -2.7144   -1.7070    0.4489 N   0  0  0  1  0  0  0  0  0  0  0  0
   -1.8125   -1.8915    1.4853 C   0  0  0  1  0  0  0  0  0  0  0  0
   -1.8616   -2.5551    2.7077 C   0  0  0  1  0  0  0  0  0  0  0  0
   -2.9677   -3.2345    3.1454 N   0  0  0  1  0  0  0  0  0  0  0  0
   -2.9472   -3.7006    4.0073 H   0  0  0  1  0  0  0  0  0  0  0  0
   -3.7795   -3.2545    2.5968 H   0  0  0  1  0  0  0  0  0  0  0  0
   -0.7925   -2.5443    3.5113 N   0  0  0  1  0  0  0  0  0  0  0  0
    0.2947   -1.8710    3.1034 C   0  0  0  1  0  0  0  0  0  0  0  0
    1.1030   -1.8830    3.7578 H   0  0  0  1  0  0  0  0  0  0  0  0
    0.4776   -1.1918    1.9777 N   0  0  0  1  0  0  0  0  0  0  0  0
   -0.6062   -1.2372    1.2016 C   0  0  0  1  0  0  0  0  0  0  0  0
  1  2  1  0  0  0  0
  1  3  1  0  0  0  0
  3  4  1  0  0  0  0
  3  5  1  0  0  0  0
  3  6  1  0  0  0  0
  6  7  1  0  0  0  0
  6  8  1  0  0  0  0
  6  9  1  0  0  0  0
  8 17  1  0  0  0  0
  9 10  1  0  0  0  0
  9 11  1  0  0  0  0
  9 13  1  0  0  0  0
 11 12  1  0  0  0  0
 13 14  1  0  0  0  0
 13 15  1  0  0  0  0
 13 17  1  0  0  0  0
 15 16  1  0  0  0  0
 17 18  1  0  0  0  0
 17 19  1  0  0  0  0
 19 20  1  0  0  0  0
 19 32  1  0  0  0  0
 20 21  1  0  0  0  0
 20 22  2  0  0  0  0
 22 23  1  0  0  0  0
 23 24  1  0  0  0  0
 23 32  2  0  0  0  0
 24 25  1  0  0  0  0
 24 28  2  0  0  0  0
 25 26  1  0  0  0  0
 25 27  1  0  0  0  0
 28 29  1  0  0  0  0
 29 30  1  0  0  0  0
 29 31  2  0  0  0  0
 31 32  1  0  0  0  0
M  END
> <ConfClashScore>
0 

> <ConfOneFourInteractionScore>
-0.970696 

> <ConfScore>
0.150775 

> <ConfScorePBest>
0.0121115 

> <ConfTolerance>
0.25 

$$$$
ADN.****
  PyMOL2.4          3D                             0

 32 34  0  0  0  0  0  0  0  0999 V2000
   -2.0929   -0.5677   -3.2348 O   0  0  0  1  0  0  0  0  0  0  0  0
   -3.0028   -0.3094   -3.3993 H   0  0  0  1  0  0  0  0  0  0  0  0
   -1.2163    0.3010   -3.9459 C   0  0  0  1  0  0  0  0  0  0  0  0
   -1.6877    1.2490   -4.1007 H   0  0  0  1  0  0  0  0  0  0  0  0
   -0.9624   -0.1303   -4.8916 H   0  0  0  1  0  0  0  0  0  0  0  0
    0.0318    0.4753   -3.1054 C   0  0  0  1  0  0  0  0  0  0  0  0
    0.7100    1.1348   -3.6055 H   0  0  0  1  0  0  0  0  0  0  0  0
   -0.3110    1.0037   -1.8111 O   0  0  0  1  0  0  0  0  0  0  0  0
    0.6701   -0.8247   -2.8716 C   0  0  0  1  0  0  0  0  0  0  0  0
   -0.0499   -1.6133   -2.9398 H   0  0  0  1  0  0  0  0  0  0  0  0
    1.7132   -1.0479   -3.8215 O   0  0  0  1  0  0  0  0  0  0  0  0
    2.4995   -0.5670   -3.5529 H   0  0  0  1  0  0  0  0  0  0  0  0
    1.2402   -0.7440   -1.4631 C   0  0  0  1  0  0  0  0  0  0  0  0
    1.2874   -1.7086   -1.0026 H   0  0  0  1  0  0  0  0  0  0  0  0
    2.5385   -0.1485   -1.4563 O   0  0  0  1  0  0  0  0  0  0  0  0
    2.4543    0.8024   -1.3548 H   0  0  0  1  0  0  0  0  0  0  0  0
    0.2067    0.1542   -0.7808 C   0  0  0  1  0  0  0  0  0  0  0  0
    0.6696    0.7388   -0.0134 H   0  0  0  1  0  0  0  0  0  0  0  0
   -0.8591   -0.6484   -0.2032 N   0  0  0  1  0  0  0  0  0  0  0  0
   -2.1700   -0.6587   -0.5697 C   0  0  0  1  0  0  0  0  0  0  0  0
   -2.5398   -0.0664   -1.3404 H   0  0  0  1  0  0  0  0  0  0  0  0
   -2.9279   -1.4680    0.1191 N   0  0  0  1  0  0  0  0  0  0  0  0
   -2.0472   -2.0538    1.0151 C   0  0  0  1  0  0  0  0  0  0  0  0
   -2.1811   -2.9911    2.0351 C   0  0  0  1  0  0  0  0  0  0  0  0
   -3.3973   -3.5399    2.3205 N   0  0  0  1  0  0  0  0  0  0  0  0
   -3.4709   -4.2411    3.0011 H   0  0  0  1  0  0  0  0  0  0  0  0
   -4.1972   -3.2329    1.8447 H   0  0  0  1  0  0  0  0  0  0  0  0
   -1.1076   -3.3582    2.7433 N   0  0  0  1  0  0  0  0  0  0  0  0
    0.0696   -2.7867    2.4437 C   0  0  0  1  0  0  0  0  0  0  0  0
    0.8788   -3.0955    3.0194 H   0  0  0  1  0  0  0  0  0  0  0  0
    0.3402   -1.8809    1.5120 N   0  0  0  1  0  0  0  0  0  0  0  0
   -0.7532   -1.5515    0.8229 C   0  0  0  1  0  0  0  0  0  0  0  0
  1  2  1  0  0  0  0
  1  3  1  0  0  0  0
  3  4  1  0  0  0  0
  3  5  1  0  0  0  0
  3  6  1  0  0  0  0
  6  7  1  0  0  0  0
  6  8  1  0  0  0  0
  6  9  1  0  0  0  0
  8 17  1  0  0  0  0
  9 10  1  0  0  0  0
  9 11  1  0  0  0  0
  9 13  1  0  0  0  0
 11 12  1  0  0  0  0
 13 14  1  0  0  0  0
 13 15  1  0  0  0  0
 13 17  1  0  0  0  0
 15 16  1  0  0  0  0
 17 18  1  0  0  0  0
 17 19  1  0  0  0  0
 19 20  1  0  0  0  0
 19 32  1  0  0  0  0
 20 21  1  0  0  0  0
 20 22  2  0  0  0  0
 22 23  1  0  0  0  0
 23 24  1  0  0  0  0
 23 32  2  0  0  0  0
 24 25  1  0  0  0  0
 24 28  2  0  0  0  0
 25 26  1  0  0  0  0
 25 27  1  0  0  0  0
 28 29  1  0  0  0  0
 29 30  1  0  0  0  0
 29 31  2  0  0  0  0
 31 32  1  0  0  0  0
M  END
> <ConfClashScore>
0 

> <ConfOneFourInteractionScore>
-0.987904 

> <ConfScore>
0.151679 

> <ConfScorePBest>
0.0120085 

> <ConfTolerance>
0.25 

$$$$
ADN.****
  PyMOL2.4          3D                             0

 32 34  0  0  0  0  0  0  0  0999 V2000
   -1.9065   -0.5710   -3.5972 O   0  0  0  1  0  0  0  0  0  0  0  0
   -2.7937   -0.3771   -3.9086 H   0  0  0  1  0  0  0  0  0  0  0  0
   -1.0135    0.4348   -4.0536 C   0  0  0  1  0  0  0  0  0  0  0  0
   -1.5163    1.3784   -4.0948 H   0  0  0  1  0  0  0  0  0  0  0  0
   -0.6462    0.1831   -5.0265 H   0  0  0  1  0  0  0  0  0  0  0  0
    0.1256    0.5032   -3.0775 C   0  0  0  1  0  0  0  0  0  0  0  0
    0.8850    1.1529   -3.4597 H   0  0  0  1  0  0  0  0  0  0  0  0
   -0.3283    0.9606   -1.8211 O   0  0  0  1  0  0  0  0  0  0  0  0
    0.6914   -0.8826   -2.8251 C   0  0  0  1  0  0  0  0  0  0  0  0
   -0.0756   -1.6275   -2.8674 H   0  0  0  1  0  0  0  0  0  0  0  0
    1.7177   -1.2011   -3.7661 O   0  0  0  1  0  0  0  0  0  0  0  0
    2.0967   -0.3904   -4.1135 H   0  0  0  1  0  0  0  0  0  0  0  0
    1.2502   -0.7537   -1.4316 C   0  0  0  1  0  0  0  0  0  0  0  0
    1.3323   -1.7077   -0.9540 H   0  0  0  1  0  0  0  0  0  0  0  0
    2.5267   -0.1129   -1.4391 O   0  0  0  1  0  0  0  0  0  0  0  0
    2.4241    0.8086   -1.1904 H   0  0  0  1  0  0  0  0  0  0  0  0
    0.1924    0.1185   -0.7567 C   0  0  0  1  0  0  0  0  0  0  0  0
    0.6323    0.7152    0.0148 H   0  0  0  1  0  0  0  0  0  0  0  0
   -0.8721   -0.7098   -0.1870 N   0  0  0  1  0  0  0  0  0  0  0  0
   -1.3511   -1.8810   -0.6887 C   0  0  0  1  0  0  0  0  0  0  0  0
   -0.9288   -2.3493   -1.5157 H   0  0  0  1  0  0  0  0  0  0  0  0
   -2.3803   -2.3720   -0.0536 N   0  0  0  1  0  0  0  0  0  0  0  0
   -2.6017   -1.4561    0.9630 C   0  0  0  1  0  0  0  0  0  0  0  0
   -3.5338   -1.3544    1.9916 C   0  0  0  1  0  0  0  0  0  0  0  0
   -4.5196   -2.2752    2.1965 N   0  0  0  1  0  0  0  0  0  0  0  0
   -4.6493   -3.0051    1.5555 H   0  0  0  1  0  0  0  0  0  0  0  0
   -5.0980   -2.2066    2.9846 H   0  0  0  1  0  0  0  0  0  0  0  0
   -3.4828   -0.3155    2.8322 N   0  0  0  1  0  0  0  0  0  0  0  0
   -2.5275    0.6069    2.6357 C   0  0  0  1  0  0  0  0  0  0  0  0
   -2.5238    1.4008    3.3074 H   0  0  0  1  0  0  0  0  0  0  0  0
   -1.5870    0.6426    1.6997 N   0  0  0  1  0  0  0  0  0  0  0  0
   -1.6663   -0.4152    0.8910 C   0  0  0  1  0  0  0  0  0  0  0  0
  1  2  1  0  0  0  0
  1  3  1  0  0  0  0
  3  4  1  0  0  0  0
  3  5  1  0  0  0  0
  3  6  1  0  0  0  0
  6  7  1  0  0  0  0
  6  8  1  0  0  0  0
  6  9  1  0  0  0  0
  8 17  1  0  0  0  0
  9 10  1  0  0  0  0
  9 11  1  0  0  0  0
  9 13  1  0  0  0  0
 11 12  1  0  0  0  0
 13 14  1  0  0  0  0
 13 15  1  0  0  0  0
 13 17  1  0  0  0  0
 15 16  1  0  0  0  0
 17 18  1  0  0  0  0
 17 19  1  0  0  0  0
 19 20  1  0  0  0  0
 19 32  1  0  0  0  0
 20 21  1  0  0  0  0
 20 22  2  0  0  0  0
 22 23  1  0  0  0  0
 23 24  1  0  0  0  0
 23 32  2  0  0  0  0
 24 25  1  0  0  0  0
 24 28  2  0  0  0  0
 25 26  1  0  0  0  0
 25 27  1  0  0  0  0
 28 29  1  0  0  0  0
 29 30  1  0  0  0  0
 29 31  2  0  0  0  0
 31 32  1  0  0  0  0
M  END
> <ConfClashScore>
0 

> <ConfOneFourInteractionScore>
-0.976376 

> <ConfScore>
0.152814 

> <ConfScorePBest>
0.0119055 

> <ConfTolerance>
0.296065 

$$$$
ADN.****
  PyMOL2.4          3D                             0

 32 34  0  0  0  0  0  0  0  0999 V2000
   -1.5792   -1.6659   -2.8363 O   0  0  0  1  0  0  0  0  0  0  0  0
   -2.5108   -1.8929   -2.7880 H   0  0  0  1  0  0  0  0  0  0  0  0
   -1.4136   -0.5120   -3.6498 C   0  0  0  1  0  0  0  0  0  0  0  0
   -2.3241    0.0500   -3.6594 H   0  0  0  1  0  0  0  0  0  0  0  0
   -1.1685   -0.8121   -4.6471 H   0  0  0  1  0  0  0  0  0  0  0  0
   -0.3068    0.3404   -3.0989 C   0  0  0  1  0  0  0  0  0  0  0  0
   -0.1183    1.1558   -3.7656 H   0  0  0  1  0  0  0  0  0  0  0  0
   -0.6612    0.8350   -1.7952 O   0  0  0  1  0  0  0  0  0  0  0  0
    0.9770   -0.5049   -2.9096 C   0  0  0  1  0  0  0  0  0  0  0  0
    0.9393   -1.3993   -3.4958 H   0  0  0  1  0  0  0  0  0  0  0  0
    2.1272    0.2349   -3.2531 O   0  0  0  1  0  0  0  0  0  0  0  0
    2.7125   -0.3107   -3.7836 H   0  0  0  1  0  0  0  0  0  0  0  0
    0.9545   -0.8228   -1.4249 C   0  0  0  1  0  0  0  0  0  0  0  0
    0.3973   -1.7152   -1.2295 H   0  0  0  1  0  0  0  0  0  0  0  0
    2.2785   -0.9647   -0.9081 O   0  0  0  1  0  0  0  0  0  0  0  0
    2.9125   -0.6696   -1.5658 H   0  0  0  1  0  0  0  0  0  0  0  0
    0.2555    0.4092   -0.8286 C   0  0  0  1  0  0  0  0  0  0  0  0
    0.9690    1.1806   -0.6270 H   0  0  0  1  0  0  0  0  0  0  0  0
   -0.4386    0.0513    0.4075 N   0  0  0  1  0  0  0  0  0  0  0  0
   -1.6999   -0.4495    0.5129 C   0  0  0  1  0  0  0  0  0  0  0  0
   -2.2515   -0.7543   -0.3144 H   0  0  0  1  0  0  0  0  0  0  0  0
   -2.1649   -0.5185    1.7306 N   0  0  0  1  0  0  0  0  0  0  0  0
   -1.1231   -0.0308    2.5041 C   0  0  0  1  0  0  0  0  0  0  0  0
   -0.9438    0.1814    3.8679 C   0  0  0  1  0  0  0  0  0  0  0  0
   -1.8515   -0.0715    4.8906 N   0  0  0  1  0  0  0  0  0  0  0  0
   -1.5735    0.0192    5.8260 H   0  0  0  1  0  0  0  0  0  0  0  0
   -2.7691   -0.3403    4.6760 H   0  0  0  1  0  0  0  0  0  0  0  0
    0.2122    0.6845    4.3142 N   0  0  0  1  0  0  0  0  0  0  0  0
    1.1600    0.9811    3.4111 C   0  0  0  1  0  0  0  0  0  0  0  0
    2.0422    1.3739    3.7973 H   0  0  0  1  0  0  0  0  0  0  0  0
    1.1234    0.8409    2.0917 N   0  0  0  1  0  0  0  0  0  0  0  0
   -0.0399    0.3268    1.6900 C   0  0  0  1  0  0  0  0  0  0  0  0
  1  2  1  0  0  0  0
  1  3  1  0  0  0  0
  3  4  1  0  0  0  0
  3  5  1  0  0  0  0
  3  6  1  0  0  0  0
  6  7  1  0  0  0  0
  6  8  1  0  0  0  0
  6  9  1  0  0  0  0
  8 17  1  0  0  0  0
  9 10  1  0  0  0  0
  9 11  1  0  0  0  0
  9 13  1  0  0  0  0
 11 12  1  0  0  0  0
 13 14  1  0  0  0  0
 13 15  1  0  0  0  0
 13 17  1  0  0  0  0
 15 16  1  0  0  0  0
 17 18  1  0  0  0  0
 17 19  1  0  0  0  0
 19 20  1  0  0  0  0
 19 32  1  0  0  0  0
 20 21  1  0  0  0  0
 20 22  2  0  0  0  0
 22 23  1  0  0  0  0
 23 24  1  0  0  0  0
 23 32  2  0  0  0  0
 24 25  1  0  0  0  0
 24 28  2  0  0  0  0
 25 26  1  0  0  0  0
 25 27  1  0  0  0  0
 28 29  1  0  0  0  0
 29 30  1  0  0  0  0
 29 31  2  0  0  0  0
 31 32  1  0  0  0  0
M  END
> <ConfClashScore>
0 

> <ConfOneFourInteractionScore>
-0.986581 

> <ConfScore>
0.154066 

> <ConfScorePBest>
0.0118025 

> <ConfTolerance>
0.460735 

$$$$
ADN.****
  PyMOL2.4          3D                             0

 32 34  0  0  0  0  0  0  0  0999 V2000
   -2.6109    0.3514   -3.7533 O   0  0  0  1  0  0  0  0  0  0  0  0
   -2.4000    0.9732   -4.4537 H   0  0  0  1  0  0  0  0  0  0  0  0
   -1.5143   -0.5314   -3.5564 C   0  0  0  1  0  0  0  0  0  0  0  0
   -1.3224   -1.0677   -4.4623 H   0  0  0  1  0  0  0  0  0  0  0  0
   -1.7505   -1.2231   -2.7750 H   0  0  0  1  0  0  0  0  0  0  0  0
   -0.2867    0.2602   -3.1720 C   0  0  0  1  0  0  0  0  0  0  0  0
   -0.0987    1.0097   -3.9122 H   0  0  0  1  0  0  0  0  0  0  0  0
   -0.4772    0.8741   -1.8836 O   0  0  0  1  0  0  0  0  0  0  0  0
    0.9105   -0.6621   -3.0485 C   0  0  0  1  0  0  0  0  0  0  0  0
    0.7645   -1.5604   -3.6112 H   0  0  0  1  0  0  0  0  0  0  0  0
    2.1060   -0.0145   -3.4860 O   0  0  0  1  0  0  0  0  0  0  0  0
    2.2008    0.8252   -3.0303 H   0  0  0  1  0  0  0  0  0  0  0  0
    0.9592   -0.9519   -1.5578 C   0  0  0  1  0  0  0  0  0  0  0  0
    0.2909   -1.7443   -1.2928 H   0  0  0  1  0  0  0  0  0  0  0  0
    2.2828   -1.2830   -1.1352 O   0  0  0  1  0  0  0  0  0  0  0  0
    2.6908   -0.5152   -0.7281 H   0  0  0  1  0  0  0  0  0  0  0  0
    0.5061    0.3742   -0.9704 C   0  0  0  1  0  0  0  0  0  0  0  0
    1.3299    1.0532   -0.8978 H   0  0  0  1  0  0  0  0  0  0  0  0
   -0.0797    0.1743    0.3542 N   0  0  0  1  0  0  0  0  0  0  0  0
   -1.1297   -0.6304    0.6747 C   0  0  0  1  0  0  0  0  0  0  0  0
   -1.6276   -1.2082   -0.0323 H   0  0  0  1  0  0  0  0  0  0  0  0
   -1.4647   -0.6222    1.9363 N   0  0  0  1  0  0  0  0  0  0  0  0
   -0.5563    0.2552    2.5077 C   0  0  0  1  0  0  0  0  0  0  0  0
   -0.3476    0.7315    3.7987 C   0  0  0  1  0  0  0  0  0  0  0  0
   -1.1150    0.3523    4.8683 N   0  0  0  1  0  0  0  0  0  0  0  0
   -1.9060   -0.2092    4.7294 H   0  0  0  1  0  0  0  0  0  0  0  0
   -0.8729    0.6426    5.7725 H   0  0  0  1  0  0  0  0  0  0  0  0
    0.6414    1.6007    4.0329 N   0  0  0  1  0  0  0  0  0  0  0  0
    1.3937    1.9934    2.9927 C   0  0  0  1  0  0  0  0  0  0  0  0
    2.1492    2.6726    3.2151 H   0  0  0  1  0  0  0  0  0  0  0  0
    1.3035    1.6318    1.7187 N   0  0  0  1  0  0  0  0  0  0  0  0
    0.3139    0.7576    1.5309 C   0  0  0  1  0  0  0  0  0  0  0  0
  1  2  1  0  0  0  0
  1  3  1  0  0  0  0
  3  4  1  0  0  0  0
  3  5  1  0  0  0  0
  3  6  1  0  0  0  0
  6  7  1  0  0  0  0
  6  8  1  0  0  0  0
  6  9  1  0  0  0  0
  8 17  1  0  0  0  0
  9 10  1  0  0  0  0
  9 11  1  0  0  0  0
  9 13  1  0  0  0  0
 11 12  1  0  0  0  0
 13 14  1  0  0  0  0
 13 15  1  0  0  0  0
 13 17  1  0  0  0  0
 15 16  1  0  0  0  0
 17 18  1  0  0  0  0
 17 19  1  0  0  0  0
 19 20  1  0  0  0  0
 19 32  1  0  0  0  0
 20 21  1  0  0  0  0
 20 22  2  0  0  0  0
 22 23  1  0  0  0  0
 23 24  1  0  0  0  0
 23 32  2  0  0  0  0
 24 25  1  0  0  0  0
 24 28  2  0  0  0  0
 25 26  1  0  0  0  0
 25 27  1  0  0  0  0
 28 29  1  0  0  0  0
 29 30  1  0  0  0  0
 29 31  2  0  0  0  0
 31 32  1  0  0  0  0
M  END
> <ConfClashScore>
0 

> <ConfOneFourInteractionScore>
-0.970696 

> <ConfScore>
0.154673 

> <ConfScorePBest>
0.0116995 

> <ConfTolerance>
0.323575 

$$$$
ADN.****
  PyMOL2.4          3D                             0

 32 34  0  0  0  0  0  0  0  0999 V2000
   -1.7658   -1.1515   -3.9824 O   0  0  0  1  0  0  0  0  0  0  0  0
   -1.4389   -1.7397   -4.6671 H   0  0  0  1  0  0  0  0  0  0  0  0
   -1.2062    0.1458   -4.1631 C   0  0  0  1  0  0  0  0  0  0  0  0
   -1.9781    0.8815   -4.0750 H   0  0  0  1  0  0  0  0  0  0  0  0
   -0.7615    0.2092   -5.1342 H   0  0  0  1  0  0  0  0  0  0  0  0
   -0.1519    0.3960   -3.1108 C   0  0  0  1  0  0  0  0  0  0  0  0
    0.3964    1.2810   -3.3579 H   0  0  0  1  0  0  0  0  0  0  0  0
   -0.7557    0.5195   -1.8049 O   0  0  0  1  0  0  0  0  0  0  0  0
    0.7967   -0.8162   -2.9924 C   0  0  0  1  0  0  0  0  0  0  0  0
    0.3156   -1.7096   -3.3319 H   0  0  0  1  0  0  0  0  0  0  0  0
    1.9905   -0.6014   -3.7466 O   0  0  0  1  0  0  0  0  0  0  0  0
    2.1377    0.3414   -3.8519 H   0  0  0  1  0  0  0  0  0  0  0  0
    1.1106   -0.9023   -1.4801 C   0  0  0  1  0  0  0  0  0  0  0  0
    0.7857   -1.8388   -1.0770 H   0  0  0  1  0  0  0  0  0  0  0  0
    2.5096   -0.7404   -1.2420 O   0  0  0  1  0  0  0  0  0  0  0  0
    2.6455   -0.0545   -0.5844 H   0  0  0  1  0  0  0  0  0  0  0  0
    0.3107    0.2665   -0.8657 C   0  0  0  1  0  0  0  0  0  0  0  0
    0.9309    1.1317   -0.7581 H   0  0  0  1  0  0  0  0  0  0  0  0
   -0.2313   -0.1107    0.4388 N   0  0  0  1  0  0  0  0  0  0  0  0
   -1.3300   -0.8756    0.6849 C   0  0  0  1  0  0  0  0  0  0  0  0
   -1.9502   -1.2239   -0.0738 H   0  0  0  1  0  0  0  0  0  0  0  0
   -1.5465   -1.1391    1.9448 N   0  0  0  1  0  0  0  0  0  0  0  0
   -0.4993   -0.5038    2.5939 C   0  0  0  1  0  0  0  0  0  0  0  0
   -0.1237   -0.3678    3.9271 C   0  0  0  1  0  0  0  0  0  0  0  0
   -0.8329   -0.9273    4.9697 N   0  0  0  1  0  0  0  0  0  0  0  0
   -1.6479   -1.4404    4.7882 H   0  0  0  1  0  0  0  0  0  0  0  0
   -0.5218   -0.8116    5.8917 H   0  0  0  1  0  0  0  0  0  0  0  0
    0.9719    0.3329    4.2391 N   0  0  0  1  0  0  0  0  0  0  0  0
    1.6655    0.8959    3.2371 C   0  0  0  1  0  0  0  0  0  0  0  0
    2.5080    1.4355    3.5209 H   0  0  0  1  0  0  0  0  0  0  0  0
    1.4212    0.8568    1.9330 N   0  0  0  1  0  0  0  0  0  0  0  0
    0.3287    0.1402    1.6648 C   0  0  0  1  0  0  0  0  0  0  0  0
  1  2  1  0  0  0  0
  1  3  1  0  0  0  0
  3  4  1  0  0  0  0
  3  5  1  0  0  0  0
  3  6  1  0  0  0  0
  6  7  1  0  0  0  0
  6  8  1  0  0  0  0
  6  9  1  0  0  0  0
  8 17  1  0  0  0  0
  9 10  1  0  0  0  0
  9 11  1  0  0  0  0
  9 13  1  0  0  0  0
 11 12  1  0  0  0  0
 13 14  1  0  0  0  0
 13 15  1  0  0  0  0
 13 17  1  0  0  0  0
 15 16  1  0  0  0  0
 17 18  1  0  0  0  0
 17 19  1  0  0  0  0
 19 20  1  0  0  0  0
 19 32  1  0  0  0  0
 20 21  1  0  0  0  0
 20 22  2  0  0  0  0
 22 23  1  0  0  0  0
 23 24  1  0  0  0  0
 23 32  2  0  0  0  0
 24 25  1  0  0  0  0
 24 28  2  0  0  0  0
 25 26  1  0  0  0  0
 25 27  1  0  0  0  0
 28 29  1  0  0  0  0
 29 30  1  0  0  0  0
 29 31  2  0  0  0  0
 31 32  1  0  0  0  0
M  END
> <ConfClashScore>
0 

> <ConfOneFourInteractionScore>
-0.980915 

> <ConfScore>
0.15503 

> <ConfScorePBest>
0.0115965 

> <ConfTolerance>
0.413793 

$$$$
ADN.****
  PyMOL2.4          3D                             0

 32 34  0  0  0  0  0  0  0  0999 V2000
   -2.0670    1.4555   -4.0986 O   0  0  0  1  0  0  0  0  0  0  0  0
   -1.5748    2.0026   -4.7151 H   0  0  0  1  0  0  0  0  0  0  0  0
   -1.3750    0.2308   -3.8941 C   0  0  0  1  0  0  0  0  0  0  0  0
   -1.1264   -0.2101   -4.8368 H   0  0  0  1  0  0  0  0  0  0  0  0
   -1.9866   -0.4452   -3.3338 H   0  0  0  1  0  0  0  0  0  0  0  0
   -0.1217    0.5435   -3.1279 C   0  0  0  1  0  0  0  0  0  0  0  0
    0.4552    1.2661   -3.6662 H   0  0  0  1  0  0  0  0  0  0  0  0
   -0.4436    1.0335   -1.8067 O   0  0  0  1  0  0  0  0  0  0  0  0
    0.6962   -0.7299   -2.8923 C   0  0  0  1  0  0  0  0  0  0  0  0
    0.0758   -1.6000   -2.9467 H   0  0  0  1  0  0  0  0  0  0  0  0
    1.7571   -0.8405   -3.8422 O   0  0  0  1  0  0  0  0  0  0  0  0
    2.6006   -0.8223   -3.3841 H   0  0  0  1  0  0  0  0  0  0  0  0
    1.2361   -0.5377   -1.4994 C   0  0  0  1  0  0  0  0  0  0  0  0
    1.4195   -1.4784   -1.0236 H   0  0  0  1  0  0  0  0  0  0  0  0
    2.4325    0.2268   -1.5151 O   0  0  0  1  0  0  0  0  0  0  0  0
    3.1703   -0.3272   -1.2500 H   0  0  0  1  0  0  0  0  0  0  0  0
    0.1012    0.2244   -0.8000 C   0  0  0  1  0  0  0  0  0  0  0  0
    0.4834    0.8219    0.0012 H   0  0  0  1  0  0  0  0  0  0  0  0
   -0.9027   -0.7032   -0.2811 N   0  0  0  1  0  0  0  0  0  0  0  0
   -1.8053   -1.4542   -0.9696 C   0  0  0  1  0  0  0  0  0  0  0  0
   -1.8162   -1.5020   -2.0085 H   0  0  0  1  0  0  0  0  0  0  0  0
   -2.6561   -2.1098   -0.2279 N   0  0  0  1  0  0  0  0  0  0  0  0
   -2.2847   -1.7752    1.0650 C   0  0  0  1  0  0  0  0  0  0  0  0
   -2.7644   -2.1064    2.3289 C   0  0  0  1  0  0  0  0  0  0  0  0
   -3.8421   -2.9447    2.5928 N   0  0  0  1  0  0  0  0  0  0  0  0
   -4.2880   -3.4156    1.8581 H   0  0  0  1  0  0  0  0  0  0  0  0
   -4.1556   -3.0646    3.5135 H   0  0  0  1  0  0  0  0  0  0  0  0
   -2.1723   -1.6007    3.4162 N   0  0  0  1  0  0  0  0  0  0  0  0
   -1.1324   -0.7706    3.2381 C   0  0  0  1  0  0  0  0  0  0  0  0
   -0.7022   -0.3956    4.1075 H   0  0  0  1  0  0  0  0  0  0  0  0
   -0.5791   -0.3640    2.1022 N   0  0  0  1  0  0  0  0  0  0  0  0
   -1.1911   -0.8992    1.0449 C   0  0  0  1  0  0  0  0  0  0  0  0
  1  2  1  0  0  0  0
  1  3  1  0  0  0  0
  3  4  1  0  0  0  0
  3  5  1  0  0  0  0
  3  6  1  0  0  0  0
  6  7  1  0  0  0  0
  6  8  1  0  0  0  0
  6  9  1  0  0  0  0
  8 17  1  0  0  0  0
  9 10  1  0  0  0  0
  9 11  1  0  0  0  0
  9 13  1  0  0  0  0
 11 12  1  0  0  0  0
 13 14  1  0  0  0  0
 13 15  1  0  0  0  0
 13 17  1  0  0  0  0
 15 16  1  0  0  0  0
 17 18  1  0  0  0  0
 17 19  1  0  0  0  0
 19 20  1  0  0  0  0
 19 32  1  0  0  0  0
 20 21  1  0  0  0  0
 20 22  2  0  0  0  0
 22 23  1  0  0  0  0
 23 24  1  0  0  0  0
 23 32  2  0  0  0  0
 24 25  1  0  0  0  0
 24 28  2  0  0  0  0
 25 26  1  0  0  0  0
 25 27  1  0  0  0  0
 28 29  1  0  0  0  0
 29 30  1  0  0  0  0
 29 31  2  0  0  0  0
 31 32  1  0  0  0  0
M  END
> <ConfClashScore>
0 

> <ConfOneFourInteractionScore>
-0.970696 

> <ConfScore>
0.157804 

> <ConfScorePBest>
0.0114935 

> <ConfTolerance>
0.25 

$$$$
ADN.****
  PyMOL2.4          3D                             0

 32 34  0  0  0  0  0  0  0  0999 V2000
   -2.6419    0.4167   -3.6850 O   0  0  0  1  0  0  0  0  0  0  0  0
   -3.2472    0.1089   -4.3636 H   0  0  0  1  0  0  0  0  0  0  0  0
   -1.5470   -0.4719   -3.5913 C   0  0  0  1  0  0  0  0  0  0  0  0
   -1.3758   -0.9271   -4.5444 H   0  0  0  1  0  0  0  0  0  0  0  0
   -1.7648   -1.2294   -2.8676 H   0  0  0  1  0  0  0  0  0  0  0  0
   -0.3102    0.2872   -3.1675 C   0  0  0  1  0  0  0  0  0  0  0  0
   -0.0972    1.0521   -3.8848 H   0  0  0  1  0  0  0  0  0  0  0  0
   -0.5034    0.8663   -1.8648 O   0  0  0  1  0  0  0  0  0  0  0  0
    0.8939   -0.6785   -3.0405 C   0  0  0  1  0  0  0  0  0  0  0  0
    0.7182   -1.5863   -3.5789 H   0  0  0  1  0  0  0  0  0  0  0  0
    2.0951   -0.0679   -3.5143 O   0  0  0  1  0  0  0  0  0  0  0  0
    2.4367    0.5294   -2.8448 H   0  0  0  1  0  0  0  0  0  0  0  0
    0.9635   -0.9343   -1.5452 C   0  0  0  1  0  0  0  0  0  0  0  0
    0.3381   -1.7558   -1.2646 H   0  0  0  1  0  0  0  0  0  0  0  0
    2.3051   -1.1922   -1.1284 O   0  0  0  1  0  0  0  0  0  0  0  0
    2.7815   -0.3624   -1.0499 H   0  0  0  1  0  0  0  0  0  0  0  0
    0.4434    0.3858   -0.9545 C   0  0  0  1  0  0  0  0  0  0  0  0
    1.2448    1.0865   -0.8466 H   0  0  0  1  0  0  0  0  0  0  0  0
   -0.1775    0.1501    0.3480 N   0  0  0  1  0  0  0  0  0  0  0  0
   -1.5193    0.1028    0.5721 C   0  0  0  1  0  0  0  0  0  0  0  0
   -2.2179    0.2271   -0.1882 H   0  0  0  1  0  0  0  0  0  0  0  0
   -1.8631   -0.1104    1.8131 N   0  0  0  1  0  0  0  0  0  0  0  0
   -0.6486   -0.2236    2.4716 C   0  0  0  1  0  0  0  0  0  0  0  0
   -0.2792   -0.4406    3.7958 C   0  0  0  1  0  0  0  0  0  0  0  0
   -1.1878   -0.6050    4.8078 N   0  0  0  1  0  0  0  0  0  0  0  0
   -2.1477   -0.5969    4.6106 H   0  0  0  1  0  0  0  0  0  0  0  0
   -0.8779   -0.7307    5.7290 H   0  0  0  1  0  0  0  0  0  0  0  0
    1.0166   -0.4957    4.1222 N   0  0  0  1  0  0  0  0  0  0  0  0
    1.9198   -0.3223    3.1444 C   0  0  0  1  0  0  0  0  0  0  0  0
    2.9161   -0.3680    3.4392 H   0  0  0  1  0  0  0  0  0  0  0  0
    1.7131   -0.1004    1.8521 N   0  0  0  1  0  0  0  0  0  0  0  0
    0.4105   -0.0642    1.5679 C   0  0  0  1  0  0  0  0  0  0  0  0
  1  2  1  0  0  0  0
  1  3  1  0  0  0  0
  3  4  1  0  0  0  0
  3  5  1  0  0  0  0
  3  6  1  0  0  0  0
  6  7  1  0  0  0  0
  6  8  1  0  0  0  0
  6  9  1  0  0  0  0
  8 17  1  0  0  0  0
  9 10  1  0  0  0  0
  9 11  1  0  0  0  0
  9 13  1  0  0  0  0
 11 12  1  0  0  0  0
 13 14  1  0  0  0  0
 13 15  1  0  0  0  0
 13 17  1  0  0  0  0
 15 16  1  0  0  0  0
 17 18  1  0  0  0  0
 17 19  1  0  0  0  0
 19 20  1  0  0  0  0
 19 32  1  0  0  0  0
 20 21  1  0  0  0  0
 20 22  2  0  0  0  0
 22 23  1  0  0  0  0
 23 24  1  0  0  0  0
 23 32  2  0  0  0  0
 24 25  1  0  0  0  0
 24 28  2  0  0  0  0
 25 26  1  0  0  0  0
 25 27  1  0  0  0  0
 28 29  1  0  0  0  0
 29 30  1  0  0  0  0
 29 31  2  0  0  0  0
 31 32  1  0  0  0  0
M  END
> <ConfClashScore>
0 

> <ConfOneFourInteractionScore>
-0.970696 

> <ConfScore>
0.158725 

> <ConfScorePBest>
0.0113905 

> <ConfTolerance>
0.25 

$$$$
ADN.****
  PyMOL2.4          3D                             0

 32 34  0  0  0  0  0  0  0  0999 V2000
   -1.7876   -0.7723   -3.8514 O   0  0  0  1  0  0  0  0  0  0  0  0
   -1.3805   -1.5278   -4.2816 H   0  0  0  1  0  0  0  0  0  0  0  0
   -1.0254    0.3952   -4.1224 C   0  0  0  1  0  0  0  0  0  0  0  0
   -1.6717    1.2479   -4.1306 H   0  0  0  1  0  0  0  0  0  0  0  0
   -0.5515    0.2970   -5.0767 H   0  0  0  1  0  0  0  0  0  0  0  0
    0.0219    0.5729   -3.0611 C   0  0  0  1  0  0  0  0  0  0  0  0
    0.6931    1.3549   -3.3490 H   0  0  0  1  0  0  0  0  0  0  0  0
   -0.5696    0.8574   -1.8224 O   0  0  0  1  0  0  0  0  0  0  0  0
    0.7844   -0.7387   -2.8242 C   0  0  0  1  0  0  0  0  0  0  0  0
    0.1423   -1.5857   -2.9470 H   0  0  0  1  0  0  0  0  0  0  0  0
    1.8993   -0.8533   -3.7097 O   0  0  0  1  0  0  0  0  0  0  0  0
    2.3280   -1.7019   -3.5770 H   0  0  0  1  0  0  0  0  0  0  0  0
    1.2382   -0.6040   -1.3944 C   0  0  0  1  0  0  0  0  0  0  0  0
    1.3634   -1.5643   -0.9393 H   0  0  0  1  0  0  0  0  0  0  0  0
    2.4633    0.1259   -1.3123 O   0  0  0  1  0  0  0  0  0  0  0  0
    2.5118    0.7531   -2.0374 H   0  0  0  1  0  0  0  0  0  0  0  0
    0.0923    0.1705   -0.7365 C   0  0  0  1  0  0  0  0  0  0  0  0
    0.4734    0.8727   -0.0248 H   0  0  0  1  0  0  0  0  0  0  0  0
   -0.8313   -0.7467   -0.0707 N   0  0  0  1  0  0  0  0  0  0  0  0
   -2.1814   -0.8124   -0.2309 C   0  0  0  1  0  0  0  0  0  0  0  0
   -2.6985   -0.1865   -0.8809 H   0  0  0  1  0  0  0  0  0  0  0  0
   -2.7783   -1.7201    0.4927 N   0  0  0  1  0  0  0  0  0  0  0  0
   -1.7380   -2.3166    1.1881 C   0  0  0  1  0  0  0  0  0  0  0  0
   -1.6605   -3.3376    2.1308 C   0  0  0  1  0  0  0  0  0  0  0  0
   -2.7581   -4.0189    2.5866 N   0  0  0  1  0  0  0  0  0  0  0  0
   -3.6566   -3.7413    2.3107 H   0  0  0  1  0  0  0  0  0  0  0  0
   -2.6449   -4.7838    3.1886 H   0  0  0  1  0  0  0  0  0  0  0  0
   -0.4710   -3.6894    2.6308 N   0  0  0  1  0  0  0  0  0  0  0  0
    0.6131   -3.0219    2.2051 C   0  0  0  1  0  0  0  0  0  0  0  0
    1.5180   -3.3222    2.6204 H   0  0  0  1  0  0  0  0  0  0  0  0
    0.6860   -2.0303    1.3257 N   0  0  0  1  0  0  0  0  0  0  0  0
   -0.5181   -1.7188    0.8441 C   0  0  0  1  0  0  0  0  0  0  0  0
  1  2  1  0  0  0  0
  1  3  1  0  0  0  0
  3  4  1  0  0  0  0
  3  5  1  0  0  0  0
  3  6  1  0  0  0  0
  6  7  1  0  0  0  0
  6  8  1  0  0  0  0
  6  9  1  0  0  0  0
  8 17  1  0  0  0  0
  9 10  1  0  0  0  0
  9 11  1  0  0  0  0
  9 13  1  0  0  0  0
 11 12  1  0  0  0  0
 13 14  1  0  0  0  0
 13 15  1  0  0  0  0
 13 17  1  0  0  0  0
 15 16  1  0  0  0  0
 17 18  1  0  0  0  0
 17 19  1  0  0  0  0
 19 20  1  0  0  0  0
 19 32  1  0  0  0  0
 20 21  1  0  0  0  0
 20 22  2  0  0  0  0
 22 23  1  0  0  0  0
 23 24  1  0  0  0  0
 23 32  2  0  0  0  0
 24 25  1  0  0  0  0
 24 28  2  0  0  0  0
 25 26  1  0  0  0  0
 25 27  1  0  0  0  0
 28 29  1  0  0  0  0
 29 30  1  0  0  0  0
 29 31  2  0  0  0  0
 31 32  1  0  0  0  0
M  END
> <ConfClashScore>
0 

> <ConfOneFourInteractionScore>
-0.980915 

> <ConfScore>
0.159975 

> <ConfScorePBest>
0.0112875 

> <ConfTolerance>
0.396303 

$$$$
ADN.****
  PyMOL2.4          3D                             0

 32 34  0  0  0  0  0  0  0  0999 V2000
   -2.2250    0.9314   -4.4184 O   0  0  0  1  0  0  0  0  0  0  0  0
   -3.0108    0.5551   -4.0153 H   0  0  0  1  0  0  0  0  0  0  0  0
   -1.1375    0.0891   -4.1928 C   0  0  0  1  0  0  0  0  0  0  0  0
   -0.5600    0.0590   -5.0931 H   0  0  0  1  0  0  0  0  0  0  0  0
   -1.5227   -0.8867   -3.9828 H   0  0  0  1  0  0  0  0  0  0  0  0
   -0.2050    0.4638   -3.0652 C   0  0  0  1  0  0  0  0  0  0  0  0
    0.2096    1.4325   -3.2514 H   0  0  0  1  0  0  0  0  0  0  0  0
   -0.9020    0.4433   -1.8006 O   0  0  0  1  0  0  0  0  0  0  0  0
    0.9153   -0.5874   -2.9138 C   0  0  0  1  0  0  0  0  0  0  0  0
    0.6052   -1.5324   -3.3083 H   0  0  0  1  0  0  0  0  0  0  0  0
    2.1048   -0.1600   -3.5793 O   0  0  0  1  0  0  0  0  0  0  0  0
    2.1184   -0.5154   -4.4710 H   0  0  0  1  0  0  0  0  0  0  0  0
    1.1429   -0.6779   -1.3864 C   0  0  0  1  0  0  0  0  0  0  0  0
    0.9468   -1.6678   -1.0307 H   0  0  0  1  0  0  0  0  0  0  0  0
    2.4804   -0.3065   -1.0496 O   0  0  0  1  0  0  0  0  0  0  0  0
    3.0081   -1.0970   -0.9147 H   0  0  0  1  0  0  0  0  0  0  0  0
    0.1297    0.3273   -0.7978 C   0  0  0  1  0  0  0  0  0  0  0  0
    0.5960    1.2750   -0.6260 H   0  0  0  1  0  0  0  0  0  0  0  0
   -0.4278   -0.1788    0.4597 N   0  0  0  1  0  0  0  0  0  0  0  0
   -1.6533   -0.7406    0.6472 C   0  0  0  1  0  0  0  0  0  0  0  0
   -2.3329   -0.8722   -0.1290 H   0  0  0  1  0  0  0  0  0  0  0  0
   -1.9114   -1.1019    1.8747 N   0  0  0  1  0  0  0  0  0  0  0  0
   -0.7576   -0.7604    2.5630 C   0  0  0  1  0  0  0  0  0  0  0  0
   -0.3568   -0.8554    3.8924 C   0  0  0  1  0  0  0  0  0  0  0  0
   -1.1171   -1.3778    4.9330 N   0  0  0  1  0  0  0  0  0  0  0  0
   -2.0132   -1.7324    4.7550 H   0  0  0  1  0  0  0  0  0  0  0  0
   -0.7568   -1.3915    5.8442 H   0  0  0  1  0  0  0  0  0  0  0  0
    0.8557   -0.4203    4.2519 N   0  0  0  1  0  0  0  0  0  0  0  0
    1.6412    0.1107    3.3017 C   0  0  0  1  0  0  0  0  0  0  0  0
    2.5740    0.4409    3.6219 H   0  0  0  1  0  0  0  0  0  0  0  0
    1.3882    0.2713    2.0086 N   0  0  0  1  0  0  0  0  0  0  0  0
    0.1759   -0.1849    1.6906 C   0  0  0  1  0  0  0  0  0  0  0  0
  1  2  1  0  0  0  0
  1  3  1  0  0  0  0
  3  4  1  0  0  0  0
  3  5  1  0  0  0  0
  3  6  1  0  0  0  0
  6  7  1  0  0  0  0
  6  8  1  0  0  0  0
  6  9  1  0  0  0  0
  8 17  1  0  0  0  0
  9 10  1  0  0  0  0
  9 11  1  0  0  0  0
  9 13  1  0  0  0  0
 11 12  1  0  0  0  0
 13 14  1  0  0  0  0
 13 15  1  0  0  0  0
 13 17  1  0  0  0  0
 15 16  1  0  0  0  0
 17 18  1  0  0  0  0
 17 19  1  0  0  0  0
 19 20  1  0  0  0  0
 19 32  1  0  0  0  0
 20 21  1  0  0  0  0
 20 22  2  0  0  0  0
 22 23  1  0  0  0  0
 23 24  1  0  0  0  0
 23 32  2  0  0  0  0
 24 25  1  0  0  0  0
 24 28  2  0  0  0  0
 25 26  1  0  0  0  0
 25 27  1  0  0  0  0
 28 29  1  0  0  0  0
 29 30  1  0  0  0  0
 29 31  2  0  0  0  0
 31 32  1  0  0  0  0
M  END
> <ConfClashScore>
0 

> <ConfOneFourInteractionScore>
-0.970696 

> <ConfScore>
0.160136 

> <ConfScorePBest>
0.0111845 

> <ConfTolerance>
0.25 

$$$$
ADN.****
  PyMOL2.4          3D                             0

 32 34  0  0  0  0  0  0  0  0999 V2000
   -1.9195   -0.9886   -3.8442 O   0  0  0  1  0  0  0  0  0  0  0  0
   -2.7836   -0.6783   -3.5638 H   0  0  0  1  0  0  0  0  0  0  0  0
   -1.1053    0.1240   -4.1908 C   0  0  0  1  0  0  0  0  0  0  0  0
   -1.7216    0.9891   -4.3201 H   0  0  0  1  0  0  0  0  0  0  0  0
   -0.5872   -0.0850   -5.1033 H   0  0  0  1  0  0  0  0  0  0  0  0
   -0.1079    0.3805   -3.0980 C   0  0  0  1  0  0  0  0  0  0  0  0
    0.4648    1.2528   -3.3347 H   0  0  0  1  0  0  0  0  0  0  0  0
   -0.7751    0.5394   -1.8272 O   0  0  0  1  0  0  0  0  0  0  0  0
    0.8160   -0.8414   -2.9070 C   0  0  0  1  0  0  0  0  0  0  0  0
    0.3399   -1.7352   -3.2525 H   0  0  0  1  0  0  0  0  0  0  0  0
    2.0493   -0.6583   -3.6038 O   0  0  0  1  0  0  0  0  0  0  0  0
    2.2159    0.2800   -3.7193 H   0  0  0  1  0  0  0  0  0  0  0  0
    1.0518   -0.9000   -1.3793 C   0  0  0  1  0  0  0  0  0  0  0  0
    0.6936   -1.8234   -0.9745 H   0  0  0  1  0  0  0  0  0  0  0  0
    2.4392   -0.7519   -1.0738 O   0  0  0  1  0  0  0  0  0  0  0  0
    2.7735    0.0498   -1.4827 H   0  0  0  1  0  0  0  0  0  0  0  0
    0.2388    0.2919   -0.8301 C   0  0  0  1  0  0  0  0  0  0  0  0
    0.8651    1.1509   -0.7087 H   0  0  0  1  0  0  0  0  0  0  0  0
   -0.3748   -0.0512    0.4545 N   0  0  0  1  0  0  0  0  0  0  0  0
    0.0183    0.3639    1.6898 C   0  0  0  1  0  0  0  0  0  0  0  0
    0.9000    0.8924    1.8478 H   0  0  0  1  0  0  0  0  0  0  0  0
   -0.7946    0.0487    2.6612 N   0  0  0  1  0  0  0  0  0  0  0  0
   -1.8213   -0.6260    2.0192 C   0  0  0  1  0  0  0  0  0  0  0  0
   -2.9961   -1.2381    2.4461 C   0  0  0  1  0  0  0  0  0  0  0  0
   -3.2978   -1.2193    3.7920 N   0  0  0  1  0  0  0  0  0  0  0  0
   -4.1767   -1.5228    4.1015 H   0  0  0  1  0  0  0  0  0  0  0  0
   -2.6331   -0.9025    4.4388 H   0  0  0  1  0  0  0  0  0  0  0  0
   -3.8000   -1.8255    1.5531 N   0  0  0  1  0  0  0  0  0  0  0  0
   -3.4256   -1.8112    0.2641 C   0  0  0  1  0  0  0  0  0  0  0  0
   -4.0751   -2.2817   -0.3981 H   0  0  0  1  0  0  0  0  0  0  0  0
   -2.3385   -1.2778   -0.2795 N   0  0  0  1  0  0  0  0  0  0  0  0
   -1.5714   -0.6936    0.6420 C   0  0  0  1  0  0  0  0  0  0  0  0
  1  2  1  0  0  0  0
  1  3  1  0  0  0  0
  3  4  1  0  0  0  0
  3  5  1  0  0  0  0
  3  6  1  0  0  0  0
  6  7  1  0  0  0  0
  6  8  1  0  0  0  0
  6  9  1  0  0  0  0
  8 17  1  0  0  0  0
  9 10  1  0  0  0  0
  9 11  1  0  0  0  0
  9 13  1  0  0  0  0
 11 12  1  0  0  0  0
 13 14  1  0  0  0  0
 13 15  1  0  0  0  0
 13 17  1  0  0  0  0
 15 16  1  0  0  0  0
 17 18  1  0  0  0  0
 17 19  1  0  0  0  0
 19 20  1  0  0  0  0
 19 32  1  0  0  0  0
 20 21  1  0  0  0  0
 20 22  2  0  0  0  0
 22 23  1  0  0  0  0
 23 24  1  0  0  0  0
 23 32  2  0  0  0  0
 24 25  1  0  0  0  0
 24 28  2  0  0  0  0
 25 26  1  0  0  0  0
 25 27  1  0  0  0  0
 28 29  1  0  0  0  0
 29 30  1  0  0  0  0
 29 31  2  0  0  0  0
 31 32  1  0  0  0  0
M  END
> <ConfClashScore>
0 

> <ConfOneFourInteractionScore>
-0.987904 

> <ConfScore>
0.161533 

> <ConfScorePBest>
0.0110815 

> <ConfTolerance>
0.25 

$$$$
ADN.****
  PyMOL2.4          3D                             0

 32 34  0  0  0  0  0  0  0  0999 V2000
   -1.5989   -1.2878   -3.9538 O   0  0  0  1  0  0  0  0  0  0  0  0
   -2.4727   -1.3845   -4.3395 H   0  0  0  1  0  0  0  0  0  0  0  0
   -1.1083    0.0211   -4.2122 C   0  0  0  1  0  0  0  0  0  0  0  0
   -1.9193    0.7190   -4.2260 H   0  0  0  1  0  0  0  0  0  0  0  0
   -0.6029    0.0422   -5.1551 H   0  0  0  1  0  0  0  0  0  0  0  0
   -0.1451    0.3718   -3.1029 C   0  0  0  1  0  0  0  0  0  0  0  0
    0.3697    1.2768   -3.3496 H   0  0  0  1  0  0  0  0  0  0  0  0
   -0.8441    0.5103   -1.8469 O   0  0  0  1  0  0  0  0  0  0  0  0
    0.8580   -0.7782   -2.8698 C   0  0  0  1  0  0  0  0  0  0  0  0
    0.4515   -1.7102   -3.2030 H   0  0  0  1  0  0  0  0  0  0  0  0
    2.0878   -0.5241   -3.5504 O   0  0  0  1  0  0  0  0  0  0  0  0
    2.1833    0.4197   -3.6979 H   0  0  0  1  0  0  0  0  0  0  0  0
    1.0703   -0.7881   -1.3375 C   0  0  0  1  0  0  0  0  0  0  0  0
    0.7700   -1.7256   -0.9181 H   0  0  0  1  0  0  0  0  0  0  0  0
    2.4383   -0.5369   -1.0130 O   0  0  0  1  0  0  0  0  0  0  0  0
    2.9990   -0.8409   -1.7305 H   0  0  0  1  0  0  0  0  0  0  0  0
    0.1666    0.3553   -0.8282 C   0  0  0  1  0  0  0  0  0  0  0  0
    0.7294    1.2583   -0.7158 H   0  0  0  1  0  0  0  0  0  0  0  0
   -0.4415   -0.0011    0.4478 N   0  0  0  1  0  0  0  0  0  0  0  0
   -1.7618   -0.2299    0.6873 C   0  0  0  1  0  0  0  0  0  0  0  0
   -2.5032   -0.0038   -0.0060 H   0  0  0  1  0  0  0  0  0  0  0  0
   -2.0271   -0.7543    1.8528 N   0  0  0  1  0  0  0  0  0  0  0  0
   -0.7781   -0.8956    2.4372 C   0  0  0  1  0  0  0  0  0  0  0  0
   -0.3297   -1.3729    3.6652 C   0  0  0  1  0  0  0  0  0  0  0  0
   -1.1720   -1.8531    4.6332 N   0  0  0  1  0  0  0  0  0  0  0  0
   -0.8144   -2.1183    5.5062 H   0  0  0  1  0  0  0  0  0  0  0  0
   -2.1320   -1.9313    4.4525 H   0  0  0  1  0  0  0  0  0  0  0  0
    0.9796   -1.3739    3.9382 N   0  0  0  1  0  0  0  0  0  0  0  0
    1.8173   -0.8935    3.0058 C   0  0  0  1  0  0  0  0  0  0  0  0
    2.8262   -0.9075    3.2575 H   0  0  0  1  0  0  0  0  0  0  0  0
    1.5317   -0.4029    1.8059 N   0  0  0  1  0  0  0  0  0  0  0  0
    0.2193   -0.4304    1.5697 C   0  0  0  1  0  0  0  0  0  0  0  0
  1  2  1  0  0  0  0
  1  3  1  0  0  0  0
  3  4  1  0  0  0  0
  3  5  1  0  0  0  0
  3  6  1  0  0  0  0
  6  7  1  0  0  0  0
  6  8  1  0  0  0  0
  6  9  1  0  0  0  0
  8 17  1  0  0  0  0
  9 10  1  0  0  0  0
  9 11  1  0  0  0  0
  9 13  1  0  0  0  0
 11 12  1  0  0  0  0
 13 14  1  0  0  0  0
 13 15  1  0  0  0  0
 13 17  1  0  0  0  0
 15 16  1  0  0  0  0
 17 18  1  0  0  0  0
 17 19  1  0  0  0  0
 19 20  1  0  0  0  0
 19 32  1  0  0  0  0
 20 21  1  0  0  0  0
 20 22  2  0  0  0  0
 22 23  1  0  0  0  0
 23 24  1  0  0  0  0
 23 32  2  0  0  0  0
 24 25  1  0  0  0  0
 24 28  2  0  0  0  0
 25 26  1  0  0  0  0
 25 27  1  0  0  0  0
 28 29  1  0  0  0  0
 29 30  1  0  0  0  0
 29 31  2  0  0  0  0
 31 32  1  0  0  0  0
M  END
> <ConfClashScore>
0 

> <ConfOneFourInteractionScore>
-0.980915 

> <ConfScore>
0.167475 

> <ConfScorePBest>
0.0109785 

> <ConfTolerance>
0.308525 

$$$$
ADN.****
  PyMOL2.4          3D                             0

 32 34  0  0  0  0  0  0  0  0999 V2000
   -2.7059   -0.0038   -3.5378 O   0  0  0  1  0  0  0  0  0  0  0  0
   -2.9169    0.4526   -4.3556 H   0  0  0  1  0  0  0  0  0  0  0  0
   -1.4372   -0.6310   -3.6586 C   0  0  0  1  0  0  0  0  0  0  0  0
   -1.2674   -0.8667   -4.6884 H   0  0  0  1  0  0  0  0  0  0  0  0
   -1.4437   -1.5325   -3.0823 H   0  0  0  1  0  0  0  0  0  0  0  0
   -0.3061    0.2515   -3.1686 C   0  0  0  1  0  0  0  0  0  0  0  0
   -0.1391    1.0411   -3.8712 H   0  0  0  1  0  0  0  0  0  0  0  0
   -0.6307    0.7893   -1.9177 O   0  0  0  1  0  0  0  0  0  0  0  0
    0.9744   -0.5831   -3.0077 C   0  0  0  1  0  0  0  0  0  0  0  0
    0.8883   -1.5226   -3.5123 H   0  0  0  1  0  0  0  0  0  0  0  0
    2.1108    0.1198   -3.5019 O   0  0  0  1  0  0  0  0  0  0  0  0
    2.1163    1.0111   -3.1453 H   0  0  0  1  0  0  0  0  0  0  0  0
    1.0624   -0.7776   -1.4880 C   0  0  0  1  0  0  0  0  0  0  0  0
    0.5387   -1.6600   -1.1846 H   0  0  0  1  0  0  0  0  0  0  0  0
    2.4232   -0.8606   -1.0621 O   0  0  0  1  0  0  0  0  0  0  0  0
    2.6853   -1.7824   -1.0044 H   0  0  0  1  0  0  0  0  0  0  0  0
    0.3979    0.4621   -0.9346 C   0  0  0  1  0  0  0  0  0  0  0  0
    1.1032    1.2615   -0.8436 H   0  0  0  1  0  0  0  0  0  0  0  0
   -0.2024    0.1889    0.3726 N   0  0  0  1  0  0  0  0  0  0  0  0
   -0.7438   -0.9852    0.7983 C   0  0  0  1  0  0  0  0  0  0  0  0
   -0.7727   -1.8365    0.2017 H   0  0  0  1  0  0  0  0  0  0  0  0
   -1.2241   -0.9622    2.0119 N   0  0  0  1  0  0  0  0  0  0  0  0
   -0.9744    0.3340    2.4352 C   0  0  0  1  0  0  0  0  0  0  0  0
   -1.2296    1.0377    3.6085 C   0  0  0  1  0  0  0  0  0  0  0  0
   -1.8558    0.4814    4.6926 N   0  0  0  1  0  0  0  0  0  0  0  0
   -2.0998   -0.4677    4.6838 H   0  0  0  1  0  0  0  0  0  0  0  0
   -2.0598    1.0325    5.4768 H   0  0  0  1  0  0  0  0  0  0  0  0
   -0.8563    2.3181    3.7082 N   0  0  0  1  0  0  0  0  0  0  0  0
   -0.2541    2.8824    2.6495 C   0  0  0  1  0  0  0  0  0  0  0  0
    0.0169    3.8798    2.7650 H   0  0  0  1  0  0  0  0  0  0  0  0
    0.0421    2.3393    1.4751 N   0  0  0  1  0  0  0  0  0  0  0  0
   -0.3362    1.0614    1.4217 C   0  0  0  1  0  0  0  0  0  0  0  0
  1  2  1  0  0  0  0
  1  3  1  0  0  0  0
  3  4  1  0  0  0  0
  3  5  1  0  0  0  0
  3  6  1  0  0  0  0
  6  7  1  0  0  0  0
  6  8  1  0  0  0  0
  6  9  1  0  0  0  0
  8 17  1  0  0  0  0
  9 10  1  0  0  0  0
  9 11  1  0  0  0  0
  9 13  1  0  0  0  0
 11 12  1  0  0  0  0
 13 14  1  0  0  0  0
 13 15  1  0  0  0  0
 13 17  1  0  0  0  0
 15 16  1  0  0  0  0
 17 18  1  0  0  0  0
 17 19  1  0  0  0  0
 19 20  1  0  0  0  0
 19 32  1  0  0  0  0
 20 21  1  0  0  0  0
 20 22  2  0  0  0  0
 22 23  1  0  0  0  0
 23 24  1  0  0  0  0
 23 32  2  0  0  0  0
 24 25  1  0  0  0  0
 24 28  2  0  0  0  0
 25 26  1  0  0  0  0
 25 27  1  0  0  0  0
 28 29  1  0  0  0  0
 29 30  1  0  0  0  0
 29 31  2  0  0  0  0
 31 32  1  0  0  0  0
M  END
> <ConfClashScore>
0 

> <ConfOneFourInteractionScore>
-0.971465 

> <ConfScore>
0.169909 

> <ConfScorePBest>
0.0108755 

> <ConfTolerance>
0.318711 

$$$$
ADN.****
  PyMOL2.4          3D                             0

 32 34  0  0  0  0  0  0  0  0999 V2000
   -2.1972    0.9864   -4.2210 O   0  0  0  1  0  0  0  0  0  0  0  0
   -1.9571    1.7679   -4.7243 H   0  0  0  1  0  0  0  0  0  0  0  0
   -1.1024    0.0753   -4.2066 C   0  0  0  1  0  0  0  0  0  0  0  0
   -0.5916    0.1375   -5.1447 H   0  0  0  1  0  0  0  0  0  0  0  0
   -1.4824   -0.9158   -4.0719 H   0  0  0  1  0  0  0  0  0  0  0  0
   -0.1198    0.3721   -3.0993 C   0  0  0  1  0  0  0  0  0  0  0  0
    0.4349    1.2546   -3.3411 H   0  0  0  1  0  0  0  0  0  0  0  0
   -0.8065    0.5321   -1.8391 O   0  0  0  1  0  0  0  0  0  0  0  0
    0.8304   -0.8246   -2.8802 C   0  0  0  1  0  0  0  0  0  0  0  0
    0.3801   -1.7342   -3.2190 H   0  0  0  1  0  0  0  0  0  0  0  0
    2.0677   -0.6214   -3.5643 O   0  0  0  1  0  0  0  0  0  0  0  0
    2.2563    0.3186   -3.6132 H   0  0  0  1  0  0  0  0  0  0  0  0
    1.0484   -0.8569   -1.3491 C   0  0  0  1  0  0  0  0  0  0  0  0
    0.7073   -1.7831   -0.9359 H   0  0  0  1  0  0  0  0  0  0  0  0
    2.4279   -0.6714   -1.0287 O   0  0  0  1  0  0  0  0  0  0  0  0
    2.8758   -0.2560   -1.7693 H   0  0  0  1  0  0  0  0  0  0  0  0
    0.2004    0.3225   -0.8264 C   0  0  0  1  0  0  0  0  0  0  0  0
    0.8045    1.1978   -0.7092 H   0  0  0  1  0  0  0  0  0  0  0  0
   -0.4200   -0.0173    0.4534 N   0  0  0  1  0  0  0  0  0  0  0  0
   -0.5467   -1.2753    0.9576 C   0  0  0  1  0  0  0  0  0  0  0  0
   -0.2604   -2.1222    0.4261 H   0  0  0  1  0  0  0  0  0  0  0  0
   -1.0546   -1.3387    2.1583 N   0  0  0  1  0  0  0  0  0  0  0  0
   -1.2777   -0.0107    2.4870 C   0  0  0  1  0  0  0  0  0  0  0  0
   -1.8038    0.6383    3.6001 C   0  0  0  1  0  0  0  0  0  0  0  0
   -2.2681    0.0188    4.7554 N   0  0  0  1  0  0  0  0  0  0  0  0
   -2.1342   -0.9436    4.8829 H   0  0  0  1  0  0  0  0  0  0  0  0
   -2.7291    0.5446    5.4419 H   0  0  0  1  0  0  0  0  0  0  0  0
   -1.8923    1.9728    3.6092 N   0  0  0  1  0  0  0  0  0  0  0  0
   -1.4758    2.6386    2.5206 C   0  0  0  1  0  0  0  0  0  0  0  0
   -1.5648    3.6738    2.5651 H   0  0  0  1  0  0  0  0  0  0  0  0
   -0.9656    2.1542    1.3950 N   0  0  0  1  0  0  0  0  0  0  0  0
   -0.8845    0.8234    1.4318 C   0  0  0  1  0  0  0  0  0  0  0  0
  1  2  1  0  0  0  0
  1  3  1  0  0  0  0
  3  4  1  0  0  0  0
  3  5  1  0  0  0  0
  3  6  1  0  0  0  0
  6  7  1  0  0  0  0
  6  8  1  0  0  0  0
  6  9  1  0  0  0  0
  8 17  1  0  0  0  0
  9 10  1  0  0  0  0
  9 11  1  0  0  0  0
  9 13  1  0  0  0  0
 11 12  1  0  0  0  0
 13 14  1  0  0  0  0
 13 15  1  0  0  0  0
 13 17  1  0  0  0  0
 15 16  1  0  0  0  0
 17 18  1  0  0  0  0
 17 19  1  0  0  0  0
 19 20  1  0  0  0  0
 19 32  1  0  0  0  0
 20 21  1  0  0  0  0
 20 22  2  0  0  0  0
 22 23  1  0  0  0  0
 23 24  1  0  0  0  0
 23 32  2  0  0  0  0
 24 25  1  0  0  0  0
 24 28  2  0  0  0  0
 25 26  1  0  0  0  0
 25 27  1  0  0  0  0
 28 29  1  0  0  0  0
 29 30  1  0  0  0  0
 29 31  2  0  0  0  0
 31 32  1  0  0  0  0
M  END
> <ConfClashScore>
0 

> <ConfOneFourInteractionScore>
-0.970688 

> <ConfScore>
0.170617 

> <ConfScorePBest>
0.0107725 

> <ConfTolerance>
0.25 

$$$$
ADN.****
  PyMOL2.4          3D                             0

 32 34  0  0  0  0  0  0  0  0999 V2000
   -1.9299    1.5206   -4.0387 O   0  0  0  1  0  0  0  0  0  0  0  0
   -2.1353    1.8445   -3.1587 H   0  0  0  1  0  0  0  0  0  0  0  0
   -1.1719    0.3223   -3.9384 C   0  0  0  1  0  0  0  0  0  0  0  0
   -0.8680    0.0108   -4.9160 H   0  0  0  1  0  0  0  0  0  0  0  0
   -1.7724   -0.4419   -3.4907 H   0  0  0  1  0  0  0  0  0  0  0  0
    0.0442    0.5625   -3.0905 C   0  0  0  1  0  0  0  0  0  0  0  0
    0.6855    1.2673   -3.5772 H   0  0  0  1  0  0  0  0  0  0  0  0
   -0.3368    1.0429   -1.7815 O   0  0  0  1  0  0  0  0  0  0  0  0
    0.7875   -0.7514   -2.8320 C   0  0  0  1  0  0  0  0  0  0  0  0
    0.1331   -1.5907   -2.9427 H   0  0  0  1  0  0  0  0  0  0  0  0
    1.8993   -0.8938   -3.7173 O   0  0  0  1  0  0  0  0  0  0  0  0
    1.7268   -0.4106   -4.5287 H   0  0  0  1  0  0  0  0  0  0  0  0
    1.2479   -0.6098   -1.4050 C   0  0  0  1  0  0  0  0  0  0  0  0
    1.3588   -1.5665   -0.9387 H   0  0  0  1  0  0  0  0  0  0  0  0
    2.4835    0.1028   -1.3308 O   0  0  0  1  0  0  0  0  0  0  0  0
    3.1229   -0.4149   -0.8360 H   0  0  0  1  0  0  0  0  0  0  0  0
    0.1073    0.1912   -0.7605 C   0  0  0  1  0  0  0  0  0  0  0  0
    0.4655    0.7557    0.0749 H   0  0  0  1  0  0  0  0  0  0  0  0
   -0.9686   -0.6989   -0.3233 N   0  0  0  1  0  0  0  0  0  0  0  0
   -1.5405   -1.7075   -1.0363 C   0  0  0  1  0  0  0  0  0  0  0  0
   -1.2407   -1.9493   -2.0024 H   0  0  0  1  0  0  0  0  0  0  0  0
   -2.4936   -2.3486   -0.4161 N   0  0  0  1  0  0  0  0  0  0  0  0
   -2.5574   -1.7207    0.8181 C   0  0  0  1  0  0  0  0  0  0  0  0
   -3.3471   -1.8873    1.9519 C   0  0  0  1  0  0  0  0  0  0  0  0
   -4.3282   -2.8389    2.0462 N   0  0  0  1  0  0  0  0  0  0  0  0
   -4.4599   -3.4808    1.3174 H   0  0  0  1  0  0  0  0  0  0  0  0
   -4.8982   -2.8778    2.8423 H   0  0  0  1  0  0  0  0  0  0  0  0
   -3.1599   -1.0946    3.0126 N   0  0  0  1  0  0  0  0  0  0  0  0
   -2.2121   -0.1475    2.9311 C   0  0  0  1  0  0  0  0  0  0  0  0
   -2.1003    0.4507    3.7745 H   0  0  0  1  0  0  0  0  0  0  0  0
   -1.3983    0.1286    1.9195 N   0  0  0  1  0  0  0  0  0  0  0  0
   -1.6099   -0.6906    0.8884 C   0  0  0  1  0  0  0  0  0  0  0  0
  1  2  1  0  0  0  0
  1  3  1  0  0  0  0
  3  4  1  0  0  0  0
  3  5  1  0  0  0  0
  3  6  1  0  0  0  0
  6  7  1  0  0  0  0
  6  8  1  0  0  0  0
  6  9  1  0  0  0  0
  8 17  1  0  0  0  0
  9 10  1  0  0  0  0
  9 11  1  0  0  0  0
  9 13  1  0  0  0  0
 11 12  1  0  0  0  0
 13 14  1  0  0  0  0
 13 15  1  0  0  0  0
 13 17  1  0  0  0  0
 15 16  1  0  0  0  0
 17 18  1  0  0  0  0
 17 19  1  0  0  0  0
 19 20  1  0  0  0  0
 19 32  1  0  0  0  0
 20 21  1  0  0  0  0
 20 22  2  0  0  0  0
 22 23  1  0  0  0  0
 23 24  1  0  0  0  0
 23 32  2  0  0  0  0
 24 25  1  0  0  0  0
 24 28  2  0  0  0  0
 25 26  1  0  0  0  0
 25 27  1  0  0  0  0
 28 29  1  0  0  0  0
 29 30  1  0  0  0  0
 29 31  2  0  0  0  0
 31 32  1  0  0  0  0
M  END
> <ConfClashScore>
0 

> <ConfOneFourInteractionScore>
-0.970688 

> <ConfScore>
0.170967 

> <ConfScorePBest>
0.0106695 

> <ConfTolerance>
0.393458 

$$$$
ADN.****
  PyMOL2.4          3D                             0

 32 34  0  0  0  0  0  0  0  0999 V2000
   -1.8306   -1.1558   -4.0162 O   0  0  0  1  0  0  0  0  0  0  0  0
   -1.7852   -1.6259   -4.8520 H   0  0  0  1  0  0  0  0  0  0  0  0
   -1.2299    0.1246   -4.1588 C   0  0  0  1  0  0  0  0  0  0  0  0
   -1.9911    0.8720   -4.0767 H   0  0  0  1  0  0  0  0  0  0  0  0
   -0.7736    0.1841   -5.1248 H   0  0  0  1  0  0  0  0  0  0  0  0
   -0.1830    0.3863   -3.1145 C   0  0  0  1  0  0  0  0  0  0  0  0
    0.3647    1.2689   -3.3712 H   0  0  0  1  0  0  0  0  0  0  0  0
   -0.7883    0.5244   -1.8107 O   0  0  0  1  0  0  0  0  0  0  0  0
    0.7665   -0.8235   -2.9811 C   0  0  0  1  0  0  0  0  0  0  0  0
    0.2865   -1.7212   -3.3108 H   0  0  0  1  0  0  0  0  0  0  0  0
    1.9609   -0.6164   -3.7364 O   0  0  0  1  0  0  0  0  0  0  0  0
    2.5039    0.0457   -3.3023 H   0  0  0  1  0  0  0  0  0  0  0  0
    1.0789   -0.8919   -1.4675 C   0  0  0  1  0  0  0  0  0  0  0  0
    0.7544   -1.8239   -1.0540 H   0  0  0  1  0  0  0  0  0  0  0  0
    2.4775   -0.7260   -1.2299 O   0  0  0  1  0  0  0  0  0  0  0  0
    2.6897    0.2100   -1.2062 H   0  0  0  1  0  0  0  0  0  0  0  0
    0.2773    0.2832   -0.8675 C   0  0  0  1  0  0  0  0  0  0  0  0
    0.8966    1.1502   -0.7693 H   0  0  0  1  0  0  0  0  0  0  0  0
   -0.2706   -0.0825    0.4523 N   0  0  0  1  0  0  0  0  0  0  0  0
    0.4349   -0.0732    1.6163 C   0  0  0  1  0  0  0  0  0  0  0  0
    1.4356    0.2066    1.6614 H   0  0  0  1  0  0  0  0  0  0  0  0
   -0.2390   -0.4419    2.6716 N   0  0  0  1  0  0  0  0  0  0  0  0
   -1.5033   -0.7117    2.1715 C   0  0  0  1  0  0  0  0  0  0  0  0
   -2.6963   -1.1534    2.7361 C   0  0  0  1  0  0  0  0  0  0  0  0
   -2.8339   -1.4278    4.0655 N   0  0  0  1  0  0  0  0  0  0  0  0
   -2.1100   -1.2086    4.6886 H   0  0  0  1  0  0  0  0  0  0  0  0
   -3.6567   -1.8442    4.3973 H   0  0  0  1  0  0  0  0  0  0  0  0
   -3.7729   -1.3249    1.9614 N   0  0  0  1  0  0  0  0  0  0  0  0
   -3.6503   -1.0729    0.6486 C   0  0  0  1  0  0  0  0  0  0  0  0
   -4.5082   -1.2222    0.0799 H   0  0  0  1  0  0  0  0  0  0  0  0
   -2.5820   -0.6589   -0.0217 N   0  0  0  1  0  0  0  0  0  0  0  0
   -1.5359   -0.4899    0.7882 C   0  0  0  1  0  0  0  0  0  0  0  0
  1  2  1  0  0  0  0
  1  3  1  0  0  0  0
  3  4  1  0  0  0  0
  3  5  1  0  0  0  0
  3  6  1  0  0  0  0
  6  7  1  0  0  0  0
  6  8  1  0  0  0  0
  6  9  1  0  0  0  0
  8 17  1  0  0  0  0
  9 10  1  0  0  0  0
  9 11  1  0  0  0  0
  9 13  1  0  0  0  0
 11 12  1  0  0  0  0
 13 14  1  0  0  0  0
 13 15  1  0  0  0  0
 13 17  1  0  0  0  0
 15 16  1  0  0  0  0
 17 18  1  0  0  0  0
 17 19  1  0  0  0  0
 19 20  1  0  0  0  0
 19 32  1  0  0  0  0
 20 21  1  0  0  0  0
 20 22  2  0  0  0  0
 22 23  1  0  0  0  0
 23 24  1  0  0  0  0
 23 32  2  0  0  0  0
 24 25  1  0  0  0  0
 24 28  2  0  0  0  0
 25 26  1  0  0  0  0
 25 27  1  0  0  0  0
 28 29  1  0  0  0  0
 29 30  1  0  0  0  0
 29 31  2  0  0  0  0
 31 32  1  0  0  0  0
M  END
> <ConfClashScore>
0 

> <ConfOneFourInteractionScore>
-0.980915 

> <ConfScore>
0.173532 

> <ConfScorePBest>
0.0105665 

> <ConfTolerance>
0.25 

$$$$
ADN.****
  PyMOL2.4          3D                             0

 32 34  0  0  0  0  0  0  0  0999 V2000
   -1.4892    1.7285   -4.3706 O   0  0  0  1  0  0  0  0  0  0  0  0
   -1.2239    2.0608   -5.2313 H   0  0  0  1  0  0  0  0  0  0  0  0
   -0.8780    0.4660   -4.1403 C   0  0  0  1  0  0  0  0  0  0  0  0
   -0.3883    0.1397   -5.0339 H   0  0  0  1  0  0  0  0  0  0  0  0
   -1.6267   -0.2463   -3.8628 H   0  0  0  1  0  0  0  0  0  0  0  0
    0.1363    0.5874   -3.0277 C   0  0  0  1  0  0  0  0  0  0  0  0
    0.8474    1.3480   -3.2740 H   0  0  0  1  0  0  0  0  0  0  0  0
   -0.4949    0.8736   -1.8093 O   0  0  0  1  0  0  0  0  0  0  0  0
    0.8393   -0.7558   -2.7836 C   0  0  0  1  0  0  0  0  0  0  0  0
    0.1719   -1.5759   -2.9475 H   0  0  0  1  0  0  0  0  0  0  0  0
    1.9849   -0.8979   -3.6249 O   0  0  0  1  0  0  0  0  0  0  0  0
    1.7695   -1.4689   -4.3659 H   0  0  0  1  0  0  0  0  0  0  0  0
    1.2383   -0.6618   -1.3342 C   0  0  0  1  0  0  0  0  0  0  0  0
    1.3088   -1.6334   -0.8918 H   0  0  0  1  0  0  0  0  0  0  0  0
    2.4851    0.0198   -1.1893 O   0  0  0  1  0  0  0  0  0  0  0  0
    2.4971    0.7910   -1.7610 H   0  0  0  1  0  0  0  0  0  0  0  0
    0.0956    0.1445   -0.7098 C   0  0  0  1  0  0  0  0  0  0  0  0
    0.4728    0.8200    0.0294 H   0  0  0  1  0  0  0  0  0  0  0  0
   -0.8889   -0.7487   -0.0982 N   0  0  0  1  0  0  0  0  0  0  0  0
   -1.7756   -0.4414    0.8878 C   0  0  0  1  0  0  0  0  0  0  0  0
   -1.8371    0.5076    1.3086 H   0  0  0  1  0  0  0  0  0  0  0  0
   -2.5428   -1.4276    1.2654 N   0  0  0  1  0  0  0  0  0  0  0  0
   -2.1404   -2.4797    0.4573 C   0  0  0  1  0  0  0  0  0  0  0  0
   -2.5247   -3.8117    0.3356 C   0  0  0  1  0  0  0  0  0  0  0  0
   -3.5074   -4.3793    1.1031 N   0  0  0  1  0  0  0  0  0  0  0  0
   -3.9202   -3.8660    1.8288 H   0  0  0  1  0  0  0  0  0  0  0  0
   -3.7976   -5.2985    0.9265 H   0  0  0  1  0  0  0  0  0  0  0  0
   -1.9224   -4.5959   -0.5649 N   0  0  0  1  0  0  0  0  0  0  0  0
   -0.9474   -4.0589   -1.3152 C   0  0  0  1  0  0  0  0  0  0  0  0
   -0.5013   -4.7017   -2.0003 H   0  0  0  1  0  0  0  0  0  0  0  0
   -0.4758   -2.8182   -1.3008 N   0  0  0  1  0  0  0  0  0  0  0  0
   -1.1100   -2.0680   -0.3985 C   0  0  0  1  0  0  0  0  0  0  0  0
  1  2  1  0  0  0  0
  1  3  1  0  0  0  0
  3  4  1  0  0  0  0
  3  5  1  0  0  0  0
  3  6  1  0  0  0  0
  6  7  1  0  0  0  0
  6  8  1  0  0  0  0
  6  9  1  0  0  0  0
  8 17  1  0  0  0  0
  9 10  1  0  0  0  0
  9 11  1  0  0  0  0
  9 13  1  0  0  0  0
 11 12  1  0  0  0  0
 13 14  1  0  0  0  0
 13 15  1  0  0  0  0
 13 17  1  0  0  0  0
 15 16  1  0  0  0  0
 17 18  1  0  0  0  0
 17 19  1  0  0  0  0
 19 20  1  0  0  0  0
 19 32  1  0  0  0  0
 20 21  1  0  0  0  0
 20 22  2  0  0  0  0
 22 23  1  0  0  0  0
 23 24  1  0  0  0  0
 23 32  2  0  0  0  0
 24 25  1  0  0  0  0
 24 28  2  0  0  0  0
 25 26  1  0  0  0  0
 25 27  1  0  0  0  0
 28 29  1  0  0  0  0
 29 30  1  0  0  0  0
 29 31  2  0  0  0  0
 31 32  1  0  0  0  0
M  END
> <ConfClashScore>
0 

> <ConfOneFourInteractionScore>
-0.966157 

> <ConfScore>
0.173778 

> <ConfScorePBest>
0.0104635 

> <ConfTolerance>
0.363262 

$$$$
ADN.****
  PyMOL2.4          3D                             0

 32 34  0  0  0  0  0  0  0  0999 V2000
   -1.7681   -0.7972   -4.1715 O   0  0  0  1  0  0  0  0  0  0  0  0
   -1.2190   -1.5758   -4.0531 H   0  0  0  1  0  0  0  0  0  0  0  0
   -0.9504    0.3520   -4.2261 C   0  0  0  1  0  0  0  0  0  0  0  0
   -1.5857    1.2112   -4.2819 H   0  0  0  1  0  0  0  0  0  0  0  0
   -0.3508    0.2932   -5.1104 H   0  0  0  1  0  0  0  0  0  0  0  0
   -0.0275    0.5241   -3.0411 C   0  0  0  1  0  0  0  0  0  0  0  0
    0.5885    1.3862   -3.1903 H   0  0  0  1  0  0  0  0  0  0  0  0
   -0.7827    0.6466   -1.8257 O   0  0  0  1  0  0  0  0  0  0  0  0
    0.8160   -0.6999   -2.8471 C   0  0  0  1  0  0  0  0  0  0  0  0
    0.2656   -1.5873   -3.0805 H   0  0  0  1  0  0  0  0  0  0  0  0
    1.9945   -0.6442   -3.6523 O   0  0  0  1  0  0  0  0  0  0  0  0
    2.3082   -1.5352   -3.8233 H   0  0  0  1  0  0  0  0  0  0  0  0
    1.1605   -0.6447   -1.3732 C   0  0  0  1  0  0  0  0  0  0  0  0
    1.1481   -1.6263   -0.9476 H   0  0  0  1  0  0  0  0  0  0  0  0
    2.4485   -0.0579   -1.1810 O   0  0  0  1  0  0  0  0  0  0  0  0
    2.6822    0.4620   -1.9534 H   0  0  0  1  0  0  0  0  0  0  0  0
    0.0845    0.2189   -0.7491 C   0  0  0  1  0  0  0  0  0  0  0  0
    0.5252    1.0687   -0.2711 H   0  0  0  1  0  0  0  0  0  0  0  0
   -0.6761   -0.5550    0.2339 N   0  0  0  1  0  0  0  0  0  0  0  0
   -1.9707   -0.9469    0.0812 C   0  0  0  1  0  0  0  0  0  0  0  0
   -2.5253   -0.7251   -0.7702 H   0  0  0  1  0  0  0  0  0  0  0  0
   -2.4636   -1.6220    1.0838 N   0  0  0  1  0  0  0  0  0  0  0  0
   -1.4063   -1.6945    1.9774 C   0  0  0  1  0  0  0  0  0  0  0  0
   -1.2401   -2.2546    3.2405 C   0  0  0  1  0  0  0  0  0  0  0  0
   -2.2377   -2.9250    3.8980 N   0  0  0  1  0  0  0  0  0  0  0  0
   -3.1326   -2.9822    3.5029 H   0  0  0  1  0  0  0  0  0  0  0  0
   -2.0563   -3.3474    4.7635 H   0  0  0  1  0  0  0  0  0  0  0  0
   -0.0614   -2.1476    3.8634 N   0  0  0  1  0  0  0  0  0  0  0  0
    0.9223   -1.4813    3.2387 C   0  0  0  1  0  0  0  0  0  0  0  0
    1.8215   -1.4165    3.7573 H   0  0  0  1  0  0  0  0  0  0  0  0
    0.9025   -0.8940    2.0485 N   0  0  0  1  0  0  0  0  0  0  0  0
   -0.2852   -1.0336    1.4578 C   0  0  0  1  0  0  0  0  0  0  0  0
  1  2  1  0  0  0  0
  1  3  1  0  0  0  0
  3  4  1  0  0  0  0
  3  5  1  0  0  0  0
  3  6  1  0  0  0  0
  6  7  1  0  0  0  0
  6  8  1  0  0  0  0
  6  9  1  0  0  0  0
  8 17  1  0  0  0  0
  9 10  1  0  0  0  0
  9 11  1  0  0  0  0
  9 13  1  0  0  0  0
 11 12  1  0  0  0  0
 13 14  1  0  0  0  0
 13 15  1  0  0  0  0
 13 17  1  0  0  0  0
 15 16  1  0  0  0  0
 17 18  1  0  0  0  0
 17 19  1  0  0  0  0
 19 20  1  0  0  0  0
 19 32  1  0  0  0  0
 20 21  1  0  0  0  0
 20 22  2  0  0  0  0
 22 23  1  0  0  0  0
 23 24  1  0  0  0  0
 23 32  2  0  0  0  0
 24 25  1  0  0  0  0
 24 28  2  0  0  0  0
 25 26  1  0  0  0  0
 25 27  1  0  0  0  0
 28 29  1  0  0  0  0
 29 30  1  0  0  0  0
 29 31  2  0  0  0  0
 31 32  1  0  0  0  0
M  END
> <ConfClashScore>
0 

> <ConfOneFourInteractionScore>
-0.986581 

> <ConfScore>
0.175243 

> <ConfScorePBest>
0.0103605 

> <ConfTolerance>
0.437524 

$$$$
ADN.****
  PyMOL2.4          3D                             0

 32 34  0  0  0  0  0  0  0  0999 V2000
   -2.5179    0.3784   -3.9647 O   0  0  0  1  0  0  0  0  0  0  0  0
   -3.3258    0.1480   -3.5003 H   0  0  0  1  0  0  0  0  0  0  0  0
   -1.4900   -0.5379   -3.6119 C   0  0  0  1  0  0  0  0  0  0  0  0
   -1.2285   -1.1373   -4.4588 H   0  0  0  1  0  0  0  0  0  0  0  0
   -1.8222   -1.1705   -2.8155 H   0  0  0  1  0  0  0  0  0  0  0  0
   -0.3022    0.2663   -3.1665 C   0  0  0  1  0  0  0  0  0  0  0  0
   -0.0904    1.0228   -3.8930 H   0  0  0  1  0  0  0  0  0  0  0  0
   -0.5594    0.8657   -1.8842 O   0  0  0  1  0  0  0  0  0  0  0  0
    0.9283   -0.6549   -2.9776 C   0  0  0  1  0  0  0  0  0  0  0  0
    0.8016   -1.5793   -3.5015 H   0  0  0  1  0  0  0  0  0  0  0  0
    2.1240   -0.0139   -3.4241 O   0  0  0  1  0  0  0  0  0  0  0  0
    2.4637    0.5521   -2.7271 H   0  0  0  1  0  0  0  0  0  0  0  0
    0.9549   -0.8768   -1.4756 C   0  0  0  1  0  0  0  0  0  0  0  0
    0.3479   -1.7131   -1.1981 H   0  0  0  1  0  0  0  0  0  0  0  0
    2.2785   -1.0784   -1.0120 O   0  0  0  1  0  0  0  0  0  0  0  0
    2.9006   -0.7553   -1.6679 H   0  0  0  1  0  0  0  0  0  0  0  0
    0.3710    0.4369   -0.9321 C   0  0  0  1  0  0  0  0  0  0  0  0
    1.1444    1.1666   -0.8128 H   0  0  0  1  0  0  0  0  0  0  0  0
   -0.2877    0.2071    0.3565 N   0  0  0  1  0  0  0  0  0  0  0  0
   -1.5312    0.6269    0.7173 C   0  0  0  1  0  0  0  0  0  0  0  0
   -2.1970    1.0503    0.0398 H   0  0  0  1  0  0  0  0  0  0  0  0
   -1.8251    0.4580    1.9779 N   0  0  0  1  0  0  0  0  0  0  0  0
   -0.6851   -0.1322    2.5008 C   0  0  0  1  0  0  0  0  0  0  0  0
   -0.3119   -0.5665    3.7693 C   0  0  0  1  0  0  0  0  0  0  0  0
   -1.1277   -0.4707    4.8588 N   0  0  0  1  0  0  0  0  0  0  0  0
   -0.8250   -0.8057    5.7286 H   0  0  0  1  0  0  0  0  0  0  0  0
   -2.0164   -0.0670    4.7715 H   0  0  0  1  0  0  0  0  0  0  0  0
    0.8972   -1.1066    3.9561 N   0  0  0  1  0  0  0  0  0  0  0  0
    1.7175   -1.1951    2.8971 C   0  0  0  1  0  0  0  0  0  0  0  0
    2.6495   -1.6168    3.0842 H   0  0  0  1  0  0  0  0  0  0  0  0
    1.4996   -0.8170    1.6436 N   0  0  0  1  0  0  0  0  0  0  0  0
    0.2807   -0.2951    1.4986 C   0  0  0  1  0  0  0  0  0  0  0  0
  1  2  1  0  0  0  0
  1  3  1  0  0  0  0
  3  4  1  0  0  0  0
  3  5  1  0  0  0  0
  3  6  1  0  0  0  0
  6  7  1  0  0  0  0
  6  8  1  0  0  0  0
  6  9  1  0  0  0  0
  8 17  1  0  0  0  0
  9 10  1  0  0  0  0
  9 11  1  0  0  0  0
  9 13  1  0  0  0  0
 11 12  1  0  0  0  0
 13 14  1  0  0  0  0
 13 15  1  0  0  0  0
 13 17  1  0  0  0  0
 15 16  1  0  0  0  0
 17 18  1  0  0  0  0
 17 19  1  0  0  0  0
 19 20  1  0  0  0  0
 19 32  1  0  0  0  0
 20 21  1  0  0  0  0
 20 22  2  0  0  0  0
 22 23  1  0  0  0  0
 23 24  1  0  0  0  0
 23 32  2  0  0  0  0
 24 25  1  0  0  0  0
 24 28  2  0  0  0  0
 25 26  1  0  0  0  0
 25 27  1  0  0  0  0
 28 29  1  0  0  0  0
 29 30  1  0  0  0  0
 29 31  2  0  0  0  0
 31 32  1  0  0  0  0
M  END
> <ConfClashScore>
0 

> <ConfOneFourInteractionScore>
-0.970696 

> <ConfScore>
0.176831 

> <ConfScorePBest>
0.0102575 

> <ConfTolerance>
0.39548 

$$$$
ADN.****
  PyMOL2.4          3D                             0

 32 34  0  0  0  0  0  0  0  0999 V2000
   -1.4789    1.7194   -4.4245 O   0  0  0  1  0  0  0  0  0  0  0  0
   -2.4380    1.6789   -4.4358 H   0  0  0  1  0  0  0  0  0  0  0  0
   -0.9528    0.4304   -4.1381 C   0  0  0  1  0  0  0  0  0  0  0  0
   -0.4899    0.0222   -5.0122 H   0  0  0  1  0  0  0  0  0  0  0  0
   -1.7373   -0.2203   -3.8125 H   0  0  0  1  0  0  0  0  0  0  0  0
    0.0718    0.5923   -3.0401 C   0  0  0  1  0  0  0  0  0  0  0  0
    0.7531    1.3754   -3.2999 H   0  0  0  1  0  0  0  0  0  0  0  0
   -0.5524    0.8635   -1.8146 O   0  0  0  1  0  0  0  0  0  0  0  0
    0.8234   -0.7248   -2.7989 C   0  0  0  1  0  0  0  0  0  0  0  0
    0.1822   -1.5680   -2.9496 H   0  0  0  1  0  0  0  0  0  0  0  0
    1.9628   -0.8324   -3.6559 O   0  0  0  1  0  0  0  0  0  0  0  0
    2.0444   -1.7364   -3.9684 H   0  0  0  1  0  0  0  0  0  0  0  0
    1.2385   -0.6093   -1.3557 C   0  0  0  1  0  0  0  0  0  0  0  0
    1.3482   -1.5756   -0.9094 H   0  0  0  1  0  0  0  0  0  0  0  0
    2.4631    0.1151   -1.2312 O   0  0  0  1  0  0  0  0  0  0  0  0
    2.5507    0.7254   -1.9671 H   0  0  0  1  0  0  0  0  0  0  0  0
    0.0775    0.1609   -0.7196 C   0  0  0  1  0  0  0  0  0  0  0  0
    0.4413    0.8529    0.0109 H   0  0  0  1  0  0  0  0  0  0  0  0
   -0.8668   -0.7613   -0.0907 N   0  0  0  1  0  0  0  0  0  0  0  0
   -1.8073   -1.5583   -0.6676 C   0  0  0  1  0  0  0  0  0  0  0  0
   -1.9528   -1.5967   -1.6967 H   0  0  0  1  0  0  0  0  0  0  0  0
   -2.5129   -2.2709    0.1679 N   0  0  0  1  0  0  0  0  0  0  0  0
   -1.9938   -1.9272    1.4065 C   0  0  0  1  0  0  0  0  0  0  0  0
   -2.2820   -2.2987    2.7164 C   0  0  0  1  0  0  0  0  0  0  0  0
   -3.2647   -3.1969    3.0396 N   0  0  0  1  0  0  0  0  0  0  0  0
   -3.4109   -3.4476    3.9756 H   0  0  0  1  0  0  0  0  0  0  0  0
   -3.8215   -3.5887    2.3347 H   0  0  0  1  0  0  0  0  0  0  0  0
   -1.5817   -1.7690    3.7252 N   0  0  0  1  0  0  0  0  0  0  0  0
   -0.6246   -0.8764    3.4264 C   0  0  0  1  0  0  0  0  0  0  0  0
   -0.1057   -0.4846    4.2381 H   0  0  0  1  0  0  0  0  0  0  0  0
   -0.2510   -0.4263    2.2349 N   0  0  0  1  0  0  0  0  0  0  0  0
   -0.9653   -0.9870    1.2580 C   0  0  0  1  0  0  0  0  0  0  0  0
  1  2  1  0  0  0  0
  1  3  1  0  0  0  0
  3  4  1  0  0  0  0
  3  5  1  0  0  0  0
  3  6  1  0  0  0  0
  6  7  1  0  0  0  0
  6  8  1  0  0  0  0
  6  9  1  0  0  0  0
  8 17  1  0  0  0  0
  9 10  1  0  0  0  0
  9 11  1  0  0  0  0
  9 13  1  0  0  0  0
 11 12  1  0  0  0  0
 13 14  1  0  0  0  0
 13 15  1  0  0  0  0
 13 17  1  0  0  0  0
 15 16  1  0  0  0  0
 17 18  1  0  0  0  0
 17 19  1  0  0  0  0
 19 20  1  0  0  0  0
 19 32  1  0  0  0  0
 20 21  1  0  0  0  0
 20 22  2  0  0  0  0
 22 23  1  0  0  0  0
 23 24  1  0  0  0  0
 23 32  2  0  0  0  0
 24 25  1  0  0  0  0
 24 28  2  0  0  0  0
 25 26  1  0  0  0  0
 25 27  1  0  0  0  0
 28 29  1  0  0  0  0
 29 30  1  0  0  0  0
 29 31  2  0  0  0  0
 31 32  1  0  0  0  0
M  END
> <ConfClashScore>
0 

> <ConfOneFourInteractionScore>
-0.970696 

> <ConfScore>
0.177926 

> <ConfScorePBest>
0.0101545 

> <ConfTolerance>
0.434645 

$$$$
ADN.****
  PyMOL2.4          3D                             0

 32 34  0  0  0  0  0  0  0  0999 V2000
   -1.8479    1.6387   -4.0216 O   0  0  0  1  0  0  0  0  0  0  0  0
   -1.2018    2.3186   -4.2264 H   0  0  0  1  0  0  0  0  0  0  0  0
   -1.1924    0.3795   -3.9050 C   0  0  0  1  0  0  0  0  0  0  0  0
   -0.9488    0.0137   -4.8806 H   0  0  0  1  0  0  0  0  0  0  0  0
   -1.8418   -0.3154   -3.4148 H   0  0  0  1  0  0  0  0  0  0  0  0
    0.0742    0.5383   -3.0976 C   0  0  0  1  0  0  0  0  0  0  0  0
    0.7389    1.2070   -3.6037 H   0  0  0  1  0  0  0  0  0  0  0  0
   -0.2272    1.0293   -1.7720 O   0  0  0  1  0  0  0  0  0  0  0  0
    0.7446   -0.8208   -2.8763 C   0  0  0  1  0  0  0  0  0  0  0  0
    0.0363   -1.6176   -2.9676 H   0  0  0  1  0  0  0  0  0  0  0  0
    1.8032   -1.0213   -3.7967 O   0  0  0  1  0  0  0  0  0  0  0  0
    1.8323   -0.2885   -4.4161 H   0  0  0  1  0  0  0  0  0  0  0  0
    1.2660   -0.7204   -1.4668 C   0  0  0  1  0  0  0  0  0  0  0  0
    1.3354   -1.6862   -1.0114 H   0  0  0  1  0  0  0  0  0  0  0  0
    2.5450   -0.0853   -1.4349 O   0  0  0  1  0  0  0  0  0  0  0  0
    2.7110    0.2567   -0.5534 H   0  0  0  1  0  0  0  0  0  0  0  0
    0.2017    0.1430   -0.7743 C   0  0  0  1  0  0  0  0  0  0  0  0
    0.6249    0.6771    0.0507 H   0  0  0  1  0  0  0  0  0  0  0  0
   -0.9088   -0.6829   -0.3029 N   0  0  0  1  0  0  0  0  0  0  0  0
   -2.1199   -0.8496   -0.9014 C   0  0  0  1  0  0  0  0  0  0  0  0
   -2.3698   -0.3839   -1.7971 H   0  0  0  1  0  0  0  0  0  0  0  0
   -2.9441   -1.6379   -0.2664 N   0  0  0  1  0  0  0  0  0  0  0  0
   -2.2190   -2.0381    0.8451 C   0  0  0  1  0  0  0  0  0  0  0  0
   -2.4886   -2.8606    1.9350 C   0  0  0  1  0  0  0  0  0  0  0  0
   -3.7044   -3.4798    2.0589 N   0  0  0  1  0  0  0  0  0  0  0  0
   -4.3959   -3.3424    1.3783 H   0  0  0  1  0  0  0  0  0  0  0  0
   -3.8826   -4.0602    2.8282 H   0  0  0  1  0  0  0  0  0  0  0  0
   -1.5523   -3.0490    2.8711 N   0  0  0  1  0  0  0  0  0  0  0  0
   -0.3783   -2.4149    2.7237 C   0  0  0  1  0  0  0  0  0  0  0  0
    0.3215   -2.5838    3.4743 H   0  0  0  1  0  0  0  0  0  0  0  0
    0.0100   -1.6015    1.7493 N   0  0  0  1  0  0  0  0  0  0  0  0
   -0.9471   -1.4499    0.8329 C   0  0  0  1  0  0  0  0  0  0  0  0
  1  2  1  0  0  0  0
  1  3  1  0  0  0  0
  3  4  1  0  0  0  0
  3  5  1  0  0  0  0
  3  6  1  0  0  0  0
  6  7  1  0  0  0  0
  6  8  1  0  0  0  0
  6  9  1  0  0  0  0
  8 17  1  0  0  0  0
  9 10  1  0  0  0  0
  9 11  1  0  0  0  0
  9 13  1  0  0  0  0
 11 12  1  0  0  0  0
 13 14  1  0  0  0  0
 13 15  1  0  0  0  0
 13 17  1  0  0  0  0
 15 16  1  0  0  0  0
 17 18  1  0  0  0  0
 17 19  1  0  0  0  0
 19 20  1  0  0  0  0
 19 32  1  0  0  0  0
 20 21  1  0  0  0  0
 20 22  2  0  0  0  0
 22 23  1  0  0  0  0
 23 24  1  0  0  0  0
 23 32  2  0  0  0  0
 24 25  1  0  0  0  0
 24 28  2  0  0  0  0
 25 26  1  0  0  0  0
 25 27  1  0  0  0  0
 28 29  1  0  0  0  0
 29 30  1  0  0  0  0
 29 31  2  0  0  0  0
 31 32  1  0  0  0  0
M  END
> <ConfClashScore>
0 

> <ConfOneFourInteractionScore>
-0.970696 

> <ConfScore>
0.17859 

> <ConfScorePBest>
0.0100515 

> <ConfTolerance>
0.301721 

$$$$
ADN.****
  PyMOL2.4          3D                             0

 32 34  0  0  0  0  0  0  0  0999 V2000
   -2.2680    0.9704   -3.9212 O   0  0  0  1  0  0  0  0  0  0  0  0
   -2.2124    1.3267   -4.8109 H   0  0  0  1  0  0  0  0  0  0  0  0
   -1.3160   -0.0724   -3.7677 C   0  0  0  1  0  0  0  0  0  0  0  0
   -1.0373   -0.4442   -4.7315 H   0  0  0  1  0  0  0  0  0  0  0  0
   -1.7457   -0.8640   -3.1900 H   0  0  0  1  0  0  0  0  0  0  0  0
   -0.0910    0.4572   -3.0604 C   0  0  0  1  0  0  0  0  0  0  0  0
    0.3510    1.2359   -3.6462 H   0  0  0  1  0  0  0  0  0  0  0  0
   -0.4525    0.9614   -1.7836 O   0  0  0  1  0  0  0  0  0  0  0  0
    0.8471   -0.5934   -2.8686 C   0  0  0  1  0  0  0  0  0  0  0  0
    0.4590   -1.5050   -3.2728 H   0  0  0  1  0  0  0  0  0  0  0  0
    2.0772   -0.2695   -3.5183 O   0  0  0  1  0  0  0  0  0  0  0  0
    2.3446   -1.0001   -4.0808 H   0  0  0  1  0  0  0  0  0  0  0  0
    1.0630   -0.7385   -1.4726 C   0  0  0  1  0  0  0  0  0  0  0  0
    0.7846   -1.7241   -1.1628 H   0  0  0  1  0  0  0  0  0  0  0  0
    2.4379   -0.5151   -1.1701 O   0  0  0  1  0  0  0  0  0  0  0  0
    2.6192    0.4275   -1.1803 H   0  0  0  1  0  0  0  0  0  0  0  0
    0.2606    0.2212   -0.8024 C   0  0  0  1  0  0  0  0  0  0  0  0
    0.8825    0.8795   -0.2325 H   0  0  0  1  0  0  0  0  0  0  0  0
   -0.6824   -0.4565    0.0911 N   0  0  0  1  0  0  0  0  0  0  0  0
   -1.9890   -0.7443   -0.1597 C   0  0  0  1  0  0  0  0  0  0  0  0
   -2.4527   -0.5007   -1.0581 H   0  0  0  1  0  0  0  0  0  0  0  0
   -2.6160   -1.3491    0.8124 N   0  0  0  1  0  0  0  0  0  0  0  0
   -1.6438   -1.4842    1.7913 C   0  0  0  1  0  0  0  0  0  0  0  0
   -1.6275   -2.0218    3.0749 C   0  0  0  1  0  0  0  0  0  0  0  0
   -2.6885   -2.6201    3.7607 N   0  0  0  1  0  0  0  0  0  0  0  0
   -2.5372   -3.0252    4.6402 H   0  0  0  1  0  0  0  0  0  0  0  0
   -3.5837   -2.6345    3.3621 H   0  0  0  1  0  0  0  0  0  0  0  0
   -0.4978   -1.9955    3.7903 N   0  0  0  1  0  0  0  0  0  0  0  0
    0.5857   -1.4297    3.2354 C   0  0  0  1  0  0  0  0  0  0  0  0
    1.4425   -1.4253    3.8248 H   0  0  0  1  0  0  0  0  0  0  0  0
    0.7111   -0.8752    2.0359 N   0  0  0  1  0  0  0  0  0  0  0  0
   -0.4328   -0.9323    1.3524 C   0  0  0  1  0  0  0  0  0  0  0  0
  1  2  1  0  0  0  0
  1  3  1  0  0  0  0
  3  4  1  0  0  0  0
  3  5  1  0  0  0  0
  3  6  1  0  0  0  0
  6  7  1  0  0  0  0
  6  8  1  0  0  0  0
  6  9  1  0  0  0  0
  8 17  1  0  0  0  0
  9 10  1  0  0  0  0
  9 11  1  0  0  0  0
  9 13  1  0  0  0  0
 11 12  1  0  0  0  0
 13 14  1  0  0  0  0
 13 15  1  0  0  0  0
 13 17  1  0  0  0  0
 15 16  1  0  0  0  0
 17 18  1  0  0  0  0
 17 19  1  0  0  0  0
 19 20  1  0  0  0  0
 19 32  1  0  0  0  0
 20 21  1  0  0  0  0
 20 22  2  0  0  0  0
 22 23  1  0  0  0  0
 23 24  1  0  0  0  0
 23 32  2  0  0  0  0
 24 25  1  0  0  0  0
 24 28  2  0  0  0  0
 25 26  1  0  0  0  0
 25 27  1  0  0  0  0
 28 29  1  0  0  0  0
 29 30  1  0  0  0  0
 29 31  2  0  0  0  0
 31 32  1  0  0  0  0
M  END
> <ConfClashScore>
0 

> <ConfOneFourInteractionScore>
-0.975227 

> <ConfScore>
0.17874 

> <ConfScorePBest>
0.0099485 

> <ConfTolerance>
0.471235 

$$$$
ADN.****
  PyMOL2.4          3D                             0

 32 34  0  0  0  0  0  0  0  0999 V2000
   -2.5529    0.2181   -3.6441 O   0  0  0  1  0  0  0  0  0  0  0  0
   -2.3815    0.7542   -4.4217 H   0  0  0  1  0  0  0  0  0  0  0  0
   -1.4123   -0.5779   -3.3562 C   0  0  0  1  0  0  0  0  0  0  0  0
   -1.2120   -1.2251   -4.1843 H   0  0  0  1  0  0  0  0  0  0  0  0
   -1.5998   -1.1648   -2.4813 H   0  0  0  1  0  0  0  0  0  0  0  0
   -0.2161    0.3149   -3.1154 C   0  0  0  1  0  0  0  0  0  0  0  0
   -0.0844    0.9687   -3.9521 H   0  0  0  1  0  0  0  0  0  0  0  0
   -0.3814    1.0794   -1.8826 O   0  0  0  1  0  0  0  0  0  0  0  0
    1.0284   -0.5098   -2.8794 C   0  0  0  1  0  0  0  0  0  0  0  0
    0.9959   -1.4202   -3.4406 H   0  0  0  1  0  0  0  0  0  0  0  0
    2.2018    0.2251   -3.2303 O   0  0  0  1  0  0  0  0  0  0  0  0
    2.3125    0.2158   -4.1838 H   0  0  0  1  0  0  0  0  0  0  0  0
    0.9895   -0.7935   -1.3717 C   0  0  0  1  0  0  0  0  0  0  0  0
    0.4488   -1.6928   -1.1624 H   0  0  0  1  0  0  0  0  0  0  0  0
    2.3084   -0.8936   -0.8327 O   0  0  0  1  0  0  0  0  0  0  0  0
    2.9175   -1.1632   -1.5240 H   0  0  0  1  0  0  0  0  0  0  0  0
    0.2554    0.4365   -0.8146 C   0  0  0  1  0  0  0  0  0  0  0  0
    0.9572    1.1017   -0.3566 H   0  0  0  1  0  0  0  0  0  0  0  0
   -0.7362    0.0167    0.1744 N   0  0  0  1  0  0  0  0  0  0  0  0
   -1.2985   -1.2164    0.3011 C   0  0  0  1  0  0  0  0  0  0  0  0
   -1.0523   -2.0101   -0.3241 H   0  0  0  1  0  0  0  0  0  0  0  0
   -2.1699   -1.3277    1.2666 N   0  0  0  1  0  0  0  0  0  0  0  0
   -2.1842   -0.0648    1.8380 C   0  0  0  1  0  0  0  0  0  0  0  0
   -2.8843    0.5156    2.8916 C   0  0  0  1  0  0  0  0  0  0  0  0
   -3.7883   -0.2110    3.6103 N   0  0  0  1  0  0  0  0  0  0  0  0
   -4.3343    0.2267    4.2964 H   0  0  0  1  0  0  0  0  0  0  0  0
   -3.8915   -1.1707    3.4404 H   0  0  0  1  0  0  0  0  0  0  0  0
   -2.6696    1.7983    3.2034 N   0  0  0  1  0  0  0  0  0  0  0  0
   -1.7837    2.4857    2.4654 C   0  0  0  1  0  0  0  0  0  0  0  0
   -1.6480    3.4805    2.7367 H   0  0  0  1  0  0  0  0  0  0  0  0
   -1.0573    2.0671    1.4363 N   0  0  0  1  0  0  0  0  0  0  0  0
   -1.2929    0.7824    1.1661 C   0  0  0  1  0  0  0  0  0  0  0  0
  1  2  1  0  0  0  0
  1  3  1  0  0  0  0
  3  4  1  0  0  0  0
  3  5  1  0  0  0  0
  3  6  1  0  0  0  0
  6  7  1  0  0  0  0
  6  8  1  0  0  0  0
  6  9  1  0  0  0  0
  8 17  1  0  0  0  0
  9 10  1  0  0  0  0
  9 11  1  0  0  0  0
  9 13  1  0  0  0  0
 11 12  1  0  0  0  0
 13 14  1  0  0  0  0
 13 15  1  0  0  0  0
 13 17  1  0  0  0  0
 15 16  1  0  0  0  0
 17 18  1  0  0  0  0
 17 19  1  0  0  0  0
 19 20  1  0  0  0  0
 19 32  1  0  0  0  0
 20 21  1  0  0  0  0
 20 22  2  0  0  0  0
 22 23  1  0  0  0  0
 23 24  1  0  0  0  0
 23 32  2  0  0  0  0
 24 25  1  0  0  0  0
 24 28  2  0  0  0  0
 25 26  1  0  0  0  0
 25 27  1  0  0  0  0
 28 29  1  0  0  0  0
 29 30  1  0  0  0  0
 29 31  2  0  0  0  0
 31 32  1  0  0  0  0
M  END
> <ConfClashScore>
0 

> <ConfOneFourInteractionScore>
-0.966157 

> <ConfScore>
0.180674 

> <ConfScorePBest>
0.0098455 

> <ConfTolerance>
0.492654 

$$$$
ADN.****
  PyMOL2.4          3D                             0

 32 34  0  0  0  0  0  0  0  0999 V2000
   -1.7964   -1.4156   -2.6396 O   0  0  0  1  0  0  0  0  0  0  0  0
   -1.4903   -2.2810   -2.9206 H   0  0  0  1  0  0  0  0  0  0  0  0
   -1.4688   -0.4513   -3.6313 C   0  0  0  1  0  0  0  0  0  0  0  0
   -2.2790    0.2369   -3.7533 H   0  0  0  1  0  0  0  0  0  0  0  0
   -1.2707   -0.9385   -4.5631 H   0  0  0  1  0  0  0  0  0  0  0  0
   -0.2343    0.2832   -3.1602 C   0  0  0  1  0  0  0  0  0  0  0  0
    0.0263    1.0375   -3.8730 H   0  0  0  1  0  0  0  0  0  0  0  0
   -0.4698    0.8767   -1.8709 O   0  0  0  1  0  0  0  0  0  0  0  0
    0.9411   -0.7081   -2.9750 C   0  0  0  1  0  0  0  0  0  0  0  0
    0.7680   -1.6160   -3.5142 H   0  0  0  1  0  0  0  0  0  0  0  0
    2.1753   -0.1281   -3.4013 O   0  0  0  1  0  0  0  0  0  0  0  0
    2.1286    0.8266   -3.3116 H   0  0  0  1  0  0  0  0  0  0  0  0
    0.9410   -0.9536   -1.4765 C   0  0  0  1  0  0  0  0  0  0  0  0
    0.2858   -1.7588   -1.2172 H   0  0  0  1  0  0  0  0  0  0  0  0
    2.2574   -1.2382   -1.0008 O   0  0  0  1  0  0  0  0  0  0  0  0
    2.8256   -0.4805   -1.1577 H   0  0  0  1  0  0  0  0  0  0  0  0
    0.4262    0.3823   -0.9176 C   0  0  0  1  0  0  0  0  0  0  0  0
    1.2380    1.0657   -0.7803 H   0  0  0  1  0  0  0  0  0  0  0  0
   -0.2554    0.1706    0.3597 N   0  0  0  1  0  0  0  0  0  0  0  0
    0.3209   -0.0819    1.5667 C   0  0  0  1  0  0  0  0  0  0  0  0
    1.3382   -0.2708    1.6720 H   0  0  0  1  0  0  0  0  0  0  0  0
   -0.4993   -0.0693    2.5820 N   0  0  0  1  0  0  0  0  0  0  0  0
   -1.7251    0.2251    2.0054 C   0  0  0  1  0  0  0  0  0  0  0  0
   -3.0173    0.3801    2.4986 C   0  0  0  1  0  0  0  0  0  0  0  0
   -3.3310    0.2519    3.8260 N   0  0  0  1  0  0  0  0  0  0  0  0
   -2.6367    0.0047    4.4719 H   0  0  0  1  0  0  0  0  0  0  0  0
   -4.2497    0.4074    4.1296 H   0  0  0  1  0  0  0  0  0  0  0  0
   -4.0174    0.6678    1.6587 N   0  0  0  1  0  0  0  0  0  0  0  0
   -3.7292    0.7827    0.3526 C   0  0  0  1  0  0  0  0  0  0  0  0
   -4.5342    1.0028   -0.2680 H   0  0  0  1  0  0  0  0  0  0  0  0
   -2.5555    0.6534   -0.2537 N   0  0  0  1  0  0  0  0  0  0  0  0
   -1.5855    0.3784    0.6195 C   0  0  0  1  0  0  0  0  0  0  0  0
  1  2  1  0  0  0  0
  1  3  1  0  0  0  0
  3  4  1  0  0  0  0
  3  5  1  0  0  0  0
  3  6  1  0  0  0  0
  6  7  1  0  0  0  0
  6  8  1  0  0  0  0
  6  9  1  0  0  0  0
  8 17  1  0  0  0  0
  9 10  1  0  0  0  0
  9 11  1  0  0  0  0
  9 13  1  0  0  0  0
 11 12  1  0  0  0  0
 13 14  1  0  0  0  0
 13 15  1  0  0  0  0
 13 17  1  0  0  0  0
 15 16  1  0  0  0  0
 17 18  1  0  0  0  0
 17 19  1  0  0  0  0
 19 20  1  0  0  0  0
 19 32  1  0  0  0  0
 20 21  1  0  0  0  0
 20 22  2  0  0  0  0
 22 23  1  0  0  0  0
 23 24  1  0  0  0  0
 23 32  2  0  0  0  0
 24 25  1  0  0  0  0
 24 28  2  0  0  0  0
 25 26  1  0  0  0  0
 25 27  1  0  0  0  0
 28 29  1  0  0  0  0
 29 30  1  0  0  0  0
 29 31  2  0  0  0  0
 31 32  1  0  0  0  0
M  END
> <ConfClashScore>
0 

> <ConfOneFourInteractionScore>
-0.987904 

> <ConfScore>
0.18223 

> <ConfScorePBest>
0.0097425 

> <ConfTolerance>
0.447348 

$$$$
ADN.****
  PyMOL2.4          3D                             0

 32 34  0  0  0  0  0  0  0  0999 V2000
   -2.5867    0.4088   -3.2708 O   0  0  0  1  0  0  0  0  0  0  0  0
   -2.5145    1.0905   -3.9428 H   0  0  0  1  0  0  0  0  0  0  0  0
   -1.4566   -0.4503   -3.3430 C   0  0  0  1  0  0  0  0  0  0  0  0
   -1.4165   -0.9048   -4.3109 H   0  0  0  1  0  0  0  0  0  0  0  0
   -1.5395   -1.2106   -2.5946 H   0  0  0  1  0  0  0  0  0  0  0  0
   -0.2025    0.3431   -3.1118 C   0  0  0  1  0  0  0  0  0  0  0  0
   -0.0460    1.0111   -3.9328 H   0  0  0  1  0  0  0  0  0  0  0  0
   -0.2813    1.0798   -1.8536 O   0  0  0  1  0  0  0  0  0  0  0  0
    0.9858   -0.5738   -2.9336 C   0  0  0  1  0  0  0  0  0  0  0  0
    0.8744   -1.4623   -3.5194 H   0  0  0  1  0  0  0  0  0  0  0  0
    2.1992    0.0870   -3.2959 O   0  0  0  1  0  0  0  0  0  0  0  0
    2.3080    0.0572   -4.2493 H   0  0  0  1  0  0  0  0  0  0  0  0
    0.9654   -0.8995   -1.4342 C   0  0  0  1  0  0  0  0  0  0  0  0
    0.3677   -1.7644   -1.2356 H   0  0  0  1  0  0  0  0  0  0  0  0
    2.2872   -1.1084   -0.9348 O   0  0  0  1  0  0  0  0  0  0  0  0
    2.8126   -0.3178   -1.0779 H   0  0  0  1  0  0  0  0  0  0  0  0
    0.3352    0.3617   -0.8223 C   0  0  0  1  0  0  0  0  0  0  0  0
    1.0940    0.9617   -0.3652 H   0  0  0  1  0  0  0  0  0  0  0  0
   -0.6582   -0.0170    0.1814 N   0  0  0  1  0  0  0  0  0  0  0  0
   -1.9799    0.3081    0.1920 C   0  0  0  1  0  0  0  0  0  0  0  0
   -2.4214    0.8787   -0.5571 H   0  0  0  1  0  0  0  0  0  0  0  0
   -2.6515   -0.1502    1.2131 N   0  0  0  1  0  0  0  0  0  0  0  0
   -1.6999   -0.8473    1.9411 C   0  0  0  1  0  0  0  0  0  0  0  0
   -1.7245   -1.5663    3.1325 C   0  0  0  1  0  0  0  0  0  0  0  0
   -2.8868   -1.6963    3.8460 N   0  0  0  1  0  0  0  0  0  0  0  0
   -2.8836   -2.1655    4.7064 H   0  0  0  1  0  0  0  0  0  0  0  0
   -3.7213   -1.3202    3.4960 H   0  0  0  1  0  0  0  0  0  0  0  0
   -0.6029   -2.1363    3.5862 N   0  0  0  1  0  0  0  0  0  0  0  0
    0.5197   -1.9758    2.8679 C   0  0  0  1  0  0  0  0  0  0  0  0
    1.3708   -2.4304    3.2560 H   0  0  0  1  0  0  0  0  0  0  0  0
    0.6903   -1.3151    1.7294 N   0  0  0  1  0  0  0  0  0  0  0  0
   -0.4526   -0.7726    1.3068 C   0  0  0  1  0  0  0  0  0  0  0  0
  1  2  1  0  0  0  0
  1  3  1  0  0  0  0
  3  4  1  0  0  0  0
  3  5  1  0  0  0  0
  3  6  1  0  0  0  0
  6  7  1  0  0  0  0
  6  8  1  0  0  0  0
  6  9  1  0  0  0  0
  8 17  1  0  0  0  0
  9 10  1  0  0  0  0
  9 11  1  0  0  0  0
  9 13  1  0  0  0  0
 11 12  1  0  0  0  0
 13 14  1  0  0  0  0
 13 15  1  0  0  0  0
 13 17  1  0  0  0  0
 15 16  1  0  0  0  0
 17 18  1  0  0  0  0
 17 19  1  0  0  0  0
 19 20  1  0  0  0  0
 19 32  1  0  0  0  0
 20 21  1  0  0  0  0
 20 22  2  0  0  0  0
 22 23  1  0  0  0  0
 23 24  1  0  0  0  0
 23 32  2  0  0  0  0
 24 25  1  0  0  0  0
 24 28  2  0  0  0  0
 25 26  1  0  0  0  0
 25 27  1  0  0  0  0
 28 29  1  0  0  0  0
 29 30  1  0  0  0  0
 29 31  2  0  0  0  0
 31 32  1  0  0  0  0
M  END
> <ConfClashScore>
0 

> <ConfOneFourInteractionScore>
-0.975227 

> <ConfScore>
0.183423 

> <ConfScorePBest>
0.0096395 

> <ConfTolerance>
0.624375 

$$$$
ADN.****
  PyMOL2.4          3D                             0

 32 34  0  0  0  0  0  0  0  0999 V2000
   -1.0817   -0.7237   -5.0879 O   0  0  0  1  0  0  0  0  0  0  0  0
   -1.5858   -0.1302   -5.6493 H   0  0  0  1  0  0  0  0  0  0  0  0
   -1.3533   -0.4312   -3.7236 C   0  0  0  1  0  0  0  0  0  0  0  0
   -1.5093   -1.3445   -3.1883 H   0  0  0  1  0  0  0  0  0  0  0  0
   -2.2320    0.1758   -3.6581 H   0  0  0  1  0  0  0  0  0  0  0  0
   -0.1910    0.3068   -3.1235 C   0  0  0  1  0  0  0  0  0  0  0  0
    0.1088    1.0961   -3.7808 H   0  0  0  1  0  0  0  0  0  0  0  0
   -0.5554    0.8366   -1.8801 O   0  0  0  1  0  0  0  0  0  0  0  0
    0.9824   -0.6605   -2.9008 C   0  0  0  1  0  0  0  0  0  0  0  0
    0.8411   -1.5701   -3.4463 H   0  0  0  1  0  0  0  0  0  0  0  0
    2.2219   -0.0628   -3.2833 O   0  0  0  1  0  0  0  0  0  0  0  0
    2.0581    0.6314   -3.9259 H   0  0  0  1  0  0  0  0  0  0  0  0
    0.9325   -0.9099   -1.3875 C   0  0  0  1  0  0  0  0  0  0  0  0
    0.3004   -1.7421   -1.1578 H   0  0  0  1  0  0  0  0  0  0  0  0
    2.2409   -1.1466   -0.8658 O   0  0  0  1  0  0  0  0  0  0  0  0
    2.8816   -0.6319   -1.3620 H   0  0  0  1  0  0  0  0  0  0  0  0
    0.3558    0.3743   -0.8371 C   0  0  0  1  0  0  0  0  0  0  0  0
    1.1291    1.0932   -0.6636 H   0  0  0  1  0  0  0  0  0  0  0  0
   -0.3679    0.1248    0.4099 N   0  0  0  1  0  0  0  0  0  0  0  0
   -0.3013    0.7370    1.6239 C   0  0  0  1  0  0  0  0  0  0  0  0
    0.3352    1.5377    1.8121 H   0  0  0  1  0  0  0  0  0  0  0  0
   -1.0963    0.2434    2.5338 N   0  0  0  1  0  0  0  0  0  0  0  0
   -1.7556   -0.7788    1.8690 C   0  0  0  1  0  0  0  0  0  0  0  0
   -2.7206   -1.7117    2.2371 C   0  0  0  1  0  0  0  0  0  0  0  0
   -3.2545   -1.7774    3.4970 N   0  0  0  1  0  0  0  0  0  0  0  0
   -3.9386   -2.4476    3.7050 H   0  0  0  1  0  0  0  0  0  0  0  0
   -2.9524   -1.1542    4.1903 H   0  0  0  1  0  0  0  0  0  0  0  0
   -3.1644   -2.5966    1.3377 N   0  0  0  1  0  0  0  0  0  0  0  0
   -2.6409   -2.5549    0.1023 C   0  0  0  1  0  0  0  0  0  0  0  0
   -3.0088   -3.2615   -0.5662 H   0  0  0  1  0  0  0  0  0  0  0  0
   -1.7171   -1.7335   -0.3813 N   0  0  0  1  0  0  0  0  0  0  0  0
   -1.3106   -0.8617    0.5428 C   0  0  0  1  0  0  0  0  0  0  0  0
  1  2  1  0  0  0  0
  1  3  1  0  0  0  0
  3  4  1  0  0  0  0
  3  5  1  0  0  0  0
  3  6  1  0  0  0  0
  6  7  1  0  0  0  0
  6  8  1  0  0  0  0
  6  9  1  0  0  0  0
  8 17  1  0  0  0  0
  9 10  1  0  0  0  0
  9 11  1  0  0  0  0
  9 13  1  0  0  0  0
 11 12  1  0  0  0  0
 13 14  1  0  0  0  0
 13 15  1  0  0  0  0
 13 17  1  0  0  0  0
 15 16  1  0  0  0  0
 17 18  1  0  0  0  0
 17 19  1  0  0  0  0
 19 20  1  0  0  0  0
 19 32  1  0  0  0  0
 20 21  1  0  0  0  0
 20 22  2  0  0  0  0
 22 23  1  0  0  0  0
 23 24  1  0  0  0  0
 23 32  2  0  0  0  0
 24 25  1  0  0  0  0
 24 28  2  0  0  0  0
 25 26  1  0  0  0  0
 25 27  1  0  0  0  0
 28 29  1  0  0  0  0
 29 30  1  0  0  0  0
 29 31  2  0  0  0  0
 31 32  1  0  0  0  0
M  END
> <ConfClashScore>
0 

> <ConfOneFourInteractionScore>
-0.970688 

> <ConfScore>
0.184913 

> <ConfScorePBest>
0.0095365 

> <ConfTolerance>
0.261975 

$$$$
ADN.****
  PyMOL2.4          3D                             0

 32 34  0  0  0  0  0  0  0  0999 V2000
   -2.3304    1.0238   -3.6402 O   0  0  0  1  0  0  0  0  0  0  0  0
   -2.1606    1.6816   -2.9620 H   0  0  0  1  0  0  0  0  0  0  0  0
   -1.4204   -0.0566   -3.4912 C   0  0  0  1  0  0  0  0  0  0  0  0
   -1.3066   -0.5695   -4.4233 H   0  0  0  1  0  0  0  0  0  0  0  0
   -1.7815   -0.7387   -2.7500 H   0  0  0  1  0  0  0  0  0  0  0  0
   -0.0829    0.5285   -3.0523 C   0  0  0  1  0  0  0  0  0  0  0  0
    0.2727    1.2067   -3.7996 H   0  0  0  1  0  0  0  0  0  0  0  0
   -0.2327    1.2082   -1.8089 O   0  0  0  1  0  0  0  0  0  0  0  0
    0.9109   -0.5682   -2.8429 C   0  0  0  1  0  0  0  0  0  0  0  0
    0.5086   -1.5041   -3.1702 H   0  0  0  1  0  0  0  0  0  0  0  0
    2.1164   -0.2916   -3.5572 O   0  0  0  1  0  0  0  0  0  0  0  0
    2.1039   -0.7541   -4.3983 H   0  0  0  1  0  0  0  0  0  0  0  0
    1.1722   -0.5987   -1.3688 C   0  0  0  1  0  0  0  0  0  0  0  0
    1.0826   -1.5947   -0.9882 H   0  0  0  1  0  0  0  0  0  0  0  0
    2.4746   -0.0913   -1.0748 O   0  0  0  1  0  0  0  0  0  0  0  0
    3.1302   -0.7702   -1.2506 H   0  0  0  1  0  0  0  0  0  0  0  0
    0.1131    0.2887   -0.7892 C   0  0  0  1  0  0  0  0  0  0  0  0
    0.4919    0.8084    0.0660 H   0  0  0  1  0  0  0  0  0  0  0  0
   -1.0562   -0.5029   -0.4018 N   0  0  0  1  0  0  0  0  0  0  0  0
   -1.3461   -1.7802   -0.7720 C   0  0  0  1  0  0  0  0  0  0  0  0
   -0.7638   -2.3117   -1.4504 H   0  0  0  1  0  0  0  0  0  0  0  0
   -2.4100   -2.2879   -0.2115 N   0  0  0  1  0  0  0  0  0  0  0  0
   -2.8637   -1.2665    0.6086 C   0  0  0  1  0  0  0  0  0  0  0  0
   -3.9447   -1.1241    1.4734 C   0  0  0  1  0  0  0  0  0  0  0  0
   -4.8661   -2.1151    1.6877 N   0  0  0  1  0  0  0  0  0  0  0  0
   -5.5372   -2.0157    2.3948 H   0  0  0  1  0  0  0  0  0  0  0  0
   -4.8541   -2.9235    1.1337 H   0  0  0  1  0  0  0  0  0  0  0  0
   -4.1150    0.0236    2.1386 N   0  0  0  1  0  0  0  0  0  0  0  0
   -3.2288    1.0099    1.9290 C   0  0  0  1  0  0  0  0  0  0  0  0
   -3.3980    1.8872    2.4613 H   0  0  0  1  0  0  0  0  0  0  0  0
   -2.1658    1.0167    1.1342 N   0  0  0  1  0  0  0  0  0  0  0  0
   -2.0265   -0.1481    0.4995 C   0  0  0  1  0  0  0  0  0  0  0  0
  1  2  1  0  0  0  0
  1  3  1  0  0  0  0
  3  4  1  0  0  0  0
  3  5  1  0  0  0  0
  3  6  1  0  0  0  0
  6  7  1  0  0  0  0
  6  8  1  0  0  0  0
  6  9  1  0  0  0  0
  8 17  1  0  0  0  0
  9 10  1  0  0  0  0
  9 11  1  0  0  0  0
  9 13  1  0  0  0  0
 11 12  1  0  0  0  0
 13 14  1  0  0  0  0
 13 15  1  0  0  0  0
 13 17  1  0  0  0  0
 15 16  1  0  0  0  0
 17 18  1  0  0  0  0
 17 19  1  0  0  0  0
 19 20  1  0  0  0  0
 19 32  1  0  0  0  0
 20 21  1  0  0  0  0
 20 22  2  0  0  0  0
 22 23  1  0  0  0  0
 23 24  1  0  0  0  0
 23 32  2  0  0  0  0
 24 25  1  0  0  0  0
 24 28  2  0  0  0  0
 25 26  1  0  0  0  0
 25 27  1  0  0  0  0
 28 29  1  0  0  0  0
 29 30  1  0  0  0  0
 29 31  2  0  0  0  0
 31 32  1  0  0  0  0
M  END
> <ConfClashScore>
0 

> <ConfOneFourInteractionScore>
-0.966157 

> <ConfScore>
0.18506 

> <ConfScorePBest>
0.00943349 

> <ConfTolerance>
0.433811 

$$$$
ADN.****
  PyMOL2.4          3D                             0

 32 34  0  0  0  0  0  0  0  0999 V2000
   -0.3230    0.1430   -5.3765 O   0  0  0  1  0  0  0  0  0  0  0  0
   -0.4433    0.9927   -5.8069 H   0  0  0  1  0  0  0  0  0  0  0  0
   -1.1321    0.0877   -4.1886 C   0  0  0  1  0  0  0  0  0  0  0  0
   -1.5161   -0.9004   -4.0430 H   0  0  0  1  0  0  0  0  0  0  0  0
   -1.9448    0.7803   -4.2567 H   0  0  0  1  0  0  0  0  0  0  0  0
   -0.2128    0.4652   -3.0625 C   0  0  0  1  0  0  0  0  0  0  0  0
    0.1983    1.4357   -3.2471 H   0  0  0  1  0  0  0  0  0  0  0  0
   -0.9165    0.4422   -1.8018 O   0  0  0  1  0  0  0  0  0  0  0  0
    0.9117   -0.5806   -2.9044 C   0  0  0  1  0  0  0  0  0  0  0  0
    0.6082   -1.5273   -3.3000 H   0  0  0  1  0  0  0  0  0  0  0  0
    2.1027   -0.1481   -3.5637 O   0  0  0  1  0  0  0  0  0  0  0  0
    2.2070   -0.6313   -4.3866 H   0  0  0  1  0  0  0  0  0  0  0  0
    1.1314   -0.6691   -1.3758 C   0  0  0  1  0  0  0  0  0  0  0  0
    0.9380   -1.6597   -1.0205 H   0  0  0  1  0  0  0  0  0  0  0  0
    2.4711   -0.2896   -1.0304 O   0  0  0  1  0  0  0  0  0  0  0  0
    3.0470   -1.0552   -1.0918 H   0  0  0  1  0  0  0  0  0  0  0  0
    0.1103    0.3317   -0.7933 C   0  0  0  1  0  0  0  0  0  0  0  0
    0.5711    1.2816   -0.6196 H   0  0  0  1  0  0  0  0  0  0  0  0
   -0.4503   -0.1751    0.4583 N   0  0  0  1  0  0  0  0  0  0  0  0
   -0.5064    0.5131    1.6314 C   0  0  0  1  0  0  0  0  0  0  0  0
   -0.0847    1.4567    1.7469 H   0  0  0  1  0  0  0  0  0  0  0  0
   -1.1295   -0.1006    2.6004 N   0  0  0  1  0  0  0  0  0  0  0  0
   -1.5307   -1.2953    2.0232 C   0  0  0  1  0  0  0  0  0  0  0  0
   -2.2230   -2.4113    2.4839 C   0  0  0  1  0  0  0  0  0  0  0  0
   -2.6906   -2.5238    3.7667 N   0  0  0  1  0  0  0  0  0  0  0  0
   -2.5176   -1.8101    4.4156 H   0  0  0  1  0  0  0  0  0  0  0  0
   -3.1981   -3.3179    4.0354 H   0  0  0  1  0  0  0  0  0  0  0  0
   -2.4559   -3.4355    1.6559 N   0  0  0  1  0  0  0  0  0  0  0  0
   -1.9918   -3.3471    0.3994 C   0  0  0  1  0  0  0  0  0  0  0  0
   -2.1896   -4.1651   -0.2117 H   0  0  0  1  0  0  0  0  0  0  0  0
   -1.3146   -2.3568   -0.1684 N   0  0  0  1  0  0  0  0  0  0  0  0
   -1.1139   -1.3529    0.6865 C   0  0  0  1  0  0  0  0  0  0  0  0
  1  2  1  0  0  0  0
  1  3  1  0  0  0  0
  3  4  1  0  0  0  0
  3  5  1  0  0  0  0
  3  6  1  0  0  0  0
  6  7  1  0  0  0  0
  6  8  1  0  0  0  0
  6  9  1  0  0  0  0
  8 17  1  0  0  0  0
  9 10  1  0  0  0  0
  9 11  1  0  0  0  0
  9 13  1  0  0  0  0
 11 12  1  0  0  0  0
 13 14  1  0  0  0  0
 13 15  1  0  0  0  0
 13 17  1  0  0  0  0
 15 16  1  0  0  0  0
 17 18  1  0  0  0  0
 17 19  1  0  0  0  0
 19 20  1  0  0  0  0
 19 32  1  0  0  0  0
 20 21  1  0  0  0  0
 20 22  2  0  0  0  0
 22 23  1  0  0  0  0
 23 24  1  0  0  0  0
 23 32  2  0  0  0  0
 24 25  1  0  0  0  0
 24 28  2  0  0  0  0
 25 26  1  0  0  0  0
 25 27  1  0  0  0  0
 28 29  1  0  0  0  0
 29 30  1  0  0  0  0
 29 31  2  0  0  0  0
 31 32  1  0  0  0  0
M  END
> <ConfClashScore>
0 

> <ConfOneFourInteractionScore>
-0.970696 

> <ConfScore>
0.185815 

> <ConfScorePBest>
0.00933049 

> <ConfTolerance>
0.25 

$$$$
ADN.****
  PyMOL2.4          3D                             0

 32 34  0  0  0  0  0  0  0  0999 V2000
   -2.0437   -0.6387   -3.7414 O   0  0  0  1  0  0  0  0  0  0  0  0
   -2.8840   -0.4216   -4.1516 H   0  0  0  1  0  0  0  0  0  0  0  0
   -1.0654    0.3143   -4.1317 C   0  0  0  1  0  0  0  0  0  0  0  0
   -1.5465    1.2579   -4.2830 H   0  0  0  1  0  0  0  0  0  0  0  0
   -0.6174   -0.0092   -5.0480 H   0  0  0  1  0  0  0  0  0  0  0  0
    0.0196    0.4842   -3.0955 C   0  0  0  1  0  0  0  0  0  0  0  0
    0.7298    1.2079   -3.4374 H   0  0  0  1  0  0  0  0  0  0  0  0
   -0.5267    0.8684   -1.8630 O   0  0  0  1  0  0  0  0  0  0  0  0
    0.7075   -0.8571   -2.8033 C   0  0  0  1  0  0  0  0  0  0  0  0
    0.0135   -1.6689   -2.8685 H   0  0  0  1  0  0  0  0  0  0  0  0
    1.7940   -1.0852   -3.7020 O   0  0  0  1  0  0  0  0  0  0  0  0
    2.5876   -0.6691   -3.3576 H   0  0  0  1  0  0  0  0  0  0  0  0
    1.1998   -0.6757   -1.3914 C   0  0  0  1  0  0  0  0  0  0  0  0
    1.2774   -1.6167   -0.8881 H   0  0  0  1  0  0  0  0  0  0  0  0
    2.4677   -0.0183   -1.3714 O   0  0  0  1  0  0  0  0  0  0  0  0
    2.5549    0.5336   -2.1521 H   0  0  0  1  0  0  0  0  0  0  0  0
    0.1167    0.2002   -0.7545 C   0  0  0  1  0  0  0  0  0  0  0  0
    0.5546    0.9142   -0.0886 H   0  0  0  1  0  0  0  0  0  0  0  0
   -0.8459   -0.6239   -0.0229 N   0  0  0  1  0  0  0  0  0  0  0  0
   -0.5979   -1.4091    1.0610 C   0  0  0  1  0  0  0  0  0  0  0  0
    0.3465   -1.4894    1.4890 H   0  0  0  1  0  0  0  0  0  0  0  0
   -1.6348   -2.0537    1.5227 N   0  0  0  1  0  0  0  0  0  0  0  0
   -2.6635   -1.6589    0.6816 C   0  0  0  1  0  0  0  0  0  0  0  0
   -4.0183   -1.9655    0.5953 C   0  0  0  1  0  0  0  0  0  0  0  0
   -4.5951   -2.8368    1.4813 N   0  0  0  1  0  0  0  0  0  0  0  0
   -4.0418   -3.2973    2.1463 H   0  0  0  1  0  0  0  0  0  0  0  0
   -5.5609   -2.9996    1.4502 H   0  0  0  1  0  0  0  0  0  0  0  0
   -4.7654   -1.4046   -0.3617 N   0  0  0  1  0  0  0  0  0  0  0  0
   -4.1631   -0.5670   -1.2205 C   0  0  0  1  0  0  0  0  0  0  0  0
   -4.7768   -0.1550   -1.9521 H   0  0  0  1  0  0  0  0  0  0  0  0
   -2.8900   -0.1936   -1.2621 N   0  0  0  1  0  0  0  0  0  0  0  0
   -2.1839   -0.7658   -0.2860 C   0  0  0  1  0  0  0  0  0  0  0  0
  1  2  1  0  0  0  0
  1  3  1  0  0  0  0
  3  4  1  0  0  0  0
  3  5  1  0  0  0  0
  3  6  1  0  0  0  0
  6  7  1  0  0  0  0
  6  8  1  0  0  0  0
  6  9  1  0  0  0  0
  8 17  1  0  0  0  0
  9 10  1  0  0  0  0
  9 11  1  0  0  0  0
  9 13  1  0  0  0  0
 11 12  1  0  0  0  0
 13 14  1  0  0  0  0
 13 15  1  0  0  0  0
 13 17  1  0  0  0  0
 15 16  1  0  0  0  0
 17 18  1  0  0  0  0
 17 19  1  0  0  0  0
 19 20  1  0  0  0  0
 19 32  1  0  0  0  0
 20 21  1  0  0  0  0
 20 22  2  0  0  0  0
 22 23  1  0  0  0  0
 23 24  1  0  0  0  0
 23 32  2  0  0  0  0
 24 25  1  0  0  0  0
 24 28  2  0  0  0  0
 25 26  1  0  0  0  0
 25 27  1  0  0  0  0
 28 29  1  0  0  0  0
 29 30  1  0  0  0  0
 29 31  2  0  0  0  0
 31 32  1  0  0  0  0
M  END
> <ConfClashScore>
0 

> <ConfOneFourInteractionScore>
-0.987904 

> <ConfScore>
0.186397 

> <ConfScorePBest>
0.00922749 

> <ConfTolerance>
0.289443 

$$$$
ADN.****
  PyMOL2.4          3D                             0

 32 34  0  0  0  0  0  0  0  0999 V2000
   -1.5738    1.6853   -4.3338 O   0  0  0  1  0  0  0  0  0  0  0  0
   -1.0144    2.0684   -5.0135 H   0  0  0  1  0  0  0  0  0  0  0  0
   -1.1185    0.3706   -4.0285 C   0  0  0  1  0  0  0  0  0  0  0  0
   -0.8154   -0.1284   -4.9252 H   0  0  0  1  0  0  0  0  0  0  0  0
   -1.9007   -0.1865   -3.5567 H   0  0  0  1  0  0  0  0  0  0  0  0
    0.0575    0.5044   -3.0902 C   0  0  0  1  0  0  0  0  0  0  0  0
    0.7745    1.1786   -3.5100 H   0  0  0  1  0  0  0  0  0  0  0  0
   -0.3798    0.9700   -1.7845 O   0  0  0  1  0  0  0  0  0  0  0  0
    0.6925   -0.8601   -2.8253 C   0  0  0  1  0  0  0  0  0  0  0  0
   -0.0364   -1.6428   -2.8574 H   0  0  0  1  0  0  0  0  0  0  0  0
    1.7347   -1.1404   -3.7608 O   0  0  0  1  0  0  0  0  0  0  0  0
    2.5783   -0.8694   -3.3915 H   0  0  0  1  0  0  0  0  0  0  0  0
    1.2385   -0.6740   -1.4331 C   0  0  0  1  0  0  0  0  0  0  0  0
    1.3696   -1.6144   -0.9398 H   0  0  0  1  0  0  0  0  0  0  0  0
    2.4811    0.0301   -1.4551 O   0  0  0  1  0  0  0  0  0  0  0  0
    2.3606    0.8791   -1.8868 H   0  0  0  1  0  0  0  0  0  0  0  0
    0.1522    0.1497   -0.7656 C   0  0  0  1  0  0  0  0  0  0  0  0
    0.5660    0.7487    0.0185 H   0  0  0  1  0  0  0  0  0  0  0  0
   -0.8858   -0.7222   -0.2179 N   0  0  0  1  0  0  0  0  0  0  0  0
   -2.1946   -0.7747   -0.5884 C   0  0  0  1  0  0  0  0  0  0  0  0
   -2.6183   -0.0869   -1.2434 H   0  0  0  1  0  0  0  0  0  0  0  0
   -2.8776   -1.7533   -0.0597 N   0  0  0  1  0  0  0  0  0  0  0  0
   -1.9442   -2.4150    0.7229 C   0  0  0  1  0  0  0  0  0  0  0  0
   -1.9921   -3.5269    1.5586 C   0  0  0  1  0  0  0  0  0  0  0  0
   -3.1243   -4.3119    1.7028 N   0  0  0  1  0  0  0  0  0  0  0  0
   -3.9766   -4.0177    1.3189 H   0  0  0  1  0  0  0  0  0  0  0  0
   -3.0729   -5.1615    2.1886 H   0  0  0  1  0  0  0  0  0  0  0  0
   -0.8860   -3.9249    2.1966 N   0  0  0  1  0  0  0  0  0  0  0  0
    0.2377   -3.2144    2.0110 C   0  0  0  1  0  0  0  0  0  0  0  0
    1.0745   -3.5533    2.5274 H   0  0  0  1  0  0  0  0  0  0  0  0
    0.4251   -2.1379    1.2574 N   0  0  0  1  0  0  0  0  0  0  0  0
   -0.6974   -1.7819    0.6313 C   0  0  0  1  0  0  0  0  0  0  0  0
  1  2  1  0  0  0  0
  1  3  1  0  0  0  0
  3  4  1  0  0  0  0
  3  5  1  0  0  0  0
  3  6  1  0  0  0  0
  6  7  1  0  0  0  0
  6  8  1  0  0  0  0
  6  9  1  0  0  0  0
  8 17  1  0  0  0  0
  9 10  1  0  0  0  0
  9 11  1  0  0  0  0
  9 13  1  0  0  0  0
 11 12  1  0  0  0  0
 13 14  1  0  0  0  0
 13 15  1  0  0  0  0
 13 17  1  0  0  0  0
 15 16  1  0  0  0  0
 17 18  1  0  0  0  0
 17 19  1  0  0  0  0
 19 20  1  0  0  0  0
 19 32  1  0  0  0  0
 20 21  1  0  0  0  0
 20 22  2  0  0  0  0
 22 23  1  0  0  0  0
 23 24  1  0  0  0  0
 23 32  2  0  0  0  0
 24 25  1  0  0  0  0
 24 28  2  0  0  0  0
 25 26  1  0  0  0  0
 25 27  1  0  0  0  0
 28 29  1  0  0  0  0
 29 30  1  0  0  0  0
 29 31  2  0  0  0  0
 31 32  1  0  0  0  0
M  END
> <ConfClashScore>
0 

> <ConfOneFourInteractionScore>
-0.970696 

> <ConfScore>
0.188755 

> <ConfScorePBest>
0.00912449 

> <ConfTolerance>
0.376816 

$$$$
ADN.****
  PyMOL2.4          3D                             0

 32 34  0  0  0  0  0  0  0  0999 V2000
   -1.9848    1.1720   -4.3814 O   0  0  0  1  0  0  0  0  0  0  0  0
   -1.7090    1.7437   -5.1016 H   0  0  0  1  0  0  0  0  0  0  0  0
   -1.0349    0.1278   -4.2141 C   0  0  0  1  0  0  0  0  0  0  0  0
   -0.4748    0.0247   -5.1200 H   0  0  0  1  0  0  0  0  0  0  0  0
   -1.5583   -0.7834   -4.0121 H   0  0  0  1  0  0  0  0  0  0  0  0
   -0.0744    0.3975   -3.0781 C   0  0  0  1  0  0  0  0  0  0  0  0
    0.4895    1.2820   -3.2895 H   0  0  0  1  0  0  0  0  0  0  0  0
   -0.7881    0.5354   -1.8303 O   0  0  0  1  0  0  0  0  0  0  0  0
    0.8653   -0.8081   -2.8625 C   0  0  0  1  0  0  0  0  0  0  0  0
    0.4185   -1.7083   -3.2296 H   0  0  0  1  0  0  0  0  0  0  0  0
    2.1059   -0.5993   -3.5083 O   0  0  0  1  0  0  0  0  0  0  0  0
    2.0482    0.1772   -4.0698 H   0  0  0  1  0  0  0  0  0  0  0  0
    1.0492   -0.8725   -1.3279 C   0  0  0  1  0  0  0  0  0  0  0  0
    0.6948   -1.8052   -0.9413 H   0  0  0  1  0  0  0  0  0  0  0  0
    2.4228   -0.7003   -0.9733 O   0  0  0  1  0  0  0  0  0  0  0  0
    2.8492   -0.1253   -1.6130 H   0  0  0  1  0  0  0  0  0  0  0  0
    0.1951    0.3003   -0.8001 C   0  0  0  1  0  0  0  0  0  0  0  0
    0.8005    1.1700   -0.6518 H   0  0  0  1  0  0  0  0  0  0  0  0
   -0.4566   -0.0632    0.4616 N   0  0  0  1  0  0  0  0  0  0  0  0
   -1.7920   -0.0648    0.7253 C   0  0  0  1  0  0  0  0  0  0  0  0
   -2.5028    0.1994    0.0136 H   0  0  0  1  0  0  0  0  0  0  0  0
   -2.1132   -0.4229    1.9387 N   0  0  0  1  0  0  0  0  0  0  0  0
   -0.8898   -0.6913    2.5326 C   0  0  0  1  0  0  0  0  0  0  0  0
   -0.4973   -1.1045    3.8023 C   0  0  0  1  0  0  0  0  0  0  0  0
   -1.3503   -1.3703    4.8680 N   0  0  0  1  0  0  0  0  0  0  0  0
   -1.0016   -1.7906    5.6817 H   0  0  0  1  0  0  0  0  0  0  0  0
   -2.3001   -1.1373    4.8052 H   0  0  0  1  0  0  0  0  0  0  0  0
    0.8015   -1.2754    4.0720 N   0  0  0  1  0  0  0  0  0  0  0  0
    1.6858   -1.0234    3.0940 C   0  0  0  1  0  0  0  0  0  0  0  0
    2.6854   -1.1640    3.3443 H   0  0  0  1  0  0  0  0  0  0  0  0
    1.4568   -0.6189    1.8507 N   0  0  0  1  0  0  0  0  0  0  0  0
    0.1513   -0.4719    1.6205 C   0  0  0  1  0  0  0  0  0  0  0  0
  1  2  1  0  0  0  0
  1  3  1  0  0  0  0
  3  4  1  0  0  0  0
  3  5  1  0  0  0  0
  3  6  1  0  0  0  0
  6  7  1  0  0  0  0
  6  8  1  0  0  0  0
  6  9  1  0  0  0  0
  8 17  1  0  0  0  0
  9 10  1  0  0  0  0
  9 11  1  0  0  0  0
  9 13  1  0  0  0  0
 11 12  1  0  0  0  0
 13 14  1  0  0  0  0
 13 15  1  0  0  0  0
 13 17  1  0  0  0  0
 15 16  1  0  0  0  0
 17 18  1  0  0  0  0
 17 19  1  0  0  0  0
 19 20  1  0  0  0  0
 19 32  1  0  0  0  0
 20 21  1  0  0  0  0
 20 22  2  0  0  0  0
 22 23  1  0  0  0  0
 23 24  1  0  0  0  0
 23 32  2  0  0  0  0
 24 25  1  0  0  0  0
 24 28  2  0  0  0  0
 25 26  1  0  0  0  0
 25 27  1  0  0  0  0
 28 29  1  0  0  0  0
 29 30  1  0  0  0  0
 29 31  2  0  0  0  0
 31 32  1  0  0  0  0
M  END
> <ConfClashScore>
0 

> <ConfOneFourInteractionScore>
-0.970696 

> <ConfScore>
0.189142 

> <ConfScorePBest>
0.00902149 

> <ConfTolerance>
0.43933 

$$$$
ADN.****
  PyMOL2.4          3D                             0

 32 34  0  0  0  0  0  0  0  0999 V2000
   -0.3385    0.3645   -5.4184 O   0  0  0  1  0  0  0  0  0  0  0  0
    0.3134    1.0683   -5.4549 H   0  0  0  1  0  0  0  0  0  0  0  0
   -0.9970    0.3925   -4.1589 C   0  0  0  1  0  0  0  0  0  0  0  0
   -1.5014   -0.5377   -4.0006 H   0  0  0  1  0  0  0  0  0  0  0  0
   -1.7088    1.1913   -4.1475 H   0  0  0  1  0  0  0  0  0  0  0  0
    0.0175    0.6077   -3.0587 C   0  0  0  1  0  0  0  0  0  0  0  0
    0.6657    1.4166   -3.3238 H   0  0  0  1  0  0  0  0  0  0  0  0
   -0.6213    0.8630   -1.8373 O   0  0  0  1  0  0  0  0  0  0  0  0
    0.8235   -0.6742   -2.8038 C   0  0  0  1  0  0  0  0  0  0  0  0
    0.2191   -1.5452   -2.9487 H   0  0  0  1  0  0  0  0  0  0  0  0
    1.9679   -0.7409   -3.6560 O   0  0  0  1  0  0  0  0  0  0  0  0
    1.7642   -1.2791   -4.4244 H   0  0  0  1  0  0  0  0  0  0  0  0
    1.2290   -0.5285   -1.3606 C   0  0  0  1  0  0  0  0  0  0  0  0
    1.3783   -1.4852   -0.9054 H   0  0  0  1  0  0  0  0  0  0  0  0
    2.4215    0.2484   -1.2395 O   0  0  0  1  0  0  0  0  0  0  0  0
    3.1867   -0.3172   -1.3670 H   0  0  0  1  0  0  0  0  0  0  0  0
    0.0346    0.1975   -0.7345 C   0  0  0  1  0  0  0  0  0  0  0  0
    0.3666    0.9107   -0.0093 H   0  0  0  1  0  0  0  0  0  0  0  0
   -0.8714   -0.7581   -0.0999 N   0  0  0  1  0  0  0  0  0  0  0  0
   -1.1937   -0.8366    1.2202 C   0  0  0  1  0  0  0  0  0  0  0  0
   -0.7503   -0.2321    1.9410 H   0  0  0  1  0  0  0  0  0  0  0  0
   -2.1014   -1.7277    1.5134 N   0  0  0  1  0  0  0  0  0  0  0  0
   -2.4180   -2.2851    0.2844 C   0  0  0  1  0  0  0  0  0  0  0  0
   -3.2910   -3.2862   -0.1312 C   0  0  0  1  0  0  0  0  0  0  0  0
   -4.0976   -3.9800    0.7318 N   0  0  0  1  0  0  0  0  0  0  0  0
   -4.0317   -3.8237    1.6970 H   0  0  0  1  0  0  0  0  0  0  0  0
   -4.7406   -4.6327    0.3840 H   0  0  0  1  0  0  0  0  0  0  0  0
   -3.3651   -3.6051   -1.4279 N   0  0  0  1  0  0  0  0  0  0  0  0
   -2.5708   -2.9444   -2.2849 C   0  0  0  1  0  0  0  0  0  0  0  0
   -2.6550   -3.2241   -3.2831 H   0  0  0  1  0  0  0  0  0  0  0  0
   -1.6925   -1.9822   -2.0305 N   0  0  0  1  0  0  0  0  0  0  0  0
   -1.6581   -1.6874   -0.7301 C   0  0  0  1  0  0  0  0  0  0  0  0
  1  2  1  0  0  0  0
  1  3  1  0  0  0  0
  3  4  1  0  0  0  0
  3  5  1  0  0  0  0
  3  6  1  0  0  0  0
  6  7  1  0  0  0  0
  6  8  1  0  0  0  0
  6  9  1  0  0  0  0
  8 17  1  0  0  0  0
  9 10  1  0  0  0  0
  9 11  1  0  0  0  0
  9 13  1  0  0  0  0
 11 12  1  0  0  0  0
 13 14  1  0  0  0  0
 13 15  1  0  0  0  0
 13 17  1  0  0  0  0
 15 16  1  0  0  0  0
 17 18  1  0  0  0  0
 17 19  1  0  0  0  0
 19 20  1  0  0  0  0
 19 32  1  0  0  0  0
 20 21  1  0  0  0  0
 20 22  2  0  0  0  0
 22 23  1  0  0  0  0
 23 24  1  0  0  0  0
 23 32  2  0  0  0  0
 24 25  1  0  0  0  0
 24 28  2  0  0  0  0
 25 26  1  0  0  0  0
 25 27  1  0  0  0  0
 28 29  1  0  0  0  0
 29 30  1  0  0  0  0
 29 31  2  0  0  0  0
 31 32  1  0  0  0  0
M  END
> <ConfClashScore>
0 

> <ConfOneFourInteractionScore>
-0.975227 

> <ConfScore>
0.189218 

> <ConfScorePBest>
0.00891849 

> <ConfTolerance>
0.440719 

$$$$
ADN.****
  PyMOL2.4          3D                             0

 32 34  0  0  0  0  0  0  0  0999 V2000
   -2.0205    1.2589   -4.4354 O   0  0  0  1  0  0  0  0  0  0  0  0
   -1.9038    1.9220   -3.7510 H   0  0  0  1  0  0  0  0  0  0  0  0
   -1.1865    0.1525   -4.1665 C   0  0  0  1  0  0  0  0  0  0  0  0
   -0.6870   -0.1172   -5.0735 H   0  0  0  1  0  0  0  0  0  0  0  0
   -1.8035   -0.6598   -3.8434 H   0  0  0  1  0  0  0  0  0  0  0  0
   -0.1385    0.3985   -3.1069 C   0  0  0  1  0  0  0  0  0  0  0  0
    0.4130    1.2830   -3.3486 H   0  0  0  1  0  0  0  0  0  0  0  0
   -0.7506    0.5204   -1.8047 O   0  0  0  1  0  0  0  0  0  0  0  0
    0.8070   -0.8157   -2.9849 C   0  0  0  1  0  0  0  0  0  0  0  0
    0.3264   -1.7074   -3.3295 H   0  0  0  1  0  0  0  0  0  0  0  0
    1.9965   -0.6032   -3.7250 O   0  0  0  1  0  0  0  0  0  0  0  0
    2.0873    0.3315   -3.9242 H   0  0  0  1  0  0  0  0  0  0  0  0
    1.1110   -0.9056   -1.4708 C   0  0  0  1  0  0  0  0  0  0  0  0
    0.7818   -1.8423   -1.0719 H   0  0  0  1  0  0  0  0  0  0  0  0
    2.5005   -0.7477   -1.2249 O   0  0  0  1  0  0  0  0  0  0  0  0
    2.6358   -0.0338   -0.5975 H   0  0  0  1  0  0  0  0  0  0  0  0
    0.3093    0.2634   -0.8591 C   0  0  0  1  0  0  0  0  0  0  0  0
    0.9304    1.1273   -0.7458 H   0  0  0  1  0  0  0  0  0  0  0  0
   -0.2382   -0.1129    0.4322 N   0  0  0  1  0  0  0  0  0  0  0  0
   -0.3297    0.7593    1.4733 C   0  0  0  1  0  0  0  0  0  0  0  0
   -0.0191    1.7493    1.4022 H   0  0  0  1  0  0  0  0  0  0  0  0
   -0.8365    0.2595    2.5674 N   0  0  0  1  0  0  0  0  0  0  0  0
   -1.1149   -1.0547    2.2254 C   0  0  0  1  0  0  0  0  0  0  0  0
   -1.6506   -2.1425    2.9085 C   0  0  0  1  0  0  0  0  0  0  0  0
   -2.0490   -2.0801    4.2121 N   0  0  0  1  0  0  0  0  0  0  0  0
   -1.9634   -1.2410    4.7110 H   0  0  0  1  0  0  0  0  0  0  0  0
   -2.4206   -2.8745    4.6494 H   0  0  0  1  0  0  0  0  0  0  0  0
   -1.7923   -3.3150    2.2811 N   0  0  0  1  0  0  0  0  0  0  0  0
   -1.3919   -3.3970    1.0024 C   0  0  0  1  0  0  0  0  0  0  0  0
   -1.5148   -4.3260    0.5513 H   0  0  0  1  0  0  0  0  0  0  0  0
   -0.8604   -2.4525    0.2360 N   0  0  0  1  0  0  0  0  0  0  0  0
   -0.7473   -1.2987    0.8954 C   0  0  0  1  0  0  0  0  0  0  0  0
  1  2  1  0  0  0  0
  1  3  1  0  0  0  0
  3  4  1  0  0  0  0
  3  5  1  0  0  0  0
  3  6  1  0  0  0  0
  6  7  1  0  0  0  0
  6  8  1  0  0  0  0
  6  9  1  0  0  0  0
  8 17  1  0  0  0  0
  9 10  1  0  0  0  0
  9 11  1  0  0  0  0
  9 13  1  0  0  0  0
 11 12  1  0  0  0  0
 13 14  1  0  0  0  0
 13 15  1  0  0  0  0
 13 17  1  0  0  0  0
 15 16  1  0  0  0  0
 17 18  1  0  0  0  0
 17 19  1  0  0  0  0
 19 20  1  0  0  0  0
 19 32  1  0  0  0  0
 20 21  1  0  0  0  0
 20 22  2  0  0  0  0
 22 23  1  0  0  0  0
 23 24  1  0  0  0  0
 23 32  2  0  0  0  0
 24 25  1  0  0  0  0
 24 28  2  0  0  0  0
 25 26  1  0  0  0  0
 25 27  1  0  0  0  0
 28 29  1  0  0  0  0
 29 30  1  0  0  0  0
 29 31  2  0  0  0  0
 31 32  1  0  0  0  0
M  END
> <ConfClashScore>
0 

> <ConfOneFourInteractionScore>
-0.966157 

> <ConfScore>
0.190575 

> <ConfScorePBest>
0.00881549 

> <ConfTolerance>
0.656431 

$$$$
ADN.****
  PyMOL2.4          3D                             0

 32 34  0  0  0  0  0  0  0  0999 V2000
   -2.6606    0.3702   -3.5631 O   0  0  0  1  0  0  0  0  0  0  0  0
   -3.0899    0.2748   -2.7097 H   0  0  0  1  0  0  0  0  0  0  0  0
   -1.5075   -0.4578   -3.6090 C   0  0  0  1  0  0  0  0  0  0  0  0
   -1.3233   -0.7719   -4.6152 H   0  0  0  1  0  0  0  0  0  0  0  0
   -1.6496   -1.3167   -2.9870 H   0  0  0  1  0  0  0  0  0  0  0  0
   -0.3411    0.3595   -3.1018 C   0  0  0  1  0  0  0  0  0  0  0  0
   -0.1736    1.1883   -3.7575 H   0  0  0  1  0  0  0  0  0  0  0  0
   -0.6037    0.8264   -1.7665 O   0  0  0  1  0  0  0  0  0  0  0  0
    0.9309   -0.5194   -3.0133 C   0  0  0  1  0  0  0  0  0  0  0  0
    0.8361   -1.3964   -3.6189 H   0  0  0  1  0  0  0  0  0  0  0  0
    2.0906    0.2126   -3.4125 O   0  0  0  1  0  0  0  0  0  0  0  0
    2.7367   -0.3903   -3.7878 H   0  0  0  1  0  0  0  0  0  0  0  0
    0.9908   -0.8770   -1.5387 C   0  0  0  1  0  0  0  0  0  0  0  0
    0.4250   -1.7615   -1.3327 H   0  0  0  1  0  0  0  0  0  0  0  0
    2.3398   -1.0628   -1.1078 O   0  0  0  1  0  0  0  0  0  0  0  0
    2.6667   -0.2487   -0.7180 H   0  0  0  1  0  0  0  0  0  0  0  0
    0.3592    0.3538   -0.8691 C   0  0  0  1  0  0  0  0  0  0  0  0
    1.1022    1.1032   -0.6919 H   0  0  0  1  0  0  0  0  0  0  0  0
   -0.2671   -0.0218    0.3976 N   0  0  0  1  0  0  0  0  0  0  0  0
    0.3319   -0.1044    1.6171 C   0  0  0  1  0  0  0  0  0  0  0  0
    1.3391    0.1109    1.7611 H   0  0  0  1  0  0  0  0  0  0  0  0
   -0.4531   -0.4741    2.5923 N   0  0  0  1  0  0  0  0  0  0  0  0
   -1.6817   -0.6444    1.9732 C   0  0  0  1  0  0  0  0  0  0  0  0
   -2.9436   -1.0345    2.4120 C   0  0  0  1  0  0  0  0  0  0  0  0
   -3.2799   -1.3731    3.7227 N   0  0  0  1  0  0  0  0  0  0  0  0
   -2.5902   -1.3820    4.4188 H   0  0  0  1  0  0  0  0  0  0  0  0
   -4.2059   -1.6021    3.9473 H   0  0  0  1  0  0  0  0  0  0  0  0
   -3.9554   -1.1070    1.5404 N   0  0  0  1  0  0  0  0  0  0  0  0
   -3.7026   -0.8088    0.2562 C   0  0  0  1  0  0  0  0  0  0  0  0
   -4.5139   -0.8811   -0.3904 H   0  0  0  1  0  0  0  0  0  0  0  0
   -2.5570   -0.4342   -0.2997 N   0  0  0  1  0  0  0  0  0  0  0  0
   -1.5787   -0.3638    0.6041 C   0  0  0  1  0  0  0  0  0  0  0  0
  1  2  1  0  0  0  0
  1  3  1  0  0  0  0
  3  4  1  0  0  0  0
  3  5  1  0  0  0  0
  3  6  1  0  0  0  0
  6  7  1  0  0  0  0
  6  8  1  0  0  0  0
  6  9  1  0  0  0  0
  8 17  1  0  0  0  0
  9 10  1  0  0  0  0
  9 11  1  0  0  0  0
  9 13  1  0  0  0  0
 11 12  1  0  0  0  0
 13 14  1  0  0  0  0
 13 15  1  0  0  0  0
 13 17  1  0  0  0  0
 15 16  1  0  0  0  0
 17 18  1  0  0  0  0
 17 19  1  0  0  0  0
 19 20  1  0  0  0  0
 19 32  1  0  0  0  0
 20 21  1  0  0  0  0
 20 22  2  0  0  0  0
 22 23  1  0  0  0  0
 23 24  1  0  0  0  0
 23 32  2  0  0  0  0
 24 25  1  0  0  0  0
 24 28  2  0  0  0  0
 25 26  1  0  0  0  0
 25 27  1  0  0  0  0
 28 29  1  0  0  0  0
 29 30  1  0  0  0  0
 29 31  2  0  0  0  0
 31 32  1  0  0  0  0
M  END
> <ConfClashScore>
0 

> <ConfOneFourInteractionScore>
-0.970696 

> <ConfScore>
0.191935 

> <ConfScorePBest>
0.00871249 

> <ConfTolerance>
0.390888 

$$$$
ADN.****
  PyMOL2.4          3D                             0

 32 34  0  0  0  0  0  0  0  0999 V2000
   -1.4474   -0.9715   -4.8959 O   0  0  0  1  0  0  0  0  0  0  0  0
   -1.3426   -1.9257   -4.9097 H   0  0  0  1  0  0  0  0  0  0  0  0
   -1.5701   -0.5270   -3.5513 C   0  0  0  1  0  0  0  0  0  0  0  0
   -1.6513   -1.3742   -2.9027 H   0  0  0  1  0  0  0  0  0  0  0  0
   -2.4455    0.0808   -3.4562 H   0  0  0  1  0  0  0  0  0  0  0  0
   -0.3520    0.2831   -3.1697 C   0  0  0  1  0  0  0  0  0  0  0  0
   -0.2043    1.0647   -3.8854 H   0  0  0  1  0  0  0  0  0  0  0  0
   -0.5160    0.8384   -1.8527 O   0  0  0  1  0  0  0  0  0  0  0  0
    0.8988   -0.6279   -3.1054 C   0  0  0  1  0  0  0  0  0  0  0  0
    0.7417   -1.5368   -3.6477 H   0  0  0  1  0  0  0  0  0  0  0  0
    2.0501    0.0420   -3.6210 O   0  0  0  1  0  0  0  0  0  0  0  0
    2.3718    0.6720   -2.9720 H   0  0  0  1  0  0  0  0  0  0  0  0
    1.0430   -0.8966   -1.6178 C   0  0  0  1  0  0  0  0  0  0  0  0
    0.4678   -1.7489   -1.3219 H   0  0  0  1  0  0  0  0  0  0  0  0
    2.4113   -1.0976   -1.2607 O   0  0  0  1  0  0  0  0  0  0  0  0
    2.5567   -0.7899   -0.3630 H   0  0  0  1  0  0  0  0  0  0  0  0
    0.4892    0.3918   -0.9890 C   0  0  0  1  0  0  0  0  0  0  0  0
    1.2620    1.1271   -0.9056 H   0  0  0  1  0  0  0  0  0  0  0  0
   -0.0649    0.1137    0.3352 N   0  0  0  1  0  0  0  0  0  0  0  0
    0.3848    0.5817    1.5316 C   0  0  0  1  0  0  0  0  0  0  0  0
    1.2468    1.1570    1.6188 H   0  0  0  1  0  0  0  0  0  0  0  0
   -0.3475    0.2542    2.5614 N   0  0  0  1  0  0  0  0  0  0  0  0
   -1.3775   -0.4877    2.0044 C   0  0  0  1  0  0  0  0  0  0  0  0
   -2.4901   -1.1445    2.5219 C   0  0  0  1  0  0  0  0  0  0  0  0
   -2.8856   -1.2237    3.8603 N   0  0  0  1  0  0  0  0  0  0  0  0
   -2.3300   -0.8211    4.5601 H   0  0  0  1  0  0  0  0  0  0  0  0
   -3.7185   -1.6817    4.0989 H   0  0  0  1  0  0  0  0  0  0  0  0
   -3.3185   -1.7952    1.6979 N   0  0  0  1  0  0  0  0  0  0  0  0
   -3.0285   -1.7984    0.3872 C   0  0  0  1  0  0  0  0  0  0  0  0
   -3.6942   -2.3184   -0.2195 H   0  0  0  1  0  0  0  0  0  0  0  0
   -2.0067   -1.2276   -0.2390 N   0  0  0  1  0  0  0  0  0  0  0  0
   -1.2129   -0.5812    0.6159 C   0  0  0  1  0  0  0  0  0  0  0  0
  1  2  1  0  0  0  0
  1  3  1  0  0  0  0
  3  4  1  0  0  0  0
  3  5  1  0  0  0  0
  3  6  1  0  0  0  0
  6  7  1  0  0  0  0
  6  8  1  0  0  0  0
  6  9  1  0  0  0  0
  8 17  1  0  0  0  0
  9 10  1  0  0  0  0
  9 11  1  0  0  0  0
  9 13  1  0  0  0  0
 11 12  1  0  0  0  0
 13 14  1  0  0  0  0
 13 15  1  0  0  0  0
 13 17  1  0  0  0  0
 15 16  1  0  0  0  0
 17 18  1  0  0  0  0
 17 19  1  0  0  0  0
 19 20  1  0  0  0  0
 19 32  1  0  0  0  0
 20 21  1  0  0  0  0
 20 22  2  0  0  0  0
 22 23  1  0  0  0  0
 23 24  1  0  0  0  0
 23 32  2  0  0  0  0
 24 25  1  0  0  0  0
 24 28  2  0  0  0  0
 25 26  1  0  0  0  0
 25 27  1  0  0  0  0
 28 29  1  0  0  0  0
 29 30  1  0  0  0  0
 29 31  2  0  0  0  0
 31 32  1  0  0  0  0
M  END
> <ConfClashScore>
0 

> <ConfOneFourInteractionScore>
-0.975227 

> <ConfScore>
0.19363 

> <ConfScorePBest>
0.00860949 

> <ConfTolerance>
0.452925 

$$$$
ADN.****
  PyMOL2.4          3D                             0

 32 34  0  0  0  0  0  0  0  0999 V2000
   -1.9210    1.3596   -4.4283 O   0  0  0  1  0  0  0  0  0  0  0  0
   -1.4955    1.9333   -5.0696 H   0  0  0  1  0  0  0  0  0  0  0  0
   -1.0922    0.2342   -4.1754 C   0  0  0  1  0  0  0  0  0  0  0  0
   -0.5383    0.0094   -5.0628 H   0  0  0  1  0  0  0  0  0  0  0  0
   -1.7131   -0.5993   -3.9212 H   0  0  0  1  0  0  0  0  0  0  0  0
   -0.1187    0.4766   -3.0443 C   0  0  0  1  0  0  0  0  0  0  0  0
    0.3965    1.4000   -3.2083 H   0  0  0  1  0  0  0  0  0  0  0  0
   -0.8079    0.4969   -1.7755 O   0  0  0  1  0  0  0  0  0  0  0  0
    0.8832   -0.6921   -2.9291 C   0  0  0  1  0  0  0  0  0  0  0  0
    0.4717   -1.5876   -3.3458 H   0  0  0  1  0  0  0  0  0  0  0  0
    2.1098   -0.3766   -3.5928 O   0  0  0  1  0  0  0  0  0  0  0  0
    2.1243   -0.7966   -4.4559 H   0  0  0  1  0  0  0  0  0  0  0  0
    1.1070   -0.8475   -1.4063 C   0  0  0  1  0  0  0  0  0  0  0  0
    0.8075   -1.8199   -1.0752 H   0  0  0  1  0  0  0  0  0  0  0  0
    2.4781   -0.6307   -1.0701 O   0  0  0  1  0  0  0  0  0  0  0  0
    2.6308    0.3077   -0.9365 H   0  0  0  1  0  0  0  0  0  0  0  0
    0.2102    0.2442   -0.7840 C   0  0  0  1  0  0  0  0  0  0  0  0
    0.7762    1.1315   -0.5909 H   0  0  0  1  0  0  0  0  0  0  0  0
   -0.3914   -0.2321    0.4619 N   0  0  0  1  0  0  0  0  0  0  0  0
    0.1007   -0.0804    1.7219 C   0  0  0  1  0  0  0  0  0  0  0  0
    0.9911    0.4200    1.9180 H   0  0  0  1  0  0  0  0  0  0  0  0
   -0.6290   -0.6104    2.6656 N   0  0  0  1  0  0  0  0  0  0  0  0
   -1.7032   -1.1541    1.9786 C   0  0  0  1  0  0  0  0  0  0  0  0
   -2.8375   -1.8658    2.3577 C   0  0  0  1  0  0  0  0  0  0  0  0
   -3.1179   -2.1871    3.6596 N   0  0  0  1  0  0  0  0  0  0  0  0
   -3.9618   -2.6321    3.8837 H   0  0  0  1  0  0  0  0  0  0  0  0
   -2.4745   -1.9720    4.3669 H   0  0  0  1  0  0  0  0  0  0  0  0
   -3.7105   -2.2666    1.4271 N   0  0  0  1  0  0  0  0  0  0  0  0
   -3.4433   -1.9721    0.1450 C   0  0  0  1  0  0  0  0  0  0  0  0
   -4.1437   -2.3044   -0.5482 H   0  0  0  1  0  0  0  0  0  0  0  0
   -2.4057   -1.3141   -0.3575 N   0  0  0  1  0  0  0  0  0  0  0  0
   -1.5670   -0.9233    0.6031 C   0  0  0  1  0  0  0  0  0  0  0  0
  1  2  1  0  0  0  0
  1  3  1  0  0  0  0
  3  4  1  0  0  0  0
  3  5  1  0  0  0  0
  3  6  1  0  0  0  0
  6  7  1  0  0  0  0
  6  8  1  0  0  0  0
  6  9  1  0  0  0  0
  8 17  1  0  0  0  0
  9 10  1  0  0  0  0
  9 11  1  0  0  0  0
  9 13  1  0  0  0  0
 11 12  1  0  0  0  0
 13 14  1  0  0  0  0
 13 15  1  0  0  0  0
 13 17  1  0  0  0  0
 15 16  1  0  0  0  0
 17 18  1  0  0  0  0
 17 19  1  0  0  0  0
 19 20  1  0  0  0  0
 19 32  1  0  0  0  0
 20 21  1  0  0  0  0
 20 22  2  0  0  0  0
 22 23  1  0  0  0  0
 23 24  1  0  0  0  0
 23 32  2  0  0  0  0
 24 25  1  0  0  0  0
 24 28  2  0  0  0  0
 25 26  1  0  0  0  0
 25 27  1  0  0  0  0
 28 29  1  0  0  0  0
 29 30  1  0  0  0  0
 29 31  2  0  0  0  0
 31 32  1  0  0  0  0
M  END
> <ConfClashScore>
0 

> <ConfOneFourInteractionScore>
-0.970696 

> <ConfScore>
0.193779 

> <ConfScorePBest>
0.00850649 

> <ConfTolerance>
0.251192 

$$$$
ADN.****
  PyMOL2.4          3D                             0

 32 34  0  0  0  0  0  0  0  0999 V2000
   -1.4432    1.7267   -4.4449 O   0  0  0  1  0  0  0  0  0  0  0  0
   -1.7097    2.1880   -3.6463 H   0  0  0  1  0  0  0  0  0  0  0  0
   -1.0034    0.4166   -4.1119 C   0  0  0  1  0  0  0  0  0  0  0  0
   -0.6342   -0.0688   -4.9911 H   0  0  0  1  0  0  0  0  0  0  0  0
   -1.8233   -0.1429   -3.7125 H   0  0  0  1  0  0  0  0  0  0  0  0
    0.0941    0.4962   -3.0866 C   0  0  0  1  0  0  0  0  0  0  0  0
    0.8409    1.1881   -3.4158 H   0  0  0  1  0  0  0  0  0  0  0  0
   -0.4190    0.8758   -1.8385 O   0  0  0  1  0  0  0  0  0  0  0  0
    0.7078   -0.8893   -2.8382 C   0  0  0  1  0  0  0  0  0  0  0  0
   -0.0314   -1.6587   -2.9186 H   0  0  0  1  0  0  0  0  0  0  0  0
    1.7718   -1.1528   -3.7540 O   0  0  0  1  0  0  0  0  0  0  0  0
    2.1069   -0.3237   -4.1030 H   0  0  0  1  0  0  0  0  0  0  0  0
    1.2217   -0.7752   -1.4270 C   0  0  0  1  0  0  0  0  0  0  0  0
    1.2505   -1.7328   -0.9505 H   0  0  0  1  0  0  0  0  0  0  0  0
    2.5248   -0.1908   -1.4020 O   0  0  0  1  0  0  0  0  0  0  0  0
    2.4515    0.7478   -1.2145 H   0  0  0  1  0  0  0  0  0  0  0  0
    0.1953    0.1419   -0.7554 C   0  0  0  1  0  0  0  0  0  0  0  0
    0.6785    0.8113   -0.0747 H   0  0  0  1  0  0  0  0  0  0  0  0
   -0.8050   -0.6463   -0.0373 N   0  0  0  1  0  0  0  0  0  0  0  0
   -0.6617   -1.2456    1.1764 C   0  0  0  1  0  0  0  0  0  0  0  0
    0.2168   -1.1848    1.7298 H   0  0  0  1  0  0  0  0  0  0  0  0
   -1.7098   -1.9022    1.5936 N   0  0  0  1  0  0  0  0  0  0  0  0
   -2.6338   -1.7186    0.5766 C   0  0  0  1  0  0  0  0  0  0  0  0
   -3.9410   -2.1465    0.3643 C   0  0  0  1  0  0  0  0  0  0  0  0
   -4.5769   -2.9246    1.2874 N   0  0  0  1  0  0  0  0  0  0  0  0
   -4.1063   -3.2041    2.1003 H   0  0  0  1  0  0  0  0  0  0  0  0
   -5.5042   -3.2038    1.1374 H   0  0  0  1  0  0  0  0  0  0  0  0
   -4.5811   -1.7921   -0.7552 N   0  0  0  1  0  0  0  0  0  0  0  0
   -3.9191   -1.0381   -1.6469 C   0  0  0  1  0  0  0  0  0  0  0  0
   -4.4494   -0.7873   -2.5057 H   0  0  0  1  0  0  0  0  0  0  0  0
   -2.6790   -0.5694   -1.5807 N   0  0  0  1  0  0  0  0  0  0  0  0
   -2.0814   -0.9356   -0.4459 C   0  0  0  1  0  0  0  0  0  0  0  0
  1  2  1  0  0  0  0
  1  3  1  0  0  0  0
  3  4  1  0  0  0  0
  3  5  1  0  0  0  0
  3  6  1  0  0  0  0
  6  7  1  0  0  0  0
  6  8  1  0  0  0  0
  6  9  1  0  0  0  0
  8 17  1  0  0  0  0
  9 10  1  0  0  0  0
  9 11  1  0  0  0  0
  9 13  1  0  0  0  0
 11 12  1  0  0  0  0
 13 14  1  0  0  0  0
 13 15  1  0  0  0  0
 13 17  1  0  0  0  0
 15 16  1  0  0  0  0
 17 18  1  0  0  0  0
 17 19  1  0  0  0  0
 19 20  1  0  0  0  0
 19 32  1  0  0  0  0
 20 21  1  0  0  0  0
 20 22  2  0  0  0  0
 22 23  1  0  0  0  0
 23 24  1  0  0  0  0
 23 32  2  0  0  0  0
 24 25  1  0  0  0  0
 24 28  2  0  0  0  0
 25 26  1  0  0  0  0
 25 27  1  0  0  0  0
 28 29  1  0  0  0  0
 29 30  1  0  0  0  0
 29 31  2  0  0  0  0
 31 32  1  0  0  0  0
M  END
> <ConfClashScore>
0 

> <ConfOneFourInteractionScore>
-0.970696 

> <ConfScore>
0.197257 

> <ConfScorePBest>
0.00840348 

> <ConfTolerance>
0.366699 

$$$$
ADN.****
  PyMOL2.4          3D                             0

 32 34  0  0  0  0  0  0  0  0999 V2000
   -2.0995    1.2987   -4.2694 O   0  0  0  1  0  0  0  0  0  0  0  0
   -1.6232    2.1096   -4.4623 H   0  0  0  1  0  0  0  0  0  0  0  0
   -1.1789    0.2205   -4.1670 C   0  0  0  1  0  0  0  0  0  0  0  0
   -0.6866    0.0827   -5.1070 H   0  0  0  1  0  0  0  0  0  0  0  0
   -1.7057   -0.6733   -3.9053 H   0  0  0  1  0  0  0  0  0  0  0  0
   -0.1510    0.5282   -3.1018 C   0  0  0  1  0  0  0  0  0  0  0  0
    0.4178    1.3868   -3.3918 H   0  0  0  1  0  0  0  0  0  0  0  0
   -0.7864    0.7443   -1.8277 O   0  0  0  1  0  0  0  0  0  0  0  0
    0.7448   -0.6484   -2.8749 C   0  0  0  1  0  0  0  0  0  0  0  0
    0.2121   -1.5644   -3.0236 H   0  0  0  1  0  0  0  0  0  0  0  0
    1.8709   -0.6037   -3.7531 O   0  0  0  1  0  0  0  0  0  0  0  0
    2.5356   -1.2284   -3.4539 H   0  0  0  1  0  0  0  0  0  0  0  0
    1.1716   -0.5156   -1.4730 C   0  0  0  1  0  0  0  0  0  0  0  0
    1.2860   -1.4799   -1.0235 H   0  0  0  1  0  0  0  0  0  0  0  0
    2.4065    0.1977   -1.3921 O   0  0  0  1  0  0  0  0  0  0  0  0
    3.1377   -0.4134   -1.5080 H   0  0  0  1  0  0  0  0  0  0  0  0
    0.0824    0.2487   -0.7985 C   0  0  0  1  0  0  0  0  0  0  0  0
    0.4962    1.0646   -0.2436 H   0  0  0  1  0  0  0  0  0  0  0  0
   -0.6604   -0.6289    0.1046 N   0  0  0  1  0  0  0  0  0  0  0  0
   -0.7424   -1.9864    0.0473 C   0  0  0  1  0  0  0  0  0  0  0  0
   -0.2515   -2.5461   -0.6789 H   0  0  0  1  0  0  0  0  0  0  0  0
   -1.4835   -2.5329    0.9725 N   0  0  0  1  0  0  0  0  0  0  0  0
   -1.9266   -1.4496    1.7153 C   0  0  0  1  0  0  0  0  0  0  0  0
   -2.7508   -1.3079    2.8278 C   0  0  0  1  0  0  0  0  0  0  0  0
   -3.3391   -2.3700    3.4623 N   0  0  0  1  0  0  0  0  0  0  0  0
   -3.1902   -3.2810    3.1333 H   0  0  0  1  0  0  0  0  0  0  0  0
   -3.9089   -2.2187    4.2452 H   0  0  0  1  0  0  0  0  0  0  0  0
   -2.9959   -0.0888    3.3203 N   0  0  0  1  0  0  0  0  0  0  0  0
   -2.4384    0.9638    2.7014 C   0  0  0  1  0  0  0  0  0  0  0  0
   -2.6564    1.8942    3.1120 H   0  0  0  1  0  0  0  0  0  0  0  0
   -1.6465    0.9777    1.6363 N   0  0  0  1  0  0  0  0  0  0  0  0
   -1.4187   -0.2563    1.1844 C   0  0  0  1  0  0  0  0  0  0  0  0
  1  2  1  0  0  0  0
  1  3  1  0  0  0  0
  3  4  1  0  0  0  0
  3  5  1  0  0  0  0
  3  6  1  0  0  0  0
  6  7  1  0  0  0  0
  6  8  1  0  0  0  0
  6  9  1  0  0  0  0
  8 17  1  0  0  0  0
  9 10  1  0  0  0  0
  9 11  1  0  0  0  0
  9 13  1  0  0  0  0
 11 12  1  0  0  0  0
 13 14  1  0  0  0  0
 13 15  1  0  0  0  0
 13 17  1  0  0  0  0
 15 16  1  0  0  0  0
 17 18  1  0  0  0  0
 17 19  1  0  0  0  0
 19 20  1  0  0  0  0
 19 32  1  0  0  0  0
 20 21  1  0  0  0  0
 20 22  2  0  0  0  0
 22 23  1  0  0  0  0
 23 24  1  0  0  0  0
 23 32  2  0  0  0  0
 24 25  1  0  0  0  0
 24 28  2  0  0  0  0
 25 26  1  0  0  0  0
 25 27  1  0  0  0  0
 28 29  1  0  0  0  0
 29 30  1  0  0  0  0
 29 31  2  0  0  0  0
 31 32  1  0  0  0  0
M  END
> <ConfClashScore>
0 

> <ConfOneFourInteractionScore>
-0.970688 

> <ConfScore>
0.197753 

> <ConfScorePBest>
0.00830048 

> <ConfTolerance>
0.472501 

$$$$
ADN.****
  PyMOL2.4          3D                             0

 32 34  0  0  0  0  0  0  0  0999 V2000
   -1.9259   -0.6041   -3.7566 O   0  0  0  1  0  0  0  0  0  0  0  0
   -2.2318   -0.4390   -2.8617 H   0  0  0  1  0  0  0  0  0  0  0  0
   -0.9865    0.3957   -4.1289 C   0  0  0  1  0  0  0  0  0  0  0  0
   -1.4840    1.3397   -4.2072 H   0  0  0  1  0  0  0  0  0  0  0  0
   -0.5521    0.1414   -5.0732 H   0  0  0  1  0  0  0  0  0  0  0  0
    0.1038    0.4865   -3.0813 C   0  0  0  1  0  0  0  0  0  0  0  0
    0.8549    1.1759   -3.4063 H   0  0  0  1  0  0  0  0  0  0  0  0
   -0.4273    0.8777   -1.8444 O   0  0  0  1  0  0  0  0  0  0  0  0
    0.7149   -0.8960   -2.8109 C   0  0  0  1  0  0  0  0  0  0  0  0
   -0.0225   -1.6667   -2.8945 H   0  0  0  1  0  0  0  0  0  0  0  0
    1.7927   -1.1675   -3.7091 O   0  0  0  1  0  0  0  0  0  0  0  0
    2.1811   -0.3402   -4.0030 H   0  0  0  1  0  0  0  0  0  0  0  0
    1.2084   -0.7680   -1.3936 C   0  0  0  1  0  0  0  0  0  0  0  0
    1.2310   -1.7210   -0.9076 H   0  0  0  1  0  0  0  0  0  0  0  0
    2.5105   -0.1823   -1.3554 O   0  0  0  1  0  0  0  0  0  0  0  0
    2.4458    0.7558   -1.5488 H   0  0  0  1  0  0  0  0  0  0  0  0
    0.1718    0.1547   -0.7456 C   0  0  0  1  0  0  0  0  0  0  0  0
    0.6446    0.8310   -0.0644 H   0  0  0  1  0  0  0  0  0  0  0  0
   -0.8382   -0.6275   -0.0345 N   0  0  0  1  0  0  0  0  0  0  0  0
   -0.9276   -1.9840    0.0346 C   0  0  0  1  0  0  0  0  0  0  0  0
   -0.2443   -2.6139   -0.4321 H   0  0  0  1  0  0  0  0  0  0  0  0
   -1.9357   -2.4346    0.7307 N   0  0  0  1  0  0  0  0  0  0  0  0
   -2.5675   -1.2819    1.1707 C   0  0  0  1  0  0  0  0  0  0  0  0
   -3.6986   -1.0291    1.9412 C   0  0  0  1  0  0  0  0  0  0  0  0
   -4.4429   -2.0569    2.4425 N   0  0  0  1  0  0  0  0  0  0  0  0
   -4.1985   -2.9838    2.2387 H   0  0  0  1  0  0  0  0  0  0  0  0
   -5.2220   -1.8682    3.0063 H   0  0  0  1  0  0  0  0  0  0  0  0
   -4.0604    0.2336    2.1933 N   0  0  0  1  0  0  0  0  0  0  0  0
   -3.3124    1.2187    1.6719 C   0  0  0  1  0  0  0  0  0  0  0  0
   -3.6287    2.1858    1.8872 H   0  0  0  1  0  0  0  0  0  0  0  0
   -2.2234    1.1253    0.9186 N   0  0  0  1  0  0  0  0  0  0  0  0
   -1.8913   -0.1480    0.7009 C   0  0  0  1  0  0  0  0  0  0  0  0
  1  2  1  0  0  0  0
  1  3  1  0  0  0  0
  3  4  1  0  0  0  0
  3  5  1  0  0  0  0
  3  6  1  0  0  0  0
  6  7  1  0  0  0  0
  6  8  1  0  0  0  0
  6  9  1  0  0  0  0
  8 17  1  0  0  0  0
  9 10  1  0  0  0  0
  9 11  1  0  0  0  0
  9 13  1  0  0  0  0
 11 12  1  0  0  0  0
 13 14  1  0  0  0  0
 13 15  1  0  0  0  0
 13 17  1  0  0  0  0
 15 16  1  0  0  0  0
 17 18  1  0  0  0  0
 17 19  1  0  0  0  0
 19 20  1  0  0  0  0
 19 32  1  0  0  0  0
 20 21  1  0  0  0  0
 20 22  2  0  0  0  0
 22 23  1  0  0  0  0
 23 24  1  0  0  0  0
 23 32  2  0  0  0  0
 24 25  1  0  0  0  0
 24 28  2  0  0  0  0
 25 26  1  0  0  0  0
 25 27  1  0  0  0  0
 28 29  1  0  0  0  0
 29 30  1  0  0  0  0
 29 31  2  0  0  0  0
 31 32  1  0  0  0  0
M  END
> <ConfClashScore>
0 

> <ConfOneFourInteractionScore>
-0.982042 

> <ConfScore>
0.199553 

> <ConfScorePBest>
0.00819748 

> <ConfTolerance>
0.273247 

$$$$
ADN.****
  PyMOL2.4          3D                             0

 32 34  0  0  0  0  0  0  0  0999 V2000
   -1.7020   -1.3026   -4.0101 O   0  0  0  1  0  0  0  0  0  0  0  0
   -1.4106   -1.6518   -3.1646 H   0  0  0  1  0  0  0  0  0  0  0  0
   -1.1729    0.0042   -4.1914 C   0  0  0  1  0  0  0  0  0  0  0  0
   -1.9804    0.7062   -4.1803 H   0  0  0  1  0  0  0  0  0  0  0  0
   -0.6768    0.0454   -5.1386 H   0  0  0  1  0  0  0  0  0  0  0  0
   -0.1913    0.3808   -3.1159 C   0  0  0  1  0  0  0  0  0  0  0  0
    0.2810    1.3063   -3.3715 H   0  0  0  1  0  0  0  0  0  0  0  0
   -0.8531    0.4836   -1.8365 O   0  0  0  1  0  0  0  0  0  0  0  0
    0.8610   -0.7326   -2.9260 C   0  0  0  1  0  0  0  0  0  0  0  0
    0.4786   -1.6766   -3.2537 H   0  0  0  1  0  0  0  0  0  0  0  0
    2.0573   -0.4274   -3.6443 O   0  0  0  1  0  0  0  0  0  0  0  0
    2.0867    0.5134   -3.8328 H   0  0  0  1  0  0  0  0  0  0  0  0
    1.1241   -0.7460   -1.4016 C   0  0  0  1  0  0  0  0  0  0  0  0
    0.8730   -1.6971   -0.9808 H   0  0  0  1  0  0  0  0  0  0  0  0
    2.4838   -0.4478   -1.1216 O   0  0  0  1  0  0  0  0  0  0  0  0
    2.9909   -1.2624   -1.0917 H   0  0  0  1  0  0  0  0  0  0  0  0
    0.1959    0.3590   -0.8530 C   0  0  0  1  0  0  0  0  0  0  0  0
    0.7282    1.2816   -0.7512 H   0  0  0  1  0  0  0  0  0  0  0  0
   -0.3580   -0.0310    0.4440 N   0  0  0  1  0  0  0  0  0  0  0  0
    0.3413   -0.4002    1.5519 C   0  0  0  1  0  0  0  0  0  0  0  0
    1.3795   -0.3595    1.5970 H   0  0  0  1  0  0  0  0  0  0  0  0
   -0.3892   -0.8092    2.5533 N   0  0  0  1  0  0  0  0  0  0  0  0
   -1.6860   -0.6952    2.0769 C   0  0  0  1  0  0  0  0  0  0  0  0
   -2.9429   -0.9663    2.6097 C   0  0  0  1  0  0  0  0  0  0  0  0
   -3.1281   -1.4569    3.8754 N   0  0  0  1  0  0  0  0  0  0  0  0
   -4.0353   -1.5953    4.2193 H   0  0  0  1  0  0  0  0  0  0  0  0
   -2.3535   -1.6695    4.4368 H   0  0  0  1  0  0  0  0  0  0  0  0
   -4.0369   -0.7463    1.8727 N   0  0  0  1  0  0  0  0  0  0  0  0
   -3.8719   -0.2790    0.6251 C   0  0  0  1  0  0  0  0  0  0  0  0
   -4.7461   -0.1252    0.0832 H   0  0  0  1  0  0  0  0  0  0  0  0
   -2.7437    0.0131   -0.0102 N   0  0  0  1  0  0  0  0  0  0  0  0
   -1.6796   -0.2094    0.7625 C   0  0  0  1  0  0  0  0  0  0  0  0
  1  2  1  0  0  0  0
  1  3  1  0  0  0  0
  3  4  1  0  0  0  0
  3  5  1  0  0  0  0
  3  6  1  0  0  0  0
  6  7  1  0  0  0  0
  6  8  1  0  0  0  0
  6  9  1  0  0  0  0
  8 17  1  0  0  0  0
  9 10  1  0  0  0  0
  9 11  1  0  0  0  0
  9 13  1  0  0  0  0
 11 12  1  0  0  0  0
 13 14  1  0  0  0  0
 13 15  1  0  0  0  0
 13 17  1  0  0  0  0
 15 16  1  0  0  0  0
 17 18  1  0  0  0  0
 17 19  1  0  0  0  0
 19 20  1  0  0  0  0
 19 32  1  0  0  0  0
 20 21  1  0  0  0  0
 20 22  2  0  0  0  0
 22 23  1  0  0  0  0
 23 24  1  0  0  0  0
 23 32  2  0  0  0  0
 24 25  1  0  0  0  0
 24 28  2  0  0  0  0
 25 26  1  0  0  0  0
 25 27  1  0  0  0  0
 28 29  1  0  0  0  0
 29 30  1  0  0  0  0
 29 31  2  0  0  0  0
 31 32  1  0  0  0  0
M  END
> <ConfClashScore>
0 

> <ConfOneFourInteractionScore>
-0.986581 

> <ConfScore>
0.201128 

> <ConfScorePBest>
0.00809448 

> <ConfTolerance>
0.424993 

$$$$
ADN.****
  PyMOL2.4          3D                             0

 32 34  0  0  0  0  0  0  0  0999 V2000
   -1.9347   -0.4478   -3.3677 O   0  0  0  1  0  0  0  0  0  0  0  0
   -2.6265    0.1005   -2.9903 H   0  0  0  1  0  0  0  0  0  0  0  0
   -0.9654    0.3781   -3.9969 C   0  0  0  1  0  0  0  0  0  0  0  0
   -1.3955    1.3279   -4.2373 H   0  0  0  1  0  0  0  0  0  0  0  0
   -0.6116   -0.0905   -4.8914 H   0  0  0  1  0  0  0  0  0  0  0  0
    0.1692    0.5591   -3.0296 C   0  0  0  1  0  0  0  0  0  0  0  0
    0.8695    1.2631   -3.4282 H   0  0  0  1  0  0  0  0  0  0  0  0
   -0.3293    1.0191   -1.7600 O   0  0  0  1  0  0  0  0  0  0  0  0
    0.8306   -0.7261   -2.7791 C   0  0  0  1  0  0  0  0  0  0  0  0
    0.1540   -1.5363   -2.9546 H   0  0  0  1  0  0  0  0  0  0  0  0
    1.9763   -0.8712   -3.6196 O   0  0  0  1  0  0  0  0  0  0  0  0
    1.7139   -1.2681   -4.4534 H   0  0  0  1  0  0  0  0  0  0  0  0
    1.2450   -0.6854   -1.3156 C   0  0  0  1  0  0  0  0  0  0  0  0
    1.2818   -1.6666   -0.8903 H   0  0  0  1  0  0  0  0  0  0  0  0
    2.5104   -0.0448   -1.1466 O   0  0  0  1  0  0  0  0  0  0  0  0
    2.5390    0.7537   -1.6787 H   0  0  0  1  0  0  0  0  0  0  0  0
    0.1101    0.1454   -0.7138 C   0  0  0  1  0  0  0  0  0  0  0  0
    0.4656    0.7127    0.1208 H   0  0  0  1  0  0  0  0  0  0  0  0
   -0.9856   -0.7248   -0.2823 N   0  0  0  1  0  0  0  0  0  0  0  0
   -1.0395   -2.0809   -0.3865 C   0  0  0  1  0  0  0  0  0  0  0  0
   -0.2366   -2.6480   -0.7260 H   0  0  0  1  0  0  0  0  0  0  0  0
   -2.1750   -2.6159   -0.0283 N   0  0  0  1  0  0  0  0  0  0  0  0
   -2.9406   -1.5260    0.3557 C   0  0  0  1  0  0  0  0  0  0  0  0
   -4.2399   -1.3717    0.8300 C   0  0  0  1  0  0  0  0  0  0  0  0
   -5.1856   -2.3744    1.0631 N   0  0  0  1  0  0  0  0  0  0  0  0
   -4.9575   -3.3122    0.8931 H   0  0  0  1  0  0  0  0  0  0  0  0
   -6.0767   -2.1396    1.3967 H   0  0  0  1  0  0  0  0  0  0  0  0
   -4.7006   -0.1490    1.1156 N   0  0  0  1  0  0  0  0  0  0  0  0
   -3.8809    0.8950    0.9157 C   0  0  0  1  0  0  0  0  0  0  0  0
   -4.2773    1.8286    1.1456 H   0  0  0  1  0  0  0  0  0  0  0  0
   -2.6326    0.8968    0.4644 N   0  0  0  1  0  0  0  0  0  0  0  0
   -2.2089   -0.3406    0.2030 C   0  0  0  1  0  0  0  0  0  0  0  0
  1  2  1  0  0  0  0
  1  3  1  0  0  0  0
  3  4  1  0  0  0  0
  3  5  1  0  0  0  0
  3  6  1  0  0  0  0
  6  7  1  0  0  0  0
  6  8  1  0  0  0  0
  6  9  1  0  0  0  0
  8 17  1  0  0  0  0
  9 10  1  0  0  0  0
  9 11  1  0  0  0  0
  9 13  1  0  0  0  0
 11 12  1  0  0  0  0
 13 14  1  0  0  0  0
 13 15  1  0  0  0  0
 13 17  1  0  0  0  0
 15 16  1  0  0  0  0
 17 18  1  0  0  0  0
 17 19  1  0  0  0  0
 19 20  1  0  0  0  0
 19 32  1  0  0  0  0
 20 21  1  0  0  0  0
 20 22  2  0  0  0  0
 22 23  1  0  0  0  0
 23 24  1  0  0  0  0
 23 32  2  0  0  0  0
 24 25  1  0  0  0  0
 24 28  2  0  0  0  0
 25 26  1  0  0  0  0
 25 27  1  0  0  0  0
 28 29  1  0  0  0  0
 29 30  1  0  0  0  0
 29 31  2  0  0  0  0
 31 32  1  0  0  0  0
M  END
> <ConfClashScore>
0 

> <ConfOneFourInteractionScore>
-0.9841 

> <ConfScore>
0.201181 

> <ConfScorePBest>
0.00799148 

> <ConfTolerance>
0.47693 

$$$$
ADN.****
  PyMOL2.4          3D                             0

 32 34  0  0  0  0  0  0  0  0999 V2000
   -1.4573   -1.5834   -2.2330 O   0  0  0  1  0  0  0  0  0  0  0  0
   -2.3311   -1.6067   -1.8363 H   0  0  0  1  0  0  0  0  0  0  0  0
   -1.4453   -0.6440   -3.2998 C   0  0  0  1  0  0  0  0  0  0  0  0
   -2.3364   -0.0528   -3.2630 H   0  0  0  1  0  0  0  0  0  0  0  0
   -1.4011   -1.1659   -4.2328 H   0  0  0  1  0  0  0  0  0  0  0  0
   -0.2362    0.2592   -3.1705 C   0  0  0  1  0  0  0  0  0  0  0  0
   -0.1620    0.8830   -4.0367 H   0  0  0  1  0  0  0  0  0  0  0  0
   -0.3217    1.0672   -1.9573 O   0  0  0  1  0  0  0  0  0  0  0  0
    1.0237   -0.5557   -2.9882 C   0  0  0  1  0  0  0  0  0  0  0  0
    0.9569   -1.4856   -3.5134 H   0  0  0  1  0  0  0  0  0  0  0  0
    2.1691    0.1670   -3.4421 O   0  0  0  1  0  0  0  0  0  0  0  0
    1.8995    1.0368   -3.7458 H   0  0  0  1  0  0  0  0  0  0  0  0
    1.0856   -0.7855   -1.4722 C   0  0  0  1  0  0  0  0  0  0  0  0
    0.5626   -1.6771   -1.1957 H   0  0  0  1  0  0  0  0  0  0  0  0
    2.4376   -0.8656   -1.0185 O   0  0  0  1  0  0  0  0  0  0  0  0
    2.6510   -1.7772   -0.8067 H   0  0  0  1  0  0  0  0  0  0  0  0
    0.3863    0.4631   -0.9117 C   0  0  0  1  0  0  0  0  0  0  0  0
    1.1150    1.1446   -0.5251 H   0  0  0  1  0  0  0  0  0  0  0  0
   -0.5372    0.0779    0.1559 N   0  0  0  1  0  0  0  0  0  0  0  0
   -0.2674   -0.7160    1.2282 C   0  0  0  1  0  0  0  0  0  0  0  0
    0.6707   -1.1337    1.3927 H   0  0  0  1  0  0  0  0  0  0  0  0
   -1.2748   -0.9137    2.0343 N   0  0  0  1  0  0  0  0  0  0  0  0
   -2.3013   -0.1831    1.4563 C   0  0  0  1  0  0  0  0  0  0  0  0
   -3.6367    0.0381    1.7801 C   0  0  0  1  0  0  0  0  0  0  0  0
   -4.2381   -0.5061    2.8842 N   0  0  0  1  0  0  0  0  0  0  0  0
   -5.2036   -0.4035    3.0168 H   0  0  0  1  0  0  0  0  0  0  0  0
   -3.7027   -0.9981    3.5412 H   0  0  0  1  0  0  0  0  0  0  0  0
   -4.3899    0.8143    0.9934 N   0  0  0  1  0  0  0  0  0  0  0  0
   -3.8195    1.3439   -0.1003 C   0  0  0  1  0  0  0  0  0  0  0  0
   -4.4389    1.9376   -0.6879 H   0  0  0  1  0  0  0  0  0  0  0  0
   -2.5716    1.2120   -0.5330 N   0  0  0  1  0  0  0  0  0  0  0  0
   -1.8529    0.4412    0.2845 C   0  0  0  1  0  0  0  0  0  0  0  0
  1  2  1  0  0  0  0
  1  3  1  0  0  0  0
  3  4  1  0  0  0  0
  3  5  1  0  0  0  0
  3  6  1  0  0  0  0
  6  7  1  0  0  0  0
  6  8  1  0  0  0  0
  6  9  1  0  0  0  0
  8 17  1  0  0  0  0
  9 10  1  0  0  0  0
  9 11  1  0  0  0  0
  9 13  1  0  0  0  0
 11 12  1  0  0  0  0
 13 14  1  0  0  0  0
 13 15  1  0  0  0  0
 13 17  1  0  0  0  0
 15 16  1  0  0  0  0
 17 18  1  0  0  0  0
 17 19  1  0  0  0  0
 19 20  1  0  0  0  0
 19 32  1  0  0  0  0
 20 21  1  0  0  0  0
 20 22  2  0  0  0  0
 22 23  1  0  0  0  0
 23 24  1  0  0  0  0
 23 32  2  0  0  0  0
 24 25  1  0  0  0  0
 24 28  2  0  0  0  0
 25 26  1  0  0  0  0
 25 27  1  0  0  0  0
 28 29  1  0  0  0  0
 29 30  1  0  0  0  0
 29 31  2  0  0  0  0
 31 32  1  0  0  0  0
M  END
> <ConfClashScore>
0 

> <ConfOneFourInteractionScore>
-0.980915 

> <ConfScore>
0.202679 

> <ConfScorePBest>
0.00788848 

> <ConfTolerance>
0.596279 

$$$$
ADN.****
  PyMOL2.4          3D                             0

 32 34  0  0  0  0  0  0  0  0999 V2000
   -0.5659   -0.0649   -5.2170 O   0  0  0  1  0  0  0  0  0  0  0  0
   -0.4065   -1.0105   -5.1702 H   0  0  0  1  0  0  0  0  0  0  0  0
   -1.0153    0.4037   -3.9524 C   0  0  0  1  0  0  0  0  0  0  0  0
   -1.6923   -0.3088   -3.5293 H   0  0  0  1  0  0  0  0  0  0  0  0
   -1.5157    1.3411   -4.0779 H   0  0  0  1  0  0  0  0  0  0  0  0
    0.1666    0.5848   -3.0272 C   0  0  0  1  0  0  0  0  0  0  0  0
    0.8533    1.2835   -3.4575 H   0  0  0  1  0  0  0  0  0  0  0  0
   -0.2718    1.0395   -1.7271 O   0  0  0  1  0  0  0  0  0  0  0  0
    0.8571   -0.7575   -2.7680 C   0  0  0  1  0  0  0  0  0  0  0  0
    0.1863   -1.5734   -2.9386 H   0  0  0  1  0  0  0  0  0  0  0  0
    2.0113   -0.9081   -3.5957 O   0  0  0  1  0  0  0  0  0  0  0  0
    1.7528   -1.2829   -4.4409 H   0  0  0  1  0  0  0  0  0  0  0  0
    1.2424   -0.6697   -1.3145 C   0  0  0  1  0  0  0  0  0  0  0  0
    1.3004   -1.6420   -0.8715 H   0  0  0  1  0  0  0  0  0  0  0  0
    2.4845   -0.0007   -1.1537 O   0  0  0  1  0  0  0  0  0  0  0  0
    2.5379    0.7295   -1.7746 H   0  0  0  1  0  0  0  0  0  0  0  0
    0.0913    0.1467   -0.7092 C   0  0  0  1  0  0  0  0  0  0  0  0
    0.4190    0.6766    0.1606 H   0  0  0  1  0  0  0  0  0  0  0  0
   -1.0308   -0.7220   -0.3576 N   0  0  0  1  0  0  0  0  0  0  0  0
   -1.6382   -1.6360   -1.1629 C   0  0  0  1  0  0  0  0  0  0  0  0
   -1.2893   -1.8603   -2.1166 H   0  0  0  1  0  0  0  0  0  0  0  0
   -2.6916   -2.2096   -0.6480 N   0  0  0  1  0  0  0  0  0  0  0  0
   -2.7908   -1.6368    0.6104 C   0  0  0  1  0  0  0  0  0  0  0  0
   -3.6770   -1.7786    1.6741 C   0  0  0  1  0  0  0  0  0  0  0  0
   -4.7778   -2.6279    1.7043 N   0  0  0  1  0  0  0  0  0  0  0  0
   -5.3490   -2.6616    2.4999 H   0  0  0  1  0  0  0  0  0  0  0  0
   -4.9823   -3.1926    0.9300 H   0  0  0  1  0  0  0  0  0  0  0  0
   -3.4982   -1.0581    2.7866 N   0  0  0  1  0  0  0  0  0  0  0  0
   -2.4626   -0.2049    2.8243 C   0  0  0  1  0  0  0  0  0  0  0  0
   -2.3602    0.3396    3.7044 H   0  0  0  1  0  0  0  0  0  0  0  0
   -1.5516    0.0377    1.8899 N   0  0  0  1  0  0  0  0  0  0  0  0
   -1.7593   -0.7080    0.8038 C   0  0  0  1  0  0  0  0  0  0  0  0
  1  2  1  0  0  0  0
  1  3  1  0  0  0  0
  3  4  1  0  0  0  0
  3  5  1  0  0  0  0
  3  6  1  0  0  0  0
  6  7  1  0  0  0  0
  6  8  1  0  0  0  0
  6  9  1  0  0  0  0
  8 17  1  0  0  0  0
  9 10  1  0  0  0  0
  9 11  1  0  0  0  0
  9 13  1  0  0  0  0
 11 12  1  0  0  0  0
 13 14  1  0  0  0  0
 13 15  1  0  0  0  0
 13 17  1  0  0  0  0
 15 16  1  0  0  0  0
 17 18  1  0  0  0  0
 17 19  1  0  0  0  0
 19 20  1  0  0  0  0
 19 32  1  0  0  0  0
 20 21  1  0  0  0  0
 20 22  2  0  0  0  0
 22 23  1  0  0  0  0
 23 24  1  0  0  0  0
 23 32  2  0  0  0  0
 24 25  1  0  0  0  0
 24 28  2  0  0  0  0
 25 26  1  0  0  0  0
 25 27  1  0  0  0  0
 28 29  1  0  0  0  0
 29 30  1  0  0  0  0
 29 31  2  0  0  0  0
 31 32  1  0  0  0  0
M  END
> <ConfClashScore>
0 

> <ConfOneFourInteractionScore>
-0.966157 

> <ConfScore>
0.204061 

> <ConfScorePBest>
0.00778548 

> <ConfTolerance>
0.401187 

$$$$
ADN.****
  PyMOL2.4          3D                             0

 32 34  0  0  0  0  0  0  0  0999 V2000
   -2.0794   -0.9866   -3.8262 O   0  0  0  1  0  0  0  0  0  0  0  0
   -2.1799   -1.0379   -2.8729 H   0  0  0  1  0  0  0  0  0  0  0  0
   -1.2598    0.1252   -4.1574 C   0  0  0  1  0  0  0  0  0  0  0  0
   -1.8789    0.9933   -4.2473 H   0  0  0  1  0  0  0  0  0  0  0  0
   -0.7793   -0.0693   -5.0935 H   0  0  0  1  0  0  0  0  0  0  0  0
   -0.1991    0.3918   -3.1137 C   0  0  0  1  0  0  0  0  0  0  0  0
    0.3395    1.2800   -3.3705 H   0  0  0  1  0  0  0  0  0  0  0  0
   -0.7943    0.5184   -1.8041 O   0  0  0  1  0  0  0  0  0  0  0  0
    0.7611   -0.8111   -2.9945 C   0  0  0  1  0  0  0  0  0  0  0  0
    0.2855   -1.7109   -3.3247 H   0  0  0  1  0  0  0  0  0  0  0  0
    1.9478   -0.5905   -3.7591 O   0  0  0  1  0  0  0  0  0  0  0  0
    2.5557   -0.0433   -3.2566 H   0  0  0  1  0  0  0  0  0  0  0  0
    1.0869   -0.8847   -1.4840 C   0  0  0  1  0  0  0  0  0  0  0  0
    0.7734   -1.8214   -1.0726 H   0  0  0  1  0  0  0  0  0  0  0  0
    2.4862   -0.7088   -1.2574 O   0  0  0  1  0  0  0  0  0  0  0  0
    2.6756    0.2238   -1.1312 H   0  0  0  1  0  0  0  0  0  0  0  0
    0.2812    0.2809   -0.8712 C   0  0  0  1  0  0  0  0  0  0  0  0
    0.8944    1.1523   -0.7738 H   0  0  0  1  0  0  0  0  0  0  0  0
   -0.2492   -0.0935    0.4429 N   0  0  0  1  0  0  0  0  0  0  0  0
   -0.1732   -1.2588    1.1423 C   0  0  0  1  0  0  0  0  0  0  0  0
    0.3290   -2.0953    0.7822 H   0  0  0  1  0  0  0  0  0  0  0  0
   -0.7782   -1.2472    2.2989 N   0  0  0  1  0  0  0  0  0  0  0  0
   -1.2941    0.0367    2.3826 C   0  0  0  1  0  0  0  0  0  0  0  0
   -2.0500    0.7187    3.3314 C   0  0  0  1  0  0  0  0  0  0  0  0
   -2.4627    0.1503    4.5076 N   0  0  0  1  0  0  0  0  0  0  0  0
   -2.2670   -0.7922    4.6915 H   0  0  0  1  0  0  0  0  0  0  0  0
   -2.9536    0.6861    5.1651 H   0  0  0  1  0  0  0  0  0  0  0  0
   -2.4033    1.9893    3.1091 N   0  0  0  1  0  0  0  0  0  0  0  0
   -2.0190    2.5567    1.9548 C   0  0  0  1  0  0  0  0  0  0  0  0
   -2.3168    3.5437    1.8177 H   0  0  0  1  0  0  0  0  0  0  0  0
   -1.3102    2.0282    0.9648 N   0  0  0  1  0  0  0  0  0  0  0  0
   -0.9695    0.7665    1.2311 C   0  0  0  1  0  0  0  0  0  0  0  0
  1  2  1  0  0  0  0
  1  3  1  0  0  0  0
  3  4  1  0  0  0  0
  3  5  1  0  0  0  0
  3  6  1  0  0  0  0
  6  7  1  0  0  0  0
  6  8  1  0  0  0  0
  6  9  1  0  0  0  0
  8 17  1  0  0  0  0
  9 10  1  0  0  0  0
  9 11  1  0  0  0  0
  9 13  1  0  0  0  0
 11 12  1  0  0  0  0
 13 14  1  0  0  0  0
 13 15  1  0  0  0  0
 13 17  1  0  0  0  0
 15 16  1  0  0  0  0
 17 18  1  0  0  0  0
 17 19  1  0  0  0  0
 19 20  1  0  0  0  0
 19 32  1  0  0  0  0
 20 21  1  0  0  0  0
 20 22  2  0  0  0  0
 22 23  1  0  0  0  0
 23 24  1  0  0  0  0
 23 32  2  0  0  0  0
 24 25  1  0  0  0  0
 24 28  2  0  0  0  0
 25 26  1  0  0  0  0
 25 27  1  0  0  0  0
 28 29  1  0  0  0  0
 29 30  1  0  0  0  0
 29 31  2  0  0  0  0
 31 32  1  0  0  0  0
M  END
> <ConfClashScore>
0 

> <ConfOneFourInteractionScore>
-0.983365 

> <ConfScore>
0.206141 

> <ConfScorePBest>
0.00768248 

> <ConfTolerance>
0.25 

$$$$
ADN.****
  PyMOL2.4          3D                             0

 32 34  0  0  0  0  0  0  0  0999 V2000
   -1.4745   -1.8483   -2.7591 O   0  0  0  1  0  0  0  0  0  0  0  0
   -2.3403   -2.0099   -2.3772 H   0  0  0  1  0  0  0  0  0  0  0  0
   -1.5203   -0.6741   -3.5589 C   0  0  0  1  0  0  0  0  0  0  0  0
   -2.4553   -0.1765   -3.4069 H   0  0  0  1  0  0  0  0  0  0  0  0
   -1.4218   -0.9420   -4.5901 H   0  0  0  1  0  0  0  0  0  0  0  0
   -0.3866    0.2538   -3.1688 C   0  0  0  1  0  0  0  0  0  0  0  0
   -0.2977    1.0342   -3.8954 H   0  0  0  1  0  0  0  0  0  0  0  0
   -0.6267    0.8125   -1.8649 O   0  0  0  1  0  0  0  0  0  0  0  0
    0.9414   -0.5365   -3.0660 C   0  0  0  1  0  0  0  0  0  0  0  0
    0.8793   -1.4645   -3.5948 H   0  0  0  1  0  0  0  0  0  0  0  0
    2.0358    0.2288   -3.5726 O   0  0  0  1  0  0  0  0  0  0  0  0
    2.4629    0.6946   -2.8499 H   0  0  0  1  0  0  0  0  0  0  0  0
    1.0807   -0.7669   -1.5715 C   0  0  0  1  0  0  0  0  0  0  0  0
    0.5808   -1.6640   -1.2709 H   0  0  0  1  0  0  0  0  0  0  0  0
    2.4545   -0.8347   -1.1864 O   0  0  0  1  0  0  0  0  0  0  0  0
    2.6383   -1.6965   -0.8053 H   0  0  0  1  0  0  0  0  0  0  0  0
    0.3983    0.4745   -0.9755 C   0  0  0  1  0  0  0  0  0  0  0  0
    1.0982    1.2794   -0.8913 H   0  0  0  1  0  0  0  0  0  0  0  0
   -0.1539    0.1673    0.3442 N   0  0  0  1  0  0  0  0  0  0  0  0
   -0.0772   -1.0400    0.9682 C   0  0  0  1  0  0  0  0  0  0  0  0
    0.3365   -1.8790    0.5138 H   0  0  0  1  0  0  0  0  0  0  0  0
   -0.5622   -1.0654    2.1798 N   0  0  0  1  0  0  0  0  0  0  0  0
   -0.9908    0.2367    2.3853 C   0  0  0  1  0  0  0  0  0  0  0  0
   -1.6070    0.9001    3.4423 C   0  0  0  1  0  0  0  0  0  0  0  0
   -1.9100    0.2388    4.5967 N   0  0  0  1  0  0  0  0  0  0  0  0
   -2.3365    0.7173    5.3380 H   0  0  0  1  0  0  0  0  0  0  0  0
   -1.7013   -0.7147    4.6845 H   0  0  0  1  0  0  0  0  0  0  0  0
   -1.9054    2.1986    3.3264 N   0  0  0  1  0  0  0  0  0  0  0  0
   -1.6054    2.8127    2.1710 C   0  0  0  1  0  0  0  0  0  0  0  0
   -1.8569    3.8205    2.1187 H   0  0  0  1  0  0  0  0  0  0  0  0
   -1.0311    2.3073    1.0862 N   0  0  0  1  0  0  0  0  0  0  0  0
   -0.7403    1.0157    1.2476 C   0  0  0  1  0  0  0  0  0  0  0  0
  1  2  1  0  0  0  0
  1  3  1  0  0  0  0
  3  4  1  0  0  0  0
  3  5  1  0  0  0  0
  3  6  1  0  0  0  0
  6  7  1  0  0  0  0
  6  8  1  0  0  0  0
  6  9  1  0  0  0  0
  8 17  1  0  0  0  0
  9 10  1  0  0  0  0
  9 11  1  0  0  0  0
  9 13  1  0  0  0  0
 11 12  1  0  0  0  0
 13 14  1  0  0  0  0
 13 15  1  0  0  0  0
 13 17  1  0  0  0  0
 15 16  1  0  0  0  0
 17 18  1  0  0  0  0
 17 19  1  0  0  0  0
 19 20  1  0  0  0  0
 19 32  1  0  0  0  0
 20 21  1  0  0  0  0
 20 22  2  0  0  0  0
 22 23  1  0  0  0  0
 23 24  1  0  0  0  0
 23 32  2  0  0  0  0
 24 25  1  0  0  0  0
 24 28  2  0  0  0  0
 25 26  1  0  0  0  0
 25 27  1  0  0  0  0
 28 29  1  0  0  0  0
 29 30  1  0  0  0  0
 29 31  2  0  0  0  0
 31 32  1  0  0  0  0
M  END
> <ConfClashScore>
0 

> <ConfOneFourInteractionScore>
-0.976376 

> <ConfScore>
0.208455 

> <ConfScorePBest>
0.00757948 

> <ConfTolerance>
0.501901 

$$$$
ADN.****
  PyMOL2.4          3D                             0

 32 34  0  0  0  0  0  0  0  0999 V2000
   -1.3996   -1.1052   -4.8441 O   0  0  0  1  0  0  0  0  0  0  0  0
   -1.6371   -0.4684   -5.5220 H   0  0  0  1  0  0  0  0  0  0  0  0
   -1.5337   -0.5105   -3.5711 C   0  0  0  1  0  0  0  0  0  0  0  0
   -1.6962   -1.2816   -2.8473 H   0  0  0  1  0  0  0  0  0  0  0  0
   -2.3770    0.1480   -3.5870 H   0  0  0  1  0  0  0  0  0  0  0  0
   -0.3060    0.2815   -3.1704 C   0  0  0  1  0  0  0  0  0  0  0  0
   -0.1323    1.0576   -3.8861 H   0  0  0  1  0  0  0  0  0  0  0  0
   -0.4834    0.8447   -1.8584 O   0  0  0  1  0  0  0  0  0  0  0  0
    0.9274   -0.6508   -3.0809 C   0  0  0  1  0  0  0  0  0  0  0  0
    0.7640   -1.5590   -3.6225 H   0  0  0  1  0  0  0  0  0  0  0  0
    2.0990   -0.0029   -3.5786 O   0  0  0  1  0  0  0  0  0  0  0  0
    2.1369    0.8948   -3.2405 H   0  0  0  1  0  0  0  0  0  0  0  0
    1.0409   -0.9161   -1.5900 C   0  0  0  1  0  0  0  0  0  0  0  0
    0.4458   -1.7572   -1.3012 H   0  0  0  1  0  0  0  0  0  0  0  0
    2.3990   -1.1393   -1.2082 O   0  0  0  1  0  0  0  0  0  0  0  0
    2.5300   -0.8457   -0.3036 H   0  0  0  1  0  0  0  0  0  0  0  0
    0.4986    0.3841   -0.9756 C   0  0  0  1  0  0  0  0  0  0  0  0
    1.2825    1.1062   -0.8813 H   0  0  0  1  0  0  0  0  0  0  0  0
   -0.0837    0.1206    0.3407 N   0  0  0  1  0  0  0  0  0  0  0  0
   -1.1237   -0.7095    0.6272 C   0  0  0  1  0  0  0  0  0  0  0  0
   -1.6154   -1.2625   -0.1035 H   0  0  0  1  0  0  0  0  0  0  0  0
   -1.4574   -0.7591    1.8881 N   0  0  0  1  0  0  0  0  0  0  0  0
   -0.5589    0.1039    2.4959 C   0  0  0  1  0  0  0  0  0  0  0  0
   -0.3545    0.5272    3.8059 C   0  0  0  1  0  0  0  0  0  0  0  0
   -1.0679    0.0214    4.8802 N   0  0  0  1  0  0  0  0  0  0  0  0
   -0.8610    0.3206    5.7902 H   0  0  0  1  0  0  0  0  0  0  0  0
   -1.7794   -0.6356    4.7303 H   0  0  0  1  0  0  0  0  0  0  0  0
    0.6244    1.3975    4.0764 N   0  0  0  1  0  0  0  0  0  0  0  0
    1.3708    1.8431    3.0535 C   0  0  0  1  0  0  0  0  0  0  0  0
    2.1184    2.5212    3.3042 H   0  0  0  1  0  0  0  0  0  0  0  0
    1.2835    1.5352    1.7653 N   0  0  0  1  0  0  0  0  0  0  0  0
    0.3042    0.6579    1.5409 C   0  0  0  1  0  0  0  0  0  0  0  0
  1  2  1  0  0  0  0
  1  3  1  0  0  0  0
  3  4  1  0  0  0  0
  3  5  1  0  0  0  0
  3  6  1  0  0  0  0
  6  7  1  0  0  0  0
  6  8  1  0  0  0  0
  6  9  1  0  0  0  0
  8 17  1  0  0  0  0
  9 10  1  0  0  0  0
  9 11  1  0  0  0  0
  9 13  1  0  0  0  0
 11 12  1  0  0  0  0
 13 14  1  0  0  0  0
 13 15  1  0  0  0  0
 13 17  1  0  0  0  0
 15 16  1  0  0  0  0
 17 18  1  0  0  0  0
 17 19  1  0  0  0  0
 19 20  1  0  0  0  0
 19 32  1  0  0  0  0
 20 21  1  0  0  0  0
 20 22  2  0  0  0  0
 22 23  1  0  0  0  0
 23 24  1  0  0  0  0
 23 32  2  0  0  0  0
 24 25  1  0  0  0  0
 24 28  2  0  0  0  0
 25 26  1  0  0  0  0
 25 27  1  0  0  0  0
 28 29  1  0  0  0  0
 29 30  1  0  0  0  0
 29 31  2  0  0  0  0
 31 32  1  0  0  0  0
M  END
> <ConfClashScore>
0 

> <ConfOneFourInteractionScore>
-0.970696 

> <ConfScore>
0.21061 

> <ConfScorePBest>
0.00747648 

> <ConfTolerance>
0.384362 

$$$$
ADN.****
  PyMOL2.4          3D                             0

 32 34  0  0  0  0  0  0  0  0999 V2000
   -1.4862   -1.8063   -2.8491 O   0  0  0  1  0  0  0  0  0  0  0  0
   -1.4615   -1.5874   -1.9147 H   0  0  0  1  0  0  0  0  0  0  0  0
   -1.3957   -0.6143   -3.6182 C   0  0  0  1  0  0  0  0  0  0  0  0
   -2.3399   -0.1121   -3.5856 H   0  0  0  1  0  0  0  0  0  0  0  0
   -1.1646   -0.8752   -4.6299 H   0  0  0  1  0  0  0  0  0  0  0  0
   -0.3342    0.3202   -3.1065 C   0  0  0  1  0  0  0  0  0  0  0  0
   -0.2340    1.1482   -3.7767 H   0  0  0  1  0  0  0  0  0  0  0  0
   -0.6738    0.7851   -1.7880 O   0  0  0  1  0  0  0  0  0  0  0  0
    1.0162   -0.4257   -2.9707 C   0  0  0  1  0  0  0  0  0  0  0  0
    1.0234   -1.3197   -3.5586 H   0  0  0  1  0  0  0  0  0  0  0  0
    2.1069    0.4101   -3.3605 O   0  0  0  1  0  0  0  0  0  0  0  0
    2.4159    0.1484   -4.2310 H   0  0  0  1  0  0  0  0  0  0  0  0
    1.0758   -0.7461   -1.4875 C   0  0  0  1  0  0  0  0  0  0  0  0
    0.5957   -1.6783   -1.2743 H   0  0  0  1  0  0  0  0  0  0  0  0
    2.4259   -0.7879   -1.0231 O   0  0  0  1  0  0  0  0  0  0  0  0
    2.5908   -1.6301   -0.5929 H   0  0  0  1  0  0  0  0  0  0  0  0
    0.3094    0.4288   -0.8595 C   0  0  0  1  0  0  0  0  0  0  0  0
    0.9699    1.2518   -0.6827 H   0  0  0  1  0  0  0  0  0  0  0  0
   -0.3073    0.0176    0.4021 N   0  0  0  1  0  0  0  0  0  0  0  0
   -1.2998    0.6969    1.0396 C   0  0  0  1  0  0  0  0  0  0  0  0
   -1.7070    1.5764    0.6624 H   0  0  0  1  0  0  0  0  0  0  0  0
   -1.7020    0.1612    2.1599 N   0  0  0  1  0  0  0  0  0  0  0  0
   -0.9181   -0.9761    2.2758 C   0  0  0  1  0  0  0  0  0  0  0  0
   -0.8144   -1.9908    3.2227 C   0  0  0  1  0  0  0  0  0  0  0  0
   -1.5484   -2.1308    4.4041 N   0  0  0  1  0  0  0  0  0  0  0  0
   -1.4005   -2.9070    4.9838 H   0  0  0  1  0  0  0  0  0  0  0  0
   -2.2110   -1.4528    4.6526 H   0  0  0  1  0  0  0  0  0  0  0  0
    0.0703   -2.9776    3.0428 N   0  0  0  1  0  0  0  0  0  0  0  0
    0.8425   -2.9383    1.9455 C   0  0  0  1  0  0  0  0  0  0  0  0
    1.5201   -3.7207    1.8442 H   0  0  0  1  0  0  0  0  0  0  0  0
    0.8581   -2.0357    0.9724 N   0  0  0  1  0  0  0  0  0  0  0  0
   -0.0449   -1.0773    1.1844 C   0  0  0  1  0  0  0  0  0  0  0  0
  1  2  1  0  0  0  0
  1  3  1  0  0  0  0
  3  4  1  0  0  0  0
  3  5  1  0  0  0  0
  3  6  1  0  0  0  0
  6  7  1  0  0  0  0
  6  8  1  0  0  0  0
  6  9  1  0  0  0  0
  8 17  1  0  0  0  0
  9 10  1  0  0  0  0
  9 11  1  0  0  0  0
  9 13  1  0  0  0  0
 11 12  1  0  0  0  0
 13 14  1  0  0  0  0
 13 15  1  0  0  0  0
 13 17  1  0  0  0  0
 15 16  1  0  0  0  0
 17 18  1  0  0  0  0
 17 19  1  0  0  0  0
 19 20  1  0  0  0  0
 19 32  1  0  0  0  0
 20 21  1  0  0  0  0
 20 22  2  0  0  0  0
 22 23  1  0  0  0  0
 23 24  1  0  0  0  0
 23 32  2  0  0  0  0
 24 25  1  0  0  0  0
 24 28  2  0  0  0  0
 25 26  1  0  0  0  0
 25 27  1  0  0  0  0
 28 29  1  0  0  0  0
 29 30  1  0  0  0  0
 29 31  2  0  0  0  0
 31 32  1  0  0  0  0
M  END
> <ConfClashScore>
0 

> <ConfOneFourInteractionScore>
-0.976163 

> <ConfScore>
0.210725 

> <ConfScorePBest>
0.00737347 

> <ConfTolerance>
0.495184 

$$$$
ADN.****
  PyMOL2.4          3D                             0

 32 34  0  0  0  0  0  0  0  0999 V2000
   -1.0832   -1.1004   -4.8831 O   0  0  0  1  0  0  0  0  0  0  0  0
   -0.2826   -1.6175   -4.7679 H   0  0  0  1  0  0  0  0  0  0  0  0
   -1.4353   -0.4896   -3.6488 C   0  0  0  1  0  0  0  0  0  0  0  0
   -1.7089   -1.2388   -2.9355 H   0  0  0  1  0  0  0  0  0  0  0  0
   -2.2557    0.1816   -3.7943 H   0  0  0  1  0  0  0  0  0  0  0  0
   -0.2231    0.2743   -3.1572 C   0  0  0  1  0  0  0  0  0  0  0  0
    0.0398    1.0256   -3.8722 H   0  0  0  1  0  0  0  0  0  0  0  0
   -0.4988    0.8771   -1.8803 O   0  0  0  1  0  0  0  0  0  0  0  0
    0.9657   -0.6929   -2.9344 C   0  0  0  1  0  0  0  0  0  0  0  0
    0.8217   -1.6096   -3.4672 H   0  0  0  1  0  0  0  0  0  0  0  0
    2.1981   -0.0948   -3.3390 O   0  0  0  1  0  0  0  0  0  0  0  0
    2.1092    0.8610   -3.3282 H   0  0  0  1  0  0  0  0  0  0  0  0
    0.9360   -0.9223   -1.4336 C   0  0  0  1  0  0  0  0  0  0  0  0
    0.2899   -1.7367   -1.1802 H   0  0  0  1  0  0  0  0  0  0  0  0
    2.2462   -1.1772   -0.9252 O   0  0  0  1  0  0  0  0  0  0  0  0
    2.8949   -0.7254   -1.4700 H   0  0  0  1  0  0  0  0  0  0  0  0
    0.3841    0.4098   -0.9015 C   0  0  0  1  0  0  0  0  0  0  0  0
    1.1798    1.1096   -0.7535 H   0  0  0  1  0  0  0  0  0  0  0  0
   -0.3231    0.1990    0.3634 N   0  0  0  1  0  0  0  0  0  0  0  0
   -1.6702    0.1645    0.5551 C   0  0  0  1  0  0  0  0  0  0  0  0
   -2.3491    0.2845   -0.2236 H   0  0  0  1  0  0  0  0  0  0  0  0
   -2.0459   -0.0305    1.7898 N   0  0  0  1  0  0  0  0  0  0  0  0
   -0.8487   -0.1446    2.4792 C   0  0  0  1  0  0  0  0  0  0  0  0
   -0.5135   -0.3479    3.8146 C   0  0  0  1  0  0  0  0  0  0  0  0
   -1.4890   -0.4866    4.7664 N   0  0  0  1  0  0  0  0  0  0  0  0
   -2.4322   -0.3883    4.5193 H   0  0  0  1  0  0  0  0  0  0  0  0
   -1.2437   -0.6841    5.6944 H   0  0  0  1  0  0  0  0  0  0  0  0
    0.7735   -0.4085    4.1733 N   0  0  0  1  0  0  0  0  0  0  0  0
    1.7017   -0.2541    3.2159 C   0  0  0  1  0  0  0  0  0  0  0  0
    2.6901   -0.3035    3.5355 H   0  0  0  1  0  0  0  0  0  0  0  0
    1.5283   -0.0468    1.9163 N   0  0  0  1  0  0  0  0  0  0  0  0
    0.2333   -0.0044    1.5998 C   0  0  0  1  0  0  0  0  0  0  0  0
  1  2  1  0  0  0  0
  1  3  1  0  0  0  0
  3  4  1  0  0  0  0
  3  5  1  0  0  0  0
  3  6  1  0  0  0  0
  6  7  1  0  0  0  0
  6  8  1  0  0  0  0
  6  9  1  0  0  0  0
  8 17  1  0  0  0  0
  9 10  1  0  0  0  0
  9 11  1  0  0  0  0
  9 13  1  0  0  0  0
 11 12  1  0  0  0  0
 13 14  1  0  0  0  0
 13 15  1  0  0  0  0
 13 17  1  0  0  0  0
 15 16  1  0  0  0  0
 17 18  1  0  0  0  0
 17 19  1  0  0  0  0
 19 20  1  0  0  0  0
 19 32  1  0  0  0  0
 20 21  1  0  0  0  0
 20 22  2  0  0  0  0
 22 23  1  0  0  0  0
 23 24  1  0  0  0  0
 23 32  2  0  0  0  0
 24 25  1  0  0  0  0
 24 28  2  0  0  0  0
 25 26  1  0  0  0  0
 25 27  1  0  0  0  0
 28 29  1  0  0  0  0
 29 30  1  0  0  0  0
 29 31  2  0  0  0  0
 31 32  1  0  0  0  0
M  END
> <ConfClashScore>
0 

> <ConfOneFourInteractionScore>
-0.970696 

> <ConfScore>
0.212703 

> <ConfScorePBest>
0.00727047 

> <ConfTolerance>
0.25 

$$$$
ADN.****
  PyMOL2.4          3D                             0

 32 34  0  0  0  0  0  0  0  0999 V2000
   -0.4864   -0.2700   -5.3815 O   0  0  0  1  0  0  0  0  0  0  0  0
   -0.5473    0.4434   -6.0210 H   0  0  0  1  0  0  0  0  0  0  0  0
   -1.1504    0.1090   -4.1831 C   0  0  0  1  0  0  0  0  0  0  0  0
   -1.8009   -0.6814   -3.8717 H   0  0  0  1  0  0  0  0  0  0  0  0
   -1.7238    0.9951   -4.3592 H   0  0  0  1  0  0  0  0  0  0  0  0
   -0.1379    0.3755   -3.1066 C   0  0  0  1  0  0  0  0  0  0  0  0
    0.4261    1.2501   -3.3553 H   0  0  0  1  0  0  0  0  0  0  0  0
   -0.7866    0.5354   -1.8264 O   0  0  0  1  0  0  0  0  0  0  0  0
    0.7958   -0.8404   -2.9252 C   0  0  0  1  0  0  0  0  0  0  0  0
    0.3197   -1.7383   -3.2600 H   0  0  0  1  0  0  0  0  0  0  0  0
    2.0173   -0.6530   -3.6414 O   0  0  0  1  0  0  0  0  0  0  0  0
    2.3598    0.2266   -3.4662 H   0  0  0  1  0  0  0  0  0  0  0  0
    1.0552   -0.8919   -1.4010 C   0  0  0  1  0  0  0  0  0  0  0  0
    0.7085   -1.8158   -0.9873 H   0  0  0  1  0  0  0  0  0  0  0  0
    2.4462   -0.7346   -1.1173 O   0  0  0  1  0  0  0  0  0  0  0  0
    2.7679    0.0712   -1.5281 H   0  0  0  1  0  0  0  0  0  0  0  0
    0.2437    0.2974   -0.8440 C   0  0  0  1  0  0  0  0  0  0  0  0
    0.8669    1.1605   -0.7353 H   0  0  0  1  0  0  0  0  0  0  0  0
   -0.3474   -0.0437    0.4492 N   0  0  0  1  0  0  0  0  0  0  0  0
   -1.4222   -0.8530    0.6552 C   0  0  0  1  0  0  0  0  0  0  0  0
   -1.8190   -1.4568   -0.0928 H   0  0  0  1  0  0  0  0  0  0  0  0
   -1.9175   -0.8141    1.8623 N   0  0  0  1  0  0  0  0  0  0  0  0
   -1.0990    0.0908    2.5200 C   0  0  0  1  0  0  0  0  0  0  0  0
   -1.0635    0.6057    3.8126 C   0  0  0  1  0  0  0  0  0  0  0  0
   -2.0053    0.1814    4.7124 N   0  0  0  1  0  0  0  0  0  0  0  0
   -2.7347   -0.4038    4.4190 H   0  0  0  1  0  0  0  0  0  0  0  0
   -1.9498    0.4630    5.6494 H   0  0  0  1  0  0  0  0  0  0  0  0
   -0.1213    1.4942    4.1467 N   0  0  0  1  0  0  0  0  0  0  0  0
    0.7552    1.8677    3.2011 C   0  0  0  1  0  0  0  0  0  0  0  0
    1.4691    2.5628    3.4990 H   0  0  0  1  0  0  0  0  0  0  0  0
    0.8339    1.4696    1.9373 N   0  0  0  1  0  0  0  0  0  0  0  0
   -0.1147    0.5774    1.6492 C   0  0  0  1  0  0  0  0  0  0  0  0
  1  2  1  0  0  0  0
  1  3  1  0  0  0  0
  3  4  1  0  0  0  0
  3  5  1  0  0  0  0
  3  6  1  0  0  0  0
  6  7  1  0  0  0  0
  6  8  1  0  0  0  0
  6  9  1  0  0  0  0
  8 17  1  0  0  0  0
  9 10  1  0  0  0  0
  9 11  1  0  0  0  0
  9 13  1  0  0  0  0
 11 12  1  0  0  0  0
 13 14  1  0  0  0  0
 13 15  1  0  0  0  0
 13 17  1  0  0  0  0
 15 16  1  0  0  0  0
 17 18  1  0  0  0  0
 17 19  1  0  0  0  0
 19 20  1  0  0  0  0
 19 32  1  0  0  0  0
 20 21  1  0  0  0  0
 20 22  2  0  0  0  0
 22 23  1  0  0  0  0
 23 24  1  0  0  0  0
 23 32  2  0  0  0  0
 24 25  1  0  0  0  0
 24 28  2  0  0  0  0
 25 26  1  0  0  0  0
 25 27  1  0  0  0  0
 28 29  1  0  0  0  0
 29 30  1  0  0  0  0
 29 31  2  0  0  0  0
 31 32  1  0  0  0  0
M  END
> <ConfClashScore>
0 

> <ConfOneFourInteractionScore>
-0.970696 

> <ConfScore>
0.21427 

> <ConfScorePBest>
0.00716747 

> <ConfTolerance>
0.25 

$$$$
ADN.****
  PyMOL2.4          3D                             0

 32 34  0  0  0  0  0  0  0  0999 V2000
   -1.9278    1.3968   -4.3048 O   0  0  0  1  0  0  0  0  0  0  0  0
   -2.7909    1.2403   -3.9147 H   0  0  0  1  0  0  0  0  0  0  0  0
   -1.1268    0.2304   -4.1681 C   0  0  0  1  0  0  0  0  0  0  0  0
   -0.5984    0.0414   -5.0791 H   0  0  0  1  0  0  0  0  0  0  0  0
   -1.7441   -0.6110   -3.9320 H   0  0  0  1  0  0  0  0  0  0  0  0
   -0.1462    0.4822   -3.0453 C   0  0  0  1  0  0  0  0  0  0  0  0
    0.3542    1.4135   -3.2102 H   0  0  0  1  0  0  0  0  0  0  0  0
   -0.8234    0.4872   -1.7699 O   0  0  0  1  0  0  0  0  0  0  0  0
    0.8734   -0.6726   -2.9446 C   0  0  0  1  0  0  0  0  0  0  0  0
    0.4708   -1.5721   -3.3613 H   0  0  0  1  0  0  0  0  0  0  0  0
    2.0880   -0.3369   -3.6181 O   0  0  0  1  0  0  0  0  0  0  0  0
    2.2486   -0.9686   -4.3229 H   0  0  0  1  0  0  0  0  0  0  0  0
    1.1140   -0.8310   -1.4247 C   0  0  0  1  0  0  0  0  0  0  0  0
    0.8317   -1.8090   -1.0950 H   0  0  0  1  0  0  0  0  0  0  0  0
    2.4851   -0.5959   -1.1006 O   0  0  0  1  0  0  0  0  0  0  0  0
    2.6203    0.3409   -0.9404 H   0  0  0  1  0  0  0  0  0  0  0  0
    0.2077    0.2451   -0.7892 C   0  0  0  1  0  0  0  0  0  0  0  0
    0.7627    1.1397   -0.5978 H   0  0  0  1  0  0  0  0  0  0  0  0
   -0.3751   -0.2449    0.4603 N   0  0  0  1  0  0  0  0  0  0  0  0
    0.3371   -0.5828    1.5700 C   0  0  0  1  0  0  0  0  0  0  0  0
    1.3735   -0.5083    1.6133 H   0  0  0  1  0  0  0  0  0  0  0  0
   -0.3787   -1.0073    2.5756 N   0  0  0  1  0  0  0  0  0  0  0  0
   -1.6791   -0.9388    2.1002 C   0  0  0  1  0  0  0  0  0  0  0  0
   -2.9259   -1.2460    2.6369 C   0  0  0  1  0  0  0  0  0  0  0  0
   -3.0362   -1.7282    3.9086 N   0  0  0  1  0  0  0  0  0  0  0  0
   -3.8971   -2.0681    4.2307 H   0  0  0  1  0  0  0  0  0  0  0  0
   -2.2547   -1.7347    4.4997 H   0  0  0  1  0  0  0  0  0  0  0  0
   -4.0274   -1.0672    1.8998 N   0  0  0  1  0  0  0  0  0  0  0  0
   -3.8790   -0.6046    0.6484 C   0  0  0  1  0  0  0  0  0  0  0  0
   -4.7583   -0.4832    0.1065 H   0  0  0  1  0  0  0  0  0  0  0  0
   -2.7615   -0.2813    0.0092 N   0  0  0  1  0  0  0  0  0  0  0  0
   -1.6898   -0.4633    0.7820 C   0  0  0  1  0  0  0  0  0  0  0  0
  1  2  1  0  0  0  0
  1  3  1  0  0  0  0
  3  4  1  0  0  0  0
  3  5  1  0  0  0  0
  3  6  1  0  0  0  0
  6  7  1  0  0  0  0
  6  8  1  0  0  0  0
  6  9  1  0  0  0  0
  8 17  1  0  0  0  0
  9 10  1  0  0  0  0
  9 11  1  0  0  0  0
  9 13  1  0  0  0  0
 11 12  1  0  0  0  0
 13 14  1  0  0  0  0
 13 15  1  0  0  0  0
 13 17  1  0  0  0  0
 15 16  1  0  0  0  0
 17 18  1  0  0  0  0
 17 19  1  0  0  0  0
 19 20  1  0  0  0  0
 19 32  1  0  0  0  0
 20 21  1  0  0  0  0
 20 22  2  0  0  0  0
 22 23  1  0  0  0  0
 23 24  1  0  0  0  0
 23 32  2  0  0  0  0
 24 25  1  0  0  0  0
 24 28  2  0  0  0  0
 25 26  1  0  0  0  0
 25 27  1  0  0  0  0
 28 29  1  0  0  0  0
 29 30  1  0  0  0  0
 29 31  2  0  0  0  0
 31 32  1  0  0  0  0
M  END
> <ConfClashScore>
0 

> <ConfOneFourInteractionScore>
-0.970696 

> <ConfScore>
0.219003 

> <ConfScorePBest>
0.00706447 

> <ConfTolerance>
0.377829 

$$$$
ADN.****
  PyMOL2.4          3D                             0

 32 34  0  0  0  0  0  0  0  0999 V2000
   -1.8996    1.6456   -3.9058 O   0  0  0  1  0  0  0  0  0  0  0  0
   -2.4271    1.6967   -3.1054 H   0  0  0  1  0  0  0  0  0  0  0  0
   -1.1444    0.4414   -3.9003 C   0  0  0  1  0  0  0  0  0  0  0  0
   -0.8545    0.1988   -4.9013 H   0  0  0  1  0  0  0  0  0  0  0  0
   -1.7414   -0.3510   -3.4994 H   0  0  0  1  0  0  0  0  0  0  0  0
    0.0907    0.6194   -3.0492 C   0  0  0  1  0  0  0  0  0  0  0  0
    0.7331    1.3469   -3.4997 H   0  0  0  1  0  0  0  0  0  0  0  0
   -0.2706    1.0222   -1.7089 O   0  0  0  1  0  0  0  0  0  0  0  0
    0.8241   -0.7145   -2.8805 C   0  0  0  1  0  0  0  0  0  0  0  0
    0.1604   -1.5396   -3.0342 H   0  0  0  1  0  0  0  0  0  0  0  0
    1.9243   -0.8124   -3.7861 O   0  0  0  1  0  0  0  0  0  0  0  0
    1.7562   -1.5136   -4.4199 H   0  0  0  1  0  0  0  0  0  0  0  0
    1.3023   -0.6646   -1.4531 C   0  0  0  1  0  0  0  0  0  0  0  0
    1.4093   -1.6490   -1.0474 H   0  0  0  1  0  0  0  0  0  0  0  0
    2.5455    0.0311   -1.3505 O   0  0  0  1  0  0  0  0  0  0  0  0
    2.4284    0.8193   -0.8152 H   0  0  0  1  0  0  0  0  0  0  0  0
    0.1770    0.1057   -0.7472 C   0  0  0  1  0  0  0  0  0  0  0  0
    0.5502    0.6148    0.1168 H   0  0  0  1  0  0  0  0  0  0  0  0
   -0.9015   -0.7991   -0.3526 N   0  0  0  1  0  0  0  0  0  0  0  0
   -0.8198   -1.8452    0.5145 C   0  0  0  1  0  0  0  0  0  0  0  0
    0.0630   -2.0998    1.0019 H   0  0  0  1  0  0  0  0  0  0  0  0
   -1.9327   -2.5048    0.6881 N   0  0  0  1  0  0  0  0  0  0  0  0
   -2.8357   -1.8374   -0.1248 C   0  0  0  1  0  0  0  0  0  0  0  0
   -4.1838   -2.0106   -0.4242 C   0  0  0  1  0  0  0  0  0  0  0  0
   -4.9441   -3.0070    0.1152 N   0  0  0  1  0  0  0  0  0  0  0  0
   -4.5349   -3.6660    0.7141 H   0  0  0  1  0  0  0  0  0  0  0  0
   -5.8993   -3.0636   -0.0962 H   0  0  0  1  0  0  0  0  0  0  0  0
   -4.7862   -1.1752   -1.2774 N   0  0  0  1  0  0  0  0  0  0  0  0
   -4.0486   -0.1981   -1.8280 C   0  0  0  1  0  0  0  0  0  0  0  0
   -4.5521    0.4275   -2.4888 H   0  0  0  1  0  0  0  0  0  0  0  0
   -2.7634    0.0775   -1.6428 N   0  0  0  1  0  0  0  0  0  0  0  0
   -2.2045   -0.7705   -0.7783 C   0  0  0  1  0  0  0  0  0  0  0  0
  1  2  1  0  0  0  0
  1  3  1  0  0  0  0
  3  4  1  0  0  0  0
  3  5  1  0  0  0  0
  3  6  1  0  0  0  0
  6  7  1  0  0  0  0
  6  8  1  0  0  0  0
  6  9  1  0  0  0  0
  8 17  1  0  0  0  0
  9 10  1  0  0  0  0
  9 11  1  0  0  0  0
  9 13  1  0  0  0  0
 11 12  1  0  0  0  0
 13 14  1  0  0  0  0
 13 15  1  0  0  0  0
 13 17  1  0  0  0  0
 15 16  1  0  0  0  0
 17 18  1  0  0  0  0
 17 19  1  0  0  0  0
 19 20  1  0  0  0  0
 19 32  1  0  0  0  0
 20 21  1  0  0  0  0
 20 22  2  0  0  0  0
 22 23  1  0  0  0  0
 23 24  1  0  0  0  0
 23 32  2  0  0  0  0
 24 25  1  0  0  0  0
 24 28  2  0  0  0  0
 25 26  1  0  0  0  0
 25 27  1  0  0  0  0
 28 29  1  0  0  0  0
 29 30  1  0  0  0  0
 29 31  2  0  0  0  0
 31 32  1  0  0  0  0
M  END
> <ConfClashScore>
0 

> <ConfOneFourInteractionScore>
-0.975227 

> <ConfScore>
0.222365 

> <ConfScorePBest>
0.00696147 

> <ConfTolerance>
0.533561 

$$$$
ADN.****
  PyMOL2.4          3D                             0

 32 34  0  0  0  0  0  0  0  0999 V2000
   -0.6350    0.2132   -5.4227 O   0  0  0  1  0  0  0  0  0  0  0  0
    0.2303   -0.2023   -5.4055 H   0  0  0  1  0  0  0  0  0  0  0  0
   -1.1070    0.3736   -4.1023 C   0  0  0  1  0  0  0  0  0  0  0  0
   -1.7049   -0.4759   -3.8458 H   0  0  0  1  0  0  0  0  0  0  0  0
   -1.7063    1.2589   -4.0571 H   0  0  0  1  0  0  0  0  0  0  0  0
    0.0152    0.4967   -3.0998 C   0  0  0  1  0  0  0  0  0  0  0  0
    0.7299    1.2120   -3.4497 H   0  0  0  1  0  0  0  0  0  0  0  0
   -0.4811    0.8652   -1.8416 O   0  0  0  1  0  0  0  0  0  0  0  0
    0.6819   -0.8656   -2.8597 C   0  0  0  1  0  0  0  0  0  0  0  0
   -0.0321   -1.6603   -2.9190 H   0  0  0  1  0  0  0  0  0  0  0  0
    1.7328   -1.0975   -3.7994 O   0  0  0  1  0  0  0  0  0  0  0  0
    2.5474   -0.7095   -3.4715 H   0  0  0  1  0  0  0  0  0  0  0  0
    1.2246   -0.7264   -1.4616 C   0  0  0  1  0  0  0  0  0  0  0  0
    1.2975   -1.6799   -0.9815 H   0  0  0  1  0  0  0  0  0  0  0  0
    2.5070   -0.0976   -1.4700 O   0  0  0  1  0  0  0  0  0  0  0  0
    2.3983    0.8506   -1.5733 H   0  0  0  1  0  0  0  0  0  0  0  0
    0.1834    0.1586   -0.7700 C   0  0  0  1  0  0  0  0  0  0  0  0
    0.6591    0.8478   -0.1039 H   0  0  0  1  0  0  0  0  0  0  0  0
   -0.7721   -0.6596   -0.0249 N   0  0  0  1  0  0  0  0  0  0  0  0
   -1.9877   -1.0973   -0.4532 C   0  0  0  1  0  0  0  0  0  0  0  0
   -2.3577   -0.8812   -1.4008 H   0  0  0  1  0  0  0  0  0  0  0  0
   -2.6540   -1.8088    0.4150 N   0  0  0  1  0  0  0  0  0  0  0  0
   -1.8083   -1.8575    1.5122 C   0  0  0  1  0  0  0  0  0  0  0  0
   -1.8910   -2.4339    2.7763 C   0  0  0  1  0  0  0  0  0  0  0  0
   -2.9771   -3.1534    3.2001 N   0  0  0  1  0  0  0  0  0  0  0  0
   -2.9820   -3.5516    4.0955 H   0  0  0  1  0  0  0  0  0  0  0  0
   -3.7490   -3.2699    2.6077 H   0  0  0  1  0  0  0  0  0  0  0  0
   -0.8766   -2.2937    3.6366 N   0  0  0  1  0  0  0  0  0  0  0  0
    0.1892   -1.5794    3.2419 C   0  0  0  1  0  0  0  0  0  0  0  0
    0.9545   -1.4901    3.9404 H   0  0  0  1  0  0  0  0  0  0  0  0
    0.3983   -0.9716    2.0805 N   0  0  0  1  0  0  0  0  0  0  0  0
   -0.6304   -1.1453    1.2494 C   0  0  0  1  0  0  0  0  0  0  0  0
  1  2  1  0  0  0  0
  1  3  1  0  0  0  0
  3  4  1  0  0  0  0
  3  5  1  0  0  0  0
  3  6  1  0  0  0  0
  6  7  1  0  0  0  0
  6  8  1  0  0  0  0
  6  9  1  0  0  0  0
  8 17  1  0  0  0  0
  9 10  1  0  0  0  0
  9 11  1  0  0  0  0
  9 13  1  0  0  0  0
 11 12  1  0  0  0  0
 13 14  1  0  0  0  0
 13 15  1  0  0  0  0
 13 17  1  0  0  0  0
 15 16  1  0  0  0  0
 17 18  1  0  0  0  0
 17 19  1  0  0  0  0
 19 20  1  0  0  0  0
 19 32  1  0  0  0  0
 20 21  1  0  0  0  0
 20 22  2  0  0  0  0
 22 23  1  0  0  0  0
 23 24  1  0  0  0  0
 23 32  2  0  0  0  0
 24 25  1  0  0  0  0
 24 28  2  0  0  0  0
 25 26  1  0  0  0  0
 25 27  1  0  0  0  0
 28 29  1  0  0  0  0
 29 30  1  0  0  0  0
 29 31  2  0  0  0  0
 31 32  1  0  0  0  0
M  END
> <ConfClashScore>
0 

> <ConfOneFourInteractionScore>
-0.975227 

> <ConfScore>
0.224036 

> <ConfScorePBest>
0.00685847 

> <ConfTolerance>
0.331047 

$$$$
ADN.****
  PyMOL2.4          3D                             0

 32 34  0  0  0  0  0  0  0  0999 V2000
   -2.5904    0.2514   -3.6336 O   0  0  0  1  0  0  0  0  0  0  0  0
   -2.7786    0.4831   -4.5460 H   0  0  0  1  0  0  0  0  0  0  0  0
   -1.4484   -0.5984   -3.5848 C   0  0  0  1  0  0  0  0  0  0  0  0
   -1.2697   -1.0260   -4.5492 H   0  0  0  1  0  0  0  0  0  0  0  0
   -1.6050   -1.3800   -2.8710 H   0  0  0  1  0  0  0  0  0  0  0  0
   -0.2681    0.2505   -3.1699 C   0  0  0  1  0  0  0  0  0  0  0  0
   -0.0704    0.9813   -3.9260 H   0  0  0  1  0  0  0  0  0  0  0  0
   -0.5450    0.9044   -1.9055 O   0  0  0  1  0  0  0  0  0  0  0  0
    0.9669   -0.6332   -2.9561 C   0  0  0  1  0  0  0  0  0  0  0  0
    0.8616   -1.5692   -3.4638 H   0  0  0  1  0  0  0  0  0  0  0  0
    2.1517    0.0240   -3.4084 O   0  0  0  1  0  0  0  0  0  0  0  0
    2.2347    0.8733   -2.9687 H   0  0  0  1  0  0  0  0  0  0  0  0
    0.9946   -0.8323   -1.4351 C   0  0  0  1  0  0  0  0  0  0  0  0
    0.4252   -1.6908   -1.1457 H   0  0  0  1  0  0  0  0  0  0  0  0
    2.3331   -0.9639   -0.9543 O   0  0  0  1  0  0  0  0  0  0  0  0
    2.8885   -1.3273   -1.6479 H   0  0  0  1  0  0  0  0  0  0  0  0
    0.3431    0.4681   -0.9259 C   0  0  0  1  0  0  0  0  0  0  0  0
    1.0945    1.2111   -0.7575 H   0  0  0  1  0  0  0  0  0  0  0  0
   -0.3771    0.2103    0.3215 N   0  0  0  1  0  0  0  0  0  0  0  0
    0.0898   -0.4465    1.4185 C   0  0  0  1  0  0  0  0  0  0  0  0
    1.0527   -0.8363    1.4691 H   0  0  0  1  0  0  0  0  0  0  0  0
   -0.7620   -0.5504    2.4021 N   0  0  0  1  0  0  0  0  0  0  0  0
   -1.8896    0.0995    1.9249 C   0  0  0  1  0  0  0  0  0  0  0  0
   -3.1566    0.3513    2.4430 C   0  0  0  1  0  0  0  0  0  0  0  0
   -3.6112   -0.0384    3.6981 N   0  0  0  1  0  0  0  0  0  0  0  0
   -4.5463    0.1130    3.9493 H   0  0  0  1  0  0  0  0  0  0  0  0
   -2.9965   -0.4644    4.3314 H   0  0  0  1  0  0  0  0  0  0  0  0
   -4.0513    1.0226    1.7098 N   0  0  0  1  0  0  0  0  0  0  0  0
   -3.6871    1.4188    0.4800 C   0  0  0  1  0  0  0  0  0  0  0  0
   -4.4118    1.9338   -0.0597 H   0  0  0  1  0  0  0  0  0  0  0  0
   -2.5270    1.2420   -0.1403 N   0  0  0  1  0  0  0  0  0  0  0  0
   -1.6613    0.5796    0.6283 C   0  0  0  1  0  0  0  0  0  0  0  0
  1  2  1  0  0  0  0
  1  3  1  0  0  0  0
  3  4  1  0  0  0  0
  3  5  1  0  0  0  0
  3  6  1  0  0  0  0
  6  7  1  0  0  0  0
  6  8  1  0  0  0  0
  6  9  1  0  0  0  0
  8 17  1  0  0  0  0
  9 10  1  0  0  0  0
  9 11  1  0  0  0  0
  9 13  1  0  0  0  0
 11 12  1  0  0  0  0
 13 14  1  0  0  0  0
 13 15  1  0  0  0  0
 13 17  1  0  0  0  0
 15 16  1  0  0  0  0
 17 18  1  0  0  0  0
 17 19  1  0  0  0  0
 19 20  1  0  0  0  0
 19 32  1  0  0  0  0
 20 21  1  0  0  0  0
 20 22  2  0  0  0  0
 22 23  1  0  0  0  0
 23 24  1  0  0  0  0
 23 32  2  0  0  0  0
 24 25  1  0  0  0  0
 24 28  2  0  0  0  0
 25 26  1  0  0  0  0
 25 27  1  0  0  0  0
 28 29  1  0  0  0  0
 29 30  1  0  0  0  0
 29 31  2  0  0  0  0
 31 32  1  0  0  0  0
M  END
> <ConfClashScore>
0 

> <ConfOneFourInteractionScore>
-0.975227 

> <ConfScore>
0.224428 

> <ConfScorePBest>
0.00675547 

> <ConfTolerance>
0.542952 

$$$$
ADN.****
  PyMOL2.4          3D                             0

 32 34  0  0  0  0  0  0  0  0999 V2000
   -0.4542    0.1079   -5.4589 O   0  0  0  1  0  0  0  0  0  0  0  0
   -0.2086   -0.7887   -5.6985 H   0  0  0  1  0  0  0  0  0  0  0  0
   -1.1151    0.0985   -4.2016 C   0  0  0  1  0  0  0  0  0  0  0  0
   -1.5637   -0.8598   -4.0428 H   0  0  0  1  0  0  0  0  0  0  0  0
   -1.8730    0.8537   -4.1926 H   0  0  0  1  0  0  0  0  0  0  0  0
   -0.1172    0.3749   -3.0999 C   0  0  0  1  0  0  0  0  0  0  0  0
    0.4478    1.2509   -3.3413 H   0  0  0  1  0  0  0  0  0  0  0  0
   -0.7904    0.5369   -1.8327 O   0  0  0  1  0  0  0  0  0  0  0  0
    0.8178   -0.8364   -2.8965 C   0  0  0  1  0  0  0  0  0  0  0  0
    0.3516   -1.7374   -3.2368 H   0  0  0  1  0  0  0  0  0  0  0  0
    2.0517   -0.6466   -3.5904 O   0  0  0  1  0  0  0  0  0  0  0  0
    2.2691    0.2883   -3.6077 H   0  0  0  1  0  0  0  0  0  0  0  0
    1.0489   -0.8813   -1.3676 C   0  0  0  1  0  0  0  0  0  0  0  0
    0.6982   -1.8050   -0.9570 H   0  0  0  1  0  0  0  0  0  0  0  0
    2.4337   -0.7172   -1.0585 O   0  0  0  1  0  0  0  0  0  0  0  0
    2.8186   -0.0649   -1.6483 H   0  0  0  1  0  0  0  0  0  0  0  0
    0.2223    0.3068   -0.8302 C   0  0  0  1  0  0  0  0  0  0  0  0
    0.8398    1.1728   -0.7132 H   0  0  0  1  0  0  0  0  0  0  0  0
   -0.3919   -0.0322    0.4538 N   0  0  0  1  0  0  0  0  0  0  0  0
   -1.6216   -0.5795    0.6568 C   0  0  0  1  0  0  0  0  0  0  0  0
   -2.2614   -0.8230   -0.1261 H   0  0  0  1  0  0  0  0  0  0  0  0
   -1.9372   -0.7757    1.9081 N   0  0  0  1  0  0  0  0  0  0  0  0
   -0.8208   -0.3300    2.5983 C   0  0  0  1  0  0  0  0  0  0  0  0
   -0.4850   -0.2401    3.9459 C   0  0  0  1  0  0  0  0  0  0  0  0
   -1.2921   -0.6277    5.0100 N   0  0  0  1  0  0  0  0  0  0  0  0
   -2.1985   -0.9600    4.8418 H   0  0  0  1  0  0  0  0  0  0  0  0
   -0.9544   -0.5686    5.9280 H   0  0  0  1  0  0  0  0  0  0  0  0
    0.7056    0.2550    4.3009 N   0  0  0  1  0  0  0  0  0  0  0  0
    1.5334    0.6635    3.3263 C   0  0  0  1  0  0  0  0  0  0  0  0
    2.4472    1.0458    3.6431 H   0  0  0  1  0  0  0  0  0  0  0  0
    1.3431    0.6455    2.0127 N   0  0  0  1  0  0  0  0  0  0  0  0
    0.1507    0.1351    1.7017 C   0  0  0  1  0  0  0  0  0  0  0  0
  1  2  1  0  0  0  0
  1  3  1  0  0  0  0
  3  4  1  0  0  0  0
  3  5  1  0  0  0  0
  3  6  1  0  0  0  0
  6  7  1  0  0  0  0
  6  8  1  0  0  0  0
  6  9  1  0  0  0  0
  8 17  1  0  0  0  0
  9 10  1  0  0  0  0
  9 11  1  0  0  0  0
  9 13  1  0  0  0  0
 11 12  1  0  0  0  0
 13 14  1  0  0  0  0
 13 15  1  0  0  0  0
 13 17  1  0  0  0  0
 15 16  1  0  0  0  0
 17 18  1  0  0  0  0
 17 19  1  0  0  0  0
 19 20  1  0  0  0  0
 19 32  1  0  0  0  0
 20 21  1  0  0  0  0
 20 22  2  0  0  0  0
 22 23  1  0  0  0  0
 23 24  1  0  0  0  0
 23 32  2  0  0  0  0
 24 25  1  0  0  0  0
 24 28  2  0  0  0  0
 25 26  1  0  0  0  0
 25 27  1  0  0  0  0
 28 29  1  0  0  0  0
 29 30  1  0  0  0  0
 29 31  2  0  0  0  0
 31 32  1  0  0  0  0
M  END
> <ConfClashScore>
0 

> <ConfOneFourInteractionScore>
-0.975227 

> <ConfScore>
0.224722 

> <ConfScorePBest>
0.00665247 

> <ConfTolerance>
0.25 

$$$$
ADN.****
  PyMOL2.4          3D                             0

 32 34  0  0  0  0  0  0  0  0999 V2000
   -2.1021   -0.6785   -3.3176 O   0  0  0  1  0  0  0  0  0  0  0  0
   -2.9720   -0.2872   -3.2096 H   0  0  0  1  0  0  0  0  0  0  0  0
   -1.2305    0.2638   -3.9258 C   0  0  0  1  0  0  0  0  0  0  0  0
   -1.7637    1.1798   -4.0724 H   0  0  0  1  0  0  0  0  0  0  0  0
   -0.9153   -0.1215   -4.8729 H   0  0  0  1  0  0  0  0  0  0  0  0
   -0.0125    0.5430   -3.0889 C   0  0  0  1  0  0  0  0  0  0  0  0
    0.6104    1.2537   -3.5907 H   0  0  0  1  0  0  0  0  0  0  0  0
   -0.3950    1.0352   -1.7847 O   0  0  0  1  0  0  0  0  0  0  0  0
    0.7602   -0.7508   -2.8157 C   0  0  0  1  0  0  0  0  0  0  0  0
    0.1230   -1.6054   -2.9090 H   0  0  0  1  0  0  0  0  0  0  0  0
    1.8689   -0.8832   -3.7064 O   0  0  0  1  0  0  0  0  0  0  0  0
    2.5947   -1.3175   -3.2523 H   0  0  0  1  0  0  0  0  0  0  0  0
    1.2269   -0.5777   -1.3941 C   0  0  0  1  0  0  0  0  0  0  0  0
    1.3612   -1.5246   -0.9142 H   0  0  0  1  0  0  0  0  0  0  0  0
    2.4476    0.1619   -1.3394 O   0  0  0  1  0  0  0  0  0  0  0  0
    2.7140    0.4069   -2.2286 H   0  0  0  1  0  0  0  0  0  0  0  0
    0.0739    0.2089   -0.7540 C   0  0  0  1  0  0  0  0  0  0  0  0
    0.4255    0.7935    0.0702 H   0  0  0  1  0  0  0  0  0  0  0  0
   -0.9832   -0.6997   -0.2946 N   0  0  0  1  0  0  0  0  0  0  0  0
   -0.8008   -1.7804    0.5126 C   0  0  0  1  0  0  0  0  0  0  0  0
    0.1427   -2.1131    0.7969 H   0  0  0  1  0  0  0  0  0  0  0  0
   -1.8992   -2.3677    0.9030 N   0  0  0  1  0  0  0  0  0  0  0  0
   -2.8994   -1.6101    0.3139 C   0  0  0  1  0  0  0  0  0  0  0  0
   -4.2894   -1.6788    0.3023 C   0  0  0  1  0  0  0  0  0  0  0  0
   -4.9928   -2.6398    0.9683 N   0  0  0  1  0  0  0  0  0  0  0  0
   -4.5242   -3.4038    1.3648 H   0  0  0  1  0  0  0  0  0  0  0  0
   -5.9666   -2.5660    1.0503 H   0  0  0  1  0  0  0  0  0  0  0  0
   -4.9923   -0.7728   -0.3860 N   0  0  0  1  0  0  0  0  0  0  0  0
   -4.3149    0.1710   -1.0585 C   0  0  0  1  0  0  0  0  0  0  0  0
   -4.8969    0.8538   -1.5843 H   0  0  0  1  0  0  0  0  0  0  0  0
   -3.0024    0.3503   -1.1430 N   0  0  0  1  0  0  0  0  0  0  0  0
   -2.3404   -0.5657   -0.4347 C   0  0  0  1  0  0  0  0  0  0  0  0
  1  2  1  0  0  0  0
  1  3  1  0  0  0  0
  3  4  1  0  0  0  0
  3  5  1  0  0  0  0
  3  6  1  0  0  0  0
  6  7  1  0  0  0  0
  6  8  1  0  0  0  0
  6  9  1  0  0  0  0
  8 17  1  0  0  0  0
  9 10  1  0  0  0  0
  9 11  1  0  0  0  0
  9 13  1  0  0  0  0
 11 12  1  0  0  0  0
 13 14  1  0  0  0  0
 13 15  1  0  0  0  0
 13 17  1  0  0  0  0
 15 16  1  0  0  0  0
 17 18  1  0  0  0  0
 17 19  1  0  0  0  0
 19 20  1  0  0  0  0
 19 32  1  0  0  0  0
 20 21  1  0  0  0  0
 20 22  2  0  0  0  0
 22 23  1  0  0  0  0
 23 24  1  0  0  0  0
 23 32  2  0  0  0  0
 24 25  1  0  0  0  0
 24 28  2  0  0  0  0
 25 26  1  0  0  0  0
 25 27  1  0  0  0  0
 28 29  1  0  0  0  0
 29 30  1  0  0  0  0
 29 31  2  0  0  0  0
 31 32  1  0  0  0  0
M  END
> <ConfClashScore>
0 

> <ConfOneFourInteractionScore>
-0.987904 

> <ConfScore>
0.227166 

> <ConfScorePBest>
0.00654947 

> <ConfTolerance>
0.591138 

$$$$
ADN.****
  PyMOL2.4          3D                             0

 32 34  0  0  0  0  0  0  0  0999 V2000
   -0.2759   -0.3369   -5.3177 O   0  0  0  1  0  0  0  0  0  0  0  0
   -0.3618    0.2802   -6.0481 H   0  0  0  1  0  0  0  0  0  0  0  0
   -1.0390    0.1275   -4.2119 C   0  0  0  1  0  0  0  0  0  0  0  0
   -1.7493   -0.6174   -3.9196 H   0  0  0  1  0  0  0  0  0  0  0  0
   -1.5537    1.0278   -4.4756 H   0  0  0  1  0  0  0  0  0  0  0  0
   -0.0769    0.3966   -3.0772 C   0  0  0  1  0  0  0  0  0  0  0  0
    0.4877    1.2804   -3.2896 H   0  0  0  1  0  0  0  0  0  0  0  0
   -0.7889    0.5354   -1.8286 O   0  0  0  1  0  0  0  0  0  0  0  0
    0.8619   -0.8100   -2.8626 C   0  0  0  1  0  0  0  0  0  0  0  0
    0.4137   -1.7099   -3.2289 H   0  0  0  1  0  0  0  0  0  0  0  0
    2.1151   -0.6004   -3.5170 O   0  0  0  1  0  0  0  0  0  0  0  0
    2.0619    0.1841   -4.0676 H   0  0  0  1  0  0  0  0  0  0  0  0
    1.0476   -0.8742   -1.3281 C   0  0  0  1  0  0  0  0  0  0  0  0
    0.6928   -1.8064   -0.9409 H   0  0  0  1  0  0  0  0  0  0  0  0
    2.4212   -0.7034   -0.9755 O   0  0  0  1  0  0  0  0  0  0  0  0
    2.8440   -0.1179   -1.6080 H   0  0  0  1  0  0  0  0  0  0  0  0
    0.1954    0.2995   -0.7996 C   0  0  0  1  0  0  0  0  0  0  0  0
    0.8019    1.1687   -0.6523 H   0  0  0  1  0  0  0  0  0  0  0  0
   -0.4534   -0.0620    0.4598 N   0  0  0  1  0  0  0  0  0  0  0  0
   -1.1438   -1.2050    0.7237 C   0  0  0  1  0  0  0  0  0  0  0  0
   -1.4216   -1.8752   -0.0214 H   0  0  0  1  0  0  0  0  0  0  0  0
   -1.4311   -1.3965    1.9826 N   0  0  0  1  0  0  0  0  0  0  0  0
   -0.8782   -0.2928    2.6133 C   0  0  0  1  0  0  0  0  0  0  0  0
   -0.8216    0.1430    3.9338 C   0  0  0  1  0  0  0  0  0  0  0  0
   -1.3808   -0.5508    4.9744 N   0  0  0  1  0  0  0  0  0  0  0  0
   -1.2234   -0.2609    5.8973 H   0  0  0  1  0  0  0  0  0  0  0  0
   -1.9381   -1.3368    4.7960 H   0  0  0  1  0  0  0  0  0  0  0  0
   -0.1982    1.2892    4.2276 N   0  0  0  1  0  0  0  0  0  0  0  0
    0.3427    1.9883    3.2173 C   0  0  0  1  0  0  0  0  0  0  0  0
    0.8145    2.8753    3.4862 H   0  0  0  1  0  0  0  0  0  0  0  0
    0.3567    1.7005    1.9216 N   0  0  0  1  0  0  0  0  0  0  0  0
   -0.2643    0.5464    1.6738 C   0  0  0  1  0  0  0  0  0  0  0  0
  1  2  1  0  0  0  0
  1  3  1  0  0  0  0
  3  4  1  0  0  0  0
  3  5  1  0  0  0  0
  3  6  1  0  0  0  0
  6  7  1  0  0  0  0
  6  8  1  0  0  0  0
  6  9  1  0  0  0  0
  8 17  1  0  0  0  0
  9 10  1  0  0  0  0
  9 11  1  0  0  0  0
  9 13  1  0  0  0  0
 11 12  1  0  0  0  0
 13 14  1  0  0  0  0
 13 15  1  0  0  0  0
 13 17  1  0  0  0  0
 15 16  1  0  0  0  0
 17 18  1  0  0  0  0
 17 19  1  0  0  0  0
 19 20  1  0  0  0  0
 19 32  1  0  0  0  0
 20 21  1  0  0  0  0
 20 22  2  0  0  0  0
 22 23  1  0  0  0  0
 23 24  1  0  0  0  0
 23 32  2  0  0  0  0
 24 25  1  0  0  0  0
 24 28  2  0  0  0  0
 25 26  1  0  0  0  0
 25 27  1  0  0  0  0
 28 29  1  0  0  0  0
 29 30  1  0  0  0  0
 29 31  2  0  0  0  0
 31 32  1  0  0  0  0
M  END
> <ConfClashScore>
0 

> <ConfOneFourInteractionScore>
-0.960491 

> <ConfScore>
0.227381 

> <ConfScorePBest>
0.00644647 

> <ConfTolerance>
0.439898 

$$$$
ADN.****
  PyMOL2.4          3D                             0

 32 34  0  0  0  0  0  0  0  0999 V2000
   -1.6885    1.6571   -4.3434 O   0  0  0  1  0  0  0  0  0  0  0  0
   -2.2027    1.9819   -3.6007 H   0  0  0  1  0  0  0  0  0  0  0  0
   -1.1320    0.3916   -4.0174 C   0  0  0  1  0  0  0  0  0  0  0  0
   -0.8204   -0.0895   -4.9209 H   0  0  0  1  0  0  0  0  0  0  0  0
   -1.8833   -0.2007   -3.5381 H   0  0  0  1  0  0  0  0  0  0  0  0
    0.0577    0.5053   -3.0937 C   0  0  0  1  0  0  0  0  0  0  0  0
    0.7775    1.1731   -3.5190 H   0  0  0  1  0  0  0  0  0  0  0  0
   -0.3567    0.9687   -1.7797 O   0  0  0  1  0  0  0  0  0  0  0  0
    0.6792   -0.8683   -2.8449 C   0  0  0  1  0  0  0  0  0  0  0  0
   -0.0597   -1.6418   -2.8720 H   0  0  0  1  0  0  0  0  0  0  0  0
    1.7056   -1.1560   -3.7956 O   0  0  0  1  0  0  0  0  0  0  0  0
    2.5364   -0.7819   -3.4933 H   0  0  0  1  0  0  0  0  0  0  0  0
    1.2456   -0.6972   -1.4590 C   0  0  0  1  0  0  0  0  0  0  0  0
    1.3714   -1.6420   -0.9728 H   0  0  0  1  0  0  0  0  0  0  0  0
    2.4963   -0.0083   -1.4933 O   0  0  0  1  0  0  0  0  0  0  0  0
    2.3412    0.9320   -1.6089 H   0  0  0  1  0  0  0  0  0  0  0  0
    0.1783    0.1359   -0.7727 C   0  0  0  1  0  0  0  0  0  0  0  0
    0.6096    0.7251    0.0094 H   0  0  0  1  0  0  0  0  0  0  0  0
   -0.8655   -0.7282   -0.2152 N   0  0  0  1  0  0  0  0  0  0  0  0
   -0.9405   -2.0871   -0.2419 C   0  0  0  1  0  0  0  0  0  0  0  0
   -0.1606   -2.6835   -0.5849 H   0  0  0  1  0  0  0  0  0  0  0  0
   -2.0651   -2.5852    0.1953 N   0  0  0  1  0  0  0  0  0  0  0  0
   -2.7993   -1.4649    0.5522 C   0  0  0  1  0  0  0  0  0  0  0  0
   -4.0740   -1.2660    1.0744 C   0  0  0  1  0  0  0  0  0  0  0  0
   -4.9312   -2.2942    1.3657 N   0  0  0  1  0  0  0  0  0  0  0  0
   -4.6637   -3.2202    1.1885 H   0  0  0  1  0  0  0  0  0  0  0  0
   -5.8118   -2.1037    1.7512 H   0  0  0  1  0  0  0  0  0  0  0  0
   -4.5065   -0.0230    1.3123 N   0  0  0  1  0  0  0  0  0  0  0  0
   -3.6840    0.9965    1.0190 C   0  0  0  1  0  0  0  0  0  0  0  0
   -4.0584    1.9469    1.2143 H   0  0  0  1  0  0  0  0  0  0  0  0
   -2.4574    0.9554    0.5133 N   0  0  0  1  0  0  0  0  0  0  0  0
   -2.0610   -0.3004    0.3020 C   0  0  0  1  0  0  0  0  0  0  0  0
  1  2  1  0  0  0  0
  1  3  1  0  0  0  0
  3  4  1  0  0  0  0
  3  5  1  0  0  0  0
  3  6  1  0  0  0  0
  6  7  1  0  0  0  0
  6  8  1  0  0  0  0
  6  9  1  0  0  0  0
  8 17  1  0  0  0  0
  9 10  1  0  0  0  0
  9 11  1  0  0  0  0
  9 13  1  0  0  0  0
 11 12  1  0  0  0  0
 13 14  1  0  0  0  0
 13 15  1  0  0  0  0
 13 17  1  0  0  0  0
 15 16  1  0  0  0  0
 17 18  1  0  0  0  0
 17 19  1  0  0  0  0
 19 20  1  0  0  0  0
 19 32  1  0  0  0  0
 20 21  1  0  0  0  0
 20 22  2  0  0  0  0
 22 23  1  0  0  0  0
 23 24  1  0  0  0  0
 23 32  2  0  0  0  0
 24 25  1  0  0  0  0
 24 28  2  0  0  0  0
 25 26  1  0  0  0  0
 25 27  1  0  0  0  0
 28 29  1  0  0  0  0
 29 30  1  0  0  0  0
 29 31  2  0  0  0  0
 31 32  1  0  0  0  0
M  END
> <ConfClashScore>
0 

> <ConfOneFourInteractionScore>
-0.966157 

> <ConfScore>
0.230521 

> <ConfScorePBest>
0.00634346 

> <ConfTolerance>
0.590604 

$$$$
ADN.****
  PyMOL2.4          3D                             0

 32 34  0  0  0  0  0  0  0  0999 V2000
   -2.5599    0.8648   -2.9906 O   0  0  0  1  0  0  0  0  0  0  0  0
   -2.4463    1.5801   -3.6207 H   0  0  0  1  0  0  0  0  0  0  0  0
   -1.5316   -0.1027   -3.1791 C   0  0  0  1  0  0  0  0  0  0  0  0
   -1.6374   -0.5307   -4.1541 H   0  0  0  1  0  0  0  0  0  0  0  0
   -1.6405   -0.8680   -2.4393 H   0  0  0  1  0  0  0  0  0  0  0  0
   -0.1462    0.4954   -3.0590 C   0  0  0  1  0  0  0  0  0  0  0  0
    0.0566    1.1018   -3.9170 H   0  0  0  1  0  0  0  0  0  0  0  0
   -0.0321    1.2734   -1.8487 O   0  0  0  1  0  0  0  0  0  0  0  0
    0.9151   -0.6167   -2.9166 C   0  0  0  1  0  0  0  0  0  0  0  0
    0.5579   -1.5380   -3.3271 H   0  0  0  1  0  0  0  0  0  0  0  0
    2.1308   -0.2445   -3.5673 O   0  0  0  1  0  0  0  0  0  0  0  0
    2.6349   -1.0333   -3.7803 H   0  0  0  1  0  0  0  0  0  0  0  0
    1.1247   -0.7401   -1.3889 C   0  0  0  1  0  0  0  0  0  0  0  0
    0.8730   -1.7231   -1.0492 H   0  0  0  1  0  0  0  0  0  0  0  0
    2.4775   -0.4460   -1.0373 O   0  0  0  1  0  0  0  0  0  0  0  0
    2.8713    0.1086   -1.7148 H   0  0  0  1  0  0  0  0  0  0  0  0
    0.1627    0.3091   -0.7916 C   0  0  0  1  0  0  0  0  0  0  0  0
    0.5988    0.7745    0.0676 H   0  0  0  1  0  0  0  0  0  0  0  0
   -1.1083   -0.3104   -0.4188 N   0  0  0  1  0  0  0  0  0  0  0  0
   -1.4112   -1.6279   -0.2602 C   0  0  0  1  0  0  0  0  0  0  0  0
   -0.7087   -2.3832   -0.3933 H   0  0  0  1  0  0  0  0  0  0  0  0
   -2.6499   -1.8721    0.0714 N   0  0  0  1  0  0  0  0  0  0  0  0
   -3.2197   -0.6108    0.1494 C   0  0  0  1  0  0  0  0  0  0  0  0
   -4.4961   -0.1390    0.4412 C   0  0  0  1  0  0  0  0  0  0  0  0
   -5.4314   -1.0813    0.7242 N   0  0  0  1  0  0  0  0  0  0  0  0
   -5.1888   -2.0308    0.7152 H   0  0  0  1  0  0  0  0  0  0  0  0
   -6.3493   -0.8121    0.9374 H   0  0  0  1  0  0  0  0  0  0  0  0
   -4.7352    1.1768    0.4301 N   0  0  0  1  0  0  0  0  0  0  0  0
   -3.7202    1.9983    0.1189 C   0  0  0  1  0  0  0  0  0  0  0  0
   -3.9474    3.0132    0.1171 H   0  0  0  1  0  0  0  0  0  0  0  0
   -2.4658    1.6903   -0.1867 N   0  0  0  1  0  0  0  0  0  0  0  0
   -2.2674    0.3718   -0.1531 C   0  0  0  1  0  0  0  0  0  0  0  0
  1  2  1  0  0  0  0
  1  3  1  0  0  0  0
  3  4  1  0  0  0  0
  3  5  1  0  0  0  0
  3  6  1  0  0  0  0
  6  7  1  0  0  0  0
  6  8  1  0  0  0  0
  6  9  1  0  0  0  0
  8 17  1  0  0  0  0
  9 10  1  0  0  0  0
  9 11  1  0  0  0  0
  9 13  1  0  0  0  0
 11 12  1  0  0  0  0
 13 14  1  0  0  0  0
 13 15  1  0  0  0  0
 13 17  1  0  0  0  0
 15 16  1  0  0  0  0
 17 18  1  0  0  0  0
 17 19  1  0  0  0  0
 19 20  1  0  0  0  0
 19 32  1  0  0  0  0
 20 21  1  0  0  0  0
 20 22  2  0  0  0  0
 22 23  1  0  0  0  0
 23 24  1  0  0  0  0
 23 32  2  0  0  0  0
 24 25  1  0  0  0  0
 24 28  2  0  0  0  0
 25 26  1  0  0  0  0
 25 27  1  0  0  0  0
 28 29  1  0  0  0  0
 29 30  1  0  0  0  0
 29 31  2  0  0  0  0
 31 32  1  0  0  0  0
M  END
> <ConfClashScore>
0 

> <ConfOneFourInteractionScore>
-0.970688 

> <ConfScore>
0.23121 

> <ConfScorePBest>
0.00624046 

> <ConfTolerance>
0.669631 

$$$$
ADN.****
  PyMOL2.4          3D                             0

 32 34  0  0  0  0  0  0  0  0999 V2000
   -1.7277   -1.0827   -3.8508 O   0  0  0  1  0  0  0  0  0  0  0  0
   -1.1817   -1.5527   -3.2164 H   0  0  0  1  0  0  0  0  0  0  0  0
   -1.1012    0.1665   -4.1910 C   0  0  0  1  0  0  0  0  0  0  0  0
   -1.8351    0.9391   -4.2883 H   0  0  0  1  0  0  0  0  0  0  0  0
   -0.5558    0.0745   -5.1070 H   0  0  0  1  0  0  0  0  0  0  0  0
   -0.1628    0.4697   -3.0451 C   0  0  0  1  0  0  0  0  0  0  0  0
    0.3174    1.4104   -3.2160 H   0  0  0  1  0  0  0  0  0  0  0  0
   -0.8791    0.4845   -1.7913 O   0  0  0  1  0  0  0  0  0  0  0  0
    0.8835   -0.6543   -2.8869 C   0  0  0  1  0  0  0  0  0  0  0  0
    0.5180   -1.5735   -3.2949 H   0  0  0  1  0  0  0  0  0  0  0  0
    2.1100   -0.3003   -3.5312 O   0  0  0  1  0  0  0  0  0  0  0  0
    2.4328   -1.0485   -4.0389 H   0  0  0  1  0  0  0  0  0  0  0  0
    1.0809   -0.7725   -1.3572 C   0  0  0  1  0  0  0  0  0  0  0  0
    0.8147   -1.7503   -1.0138 H   0  0  0  1  0  0  0  0  0  0  0  0
    2.4346   -0.4929   -0.9971 O   0  0  0  1  0  0  0  0  0  0  0  0
    2.8387    0.0572   -1.6721 H   0  0  0  1  0  0  0  0  0  0  0  0
    0.1271    0.2923   -0.7744 C   0  0  0  1  0  0  0  0  0  0  0  0
    0.6519    1.2057   -0.5867 H   0  0  0  1  0  0  0  0  0  0  0  0
   -0.4813   -0.1860    0.4686 N   0  0  0  1  0  0  0  0  0  0  0  0
   -1.5810    0.3244    1.0875 C   0  0  0  1  0  0  0  0  0  0  0  0
   -2.1558    1.0838    0.6698 H   0  0  0  1  0  0  0  0  0  0  0  0
   -1.8597   -0.2112    2.2448 N   0  0  0  1  0  0  0  0  0  0  0  0
   -0.8677   -1.1654    2.4083 C   0  0  0  1  0  0  0  0  0  0  0  0
   -0.5584   -2.0821    3.4089 C   0  0  0  1  0  0  0  0  0  0  0  0
   -1.2648   -2.2576    4.5938 N   0  0  0  1  0  0  0  0  0  0  0  0
   -2.0738   -1.7315    4.7646 H   0  0  0  1  0  0  0  0  0  0  0  0
   -0.9535   -2.9074    5.2581 H   0  0  0  1  0  0  0  0  0  0  0  0
    0.5001   -2.8870    3.2665 N   0  0  0  1  0  0  0  0  0  0  0  0
    1.2388   -2.7642    2.1524 C   0  0  0  1  0  0  0  0  0  0  0  0
    2.0551   -3.4047    2.0812 H   0  0  0  1  0  0  0  0  0  0  0  0
    1.0682   -1.9358    1.1295 N   0  0  0  1  0  0  0  0  0  0  0  0
   -0.0024   -1.1602    1.3060 C   0  0  0  1  0  0  0  0  0  0  0  0
  1  2  1  0  0  0  0
  1  3  1  0  0  0  0
  3  4  1  0  0  0  0
  3  5  1  0  0  0  0
  3  6  1  0  0  0  0
  6  7  1  0  0  0  0
  6  8  1  0  0  0  0
  6  9  1  0  0  0  0
  8 17  1  0  0  0  0
  9 10  1  0  0  0  0
  9 11  1  0  0  0  0
  9 13  1  0  0  0  0
 11 12  1  0  0  0  0
 13 14  1  0  0  0  0
 13 15  1  0  0  0  0
 13 17  1  0  0  0  0
 15 16  1  0  0  0  0
 17 18  1  0  0  0  0
 17 19  1  0  0  0  0
 19 20  1  0  0  0  0
 19 32  1  0  0  0  0
 20 21  1  0  0  0  0
 20 22  2  0  0  0  0
 22 23  1  0  0  0  0
 23 24  1  0  0  0  0
 23 32  2  0  0  0  0
 24 25  1  0  0  0  0
 24 28  2  0  0  0  0
 25 26  1  0  0  0  0
 25 27  1  0  0  0  0
 28 29  1  0  0  0  0
 29 30  1  0  0  0  0
 29 31  2  0  0  0  0
 31 32  1  0  0  0  0
M  END
> <ConfClashScore>
0 

> <ConfOneFourInteractionScore>
-0.983365 

> <ConfScore>
0.23191 

> <ConfScorePBest>
0.00613746 

> <ConfTolerance>
0.25 

$$$$
ADN.****
  PyMOL2.4          3D                             0

 32 34  0  0  0  0  0  0  0  0999 V2000
   -0.6688    0.1883   -5.4465 O   0  0  0  1  0  0  0  0  0  0  0  0
   -1.1472   -0.3908   -6.0443 H   0  0  0  1  0  0  0  0  0  0  0  0
   -1.2533    0.1218   -4.1524 C   0  0  0  1  0  0  0  0  0  0  0  0
   -1.6633   -0.8542   -3.9971 H   0  0  0  1  0  0  0  0  0  0  0  0
   -2.0313    0.8524   -4.0756 H   0  0  0  1  0  0  0  0  0  0  0  0
   -0.2072    0.3953   -3.1104 C   0  0  0  1  0  0  0  0  0  0  0  0
    0.3241    1.2888   -3.3636 H   0  0  0  1  0  0  0  0  0  0  0  0
   -0.8098    0.5147   -1.8036 O   0  0  0  1  0  0  0  0  0  0  0  0
    0.7637   -0.7986   -2.9881 C   0  0  0  1  0  0  0  0  0  0  0  0
    0.2982   -1.7025   -3.3216 H   0  0  0  1  0  0  0  0  0  0  0  0
    1.9515   -0.5660   -3.7466 O   0  0  0  1  0  0  0  0  0  0  0  0
    2.6270   -0.1905   -3.1772 H   0  0  0  1  0  0  0  0  0  0  0  0
    1.0831   -0.8710   -1.4762 C   0  0  0  1  0  0  0  0  0  0  0  0
    0.7765   -1.8110   -1.0674 H   0  0  0  1  0  0  0  0  0  0  0  0
    2.4795   -0.6822   -1.2428 O   0  0  0  1  0  0  0  0  0  0  0  0
    2.6886    0.2536   -1.2896 H   0  0  0  1  0  0  0  0  0  0  0  0
    0.2635    0.2862   -0.8659 C   0  0  0  1  0  0  0  0  0  0  0  0
    0.8680    1.1633   -0.7646 H   0  0  0  1  0  0  0  0  0  0  0  0
   -0.2682   -0.0938    0.4420 N   0  0  0  1  0  0  0  0  0  0  0  0
   -0.4588   -1.3349    0.9675 C   0  0  0  1  0  0  0  0  0  0  0  0
   -0.2187   -2.2043    0.4496 H   0  0  0  1  0  0  0  0  0  0  0  0
   -0.9655   -1.3517    2.1703 N   0  0  0  1  0  0  0  0  0  0  0  0
   -1.1180   -0.0085    2.4771 C   0  0  0  1  0  0  0  0  0  0  0  0
   -1.6061    0.6855    3.5803 C   0  0  0  1  0  0  0  0  0  0  0  0
   -2.0680    0.0125    4.6806 N   0  0  0  1  0  0  0  0  0  0  0  0
   -2.0025   -0.9645    4.7206 H   0  0  0  1  0  0  0  0  0  0  0  0
   -2.4640    0.5080    5.4276 H   0  0  0  1  0  0  0  0  0  0  0  0
   -1.6248    2.0227    3.5672 N   0  0  0  1  0  0  0  0  0  0  0  0
   -1.1775    2.6477    2.4666 C   0  0  0  1  0  0  0  0  0  0  0  0
   -1.2123    3.6867    2.4940 H   0  0  0  1  0  0  0  0  0  0  0  0
   -0.6968    2.1186    1.3482 N   0  0  0  1  0  0  0  0  0  0  0  0
   -0.6851    0.7862    1.4071 C   0  0  0  1  0  0  0  0  0  0  0  0
  1  2  1  0  0  0  0
  1  3  1  0  0  0  0
  3  4  1  0  0  0  0
  3  5  1  0  0  0  0
  3  6  1  0  0  0  0
  6  7  1  0  0  0  0
  6  8  1  0  0  0  0
  6  9  1  0  0  0  0
  8 17  1  0  0  0  0
  9 10  1  0  0  0  0
  9 11  1  0  0  0  0
  9 13  1  0  0  0  0
 11 12  1  0  0  0  0
 13 14  1  0  0  0  0
 13 15  1  0  0  0  0
 13 17  1  0  0  0  0
 15 16  1  0  0  0  0
 17 18  1  0  0  0  0
 17 19  1  0  0  0  0
 19 20  1  0  0  0  0
 19 32  1  0  0  0  0
 20 21  1  0  0  0  0
 20 22  2  0  0  0  0
 22 23  1  0  0  0  0
 23 24  1  0  0  0  0
 23 32  2  0  0  0  0
 24 25  1  0  0  0  0
 24 28  2  0  0  0  0
 25 26  1  0  0  0  0
 25 27  1  0  0  0  0
 28 29  1  0  0  0  0
 29 30  1  0  0  0  0
 29 31  2  0  0  0  0
 31 32  1  0  0  0  0
M  END
> <ConfClashScore>
0 

> <ConfOneFourInteractionScore>
-0.970688 

> <ConfScore>
0.233438 

> <ConfScorePBest>
0.00603446 

> <ConfTolerance>
0.355099 

$$$$
ADN.****
  PyMOL2.4          3D                             0

 32 34  0  0  0  0  0  0  0  0999 V2000
   -1.8653    1.3869   -4.3687 O   0  0  0  1  0  0  0  0  0  0  0  0
   -2.4656    1.4880   -3.6264 H   0  0  0  1  0  0  0  0  0  0  0  0
   -1.0609    0.2311   -4.1743 C   0  0  0  1  0  0  0  0  0  0  0  0
   -0.5136    0.0240   -5.0701 H   0  0  0  1  0  0  0  0  0  0  0  0
   -1.6880   -0.6030   -3.9380 H   0  0  0  1  0  0  0  0  0  0  0  0
   -0.0994    0.4682   -3.0455 C   0  0  0  1  0  0  0  0  0  0  0  0
    0.4274    1.3847   -3.2115 H   0  0  0  1  0  0  0  0  0  0  0  0
   -0.7973    0.5043   -1.7818 O   0  0  0  1  0  0  0  0  0  0  0  0
    0.8884   -0.7110   -2.9156 C   0  0  0  1  0  0  0  0  0  0  0  0
    0.4698   -1.6044   -3.3296 H   0  0  0  1  0  0  0  0  0  0  0  0
    2.1218   -0.4138   -3.5717 O   0  0  0  1  0  0  0  0  0  0  0  0
    2.0574   -0.6538   -4.4990 H   0  0  0  1  0  0  0  0  0  0  0  0
    1.0995   -0.8591   -1.3903 C   0  0  0  1  0  0  0  0  0  0  0  0
    0.7868   -1.8260   -1.0553 H   0  0  0  1  0  0  0  0  0  0  0  0
    2.4597   -0.6572   -1.0483 O   0  0  0  1  0  0  0  0  0  0  0  0
    2.6406    0.2842   -0.9960 H   0  0  0  1  0  0  0  0  0  0  0  0
    0.2107    0.2466   -0.7814 C   0  0  0  1  0  0  0  0  0  0  0  0
    0.7853    1.1287   -0.5899 H   0  0  0  1  0  0  0  0  0  0  0  0
   -0.4046   -0.2145    0.4621 N   0  0  0  1  0  0  0  0  0  0  0  0
   -0.0450   -1.2945    1.2086 C   0  0  0  1  0  0  0  0  0  0  0  0
    0.6974   -1.9586    0.9098 H   0  0  0  1  0  0  0  0  0  0  0  0
   -0.7022   -1.4337    2.3278 N   0  0  0  1  0  0  0  0  0  0  0  0
   -1.5674   -0.3506    2.3331 C   0  0  0  1  0  0  0  0  0  0  0  0
   -2.5467    0.1047    3.2109 C   0  0  0  1  0  0  0  0  0  0  0  0
   -2.8557   -0.5343    4.3827 N   0  0  0  1  0  0  0  0  0  0  0  0
   -2.4116   -1.3769    4.6132 H   0  0  0  1  0  0  0  0  0  0  0  0
   -3.5210   -0.1488    4.9904 H   0  0  0  1  0  0  0  0  0  0  0  0
   -3.2327    1.2155    2.9206 N   0  0  0  1  0  0  0  0  0  0  0  0
   -2.9518    1.8458    1.7692 C   0  0  0  1  0  0  0  0  0  0  0  0
   -3.5093    2.7027    1.5779 H   0  0  0  1  0  0  0  0  0  0  0  0
   -2.0587    1.5231    0.8418 N   0  0  0  1  0  0  0  0  0  0  0  0
   -1.3902    0.4181    1.1749 C   0  0  0  1  0  0  0  0  0  0  0  0
  1  2  1  0  0  0  0
  1  3  1  0  0  0  0
  3  4  1  0  0  0  0
  3  5  1  0  0  0  0
  3  6  1  0  0  0  0
  6  7  1  0  0  0  0
  6  8  1  0  0  0  0
  6  9  1  0  0  0  0
  8 17  1  0  0  0  0
  9 10  1  0  0  0  0
  9 11  1  0  0  0  0
  9 13  1  0  0  0  0
 11 12  1  0  0  0  0
 13 14  1  0  0  0  0
 13 15  1  0  0  0  0
 13 17  1  0  0  0  0
 15 16  1  0  0  0  0
 17 18  1  0  0  0  0
 17 19  1  0  0  0  0
 19 20  1  0  0  0  0
 19 32  1  0  0  0  0
 20 21  1  0  0  0  0
 20 22  2  0  0  0  0
 22 23  1  0  0  0  0
 23 24  1  0  0  0  0
 23 32  2  0  0  0  0
 24 25  1  0  0  0  0
 24 28  2  0  0  0  0
 25 26  1  0  0  0  0
 25 27  1  0  0  0  0
 28 29  1  0  0  0  0
 29 30  1  0  0  0  0
 29 31  2  0  0  0  0
 31 32  1  0  0  0  0
M  END
> <ConfClashScore>
0 

> <ConfOneFourInteractionScore>
-0.966157 

> <ConfScore>
0.233877 

> <ConfScorePBest>
0.00593146 

> <ConfTolerance>
0.4446 

$$$$
ADN.****
  PyMOL2.4          3D                             0

 32 34  0  0  0  0  0  0  0  0999 V2000
   -1.8634   -1.1626   -3.8365 O   0  0  0  1  0  0  0  0  0  0  0  0
   -1.2465   -1.8352   -3.5386 H   0  0  0  1  0  0  0  0  0  0  0  0
   -1.1476    0.0109   -4.1987 C   0  0  0  1  0  0  0  0  0  0  0  0
   -1.8354    0.8189   -4.3357 H   0  0  0  1  0  0  0  0  0  0  0  0
   -0.6159   -0.1641   -5.1106 H   0  0  0  1  0  0  0  0  0  0  0  0
   -0.1727    0.3640   -3.1124 C   0  0  0  1  0  0  0  0  0  0  0  0
    0.3392    1.2671   -3.3717 H   0  0  0  1  0  0  0  0  0  0  0  0
   -0.8523    0.5099   -1.8466 O   0  0  0  1  0  0  0  0  0  0  0  0
    0.8325   -0.7861   -2.8888 C   0  0  0  1  0  0  0  0  0  0  0  0
    0.4197   -1.7192   -3.2109 H   0  0  0  1  0  0  0  0  0  0  0  0
    2.0520   -0.5369   -3.5895 O   0  0  0  1  0  0  0  0  0  0  0  0
    2.3558    0.3532   -3.3974 H   0  0  0  1  0  0  0  0  0  0  0  0
    1.0682   -0.7883   -1.3599 C   0  0  0  1  0  0  0  0  0  0  0  0
    0.7733   -1.7232   -0.9311 H   0  0  0  1  0  0  0  0  0  0  0  0
    2.4413   -0.5371   -1.0577 O   0  0  0  1  0  0  0  0  0  0  0  0
    2.9803   -0.7353   -1.8270 H   0  0  0  1  0  0  0  0  0  0  0  0
    0.1738    0.3589   -0.8428 C   0  0  0  1  0  0  0  0  0  0  0  0
    0.7393    1.2618   -0.7437 H   0  0  0  1  0  0  0  0  0  0  0  0
   -0.4178    0.0083    0.4501 N   0  0  0  1  0  0  0  0  0  0  0  0
    0.0086   -1.0115    1.2444 C   0  0  0  1  0  0  0  0  0  0  0  0
    0.8531   -1.5768    1.0235 H   0  0  0  1  0  0  0  0  0  0  0  0
   -0.7223   -1.2265    2.3043 N   0  0  0  1  0  0  0  0  0  0  0  0
   -1.7154   -0.2635    2.2146 C   0  0  0  1  0  0  0  0  0  0  0  0
   -2.8188    0.0681    2.9953 C   0  0  0  1  0  0  0  0  0  0  0  0
   -3.1469   -0.5975    4.1469 N   0  0  0  1  0  0  0  0  0  0  0  0
   -2.6149   -1.3681    4.4359 H   0  0  0  1  0  0  0  0  0  0  0  0
   -3.9135   -0.3030    4.6817 H   0  0  0  1  0  0  0  0  0  0  0  0
   -3.6121    1.0797    2.6263 N   0  0  0  1  0  0  0  0  0  0  0  0
   -3.3127    1.7331    1.4926 C   0  0  0  1  0  0  0  0  0  0  0  0
   -3.9555    2.5100    1.2380 H   0  0  0  1  0  0  0  0  0  0  0  0
   -2.3069    1.5216    0.6526 N   0  0  0  1  0  0  0  0  0  0  0  0
   -1.5353    0.5139    1.0627 C   0  0  0  1  0  0  0  0  0  0  0  0
  1  2  1  0  0  0  0
  1  3  1  0  0  0  0
  3  4  1  0  0  0  0
  3  5  1  0  0  0  0
  3  6  1  0  0  0  0
  6  7  1  0  0  0  0
  6  8  1  0  0  0  0
  6  9  1  0  0  0  0
  8 17  1  0  0  0  0
  9 10  1  0  0  0  0
  9 11  1  0  0  0  0
  9 13  1  0  0  0  0
 11 12  1  0  0  0  0
 13 14  1  0  0  0  0
 13 15  1  0  0  0  0
 13 17  1  0  0  0  0
 15 16  1  0  0  0  0
 17 18  1  0  0  0  0
 17 19  1  0  0  0  0
 19 20  1  0  0  0  0
 19 32  1  0  0  0  0
 20 21  1  0  0  0  0
 20 22  2  0  0  0  0
 22 23  1  0  0  0  0
 23 24  1  0  0  0  0
 23 32  2  0  0  0  0
 24 25  1  0  0  0  0
 24 28  2  0  0  0  0
 25 26  1  0  0  0  0
 25 27  1  0  0  0  0
 28 29  1  0  0  0  0
 29 30  1  0  0  0  0
 29 31  2  0  0  0  0
 31 32  1  0  0  0  0
M  END
> <ConfClashScore>
0 

> <ConfOneFourInteractionScore>
-0.977486 

> <ConfScore>
0.234128 

> <ConfScorePBest>
0.00582846 

> <ConfTolerance>
0.708378 

$$$$
ADN.****
  PyMOL2.4          3D                             0

 32 34  0  0  0  0  0  0  0  0999 V2000
   -1.2712   -1.3005   -4.7925 O   0  0  0  1  0  0  0  0  0  0  0  0
   -1.7522   -0.8295   -5.4769 H   0  0  0  1  0  0  0  0  0  0  0  0
   -1.5041   -0.6790   -3.5355 C   0  0  0  1  0  0  0  0  0  0  0  0
   -1.5799   -1.4386   -2.7857 H   0  0  0  1  0  0  0  0  0  0  0  0
   -2.4239   -0.1348   -3.5867 H   0  0  0  1  0  0  0  0  0  0  0  0
   -0.3979    0.2742   -3.1496 C   0  0  0  1  0  0  0  0  0  0  0  0
   -0.3178    1.0456   -3.8868 H   0  0  0  1  0  0  0  0  0  0  0  0
   -0.6718    0.8547   -1.8492 O   0  0  0  1  0  0  0  0  0  0  0  0
    0.9313   -0.4816   -3.0316 C   0  0  0  1  0  0  0  0  0  0  0  0
    0.8956   -1.4067   -3.5681 H   0  0  0  1  0  0  0  0  0  0  0  0
    2.0158    0.3102   -3.5182 O   0  0  0  1  0  0  0  0  0  0  0  0
    2.7677    0.2212   -2.9279 H   0  0  0  1  0  0  0  0  0  0  0  0
    1.0616   -0.7254   -1.5225 C   0  0  0  1  0  0  0  0  0  0  0  0
    0.6000   -1.6475   -1.2371 H   0  0  0  1  0  0  0  0  0  0  0  0
    2.4306   -0.7312   -1.1151 O   0  0  0  1  0  0  0  0  0  0  0  0
    2.7918   -1.6147   -1.2181 H   0  0  0  1  0  0  0  0  0  0  0  0
    0.3082    0.4827   -0.9327 C   0  0  0  1  0  0  0  0  0  0  0  0
    0.9871    1.2945   -0.7747 H   0  0  0  1  0  0  0  0  0  0  0  0
   -0.3131    0.1110    0.3389 N   0  0  0  1  0  0  0  0  0  0  0  0
   -1.6208    0.2569    0.6875 C   0  0  0  1  0  0  0  0  0  0  0  0
   -2.3297    0.6604    0.0425 H   0  0  0  1  0  0  0  0  0  0  0  0
   -1.9179   -0.1480    1.8924 N   0  0  0  1  0  0  0  0  0  0  0  0
   -0.7085   -0.6112    2.3867 C   0  0  0  1  0  0  0  0  0  0  0  0
   -0.3030   -1.1640    3.5979 C   0  0  0  1  0  0  0  0  0  0  0  0
   -1.1973   -1.3510    4.6113 N   0  0  0  1  0  0  0  0  0  0  0  0
   -2.1368   -1.1009    4.4881 H   0  0  0  1  0  0  0  0  0  0  0  0
   -0.9000   -1.7353    5.4624 H   0  0  0  1  0  0  0  0  0  0  0  0
    0.9756   -1.5159    3.7711 N   0  0  0  1  0  0  0  0  0  0  0  0
    1.8296   -1.3041    2.7573 C   0  0  0  1  0  0  0  0  0  0  0  0
    2.8148   -1.5871    2.9325 H   0  0  0  1  0  0  0  0  0  0  0  0
    1.5863   -0.7822    1.5613 N   0  0  0  1  0  0  0  0  0  0  0  0
    0.3001   -0.4561    1.4262 C   0  0  0  1  0  0  0  0  0  0  0  0
  1  2  1  0  0  0  0
  1  3  1  0  0  0  0
  3  4  1  0  0  0  0
  3  5  1  0  0  0  0
  3  6  1  0  0  0  0
  6  7  1  0  0  0  0
  6  8  1  0  0  0  0
  6  9  1  0  0  0  0
  8 17  1  0  0  0  0
  9 10  1  0  0  0  0
  9 11  1  0  0  0  0
  9 13  1  0  0  0  0
 11 12  1  0  0  0  0
 13 14  1  0  0  0  0
 13 15  1  0  0  0  0
 13 17  1  0  0  0  0
 15 16  1  0  0  0  0
 17 18  1  0  0  0  0
 17 19  1  0  0  0  0
 19 20  1  0  0  0  0
 19 32  1  0  0  0  0
 20 21  1  0  0  0  0
 20 22  2  0  0  0  0
 22 23  1  0  0  0  0
 23 24  1  0  0  0  0
 23 32  2  0  0  0  0
 24 25  1  0  0  0  0
 24 28  2  0  0  0  0
 25 26  1  0  0  0  0
 25 27  1  0  0  0  0
 28 29  1  0  0  0  0
 29 30  1  0  0  0  0
 29 31  2  0  0  0  0
 31 32  1  0  0  0  0
M  END
> <ConfClashScore>
0 

> <ConfOneFourInteractionScore>
-0.970696 

> <ConfScore>
0.238474 

> <ConfScorePBest>
0.00572546 

> <ConfTolerance>
0.529575 

$$$$
ADN.****
  PyMOL2.4          3D                             0

 32 34  0  0  0  0  0  0  0  0999 V2000
   -2.1262    1.1365   -4.3339 O   0  0  0  1  0  0  0  0  0  0  0  0
   -2.9303    0.8202   -3.9156 H   0  0  0  1  0  0  0  0  0  0  0  0
   -1.1022    0.1608   -4.1921 C   0  0  0  1  0  0  0  0  0  0  0  0
   -0.5348    0.1244   -5.0986 H   0  0  0  1  0  0  0  0  0  0  0  0
   -1.5573   -0.7917   -4.0172 H   0  0  0  1  0  0  0  0  0  0  0  0
   -0.1658    0.4689   -3.0458 C   0  0  0  1  0  0  0  0  0  0  0  0
    0.3113    1.4110   -3.2177 H   0  0  0  1  0  0  0  0  0  0  0  0
   -0.8832    0.4830   -1.7926 O   0  0  0  1  0  0  0  0  0  0  0  0
    0.8842   -0.6512   -2.8851 C   0  0  0  1  0  0  0  0  0  0  0  0
    0.5223   -1.5723   -3.2920 H   0  0  0  1  0  0  0  0  0  0  0  0
    2.1086   -0.2944   -3.5282 O   0  0  0  1  0  0  0  0  0  0  0  0
    2.4419   -1.0467   -4.0228 H   0  0  0  1  0  0  0  0  0  0  0  0
    1.0808   -0.7665   -1.3551 C   0  0  0  1  0  0  0  0  0  0  0  0
    0.8176   -1.7447   -1.0105 H   0  0  0  1  0  0  0  0  0  0  0  0
    2.4331   -0.4817   -0.9942 O   0  0  0  1  0  0  0  0  0  0  0  0
    2.8543    0.0174   -1.6979 H   0  0  0  1  0  0  0  0  0  0  0  0
    0.1228    0.2959   -0.7746 C   0  0  0  1  0  0  0  0  0  0  0  0
    0.6443    1.2113   -0.5879 H   0  0  0  1  0  0  0  0  0  0  0  0
   -0.4850   -0.1828    0.4685 N   0  0  0  1  0  0  0  0  0  0  0  0
   -1.5840    0.3279    1.0885 C   0  0  0  1  0  0  0  0  0  0  0  0
   -2.1587    1.0878    0.6715 H   0  0  0  1  0  0  0  0  0  0  0  0
   -1.8622   -0.2080    2.2457 N   0  0  0  1  0  0  0  0  0  0  0  0
   -0.8705   -1.1629    2.4081 C   0  0  0  1  0  0  0  0  0  0  0  0
   -0.5611   -2.0802    3.4080 C   0  0  0  1  0  0  0  0  0  0  0  0
   -1.2667   -2.2559    4.5934 N   0  0  0  1  0  0  0  0  0  0  0  0
   -2.0387   -1.6863    4.7931 H   0  0  0  1  0  0  0  0  0  0  0  0
   -0.9919   -2.9494    5.2289 H   0  0  0  1  0  0  0  0  0  0  0  0
    0.4969   -2.8856    3.2645 N   0  0  0  1  0  0  0  0  0  0  0  0
    1.2350   -2.7627    2.1500 C   0  0  0  1  0  0  0  0  0  0  0  0
    2.0509   -3.4035    2.0779 H   0  0  0  1  0  0  0  0  0  0  0  0
    1.0641   -1.9337    1.1275 N   0  0  0  1  0  0  0  0  0  0  0  0
   -0.0060   -1.1576    1.3052 C   0  0  0  1  0  0  0  0  0  0  0  0
  1  2  1  0  0  0  0
  1  3  1  0  0  0  0
  3  4  1  0  0  0  0
  3  5  1  0  0  0  0
  3  6  1  0  0  0  0
  6  7  1  0  0  0  0
  6  8  1  0  0  0  0
  6  9  1  0  0  0  0
  8 17  1  0  0  0  0
  9 10  1  0  0  0  0
  9 11  1  0  0  0  0
  9 13  1  0  0  0  0
 11 12  1  0  0  0  0
 13 14  1  0  0  0  0
 13 15  1  0  0  0  0
 13 17  1  0  0  0  0
 15 16  1  0  0  0  0
 17 18  1  0  0  0  0
 17 19  1  0  0  0  0
 19 20  1  0  0  0  0
 19 32  1  0  0  0  0
 20 21  1  0  0  0  0
 20 22  2  0  0  0  0
 22 23  1  0  0  0  0
 23 24  1  0  0  0  0
 23 32  2  0  0  0  0
 24 25  1  0  0  0  0
 24 28  2  0  0  0  0
 25 26  1  0  0  0  0
 25 27  1  0  0  0  0
 28 29  1  0  0  0  0
 29 30  1  0  0  0  0
 29 31  2  0  0  0  0
 31 32  1  0  0  0  0
M  END
> <ConfClashScore>
0 

> <ConfOneFourInteractionScore>
-0.966157 

> <ConfScore>
0.24851 

> <ConfScorePBest>
0.00562246 

> <ConfTolerance>
0.64326 

$$$$
ADN.****
  PyMOL2.4          3D                             0

 32 34  0  0  0  0  0  0  0  0999 V2000
   -0.5166   -0.1427   -5.4355 O   0  0  0  1  0  0  0  0  0  0  0  0
   -0.4450    0.7200   -5.8507 H   0  0  0  1  0  0  0  0  0  0  0  0
   -1.1912   -0.0157   -4.1908 C   0  0  0  1  0  0  0  0  0  0  0  0
   -1.6495   -0.9489   -3.9379 H   0  0  0  1  0  0  0  0  0  0  0  0
   -1.9430    0.7417   -4.2694 H   0  0  0  1  0  0  0  0  0  0  0  0
   -0.2095    0.3647   -3.1200 C   0  0  0  1  0  0  0  0  0  0  0  0
    0.2743    1.2806   -3.3881 H   0  0  0  1  0  0  0  0  0  0  0  0
   -0.8732    0.4944   -1.8441 O   0  0  0  1  0  0  0  0  0  0  0  0
    0.8290   -0.7581   -2.9107 C   0  0  0  1  0  0  0  0  0  0  0  0
    0.4363   -1.7023   -3.2254 H   0  0  0  1  0  0  0  0  0  0  0  0
    2.0306   -0.4778   -3.6302 O   0  0  0  1  0  0  0  0  0  0  0  0
    2.4014    0.3529   -3.3236 H   0  0  0  1  0  0  0  0  0  0  0  0
    1.0881   -0.7519   -1.3856 C   0  0  0  1  0  0  0  0  0  0  0  0
    0.8247   -1.6936   -0.9514 H   0  0  0  1  0  0  0  0  0  0  0  0
    2.4586   -0.4640   -1.1048 O   0  0  0  1  0  0  0  0  0  0  0  0
    3.0207   -0.9903   -1.6782 H   0  0  0  1  0  0  0  0  0  0  0  0
    0.1717    0.3720   -0.8560 C   0  0  0  1  0  0  0  0  0  0  0  0
    0.7146    1.2897   -0.7665 H   0  0  0  1  0  0  0  0  0  0  0  0
   -0.3911    0.0074    0.4475 N   0  0  0  1  0  0  0  0  0  0  0  0
   -1.7095   -0.2400    0.6785 C   0  0  0  1  0  0  0  0  0  0  0  0
   -2.4155   -0.2666   -0.0846 H   0  0  0  1  0  0  0  0  0  0  0  0
   -2.0209   -0.4412    1.9301 N   0  0  0  1  0  0  0  0  0  0  0  0
   -0.8067   -0.3272    2.5891 C   0  0  0  1  0  0  0  0  0  0  0  0
   -0.4136   -0.4153    3.9212 C   0  0  0  1  0  0  0  0  0  0  0  0
   -1.2893   -0.6695    4.9437 N   0  0  0  1  0  0  0  0  0  0  0  0
   -2.2163   -0.9173    4.7446 H   0  0  0  1  0  0  0  0  0  0  0  0
   -0.9887   -0.6034    5.8741 H   0  0  0  1  0  0  0  0  0  0  0  0
    0.8732   -0.2481    4.2453 N   0  0  0  1  0  0  0  0  0  0  0  0
    1.7420    0.0158    3.2566 C   0  0  0  1  0  0  0  0  0  0  0  0
    2.7317    0.1433    3.5497 H   0  0  0  1  0  0  0  0  0  0  0  0
    1.5086    0.1360    1.9555 N   0  0  0  1  0  0  0  0  0  0  0  0
    0.2180   -0.0487    1.6745 C   0  0  0  1  0  0  0  0  0  0  0  0
  1  2  1  0  0  0  0
  1  3  1  0  0  0  0
  3  4  1  0  0  0  0
  3  5  1  0  0  0  0
  3  6  1  0  0  0  0
  6  7  1  0  0  0  0
  6  8  1  0  0  0  0
  6  9  1  0  0  0  0
  8 17  1  0  0  0  0
  9 10  1  0  0  0  0
  9 11  1  0  0  0  0
  9 13  1  0  0  0  0
 11 12  1  0  0  0  0
 13 14  1  0  0  0  0
 13 15  1  0  0  0  0
 13 17  1  0  0  0  0
 15 16  1  0  0  0  0
 17 18  1  0  0  0  0
 17 19  1  0  0  0  0
 19 20  1  0  0  0  0
 19 32  1  0  0  0  0
 20 21  1  0  0  0  0
 20 22  2  0  0  0  0
 22 23  1  0  0  0  0
 23 24  1  0  0  0  0
 23 32  2  0  0  0  0
 24 25  1  0  0  0  0
 24 28  2  0  0  0  0
 25 26  1  0  0  0  0
 25 27  1  0  0  0  0
 28 29  1  0  0  0  0
 29 30  1  0  0  0  0
 29 31  2  0  0  0  0
 31 32  1  0  0  0  0
M  END
> <ConfClashScore>
0 

> <ConfOneFourInteractionScore>
-0.970696 

> <ConfScore>
0.251896 

> <ConfScorePBest>
0.00551946 

> <ConfTolerance>
0.692792 

$$$$
ADN.****
  PyMOL2.4          3D                             0

 32 34  0  0  0  0  0  0  0  0999 V2000
   -0.5609    0.1115   -5.4370 O   0  0  0  1  0  0  0  0  0  0  0  0
   -0.3006    0.9608   -5.8011 H   0  0  0  1  0  0  0  0  0  0  0  0
   -1.1117    0.2999   -4.1402 C   0  0  0  1  0  0  0  0  0  0  0  0
   -1.6674   -0.5745   -3.8729 H   0  0  0  1  0  0  0  0  0  0  0  0
   -1.7668    1.1456   -4.1650 H   0  0  0  1  0  0  0  0  0  0  0  0
   -0.0498    0.5394   -3.0910 C   0  0  0  1  0  0  0  0  0  0  0  0
    0.6015    1.3242   -3.4147 H   0  0  0  1  0  0  0  0  0  0  0  0
   -0.6338    0.8562   -1.8567 O   0  0  0  1  0  0  0  0  0  0  0  0
    0.7429   -0.7466   -2.8159 C   0  0  0  1  0  0  0  0  0  0  0  0
    0.1176   -1.6107   -2.9006 H   0  0  0  1  0  0  0  0  0  0  0  0
    1.8503   -0.8700   -3.7095 O   0  0  0  1  0  0  0  0  0  0  0  0
    2.5811   -1.2975   -3.2570 H   0  0  0  1  0  0  0  0  0  0  0  0
    1.2091   -0.5507   -1.3972 C   0  0  0  1  0  0  0  0  0  0  0  0
    1.3595   -1.4911   -0.9094 H   0  0  0  1  0  0  0  0  0  0  0  0
    2.4192    0.2069   -1.3557 O   0  0  0  1  0  0  0  0  0  0  0  0
    2.8594    0.1548   -2.2072 H   0  0  0  1  0  0  0  0  0  0  0  0
    0.0542    0.2231   -0.7544 C   0  0  0  1  0  0  0  0  0  0  0  0
    0.4281    0.9584   -0.0729 H   0  0  0  1  0  0  0  0  0  0  0  0
   -0.8424   -0.6884   -0.0454 N   0  0  0  1  0  0  0  0  0  0  0  0
   -1.7560   -0.3675    0.9113 C   0  0  0  1  0  0  0  0  0  0  0  0
   -1.8564    0.5968    1.2876 H   0  0  0  1  0  0  0  0  0  0  0  0
   -2.4967   -1.3613    1.3208 N   0  0  0  1  0  0  0  0  0  0  0  0
   -2.0455   -2.4342    0.5679 C   0  0  0  1  0  0  0  0  0  0  0  0
   -2.3832   -3.7827    0.5005 C   0  0  0  1  0  0  0  0  0  0  0  0
   -3.3627   -4.4119    1.2612 N   0  0  0  1  0  0  0  0  0  0  0  0
   -3.5823   -5.3526    1.0959 H   0  0  0  1  0  0  0  0  0  0  0  0
   -3.8332   -3.9147    1.9624 H   0  0  0  1  0  0  0  0  0  0  0  0
   -1.7395   -4.5855   -0.3538 N   0  0  0  1  0  0  0  0  0  0  0  0
   -0.7698   -4.0498   -1.1119 C   0  0  0  1  0  0  0  0  0  0  0  0
   -0.2906   -4.7072   -1.7598 H   0  0  0  1  0  0  0  0  0  0  0  0
   -0.3399   -2.7944   -1.1461 N   0  0  0  1  0  0  0  0  0  0  0  0
   -1.0144   -2.0266   -0.2891 C   0  0  0  1  0  0  0  0  0  0  0  0
  1  2  1  0  0  0  0
  1  3  1  0  0  0  0
  3  4  1  0  0  0  0
  3  5  1  0  0  0  0
  3  6  1  0  0  0  0
  6  7  1  0  0  0  0
  6  8  1  0  0  0  0
  6  9  1  0  0  0  0
  8 17  1  0  0  0  0
  9 10  1  0  0  0  0
  9 11  1  0  0  0  0
  9 13  1  0  0  0  0
 11 12  1  0  0  0  0
 13 14  1  0  0  0  0
 13 15  1  0  0  0  0
 13 17  1  0  0  0  0
 15 16  1  0  0  0  0
 17 18  1  0  0  0  0
 17 19  1  0  0  0  0
 19 20  1  0  0  0  0
 19 32  1  0  0  0  0
 20 21  1  0  0  0  0
 20 22  2  0  0  0  0
 22 23  1  0  0  0  0
 23 24  1  0  0  0  0
 23 32  2  0  0  0  0
 24 25  1  0  0  0  0
 24 28  2  0  0  0  0
 25 26  1  0  0  0  0
 25 27  1  0  0  0  0
 28 29  1  0  0  0  0
 29 30  1  0  0  0  0
 29 31  2  0  0  0  0
 31 32  1  0  0  0  0
M  END
> <ConfClashScore>
0.00016338 

> <ConfOneFourInteractionScore>
-0.970688 

> <ConfScore>
0.254379 

> <ConfScorePBest>
0.00541646 

> <ConfTolerance>
0.706755 

$$$$
ADN.****
  PyMOL2.4          3D                             0

 32 34  0  0  0  0  0  0  0  0999 V2000
   -1.2652   -0.5377   -4.7836 O   0  0  0  1  0  0  0  0  0  0  0  0
   -2.1366   -0.6016   -5.1814 H   0  0  0  1  0  0  0  0  0  0  0  0
   -1.3763    0.0335   -3.4867 C   0  0  0  1  0  0  0  0  0  0  0  0
   -1.7347   -0.7063   -2.8018 H   0  0  0  1  0  0  0  0  0  0  0  0
   -2.0621    0.8542   -3.5171 H   0  0  0  1  0  0  0  0  0  0  0  0
   -0.0233    0.5264   -3.0305 C   0  0  0  1  0  0  0  0  0  0  0  0
    0.3810    1.1911   -3.7650 H   0  0  0  1  0  0  0  0  0  0  0  0
   -0.1458    1.1984   -1.7799 O   0  0  0  1  0  0  0  0  0  0  0  0
    0.8999   -0.6310   -2.8250 C   0  0  0  1  0  0  0  0  0  0  0  0
    0.4454   -1.5367   -3.1687 H   0  0  0  1  0  0  0  0  0  0  0  0
    2.1279   -0.4191   -3.5229 O   0  0  0  1  0  0  0  0  0  0  0  0
    2.2732   -1.1385   -4.1416 H   0  0  0  1  0  0  0  0  0  0  0  0
    1.1422   -0.6957   -1.3487 C   0  0  0  1  0  0  0  0  0  0  0  0
    0.9883   -1.6891   -0.9822 H   0  0  0  1  0  0  0  0  0  0  0  0
    2.4695   -0.2718   -1.0345 O   0  0  0  1  0  0  0  0  0  0  0  0
    2.8249    0.2378   -1.7663 H   0  0  0  1  0  0  0  0  0  0  0  0
    0.1322    0.2470   -0.7688 C   0  0  0  1  0  0  0  0  0  0  0  0
    0.5321    0.7322    0.0971 H   0  0  0  1  0  0  0  0  0  0  0  0
   -1.0862   -0.4765   -0.4043 N   0  0  0  1  0  0  0  0  0  0  0  0
   -1.4448   -1.7301   -0.7952 C   0  0  0  1  0  0  0  0  0  0  0  0
   -0.8478   -2.3150   -1.4142 H   0  0  0  1  0  0  0  0  0  0  0  0
   -2.5943   -2.1428   -0.3347 N   0  0  0  1  0  0  0  0  0  0  0  0
   -3.0364   -1.0786    0.4357 C   0  0  0  1  0  0  0  0  0  0  0  0
   -4.1776   -0.8386    1.1953 C   0  0  0  1  0  0  0  0  0  0  0  0
   -5.1933   -1.7485    1.3262 N   0  0  0  1  0  0  0  0  0  0  0  0
   -5.1764   -2.5798    0.8074 H   0  0  0  1  0  0  0  0  0  0  0  0
   -5.9368   -1.5682    1.9387 H   0  0  0  1  0  0  0  0  0  0  0  0
   -4.3138    0.3267    1.8373 N   0  0  0  1  0  0  0  0  0  0  0  0
   -3.3338    1.2350    1.7078 C   0  0  0  1  0  0  0  0  0  0  0  0
   -3.4789    2.1291    2.2187 H   0  0  0  1  0  0  0  0  0  0  0  0
   -2.2047    1.1459    1.0157 N   0  0  0  1  0  0  0  0  0  0  0  0
   -2.1035   -0.0335    0.4011 C   0  0  0  1  0  0  0  0  0  0  0  0
  1  2  1  0  0  0  0
  1  3  1  0  0  0  0
  3  4  1  0  0  0  0
  3  5  1  0  0  0  0
  3  6  1  0  0  0  0
  6  7  1  0  0  0  0
  6  8  1  0  0  0  0
  6  9  1  0  0  0  0
  8 17  1  0  0  0  0
  9 10  1  0  0  0  0
  9 11  1  0  0  0  0
  9 13  1  0  0  0  0
 11 12  1  0  0  0  0
 13 14  1  0  0  0  0
 13 15  1  0  0  0  0
 13 17  1  0  0  0  0
 15 16  1  0  0  0  0
 17 18  1  0  0  0  0
 17 19  1  0  0  0  0
 19 20  1  0  0  0  0
 19 32  1  0  0  0  0
 20 21  1  0  0  0  0
 20 22  2  0  0  0  0
 22 23  1  0  0  0  0
 23 24  1  0  0  0  0
 23 32  2  0  0  0  0
 24 25  1  0  0  0  0
 24 28  2  0  0  0  0
 25 26  1  0  0  0  0
 25 27  1  0  0  0  0
 28 29  1  0  0  0  0
 29 30  1  0  0  0  0
 29 31  2  0  0  0  0
 31 32  1  0  0  0  0
M  END
> <ConfClashScore>
0 

> <ConfOneFourInteractionScore>
-0.970688 

> <ConfScore>
0.255281 

> <ConfScorePBest>
0.00531345 

> <ConfTolerance>
1.39733 

$$$$
ADN.****
  PyMOL2.4          3D                             0

 32 34  0  0  0  0  0  0  0  0999 V2000
   -0.5144   -0.0110   -5.4256 O   0  0  0  1  0  0  0  0  0  0  0  0
    0.2051    0.6241   -5.4491 H   0  0  0  1  0  0  0  0  0  0  0  0
   -1.2052    0.0988   -4.1848 C   0  0  0  1  0  0  0  0  0  0  0  0
   -1.7169   -0.8159   -3.9695 H   0  0  0  1  0  0  0  0  0  0  0  0
   -1.9115    0.9013   -4.2298 H   0  0  0  1  0  0  0  0  0  0  0  0
   -0.1700    0.3791   -3.1098 C   0  0  0  1  0  0  0  0  0  0  0  0
    0.3792    1.2614   -3.3642 H   0  0  0  1  0  0  0  0  0  0  0  0
   -0.8031    0.5280   -1.8204 O   0  0  0  1  0  0  0  0  0  0  0  0
    0.7816   -0.8250   -2.9439 C   0  0  0  1  0  0  0  0  0  0  0  0
    0.3125   -1.7282   -3.2742 H   0  0  0  1  0  0  0  0  0  0  0  0
    1.9907   -0.6204   -3.6763 O   0  0  0  1  0  0  0  0  0  0  0  0
    2.5141    0.0602   -3.2469 H   0  0  0  1  0  0  0  0  0  0  0  0
    1.0626   -0.8764   -1.4236 C   0  0  0  1  0  0  0  0  0  0  0  0
    0.7335   -1.8055   -1.0072 H   0  0  0  1  0  0  0  0  0  0  0  0
    2.4552   -0.7018   -1.1586 O   0  0  0  1  0  0  0  0  0  0  0  0
    2.7584    0.1146   -1.5625 H   0  0  0  1  0  0  0  0  0  0  0  0
    0.2436    0.3013   -0.8527 C   0  0  0  1  0  0  0  0  0  0  0  0
    0.8571    1.1720   -0.7507 H   0  0  0  1  0  0  0  0  0  0  0  0
   -0.3252   -0.0501    0.4477 N   0  0  0  1  0  0  0  0  0  0  0  0
    0.1950    0.2529    1.6685 C   0  0  0  1  0  0  0  0  0  0  0  0
    1.0034    0.8963    1.7878 H   0  0  0  1  0  0  0  0  0  0  0  0
   -0.3970   -0.3249    2.6782 N   0  0  0  1  0  0  0  0  0  0  0  0
   -1.4028   -1.0695    2.0819 C   0  0  0  1  0  0  0  0  0  0  0  0
   -2.3916   -1.9239    2.5609 C   0  0  0  1  0  0  0  0  0  0  0  0
   -2.5560   -2.2033    3.8863 N   0  0  0  1  0  0  0  0  0  0  0  0
   -1.9263   -1.8426    4.5448 H   0  0  0  1  0  0  0  0  0  0  0  0
   -3.3038   -2.7646    4.1796 H   0  0  0  1  0  0  0  0  0  0  0  0
   -3.2328   -2.5113    1.7030 N   0  0  0  1  0  0  0  0  0  0  0  0
   -3.0755   -2.2581    0.3941 C   0  0  0  1  0  0  0  0  0  0  0  0
   -3.7462   -2.7367   -0.2404 H   0  0  0  1  0  0  0  0  0  0  0  0
   -2.1794   -1.4793   -0.1996 N   0  0  0  1  0  0  0  0  0  0  0  0
   -1.3690   -0.9052    0.6907 C   0  0  0  1  0  0  0  0  0  0  0  0
  1  2  1  0  0  0  0
  1  3  1  0  0  0  0
  3  4  1  0  0  0  0
  3  5  1  0  0  0  0
  3  6  1  0  0  0  0
  6  7  1  0  0  0  0
  6  8  1  0  0  0  0
  6  9  1  0  0  0  0
  8 17  1  0  0  0  0
  9 10  1  0  0  0  0
  9 11  1  0  0  0  0
  9 13  1  0  0  0  0
 11 12  1  0  0  0  0
 13 14  1  0  0  0  0
 13 15  1  0  0  0  0
 13 17  1  0  0  0  0
 15 16  1  0  0  0  0
 17 18  1  0  0  0  0
 17 19  1  0  0  0  0
 19 20  1  0  0  0  0
 19 32  1  0  0  0  0
 20 21  1  0  0  0  0
 20 22  2  0  0  0  0
 22 23  1  0  0  0  0
 23 24  1  0  0  0  0
 23 32  2  0  0  0  0
 24 25  1  0  0  0  0
 24 28  2  0  0  0  0
 25 26  1  0  0  0  0
 25 27  1  0  0  0  0
 28 29  1  0  0  0  0
 29 30  1  0  0  0  0
 29 31  2  0  0  0  0
 31 32  1  0  0  0  0
M  END
> <ConfClashScore>
0 

> <ConfOneFourInteractionScore>
-0.970696 

> <ConfScore>
0.25699 

> <ConfScorePBest>
0.00521045 

> <ConfTolerance>
0.974008 

$$$$
ADN.****
  PyMOL2.4          3D                             0

 32 34  0  0  0  0  0  0  0  0999 V2000
   -0.4572    0.1671   -5.3094 O   0  0  0  1  0  0  0  0  0  0  0  0
    0.4904    0.0284   -5.2431 H   0  0  0  1  0  0  0  0  0  0  0  0
   -0.9761    0.5168   -4.0331 C   0  0  0  1  0  0  0  0  0  0  0  0
   -1.6703   -0.2322   -3.7140 H   0  0  0  1  0  0  0  0  0  0  0  0
   -1.4747    1.4613   -4.0985 H   0  0  0  1  0  0  0  0  0  0  0  0
    0.1537    0.6133   -3.0332 C   0  0  0  1  0  0  0  0  0  0  0  0
    0.8672    1.3365   -3.3691 H   0  0  0  1  0  0  0  0  0  0  0  0
   -0.3550    0.9683   -1.7186 O   0  0  0  1  0  0  0  0  0  0  0  0
    0.8187   -0.7488   -2.8395 C   0  0  0  1  0  0  0  0  0  0  0  0
    0.1167   -1.5470   -2.9623 H   0  0  0  1  0  0  0  0  0  0  0  0
    1.9093   -0.9297   -3.7438 O   0  0  0  1  0  0  0  0  0  0  0  0
    1.6854   -1.6090   -4.3841 H   0  0  0  1  0  0  0  0  0  0  0  0
    1.2968   -0.6516   -1.4137 C   0  0  0  1  0  0  0  0  0  0  0  0
    1.4353   -1.6220   -0.9847 H   0  0  0  1  0  0  0  0  0  0  0  0
    2.5166    0.0866   -1.3268 O   0  0  0  1  0  0  0  0  0  0  0  0
    2.3197    1.0148   -1.1813 H   0  0  0  1  0  0  0  0  0  0  0  0
    0.1570    0.0896   -0.7388 C   0  0  0  1  0  0  0  0  0  0  0  0
    0.5169    0.6400    0.1053 H   0  0  0  1  0  0  0  0  0  0  0  0
   -0.8773   -0.8498   -0.3044 N   0  0  0  1  0  0  0  0  0  0  0  0
   -2.1843   -0.8122   -0.6828 C   0  0  0  1  0  0  0  0  0  0  0  0
   -2.5726   -0.0523   -1.2772 H   0  0  0  1  0  0  0  0  0  0  0  0
   -2.9134   -1.8017   -0.2435 N   0  0  0  1  0  0  0  0  0  0  0  0
   -2.0157   -2.5693    0.4821 C   0  0  0  1  0  0  0  0  0  0  0  0
   -2.1184   -3.7461    1.2181 C   0  0  0  1  0  0  0  0  0  0  0  0
   -3.3181   -4.3980    1.3292 N   0  0  0  1  0  0  0  0  0  0  0  0
   -4.1282   -4.0025    0.9448 H   0  0  0  1  0  0  0  0  0  0  0  0
   -3.3663   -5.2599    1.7932 H   0  0  0  1  0  0  0  0  0  0  0  0
   -1.0356   -4.2463    1.8231 N   0  0  0  1  0  0  0  0  0  0  0  0
    0.1195   -3.5728    1.7040 C   0  0  0  1  0  0  0  0  0  0  0  0
    0.9367   -3.9917    2.1921 H   0  0  0  1  0  0  0  0  0  0  0  0
    0.3594   -2.4444    1.0474 N   0  0  0  1  0  0  0  0  0  0  0  0
   -0.7418   -1.9863    0.4504 C   0  0  0  1  0  0  0  0  0  0  0  0
  1  2  1  0  0  0  0
  1  3  1  0  0  0  0
  3  4  1  0  0  0  0
  3  5  1  0  0  0  0
  3  6  1  0  0  0  0
  6  7  1  0  0  0  0
  6  8  1  0  0  0  0
  6  9  1  0  0  0  0
  8 17  1  0  0  0  0
  9 10  1  0  0  0  0
  9 11  1  0  0  0  0
  9 13  1  0  0  0  0
 11 12  1  0  0  0  0
 13 14  1  0  0  0  0
 13 15  1  0  0  0  0
 13 17  1  0  0  0  0
 15 16  1  0  0  0  0
 17 18  1  0  0  0  0
 17 19  1  0  0  0  0
 19 20  1  0  0  0  0
 19 32  1  0  0  0  0
 20 21  1  0  0  0  0
 20 22  2  0  0  0  0
 22 23  1  0  0  0  0
 23 24  1  0  0  0  0
 23 32  2  0  0  0  0
 24 25  1  0  0  0  0
 24 28  2  0  0  0  0
 25 26  1  0  0  0  0
 25 27  1  0  0  0  0
 28 29  1  0  0  0  0
 29 30  1  0  0  0  0
 29 31  2  0  0  0  0
 31 32  1  0  0  0  0
M  END
> <ConfClashScore>
0 

> <ConfOneFourInteractionScore>
-0.970696 

> <ConfScore>
0.259857 

> <ConfScorePBest>
0.00510745 

> <ConfTolerance>
0.896329 

$$$$
ADN.****
  PyMOL2.4          3D                             0

 32 34  0  0  0  0  0  0  0  0999 V2000
   -1.6895   -1.3248   -2.2758 O   0  0  0  1  0  0  0  0  0  0  0  0
   -2.3310   -1.9358   -2.6455 H   0  0  0  1  0  0  0  0  0  0  0  0
   -1.5232   -0.2297   -3.1507 C   0  0  0  1  0  0  0  0  0  0  0  0
   -2.2752    0.4965   -2.9228 H   0  0  0  1  0  0  0  0  0  0  0  0
   -1.6569   -0.5800   -4.1528 H   0  0  0  1  0  0  0  0  0  0  0  0
   -0.1753    0.4448   -3.0634 C   0  0  0  1  0  0  0  0  0  0  0  0
   -0.0348    1.0740   -3.9174 H   0  0  0  1  0  0  0  0  0  0  0  0
   -0.0708    1.2082   -1.8518 O   0  0  0  1  0  0  0  0  0  0  0  0
    0.9147   -0.5711   -2.9756 C   0  0  0  1  0  0  0  0  0  0  0  0
    0.6314   -1.4747   -3.4738 H   0  0  0  1  0  0  0  0  0  0  0  0
    2.1223   -0.0682   -3.5502 O   0  0  0  1  0  0  0  0  0  0  0  0
    2.5015   -0.7319   -4.1311 H   0  0  0  1  0  0  0  0  0  0  0  0
    1.0860   -0.8084   -1.4951 C   0  0  0  1  0  0  0  0  0  0  0  0
    0.6998   -1.7679   -1.2209 H   0  0  0  1  0  0  0  0  0  0  0  0
    2.4644   -0.7272   -1.1298 O   0  0  0  1  0  0  0  0  0  0  0  0
    2.6671    0.1654   -0.8401 H   0  0  0  1  0  0  0  0  0  0  0  0
    0.2989    0.2864   -0.8331 C   0  0  0  1  0  0  0  0  0  0  0  0
    0.8996    0.7759   -0.0953 H   0  0  0  1  0  0  0  0  0  0  0  0
   -0.8967   -0.2677   -0.1998 N   0  0  0  1  0  0  0  0  0  0  0  0
   -2.1410    0.2831   -0.1643 C   0  0  0  1  0  0  0  0  0  0  0  0
   -2.3458    1.2271   -0.5497 H   0  0  0  1  0  0  0  0  0  0  0  0
   -3.0577   -0.4628    0.3899 N   0  0  0  1  0  0  0  0  0  0  0  0
   -2.3693   -1.6119    0.7467 C   0  0  0  1  0  0  0  0  0  0  0  0
   -2.7253   -2.7993    1.3793 C   0  0  0  1  0  0  0  0  0  0  0  0
   -3.9984   -3.0639    1.8106 N   0  0  0  1  0  0  0  0  0  0  0  0
   -4.7232   -2.4344    1.6136 H   0  0  0  1  0  0  0  0  0  0  0  0
   -4.1843   -3.8826    2.3161 H   0  0  0  1  0  0  0  0  0  0  0  0
   -1.8003   -3.7424    1.5882 N   0  0  0  1  0  0  0  0  0  0  0  0
   -0.5447   -3.4929    1.1843 C   0  0  0  1  0  0  0  0  0  0  0  0
    0.1456   -4.2487    1.3683 H   0  0  0  1  0  0  0  0  0  0  0  0
   -0.0651   -2.4117    0.5818 N   0  0  0  1  0  0  0  0  0  0  0  0
   -1.0205   -1.5026    0.3827 C   0  0  0  1  0  0  0  0  0  0  0  0
  1  2  1  0  0  0  0
  1  3  1  0  0  0  0
  3  4  1  0  0  0  0
  3  5  1  0  0  0  0
  3  6  1  0  0  0  0
  6  7  1  0  0  0  0
  6  8  1  0  0  0  0
  6  9  1  0  0  0  0
  8 17  1  0  0  0  0
  9 10  1  0  0  0  0
  9 11  1  0  0  0  0
  9 13  1  0  0  0  0
 11 12  1  0  0  0  0
 13 14  1  0  0  0  0
 13 15  1  0  0  0  0
 13 17  1  0  0  0  0
 15 16  1  0  0  0  0
 17 18  1  0  0  0  0
 17 19  1  0  0  0  0
 19 20  1  0  0  0  0
 19 32  1  0  0  0  0
 20 21  1  0  0  0  0
 20 22  2  0  0  0  0
 22 23  1  0  0  0  0
 23 24  1  0  0  0  0
 23 32  2  0  0  0  0
 24 25  1  0  0  0  0
 24 28  2  0  0  0  0
 25 26  1  0  0  0  0
 25 27  1  0  0  0  0
 28 29  1  0  0  0  0
 29 30  1  0  0  0  0
 29 31  2  0  0  0  0
 31 32  1  0  0  0  0
M  END
> <ConfClashScore>
0.00308154 

> <ConfOneFourInteractionScore>
-0.970497 

> <ConfScore>
0.627747 

> <ConfScorePBest>
0.00500445 

> <ConfTolerance>
0.564362 

$$$$
ADN.****
  PyMOL2.4          3D                             0

 32 34  0  0  0  0  0  0  0  0999 V2000
   -1.0162   -0.7620   -4.6645 O   0  0  0  1  0  0  0  0  0  0  0  0
   -1.2036   -0.6505   -5.5994 H   0  0  0  1  0  0  0  0  0  0  0  0
   -0.9213    0.5124   -4.0447 C   0  0  0  1  0  0  0  0  0  0  0  0
   -1.8450    0.7217   -3.5468 H   0  0  0  1  0  0  0  0  0  0  0  0
   -0.7478    1.2497   -4.8005 H   0  0  0  1  0  0  0  0  0  0  0  0
    0.2009    0.5807   -3.0338 C   0  0  0  1  0  0  0  0  0  0  0  0
    0.9461    1.2694   -3.3734 H   0  0  0  1  0  0  0  0  0  0  0  0
   -0.3071    0.9774   -1.7309 O   0  0  0  1  0  0  0  0  0  0  0  0
    0.8090   -0.8033   -2.8105 C   0  0  0  1  0  0  0  0  0  0  0  0
    0.0771   -1.5750   -2.9283 H   0  0  0  1  0  0  0  0  0  0  0  0
    1.9011   -1.0424   -3.6995 O   0  0  0  1  0  0  0  0  0  0  0  0
    1.5737   -1.1052   -4.5997 H   0  0  0  1  0  0  0  0  0  0  0  0
    1.2755   -0.7014   -1.3812 C   0  0  0  1  0  0  0  0  0  0  0  0
    1.3707   -1.6693   -0.9351 H   0  0  0  1  0  0  0  0  0  0  0  0
    2.5227   -0.0108   -1.2926 O   0  0  0  1  0  0  0  0  0  0  0  0
    2.3614    0.9289   -1.1808 H   0  0  0  1  0  0  0  0  0  0  0  0
    0.1590    0.0956   -0.7314 C   0  0  0  1  0  0  0  0  0  0  0  0
    0.5316    0.6452    0.1077 H   0  0  0  1  0  0  0  0  0  0  0  0
   -0.9155   -0.7941   -0.2937 N   0  0  0  1  0  0  0  0  0  0  0  0
   -1.1812   -1.1965    0.9792 C   0  0  0  1  0  0  0  0  0  0  0  0
   -0.6161   -0.8831    1.7941 H   0  0  0  1  0  0  0  0  0  0  0  0
   -2.1985   -2.0054    1.0999 N   0  0  0  1  0  0  0  0  0  0  0  0
   -2.6560   -2.1481   -0.2008 C   0  0  0  1  0  0  0  0  0  0  0  0
   -3.6904   -2.8672   -0.7922 C   0  0  0  1  0  0  0  0  0  0  0  0
   -4.5923   -3.6882   -0.1239 N   0  0  0  1  0  0  0  0  0  0  0  0
   -4.5165   -3.8126    0.8452 H   0  0  0  1  0  0  0  0  0  0  0  0
   -5.3037   -4.1422   -0.6221 H   0  0  0  1  0  0  0  0  0  0  0  0
   -3.8755   -2.7965   -2.1148 N   0  0  0  1  0  0  0  0  0  0  0  0
   -3.0327   -2.0332   -2.8283 C   0  0  0  1  0  0  0  0  0  0  0  0
   -3.2071   -2.0077   -3.8533 H   0  0  0  1  0  0  0  0  0  0  0  0
   -2.0067   -1.3067   -2.4024 N   0  0  0  1  0  0  0  0  0  0  0  0
   -1.8644   -1.3961   -1.0792 C   0  0  0  1  0  0  0  0  0  0  0  0
  1  2  1  0  0  0  0
  1  3  1  0  0  0  0
  3  4  1  0  0  0  0
  3  5  1  0  0  0  0
  3  6  1  0  0  0  0
  6  7  1  0  0  0  0
  6  8  1  0  0  0  0
  6  9  1  0  0  0  0
  8 17  1  0  0  0  0
  9 10  1  0  0  0  0
  9 11  1  0  0  0  0
  9 13  1  0  0  0  0
 11 12  1  0  0  0  0
 13 14  1  0  0  0  0
 13 15  1  0  0  0  0
 13 17  1  0  0  0  0
 15 16  1  0  0  0  0
 17 18  1  0  0  0  0
 17 19  1  0  0  0  0
 19 20  1  0  0  0  0
 19 32  1  0  0  0  0
 20 21  1  0  0  0  0
 20 22  2  0  0  0  0
 22 23  1  0  0  0  0
 23 24  1  0  0  0  0
 23 32  2  0  0  0  0
 24 25  1  0  0  0  0
 24 28  2  0  0  0  0
 25 26  1  0  0  0  0
 25 27  1  0  0  0  0
 28 29  1  0  0  0  0
 29 30  1  0  0  0  0
 29 31  2  0  0  0  0
 31 32  1  0  0  0  0
M  END
> <ConfClashScore>
0.00155073 

> <ConfOneFourInteractionScore>
-0.964483 

> <ConfScore>
0.62875 

> <ConfScorePBest>
0.00490145 

> <ConfTolerance>
1.48263 

$$$$
