# created with PyMOL 2.5.2
@<TRIPOS>MOLECULE
ADP
42 44 1                 
SMALL
USER_CHARGES
@<TRIPOS>ATOM
1	  PB	1.162	-0.221	-5.685	P.3	1	ADP0	0.000	
2	 O1B	1.725	1.133	-5.492	O.co2	1	ADP0	0.000	
3	 O2B	2.190	-1.112	-6.546	O.3	1	ADP0	0.000	
4	 O3B	-0.240	-0.113	-6.467	O.3	1	ADP0	0.000	
5	  PA	-0.105	0.025	-3.446	P.3	1	ADP0	0.000	
6	 O1A	0.476	1.376	-3.288	O.co2	1	ADP0	0.000	
7	 O2A	-1.487	0.129	-4.266	O.3	1	ADP0	0.000	
8	 O3A	0.925	-0.913	-4.250	O.3	1	ADP0	0.000	
9	 O5'	-0.389	-0.609	-1.994	O.3	1	ADP0	0.000	
10	 C5'	-1.307	0.264	-1.333	C.3	1	ADP0	0.000	
11	 C4'	-1.620	-0.284	0.059	C.3	1	ADP0	0.000	
12	 O4'	-0.417	-0.348	0.857	O.3	1	ADP0	0.000	
13	 C3'	-2.550	0.683	0.825	C.3	1	ADP0	0.000	
14	 O3'	-3.907	0.245	0.739	O.3	1	ADP0	0.000	
15	 C2'	-2.047	0.611	2.286	C.3	1	ADP0	0.000	
16	 O2'	-3.080	0.129	3.148	O.3	1	ADP0	0.000	
17	 C1'	-0.871	-0.388	2.227	C.3	1	ADP0	0.000	
18	  N9	0.201	0.031	3.132	N.pl3	1	ADP0	0.000	
19	  C8	1.231	0.870	2.827	C.2	1	ADP0	0.000	
20	  N7	2.000	1.027	3.865	N.2	1	ADP0	0.000	
21	  C5	1.509	0.305	4.902	C.2	1	ADP0	0.000	
22	  C6	1.910	0.087	6.231	C.2	1	ADP0	0.000	
23	  N6	3.044	0.697	6.738	N.pl3	1	ADP0	0.000	
24	  N1	1.171	-0.714	6.991	N.2	1	ADP0	0.000	
25	  C2	0.088	-1.300	6.516	C.2	1	ADP0	0.000	
26	  N3	-0.321	-1.130	5.277	N.2	1	ADP0	0.000	
27	  C4	0.353	-0.346	4.442	C.2	1	ADP0	0.000	
28	HOB2	2.304	-0.664	-7.396	 H	1	ADP0	0.000	
29	HOB3	-0.572	-1.016	-6.571	 H	1	ADP0	0.000	
30	HOA2	-1.833	-0.770	-4.346	 H	1	ADP0	0.000	
31	H5'1	-2.227	0.330	-1.913	 H	1	ADP0	0.000	
32	H5'2	-0.862	1.255	-1.242	 H	1	ADP0	0.000	
33	 H4'	-2.078	-1.270	-0.015	 H	1	ADP0	0.000	
34	 H3'	-2.451	1.696	0.435	 H	1	ADP0	0.000	
35	HO3'	-4.439	0.884	1.233	 H	1	ADP0	0.000	
36	 H2'	-1.699	1.589	2.618	 H	1	ADP0	0.000	
37	HO2'	-3.807	0.764	3.094	 H	1	ADP0	0.000	
38	 H1'	-1.212	-1.391	2.485	 H	1	ADP0	0.000	
39	  H8	1.387	1.335	1.865	 H	1	ADP0	0.000	
40	HN61	3.308	0.542	7.658	 H	1	ADP0	0.000	
41	HN62	3.577	1.277	6.172	 H	1	ADP0	0.000	
42	  H2	-0.482	-1.944	7.169	 H	1	ADP0	0.000	
@<TRIPOS>BOND
1 1 2 2
2 1 3 1
3 1 4 1
4 1 8 1
5 3 28 1
6 4 29 1
7 5 6 2
8 5 7 1
9 5 8 1
10 5 9 1
11 7 30 1
12 9 10 1
13 10 11 1
14 10 31 1
15 10 32 1
16 11 12 1
17 11 13 1
18 11 33 1
19 12 17 1
20 13 14 1
21 13 15 1
22 13 34 1
23 14 35 1
24 15 16 1
25 15 17 1
26 15 36 1
27 16 37 1
28 17 18 1
29 17 38 1
30 18 19 1
31 18 27 1
32 19 20 2
33 19 39 1
34 20 21 1
35 21 22 1
36 21 27 2
37 22 23 1
38 22 24 2
39 23 40 1
40 23 41 1
41 24 25 1
42 25 26 2
43 25 42 1
44 26 27 1
@<TRIPOS>SUBSTRUCTURE
1	ADP0	1	GROUP	1 ****	ADP
