# created with PyMOL 2.4.0
@<TRIPOS>MOLECULE
ADP.****
39 41 1                 
SMALL
USER_CHARGES
@<TRIPOS>ATOM
1	   P	1.162	-0.221	-5.685	 P	1	UNK0	0.000	
2	   O	1.725	1.133	-5.492	O.2	1	UNK0	0.000	
3	   O	2.190	-1.112	-6.546	O.2	1	UNK0	0.000	
4	   O	-0.240	-0.113	-6.467	O.2	1	UNK0	0.000	
5	   P	-0.105	0.025	-3.446	 P	1	UNK0	0.000	
6	   O	0.476	1.376	-3.288	O.2	1	UNK0	0.000	
7	   O	-1.487	0.129	-4.266	O.2	1	UNK0	0.000	
8	   O	0.925	-0.913	-4.250	O.3	1	UNK0	0.000	
9	   O	-0.389	-0.609	-1.994	O.3	1	UNK0	0.000	
10	   C	-1.307	0.264	-1.333	C.3	1	UNK0	0.000	
11	   H	-2.228	0.330	-1.913	 H	1	UNK0	0.000	
12	   H	-0.864	1.256	-1.242	 H	1	UNK0	0.000	
13	   C	-1.620	-0.284	0.059	C.3	1	UNK0	0.000	
14	   H	-2.074	-1.265	-0.084	 H	1	UNK0	0.000	
15	   O	-0.417	-0.348	0.857	O.3	1	UNK0	0.000	
16	   C	-2.550	0.683	0.825	C.3	1	UNK0	0.000	
17	   H	-2.526	1.696	0.423	 H	1	UNK0	0.000	
18	   O	-3.907	0.245	0.739	O.3	1	UNK0	0.000	
19	   H	-4.161	0.267	-0.186	 H	1	UNK0	0.000	
20	   C	-2.047	0.611	2.286	C.3	1	UNK0	0.000	
21	   H	-1.750	1.583	2.680	 H	1	UNK0	0.000	
22	   O	-3.080	0.129	3.148	O.3	1	UNK0	0.000	
23	   H	-3.868	0.002	2.614	 H	1	UNK0	0.000	
24	   C	-0.871	-0.388	2.227	C.3	1	UNK0	0.000	
25	   H	-1.169	-1.391	2.532	 H	1	UNK0	0.000	
26	   N	0.201	0.031	3.132	N.pl3	1	UNK0	0.000	
27	   C	1.231	0.870	2.827	C.2	1	UNK0	0.000	
28	   H	1.386	1.336	1.865	 H	1	UNK0	0.000	
29	   N	2.000	1.027	3.865	N.2	1	UNK0	0.000	
30	   C	1.509	0.305	4.902	C.2	1	UNK0	0.000	
31	   C	1.910	0.087	6.231	C.2	1	UNK0	0.000	
32	   N	3.044	0.697	6.738	N.pl3	1	UNK0	0.000	
33	   H	3.319	0.535	7.696	 H	1	UNK0	0.000	
34	   H	3.597	1.304	6.150	 H	1	UNK0	0.000	
35	   N	1.171	-0.714	6.991	N.2	1	UNK0	0.000	
36	   C	0.088	-1.300	6.516	C.2	1	UNK0	0.000	
37	   H	-0.484	-1.943	7.169	 H	1	UNK0	0.000	
38	   N	-0.321	-1.130	5.277	N.2	1	UNK0	0.000	
39	   C	0.353	-0.346	4.442	C.2	1	UNK0	0.000	
@<TRIPOS>BOND
1 1 2 ar
2 1 3 ar
3 1 4 ar
4 1 8 1
5 5 6 ar
6 5 7 ar
7 5 8 1
8 5 9 1
9 9 10 1
10 10 11 1
11 10 12 1
12 10 13 1
13 13 14 1
14 13 15 1
15 13 16 1
16 15 24 1
17 16 17 1
18 16 18 1
19 16 20 1
20 18 19 1
21 20 21 1
22 20 22 1
23 20 24 1
24 22 23 1
25 24 25 1
26 24 26 1
27 26 27 1
28 26 39 1
29 27 28 1
30 27 29 2
31 29 30 1
32 30 31 ar
33 30 39 ar
34 31 32 1
35 31 35 ar
36 32 33 1
37 32 34 1
38 35 36 ar
39 36 37 1
40 36 38 ar
41 38 39 ar
@<TRIPOS>SUBSTRUCTURE
1	UNK0	1	GROUP	1 ****	UNK
