ADP.****
  PyMOL2.5          3D                             0

 39 41  0  0  0  0  0  0  0  0999 V2000
   -1.5732    3.5361   -4.6517 P   0  0  0  1  0  0  0  0  0  0  0  0
   -0.8407    2.7848   -5.6954 O   0  0  0  1  0  0  0  0  0  0  0  0
   -3.1538    3.5609   -5.0059 O   0  5  0  1  0  0  0  0  0  0  0  0
   -1.0181    5.0563   -4.5791 O   0  5  0  1  0  0  0  0  0  0  0  0
   -0.0463    2.4762   -2.3782 P   0  0  0  1  0  0  0  0  0  0  0  0
    0.9233    1.7596   -3.2365 O   0  0  0  1  0  0  0  0  0  0  0  0
    0.6220    3.8447   -1.8258 O   0  5  0  1  0  0  0  0  0  0  0  0
   -1.3598    2.8318   -3.2235 O   0  0  0  1  0  0  0  0  0  0  0  0
   -0.4513    1.5676   -1.1590 O   0  0  0  1  0  0  0  0  0  0  0  0
   -1.0622    0.2684   -1.3700 C   0  0  0  1  0  0  0  0  0  0  0  0
   -0.3400   -0.4135   -1.7680 H   0  0  0  1  0  0  0  0  0  0  0  0
   -1.8825    0.3577   -2.0512 H   0  0  0  1  0  0  0  0  0  0  0  0
   -1.5569   -0.2293   -0.0308 C   0  0  0  1  0  0  0  0  0  0  0  0
   -2.0735   -1.1569   -0.1631 H   0  0  0  1  0  0  0  0  0  0  0  0
   -0.4560   -0.3869    0.8919 O   0  0  0  1  0  0  0  0  0  0  0  0
   -2.4796    0.8177    0.6318 C   0  0  0  1  0  0  0  0  0  0  0  0
   -2.2682    1.7990    0.2612 H   0  0  0  1  0  0  0  0  0  0  0  0
   -3.8531    0.5047    0.3959 O   0  0  0  1  0  0  0  0  0  0  0  0
   -4.1657   -0.0976    1.0751 H   0  0  0  1  0  0  0  0  0  0  0  0
   -2.1440    0.7156    2.1383 C   0  0  0  1  0  0  0  0  0  0  0  0
   -1.7698    1.6472    2.5086 H   0  0  0  1  0  0  0  0  0  0  0  0
   -3.2963    0.3320    2.8902 O   0  0  0  1  0  0  0  0  0  0  0  0
   -3.4126   -0.6193    2.8354 H   0  0  0  1  0  0  0  0  0  0  0  0
   -1.0561   -0.3782    2.2051 C   0  0  0  1  0  0  0  0  0  0  0  0
   -1.4926   -1.3299    2.4255 H   0  0  0  1  0  0  0  0  0  0  0  0
   -0.0596   -0.0506    3.2235 N   0  0  0  1  0  0  0  0  0  0  0  0
    0.2918   -0.8044    4.3010 C   0  0  0  1  0  0  0  0  0  0  0  0
   -0.1369   -1.7311    4.4988 H   0  0  0  1  0  0  0  0  0  0  0  0
    1.2073   -0.2767    5.0673 N   0  0  0  1  0  0  0  0  0  0  0  0
    1.4979    0.9269    4.4441 C   0  0  0  1  0  0  0  0  0  0  0  0
    2.3633    1.9803    4.7239 C   0  0  0  1  0  0  0  0  0  0  0  0
    3.1900    1.9986    5.8162 N   0  0  0  1  0  0  0  0  0  0  0  0
    3.1805    1.2515    6.4504 H   0  0  0  1  0  0  0  0  0  0  0  0
    3.7908    2.7587    5.9635 H   0  0  0  1  0  0  0  0  0  0  0  0
    2.4096    3.0361    3.9042 N   0  0  0  1  0  0  0  0  0  0  0  0
    1.5954    3.0403    2.8368 C   0  0  0  1  0  0  0  0  0  0  0  0
    1.6582    3.8801    2.2266 H   0  0  0  1  0  0  0  0  0  0  0  0
    0.7212    2.1173    2.4551 N   0  0  0  1  0  0  0  0  0  0  0  0
    0.7148    1.0788    3.2920 C   0  0  0  1  0  0  0  0  0  0  0  0
  1  2  2  0  0  0  0
  1  3  1  0  0  0  0
  1  4  1  0  0  0  0
  1  8  1  0  0  0  0
  5  6  2  0  0  0  0
  5  7  1  0  0  0  0
  5  8  1  0  0  0  0
  5  9  1  0  0  0  0
  9 10  1  0  0  0  0
 10 11  1  0  0  0  0
 10 12  1  0  0  0  0
 10 13  1  0  0  0  0
 13 14  1  0  0  0  0
 13 15  1  0  0  0  0
 13 16  1  0  0  0  0
 15 24  1  0  0  0  0
 16 17  1  0  0  0  0
 16 18  1  0  0  0  0
 16 20  1  0  0  0  0
 18 19  1  0  0  0  0
 20 21  1  0  0  0  0
 20 22  1  0  0  0  0
 20 24  1  0  0  0  0
 22 23  1  0  0  0  0
 24 25  1  0  0  0  0
 24 26  1  0  0  0  0
 26 27  1  0  0  0  0
 26 39  1  0  0  0  0
 27 28  1  0  0  0  0
 27 29  2  0  0  0  0
 29 30  1  0  0  0  0
 30 31  1  0  0  0  0
 30 39  2  0  0  0  0
 31 32  1  0  0  0  0
 31 35  2  0  0  0  0
 32 33  1  0  0  0  0
 32 34  1  0  0  0  0
 35 36  1  0  0  0  0
 36 37  1  0  0  0  0
 36 38  2  0  0  0  0
 38 39  1  0  0  0  0
M  END
> <ConfClashScore>
0 

> <ConfOneFourInteractionScore>
-0.982586 

> <ConfScore>
-0.0873831 

> <ConfScorePBest>
0.0150985 

> <ConfTolerance>
0.797074 

$$$$
ADP.****
  PyMOL2.5          3D                             0

 39 41  0  0  0  0  0  0  0  0999 V2000
    0.0477    5.6293   -1.8609 P   0  0  0  1  0  0  0  0  0  0  0  0
   -0.3421    6.6095   -0.8227 O   0  0  0  1  0  0  0  0  0  0  0  0
    1.5256    6.0336   -2.3873 O   0  5  0  1  0  0  0  0  0  0  0  0
   -1.0013    5.8620   -3.0732 O   0  5  0  1  0  0  0  0  0  0  0  0
    0.6356    3.2269   -0.1697 P   0  0  0  1  0  0  0  0  0  0  0  0
    1.9423    2.6245   -0.5159 O   0  0  0  1  0  0  0  0  0  0  0  0
    0.6462    4.3220    1.0241 O   0  5  0  1  0  0  0  0  0  0  0  0
    0.0098    4.0924   -1.3634 O   0  0  0  1  0  0  0  0  0  0  0  0
   -0.3538    2.0561    0.1859 O   0  0  0  1  0  0  0  0  0  0  0  0
   -0.7558    1.0905   -0.8200 C   0  0  0  1  0  0  0  0  0  0  0  0
    0.1089    0.6888   -1.3056 H   0  0  0  1  0  0  0  0  0  0  0  0
   -1.3866    1.5608   -1.5451 H   0  0  0  1  0  0  0  0  0  0  0  0
   -1.5129   -0.0153   -0.1184 C   0  0  0  1  0  0  0  0  0  0  0  0
   -1.8804   -0.7119   -0.8428 H   0  0  0  1  0  0  0  0  0  0  0  0
   -0.6570   -0.6836    0.8253 O   0  0  0  1  0  0  0  0  0  0  0  0
   -2.6870    0.5752    0.7008 C   0  0  0  1  0  0  0  0  0  0  0  0
   -2.9384    1.5580    0.3604 H   0  0  0  1  0  0  0  0  0  0  0  0
   -3.8399   -0.2646    0.6263 O   0  0  0  1  0  0  0  0  0  0  0  0
   -3.5752   -1.1819    0.7269 H   0  0  0  1  0  0  0  0  0  0  0  0
   -2.1274    0.6118    2.1121 C   0  0  0  1  0  0  0  0  0  0  0  0
   -1.6036    1.5265    2.2961 H   0  0  0  1  0  0  0  0  0  0  0  0
   -3.1640    0.4526    3.0818 O   0  0  0  1  0  0  0  0  0  0  0  0
   -3.4566    1.3160    3.3828 H   0  0  0  1  0  0  0  0  0  0  0  0
   -1.1679   -0.5887    2.1237 C   0  0  0  1  0  0  0  0  0  0  0  0
   -1.6946   -1.4834    2.3826 H   0  0  0  1  0  0  0  0  0  0  0  0
   -0.0856   -0.3652    3.0809 N   0  0  0  1  0  0  0  0  0  0  0  0
    0.2207   -1.1952    4.1154 C   0  0  0  1  0  0  0  0  0  0  0  0
   -0.3024   -2.0749    4.3002 H   0  0  0  1  0  0  0  0  0  0  0  0
    1.2203   -0.8038    4.8580 N   0  0  0  1  0  0  0  0  0  0  0  0
    1.6207    0.3830    4.2641 C   0  0  0  1  0  0  0  0  0  0  0  0
    2.6110    1.3209    4.5411 C   0  0  0  1  0  0  0  0  0  0  0  0
    3.4775    1.2036    5.5957 N   0  0  0  1  0  0  0  0  0  0  0  0
    3.4385    0.4153    6.1766 H   0  0  0  1  0  0  0  0  0  0  0  0
    4.1363    1.9080    5.7692 H   0  0  0  1  0  0  0  0  0  0  0  0
    2.7441    2.3959    3.7566 N   0  0  0  1  0  0  0  0  0  0  0  0
    1.8935    2.5330    2.7272 C   0  0  0  1  0  0  0  0  0  0  0  0
    2.0269    3.3836    2.1438 H   0  0  0  1  0  0  0  0  0  0  0  0
    0.9053    1.7296    2.3533 N   0  0  0  1  0  0  0  0  0  0  0  0
    0.8144    0.6665    3.1536 C   0  0  0  1  0  0  0  0  0  0  0  0
  1  2  2  0  0  0  0
  1  3  1  0  0  0  0
  1  4  1  0  0  0  0
  1  8  1  0  0  0  0
  5  6  2  0  0  0  0
  5  7  1  0  0  0  0
  5  8  1  0  0  0  0
  5  9  1  0  0  0  0
  9 10  1  0  0  0  0
 10 11  1  0  0  0  0
 10 12  1  0  0  0  0
 10 13  1  0  0  0  0
 13 14  1  0  0  0  0
 13 15  1  0  0  0  0
 13 16  1  0  0  0  0
 15 24  1  0  0  0  0
 16 17  1  0  0  0  0
 16 18  1  0  0  0  0
 16 20  1  0  0  0  0
 18 19  1  0  0  0  0
 20 21  1  0  0  0  0
 20 22  1  0  0  0  0
 20 24  1  0  0  0  0
 22 23  1  0  0  0  0
 24 25  1  0  0  0  0
 24 26  1  0  0  0  0
 26 27  1  0  0  0  0
 26 39  1  0  0  0  0
 27 28  1  0  0  0  0
 27 29  2  0  0  0  0
 29 30  1  0  0  0  0
 30 31  1  0  0  0  0
 30 39  2  0  0  0  0
 31 32  1  0  0  0  0
 31 35  2  0  0  0  0
 32 33  1  0  0  0  0
 32 34  1  0  0  0  0
 35 36  1  0  0  0  0
 36 37  1  0  0  0  0
 36 38  2  0  0  0  0
 38 39  1  0  0  0  0
M  END
> <ConfClashScore>
0 

> <ConfOneFourInteractionScore>
-0.982586 

> <ConfScore>
-0.0667803 

> <ConfScorePBest>
0.0149955 

> <ConfTolerance>
0.965707 

$$$$
ADP.****
  PyMOL2.5          3D                             0

 39 41  0  0  0  0  0  0  0  0999 V2000
    0.5537    2.8663   -4.5403 P   0  0  0  1  0  0  0  0  0  0  0  0
    1.1683    1.9585   -5.5345 O   0  0  0  1  0  0  0  0  0  0  0  0
   -0.7621    3.4788   -5.2599 O   0  5  0  1  0  0  0  0  0  0  0  0
    1.5185    4.1366   -4.2572 O   0  5  0  1  0  0  0  0  0  0  0  0
    1.0759    1.5254   -1.9123 P   0  0  0  1  0  0  0  0  0  0  0  0
    1.9818    0.4755   -2.4295 O   0  0  0  1  0  0  0  0  0  0  0  0
    1.9158    2.7988   -1.3668 O   0  5  0  1  0  0  0  0  0  0  0  0
    0.2497    2.2487   -3.0783 O   0  0  0  1  0  0  0  0  0  0  0  0
   -0.0011    1.0494   -0.8684 O   0  0  0  1  0  0  0  0  0  0  0  0
   -0.9215   -0.0205   -1.1876 C   0  0  0  1  0  0  0  0  0  0  0  0
   -0.3709   -0.8606   -1.5562 H   0  0  0  1  0  0  0  0  0  0  0  0
   -1.6056    0.3156   -1.9387 H   0  0  0  1  0  0  0  0  0  0  0  0
   -1.6956   -0.4336    0.0407 C   0  0  0  1  0  0  0  0  0  0  0  0
   -2.4100   -1.1852   -0.2234 H   0  0  0  1  0  0  0  0  0  0  0  0
   -0.7978   -0.9341    1.0484 O   0  0  0  1  0  0  0  0  0  0  0  0
   -2.3754    0.7277    0.6248 C   0  0  0  1  0  0  0  0  0  0  0  0
   -1.8655    1.6312    0.3630 H   0  0  0  1  0  0  0  0  0  0  0  0
   -3.7256    0.7953    0.1729 O   0  0  0  1  0  0  0  0  0  0  0  0
   -4.2863    1.1126    0.8846 H   0  0  0  1  0  0  0  0  0  0  0  0
   -2.3276    0.5056    2.1294 C   0  0  0  1  0  0  0  0  0  0  0  0
   -2.3322    1.4327    2.6637 H   0  0  0  1  0  0  0  0  0  0  0  0
   -3.4176   -0.3084    2.5754 O   0  0  0  1  0  0  0  0  0  0  0  0
   -3.0753   -1.1119    2.9738 H   0  0  0  1  0  0  0  0  0  0  0  0
   -0.9886   -0.2199    2.2749 C   0  0  0  1  0  0  0  0  0  0  0  0
   -1.0207   -0.8995    3.1008 H   0  0  0  1  0  0  0  0  0  0  0  0
    0.0938    0.7437    2.4772 N   0  0  0  1  0  0  0  0  0  0  0  0
    0.3543    1.7976    1.6560 C   0  0  0  1  0  0  0  0  0  0  0  0
   -0.2583    2.0455    0.8530 H   0  0  0  1  0  0  0  0  0  0  0  0
    1.4310    2.4734    1.9522 N   0  0  0  1  0  0  0  0  0  0  0  0
    1.9263    1.8212    3.0706 C   0  0  0  1  0  0  0  0  0  0  0  0
    3.0392    2.0029    3.8864 C   0  0  0  1  0  0  0  0  0  0  0  0
    3.9208    3.0159    3.6451 N   0  0  0  1  0  0  0  0  0  0  0  0
    3.8232    3.5696    2.8425 H   0  0  0  1  0  0  0  0  0  0  0  0
    4.6516    3.1898    4.2745 H   0  0  0  1  0  0  0  0  0  0  0  0
    3.2473    1.1768    4.9174 N   0  0  0  1  0  0  0  0  0  0  0  0
    2.3668    0.1832    5.1156 C   0  0  0  1  0  0  0  0  0  0  0  0
    2.5658   -0.4396    5.9244 H   0  0  0  1  0  0  0  0  0  0  0  0
    1.2763   -0.1119    4.4186 N   0  0  0  1  0  0  0  0  0  0  0  0
    1.0999    0.7411    3.4086 C   0  0  0  1  0  0  0  0  0  0  0  0
  1  2  2  0  0  0  0
  1  3  1  0  0  0  0
  1  4  1  0  0  0  0
  1  8  1  0  0  0  0
  5  6  2  0  0  0  0
  5  7  1  0  0  0  0
  5  8  1  0  0  0  0
  5  9  1  0  0  0  0
  9 10  1  0  0  0  0
 10 11  1  0  0  0  0
 10 12  1  0  0  0  0
 10 13  1  0  0  0  0
 13 14  1  0  0  0  0
 13 15  1  0  0  0  0
 13 16  1  0  0  0  0
 15 24  1  0  0  0  0
 16 17  1  0  0  0  0
 16 18  1  0  0  0  0
 16 20  1  0  0  0  0
 18 19  1  0  0  0  0
 20 21  1  0  0  0  0
 20 22  1  0  0  0  0
 20 24  1  0  0  0  0
 22 23  1  0  0  0  0
 24 25  1  0  0  0  0
 24 26  1  0  0  0  0
 26 27  1  0  0  0  0
 26 39  1  0  0  0  0
 27 28  1  0  0  0  0
 27 29  2  0  0  0  0
 29 30  1  0  0  0  0
 30 31  1  0  0  0  0
 30 39  2  0  0  0  0
 31 32  1  0  0  0  0
 31 35  2  0  0  0  0
 32 33  1  0  0  0  0
 32 34  1  0  0  0  0
 35 36  1  0  0  0  0
 36 37  1  0  0  0  0
 36 38  2  0  0  0  0
 38 39  1  0  0  0  0
M  END
> <ConfClashScore>
0 

> <ConfOneFourInteractionScore>
-0.979916 

> <ConfScore>
-0.0623397 

> <ConfScorePBest>
0.0148925 

> <ConfTolerance>
0.898549 

$$$$
ADP.****
  PyMOL2.5          3D                             0

 39 41  0  0  0  0  0  0  0  0999 V2000
   -1.9547    3.6543   -4.3177 P   0  0  0  1  0  0  0  0  0  0  0  0
   -2.0093    2.6200   -5.3748 O   0  0  0  1  0  0  0  0  0  0  0  0
   -3.4182    4.2543   -3.9675 O   0  5  0  1  0  0  0  0  0  0  0  0
   -0.9855    4.8624   -4.7927 O   0  5  0  1  0  0  0  0  0  0  0  0
   -0.0400    2.4426   -2.3773 P   0  0  0  1  0  0  0  0  0  0  0  0
    0.7412    1.5743   -3.2861 O   0  0  0  1  0  0  0  0  0  0  0  0
    0.7780    3.7251   -1.8199 O   0  5  0  1  0  0  0  0  0  0  0  0
   -1.4192    2.9759   -2.9828 O   0  0  0  1  0  0  0  0  0  0  0  0
   -0.5572    1.5972   -1.1551 O   0  0  0  1  0  0  0  0  0  0  0  0
   -1.1807    0.3068   -1.3563 C   0  0  0  1  0  0  0  0  0  0  0  0
   -0.4759   -0.3759   -1.7830 H   0  0  0  1  0  0  0  0  0  0  0  0
   -2.0220    0.4066   -2.0100 H   0  0  0  1  0  0  0  0  0  0  0  0
   -1.6367   -0.2011   -0.0010 C   0  0  0  1  0  0  0  0  0  0  0  0
   -2.1752   -1.1172   -0.1256 H   0  0  0  1  0  0  0  0  0  0  0  0
   -0.5058   -0.3909    0.8782 O   0  0  0  1  0  0  0  0  0  0  0  0
   -2.5145    0.8540    0.7083 C   0  0  0  1  0  0  0  0  0  0  0  0
   -2.2985    1.8360    0.3423 H   0  0  0  1  0  0  0  0  0  0  0  0
   -3.9014    0.5693    0.5196 O   0  0  0  1  0  0  0  0  0  0  0  0
   -4.0045   -0.3358    0.2165 H   0  0  0  1  0  0  0  0  0  0  0  0
   -2.1257    0.7261    2.1999 C   0  0  0  1  0  0  0  0  0  0  0  0
   -1.7206    1.6457    2.5675 H   0  0  0  1  0  0  0  0  0  0  0  0
   -3.2565    0.3539    2.9892 O   0  0  0  1  0  0  0  0  0  0  0  0
   -3.2490   -0.5954    3.1322 H   0  0  0  1  0  0  0  0  0  0  0  0
   -1.0568   -0.3883    2.2127 C   0  0  0  1  0  0  0  0  0  0  0  0
   -1.5027   -1.3347    2.4374 H   0  0  0  1  0  0  0  0  0  0  0  0
   -0.0175   -0.0924    3.1975 N   0  0  0  1  0  0  0  0  0  0  0  0
    1.0338    0.7597    3.0509 C   0  0  0  1  0  0  0  0  0  0  0  0
    1.1923    1.3079    2.1814 H   0  0  0  1  0  0  0  0  0  0  0  0
    1.8281    0.8370    4.0838 N   0  0  0  1  0  0  0  0  0  0  0  0
    1.2540   -0.0299    5.0005 C   0  0  0  1  0  0  0  0  0  0  0  0
    1.5816   -0.4334    6.2915 C   0  0  0  1  0  0  0  0  0  0  0  0
    2.6818    0.0021    7.0222 N   0  0  0  1  0  0  0  0  0  0  0  0
    2.7430   -0.1952    7.9802 H   0  0  0  1  0  0  0  0  0  0  0  0
    3.3958    0.5063    6.5792 H   0  0  0  1  0  0  0  0  0  0  0  0
    0.8031   -1.3149    6.9284 N   0  0  0  1  0  0  0  0  0  0  0  0
   -0.2709   -1.7907    6.2786 C   0  0  0  1  0  0  0  0  0  0  0  0
   -0.8481   -2.4766    6.8058 H   0  0  0  1  0  0  0  0  0  0  0  0
   -0.6955   -1.5041    5.0541 N   0  0  0  1  0  0  0  0  0  0  0  0
    0.1011   -0.6148    4.4595 C   0  0  0  1  0  0  0  0  0  0  0  0
  1  2  2  0  0  0  0
  1  3  1  0  0  0  0
  1  4  1  0  0  0  0
  1  8  1  0  0  0  0
  5  6  2  0  0  0  0
  5  7  1  0  0  0  0
  5  8  1  0  0  0  0
  5  9  1  0  0  0  0
  9 10  1  0  0  0  0
 10 11  1  0  0  0  0
 10 12  1  0  0  0  0
 10 13  1  0  0  0  0
 13 14  1  0  0  0  0
 13 15  1  0  0  0  0
 13 16  1  0  0  0  0
 15 24  1  0  0  0  0
 16 17  1  0  0  0  0
 16 18  1  0  0  0  0
 16 20  1  0  0  0  0
 18 19  1  0  0  0  0
 20 21  1  0  0  0  0
 20 22  1  0  0  0  0
 20 24  1  0  0  0  0
 22 23  1  0  0  0  0
 24 25  1  0  0  0  0
 24 26  1  0  0  0  0
 26 27  1  0  0  0  0
 26 39  1  0  0  0  0
 27 28  1  0  0  0  0
 27 29  2  0  0  0  0
 29 30  1  0  0  0  0
 30 31  1  0  0  0  0
 30 39  2  0  0  0  0
 31 32  1  0  0  0  0
 31 35  2  0  0  0  0
 32 33  1  0  0  0  0
 32 34  1  0  0  0  0
 35 36  1  0  0  0  0
 36 37  1  0  0  0  0
 36 38  2  0  0  0  0
 38 39  1  0  0  0  0
M  END
> <ConfClashScore>
0 

> <ConfOneFourInteractionScore>
-0.982586 

> <ConfScore>
-0.0593074 

> <ConfScorePBest>
0.0147895 

> <ConfTolerance>
0.713722 

$$$$
ADP.****
  PyMOL2.5          3D                             0

 39 41  0  0  0  0  0  0  0  0999 V2000
    0.8275    3.3233   -3.2875 P   0  0  0  1  0  0  0  0  0  0  0  0
    0.9335    1.8778   -3.5867 O   0  0  0  1  0  0  0  0  0  0  0  0
   -0.2779    4.1720   -4.1134 O   0  5  0  1  0  0  0  0  0  0  0  0
    2.2061    4.1049   -3.6238 O   0  5  0  1  0  0  0  0  0  0  0  0
    0.8978    3.0961   -0.3606 P   0  0  0  1  0  0  0  0  0  0  0  0
    2.2366    2.4694   -0.4340 O   0  0  0  1  0  0  0  0  0  0  0  0
    0.8224    4.2138    0.8097 O   0  5  0  1  0  0  0  0  0  0  0  0
    0.4330    3.6900   -1.7739 O   0  0  0  1  0  0  0  0  0  0  0  0
   -0.1332    1.9818    0.0250 O   0  0  0  1  0  0  0  0  0  0  0  0
   -0.5446    0.8902   -0.8316 C   0  0  0  1  0  0  0  0  0  0  0  0
    0.3290    0.3713   -1.1669 H   0  0  0  1  0  0  0  0  0  0  0  0
   -1.0651    1.2949   -1.6743 H   0  0  0  1  0  0  0  0  0  0  0  0
   -1.4524   -0.0953   -0.1315 C   0  0  0  1  0  0  0  0  0  0  0  0
   -1.8365   -0.7954   -0.8438 H   0  0  0  1  0  0  0  0  0  0  0  0
   -0.7217   -0.7934    0.9087 O   0  0  0  1  0  0  0  0  0  0  0  0
   -2.6069    0.6466    0.5530 C   0  0  0  1  0  0  0  0  0  0  0  0
   -2.7467    1.6172    0.1250 H   0  0  0  1  0  0  0  0  0  0  0  0
   -3.8226   -0.0969    0.4561 O   0  0  0  1  0  0  0  0  0  0  0  0
   -4.0010   -0.5302    1.2940 H   0  0  0  1  0  0  0  0  0  0  0  0
   -2.1399    0.7500    2.0108 C   0  0  0  1  0  0  0  0  0  0  0  0
   -1.5717    1.6419    2.1738 H   0  0  0  1  0  0  0  0  0  0  0  0
   -3.2470    0.7184    2.9128 O   0  0  0  1  0  0  0  0  0  0  0  0
   -3.1506   -0.0250    3.5125 H   0  0  0  1  0  0  0  0  0  0  0  0
   -1.2615   -0.5074    2.1599 C   0  0  0  1  0  0  0  0  0  0  0  0
   -1.8564   -1.3303    2.4974 H   0  0  0  1  0  0  0  0  0  0  0  0
   -0.1867   -0.2546    3.1215 N   0  0  0  1  0  0  0  0  0  0  0  0
    1.1527   -0.2733    2.8796 C   0  0  0  1  0  0  0  0  0  0  0  0
    1.5482   -0.4729    1.9387 H   0  0  0  1  0  0  0  0  0  0  0  0
    1.9033   -0.0220    3.9175 N   0  0  0  1  0  0  0  0  0  0  0  0
    0.9877    0.1911    4.9363 C   0  0  0  1  0  0  0  0  0  0  0  0
    1.0958    0.4910    6.2910 C   0  0  0  1  0  0  0  0  0  0  0  0
    2.2983    0.6508    6.9276 N   0  0  0  1  0  0  0  0  0  0  0  0
    3.1335    0.5979    6.4176 H   0  0  0  1  0  0  0  0  0  0  0  0
    2.3234    0.8179    7.8929 H   0  0  0  1  0  0  0  0  0  0  0  0
   -0.0106    0.6351    7.0285 N   0  0  0  1  0  0  0  0  0  0  0  0
   -1.1969    0.4677    6.4229 C   0  0  0  1  0  0  0  0  0  0  0  0
   -2.0326    0.5839    7.0309 H   0  0  0  1  0  0  0  0  0  0  0  0
   -1.4473    0.1738    5.1529 N   0  0  0  1  0  0  0  0  0  0  0  0
   -0.3196    0.0501    4.4516 C   0  0  0  1  0  0  0  0  0  0  0  0
  1  2  2  0  0  0  0
  1  3  1  0  0  0  0
  1  4  1  0  0  0  0
  1  8  1  0  0  0  0
  5  6  2  0  0  0  0
  5  7  1  0  0  0  0
  5  8  1  0  0  0  0
  5  9  1  0  0  0  0
  9 10  1  0  0  0  0
 10 11  1  0  0  0  0
 10 12  1  0  0  0  0
 10 13  1  0  0  0  0
 13 14  1  0  0  0  0
 13 15  1  0  0  0  0
 13 16  1  0  0  0  0
 15 24  1  0  0  0  0
 16 17  1  0  0  0  0
 16 18  1  0  0  0  0
 16 20  1  0  0  0  0
 18 19  1  0  0  0  0
 20 21  1  0  0  0  0
 20 22  1  0  0  0  0
 20 24  1  0  0  0  0
 22 23  1  0  0  0  0
 24 25  1  0  0  0  0
 24 26  1  0  0  0  0
 26 27  1  0  0  0  0
 26 39  1  0  0  0  0
 27 28  1  0  0  0  0
 27 29  2  0  0  0  0
 29 30  1  0  0  0  0
 30 31  1  0  0  0  0
 30 39  2  0  0  0  0
 31 32  1  0  0  0  0
 31 35  2  0  0  0  0
 32 33  1  0  0  0  0
 32 34  1  0  0  0  0
 35 36  1  0  0  0  0
 36 37  1  0  0  0  0
 36 38  2  0  0  0  0
 38 39  1  0  0  0  0
M  END
> <ConfClashScore>
0 

> <ConfOneFourInteractionScore>
-0.989393 

> <ConfScore>
-0.0533009 

> <ConfScorePBest>
0.0146865 

> <ConfTolerance>
0.912092 

$$$$
ADP.****
  PyMOL2.5          3D                             0

 39 41  0  0  0  0  0  0  0  0999 V2000
    0.6638    4.7295   -1.1358 P   0  0  0  1  0  0  0  0  0  0  0  0
   -0.5269    4.6376   -0.2616 O   0  0  0  1  0  0  0  0  0  0  0  0
    1.9509    5.0030   -0.1907 O   0  5  0  1  0  0  0  0  0  0  0  0
    0.6154    5.9018   -2.2528 O   0  5  0  1  0  0  0  0  0  0  0  0
   -0.1019    2.2480   -2.3960 P   0  0  0  1  0  0  0  0  0  0  0  0
   -1.2833    2.9664   -2.9237 O   0  0  0  1  0  0  0  0  0  0  0  0
    0.6234    1.2898   -3.4824 O   0  5  0  1  0  0  0  0  0  0  0  0
    0.9588    3.2923   -1.7919 O   0  0  0  1  0  0  0  0  0  0  0  0
   -0.4870    1.3808   -1.1301 O   0  0  0  1  0  0  0  0  0  0  0  0
   -1.2564    0.1712   -1.3264 C   0  0  0  1  0  0  0  0  0  0  0  0
   -0.6696   -0.5664   -1.8329 H   0  0  0  1  0  0  0  0  0  0  0  0
   -2.1386    0.3782   -1.8954 H   0  0  0  1  0  0  0  0  0  0  0  0
   -1.6228   -0.3071    0.0580 C   0  0  0  1  0  0  0  0  0  0  0  0
   -2.0920   -1.2665   -0.0080 H   0  0  0  1  0  0  0  0  0  0  0  0
   -0.4511   -0.3705    0.9013 O   0  0  0  1  0  0  0  0  0  0  0  0
   -2.5556    0.7080    0.7553 C   0  0  0  1  0  0  0  0  0  0  0  0
   -2.4297    1.6865    0.3409 H   0  0  0  1  0  0  0  0  0  0  0  0
   -3.9217    0.3098    0.6309 O   0  0  0  1  0  0  0  0  0  0  0  0
   -4.2678    0.6112   -0.2124 H   0  0  0  1  0  0  0  0  0  0  0  0
   -2.1072    0.6766    2.2354 C   0  0  0  1  0  0  0  0  0  0  0  0
   -1.7629    1.6400    2.5489 H   0  0  0  1  0  0  0  0  0  0  0  0
   -3.1692    0.2576    3.0745 O   0  0  0  1  0  0  0  0  0  0  0  0
   -3.3302   -0.6797    2.9439 H   0  0  0  1  0  0  0  0  0  0  0  0
   -0.9547   -0.3509    2.2543 C   0  0  0  1  0  0  0  0  0  0  0  0
   -1.3172   -1.3178    2.5348 H   0  0  0  1  0  0  0  0  0  0  0  0
    0.0923    0.0675    3.1870 N   0  0  0  1  0  0  0  0  0  0  0  0
    0.4638    1.3446    3.4765 C   0  0  0  1  0  0  0  0  0  0  0  0
   -0.0410    2.1726    3.1009 H   0  0  0  1  0  0  0  0  0  0  0  0
    1.5015    1.4517    4.2612 N   0  0  0  1  0  0  0  0  0  0  0  0
    1.8465    0.1353    4.5247 C   0  0  0  1  0  0  0  0  0  0  0  0
    2.8501   -0.4739    5.2722 C   0  0  0  1  0  0  0  0  0  0  0  0
    3.8322    0.1874    6.0017 N   0  0  0  1  0  0  0  0  0  0  0  0
    4.5118   -0.3261    6.4862 H   0  0  0  1  0  0  0  0  0  0  0  0
    3.8446    1.1669    6.0312 H   0  0  0  1  0  0  0  0  0  0  0  0
    2.9195   -1.8084    5.3260 N   0  0  0  1  0  0  0  0  0  0  0  0
    2.0115   -2.5143    4.6337 C   0  0  0  1  0  0  0  0  0  0  0  0
    2.1016   -3.5484    4.6977 H   0  0  0  1  0  0  0  0  0  0  0  0
    1.0141   -2.0706    3.8785 N   0  0  0  1  0  0  0  0  0  0  0  0
    0.9738   -0.7376    3.8611 C   0  0  0  1  0  0  0  0  0  0  0  0
  1  2  2  0  0  0  0
  1  3  1  0  0  0  0
  1  4  1  0  0  0  0
  1  8  1  0  0  0  0
  5  6  2  0  0  0  0
  5  7  1  0  0  0  0
  5  8  1  0  0  0  0
  5  9  1  0  0  0  0
  9 10  1  0  0  0  0
 10 11  1  0  0  0  0
 10 12  1  0  0  0  0
 10 13  1  0  0  0  0
 13 14  1  0  0  0  0
 13 15  1  0  0  0  0
 13 16  1  0  0  0  0
 15 24  1  0  0  0  0
 16 17  1  0  0  0  0
 16 18  1  0  0  0  0
 16 20  1  0  0  0  0
 18 19  1  0  0  0  0
 20 21  1  0  0  0  0
 20 22  1  0  0  0  0
 20 24  1  0  0  0  0
 22 23  1  0  0  0  0
 24 25  1  0  0  0  0
 24 26  1  0  0  0  0
 26 27  1  0  0  0  0
 26 39  1  0  0  0  0
 27 28  1  0  0  0  0
 27 29  2  0  0  0  0
 29 30  1  0  0  0  0
 30 31  1  0  0  0  0
 30 39  2  0  0  0  0
 31 32  1  0  0  0  0
 31 35  2  0  0  0  0
 32 33  1  0  0  0  0
 32 34  1  0  0  0  0
 35 36  1  0  0  0  0
 36 37  1  0  0  0  0
 36 38  2  0  0  0  0
 38 39  1  0  0  0  0
M  END
> <ConfClashScore>
0 

> <ConfOneFourInteractionScore>
-0.981127 

> <ConfScore>
-0.0501259 

> <ConfScorePBest>
0.0145835 

> <ConfTolerance>
0.823681 

$$$$
ADP.****
  PyMOL2.5          3D                             0

 39 41  0  0  0  0  0  0  0  0999 V2000
    2.4344   -1.6956   -5.0349 P   0  0  0  1  0  0  0  0  0  0  0  0
    3.4788   -0.6979   -4.7119 O   0  0  0  1  0  0  0  0  0  0  0  0
    3.0964   -3.1680   -4.8999 O   0  5  0  1  0  0  0  0  0  0  0  0
    1.7742   -1.4838   -6.4991 O   0  5  0  1  0  0  0  0  0  0  0  0
    0.4793   -0.2776   -3.3645 P   0  0  0  1  0  0  0  0  0  0  0  0
    1.3417    0.9251   -3.3741 O   0  0  0  1  0  0  0  0  0  0  0  0
   -0.5346   -0.2173   -4.6266 O   0  5  0  1  0  0  0  0  0  0  0  0
    1.3209   -1.5362   -3.8878 O   0  0  0  1  0  0  0  0  0  0  0  0
   -0.2767   -0.6658   -2.0402 O   0  0  0  1  0  0  0  0  0  0  0  0
   -1.1162    0.2943   -1.3566 C   0  0  0  1  0  0  0  0  0  0  0  0
   -1.9960    0.4859   -1.9346 H   0  0  0  1  0  0  0  0  0  0  0  0
   -0.5794    1.2082   -1.2096 H   0  0  0  1  0  0  0  0  0  0  0  0
   -1.4977   -0.2993   -0.0195 C   0  0  0  1  0  0  0  0  0  0  0  0
   -1.8566   -1.2973   -0.1612 H   0  0  0  1  0  0  0  0  0  0  0  0
   -0.3694   -0.2876    0.8832 O   0  0  0  1  0  0  0  0  0  0  0  0
   -2.5682    0.5703    0.6764 C   0  0  0  1  0  0  0  0  0  0  0  0
   -2.5282    1.5787    0.3210 H   0  0  0  1  0  0  0  0  0  0  0  0
   -3.8754    0.0385    0.4558 O   0  0  0  1  0  0  0  0  0  0  0  0
   -4.3715    0.6328   -0.1118 H   0  0  0  1  0  0  0  0  0  0  0  0
   -2.1932    0.5011    2.1755 C   0  0  0  1  0  0  0  0  0  0  0  0
   -1.9711    1.4757    2.5573 H   0  0  0  1  0  0  0  0  0  0  0  0
   -3.2532   -0.0797    2.9380 O   0  0  0  1  0  0  0  0  0  0  0  0
   -3.4075    0.4473    3.7254 H   0  0  0  1  0  0  0  0  0  0  0  0
   -0.9388   -0.3989    2.2053 C   0  0  0  1  0  0  0  0  0  0  0  0
   -1.2083   -1.4130    2.4146 H   0  0  0  1  0  0  0  0  0  0  0  0
    0.0091    0.0730    3.2151 N   0  0  0  1  0  0  0  0  0  0  0  0
    0.7212   -0.6870    4.0916 C   0  0  0  1  0  0  0  0  0  0  0  0
    0.6538   -1.7245    4.1151 H   0  0  0  1  0  0  0  0  0  0  0  0
    1.4949   -0.0155    4.9004 N   0  0  0  1  0  0  0  0  0  0  0  0
    1.2886    1.3034    4.5267 C   0  0  0  1  0  0  0  0  0  0  0  0
    1.7806    2.5266    4.9724 C   0  0  0  1  0  0  0  0  0  0  0  0
    2.6812    2.6409    5.9984 N   0  0  0  1  0  0  0  0  0  0  0  0
    2.9399    1.8485    6.5139 H   0  0  0  1  0  0  0  0  0  0  0  0
    3.0668    3.5149    6.2169 H   0  0  0  1  0  0  0  0  0  0  0  0
    1.3711    3.6582    4.3890 N   0  0  0  1  0  0  0  0  0  0  0  0
    0.4778    3.5645    3.3914 C   0  0  0  1  0  0  0  0  0  0  0  0
    0.1815    4.4665    2.9668 H   0  0  0  1  0  0  0  0  0  0  0  0
   -0.0784    2.4762    2.8738 N   0  0  0  1  0  0  0  0  0  0  0  0
    0.3647    1.3713    3.4752 C   0  0  0  1  0  0  0  0  0  0  0  0
  1  2  2  0  0  0  0
  1  3  1  0  0  0  0
  1  4  1  0  0  0  0
  1  8  1  0  0  0  0
  5  6  2  0  0  0  0
  5  7  1  0  0  0  0
  5  8  1  0  0  0  0
  5  9  1  0  0  0  0
  9 10  1  0  0  0  0
 10 11  1  0  0  0  0
 10 12  1  0  0  0  0
 10 13  1  0  0  0  0
 13 14  1  0  0  0  0
 13 15  1  0  0  0  0
 13 16  1  0  0  0  0
 15 24  1  0  0  0  0
 16 17  1  0  0  0  0
 16 18  1  0  0  0  0
 16 20  1  0  0  0  0
 18 19  1  0  0  0  0
 20 21  1  0  0  0  0
 20 22  1  0  0  0  0
 20 24  1  0  0  0  0
 22 23  1  0  0  0  0
 24 25  1  0  0  0  0
 24 26  1  0  0  0  0
 26 27  1  0  0  0  0
 26 39  1  0  0  0  0
 27 28  1  0  0  0  0
 27 29  2  0  0  0  0
 29 30  1  0  0  0  0
 30 31  1  0  0  0  0
 30 39  2  0  0  0  0
 31 32  1  0  0  0  0
 31 35  2  0  0  0  0
 32 33  1  0  0  0  0
 32 34  1  0  0  0  0
 35 36  1  0  0  0  0
 36 37  1  0  0  0  0
 36 38  2  0  0  0  0
 38 39  1  0  0  0  0
M  END
> <ConfClashScore>
0 

> <ConfOneFourInteractionScore>
-0.970795 

> <ConfScore>
-0.0459092 

> <ConfScorePBest>
0.0144805 

> <ConfTolerance>
0.840519 

$$$$
ADP.****
  PyMOL2.5          3D                             0

 39 41  0  0  0  0  0  0  0  0999 V2000
    1.7712   -3.4692   -3.6250 P   0  0  0  1  0  0  0  0  0  0  0  0
    2.3359   -3.3664   -2.2609 O   0  0  0  1  0  0  0  0  0  0  0  0
    1.6202   -4.9956   -4.1465 O   0  5  0  1  0  0  0  0  0  0  0  0
    2.8854   -2.7246   -4.5353 O   0  5  0  1  0  0  0  0  0  0  0  0
    0.0905   -1.1736   -3.2630 P   0  0  0  1  0  0  0  0  0  0  0  0
    1.3522   -0.4212   -3.0829 O   0  0  0  1  0  0  0  0  0  0  0  0
   -0.8654   -0.4456   -4.3496 O   0  5  0  1  0  0  0  0  0  0  0  0
    0.3771   -2.6700   -3.8110 O   0  0  0  1  0  0  0  0  0  0  0  0
   -0.7214   -1.2937   -1.9204 O   0  0  0  1  0  0  0  0  0  0  0  0
   -1.2835   -0.1210   -1.2860 C   0  0  0  1  0  0  0  0  0  0  0  0
   -2.1328    0.2211   -1.8397 H   0  0  0  1  0  0  0  0  0  0  0  0
   -0.5496    0.6563   -1.2414 H   0  0  0  1  0  0  0  0  0  0  0  0
   -1.7053   -0.5137    0.1158 C   0  0  0  1  0  0  0  0  0  0  0  0
   -2.3188   -1.3892    0.0721 H   0  0  0  1  0  0  0  0  0  0  0  0
   -0.5844   -0.7328    0.9285 O   0  0  0  1  0  0  0  0  0  0  0  0
   -2.4513    0.6395    0.8025 C   0  0  0  1  0  0  0  0  0  0  0  0
   -2.0583    1.5876    0.4999 H   0  0  0  1  0  0  0  0  0  0  0  0
   -3.8500    0.5902    0.5172 O   0  0  0  1  0  0  0  0  0  0  0  0
   -4.1525    1.4599    0.2457 H   0  0  0  1  0  0  0  0  0  0  0  0
   -2.1855    0.3825    2.2625 C   0  0  0  1  0  0  0  0  0  0  0  0
   -2.2227    1.2918    2.8253 H   0  0  0  1  0  0  0  0  0  0  0  0
   -3.1267   -0.5487    2.7984 O   0  0  0  1  0  0  0  0  0  0  0  0
   -3.9658   -0.4551    2.3415 H   0  0  0  1  0  0  0  0  0  0  0  0
   -0.7712   -0.2052    2.2612 C   0  0  0  1  0  0  0  0  0  0  0  0
   -0.6878   -0.9851    2.9890 H   0  0  0  1  0  0  0  0  0  0  0  0
    0.2177    0.8353    2.5449 N   0  0  0  1  0  0  0  0  0  0  0  0
    0.4890    1.9371    1.7931 C   0  0  0  1  0  0  0  0  0  0  0  0
   -0.0153    2.1485    0.9085 H   0  0  0  1  0  0  0  0  0  0  0  0
    1.4299    2.7084    2.2660 N   0  0  0  1  0  0  0  0  0  0  0  0
    1.8130    2.0725    3.4367 C   0  0  0  1  0  0  0  0  0  0  0  0
    2.7615    2.3386    4.4199 C   0  0  0  1  0  0  0  0  0  0  0  0
    3.6659    3.4027    4.3564 N   0  0  0  1  0  0  0  0  0  0  0  0
    4.3465    3.5095    5.0534 H   0  0  0  1  0  0  0  0  0  0  0  0
    3.6193    4.0419    3.6150 H   0  0  0  1  0  0  0  0  0  0  0  0
    2.8943    1.5038    5.4562 N   0  0  0  1  0  0  0  0  0  0  0  0
    2.1035    0.4199    5.4967 C   0  0  0  1  0  0  0  0  0  0  0  0
    2.2401   -0.2063    6.3157 H   0  0  0  1  0  0  0  0  0  0  0  0
    1.1706    0.0393    4.6325 N   0  0  0  1  0  0  0  0  0  0  0  0
    1.0629    0.9035    3.6222 C   0  0  0  1  0  0  0  0  0  0  0  0
  1  2  2  0  0  0  0
  1  3  1  0  0  0  0
  1  4  1  0  0  0  0
  1  8  1  0  0  0  0
  5  6  2  0  0  0  0
  5  7  1  0  0  0  0
  5  8  1  0  0  0  0
  5  9  1  0  0  0  0
  9 10  1  0  0  0  0
 10 11  1  0  0  0  0
 10 12  1  0  0  0  0
 10 13  1  0  0  0  0
 13 14  1  0  0  0  0
 13 15  1  0  0  0  0
 13 16  1  0  0  0  0
 15 24  1  0  0  0  0
 16 17  1  0  0  0  0
 16 18  1  0  0  0  0
 16 20  1  0  0  0  0
 18 19  1  0  0  0  0
 20 21  1  0  0  0  0
 20 22  1  0  0  0  0
 20 24  1  0  0  0  0
 22 23  1  0  0  0  0
 24 25  1  0  0  0  0
 24 26  1  0  0  0  0
 26 27  1  0  0  0  0
 26 39  1  0  0  0  0
 27 28  1  0  0  0  0
 27 29  2  0  0  0  0
 29 30  1  0  0  0  0
 30 31  1  0  0  0  0
 30 39  2  0  0  0  0
 31 32  1  0  0  0  0
 31 35  2  0  0  0  0
 32 33  1  0  0  0  0
 32 34  1  0  0  0  0
 35 36  1  0  0  0  0
 36 37  1  0  0  0  0
 36 38  2  0  0  0  0
 38 39  1  0  0  0  0
M  END
> <ConfClashScore>
0 

> <ConfOneFourInteractionScore>
-0.973465 

> <ConfScore>
-0.0440761 

> <ConfScorePBest>
0.0143775 

> <ConfTolerance>
0.850186 

$$$$
ADP.****
  PyMOL2.5          3D                             0

 39 41  0  0  0  0  0  0  0  0999 V2000
   -0.8765    0.2669   -5.8475 P   0  0  0  1  0  0  0  0  0  0  0  0
   -0.1622    1.4430   -6.3923 O   0  0  0  1  0  0  0  0  0  0  0  0
    0.0793   -1.0411   -5.8419 O   0  5  0  1  0  0  0  0  0  0  0  0
   -2.2476   -0.1365   -6.6101 O   0  5  0  1  0  0  0  0  0  0  0  0
   -2.3737    1.4027   -3.4776 P   0  0  0  1  0  0  0  0  0  0  0  0
   -1.4851    2.5840   -3.4047 O   0  0  0  1  0  0  0  0  0  0  0  0
   -3.8950    1.4161   -4.0344 O   0  5  0  1  0  0  0  0  0  0  0  0
   -1.5004    0.4061   -4.3784 O   0  0  0  1  0  0  0  0  0  0  0  0
   -2.4397    0.6619   -2.0948 O   0  0  0  1  0  0  0  0  0  0  0  0
   -1.2632    0.2975   -1.3353 C   0  0  0  1  0  0  0  0  0  0  0  0
   -0.6357    1.1569   -1.2236 H   0  0  0  1  0  0  0  0  0  0  0  0
   -0.7297   -0.4687   -1.8581 H   0  0  0  1  0  0  0  0  0  0  0  0
   -1.6550   -0.2132    0.0312 C   0  0  0  1  0  0  0  0  0  0  0  0
   -2.1819   -1.1389   -0.0710 H   0  0  0  1  0  0  0  0  0  0  0  0
   -0.4874   -0.3815    0.8657 O   0  0  0  1  0  0  0  0  0  0  0  0
   -2.5228    0.8278    0.7729 C   0  0  0  1  0  0  0  0  0  0  0  0
   -2.3384    1.8127    0.3974 H   0  0  0  1  0  0  0  0  0  0  0  0
   -3.9108    0.5186    0.6390 O   0  0  0  1  0  0  0  0  0  0  0  0
   -4.0130   -0.2703    0.1017 H   0  0  0  1  0  0  0  0  0  0  0  0
   -2.0737    0.7097    2.2484 C   0  0  0  1  0  0  0  0  0  0  0  0
   -1.6707    1.6370    2.5986 H   0  0  0  1  0  0  0  0  0  0  0  0
   -3.1661    0.3194    3.0817 O   0  0  0  1  0  0  0  0  0  0  0  0
   -3.5575   -0.4878    2.7399 H   0  0  0  1  0  0  0  0  0  0  0  0
   -0.9858   -0.3859    2.2208 C   0  0  0  1  0  0  0  0  0  0  0  0
   -1.4059   -1.3394    2.4640 H   0  0  0  1  0  0  0  0  0  0  0  0
    0.0860   -0.0699    3.1637 N   0  0  0  1  0  0  0  0  0  0  0  0
    0.4630   -0.7587    4.2755 C   0  0  0  1  0  0  0  0  0  0  0  0
    0.0726   -1.6927    4.5138 H   0  0  0  1  0  0  0  0  0  0  0  0
    1.3515   -0.1586    5.0201 N   0  0  0  1  0  0  0  0  0  0  0  0
    1.5946    1.0268    4.3438 C   0  0  0  1  0  0  0  0  0  0  0  0
    2.4135    2.1274    4.5782 C   0  0  0  1  0  0  0  0  0  0  0  0
    3.2330    2.2299    5.6713 N   0  0  0  1  0  0  0  0  0  0  0  0
    3.8421    2.9928    5.7572 H   0  0  0  1  0  0  0  0  0  0  0  0
    3.2100    1.5404    6.3673 H   0  0  0  1  0  0  0  0  0  0  0  0
    2.4196    3.1459    3.7114 N   0  0  0  1  0  0  0  0  0  0  0  0
    1.6117    3.0673    2.6423 C   0  0  0  1  0  0  0  0  0  0  0  0
    1.6423    3.8805    1.9947 H   0  0  0  1  0  0  0  0  0  0  0  0
    0.7789    2.0920    2.3001 N   0  0  0  1  0  0  0  0  0  0  0  0
    0.8118    1.0931    3.1833 C   0  0  0  1  0  0  0  0  0  0  0  0
  1  2  2  0  0  0  0
  1  3  1  0  0  0  0
  1  4  1  0  0  0  0
  1  8  1  0  0  0  0
  5  6  2  0  0  0  0
  5  7  1  0  0  0  0
  5  8  1  0  0  0  0
  5  9  1  0  0  0  0
  9 10  1  0  0  0  0
 10 11  1  0  0  0  0
 10 12  1  0  0  0  0
 10 13  1  0  0  0  0
 13 14  1  0  0  0  0
 13 15  1  0  0  0  0
 13 16  1  0  0  0  0
 15 24  1  0  0  0  0
 16 17  1  0  0  0  0
 16 18  1  0  0  0  0
 16 20  1  0  0  0  0
 18 19  1  0  0  0  0
 20 21  1  0  0  0  0
 20 22  1  0  0  0  0
 20 24  1  0  0  0  0
 22 23  1  0  0  0  0
 24 25  1  0  0  0  0
 24 26  1  0  0  0  0
 26 27  1  0  0  0  0
 26 39  1  0  0  0  0
 27 28  1  0  0  0  0
 27 29  2  0  0  0  0
 29 30  1  0  0  0  0
 30 31  1  0  0  0  0
 30 39  2  0  0  0  0
 31 32  1  0  0  0  0
 31 35  2  0  0  0  0
 32 33  1  0  0  0  0
 32 34  1  0  0  0  0
 35 36  1  0  0  0  0
 36 37  1  0  0  0  0
 36 38  2  0  0  0  0
 38 39  1  0  0  0  0
M  END
> <ConfClashScore>
0 

> <ConfOneFourInteractionScore>
-0.973465 

> <ConfScore>
-0.04236 

> <ConfScorePBest>
0.0142745 

> <ConfTolerance>
0.837348 

$$$$
ADP.****
  PyMOL2.5          3D                             0

 39 41  0  0  0  0  0  0  0  0999 V2000
   -0.7668    2.2809   -4.7389 P   0  0  0  1  0  0  0  0  0  0  0  0
   -1.0914    0.8370   -4.7423 O   0  0  0  1  0  0  0  0  0  0  0  0
   -1.8599    3.1223   -5.5883 O   0  5  0  1  0  0  0  0  0  0  0  0
    0.6613    2.5229   -5.4644 O   0  5  0  1  0  0  0  0  0  0  0  0
    0.0772    2.7035   -2.0306 P   0  0  0  1  0  0  0  0  0  0  0  0
    1.4080    2.0997   -2.2646 O   0  0  0  1  0  0  0  0  0  0  0  0
    0.2416    4.1368   -1.2937 O   0  5  0  1  0  0  0  0  0  0  0  0
   -0.8309    3.0603   -3.3228 O   0  0  0  1  0  0  0  0  0  0  0  0
   -0.6872    1.7829   -1.0140 O   0  0  0  1  0  0  0  0  0  0  0  0
   -1.1735    0.4628   -1.3528 C   0  0  0  1  0  0  0  0  0  0  0  0
   -0.4036   -0.1078   -1.8287 H   0  0  0  1  0  0  0  0  0  0  0  0
   -2.0202    0.5325   -2.0033 H   0  0  0  1  0  0  0  0  0  0  0  0
   -1.5681   -0.1753   -0.0401 C   0  0  0  1  0  0  0  0  0  0  0  0
   -2.0103   -1.1316   -0.2265 H   0  0  0  1  0  0  0  0  0  0  0  0
   -0.4201   -0.3058    0.8278 O   0  0  0  1  0  0  0  0  0  0  0  0
   -2.5466    0.7349    0.7350 C   0  0  0  1  0  0  0  0  0  0  0  0
   -2.4338    1.7559    0.4354 H   0  0  0  1  0  0  0  0  0  0  0  0
   -3.8977    0.3226    0.5241 O   0  0  0  1  0  0  0  0  0  0  0  0
   -3.9112   -0.5884    0.2216 H   0  0  0  1  0  0  0  0  0  0  0  0
   -2.1406    0.5493    2.2160 C   0  0  0  1  0  0  0  0  0  0  0  0
   -1.8305    1.4793    2.6448 H   0  0  0  1  0  0  0  0  0  0  0  0
   -3.2241    0.0117    2.9758 O   0  0  0  1  0  0  0  0  0  0  0  0
   -3.7625    0.7291    3.3180 H   0  0  0  1  0  0  0  0  0  0  0  0
   -0.9631   -0.4480    2.1580 C   0  0  0  1  0  0  0  0  0  0  0  0
   -1.3086   -1.4479    2.3184 H   0  0  0  1  0  0  0  0  0  0  0  0
    0.0445   -0.1127    3.1630 N   0  0  0  1  0  0  0  0  0  0  0  0
    1.1236    0.6913    2.9583 C   0  0  0  1  0  0  0  0  0  0  0  0
    1.3555    1.0893    2.0259 H   0  0  0  1  0  0  0  0  0  0  0  0
    1.8454    0.9251    4.0205 N   0  0  0  1  0  0  0  0  0  0  0  0
    1.1879    0.2254    5.0203 C   0  0  0  1  0  0  0  0  0  0  0  0
    1.4147    0.0324    6.3798 C   0  0  0  1  0  0  0  0  0  0  0  0
    2.4758    0.5861    7.0465 N   0  0  0  1  0  0  0  0  0  0  0  0
    3.1157    1.1514    6.5655 H   0  0  0  1  0  0  0  0  0  0  0  0
    2.5949    0.4168    8.0044 H   0  0  0  1  0  0  0  0  0  0  0  0
    0.5726   -0.7244    7.0916 N   0  0  0  1  0  0  0  0  0  0  0  0
   -0.4644   -1.2860    6.4503 C   0  0  0  1  0  0  0  0  0  0  0  0
   -1.0934   -1.8701    7.0375 H   0  0  0  1  0  0  0  0  0  0  0  0
   -0.7954   -1.1963    5.1680 N   0  0  0  1  0  0  0  0  0  0  0  0
    0.0620   -0.4251    4.4979 C   0  0  0  1  0  0  0  0  0  0  0  0
  1  2  2  0  0  0  0
  1  3  1  0  0  0  0
  1  4  1  0  0  0  0
  1  8  1  0  0  0  0
  5  6  2  0  0  0  0
  5  7  1  0  0  0  0
  5  8  1  0  0  0  0
  5  9  1  0  0  0  0
  9 10  1  0  0  0  0
 10 11  1  0  0  0  0
 10 12  1  0  0  0  0
 10 13  1  0  0  0  0
 13 14  1  0  0  0  0
 13 15  1  0  0  0  0
 13 16  1  0  0  0  0
 15 24  1  0  0  0  0
 16 17  1  0  0  0  0
 16 18  1  0  0  0  0
 16 20  1  0  0  0  0
 18 19  1  0  0  0  0
 20 21  1  0  0  0  0
 20 22  1  0  0  0  0
 20 24  1  0  0  0  0
 22 23  1  0  0  0  0
 24 25  1  0  0  0  0
 24 26  1  0  0  0  0
 26 27  1  0  0  0  0
 26 39  1  0  0  0  0
 27 28  1  0  0  0  0
 27 29  2  0  0  0  0
 29 30  1  0  0  0  0
 30 31  1  0  0  0  0
 30 39  2  0  0  0  0
 31 32  1  0  0  0  0
 31 35  2  0  0  0  0
 32 33  1  0  0  0  0
 32 34  1  0  0  0  0
 35 36  1  0  0  0  0
 36 37  1  0  0  0  0
 36 38  2  0  0  0  0
 38 39  1  0  0  0  0
M  END
> <ConfClashScore>
0 

> <ConfOneFourInteractionScore>
-0.986061 

> <ConfScore>
-0.0401021 

> <ConfScorePBest>
0.0141715 

> <ConfTolerance>
0.839428 

$$$$
ADP.****
  PyMOL2.5          3D                             0

 39 41  0  0  0  0  0  0  0  0999 V2000
    3.2661   -0.9786   -3.3075 P   0  0  0  1  0  0  0  0  0  0  0  0
    3.4620   -0.4865   -1.9256 O   0  0  0  1  0  0  0  0  0  0  0  0
    3.7411   -2.5171   -3.4862 O   0  5  0  1  0  0  0  0  0  0  0  0
    4.0967   -0.0437   -4.3373 O   0  5  0  1  0  0  0  0  0  0  0  0
    0.4721    0.0061   -3.2396 P   0  0  0  1  0  0  0  0  0  0  0  0
    0.9980    1.3883   -3.1803 O   0  0  0  1  0  0  0  0  0  0  0  0
   -0.5315   -0.1269   -4.5043 O   0  5  0  1  0  0  0  0  0  0  0  0
    1.7004   -0.9515   -3.6329 O   0  0  0  1  0  0  0  0  0  0  0  0
   -0.2547   -0.4635   -1.9254 O   0  0  0  1  0  0  0  0  0  0  0  0
   -1.3009    0.3423   -1.3259 C   0  0  0  1  0  0  0  0  0  0  0  0
   -2.1768    0.3177   -1.9399 H   0  0  0  1  0  0  0  0  0  0  0  0
   -0.9669    1.3533   -1.2204 H   0  0  0  1  0  0  0  0  0  0  0  0
   -1.6087   -0.2427    0.0338 C   0  0  0  1  0  0  0  0  0  0  0  0
   -2.0428   -1.2135   -0.0850 H   0  0  0  1  0  0  0  0  0  0  0  0
   -0.4112   -0.3158    0.8394 O   0  0  0  1  0  0  0  0  0  0  0  0
   -2.5586    0.6853    0.8232 C   0  0  0  1  0  0  0  0  0  0  0  0
   -2.4820    1.6936    0.4733 H   0  0  0  1  0  0  0  0  0  0  0  0
   -3.9116    0.2423    0.7082 O   0  0  0  1  0  0  0  0  0  0  0  0
   -4.0818   -0.0369   -0.1944 H   0  0  0  1  0  0  0  0  0  0  0  0
   -2.0662    0.5726    2.2852 C   0  0  0  1  0  0  0  0  0  0  0  0
   -1.7498    1.5257    2.6544 H   0  0  0  1  0  0  0  0  0  0  0  0
   -3.0948    0.0521    3.1285 O   0  0  0  1  0  0  0  0  0  0  0  0
   -3.9503    0.3537    2.8140 H   0  0  0  1  0  0  0  0  0  0  0  0
   -0.8755   -0.4072    2.2035 C   0  0  0  1  0  0  0  0  0  0  0  0
   -1.1928   -1.4043    2.4269 H   0  0  0  1  0  0  0  0  0  0  0  0
    0.1808   -0.0112    3.1335 N   0  0  0  1  0  0  0  0  0  0  0  0
    0.9543   -0.8290    3.8989 C   0  0  0  1  0  0  0  0  0  0  0  0
    0.8102   -1.8582    3.9392 H   0  0  0  1  0  0  0  0  0  0  0  0
    1.8904   -0.2242    4.5784 N   0  0  0  1  0  0  0  0  0  0  0  0
    1.7344    1.1086    4.2306 C   0  0  0  1  0  0  0  0  0  0  0  0
    2.3816    2.2873    4.5895 C   0  0  0  1  0  0  0  0  0  0  0  0
    3.3925    2.3524    5.5423 N   0  0  0  1  0  0  0  0  0  0  0  0
    3.6748    1.5408    6.0134 H   0  0  0  1  0  0  0  0  0  0  0  0
    3.8225    3.2099    5.7427 H   0  0  0  1  0  0  0  0  0  0  0  0
    1.9793    3.4504    4.0661 N   0  0  0  1  0  0  0  0  0  0  0  0
    0.9423    3.4320    3.2140 C   0  0  0  1  0  0  0  0  0  0  0  0
    0.6573    4.3565    2.8323 H   0  0  0  1  0  0  0  0  0  0  0  0
    0.2314    2.3931    2.7927 N   0  0  0  1  0  0  0  0  0  0  0  0
    0.6717    1.2539    3.3287 C   0  0  0  1  0  0  0  0  0  0  0  0
  1  2  2  0  0  0  0
  1  3  1  0  0  0  0
  1  4  1  0  0  0  0
  1  8  1  0  0  0  0
  5  6  2  0  0  0  0
  5  7  1  0  0  0  0
  5  8  1  0  0  0  0
  5  9  1  0  0  0  0
  9 10  1  0  0  0  0
 10 11  1  0  0  0  0
 10 12  1  0  0  0  0
 10 13  1  0  0  0  0
 13 14  1  0  0  0  0
 13 15  1  0  0  0  0
 13 16  1  0  0  0  0
 15 24  1  0  0  0  0
 16 17  1  0  0  0  0
 16 18  1  0  0  0  0
 16 20  1  0  0  0  0
 18 19  1  0  0  0  0
 20 21  1  0  0  0  0
 20 22  1  0  0  0  0
 20 24  1  0  0  0  0
 22 23  1  0  0  0  0
 24 25  1  0  0  0  0
 24 26  1  0  0  0  0
 26 27  1  0  0  0  0
 26 39  1  0  0  0  0
 27 28  1  0  0  0  0
 27 29  2  0  0  0  0
 29 30  1  0  0  0  0
 30 31  1  0  0  0  0
 30 39  2  0  0  0  0
 31 32  1  0  0  0  0
 31 35  2  0  0  0  0
 32 33  1  0  0  0  0
 32 34  1  0  0  0  0
 35 36  1  0  0  0  0
 36 37  1  0  0  0  0
 36 38  2  0  0  0  0
 38 39  1  0  0  0  0
M  END
> <ConfClashScore>
0 

> <ConfOneFourInteractionScore>
-0.980206 

> <ConfScore>
-0.035546 

> <ConfScorePBest>
0.0140685 

> <ConfTolerance>
0.899337 

$$$$
ADP.****
  PyMOL2.5          3D                             0

 39 41  0  0  0  0  0  0  0  0999 V2000
    1.7208    4.8682    1.8999 P   0  0  0  1  0  0  0  0  0  0  0  0
    0.3318    5.3711    1.9914 O   0  0  0  1  0  0  0  0  0  0  0  0
    2.2561    4.5368    3.3925 O   0  5  0  1  0  0  0  0  0  0  0  0
    2.6376    6.0498    1.2772 O   0  5  0  1  0  0  0  0  0  0  0  0
    1.1039    2.9117   -0.2384 P   0  0  0  1  0  0  0  0  0  0  0  0
    0.5231    3.8963   -1.1784 O   0  0  0  1  0  0  0  0  0  0  0  0
    2.1883    1.9418   -0.9509 O   0  5  0  1  0  0  0  0  0  0  0  0
    1.8544    3.5244    1.0429 O   0  0  0  1  0  0  0  0  0  0  0  0
    0.0378    1.8305    0.1747 O   0  0  0  1  0  0  0  0  0  0  0  0
   -0.5398    0.9434   -0.8118 C   0  0  0  1  0  0  0  0  0  0  0  0
    0.2456    0.4366   -1.3327 H   0  0  0  1  0  0  0  0  0  0  0  0
   -1.1169    1.5172   -1.5066 H   0  0  0  1  0  0  0  0  0  0  0  0
   -1.4374   -0.0807   -0.1424 C   0  0  0  1  0  0  0  0  0  0  0  0
   -1.7928   -0.7763   -0.8735 H   0  0  0  1  0  0  0  0  0  0  0  0
   -0.7064   -0.7802    0.8965 O   0  0  0  1  0  0  0  0  0  0  0  0
   -2.6205    0.6200    0.5368 C   0  0  0  1  0  0  0  0  0  0  0  0
   -2.7773    1.5948    0.1245 H   0  0  0  1  0  0  0  0  0  0  0  0
   -3.8159   -0.1508    0.4064 O   0  0  0  1  0  0  0  0  0  0  0  0
   -3.9868   -0.6184    1.2272 H   0  0  0  1  0  0  0  0  0  0  0  0
   -2.1793    0.7074    2.0036 C   0  0  0  1  0  0  0  0  0  0  0  0
   -1.6358    1.6095    2.1922 H   0  0  0  1  0  0  0  0  0  0  0  0
   -3.2994    0.6320    2.8867 O   0  0  0  1  0  0  0  0  0  0  0  0
   -3.0106    0.3101    3.7438 H   0  0  0  1  0  0  0  0  0  0  0  0
   -1.2728   -0.5309    2.1439 C   0  0  0  1  0  0  0  0  0  0  0  0
   -1.8525   -1.3742    2.4564 H   0  0  0  1  0  0  0  0  0  0  0  0
   -0.2187   -0.2699    3.1283 N   0  0  0  1  0  0  0  0  0  0  0  0
   -0.2128   -0.3743    4.4855 C   0  0  0  1  0  0  0  0  0  0  0  0
   -1.0433   -0.6907    5.0256 H   0  0  0  1  0  0  0  0  0  0  0  0
    0.9137   -0.0472    5.0580 N   0  0  0  1  0  0  0  0  0  0  0  0
    1.7316    0.2961    3.9927 C   0  0  0  1  0  0  0  0  0  0  0  0
    3.0448    0.7437    3.8825 C   0  0  0  1  0  0  0  0  0  0  0  0
    3.9180    0.9633    4.9423 N   0  0  0  1  0  0  0  0  0  0  0  0
    4.8186    1.3096    4.7714 H   0  0  0  1  0  0  0  0  0  0  0  0
    3.6326    0.7717    5.8600 H   0  0  0  1  0  0  0  0  0  0  0  0
    3.5589    0.9991    2.6746 N   0  0  0  1  0  0  0  0  0  0  0  0
    2.7685    0.8232    1.6040 C   0  0  0  1  0  0  0  0  0  0  0  0
    3.2036    1.0363    0.6837 H   0  0  0  1  0  0  0  0  0  0  0  0
    1.5065    0.4139    1.5613 N   0  0  0  1  0  0  0  0  0  0  0  0
    1.0367    0.1599    2.7835 C   0  0  0  1  0  0  0  0  0  0  0  0
  1  2  2  0  0  0  0
  1  3  1  0  0  0  0
  1  4  1  0  0  0  0
  1  8  1  0  0  0  0
  5  6  2  0  0  0  0
  5  7  1  0  0  0  0
  5  8  1  0  0  0  0
  5  9  1  0  0  0  0
  9 10  1  0  0  0  0
 10 11  1  0  0  0  0
 10 12  1  0  0  0  0
 10 13  1  0  0  0  0
 13 14  1  0  0  0  0
 13 15  1  0  0  0  0
 13 16  1  0  0  0  0
 15 24  1  0  0  0  0
 16 17  1  0  0  0  0
 16 18  1  0  0  0  0
 16 20  1  0  0  0  0
 18 19  1  0  0  0  0
 20 21  1  0  0  0  0
 20 22  1  0  0  0  0
 20 24  1  0  0  0  0
 22 23  1  0  0  0  0
 24 25  1  0  0  0  0
 24 26  1  0  0  0  0
 26 27  1  0  0  0  0
 26 39  1  0  0  0  0
 27 28  1  0  0  0  0
 27 29  2  0  0  0  0
 29 30  1  0  0  0  0
 30 31  1  0  0  0  0
 30 39  2  0  0  0  0
 31 32  1  0  0  0  0
 31 35  2  0  0  0  0
 32 33  1  0  0  0  0
 32 34  1  0  0  0  0
 35 36  1  0  0  0  0
 36 37  1  0  0  0  0
 36 38  2  0  0  0  0
 38 39  1  0  0  0  0
M  END
> <ConfClashScore>
0 

> <ConfOneFourInteractionScore>
-0.990172 

> <ConfScore>
-0.035516 

> <ConfScorePBest>
0.0139655 

> <ConfTolerance>
1.06614 

$$$$
ADP.****
  PyMOL2.5          3D                             0

 39 41  0  0  0  0  0  0  0  0999 V2000
    1.2068    5.0178   -2.0311 P   0  0  0  1  0  0  0  0  0  0  0  0
    2.3596    4.9081   -1.1094 O   0  0  0  1  0  0  0  0  0  0  0  0
    1.6665    4.9193   -3.5814 O   0  5  0  1  0  0  0  0  0  0  0  0
    0.4488    6.4465   -1.9378 O   0  5  0  1  0  0  0  0  0  0  0  0
   -0.1165    2.3252   -2.4134 P   0  0  0  1  0  0  0  0  0  0  0  0
   -0.9584    2.2450   -3.6279 O   0  0  0  1  0  0  0  0  0  0  0  0
    1.3369    1.6433   -2.6304 O   0  5  0  1  0  0  0  0  0  0  0  0
    0.1730    3.8045   -1.8704 O   0  0  0  1  0  0  0  0  0  0  0  0
   -0.7970    1.5784   -1.2070 O   0  0  0  1  0  0  0  0  0  0  0  0
   -1.2376    0.2054   -1.3373 C   0  0  0  1  0  0  0  0  0  0  0  0
   -0.4424   -0.3974   -1.7237 H   0  0  0  1  0  0  0  0  0  0  0  0
   -2.0782    0.1535   -1.9973 H   0  0  0  1  0  0  0  0  0  0  0  0
   -1.6328   -0.2836    0.0408 C   0  0  0  1  0  0  0  0  0  0  0  0
   -2.1153   -1.2350   -0.0426 H   0  0  0  1  0  0  0  0  0  0  0  0
   -0.4748   -0.3738    0.9003 O   0  0  0  1  0  0  0  0  0  0  0  0
   -2.5605    0.7380    0.7354 C   0  0  0  1  0  0  0  0  0  0  0  0
   -2.4137    1.7188    0.3336 H   0  0  0  1  0  0  0  0  0  0  0  0
   -3.9304    0.3619    0.5866 O   0  0  0  1  0  0  0  0  0  0  0  0
   -4.1825    0.4287   -0.3373 H   0  0  0  1  0  0  0  0  0  0  0  0
   -2.1345    0.6839    2.2214 C   0  0  0  1  0  0  0  0  0  0  0  0
   -1.7805    1.6385    2.5505 H   0  0  0  1  0  0  0  0  0  0  0  0
   -3.2237    0.2688    3.0469 O   0  0  0  1  0  0  0  0  0  0  0  0
   -3.1241   -0.6606    3.2654 H   0  0  0  1  0  0  0  0  0  0  0  0
   -0.9979   -0.3611    2.2460 C   0  0  0  1  0  0  0  0  0  0  0  0
   -1.3791   -1.3253    2.5105 H   0  0  0  1  0  0  0  0  0  0  0  0
    0.0413    0.0313    3.1983 N   0  0  0  1  0  0  0  0  0  0  0  0
    0.5659   -0.7266    4.1999 C   0  0  0  1  0  0  0  0  0  0  0  0
    0.2612   -1.7047    4.3791 H   0  0  0  1  0  0  0  0  0  0  0  0
    1.4800   -0.1335    4.9184 N   0  0  0  1  0  0  0  0  0  0  0  0
    1.5805    1.1235    4.3425 C   0  0  0  1  0  0  0  0  0  0  0  0
    2.3449    2.2553    4.6104 C   0  0  0  1  0  0  0  0  0  0  0  0
    3.2558    2.3174    5.6318 N   0  0  0  1  0  0  0  0  0  0  0  0
    3.3186    1.5830    6.2777 H   0  0  0  1  0  0  0  0  0  0  0  0
    3.8446    3.0962    5.7166 H   0  0  0  1  0  0  0  0  0  0  0  0
    2.2028    3.3464    3.8503 N   0  0  0  1  0  0  0  0  0  0  0  0
    1.3040    3.3068    2.8540 C   0  0  0  1  0  0  0  0  0  0  0  0
    1.2204    4.1759    2.2889 H   0  0  0  1  0  0  0  0  0  0  0  0
    0.5077    2.3082    2.4927 N   0  0  0  1  0  0  0  0  0  0  0  0
    0.6888    1.2379    3.2676 C   0  0  0  1  0  0  0  0  0  0  0  0
  1  2  2  0  0  0  0
  1  3  1  0  0  0  0
  1  4  1  0  0  0  0
  1  8  1  0  0  0  0
  5  6  2  0  0  0  0
  5  7  1  0  0  0  0
  5  8  1  0  0  0  0
  5  9  1  0  0  0  0
  9 10  1  0  0  0  0
 10 11  1  0  0  0  0
 10 12  1  0  0  0  0
 10 13  1  0  0  0  0
 13 14  1  0  0  0  0
 13 15  1  0  0  0  0
 13 16  1  0  0  0  0
 15 24  1  0  0  0  0
 16 17  1  0  0  0  0
 16 18  1  0  0  0  0
 16 20  1  0  0  0  0
 18 19  1  0  0  0  0
 20 21  1  0  0  0  0
 20 22  1  0  0  0  0
 20 24  1  0  0  0  0
 22 23  1  0  0  0  0
 24 25  1  0  0  0  0
 24 26  1  0  0  0  0
 26 27  1  0  0  0  0
 26 39  1  0  0  0  0
 27 28  1  0  0  0  0
 27 29  2  0  0  0  0
 29 30  1  0  0  0  0
 30 31  1  0  0  0  0
 30 39  2  0  0  0  0
 31 32  1  0  0  0  0
 31 35  2  0  0  0  0
 32 33  1  0  0  0  0
 32 34  1  0  0  0  0
 35 36  1  0  0  0  0
 36 37  1  0  0  0  0
 36 38  2  0  0  0  0
 38 39  1  0  0  0  0
M  END
> <ConfClashScore>
0 

> <ConfOneFourInteractionScore>
-0.983391 

> <ConfScore>
-0.0336411 

> <ConfScorePBest>
0.0138625 

> <ConfTolerance>
0.719275 

$$$$
ADP.****
  PyMOL2.5          3D                             0

 39 41  0  0  0  0  0  0  0  0999 V2000
    2.5499    4.6075    1.6836 P   0  0  0  1  0  0  0  0  0  0  0  0
    3.1741    5.3673    0.5774 O   0  0  0  1  0  0  0  0  0  0  0  0
    2.0277    5.7216    2.7374 O   0  5  0  1  0  0  0  0  0  0  0  0
    3.5330    3.5631    2.4366 O   0  5  0  1  0  0  0  0  0  0  0  0
    1.0993    2.8461   -0.1649 P   0  0  0  1  0  0  0  0  0  0  0  0
    0.6797    3.8287   -1.1890 O   0  0  0  1  0  0  0  0  0  0  0  0
    2.5376    2.2075   -0.5497 O   0  5  0  1  0  0  0  0  0  0  0  0
    1.3162    3.7224    1.1585 O   0  0  0  1  0  0  0  0  0  0  0  0
   -0.0072    1.7803    0.1594 O   0  0  0  1  0  0  0  0  0  0  0  0
   -0.5675    0.8890   -0.8393 C   0  0  0  1  0  0  0  0  0  0  0  0
    0.2177    0.3557   -1.3333 H   0  0  0  1  0  0  0  0  0  0  0  0
   -1.1245    1.4520   -1.5587 H   0  0  0  1  0  0  0  0  0  0  0  0
   -1.4813   -0.0831   -0.1264 C   0  0  0  1  0  0  0  0  0  0  0  0
   -1.8895   -0.7741   -0.8340 H   0  0  0  1  0  0  0  0  0  0  0  0
   -0.7457   -0.7971    0.8994 O   0  0  0  1  0  0  0  0  0  0  0  0
   -2.6109    0.6769    0.5795 C   0  0  0  1  0  0  0  0  0  0  0  0
   -2.7406    1.6512    0.1566 H   0  0  0  1  0  0  0  0  0  0  0  0
   -3.8410   -0.0447    0.5010 O   0  0  0  1  0  0  0  0  0  0  0  0
   -3.8957   -0.6652    1.2314 H   0  0  0  1  0  0  0  0  0  0  0  0
   -2.1178    0.7676    2.0295 C   0  0  0  1  0  0  0  0  0  0  0  0
   -1.5312    1.6488    2.1854 H   0  0  0  1  0  0  0  0  0  0  0  0
   -3.2106    0.7528    2.9505 O   0  0  0  1  0  0  0  0  0  0  0  0
   -3.2261   -0.0867    3.4159 H   0  0  0  1  0  0  0  0  0  0  0  0
   -1.2593   -0.5056    2.1603 C   0  0  0  1  0  0  0  0  0  0  0  0
   -1.8630   -1.3188    2.5055 H   0  0  0  1  0  0  0  0  0  0  0  0
   -0.1658   -0.2750    3.1031 N   0  0  0  1  0  0  0  0  0  0  0  0
    1.0964    0.1421    2.8104 C   0  0  0  1  0  0  0  0  0  0  0  0
    1.4055    0.3502    1.8394 H   0  0  0  1  0  0  0  0  0  0  0  0
    1.8896    0.2612    3.8402 N   0  0  0  1  0  0  0  0  0  0  0  0
    1.0868   -0.0983    4.9116 C   0  0  0  1  0  0  0  0  0  0  0  0
    1.2905   -0.2037    6.2843 C   0  0  0  1  0  0  0  0  0  0  0  0
    2.4897    0.0746    6.8855 N   0  0  0  1  0  0  0  0  0  0  0  0
    2.5631    0.0595    7.8626 H   0  0  0  1  0  0  0  0  0  0  0  0
    3.2740    0.2888    6.3385 H   0  0  0  1  0  0  0  0  0  0  0  0
    0.2852   -0.5928    7.0758 N   0  0  0  1  0  0  0  0  0  0  0  0
   -0.8925   -0.8831    6.5007 C   0  0  0  1  0  0  0  0  0  0  0  0
   -1.6473   -1.1857    7.1491 H   0  0  0  1  0  0  0  0  0  0  0  0
   -1.2238   -0.8362    5.2162 N   0  0  0  1  0  0  0  0  0  0  0  0
   -0.1983   -0.4336    4.4645 C   0  0  0  1  0  0  0  0  0  0  0  0
  1  2  2  0  0  0  0
  1  3  1  0  0  0  0
  1  4  1  0  0  0  0
  1  8  1  0  0  0  0
  5  6  2  0  0  0  0
  5  7  1  0  0  0  0
  5  8  1  0  0  0  0
  5  9  1  0  0  0  0
  9 10  1  0  0  0  0
 10 11  1  0  0  0  0
 10 12  1  0  0  0  0
 10 13  1  0  0  0  0
 13 14  1  0  0  0  0
 13 15  1  0  0  0  0
 13 16  1  0  0  0  0
 15 24  1  0  0  0  0
 16 17  1  0  0  0  0
 16 18  1  0  0  0  0
 16 20  1  0  0  0  0
 18 19  1  0  0  0  0
 20 21  1  0  0  0  0
 20 22  1  0  0  0  0
 20 24  1  0  0  0  0
 22 23  1  0  0  0  0
 24 25  1  0  0  0  0
 24 26  1  0  0  0  0
 26 27  1  0  0  0  0
 26 39  1  0  0  0  0
 27 28  1  0  0  0  0
 27 29  2  0  0  0  0
 29 30  1  0  0  0  0
 30 31  1  0  0  0  0
 30 39  2  0  0  0  0
 31 32  1  0  0  0  0
 31 35  2  0  0  0  0
 32 33  1  0  0  0  0
 32 34  1  0  0  0  0
 35 36  1  0  0  0  0
 36 37  1  0  0  0  0
 36 38  2  0  0  0  0
 38 39  1  0  0  0  0
M  END
> <ConfClashScore>
0 

> <ConfOneFourInteractionScore>
-0.983365 

> <ConfScore>
-0.0330826 

> <ConfScorePBest>
0.0137595 

> <ConfTolerance>
0.814058 

$$$$
ADP.****
  PyMOL2.5          3D                             0

 39 41  0  0  0  0  0  0  0  0999 V2000
    1.5683    1.7383   -4.7012 P   0  0  0  1  0  0  0  0  0  0  0  0
    1.1688    2.9871   -5.3877 O   0  0  0  1  0  0  0  0  0  0  0  0
    3.1281    1.3276   -4.8526 O   0  5  0  1  0  0  0  0  0  0  0  0
    0.6359    0.5359   -5.2573 O   0  5  0  1  0  0  0  0  0  0  0  0
   -0.0803    2.5405   -2.4350 P   0  0  0  1  0  0  0  0  0  0  0  0
    0.1447    3.9480   -2.0369 O   0  0  0  1  0  0  0  0  0  0  0  0
   -1.3554    2.6370   -3.4295 O   0  5  0  1  0  0  0  0  0  0  0  0
    1.1187    1.7540   -3.1621 O   0  0  0  1  0  0  0  0  0  0  0  0
   -0.6142    1.7425   -1.1775 O   0  0  0  1  0  0  0  0  0  0  0  0
   -1.0997    0.3928   -1.3680 C   0  0  0  1  0  0  0  0  0  0  0  0
   -0.3226   -0.2038   -1.7983 H   0  0  0  1  0  0  0  0  0  0  0  0
   -1.9424    0.4112   -2.0271 H   0  0  0  1  0  0  0  0  0  0  0  0
   -1.5150   -0.2096   -0.0465 C   0  0  0  1  0  0  0  0  0  0  0  0
   -1.9558   -1.1699   -0.2146 H   0  0  0  1  0  0  0  0  0  0  0  0
   -0.3808   -0.3186    0.8421 O   0  0  0  1  0  0  0  0  0  0  0  0
   -2.5039    0.7219    0.6892 C   0  0  0  1  0  0  0  0  0  0  0  0
   -2.3849    1.7345    0.3647 H   0  0  0  1  0  0  0  0  0  0  0  0
   -3.8389    0.3099    0.4706 O   0  0  0  1  0  0  0  0  0  0  0  0
   -4.0897   -0.3320    1.1389 H   0  0  0  1  0  0  0  0  0  0  0  0
   -2.1211    0.5747    2.1807 C   0  0  0  1  0  0  0  0  0  0  0  0
   -1.8162    1.5153    2.5896 H   0  0  0  1  0  0  0  0  0  0  0  0
   -3.2170    0.0586    2.9375 O   0  0  0  1  0  0  0  0  0  0  0  0
   -4.0328    0.4684    2.6405 H   0  0  0  1  0  0  0  0  0  0  0  0
   -0.9444   -0.4251    2.1671 C   0  0  0  1  0  0  0  0  0  0  0  0
   -1.2940   -1.4200    2.3483 H   0  0  0  1  0  0  0  0  0  0  0  0
    0.0482   -0.0648    3.1785 N   0  0  0  1  0  0  0  0  0  0  0  0
    0.7360   -0.8644    4.0389 C   0  0  0  1  0  0  0  0  0  0  0  0
    0.5610   -1.8868    4.1132 H   0  0  0  1  0  0  0  0  0  0  0  0
    1.6318   -0.2512    4.7638 N   0  0  0  1  0  0  0  0  0  0  0  0
    1.5404    1.0674    4.3459 C   0  0  0  1  0  0  0  0  0  0  0  0
    2.1894    2.2456    4.7029 C   0  0  0  1  0  0  0  0  0  0  0  0
    3.2376    2.2831    5.6078 N   0  0  0  1  0  0  0  0  0  0  0  0
    3.6552    3.1390    5.8387 H   0  0  0  1  0  0  0  0  0  0  0  0
    3.5616    1.4536    6.0169 H   0  0  0  1  0  0  0  0  0  0  0  0
    1.8618    3.3925    4.0979 N   0  0  0  1  0  0  0  0  0  0  0  0
    0.8952    3.3593    3.1669 C   0  0  0  1  0  0  0  0  0  0  0  0
    0.6668    4.2716    2.7230 H   0  0  0  1  0  0  0  0  0  0  0  0
    0.1916    2.3193    2.7365 N   0  0  0  1  0  0  0  0  0  0  0  0
    0.5567    1.1960    3.3561 C   0  0  0  1  0  0  0  0  0  0  0  0
  1  2  2  0  0  0  0
  1  3  1  0  0  0  0
  1  4  1  0  0  0  0
  1  8  1  0  0  0  0
  5  6  2  0  0  0  0
  5  7  1  0  0  0  0
  5  8  1  0  0  0  0
  5  9  1  0  0  0  0
  9 10  1  0  0  0  0
 10 11  1  0  0  0  0
 10 12  1  0  0  0  0
 10 13  1  0  0  0  0
 13 14  1  0  0  0  0
 13 15  1  0  0  0  0
 13 16  1  0  0  0  0
 15 24  1  0  0  0  0
 16 17  1  0  0  0  0
 16 18  1  0  0  0  0
 16 20  1  0  0  0  0
 18 19  1  0  0  0  0
 20 21  1  0  0  0  0
 20 22  1  0  0  0  0
 20 24  1  0  0  0  0
 22 23  1  0  0  0  0
 24 25  1  0  0  0  0
 24 26  1  0  0  0  0
 26 27  1  0  0  0  0
 26 39  1  0  0  0  0
 27 28  1  0  0  0  0
 27 29  2  0  0  0  0
 29 30  1  0  0  0  0
 30 31  1  0  0  0  0
 30 39  2  0  0  0  0
 31 32  1  0  0  0  0
 31 35  2  0  0  0  0
 32 33  1  0  0  0  0
 32 34  1  0  0  0  0
 35 36  1  0  0  0  0
 36 37  1  0  0  0  0
 36 38  2  0  0  0  0
 38 39  1  0  0  0  0
M  END
> <ConfClashScore>
0 

> <ConfOneFourInteractionScore>
-0.979916 

> <ConfScore>
-0.0317131 

> <ConfScorePBest>
0.0136565 

> <ConfTolerance>
0.896093 

$$$$
ADP.****
  PyMOL2.5          3D                             0

 39 41  0  0  0  0  0  0  0  0999 V2000
    1.7167    1.7276   -4.6741 P   0  0  0  1  0  0  0  0  0  0  0  0
    0.9898    2.0039   -5.9333 O   0  0  0  1  0  0  0  0  0  0  0  0
    2.1629    3.1576   -4.0574 O   0  5  0  1  0  0  0  0  0  0  0  0
    3.1341    1.0506   -5.0703 O   0  5  0  1  0  0  0  0  0  0  0  0
    0.3853   -0.5954   -3.4045 P   0  0  0  1  0  0  0  0  0  0  0  0
   -0.6517   -0.8020   -4.4400 O   0  0  0  1  0  0  0  0  0  0  0  0
    1.7655   -1.4228   -3.5917 O   0  5  0  1  0  0  0  0  0  0  0  0
    1.0306    0.8718   -3.5100 O   0  0  0  1  0  0  0  0  0  0  0  0
   -0.2262   -0.7937   -1.9720 O   0  0  0  1  0  0  0  0  0  0  0  0
   -1.1434    0.1505   -1.3635 C   0  0  0  1  0  0  0  0  0  0  0  0
   -2.0119    0.2461   -1.9812 H   0  0  0  1  0  0  0  0  0  0  0  0
   -0.6619    1.1019   -1.2745 H   0  0  0  1  0  0  0  0  0  0  0  0
   -1.5648   -0.3339    0.0281 C   0  0  0  1  0  0  0  0  0  0  0  0
   -2.0068   -1.3052   -0.0505 H   0  0  0  1  0  0  0  0  0  0  0  0
   -0.4302   -0.3619    0.9225 O   0  0  0  1  0  0  0  0  0  0  0  0
   -2.5522    0.6625    0.6753 C   0  0  0  1  0  0  0  0  0  0  0  0
   -2.4323    1.6408    0.2588 H   0  0  0  1  0  0  0  0  0  0  0  0
   -3.9012    0.2293    0.4944 O   0  0  0  1  0  0  0  0  0  0  0  0
   -4.3921    0.9012    0.0156 H   0  0  0  1  0  0  0  0  0  0  0  0
   -2.1688    0.6530    2.1739 C   0  0  0  1  0  0  0  0  0  0  0  0
   -1.8626    1.6269    2.4942 H   0  0  0  1  0  0  0  0  0  0  0  0
   -3.2649    0.2101    2.9755 O   0  0  0  1  0  0  0  0  0  0  0  0
   -3.0925   -0.6803    3.2903 H   0  0  0  1  0  0  0  0  0  0  0  0
   -0.9932   -0.3452    2.2519 C   0  0  0  1  0  0  0  0  0  0  0  0
   -1.3438   -1.3188    2.5242 H   0  0  0  1  0  0  0  0  0  0  0  0
    0.0027    0.1068    3.2277 N   0  0  0  1  0  0  0  0  0  0  0  0
    1.1007    0.8889    3.0395 C   0  0  0  1  0  0  0  0  0  0  0  0
    1.3567    1.2790    2.1101 H   0  0  0  1  0  0  0  0  0  0  0  0
    1.8082    1.1124    4.1135 N   0  0  0  1  0  0  0  0  0  0  0  0
    1.1197    0.4292    5.1038 C   0  0  0  1  0  0  0  0  0  0  0  0
    1.3188    0.2366    6.4677 C   0  0  0  1  0  0  0  0  0  0  0  0
    2.3786    0.7719    7.1512 N   0  0  0  1  0  0  0  0  0  0  0  0
    2.5341    0.5239    8.0865 H   0  0  0  1  0  0  0  0  0  0  0  0
    2.9812    1.4028    6.7049 H   0  0  0  1  0  0  0  0  0  0  0  0
    0.4497   -0.5011    7.1670 N   0  0  0  1  0  0  0  0  0  0  0  0
   -0.5867   -1.0446    6.5093 C   0  0  0  1  0  0  0  0  0  0  0  0
   -1.2372   -1.6143    7.0871 H   0  0  0  1  0  0  0  0  0  0  0  0
   -0.8933   -0.9531    5.2211 N   0  0  0  1  0  0  0  0  0  0  0  0
   -0.0094   -0.2012    4.5637 C   0  0  0  1  0  0  0  0  0  0  0  0
  1  2  2  0  0  0  0
  1  3  1  0  0  0  0
  1  4  1  0  0  0  0
  1  8  1  0  0  0  0
  5  6  2  0  0  0  0
  5  7  1  0  0  0  0
  5  8  1  0  0  0  0
  5  9  1  0  0  0  0
  9 10  1  0  0  0  0
 10 11  1  0  0  0  0
 10 12  1  0  0  0  0
 10 13  1  0  0  0  0
 13 14  1  0  0  0  0
 13 15  1  0  0  0  0
 13 16  1  0  0  0  0
 15 24  1  0  0  0  0
 16 17  1  0  0  0  0
 16 18  1  0  0  0  0
 16 20  1  0  0  0  0
 18 19  1  0  0  0  0
 20 21  1  0  0  0  0
 20 22  1  0  0  0  0
 20 24  1  0  0  0  0
 22 23  1  0  0  0  0
 24 25  1  0  0  0  0
 24 26  1  0  0  0  0
 26 27  1  0  0  0  0
 26 39  1  0  0  0  0
 27 28  1  0  0  0  0
 27 29  2  0  0  0  0
 29 30  1  0  0  0  0
 30 31  1  0  0  0  0
 30 39  2  0  0  0  0
 31 32  1  0  0  0  0
 31 35  2  0  0  0  0
 32 33  1  0  0  0  0
 32 34  1  0  0  0  0
 35 36  1  0  0  0  0
 36 37  1  0  0  0  0
 36 38  2  0  0  0  0
 38 39  1  0  0  0  0
M  END
> <ConfClashScore>
0 

> <ConfOneFourInteractionScore>
-0.973465 

> <ConfScore>
-0.0316154 

> <ConfScorePBest>
0.0135535 

> <ConfTolerance>
0.769548 

$$$$
ADP.****
  PyMOL2.5          3D                             0

 39 41  0  0  0  0  0  0  0  0999 V2000
   -1.0876   -0.5627   -5.9435 P   0  0  0  1  0  0  0  0  0  0  0  0
   -0.3597   -1.6465   -6.6405 O   0  0  0  1  0  0  0  0  0  0  0  0
   -2.5177   -0.3842   -6.6834 O   0  5  0  1  0  0  0  0  0  0  0  0
   -0.3310    0.7942   -6.4025 O   0  5  0  1  0  0  0  0  0  0  0  0
    0.1097   -0.7889   -3.3472 P   0  0  0  1  0  0  0  0  0  0  0  0
    0.8468   -2.0172   -3.7189 O   0  0  0  1  0  0  0  0  0  0  0  0
    0.9547    0.5885   -3.4613 O   0  5  0  1  0  0  0  0  0  0  0  0
   -1.1701   -0.6639   -4.3312 O   0  0  0  1  0  0  0  0  0  0  0  0
   -0.5213   -0.9689   -1.9207 O   0  0  0  1  0  0  0  0  0  0  0  0
   -1.3181    0.0511   -1.2732 C   0  0  0  1  0  0  0  0  0  0  0  0
   -2.1770    0.2497   -1.8797 H   0  0  0  1  0  0  0  0  0  0  0  0
   -0.7293    0.9402   -1.1858 H   0  0  0  1  0  0  0  0  0  0  0  0
   -1.7850   -0.3561    0.1059 C   0  0  0  1  0  0  0  0  0  0  0  0
   -2.5018   -1.1460    0.0216 H   0  0  0  1  0  0  0  0  0  0  0  0
   -0.7003   -0.7525    0.9004 O   0  0  0  1  0  0  0  0  0  0  0  0
   -2.3836    0.8440    0.8539 C   0  0  0  1  0  0  0  0  0  0  0  0
   -1.8765    1.7505    0.5972 H   0  0  0  1  0  0  0  0  0  0  0  0
   -3.7775    0.9819    0.5742 O   0  0  0  1  0  0  0  0  0  0  0  0
   -4.1181    0.1543    0.2269 H   0  0  0  1  0  0  0  0  0  0  0  0
   -2.1527    0.4826    2.2977 C   0  0  0  1  0  0  0  0  0  0  0  0
   -2.0778    1.3599    2.9057 H   0  0  0  1  0  0  0  0  0  0  0  0
   -3.2019   -0.3515    2.7912 O   0  0  0  1  0  0  0  0  0  0  0  0
   -3.8852   -0.4365    2.1222 H   0  0  0  1  0  0  0  0  0  0  0  0
   -0.8216   -0.2741    2.2590 C   0  0  0  1  0  0  0  0  0  0  0  0
   -0.8356   -1.0942    2.9461 H   0  0  0  1  0  0  0  0  0  0  0  0
    0.2898    0.6226    2.5898 N   0  0  0  1  0  0  0  0  0  0  0  0
    1.0892    0.4981    3.6845 C   0  0  0  1  0  0  0  0  0  0  0  0
    0.9706   -0.2664    4.3795 H   0  0  0  1  0  0  0  0  0  0  0  0
    2.0160    1.4104    3.7961 N   0  0  0  1  0  0  0  0  0  0  0  0
    1.8248    2.2060    2.6771 C   0  0  0  1  0  0  0  0  0  0  0  0
    2.4462    3.3482    2.1808 C   0  0  0  1  0  0  0  0  0  0  0  0
    3.5023    3.9562    2.8067 N   0  0  0  1  0  0  0  0  0  0  0  0
    3.9032    4.7624    2.4196 H   0  0  0  1  0  0  0  0  0  0  0  0
    3.8570    3.5850    3.6414 H   0  0  0  1  0  0  0  0  0  0  0  0
    2.0114    3.8977    1.0417 N   0  0  0  1  0  0  0  0  0  0  0  0
    0.9680    3.3222    0.4234 C   0  0  0  1  0  0  0  0  0  0  0  0
    0.6575    3.7815   -0.4565 H   0  0  0  1  0  0  0  0  0  0  0  0
    0.2792    2.2462    0.7834 N   0  0  0  1  0  0  0  0  0  0  0  0
    0.7515    1.7237    1.9161 C   0  0  0  1  0  0  0  0  0  0  0  0
  1  2  2  0  0  0  0
  1  3  1  0  0  0  0
  1  4  1  0  0  0  0
  1  8  1  0  0  0  0
  5  6  2  0  0  0  0
  5  7  1  0  0  0  0
  5  8  1  0  0  0  0
  5  9  1  0  0  0  0
  9 10  1  0  0  0  0
 10 11  1  0  0  0  0
 10 12  1  0  0  0  0
 10 13  1  0  0  0  0
 13 14  1  0  0  0  0
 13 15  1  0  0  0  0
 13 16  1  0  0  0  0
 15 24  1  0  0  0  0
 16 17  1  0  0  0  0
 16 18  1  0  0  0  0
 16 20  1  0  0  0  0
 18 19  1  0  0  0  0
 20 21  1  0  0  0  0
 20 22  1  0  0  0  0
 20 24  1  0  0  0  0
 22 23  1  0  0  0  0
 24 25  1  0  0  0  0
 24 26  1  0  0  0  0
 26 27  1  0  0  0  0
 26 39  1  0  0  0  0
 27 28  1  0  0  0  0
 27 29  2  0  0  0  0
 29 30  1  0  0  0  0
 30 31  1  0  0  0  0
 30 39  2  0  0  0  0
 31 32  1  0  0  0  0
 31 35  2  0  0  0  0
 32 33  1  0  0  0  0
 32 34  1  0  0  0  0
 35 36  1  0  0  0  0
 36 37  1  0  0  0  0
 36 38  2  0  0  0  0
 38 39  1  0  0  0  0
M  END
> <ConfClashScore>
0 

> <ConfOneFourInteractionScore>
-0.976069 

> <ConfScore>
-0.0313075 

> <ConfScorePBest>
0.0134505 

> <ConfTolerance>
1.00472 

$$$$
ADP.****
  PyMOL2.5          3D                             0

 39 41  0  0  0  0  0  0  0  0999 V2000
   -4.1596   -1.7232   -4.5047 P   0  0  0  1  0  0  0  0  0  0  0  0
   -3.4290   -2.7137   -3.6827 O   0  0  0  1  0  0  0  0  0  0  0  0
   -5.7548   -1.9982   -4.5688 O   0  5  0  1  0  0  0  0  0  0  0  0
   -3.5958   -1.8867   -6.0146 O   0  5  0  1  0  0  0  0  0  0  0  0
   -2.5219    0.4264   -3.6691 P   0  0  0  1  0  0  0  0  0  0  0  0
   -1.4817   -0.2874   -4.4430 O   0  0  0  1  0  0  0  0  0  0  0  0
   -2.6050    2.0361   -3.8308 O   0  5  0  1  0  0  0  0  0  0  0  0
   -3.9626   -0.1737   -4.0834 O   0  0  0  1  0  0  0  0  0  0  0  0
   -2.4366    0.0490   -2.1513 O   0  0  0  1  0  0  0  0  0  0  0  0
   -1.2528    0.1612   -1.3268 C   0  0  0  1  0  0  0  0  0  0  0  0
   -0.9303    1.1807   -1.2891 H   0  0  0  1  0  0  0  0  0  0  0  0
   -0.4695   -0.4466   -1.7293 H   0  0  0  1  0  0  0  0  0  0  0  0
   -1.6129   -0.3159    0.0597 C   0  0  0  1  0  0  0  0  0  0  0  0
   -2.0745   -1.2792   -0.0027 H   0  0  0  1  0  0  0  0  0  0  0  0
   -0.4392   -0.3674    0.9011 O   0  0  0  1  0  0  0  0  0  0  0  0
   -2.5526    0.6938    0.7556 C   0  0  0  1  0  0  0  0  0  0  0  0
   -2.4352    1.6720    0.3381 H   0  0  0  1  0  0  0  0  0  0  0  0
   -3.9156    0.2843    0.6348 O   0  0  0  1  0  0  0  0  0  0  0  0
   -4.3018    0.6829   -0.1485 H   0  0  0  1  0  0  0  0  0  0  0  0
   -2.1013    0.6703    2.2350 C   0  0  0  1  0  0  0  0  0  0  0  0
   -1.7642    1.6374    2.5451 H   0  0  0  1  0  0  0  0  0  0  0  0
   -3.1642    0.2430    3.0819 O   0  0  0  1  0  0  0  0  0  0  0  0
   -3.3993   -0.6630    2.8687 H   0  0  0  1  0  0  0  0  0  0  0  0
   -0.9405   -0.3479    2.2549 C   0  0  0  1  0  0  0  0  0  0  0  0
   -1.2949   -1.3167    2.5389 H   0  0  0  1  0  0  0  0  0  0  0  0
    0.1030    0.0810    3.1829 N   0  0  0  1  0  0  0  0  0  0  0  0
    1.0959    0.9746    2.9213 C   0  0  0  1  0  0  0  0  0  0  0  0
    1.0952    1.5795    2.0754 H   0  0  0  1  0  0  0  0  0  0  0  0
    2.0490    1.0150    3.8122 N   0  0  0  1  0  0  0  0  0  0  0  0
    1.6549    0.0755    4.7522 C   0  0  0  1  0  0  0  0  0  0  0  0
    2.2017   -0.3948    5.9425 C   0  0  0  1  0  0  0  0  0  0  0  0
    3.3873    0.0640    6.4530 N   0  0  0  1  0  0  0  0  0  0  0  0
    3.9138    0.7225    5.9534 H   0  0  0  1  0  0  0  0  0  0  0  0
    3.7090   -0.2664    7.3177 H   0  0  0  1  0  0  0  0  0  0  0  0
    1.5598   -1.3385    6.6397 N   0  0  0  1  0  0  0  0  0  0  0  0
    0.4036   -1.8090    6.1458 C   0  0  0  1  0  0  0  0  0  0  0  0
   -0.0624   -2.5443    6.7148 H   0  0  0  1  0  0  0  0  0  0  0  0
   -0.2251   -1.4625    5.0293 N   0  0  0  1  0  0  0  0  0  0  0  0
    0.4415   -0.5130    4.3712 C   0  0  0  1  0  0  0  0  0  0  0  0
  1  2  2  0  0  0  0
  1  3  1  0  0  0  0
  1  4  1  0  0  0  0
  1  8  1  0  0  0  0
  5  6  2  0  0  0  0
  5  7  1  0  0  0  0
  5  8  1  0  0  0  0
  5  9  1  0  0  0  0
  9 10  1  0  0  0  0
 10 11  1  0  0  0  0
 10 12  1  0  0  0  0
 10 13  1  0  0  0  0
 13 14  1  0  0  0  0
 13 15  1  0  0  0  0
 13 16  1  0  0  0  0
 15 24  1  0  0  0  0
 16 17  1  0  0  0  0
 16 18  1  0  0  0  0
 16 20  1  0  0  0  0
 18 19  1  0  0  0  0
 20 21  1  0  0  0  0
 20 22  1  0  0  0  0
 20 24  1  0  0  0  0
 22 23  1  0  0  0  0
 24 25  1  0  0  0  0
 24 26  1  0  0  0  0
 26 27  1  0  0  0  0
 26 39  1  0  0  0  0
 27 28  1  0  0  0  0
 27 29  2  0  0  0  0
 29 30  1  0  0  0  0
 30 31  1  0  0  0  0
 30 39  2  0  0  0  0
 31 32  1  0  0  0  0
 31 35  2  0  0  0  0
 32 33  1  0  0  0  0
 32 34  1  0  0  0  0
 35 36  1  0  0  0  0
 36 37  1  0  0  0  0
 36 38  2  0  0  0  0
 38 39  1  0  0  0  0
M  END
> <ConfClashScore>
0 

> <ConfOneFourInteractionScore>
-0.976069 

> <ConfScore>
-0.0297116 

> <ConfScorePBest>
0.0133475 

> <ConfTolerance>
0.861052 

$$$$
ADP.****
  PyMOL2.5          3D                             0

 39 41  0  0  0  0  0  0  0  0999 V2000
    0.1065    5.2933   -1.3694 P   0  0  0  1  0  0  0  0  0  0  0  0
   -1.2456    5.4497   -0.7881 O   0  0  0  1  0  0  0  0  0  0  0  0
    1.2208    5.9480   -0.3926 O   0  5  0  1  0  0  0  0  0  0  0  0
    0.3711    6.4008   -2.5217 O   0  5  0  1  0  0  0  0  0  0  0  0
   -0.0849    2.4811   -2.3854 P   0  0  0  1  0  0  0  0  0  0  0  0
   -1.1640    2.7456   -3.3631 O   0  0  0  1  0  0  0  0  0  0  0  0
    1.1260    1.7268   -3.1531 O   0  5  0  1  0  0  0  0  0  0  0  0
    0.5954    3.8393   -1.8772 O   0  0  0  1  0  0  0  0  0  0  0  0
   -0.5479    1.6077   -1.1610 O   0  0  0  1  0  0  0  0  0  0  0  0
   -1.1279    0.2974   -1.3617 C   0  0  0  1  0  0  0  0  0  0  0  0
   -0.3963   -0.3657   -1.7740 H   0  0  0  1  0  0  0  0  0  0  0  0
   -1.9628    0.3664   -2.0274 H   0  0  0  1  0  0  0  0  0  0  0  0
   -1.5843   -0.2132   -0.0155 C   0  0  0  1  0  0  0  0  0  0  0  0
   -2.1066   -1.1384   -0.1427 H   0  0  0  1  0  0  0  0  0  0  0  0
   -0.4576   -0.3827    0.8733 O   0  0  0  1  0  0  0  0  0  0  0  0
   -2.4853    0.8284    0.6846 C   0  0  0  1  0  0  0  0  0  0  0  0
   -2.2825    1.8132    0.3185 H   0  0  0  1  0  0  0  0  0  0  0  0
   -3.8657    0.5205    0.4852 O   0  0  0  1  0  0  0  0  0  0  0  0
   -4.0889   -0.2783    0.9687 H   0  0  0  1  0  0  0  0  0  0  0  0
   -2.1066    0.7096    2.1796 C   0  0  0  1  0  0  0  0  0  0  0  0
   -1.7198    1.6364    2.5488 H   0  0  0  1  0  0  0  0  0  0  0  0
   -3.2375    0.3201    2.9603 O   0  0  0  1  0  0  0  0  0  0  0  0
   -3.6217   -0.4786    2.5916 H   0  0  0  1  0  0  0  0  0  0  0  0
   -1.0196   -0.3869    2.2033 C   0  0  0  1  0  0  0  0  0  0  0  0
   -1.4515   -1.3402    2.4261 H   0  0  0  1  0  0  0  0  0  0  0  0
    0.0093   -0.0713    3.1984 N   0  0  0  1  0  0  0  0  0  0  0  0
    1.2698    0.3511    2.9059 C   0  0  0  1  0  0  0  0  0  0  0  0
    1.6003    0.4908    1.9297 H   0  0  0  1  0  0  0  0  0  0  0  0
    2.0326    0.5676    3.9428 N   0  0  0  1  0  0  0  0  0  0  0  0
    1.2092    0.2734    5.0185 C   0  0  0  1  0  0  0  0  0  0  0  0
    1.3784    0.2789    6.3999 C   0  0  0  1  0  0  0  0  0  0  0  0
    2.5454    0.6252    7.0723 N   0  0  0  1  0  0  0  0  0  0  0  0
    2.5595    0.6430    8.0520 H   0  0  0  1  0  0  0  0  0  0  0  0
    3.3536    0.8514    6.5664 H   0  0  0  1  0  0  0  0  0  0  0  0
    0.3607   -0.0712    7.1939 N   0  0  0  1  0  0  0  0  0  0  0  0
   -0.7948   -0.4322    6.6138 C   0  0  0  1  0  0  0  0  0  0  0  0
   -1.5600   -0.7013    7.2647 H   0  0  0  1  0  0  0  0  0  0  0  0
   -1.0926   -0.4922    5.3217 N   0  0  0  1  0  0  0  0  0  0  0  0
   -0.0561   -0.1251    4.5668 C   0  0  0  1  0  0  0  0  0  0  0  0
  1  2  2  0  0  0  0
  1  3  1  0  0  0  0
  1  4  1  0  0  0  0
  1  8  1  0  0  0  0
  5  6  2  0  0  0  0
  5  7  1  0  0  0  0
  5  8  1  0  0  0  0
  5  9  1  0  0  0  0
  9 10  1  0  0  0  0
 10 11  1  0  0  0  0
 10 12  1  0  0  0  0
 10 13  1  0  0  0  0
 13 14  1  0  0  0  0
 13 15  1  0  0  0  0
 13 16  1  0  0  0  0
 15 24  1  0  0  0  0
 16 17  1  0  0  0  0
 16 18  1  0  0  0  0
 16 20  1  0  0  0  0
 18 19  1  0  0  0  0
 20 21  1  0  0  0  0
 20 22  1  0  0  0  0
 20 24  1  0  0  0  0
 22 23  1  0  0  0  0
 24 25  1  0  0  0  0
 24 26  1  0  0  0  0
 26 27  1  0  0  0  0
 26 39  1  0  0  0  0
 27 28  1  0  0  0  0
 27 29  2  0  0  0  0
 29 30  1  0  0  0  0
 30 31  1  0  0  0  0
 30 39  2  0  0  0  0
 31 32  1  0  0  0  0
 31 35  2  0  0  0  0
 32 33  1  0  0  0  0
 32 34  1  0  0  0  0
 35 36  1  0  0  0  0
 36 37  1  0  0  0  0
 36 38  2  0  0  0  0
 38 39  1  0  0  0  0
M  END
> <ConfClashScore>
0 

> <ConfOneFourInteractionScore>
-0.986061 

> <ConfScore>
-0.0288203 

> <ConfScorePBest>
0.0132445 

> <ConfTolerance>
0.706517 

$$$$
ADP.****
  PyMOL2.5          3D                             0

 39 41  0  0  0  0  0  0  0  0999 V2000
    1.4111    2.6887   -3.6344 P   0  0  0  1  0  0  0  0  0  0  0  0
    1.8661    1.9094   -2.4613 O   0  0  0  1  0  0  0  0  0  0  0  0
    1.9484    2.1146   -5.0507 O   0  5  0  1  0  0  0  0  0  0  0  0
    1.5864    4.2895   -3.4578 O   0  5  0  1  0  0  0  0  0  0  0  0
   -1.3572    2.8617   -2.6697 P   0  0  0  1  0  0  0  0  0  0  0  0
   -0.9727    4.0789   -1.9207 O   0  0  0  1  0  0  0  0  0  0  0  0
   -2.5937    3.0889   -3.6913 O   0  5  0  1  0  0  0  0  0  0  0  0
   -0.1779    2.4549   -3.6748 O   0  0  0  1  0  0  0  0  0  0  0  0
   -1.7321    1.6238   -1.7794 O   0  0  0  1  0  0  0  0  0  0  0  0
   -0.8253    1.0386   -0.8155 C   0  0  0  1  0  0  0  0  0  0  0  0
   -0.5152    1.7914   -0.1213 H   0  0  0  1  0  0  0  0  0  0  0  0
    0.0304    0.6504   -1.3274 H   0  0  0  1  0  0  0  0  0  0  0  0
   -1.5056   -0.0812   -0.0639 C   0  0  0  1  0  0  0  0  0  0  0  0
   -1.8542   -0.8171   -0.7581 H   0  0  0  1  0  0  0  0  0  0  0  0
   -0.5932   -0.6761    0.8760 O   0  0  0  1  0  0  0  0  0  0  0  0
   -2.6882    0.4730    0.7684 C   0  0  0  1  0  0  0  0  0  0  0  0
   -2.9985    1.4310    0.4065 H   0  0  0  1  0  0  0  0  0  0  0  0
   -3.7975   -0.4265    0.7483 O   0  0  0  1  0  0  0  0  0  0  0  0
   -4.0906   -0.5536   -0.1570 H   0  0  0  1  0  0  0  0  0  0  0  0
   -2.0967    0.5807    2.1628 C   0  0  0  1  0  0  0  0  0  0  0  0
   -1.6166    1.5261    2.3066 H   0  0  0  1  0  0  0  0  0  0  0  0
   -3.1005    0.3978    3.1646 O   0  0  0  1  0  0  0  0  0  0  0  0
   -3.3709    1.2529    3.5072 H   0  0  0  1  0  0  0  0  0  0  0  0
   -1.0762   -0.5683    2.1840 C   0  0  0  1  0  0  0  0  0  0  0  0
   -1.5493   -1.4806    2.4823 H   0  0  0  1  0  0  0  0  0  0  0  0
    0.0172   -0.2608    3.1065 N   0  0  0  1  0  0  0  0  0  0  0  0
    0.4459   -1.0180    4.1532 C   0  0  0  1  0  0  0  0  0  0  0  0
    0.0140   -1.9325    4.3957 H   0  0  0  1  0  0  0  0  0  0  0  0
    1.4398   -0.5099    4.8298 N   0  0  0  1  0  0  0  0  0  0  0  0
    1.7026    0.6829    4.1742 C   0  0  0  1  0  0  0  0  0  0  0  0
    2.6158    1.7154    4.3668 C   0  0  0  1  0  0  0  0  0  0  0  0
    3.5382    1.7180    5.3798 N   0  0  0  1  0  0  0  0  0  0  0  0
    4.1492    2.4771    5.4841 H   0  0  0  1  0  0  0  0  0  0  0  0
    3.5870    0.9609    6.0000 H   0  0  0  1  0  0  0  0  0  0  0  0
    2.6137    2.7655    3.5386 N   0  0  0  1  0  0  0  0  0  0  0  0
    1.7066    2.7850    2.5493 C   0  0  0  1  0  0  0  0  0  0  0  0
    1.7347    3.6199    1.9298 H   0  0  0  1  0  0  0  0  0  0  0  0
    0.7787    1.8827    2.2549 N   0  0  0  1  0  0  0  0  0  0  0  0
    0.8224    0.8488    3.0964 C   0  0  0  1  0  0  0  0  0  0  0  0
  1  2  2  0  0  0  0
  1  3  1  0  0  0  0
  1  4  1  0  0  0  0
  1  8  1  0  0  0  0
  5  6  2  0  0  0  0
  5  7  1  0  0  0  0
  5  8  1  0  0  0  0
  5  9  1  0  0  0  0
  9 10  1  0  0  0  0
 10 11  1  0  0  0  0
 10 12  1  0  0  0  0
 10 13  1  0  0  0  0
 13 14  1  0  0  0  0
 13 15  1  0  0  0  0
 13 16  1  0  0  0  0
 15 24  1  0  0  0  0
 16 17  1  0  0  0  0
 16 18  1  0  0  0  0
 16 20  1  0  0  0  0
 18 19  1  0  0  0  0
 20 21  1  0  0  0  0
 20 22  1  0  0  0  0
 20 24  1  0  0  0  0
 22 23  1  0  0  0  0
 24 25  1  0  0  0  0
 24 26  1  0  0  0  0
 26 27  1  0  0  0  0
 26 39  1  0  0  0  0
 27 28  1  0  0  0  0
 27 29  2  0  0  0  0
 29 30  1  0  0  0  0
 30 31  1  0  0  0  0
 30 39  2  0  0  0  0
 31 32  1  0  0  0  0
 31 35  2  0  0  0  0
 32 33  1  0  0  0  0
 32 34  1  0  0  0  0
 35 36  1  0  0  0  0
 36 37  1  0  0  0  0
 36 38  2  0  0  0  0
 38 39  1  0  0  0  0
M  END
> <ConfClashScore>
0 

> <ConfOneFourInteractionScore>
-0.980272 

> <ConfScore>
-0.0254494 

> <ConfScorePBest>
0.0131415 

> <ConfTolerance>
0.96175 

$$$$
ADP.****
  PyMOL2.5          3D                             0

 39 41  0  0  0  0  0  0  0  0999 V2000
   -1.6594    2.7837   -2.8712 P   0  0  0  1  0  0  0  0  0  0  0  0
   -2.6788    1.7326   -3.0871 O   0  0  0  1  0  0  0  0  0  0  0  0
   -1.5468    3.0229   -1.2729 O   0  5  0  1  0  0  0  0  0  0  0  0
   -2.0035    4.2145   -3.5486 O   0  5  0  1  0  0  0  0  0  0  0  0
    0.7692    1.5519   -2.1063 P   0  0  0  1  0  0  0  0  0  0  0  0
    1.6402    0.4959   -2.6689 O   0  0  0  1  0  0  0  0  0  0  0  0
    1.4819    2.7804   -1.3270 O   0  5  0  1  0  0  0  0  0  0  0  0
   -0.1520    2.2987   -3.2021 O   0  0  0  1  0  0  0  0  0  0  0  0
   -0.2263    1.0104   -1.0250 O   0  0  0  1  0  0  0  0  0  0  0  0
   -1.1900   -0.0491   -1.2313 C   0  0  0  1  0  0  0  0  0  0  0  0
   -0.7005   -0.9154   -1.6248 H   0  0  0  1  0  0  0  0  0  0  0  0
   -1.9469    0.2748   -1.9148 H   0  0  0  1  0  0  0  0  0  0  0  0
   -1.8100   -0.3721    0.1075 C   0  0  0  1  0  0  0  0  0  0  0  0
   -2.6004   -1.0808   -0.0266 H   0  0  0  1  0  0  0  0  0  0  0  0
   -0.8349   -0.8824    0.9923 O   0  0  0  1  0  0  0  0  0  0  0  0
   -2.3358    0.8901    0.7667 C   0  0  0  1  0  0  0  0  0  0  0  0
   -1.7242    1.7350    0.5283 H   0  0  0  1  0  0  0  0  0  0  0  0
   -3.6847    1.1529    0.3774 O   0  0  0  1  0  0  0  0  0  0  0  0
   -4.2220    0.3735    0.5367 H   0  0  0  1  0  0  0  0  0  0  0  0
   -2.2478    0.5491    2.2319 C   0  0  0  1  0  0  0  0  0  0  0  0
   -2.2048    1.4312    2.8361 H   0  0  0  1  0  0  0  0  0  0  0  0
   -3.3500   -0.2593    2.6461 O   0  0  0  1  0  0  0  0  0  0  0  0
   -3.2438   -1.1481    2.2992 H   0  0  0  1  0  0  0  0  0  0  0  0
   -0.9338   -0.2290    2.2870 C   0  0  0  1  0  0  0  0  0  0  0  0
   -0.9577   -0.9536    3.0739 H   0  0  0  1  0  0  0  0  0  0  0  0
    0.1938    0.6785    2.4933 N   0  0  0  1  0  0  0  0  0  0  0  0
    0.5546    1.6760    1.6403 C   0  0  0  1  0  0  0  0  0  0  0  0
    0.0364    1.8743    0.7607 H   0  0  0  1  0  0  0  0  0  0  0  0
    1.6001    2.3648    2.0094 N   0  0  0  1  0  0  0  0  0  0  0  0
    1.9626    1.7840    3.2147 C   0  0  0  1  0  0  0  0  0  0  0  0
    2.9815    2.0130    4.1347 C   0  0  0  1  0  0  0  0  0  0  0  0
    3.9247    2.9939    3.9765 N   0  0  0  1  0  0  0  0  0  0  0  0
    3.8850    3.5913    3.2006 H   0  0  0  1  0  0  0  0  0  0  0  0
    4.6391    3.0982    4.6391 H   0  0  0  1  0  0  0  0  0  0  0  0
    3.0662    1.2543    5.2328 N   0  0  0  1  0  0  0  0  0  0  0  0
    2.1580    0.2794    5.3958 C   0  0  0  1  0  0  0  0  0  0  0  0
    2.2602   -0.2908    6.2595 H   0  0  0  1  0  0  0  0  0  0  0  0
    1.1470   -0.0553    4.6034 N   0  0  0  1  0  0  0  0  0  0  0  0
    1.0919    0.7316    3.5278 C   0  0  0  1  0  0  0  0  0  0  0  0
  1  2  2  0  0  0  0
  1  3  1  0  0  0  0
  1  4  1  0  0  0  0
  1  8  1  0  0  0  0
  5  6  2  0  0  0  0
  5  7  1  0  0  0  0
  5  8  1  0  0  0  0
  5  9  1  0  0  0  0
  9 10  1  0  0  0  0
 10 11  1  0  0  0  0
 10 12  1  0  0  0  0
 10 13  1  0  0  0  0
 13 14  1  0  0  0  0
 13 15  1  0  0  0  0
 13 16  1  0  0  0  0
 15 24  1  0  0  0  0
 16 17  1  0  0  0  0
 16 18  1  0  0  0  0
 16 20  1  0  0  0  0
 18 19  1  0  0  0  0
 20 21  1  0  0  0  0
 20 22  1  0  0  0  0
 20 24  1  0  0  0  0
 22 23  1  0  0  0  0
 24 25  1  0  0  0  0
 24 26  1  0  0  0  0
 26 27  1  0  0  0  0
 26 39  1  0  0  0  0
 27 28  1  0  0  0  0
 27 29  2  0  0  0  0
 29 30  1  0  0  0  0
 30 31  1  0  0  0  0
 30 39  2  0  0  0  0
 31 32  1  0  0  0  0
 31 35  2  0  0  0  0
 32 33  1  0  0  0  0
 32 34  1  0  0  0  0
 35 36  1  0  0  0  0
 36 37  1  0  0  0  0
 36 38  2  0  0  0  0
 38 39  1  0  0  0  0
M  END
> <ConfClashScore>
0 

> <ConfOneFourInteractionScore>
-0.979254 

> <ConfScore>
-0.0239526 

> <ConfScorePBest>
0.0130385 

> <ConfTolerance>
1.05964 

$$$$
ADP.****
  PyMOL2.5          3D                             0

 39 41  0  0  0  0  0  0  0  0999 V2000
    3.2396    3.1882   -1.4622 P   0  0  0  1  0  0  0  0  0  0  0  0
    3.8172    4.1136   -0.4620 O   0  0  0  1  0  0  0  0  0  0  0  0
    4.2323    2.0255   -1.9979 O   0  5  0  1  0  0  0  0  0  0  0  0
    2.8579    3.8081   -2.9094 O   0  5  0  1  0  0  0  0  0  0  0  0
    0.5598    3.1614   -0.3896 P   0  0  0  1  0  0  0  0  0  0  0  0
    0.8683    3.9024    0.8539 O   0  0  0  1  0  0  0  0  0  0  0  0
   -0.1485    3.9093   -1.6399 O   0  5  0  1  0  0  0  0  0  0  0  0
    1.9214    2.4700   -0.8882 O   0  0  0  1  0  0  0  0  0  0  0  0
   -0.3248    1.9331    0.0130 O   0  0  0  1  0  0  0  0  0  0  0  0
   -0.7016    0.8490   -0.8683 C   0  0  0  1  0  0  0  0  0  0  0  0
    0.1748    0.3835   -1.2685 H   0  0  0  1  0  0  0  0  0  0  0  0
   -1.3046    1.2232   -1.6691 H   0  0  0  1  0  0  0  0  0  0  0  0
   -1.4893   -0.1506   -0.0549 C   0  0  0  1  0  0  0  0  0  0  0  0
   -1.8789   -0.9091   -0.7012 H   0  0  0  1  0  0  0  0  0  0  0  0
   -0.6522   -0.7398    0.9561 O   0  0  0  1  0  0  0  0  0  0  0  0
   -2.6435    0.5593    0.6950 C   0  0  0  1  0  0  0  0  0  0  0  0
   -2.8657    1.5072    0.2512 H   0  0  0  1  0  0  0  0  0  0  0  0
   -3.8213   -0.2485    0.7090 O   0  0  0  1  0  0  0  0  0  0  0  0
   -4.3925    0.0051   -0.0197 H   0  0  0  1  0  0  0  0  0  0  0  0
   -2.0805    0.7296    2.0950 C   0  0  0  1  0  0  0  0  0  0  0  0
   -1.5289    1.6424    2.1809 H   0  0  0  1  0  0  0  0  0  0  0  0
   -3.1196    0.7062    3.0747 O   0  0  0  1  0  0  0  0  0  0  0  0
   -3.0393   -0.0878    3.6082 H   0  0  0  1  0  0  0  0  0  0  0  0
   -1.1577   -0.4913    2.2362 C   0  0  0  1  0  0  0  0  0  0  0  0
   -1.7106   -1.3369    2.5885 H   0  0  0  1  0  0  0  0  0  0  0  0
   -0.0645   -0.1989    3.1679 N   0  0  0  1  0  0  0  0  0  0  0  0
    1.2137    0.0905    2.8000 C   0  0  0  1  0  0  0  0  0  0  0  0
    1.5131    0.1331    1.8049 H   0  0  0  1  0  0  0  0  0  0  0  0
    2.0353    0.3106    3.7901 N   0  0  0  1  0  0  0  0  0  0  0  0
    1.2364    0.1643    4.9135 C   0  0  0  1  0  0  0  0  0  0  0  0
    1.4638    0.2503    6.2838 C   0  0  0  1  0  0  0  0  0  0  0  0
    2.6786    0.5377    6.8842 N   0  0  0  1  0  0  0  0  0  0  0  0
    3.4505    0.7864    6.3339 H   0  0  0  1  0  0  0  0  0  0  0  0
    2.7662    0.4924    7.8593 H   0  0  0  1  0  0  0  0  0  0  0  0
    0.4547    0.0460    7.1375 N   0  0  0  1  0  0  0  0  0  0  0  0
   -0.7507   -0.2518    6.6274 C   0  0  0  1  0  0  0  0  0  0  0  0
   -1.5077   -0.4074    7.3234 H   0  0  0  1  0  0  0  0  0  0  0  0
   -1.1071   -0.3745    5.3547 N   0  0  0  1  0  0  0  0  0  0  0  0
   -0.0761   -0.1523    4.5381 C   0  0  0  1  0  0  0  0  0  0  0  0
  1  2  2  0  0  0  0
  1  3  1  0  0  0  0
  1  4  1  0  0  0  0
  1  8  1  0  0  0  0
  5  6  2  0  0  0  0
  5  7  1  0  0  0  0
  5  8  1  0  0  0  0
  5  9  1  0  0  0  0
  9 10  1  0  0  0  0
 10 11  1  0  0  0  0
 10 12  1  0  0  0  0
 10 13  1  0  0  0  0
 13 14  1  0  0  0  0
 13 15  1  0  0  0  0
 13 16  1  0  0  0  0
 15 24  1  0  0  0  0
 16 17  1  0  0  0  0
 16 18  1  0  0  0  0
 16 20  1  0  0  0  0
 18 19  1  0  0  0  0
 20 21  1  0  0  0  0
 20 22  1  0  0  0  0
 20 24  1  0  0  0  0
 22 23  1  0  0  0  0
 24 25  1  0  0  0  0
 24 26  1  0  0  0  0
 26 27  1  0  0  0  0
 26 39  1  0  0  0  0
 27 28  1  0  0  0  0
 27 29  2  0  0  0  0
 29 30  1  0  0  0  0
 30 31  1  0  0  0  0
 30 39  2  0  0  0  0
 31 32  1  0  0  0  0
 31 35  2  0  0  0  0
 32 33  1  0  0  0  0
 32 34  1  0  0  0  0
 35 36  1  0  0  0  0
 36 37  1  0  0  0  0
 36 38  2  0  0  0  0
 38 39  1  0  0  0  0
M  END
> <ConfClashScore>
0 

> <ConfOneFourInteractionScore>
-0.979254 

> <ConfScore>
-0.023026 

> <ConfScorePBest>
0.0129355 

> <ConfTolerance>
0.86235 

$$$$
ADP.****
  PyMOL2.5          3D                             0

 39 41  0  0  0  0  0  0  0  0999 V2000
    1.5310    4.9292   -2.2470 P   0  0  0  1  0  0  0  0  0  0  0  0
    2.8416    4.3138   -2.5535 O   0  0  0  1  0  0  0  0  0  0  0  0
    0.7926    5.6355   -3.5041 O   0  5  0  1  0  0  0  0  0  0  0  0
    1.7039    6.0072   -1.0502 O   0  5  0  1  0  0  0  0  0  0  0  0
   -0.2656    2.6713   -2.3319 P   0  0  0  1  0  0  0  0  0  0  0  0
   -1.4265    3.2360   -3.0556 O   0  0  0  1  0  0  0  0  0  0  0  0
    0.7881    1.8845   -3.2780 O   0  5  0  1  0  0  0  0  0  0  0  0
    0.4702    3.9034   -1.6100 O   0  0  0  1  0  0  0  0  0  0  0  0
   -0.6085    1.6967   -1.1495 O   0  0  0  1  0  0  0  0  0  0  0  0
   -1.1968    0.3851   -1.3474 C   0  0  0  1  0  0  0  0  0  0  0  0
   -0.4883   -0.2482   -1.8393 H   0  0  0  1  0  0  0  0  0  0  0  0
   -2.0729    0.4798   -1.9543 H   0  0  0  1  0  0  0  0  0  0  0  0
   -1.5755   -0.2293   -0.0189 C   0  0  0  1  0  0  0  0  0  0  0  0
   -1.9888   -1.2030   -0.1805 H   0  0  0  1  0  0  0  0  0  0  0  0
   -0.4263   -0.3028    0.8540 O   0  0  0  1  0  0  0  0  0  0  0  0
   -2.5823    0.6718    0.7301 C   0  0  0  1  0  0  0  0  0  0  0  0
   -2.4990    1.6874    0.4037 H   0  0  0  1  0  0  0  0  0  0  0  0
   -3.9202    0.2142    0.5281 O   0  0  0  1  0  0  0  0  0  0  0  0
   -4.0366   -0.0403   -0.3902 H   0  0  0  1  0  0  0  0  0  0  0  0
   -2.1746    0.5375    2.2162 C   0  0  0  1  0  0  0  0  0  0  0  0
   -1.8931    1.4873    2.6206 H   0  0  0  1  0  0  0  0  0  0  0  0
   -3.2436   -0.0115    2.9882 O   0  0  0  1  0  0  0  0  0  0  0  0
   -3.3859    0.5292    3.7686 H   0  0  0  1  0  0  0  0  0  0  0  0
   -0.9680   -0.4257    2.1867 C   0  0  0  1  0  0  0  0  0  0  0  0
   -1.2844   -1.4307    2.3730 H   0  0  0  1  0  0  0  0  0  0  0  0
    0.0290   -0.0334    3.1863 N   0  0  0  1  0  0  0  0  0  0  0  0
    0.5736    1.2016    3.3621 C   0  0  0  1  0  0  0  0  0  0  0  0
    0.3093    2.0181    2.7746 H   0  0  0  1  0  0  0  0  0  0  0  0
    1.4526    1.2840    4.3235 N   0  0  0  1  0  0  0  0  0  0  0  0
    1.4917   -0.0023    4.8388 C   0  0  0  1  0  0  0  0  0  0  0  0
    2.2108   -0.6173    5.8594 C   0  0  0  1  0  0  0  0  0  0  0  0
    3.1255    0.0461    6.6340 N   0  0  0  1  0  0  0  0  0  0  0  0
    3.3106    0.9944    6.4698 H   0  0  0  1  0  0  0  0  0  0  0  0
    3.5947   -0.4276    7.3522 H   0  0  0  1  0  0  0  0  0  0  0  0
    2.0186   -1.9157    6.1164 N   0  0  0  1  0  0  0  0  0  0  0  0
    1.1360   -2.5837    5.3570 C   0  0  0  1  0  0  0  0  0  0  0  0
    1.0182   -3.5915    5.5855 H   0  0  0  1  0  0  0  0  0  0  0  0
    0.3934   -2.1319    4.3539 N   0  0  0  1  0  0  0  0  0  0  0  0
    0.6068   -0.8330    4.1384 C   0  0  0  1  0  0  0  0  0  0  0  0
  1  2  2  0  0  0  0
  1  3  1  0  0  0  0
  1  4  1  0  0  0  0
  1  8  1  0  0  0  0
  5  6  2  0  0  0  0
  5  7  1  0  0  0  0
  5  8  1  0  0  0  0
  5  9  1  0  0  0  0
  9 10  1  0  0  0  0
 10 11  1  0  0  0  0
 10 12  1  0  0  0  0
 10 13  1  0  0  0  0
 13 14  1  0  0  0  0
 13 15  1  0  0  0  0
 13 16  1  0  0  0  0
 15 24  1  0  0  0  0
 16 17  1  0  0  0  0
 16 18  1  0  0  0  0
 16 20  1  0  0  0  0
 18 19  1  0  0  0  0
 20 21  1  0  0  0  0
 20 22  1  0  0  0  0
 20 24  1  0  0  0  0
 22 23  1  0  0  0  0
 24 25  1  0  0  0  0
 24 26  1  0  0  0  0
 26 27  1  0  0  0  0
 26 39  1  0  0  0  0
 27 28  1  0  0  0  0
 27 29  2  0  0  0  0
 29 30  1  0  0  0  0
 30 31  1  0  0  0  0
 30 39  2  0  0  0  0
 31 32  1  0  0  0  0
 31 35  2  0  0  0  0
 32 33  1  0  0  0  0
 32 34  1  0  0  0  0
 35 36  1  0  0  0  0
 36 37  1  0  0  0  0
 36 38  2  0  0  0  0
 38 39  1  0  0  0  0
M  END
> <ConfClashScore>
0 

> <ConfOneFourInteractionScore>
-0.987502 

> <ConfScore>
-0.0229325 

> <ConfScorePBest>
0.0128325 

> <ConfTolerance>
0.812766 

$$$$
ADP.****
  PyMOL2.5          3D                             0

 39 41  0  0  0  0  0  0  0  0999 V2000
   -1.8830    1.5831   -4.4597 P   0  0  0  1  0  0  0  0  0  0  0  0
   -0.9773    1.6755   -5.6266 O   0  0  0  1  0  0  0  0  0  0  0  0
   -2.3889    0.0809   -4.1251 O   0  5  0  1  0  0  0  0  0  0  0  0
   -3.2584    2.3430   -4.8534 O   0  5  0  1  0  0  0  0  0  0  0  0
    0.0938    1.9873   -2.4213 P   0  0  0  1  0  0  0  0  0  0  0  0
    0.9464    1.1884   -3.3298 O   0  0  0  1  0  0  0  0  0  0  0  0
    0.8363    3.3565   -1.9758 O   0  5  0  1  0  0  0  0  0  0  0  0
   -1.2948    2.3578   -3.1671 O   0  0  0  1  0  0  0  0  0  0  0  0
   -0.3512    1.1697   -1.1422 O   0  0  0  1  0  0  0  0  0  0  0  0
   -1.1007   -0.0541   -1.3278 C   0  0  0  1  0  0  0  0  0  0  0  0
   -0.4669   -0.8104   -1.7416 H   0  0  0  1  0  0  0  0  0  0  0  0
   -1.9257    0.1203   -1.9865 H   0  0  0  1  0  0  0  0  0  0  0  0
   -1.6071   -0.4916    0.0262 C   0  0  0  1  0  0  0  0  0  0  0  0
   -2.1993   -1.3761   -0.0826 H   0  0  0  1  0  0  0  0  0  0  0  0
   -0.5398   -0.7139    0.9075 O   0  0  0  1  0  0  0  0  0  0  0  0
   -2.4200    0.6288    0.6910 C   0  0  0  1  0  0  0  0  0  0  0  0
   -2.0257    1.5916    0.4414 H   0  0  0  1  0  0  0  0  0  0  0  0
   -3.7949    0.5631    0.3097 O   0  0  0  1  0  0  0  0  0  0  0  0
   -4.2472    1.3574    0.6034 H   0  0  0  1  0  0  0  0  0  0  0  0
   -2.2488    0.3357    2.1584 C   0  0  0  1  0  0  0  0  0  0  0  0
   -2.3416    1.2281    2.7414 H   0  0  0  1  0  0  0  0  0  0  0  0
   -3.2061   -0.6264    2.6037 O   0  0  0  1  0  0  0  0  0  0  0  0
   -3.9315   -0.1768    3.0434 H   0  0  0  1  0  0  0  0  0  0  0  0
   -0.8266   -0.2271    2.2379 C   0  0  0  1  0  0  0  0  0  0  0  0
   -0.7778   -1.0255    2.9486 H   0  0  0  1  0  0  0  0  0  0  0  0
    0.1211    0.8228    2.6164 N   0  0  0  1  0  0  0  0  0  0  0  0
    0.7622    1.6890    1.7848 C   0  0  0  1  0  0  0  0  0  0  0  0
    0.6207    1.6833    0.7545 H   0  0  0  1  0  0  0  0  0  0  0  0
    1.5679    2.5274    2.3779 N   0  0  0  1  0  0  0  0  0  0  0  0
    1.4481    2.1990    3.7194 C   0  0  0  1  0  0  0  0  0  0  0  0
    2.0260    2.6785    4.8911 C   0  0  0  1  0  0  0  0  0  0  0  0
    2.9319    3.7151    4.8031 N   0  0  0  1  0  0  0  0  0  0  0  0
    3.1585    4.0948    3.9286 H   0  0  0  1  0  0  0  0  0  0  0  0
    3.3487    4.0718    5.6152 H   0  0  0  1  0  0  0  0  0  0  0  0
    1.6955    2.1309    6.0657 N   0  0  0  1  0  0  0  0  0  0  0  0
    0.8165    1.1163    6.0620 C   0  0  0  1  0  0  0  0  0  0  0  0
    0.5888    0.7151    6.9941 H   0  0  0  1  0  0  0  0  0  0  0  0
    0.1987    0.5560    5.0294 N   0  0  0  1  0  0  0  0  0  0  0  0
    0.5472    1.1378    3.8809 C   0  0  0  1  0  0  0  0  0  0  0  0
  1  2  2  0  0  0  0
  1  3  1  0  0  0  0
  1  4  1  0  0  0  0
  1  8  1  0  0  0  0
  5  6  2  0  0  0  0
  5  7  1  0  0  0  0
  5  8  1  0  0  0  0
  5  9  1  0  0  0  0
  9 10  1  0  0  0  0
 10 11  1  0  0  0  0
 10 12  1  0  0  0  0
 10 13  1  0  0  0  0
 13 14  1  0  0  0  0
 13 15  1  0  0  0  0
 13 16  1  0  0  0  0
 15 24  1  0  0  0  0
 16 17  1  0  0  0  0
 16 18  1  0  0  0  0
 16 20  1  0  0  0  0
 18 19  1  0  0  0  0
 20 21  1  0  0  0  0
 20 22  1  0  0  0  0
 20 24  1  0  0  0  0
 22 23  1  0  0  0  0
 24 25  1  0  0  0  0
 24 26  1  0  0  0  0
 26 27  1  0  0  0  0
 26 39  1  0  0  0  0
 27 28  1  0  0  0  0
 27 29  2  0  0  0  0
 29 30  1  0  0  0  0
 30 31  1  0  0  0  0
 30 39  2  0  0  0  0
 31 32  1  0  0  0  0
 31 35  2  0  0  0  0
 32 33  1  0  0  0  0
 32 34  1  0  0  0  0
 35 36  1  0  0  0  0
 36 37  1  0  0  0  0
 36 38  2  0  0  0  0
 38 39  1  0  0  0  0
M  END
> <ConfClashScore>
0 

> <ConfOneFourInteractionScore>
-0.983365 

> <ConfScore>
-0.0221068 

> <ConfScorePBest>
0.0127295 

> <ConfTolerance>
0.988938 

$$$$
ADP.****
  PyMOL2.5          3D                             0

 39 41  0  0  0  0  0  0  0  0999 V2000
    2.7474   -1.8234   -4.6960 P   0  0  0  1  0  0  0  0  0  0  0  0
    2.7444   -0.8605   -5.8200 O   0  0  0  1  0  0  0  0  0  0  0  0
    4.1580   -1.7367   -3.9042 O   0  5  0  1  0  0  0  0  0  0  0  0
    2.5333   -3.3807   -5.0875 O   0  5  0  1  0  0  0  0  0  0  0  0
    0.4995   -0.4891   -3.3580 P   0  0  0  1  0  0  0  0  0  0  0  0
    0.8313    0.8982   -3.7525 O   0  0  0  1  0  0  0  0  0  0  0  0
   -0.7044   -1.1485   -4.2184 O   0  5  0  1  0  0  0  0  0  0  0  0
    1.7433   -1.4904   -3.4868 O   0  0  0  1  0  0  0  0  0  0  0  0
   -0.0017   -0.6063   -1.8710 O   0  0  0  1  0  0  0  0  0  0  0  0
   -1.0476    0.2604   -1.3697 C   0  0  0  1  0  0  0  0  0  0  0  0
   -1.8589    0.2732   -2.0672 H   0  0  0  1  0  0  0  0  0  0  0  0
   -0.6596    1.2509   -1.2550 H   0  0  0  1  0  0  0  0  0  0  0  0
   -1.5478   -0.2353   -0.0342 C   0  0  0  1  0  0  0  0  0  0  0  0
   -2.0596   -1.1655   -0.1673 H   0  0  0  1  0  0  0  0  0  0  0  0
   -0.4521   -0.3858    0.8958 O   0  0  0  1  0  0  0  0  0  0  0  0
   -2.4792    0.8094    0.6199 C   0  0  0  1  0  0  0  0  0  0  0  0
   -2.2697    1.7906    0.2481 H   0  0  0  1  0  0  0  0  0  0  0  0
   -3.8498    0.4899    0.3763 O   0  0  0  1  0  0  0  0  0  0  0  0
   -4.1908   -0.0349    1.1042 H   0  0  0  1  0  0  0  0  0  0  0  0
   -2.1527    0.7127    2.1288 C   0  0  0  1  0  0  0  0  0  0  0  0
   -1.7848    1.6468    2.4989 H   0  0  0  1  0  0  0  0  0  0  0  0
   -3.3080    0.3261    2.8744 O   0  0  0  1  0  0  0  0  0  0  0  0
   -3.3782   -0.6313    2.8830 H   0  0  0  1  0  0  0  0  0  0  0  0
   -1.0605   -0.3763    2.2052 C   0  0  0  1  0  0  0  0  0  0  0  0
   -1.4942   -1.3293    2.4254 H   0  0  0  1  0  0  0  0  0  0  0  0
   -0.0710   -0.0415    3.2298 N   0  0  0  1  0  0  0  0  0  0  0  0
    1.1750    0.4695    3.0321 C   0  0  0  1  0  0  0  0  0  0  0  0
    1.5478    0.6837    2.0851 H   0  0  0  1  0  0  0  0  0  0  0  0
    1.8668    0.6705    4.1206 N   0  0  0  1  0  0  0  0  0  0  0  0
    1.0071    0.2679    5.1306 C   0  0  0  1  0  0  0  0  0  0  0  0
    1.1018    0.2044    6.5177 C   0  0  0  1  0  0  0  0  0  0  0  0
    2.2080    0.5791    7.2726 N   0  0  0  1  0  0  0  0  0  0  0  0
    3.0207    0.8969    6.8266 H   0  0  0  1  0  0  0  0  0  0  0  0
    2.1748    0.5255    8.2506 H   0  0  0  1  0  0  0  0  0  0  0  0
    0.0667   -0.2491    7.2329 N   0  0  0  1  0  0  0  0  0  0  0  0
   -1.0320   -0.6430    6.5699 C   0  0  0  1  0  0  0  0  0  0  0  0
   -1.8129   -0.9929    7.1611 H   0  0  0  1  0  0  0  0  0  0  0  0
   -1.2564   -0.6464    5.2616 N   0  0  0  1  0  0  0  0  0  0  0  0
   -0.2056   -0.1771    4.5874 C   0  0  0  1  0  0  0  0  0  0  0  0
  1  2  2  0  0  0  0
  1  3  1  0  0  0  0
  1  4  1  0  0  0  0
  1  8  1  0  0  0  0
  5  6  2  0  0  0  0
  5  7  1  0  0  0  0
  5  8  1  0  0  0  0
  5  9  1  0  0  0  0
  9 10  1  0  0  0  0
 10 11  1  0  0  0  0
 10 12  1  0  0  0  0
 10 13  1  0  0  0  0
 13 14  1  0  0  0  0
 13 15  1  0  0  0  0
 13 16  1  0  0  0  0
 15 24  1  0  0  0  0
 16 17  1  0  0  0  0
 16 18  1  0  0  0  0
 16 20  1  0  0  0  0
 18 19  1  0  0  0  0
 20 21  1  0  0  0  0
 20 22  1  0  0  0  0
 20 24  1  0  0  0  0
 22 23  1  0  0  0  0
 24 25  1  0  0  0  0
 24 26  1  0  0  0  0
 26 27  1  0  0  0  0
 26 39  1  0  0  0  0
 27 28  1  0  0  0  0
 27 29  2  0  0  0  0
 29 30  1  0  0  0  0
 30 31  1  0  0  0  0
 30 39  2  0  0  0  0
 31 32  1  0  0  0  0
 31 35  2  0  0  0  0
 32 33  1  0  0  0  0
 32 34  1  0  0  0  0
 35 36  1  0  0  0  0
 36 37  1  0  0  0  0
 36 38  2  0  0  0  0
 38 39  1  0  0  0  0
M  END
> <ConfClashScore>
0 

> <ConfOneFourInteractionScore>
-0.982876 

> <ConfScore>
-0.0217272 

> <ConfScorePBest>
0.0126265 

> <ConfTolerance>
0.682997 

$$$$
ADP.****
  PyMOL2.5          3D                             0

 39 41  0  0  0  0  0  0  0  0999 V2000
   -0.2424    4.9114    2.1838 P   0  0  0  1  0  0  0  0  0  0  0  0
   -1.3220    3.9904    2.6038 O   0  0  0  1  0  0  0  0  0  0  0  0
    0.6743    5.3710    3.4379 O   0  5  0  1  0  0  0  0  0  0  0  0
   -0.5854    6.3104    1.4424 O   0  5  0  1  0  0  0  0  0  0  0  0
    0.4513    3.2927   -0.1033 P   0  0  0  1  0  0  0  0  0  0  0  0
   -0.1936    4.2030   -1.0759 O   0  0  0  1  0  0  0  0  0  0  0  0
    1.9711    3.0359   -0.6020 O   0  5  0  1  0  0  0  0  0  0  0  0
    0.7445    3.9867    1.3154 O   0  0  0  1  0  0  0  0  0  0  0  0
   -0.2492    1.9223    0.2076 O   0  0  0  1  0  0  0  0  0  0  0  0
   -0.6774    1.0007   -0.8226 C   0  0  0  1  0  0  0  0  0  0  0  0
    0.1664    0.6308   -1.3667 H   0  0  0  1  0  0  0  0  0  0  0  0
   -1.3538    1.4828   -1.4970 H   0  0  0  1  0  0  0  0  0  0  0  0
   -1.3715   -0.1267   -0.0968 C   0  0  0  1  0  0  0  0  0  0  0  0
   -1.6459   -0.8873   -0.7977 H   0  0  0  1  0  0  0  0  0  0  0  0
   -0.5087   -0.6720    0.9171 O   0  0  0  1  0  0  0  0  0  0  0  0
   -2.6274    0.4024    0.6388 C   0  0  0  1  0  0  0  0  0  0  0  0
   -2.9428    1.3420    0.2357 H   0  0  0  1  0  0  0  0  0  0  0  0
   -3.7024   -0.5349    0.5605 O   0  0  0  1  0  0  0  0  0  0  0  0
   -4.5360   -0.0786    0.6967 H   0  0  0  1  0  0  0  0  0  0  0  0
   -2.1396    0.5568    2.0685 C   0  0  0  1  0  0  0  0  0  0  0  0
   -1.7022    1.5207    2.2252 H   0  0  0  1  0  0  0  0  0  0  0  0
   -3.2039    0.3590    3.0004 O   0  0  0  1  0  0  0  0  0  0  0  0
   -3.3825    1.1814    3.4622 H   0  0  0  1  0  0  0  0  0  0  0  0
   -1.0860   -0.5559    2.1856 C   0  0  0  1  0  0  0  0  0  0  0  0
   -1.5487   -1.4780    2.4695 H   0  0  0  1  0  0  0  0  0  0  0  0
   -0.0711   -0.1936    3.1753 N   0  0  0  1  0  0  0  0  0  0  0  0
    1.2545    0.0597    2.9976 C   0  0  0  1  0  0  0  0  0  0  0  0
    1.7103    0.0238    2.0635 H   0  0  0  1  0  0  0  0  0  0  0  0
    1.9104    0.3511    4.0879 N   0  0  0  1  0  0  0  0  0  0  0  0
    0.9392    0.2962    5.0755 C   0  0  0  1  0  0  0  0  0  0  0  0
    0.9454    0.4865    6.4542 C   0  0  0  1  0  0  0  0  0  0  0  0
    2.1045    0.8082    7.1097 N   0  0  0  1  0  0  0  0  0  0  0  0
    2.1040    0.9105    8.0844 H   0  0  0  1  0  0  0  0  0  0  0  0
    2.9342    0.9359    6.6041 H   0  0  0  1  0  0  0  0  0  0  0  0
   -0.1910    0.3542    7.1468 N   0  0  0  1  0  0  0  0  0  0  0  0
   -1.3041    0.0243    6.4729 C   0  0  0  1  0  0  0  0  0  0  0  0
   -2.1655   -0.0730    7.0474 H   0  0  0  1  0  0  0  0  0  0  0  0
   -1.4538   -0.1943    5.1722 N   0  0  0  1  0  0  0  0  0  0  0  0
   -0.3015   -0.0413    4.5183 C   0  0  0  1  0  0  0  0  0  0  0  0
  1  2  2  0  0  0  0
  1  3  1  0  0  0  0
  1  4  1  0  0  0  0
  1  8  1  0  0  0  0
  5  6  2  0  0  0  0
  5  7  1  0  0  0  0
  5  8  1  0  0  0  0
  5  9  1  0  0  0  0
  9 10  1  0  0  0  0
 10 11  1  0  0  0  0
 10 12  1  0  0  0  0
 10 13  1  0  0  0  0
 13 14  1  0  0  0  0
 13 15  1  0  0  0  0
 13 16  1  0  0  0  0
 15 24  1  0  0  0  0
 16 17  1  0  0  0  0
 16 18  1  0  0  0  0
 16 20  1  0  0  0  0
 18 19  1  0  0  0  0
 20 21  1  0  0  0  0
 20 22  1  0  0  0  0
 20 24  1  0  0  0  0
 22 23  1  0  0  0  0
 24 25  1  0  0  0  0
 24 26  1  0  0  0  0
 26 27  1  0  0  0  0
 26 39  1  0  0  0  0
 27 28  1  0  0  0  0
 27 29  2  0  0  0  0
 29 30  1  0  0  0  0
 30 31  1  0  0  0  0
 30 39  2  0  0  0  0
 31 32  1  0  0  0  0
 31 35  2  0  0  0  0
 32 33  1  0  0  0  0
 32 34  1  0  0  0  0
 35 36  1  0  0  0  0
 36 37  1  0  0  0  0
 36 38  2  0  0  0  0
 38 39  1  0  0  0  0
M  END
> <ConfClashScore>
0 

> <ConfOneFourInteractionScore>
-0.990604 

> <ConfScore>
-0.0216678 

> <ConfScorePBest>
0.0125235 

> <ConfTolerance>
0.910448 

$$$$
ADP.****
  PyMOL2.5          3D                             0

 39 41  0  0  0  0  0  0  0  0999 V2000
    3.4182    3.1473   -1.0638 P   0  0  0  1  0  0  0  0  0  0  0  0
    3.1344    4.0111   -2.2315 O   0  0  0  1  0  0  0  0  0  0  0  0
    3.4940    3.8899    0.3740 O   0  5  0  1  0  0  0  0  0  0  0  0
    4.7263    2.1998   -1.1883 O   0  5  0  1  0  0  0  0  0  0  0  0
    1.6835    1.1506   -2.1729 P   0  0  0  1  0  0  0  0  0  0  0  0
    1.1840    1.9293   -3.3281 O   0  0  0  1  0  0  0  0  0  0  0  0
    2.7834    0.0312   -2.5747 O   0  5  0  1  0  0  0  0  0  0  0  0
    2.2755    2.0095   -0.9345 O   0  0  0  1  0  0  0  0  0  0  0  0
    0.6170    0.3195   -1.3679 O   0  0  0  1  0  0  0  0  0  0  0  0
   -0.5747    0.9515   -0.8442 C   0  0  0  1  0  0  0  0  0  0  0  0
   -1.1239    1.3909   -1.6506 H   0  0  0  1  0  0  0  0  0  0  0  0
   -0.2925    1.7130   -0.1476 H   0  0  0  1  0  0  0  0  0  0  0  0
   -1.4462   -0.0645   -0.1444 C   0  0  0  1  0  0  0  0  0  0  0  0
   -1.8083   -0.7757   -0.8571 H   0  0  0  1  0  0  0  0  0  0  0  0
   -0.7010   -0.7314    0.8898 O   0  0  0  1  0  0  0  0  0  0  0  0
   -2.6321    0.6406    0.5591 C   0  0  0  1  0  0  0  0  0  0  0  0
   -2.7958    1.6168    0.1529 H   0  0  0  1  0  0  0  0  0  0  0  0
   -3.8293   -0.1300    0.4455 O   0  0  0  1  0  0  0  0  0  0  0  0
   -3.8813   -0.7509    1.1758 H   0  0  0  1  0  0  0  0  0  0  0  0
   -2.1677    0.7198    2.0027 C   0  0  0  1  0  0  0  0  0  0  0  0
   -1.5993    1.6094    2.1772 H   0  0  0  1  0  0  0  0  0  0  0  0
   -3.2754    0.6774    2.9035 O   0  0  0  1  0  0  0  0  0  0  0  0
   -2.9904    0.3138    3.7450 H   0  0  0  1  0  0  0  0  0  0  0  0
   -1.2910   -0.5348    2.1425 C   0  0  0  1  0  0  0  0  0  0  0  0
   -1.8908   -1.3801    2.4080 H   0  0  0  1  0  0  0  0  0  0  0  0
   -0.2626   -0.3259    3.1622 N   0  0  0  1  0  0  0  0  0  0  0  0
    1.0683   -0.1273    2.9574 C   0  0  0  1  0  0  0  0  0  0  0  0
    1.4898   -0.0988    2.0071 H   0  0  0  1  0  0  0  0  0  0  0  0
    1.7759    0.0245    4.0438 N   0  0  0  1  0  0  0  0  0  0  0  0
    0.8370   -0.0721    5.0589 C   0  0  0  1  0  0  0  0  0  0  0  0
    0.9002   -0.0137    6.4480 C   0  0  0  1  0  0  0  0  0  0  0  0
    2.0554    0.2712    7.1943 N   0  0  0  1  0  0  0  0  0  0  0  0
    2.9208    0.3599    6.7430 H   0  0  0  1  0  0  0  0  0  0  0  0
    1.9961    0.3812    8.1663 H   0  0  0  1  0  0  0  0  0  0  0  0
   -0.2179   -0.1506    7.1690 N   0  0  0  1  0  0  0  0  0  0  0  0
   -1.3698   -0.3559    6.5111 C   0  0  0  1  0  0  0  0  0  0  0  0
   -2.2155   -0.4614    7.1071 H   0  0  0  1  0  0  0  0  0  0  0  0
   -1.5753   -0.4423    5.2025 N   0  0  0  1  0  0  0  0  0  0  0  0
   -0.4388   -0.2893    4.5213 C   0  0  0  1  0  0  0  0  0  0  0  0
  1  2  2  0  0  0  0
  1  3  1  0  0  0  0
  1  4  1  0  0  0  0
  1  8  1  0  0  0  0
  5  6  2  0  0  0  0
  5  7  1  0  0  0  0
  5  8  1  0  0  0  0
  5  9  1  0  0  0  0
  9 10  1  0  0  0  0
 10 11  1  0  0  0  0
 10 12  1  0  0  0  0
 10 13  1  0  0  0  0
 13 14  1  0  0  0  0
 13 15  1  0  0  0  0
 13 16  1  0  0  0  0
 15 24  1  0  0  0  0
 16 17  1  0  0  0  0
 16 18  1  0  0  0  0
 16 20  1  0  0  0  0
 18 19  1  0  0  0  0
 20 21  1  0  0  0  0
 20 22  1  0  0  0  0
 20 24  1  0  0  0  0
 22 23  1  0  0  0  0
 24 25  1  0  0  0  0
 24 26  1  0  0  0  0
 26 27  1  0  0  0  0
 26 39  1  0  0  0  0
 27 28  1  0  0  0  0
 27 29  2  0  0  0  0
 29 30  1  0  0  0  0
 30 31  1  0  0  0  0
 30 39  2  0  0  0  0
 31 32  1  0  0  0  0
 31 35  2  0  0  0  0
 32 33  1  0  0  0  0
 32 34  1  0  0  0  0
 35 36  1  0  0  0  0
 36 37  1  0  0  0  0
 36 38  2  0  0  0  0
 38 39  1  0  0  0  0
M  END
> <ConfClashScore>
0 

> <ConfOneFourInteractionScore>
-0.976069 

> <ConfScore>
-0.0200117 

> <ConfScorePBest>
0.0124205 

> <ConfTolerance>
0.838782 

$$$$
ADP.****
  PyMOL2.5          3D                             0

 39 41  0  0  0  0  0  0  0  0999 V2000
   -0.9320   -0.4396   -5.8723 P   0  0  0  1  0  0  0  0  0  0  0  0
   -0.4029    0.8865   -6.2619 O   0  0  0  1  0  0  0  0  0  0  0  0
    0.3129   -1.4720   -5.9669 O   0  5  0  1  0  0  0  0  0  0  0  0
   -2.1897   -0.9732   -6.7429 O   0  5  0  1  0  0  0  0  0  0  0  0
   -2.4261    0.6557   -3.6829 P   0  0  0  1  0  0  0  0  0  0  0  0
   -2.0647    2.0838   -3.8252 O   0  0  0  1  0  0  0  0  0  0  0  0
   -3.8453    0.2431   -4.3463 O   0  5  0  1  0  0  0  0  0  0  0  0
   -1.4253   -0.4393   -4.3317 O   0  0  0  1  0  0  0  0  0  0  0  0
   -2.4731    0.2174   -2.1723 O   0  0  0  1  0  0  0  0  0  0  0  0
   -1.2803    0.2627   -1.3471 C   0  0  0  1  0  0  0  0  0  0  0  0
   -0.9184    1.2677   -1.2847 H   0  0  0  1  0  0  0  0  0  0  0  0
   -0.5222   -0.3645   -1.7676 H   0  0  0  1  0  0  0  0  0  0  0  0
   -1.6607   -0.2426    0.0489 C   0  0  0  1  0  0  0  0  0  0  0  0
   -2.1734   -1.1779   -0.0373 H   0  0  0  1  0  0  0  0  0  0  0  0
   -0.4853   -0.3810    0.8779 O   0  0  0  1  0  0  0  0  0  0  0  0
   -2.5402    0.7945    0.7821 C   0  0  0  1  0  0  0  0  0  0  0  0
   -2.3740    1.7770    0.3921 H   0  0  0  1  0  0  0  0  0  0  0  0
   -3.9240    0.4616    0.6616 O   0  0  0  1  0  0  0  0  0  0  0  0
   -4.0711   -0.0022   -0.1659 H   0  0  0  1  0  0  0  0  0  0  0  0
   -2.0799    0.7037    2.2561 C   0  0  0  1  0  0  0  0  0  0  0  0
   -1.6896    1.6419    2.5911 H   0  0  0  1  0  0  0  0  0  0  0  0
   -3.1606    0.3076    3.1018 O   0  0  0  1  0  0  0  0  0  0  0  0
   -3.4517   -0.5742    2.8582 H   0  0  0  1  0  0  0  0  0  0  0  0
   -0.9749   -0.3748    2.2362 C   0  0  0  1  0  0  0  0  0  0  0  0
   -1.3782   -1.3314    2.4951 H   0  0  0  1  0  0  0  0  0  0  0  0
    0.0978   -0.0290    3.1678 N   0  0  0  1  0  0  0  0  0  0  0  0
    1.3523    0.3815    2.8352 C   0  0  0  1  0  0  0  0  0  0  0  0
    1.6104    0.6631    1.8679 H   0  0  0  1  0  0  0  0  0  0  0  0
    2.2069    0.3950    3.8218 N   0  0  0  1  0  0  0  0  0  0  0  0
    1.4576   -0.0343    4.9062 C   0  0  0  1  0  0  0  0  0  0  0  0
    1.7374   -0.2595    6.2508 C   0  0  0  1  0  0  0  0  0  0  0  0
    3.0194   -0.0289    6.7049 N   0  0  0  1  0  0  0  0  0  0  0  0
    3.2433   -0.1936    7.6447 H   0  0  0  1  0  0  0  0  0  0  0  0
    3.7062    0.2996    6.0878 H   0  0  0  1  0  0  0  0  0  0  0  0
    0.7689   -0.6901    7.0664 N   0  0  0  1  0  0  0  0  0  0  0  0
   -0.4479   -0.9033    6.5411 C   0  0  0  1  0  0  0  0  0  0  0  0
   -1.1720   -1.2415    7.2065 H   0  0  0  1  0  0  0  0  0  0  0  0
   -0.8515   -0.7408    5.2871 N   0  0  0  1  0  0  0  0  0  0  0  0
    0.1398   -0.3007    4.5109 C   0  0  0  1  0  0  0  0  0  0  0  0
  1  2  2  0  0  0  0
  1  3  1  0  0  0  0
  1  4  1  0  0  0  0
  1  8  1  0  0  0  0
  5  6  2  0  0  0  0
  5  7  1  0  0  0  0
  5  8  1  0  0  0  0
  5  9  1  0  0  0  0
  9 10  1  0  0  0  0
 10 11  1  0  0  0  0
 10 12  1  0  0  0  0
 10 13  1  0  0  0  0
 13 14  1  0  0  0  0
 13 15  1  0  0  0  0
 13 16  1  0  0  0  0
 15 24  1  0  0  0  0
 16 17  1  0  0  0  0
 16 18  1  0  0  0  0
 16 20  1  0  0  0  0
 18 19  1  0  0  0  0
 20 21  1  0  0  0  0
 20 22  1  0  0  0  0
 20 24  1  0  0  0  0
 22 23  1  0  0  0  0
 24 25  1  0  0  0  0
 24 26  1  0  0  0  0
 26 27  1  0  0  0  0
 26 39  1  0  0  0  0
 27 28  1  0  0  0  0
 27 29  2  0  0  0  0
 29 30  1  0  0  0  0
 30 31  1  0  0  0  0
 30 39  2  0  0  0  0
 31 32  1  0  0  0  0
 31 35  2  0  0  0  0
 32 33  1  0  0  0  0
 32 34  1  0  0  0  0
 35 36  1  0  0  0  0
 36 37  1  0  0  0  0
 36 38  2  0  0  0  0
 38 39  1  0  0  0  0
M  END
> <ConfClashScore>
0 

> <ConfOneFourInteractionScore>
-0.976069 

> <ConfScore>
-0.014413 

> <ConfScorePBest>
0.0123175 

> <ConfTolerance>
0.844221 

$$$$
ADP.****
  PyMOL2.5          3D                             0

 39 41  0  0  0  0  0  0  0  0999 V2000
   -2.1455    2.9145   -4.7574 P   0  0  0  1  0  0  0  0  0  0  0  0
   -3.4932    3.2730   -4.2619 O   0  0  0  1  0  0  0  0  0  0  0  0
   -0.9626    3.9634   -4.4042 O   0  5  0  1  0  0  0  0  0  0  0  0
   -2.0293    2.6942   -6.3582 O   0  5  0  1  0  0  0  0  0  0  0  0
   -2.1224    0.1983   -3.7806 P   0  0  0  1  0  0  0  0  0  0  0  0
   -3.4139   -0.0421   -4.4622 O   0  0  0  1  0  0  0  0  0  0  0  0
   -1.0623   -0.9254   -4.2686 O   0  5  0  1  0  0  0  0  0  0  0  0
   -1.4307    1.5826   -4.2113 O   0  0  0  1  0  0  0  0  0  0  0  0
   -2.2819    0.0589   -2.2214 O   0  0  0  1  0  0  0  0  0  0  0  0
   -1.1328    0.1525   -1.3469 C   0  0  0  1  0  0  0  0  0  0  0  0
   -0.8021    1.1683   -1.2872 H   0  0  0  1  0  0  0  0  0  0  0  0
   -0.3393   -0.4601   -1.7210 H   0  0  0  1  0  0  0  0  0  0  0  0
   -1.5558   -0.3316    0.0193 C   0  0  0  1  0  0  0  0  0  0  0  0
   -1.9924   -1.3047   -0.0660 H   0  0  0  1  0  0  0  0  0  0  0  0
   -0.4277   -0.3571    0.9220 O   0  0  0  1  0  0  0  0  0  0  0  0
   -2.5529    0.6577    0.6625 C   0  0  0  1  0  0  0  0  0  0  0  0
   -2.4347    1.6380    0.2503 H   0  0  0  1  0  0  0  0  0  0  0  0
   -3.8983    0.2186    0.4700 O   0  0  0  1  0  0  0  0  0  0  0  0
   -4.3974    0.9033    0.0187 H   0  0  0  1  0  0  0  0  0  0  0  0
   -2.1806    0.6448    2.1639 C   0  0  0  1  0  0  0  0  0  0  0  0
   -1.8816    1.6191    2.4899 H   0  0  0  1  0  0  0  0  0  0  0  0
   -3.2804    0.1938    2.9557 O   0  0  0  1  0  0  0  0  0  0  0  0
   -3.0479   -0.6322    3.3862 H   0  0  0  1  0  0  0  0  0  0  0  0
   -1.0007   -0.3479    2.2472 C   0  0  0  1  0  0  0  0  0  0  0  0
   -1.3486   -1.3241    2.5135 H   0  0  0  1  0  0  0  0  0  0  0  0
   -0.0143    0.1056    3.2321 N   0  0  0  1  0  0  0  0  0  0  0  0
    0.5738   -0.6390    4.2080 C   0  0  0  1  0  0  0  0  0  0  0  0
    0.3675   -1.6496    4.3411 H   0  0  0  1  0  0  0  0  0  0  0  0
    1.4162    0.0108    4.9642 N   0  0  0  1  0  0  0  0  0  0  0  0
    1.3953    1.2955    4.4438 C   0  0  0  1  0  0  0  0  0  0  0  0
    2.0390    2.4854    4.7706 C   0  0  0  1  0  0  0  0  0  0  0  0
    2.9250    2.5934    5.8027 N   0  0  0  1  0  0  0  0  0  0  0  0
    3.0872    1.8269    6.3914 H   0  0  0  1  0  0  0  0  0  0  0  0
    3.3991    3.4374    5.9552 H   0  0  0  1  0  0  0  0  0  0  0  0
    1.7953    3.5890    4.0556 N   0  0  0  1  0  0  0  0  0  0  0  0
    0.9153    3.5031    3.0456 C   0  0  0  1  0  0  0  0  0  0  0  0
    0.7502    4.3833    2.5168 H   0  0  0  1  0  0  0  0  0  0  0  0
    0.2273    2.4465    2.6307 N   0  0  0  1  0  0  0  0  0  0  0  0
    0.5076    1.3668    3.3619 C   0  0  0  1  0  0  0  0  0  0  0  0
  1  2  2  0  0  0  0
  1  3  1  0  0  0  0
  1  4  1  0  0  0  0
  1  8  1  0  0  0  0
  5  6  2  0  0  0  0
  5  7  1  0  0  0  0
  5  8  1  0  0  0  0
  5  9  1  0  0  0  0
  9 10  1  0  0  0  0
 10 11  1  0  0  0  0
 10 12  1  0  0  0  0
 10 13  1  0  0  0  0
 13 14  1  0  0  0  0
 13 15  1  0  0  0  0
 13 16  1  0  0  0  0
 15 24  1  0  0  0  0
 16 17  1  0  0  0  0
 16 18  1  0  0  0  0
 16 20  1  0  0  0  0
 18 19  1  0  0  0  0
 20 21  1  0  0  0  0
 20 22  1  0  0  0  0
 20 24  1  0  0  0  0
 22 23  1  0  0  0  0
 24 25  1  0  0  0  0
 24 26  1  0  0  0  0
 26 27  1  0  0  0  0
 26 39  1  0  0  0  0
 27 28  1  0  0  0  0
 27 29  2  0  0  0  0
 29 30  1  0  0  0  0
 30 31  1  0  0  0  0
 30 39  2  0  0  0  0
 31 32  1  0  0  0  0
 31 35  2  0  0  0  0
 32 33  1  0  0  0  0
 32 34  1  0  0  0  0
 35 36  1  0  0  0  0
 36 37  1  0  0  0  0
 36 38  2  0  0  0  0
 38 39  1  0  0  0  0
M  END
> <ConfClashScore>
0 

> <ConfOneFourInteractionScore>
-0.973399 

> <ConfScore>
-0.0131813 

> <ConfScorePBest>
0.0122145 

> <ConfTolerance>
0.982412 

$$$$
ADP.****
  PyMOL2.5          3D                             0

 39 41  0  0  0  0  0  0  0  0999 V2000
    1.3982   -3.3700   -2.6755 P   0  0  0  1  0  0  0  0  0  0  0  0
    1.9632   -3.2024   -1.3179 O   0  0  0  1  0  0  0  0  0  0  0  0
   -0.1619   -3.7992   -2.7550 O   0  5  0  1  0  0  0  0  0  0  0  0
    2.2611   -4.4477   -3.5231 O   0  5  0  1  0  0  0  0  0  0  0  0
    0.4225   -0.7638   -3.3694 P   0  0  0  1  0  0  0  0  0  0  0  0
    1.1077    0.4651   -3.8285 O   0  0  0  1  0  0  0  0  0  0  0  0
   -0.6972   -1.2643   -4.4277 O   0  5  0  1  0  0  0  0  0  0  0  0
    1.4816   -1.9815   -3.5012 O   0  0  0  1  0  0  0  0  0  0  0  0
   -0.1287   -0.7570   -1.9033 O   0  0  0  1  0  0  0  0  0  0  0  0
   -1.0739    0.1999   -1.3696 C   0  0  0  1  0  0  0  0  0  0  0  0
   -1.9201    0.2776   -2.0197 H   0  0  0  1  0  0  0  0  0  0  0  0
   -0.6076    1.1582   -1.2740 H   0  0  0  1  0  0  0  0  0  0  0  0
   -1.5133   -0.2981   -0.0082 C   0  0  0  1  0  0  0  0  0  0  0  0
   -1.9695   -1.2606   -0.1100 H   0  0  0  1  0  0  0  0  0  0  0  0
   -0.3894   -0.3608    0.8980 O   0  0  0  1  0  0  0  0  0  0  0  0
   -2.4923    0.7015    0.6469 C   0  0  0  1  0  0  0  0  0  0  0  0
   -2.3524    1.6854    0.2504 H   0  0  0  1  0  0  0  0  0  0  0  0
   -3.8423    0.2943    0.4435 O   0  0  0  1  0  0  0  0  0  0  0  0
   -4.3587    0.4930    1.2280 H   0  0  0  1  0  0  0  0  0  0  0  0
   -2.1260    0.6578    2.1491 C   0  0  0  1  0  0  0  0  0  0  0  0
   -1.8083    1.6205    2.4913 H   0  0  0  1  0  0  0  0  0  0  0  0
   -3.2379    0.2173    2.9301 O   0  0  0  1  0  0  0  0  0  0  0  0
   -3.7037   -0.4785    2.4605 H   0  0  0  1  0  0  0  0  0  0  0  0
   -0.9671   -0.3602    2.2212 C   0  0  0  1  0  0  0  0  0  0  0  0
   -1.3360   -1.3331    2.4711 H   0  0  0  1  0  0  0  0  0  0  0  0
    0.0247    0.0576    3.2164 N   0  0  0  1  0  0  0  0  0  0  0  0
    0.6398   -0.6786    4.1819 C   0  0  0  1  0  0  0  0  0  0  0  0
    0.4556   -1.6937    4.3136 H   0  0  0  1  0  0  0  0  0  0  0  0
    1.4784   -0.0147    4.9301 N   0  0  0  1  0  0  0  0  0  0  0  0
    1.4251    1.2712    4.4151 C   0  0  0  1  0  0  0  0  0  0  0  0
    2.0487    2.4727    4.7386 C   0  0  0  1  0  0  0  0  0  0  0  0
    2.9419    2.5392    5.7752 N   0  0  0  1  0  0  0  0  0  0  0  0
    3.2005    1.7231    6.2523 H   0  0  0  1  0  0  0  0  0  0  0  0
    3.3222    3.4028    6.0396 H   0  0  0  1  0  0  0  0  0  0  0  0
    1.7739    3.5738    4.0309 N   0  0  0  1  0  0  0  0  0  0  0  0
    0.8832    3.4738    3.0317 C   0  0  0  1  0  0  0  0  0  0  0  0
    0.6938    4.3524    2.5084 H   0  0  0  1  0  0  0  0  0  0  0  0
    0.2115    2.4050    2.6212 N   0  0  0  1  0  0  0  0  0  0  0  0
    0.5226    1.3285    3.3446 C   0  0  0  1  0  0  0  0  0  0  0  0
  1  2  2  0  0  0  0
  1  3  1  0  0  0  0
  1  4  1  0  0  0  0
  1  8  1  0  0  0  0
  5  6  2  0  0  0  0
  5  7  1  0  0  0  0
  5  8  1  0  0  0  0
  5  9  1  0  0  0  0
  9 10  1  0  0  0  0
 10 11  1  0  0  0  0
 10 12  1  0  0  0  0
 10 13  1  0  0  0  0
 13 14  1  0  0  0  0
 13 15  1  0  0  0  0
 13 16  1  0  0  0  0
 15 24  1  0  0  0  0
 16 17  1  0  0  0  0
 16 18  1  0  0  0  0
 16 20  1  0  0  0  0
 18 19  1  0  0  0  0
 20 21  1  0  0  0  0
 20 22  1  0  0  0  0
 20 24  1  0  0  0  0
 22 23  1  0  0  0  0
 24 25  1  0  0  0  0
 24 26  1  0  0  0  0
 26 27  1  0  0  0  0
 26 39  1  0  0  0  0
 27 28  1  0  0  0  0
 27 29  2  0  0  0  0
 29 30  1  0  0  0  0
 30 31  1  0  0  0  0
 30 39  2  0  0  0  0
 31 32  1  0  0  0  0
 31 35  2  0  0  0  0
 32 33  1  0  0  0  0
 32 34  1  0  0  0  0
 35 36  1  0  0  0  0
 36 37  1  0  0  0  0
 36 38  2  0  0  0  0
 38 39  1  0  0  0  0
M  END
> <ConfClashScore>
0 

> <ConfOneFourInteractionScore>
-0.977602 

> <ConfScore>
-0.0120778 

> <ConfScorePBest>
0.0121115 

> <ConfTolerance>
1.10354 

$$$$
ADP.****
  PyMOL2.5          3D                             0

 39 41  0  0  0  0  0  0  0  0999 V2000
   -1.2619    4.9087   -2.2427 P   0  0  0  1  0  0  0  0  0  0  0  0
   -2.5820    4.3227   -1.9195 O   0  0  0  1  0  0  0  0  0  0  0  0
   -1.0665    6.3222   -1.4758 O   0  5  0  1  0  0  0  0  0  0  0  0
   -1.3234    5.4680   -3.7618 O   0  5  0  1  0  0  0  0  0  0  0  0
   -0.0327    2.2501   -2.4537 P   0  0  0  1  0  0  0  0  0  0  0  0
   -0.9859    1.9012   -3.5309 O   0  0  0  1  0  0  0  0  0  0  0  0
    1.5553    1.9835   -2.6310 O   0  5  0  1  0  0  0  0  0  0  0  0
   -0.1043    3.8065   -2.0810 O   0  0  0  1  0  0  0  0  0  0  0  0
   -0.6224    1.5348   -1.1717 O   0  0  0  1  0  0  0  0  0  0  0  0
   -1.2822    0.2571   -1.3325 C   0  0  0  1  0  0  0  0  0  0  0  0
   -0.6191   -0.4388   -1.8026 H   0  0  0  1  0  0  0  0  0  0  0  0
   -2.1610    0.3737   -1.9316 H   0  0  0  1  0  0  0  0  0  0  0  0
   -1.6606   -0.2420    0.0467 C   0  0  0  1  0  0  0  0  0  0  0  0
   -2.1737   -1.1769   -0.0401 H   0  0  0  1  0  0  0  0  0  0  0  0
   -0.4865   -0.3810    0.8776 O   0  0  0  1  0  0  0  0  0  0  0  0
   -2.5405    0.7958    0.7785 C   0  0  0  1  0  0  0  0  0  0  0  0
   -2.3730    1.7781    0.3886 H   0  0  0  1  0  0  0  0  0  0  0  0
   -3.9243    0.4637    0.6559 O   0  0  0  1  0  0  0  0  0  0  0  0
   -4.0712    0.0040   -0.1739 H   0  0  0  1  0  0  0  0  0  0  0  0
   -2.0825    0.7049    2.2531 C   0  0  0  1  0  0  0  0  0  0  0  0
   -1.6921    1.6429    2.5886 H   0  0  0  1  0  0  0  0  0  0  0  0
   -3.1648    0.3096    3.0973 O   0  0  0  1  0  0  0  0  0  0  0  0
   -3.4299   -0.5871    2.8797 H   0  0  0  1  0  0  0  0  0  0  0  0
   -0.9782   -0.3743    2.2351 C   0  0  0  1  0  0  0  0  0  0  0  0
   -1.3825   -1.3307    2.4935 H   0  0  0  1  0  0  0  0  0  0  0  0
    0.0959   -0.0282    3.1705 N   0  0  0  1  0  0  0  0  0  0  0  0
    0.7434   -0.8677    4.0242 C   0  0  0  1  0  0  0  0  0  0  0  0
    0.5242   -1.8826    4.0841 H   0  0  0  1  0  0  0  0  0  0  0  0
    1.6602   -0.3030    4.7622 N   0  0  0  1  0  0  0  0  0  0  0  0
    1.6281    1.0236    4.3611 C   0  0  0  1  0  0  0  0  0  0  0  0
    2.3248    2.1681    4.7372 C   0  0  0  1  0  0  0  0  0  0  0  0
    3.2943    2.1676    5.6973 N   0  0  0  1  0  0  0  0  0  0  0  0
    3.7873    2.9909    5.8964 H   0  0  0  1  0  0  0  0  0  0  0  0
    3.4977    1.3439    6.1879 H   0  0  0  1  0  0  0  0  0  0  0  0
    2.0505    3.3357    4.1455 N   0  0  0  1  0  0  0  0  0  0  0  0
    1.0892    3.3561    3.2088 C   0  0  0  1  0  0  0  0  0  0  0  0
    0.9029    4.2831    2.7756 H   0  0  0  1  0  0  0  0  0  0  0  0
    0.3444    2.3530    2.7607 N   0  0  0  1  0  0  0  0  0  0  0  0
    0.6570    1.2071    3.3676 C   0  0  0  1  0  0  0  0  0  0  0  0
  1  2  2  0  0  0  0
  1  3  1  0  0  0  0
  1  4  1  0  0  0  0
  1  8  1  0  0  0  0
  5  6  2  0  0  0  0
  5  7  1  0  0  0  0
  5  8  1  0  0  0  0
  5  9  1  0  0  0  0
  9 10  1  0  0  0  0
 10 11  1  0  0  0  0
 10 12  1  0  0  0  0
 10 13  1  0  0  0  0
 13 14  1  0  0  0  0
 13 15  1  0  0  0  0
 13 16  1  0  0  0  0
 15 24  1  0  0  0  0
 16 17  1  0  0  0  0
 16 18  1  0  0  0  0
 16 20  1  0  0  0  0
 18 19  1  0  0  0  0
 20 21  1  0  0  0  0
 20 22  1  0  0  0  0
 20 24  1  0  0  0  0
 22 23  1  0  0  0  0
 24 25  1  0  0  0  0
 24 26  1  0  0  0  0
 26 27  1  0  0  0  0
 26 39  1  0  0  0  0
 27 28  1  0  0  0  0
 27 29  2  0  0  0  0
 29 30  1  0  0  0  0
 30 31  1  0  0  0  0
 30 39  2  0  0  0  0
 31 32  1  0  0  0  0
 31 35  2  0  0  0  0
 32 33  1  0  0  0  0
 32 34  1  0  0  0  0
 35 36  1  0  0  0  0
 36 37  1  0  0  0  0
 36 38  2  0  0  0  0
 38 39  1  0  0  0  0
M  END
> <ConfClashScore>
0 

> <ConfOneFourInteractionScore>
-0.987502 

> <ConfScore>
-0.0111768 

> <ConfScorePBest>
0.0120085 

> <ConfTolerance>
0.965665 

$$$$
ADP.****
  PyMOL2.5          3D                             0

 39 41  0  0  0  0  0  0  0  0999 V2000
   -4.2148    1.3068   -5.8270 P   0  0  0  1  0  0  0  0  0  0  0  0
   -3.7011    0.3638   -6.8455 O   0  0  0  1  0  0  0  0  0  0  0  0
   -5.8282    1.4425   -5.7734 O   0  5  0  1  0  0  0  0  0  0  0  0
   -3.5427    2.7474   -6.1390 O   0  5  0  1  0  0  0  0  0  0  0  0
   -2.2778    0.8978   -3.7263 P   0  0  0  1  0  0  0  0  0  0  0  0
   -1.3345    0.2184   -4.6422 O   0  0  0  1  0  0  0  0  0  0  0  0
   -1.9825    2.4907   -3.7217 O   0  5  0  1  0  0  0  0  0  0  0  0
   -3.7593    0.8769   -4.3469 O   0  0  0  1  0  0  0  0  0  0  0  0
   -2.2951    0.3285   -2.2630 O   0  0  0  1  0  0  0  0  0  0  0  0
   -1.1709    0.4451   -1.3528 C   0  0  0  1  0  0  0  0  0  0  0  0
   -0.9292    1.4765   -1.2025 H   0  0  0  1  0  0  0  0  0  0  0  0
   -0.3214   -0.0658   -1.7556 H   0  0  0  1  0  0  0  0  0  0  0  0
   -1.5761   -0.1855   -0.0398 C   0  0  0  1  0  0  0  0  0  0  0  0
   -2.0151   -1.1437   -0.2242 H   0  0  0  1  0  0  0  0  0  0  0  0
   -0.4357   -0.3087    0.8390 O   0  0  0  1  0  0  0  0  0  0  0  0
   -2.5629    0.7279    0.7209 C   0  0  0  1  0  0  0  0  0  0  0  0
   -2.4492    1.7472    0.4160 H   0  0  0  1  0  0  0  0  0  0  0  0
   -3.9115    0.3120    0.5006 O   0  0  0  1  0  0  0  0  0  0  0  0
   -3.9200   -0.4560   -0.0753 H   0  0  0  1  0  0  0  0  0  0  0  0
   -2.1699    0.5521    2.2066 C   0  0  0  1  0  0  0  0  0  0  0  0
   -1.8651    1.4852    2.6323 H   0  0  0  1  0  0  0  0  0  0  0  0
   -3.2592    0.0175    2.9600 O   0  0  0  1  0  0  0  0  0  0  0  0
   -3.4943    0.6290    3.6617 H   0  0  0  1  0  0  0  0  0  0  0  0
   -0.9903   -0.4436    2.1653 C   0  0  0  1  0  0  0  0  0  0  0  0
   -1.3357   -1.4430    2.3288 H   0  0  0  1  0  0  0  0  0  0  0  0
    0.0099   -0.0997    3.1794 N   0  0  0  1  0  0  0  0  0  0  0  0
    0.7235    1.0587    3.2203 C   0  0  0  1  0  0  0  0  0  0  0  0
    0.6572    1.7829    2.4768 H   0  0  0  1  0  0  0  0  0  0  0  0
    1.4971    1.1923    4.2631 N   0  0  0  1  0  0  0  0  0  0  0  0
    1.2749    0.0290    4.9834 C   0  0  0  1  0  0  0  0  0  0  0  0
    1.7736   -0.4833    6.1774 C   0  0  0  1  0  0  0  0  0  0  0  0
    2.7075    0.1387    6.9989 N   0  0  0  1  0  0  0  0  0  0  0  0
    3.1547    0.9578    6.6999 H   0  0  0  1  0  0  0  0  0  0  0  0
    2.9185   -0.2421    7.8769 H   0  0  0  1  0  0  0  0  0  0  0  0
    1.3499   -1.6733    6.6167 N   0  0  0  1  0  0  0  0  0  0  0  0
    0.4574   -2.3395    5.8672 C   0  0  0  1  0  0  0  0  0  0  0  0
    0.1562   -3.2623    6.2406 H   0  0  0  1  0  0  0  0  0  0  0  0
   -0.0924   -1.9796    4.7139 N   0  0  0  1  0  0  0  0  0  0  0  0
    0.3478   -0.7845    4.3180 C   0  0  0  1  0  0  0  0  0  0  0  0
  1  2  2  0  0  0  0
  1  3  1  0  0  0  0
  1  4  1  0  0  0  0
  1  8  1  0  0  0  0
  5  6  2  0  0  0  0
  5  7  1  0  0  0  0
  5  8  1  0  0  0  0
  5  9  1  0  0  0  0
  9 10  1  0  0  0  0
 10 11  1  0  0  0  0
 10 12  1  0  0  0  0
 10 13  1  0  0  0  0
 13 14  1  0  0  0  0
 13 15  1  0  0  0  0
 13 16  1  0  0  0  0
 15 24  1  0  0  0  0
 16 17  1  0  0  0  0
 16 18  1  0  0  0  0
 16 20  1  0  0  0  0
 18 19  1  0  0  0  0
 20 21  1  0  0  0  0
 20 22  1  0  0  0  0
 20 24  1  0  0  0  0
 22 23  1  0  0  0  0
 24 25  1  0  0  0  0
 24 26  1  0  0  0  0
 26 27  1  0  0  0  0
 26 39  1  0  0  0  0
 27 28  1  0  0  0  0
 27 29  2  0  0  0  0
 29 30  1  0  0  0  0
 30 31  1  0  0  0  0
 30 39  2  0  0  0  0
 31 32  1  0  0  0  0
 31 35  2  0  0  0  0
 32 33  1  0  0  0  0
 32 34  1  0  0  0  0
 35 36  1  0  0  0  0
 36 37  1  0  0  0  0
 36 38  2  0  0  0  0
 38 39  1  0  0  0  0
M  END
> <ConfClashScore>
0 

> <ConfOneFourInteractionScore>
-0.976069 

> <ConfScore>
-0.0111047 

> <ConfScorePBest>
0.0119055 

> <ConfTolerance>
0.864453 

$$$$
ADP.****
  PyMOL2.5          3D                             0

 39 41  0  0  0  0  0  0  0  0999 V2000
    1.4787    2.5187   -2.8053 P   0  0  0  1  0  0  0  0  0  0  0  0
    1.1146    3.1744   -4.0812 O   0  0  0  1  0  0  0  0  0  0  0  0
    0.4126    2.7764   -1.6131 O   0  5  0  1  0  0  0  0  0  0  0  0
    2.9348    2.9195   -2.2192 O   0  5  0  1  0  0  0  0  0  0  0  0
    0.3513   -0.2436   -3.3014 P   0  0  0  1  0  0  0  0  0  0  0  0
   -0.6718    0.1254   -4.3052 O   0  0  0  1  0  0  0  0  0  0  0  0
    1.1832   -1.5608   -3.7456 O   0  5  0  1  0  0  0  0  0  0  0  0
    1.3947    0.9279   -2.9760 O   0  0  0  1  0  0  0  0  0  0  0  0
   -0.3121   -0.5729   -1.9131 O   0  0  0  1  0  0  0  0  0  0  0  0
   -1.2968    0.3187   -1.3289 C   0  0  0  1  0  0  0  0  0  0  0  0
   -2.1718    0.3485   -1.9441 H   0  0  0  1  0  0  0  0  0  0  0  0
   -0.8890    1.3039   -1.2400 H   0  0  0  1  0  0  0  0  0  0  0  0
   -1.6479   -0.2187    0.0399 C   0  0  0  1  0  0  0  0  0  0  0  0
   -2.1485   -1.1588   -0.0631 H   0  0  0  1  0  0  0  0  0  0  0  0
   -0.4604   -0.3606    0.8509 O   0  0  0  1  0  0  0  0  0  0  0  0
   -2.5326    0.7875    0.8091 C   0  0  0  1  0  0  0  0  0  0  0  0
   -2.3849    1.7815    0.4414 H   0  0  0  1  0  0  0  0  0  0  0  0
   -3.9129    0.4379    0.6972 O   0  0  0  1  0  0  0  0  0  0  0  0
   -4.0159   -0.2544    0.0401 H   0  0  0  1  0  0  0  0  0  0  0  0
   -2.0527    0.6672    2.2746 C   0  0  0  1  0  0  0  0  0  0  0  0
   -1.6714    1.6024    2.6279 H   0  0  0  1  0  0  0  0  0  0  0  0
   -3.1175    0.2350    3.1237 O   0  0  0  1  0  0  0  0  0  0  0  0
   -3.7977   -0.1879    2.5946 H   0  0  0  1  0  0  0  0  0  0  0  0
   -0.9331   -0.3946    2.2148 C   0  0  0  1  0  0  0  0  0  0  0  0
   -1.3198   -1.3629    2.4549 H   0  0  0  1  0  0  0  0  0  0  0  0
    0.1461   -0.0565    3.1414 N   0  0  0  1  0  0  0  0  0  0  0  0
    1.3028    0.5993    2.8505 C   0  0  0  1  0  0  0  0  0  0  0  0
    1.5268    0.9404    1.8939 H   0  0  0  1  0  0  0  0  0  0  0  0
    2.1097    0.7679    3.8626 N   0  0  0  1  0  0  0  0  0  0  0  0
    1.4306    0.1831    4.9201 C   0  0  0  1  0  0  0  0  0  0  0  0
    1.7118   -0.0014    6.2706 C   0  0  0  1  0  0  0  0  0  0  0  0
    2.8679    0.4144    6.9220 N   0  0  0  1  0  0  0  0  0  0  0  0
    3.5824    0.8567    6.4177 H   0  0  0  1  0  0  0  0  0  0  0  0
    2.9682    0.2651    7.8854 H   0  0  0  1  0  0  0  0  0  0  0  0
    0.8257   -0.6271    7.0529 N   0  0  0  1  0  0  0  0  0  0  0  0
   -0.3093   -1.0699    6.4892 C   0  0  0  1  0  0  0  0  0  0  0  0
   -0.9702   -1.5545    7.1294 H   0  0  0  1  0  0  0  0  0  0  0  0
   -0.7019   -0.9727    5.2249 N   0  0  0  1  0  0  0  0  0  0  0  0
    0.2036   -0.3336    4.4829 C   0  0  0  1  0  0  0  0  0  0  0  0
  1  2  2  0  0  0  0
  1  3  1  0  0  0  0
  1  4  1  0  0  0  0
  1  8  1  0  0  0  0
  5  6  2  0  0  0  0
  5  7  1  0  0  0  0
  5  8  1  0  0  0  0
  5  9  1  0  0  0  0
  9 10  1  0  0  0  0
 10 11  1  0  0  0  0
 10 12  1  0  0  0  0
 10 13  1  0  0  0  0
 13 14  1  0  0  0  0
 13 15  1  0  0  0  0
 13 16  1  0  0  0  0
 15 24  1  0  0  0  0
 16 17  1  0  0  0  0
 16 18  1  0  0  0  0
 16 20  1  0  0  0  0
 18 19  1  0  0  0  0
 20 21  1  0  0  0  0
 20 22  1  0  0  0  0
 20 24  1  0  0  0  0
 22 23  1  0  0  0  0
 24 25  1  0  0  0  0
 24 26  1  0  0  0  0
 26 27  1  0  0  0  0
 26 39  1  0  0  0  0
 27 28  1  0  0  0  0
 27 29  2  0  0  0  0
 29 30  1  0  0  0  0
 30 31  1  0  0  0  0
 30 39  2  0  0  0  0
 31 32  1  0  0  0  0
 31 35  2  0  0  0  0
 32 33  1  0  0  0  0
 32 34  1  0  0  0  0
 35 36  1  0  0  0  0
 36 37  1  0  0  0  0
 36 38  2  0  0  0  0
 38 39  1  0  0  0  0
M  END
> <ConfClashScore>
0 

> <ConfOneFourInteractionScore>
-0.982876 

> <ConfScore>
-0.00973723 

> <ConfScorePBest>
0.0118025 

> <ConfTolerance>
0.973101 

$$$$
ADP.****
  PyMOL2.5          3D                             0

 39 41  0  0  0  0  0  0  0  0999 V2000
    0.3706    3.4653   -4.8976 P   0  0  0  1  0  0  0  0  0  0  0  0
    1.1932    4.4707   -4.1885 O   0  0  0  1  0  0  0  0  0  0  0  0
    1.3294    2.6662   -5.9303 O   0  5  0  1  0  0  0  0  0  0  0  0
   -0.7579    4.2249   -5.7773 O   0  5  0  1  0  0  0  0  0  0  0  0
   -1.2695    2.8092   -2.6381 P   0  0  0  1  0  0  0  0  0  0  0  0
   -0.8428    3.9861   -1.8486 O   0  0  0  1  0  0  0  0  0  0  0  0
   -2.5270    3.2310   -3.5682 O   0  5  0  1  0  0  0  0  0  0  0  0
   -0.1914    2.4331   -3.7861 O   0  0  0  1  0  0  0  0  0  0  0  0
   -1.6433    1.5552   -1.7640 O   0  0  0  1  0  0  0  0  0  0  0  0
   -0.6963    0.9987   -0.8220 C   0  0  0  1  0  0  0  0  0  0  0  0
   -0.3888    1.7515   -0.1266 H   0  0  0  1  0  0  0  0  0  0  0  0
    0.1592    0.6237   -1.3439 H   0  0  0  1  0  0  0  0  0  0  0  0
   -1.3870   -0.1286   -0.0886 C   0  0  0  1  0  0  0  0  0  0  0  0
   -1.6673   -0.8899   -0.7863 H   0  0  0  1  0  0  0  0  0  0  0  0
   -0.5171   -0.6733    0.9196 O   0  0  0  1  0  0  0  0  0  0  0  0
   -2.6369    0.4027    0.6557 C   0  0  0  1  0  0  0  0  0  0  0  0
   -2.9543    1.3421    0.2536 H   0  0  0  1  0  0  0  0  0  0  0  0
   -3.7132   -0.5337    0.5867 O   0  0  0  1  0  0  0  0  0  0  0  0
   -4.5409   -0.0622    0.4674 H   0  0  0  1  0  0  0  0  0  0  0  0
   -2.1383    0.5587    2.0815 C   0  0  0  1  0  0  0  0  0  0  0  0
   -1.6988    1.5223    2.2336 H   0  0  0  1  0  0  0  0  0  0  0  0
   -3.1957    0.3631    3.0216 O   0  0  0  1  0  0  0  0  0  0  0  0
   -3.3089    1.1587    3.5467 H   0  0  0  1  0  0  0  0  0  0  0  0
   -1.0848   -0.5550    2.1922 C   0  0  0  1  0  0  0  0  0  0  0  0
   -1.5462   -1.4762    2.4809 H   0  0  0  1  0  0  0  0  0  0  0  0
   -0.0604   -0.1915    3.1756 N   0  0  0  1  0  0  0  0  0  0  0  0
    1.2276    0.1395    2.8851 C   0  0  0  1  0  0  0  0  0  0  0  0
    1.6117    0.0968    1.9196 H   0  0  0  1  0  0  0  0  0  0  0  0
    1.9442    0.5145    3.9096 N   0  0  0  1  0  0  0  0  0  0  0  0
    1.0576    0.4356    4.9723 C   0  0  0  1  0  0  0  0  0  0  0  0
    1.1569    0.6792    6.3389 C   0  0  0  1  0  0  0  0  0  0  0  0
    2.3387    1.1000    6.8895 N   0  0  0  1  0  0  0  0  0  0  0  0
    2.3849    1.3165    7.8441 H   0  0  0  1  0  0  0  0  0  0  0  0
    3.1379    1.1844    6.3287 H   0  0  0  1  0  0  0  0  0  0  0  0
    0.0885    0.5009    7.1235 N   0  0  0  1  0  0  0  0  0  0  0  0
   -1.0484    0.0743    6.5513 C   0  0  0  1  0  0  0  0  0  0  0  0
   -1.8547   -0.0560    7.1952 H   0  0  0  1  0  0  0  0  0  0  0  0
   -1.2825   -0.2038    5.2746 N   0  0  0  1  0  0  0  0  0  0  0  0
   -0.1967   -0.0025    4.5267 C   0  0  0  1  0  0  0  0  0  0  0  0
  1  2  2  0  0  0  0
  1  3  1  0  0  0  0
  1  4  1  0  0  0  0
  1  8  1  0  0  0  0
  5  6  2  0  0  0  0
  5  7  1  0  0  0  0
  5  8  1  0  0  0  0
  5  9  1  0  0  0  0
  9 10  1  0  0  0  0
 10 11  1  0  0  0  0
 10 12  1  0  0  0  0
 10 13  1  0  0  0  0
 13 14  1  0  0  0  0
 13 15  1  0  0  0  0
 13 16  1  0  0  0  0
 15 24  1  0  0  0  0
 16 17  1  0  0  0  0
 16 18  1  0  0  0  0
 16 20  1  0  0  0  0
 18 19  1  0  0  0  0
 20 21  1  0  0  0  0
 20 22  1  0  0  0  0
 20 24  1  0  0  0  0
 22 23  1  0  0  0  0
 24 25  1  0  0  0  0
 24 26  1  0  0  0  0
 26 27  1  0  0  0  0
 26 39  1  0  0  0  0
 27 28  1  0  0  0  0
 27 29  2  0  0  0  0
 29 30  1  0  0  0  0
 30 31  1  0  0  0  0
 30 39  2  0  0  0  0
 31 32  1  0  0  0  0
 31 35  2  0  0  0  0
 32 33  1  0  0  0  0
 32 34  1  0  0  0  0
 35 36  1  0  0  0  0
 36 37  1  0  0  0  0
 36 38  2  0  0  0  0
 38 39  1  0  0  0  0
M  END
> <ConfClashScore>
0 

> <ConfOneFourInteractionScore>
-0.973465 

> <ConfScore>
-0.00881835 

> <ConfScorePBest>
0.0116995 

> <ConfTolerance>
0.871158 

$$$$
ADP.****
  PyMOL2.5          3D                             0

 39 41  0  0  0  0  0  0  0  0999 V2000
   -1.1831   -0.2360   -6.0643 P   0  0  0  1  0  0  0  0  0  0  0  0
   -1.6616    0.8493   -6.9495 O   0  0  0  1  0  0  0  0  0  0  0  0
    0.2910   -0.7831   -6.4542 O   0  5  0  1  0  0  0  0  0  0  0  0
   -2.1494   -1.5126   -6.3109 O   0  5  0  1  0  0  0  0  0  0  0  0
   -2.4450    0.7934   -3.5887 P   0  0  0  1  0  0  0  0  0  0  0  0
   -2.2496    2.2601   -3.6222 O   0  0  0  1  0  0  0  0  0  0  0  0
   -3.9095    0.3983   -4.1575 O   0  5  0  1  0  0  0  0  0  0  0  0
   -1.3647    0.0266   -4.4971 O   0  0  0  1  0  0  0  0  0  0  0  0
   -2.3944    0.1725   -2.1474 O   0  0  0  1  0  0  0  0  0  0  0  0
   -1.1876    0.1320   -1.3426 C   0  0  0  1  0  0  0  0  0  0  0  0
   -0.7529    1.1082   -1.2883 H   0  0  0  1  0  0  0  0  0  0  0  0
   -0.4842   -0.5487   -1.7747 H   0  0  0  1  0  0  0  0  0  0  0  0
   -1.5756   -0.3384    0.0455 C   0  0  0  1  0  0  0  0  0  0  0  0
   -2.0221   -1.3087   -0.0180 H   0  0  0  1  0  0  0  0  0  0  0  0
   -0.4216   -0.3650    0.9149 O   0  0  0  1  0  0  0  0  0  0  0  0
   -2.5455    0.6647    0.7086 C   0  0  0  1  0  0  0  0  0  0  0  0
   -2.4318    1.6403    0.2842 H   0  0  0  1  0  0  0  0  0  0  0  0
   -3.8994    0.2349    0.5598 O   0  0  0  1  0  0  0  0  0  0  0  0
   -4.3993    0.9070    0.0907 H   0  0  0  1  0  0  0  0  0  0  0  0
   -2.1292    0.6622    2.1984 C   0  0  0  1  0  0  0  0  0  0  0  0
   -1.8131    1.6369    2.5066 H   0  0  0  1  0  0  0  0  0  0  0  0
   -3.2088    0.2272    3.0264 O   0  0  0  1  0  0  0  0  0  0  0  0
   -3.3172   -0.7226    2.9388 H   0  0  0  1  0  0  0  0  0  0  0  0
   -0.9553   -0.3393    2.2562 C   0  0  0  1  0  0  0  0  0  0  0  0
   -1.3028   -1.3102    2.5415 H   0  0  0  1  0  0  0  0  0  0  0  0
    0.0633    0.1150    3.2075 N   0  0  0  1  0  0  0  0  0  0  0  0
    0.4073    1.4154    3.4156 C   0  0  0  1  0  0  0  0  0  0  0  0
   -0.0445    2.2017    2.9065 H   0  0  0  1  0  0  0  0  0  0  0  0
    1.3470    1.6012    4.3023 N   0  0  0  1  0  0  0  0  0  0  0  0
    1.6497    0.3174    4.7284 C   0  0  0  1  0  0  0  0  0  0  0  0
    2.5550   -0.2135    5.6425 C   0  0  0  1  0  0  0  0  0  0  0  0
    3.4498    0.5185    6.4155 N   0  0  0  1  0  0  0  0  0  0  0  0
    4.0327    0.0602    7.0563 H   0  0  0  1  0  0  0  0  0  0  0  0
    3.4975    1.4926    6.3194 H   0  0  0  1  0  0  0  0  0  0  0  0
    2.6085   -1.5365    5.8308 N   0  0  0  1  0  0  0  0  0  0  0  0
    1.7826   -2.3090    5.1075 C   0  0  0  1  0  0  0  0  0  0  0  0
    1.8575   -3.3319    5.2797 H   0  0  0  1  0  0  0  0  0  0  0  0
    0.8832   -1.9436    4.2022 N   0  0  0  1  0  0  0  0  0  0  0  0
    0.8544   -0.6185    4.0535 C   0  0  0  1  0  0  0  0  0  0  0  0
  1  2  2  0  0  0  0
  1  3  1  0  0  0  0
  1  4  1  0  0  0  0
  1  8  1  0  0  0  0
  5  6  2  0  0  0  0
  5  7  1  0  0  0  0
  5  8  1  0  0  0  0
  5  9  1  0  0  0  0
  9 10  1  0  0  0  0
 10 11  1  0  0  0  0
 10 12  1  0  0  0  0
 10 13  1  0  0  0  0
 13 14  1  0  0  0  0
 13 15  1  0  0  0  0
 13 16  1  0  0  0  0
 15 24  1  0  0  0  0
 16 17  1  0  0  0  0
 16 18  1  0  0  0  0
 16 20  1  0  0  0  0
 18 19  1  0  0  0  0
 20 21  1  0  0  0  0
 20 22  1  0  0  0  0
 20 24  1  0  0  0  0
 22 23  1  0  0  0  0
 24 25  1  0  0  0  0
 24 26  1  0  0  0  0
 26 27  1  0  0  0  0
 26 39  1  0  0  0  0
 27 28  1  0  0  0  0
 27 29  2  0  0  0  0
 29 30  1  0  0  0  0
 30 31  1  0  0  0  0
 30 39  2  0  0  0  0
 31 32  1  0  0  0  0
 31 35  2  0  0  0  0
 32 33  1  0  0  0  0
 32 34  1  0  0  0  0
 35 36  1  0  0  0  0
 36 37  1  0  0  0  0
 36 38  2  0  0  0  0
 38 39  1  0  0  0  0
M  END
> <ConfClashScore>
0 

> <ConfOneFourInteractionScore>
-0.970795 

> <ConfScore>
-0.00874106 

> <ConfScorePBest>
0.0115965 

> <ConfTolerance>
0.917522 

$$$$
ADP.****
  PyMOL2.5          3D                             0

 39 41  0  0  0  0  0  0  0  0999 V2000
   -0.9981    5.6796   -1.7804 P   0  0  0  1  0  0  0  0  0  0  0  0
    0.2000    5.9860   -2.5935 O   0  0  0  1  0  0  0  0  0  0  0  0
   -2.4258    5.9135   -2.5092 O   0  5  0  1  0  0  0  0  0  0  0  0
   -0.8703    6.5272   -0.4057 O   0  5  0  1  0  0  0  0  0  0  0  0
    0.1782    3.4393   -0.2901 P   0  0  0  1  0  0  0  0  0  0  0  0
    1.4263    3.3599   -1.0816 O   0  0  0  1  0  0  0  0  0  0  0  0
    0.4067    4.3359    1.0397 O   0  5  0  1  0  0  0  0  0  0  0  0
   -0.9039    4.1808   -1.2097 O   0  0  0  1  0  0  0  0  0  0  0  0
   -0.3334    2.0209    0.1597 O   0  0  0  1  0  0  0  0  0  0  0  0
   -0.5837    0.9771   -0.8155 C   0  0  0  1  0  0  0  0  0  0  0  0
    0.3444    0.5855   -1.1764 H   0  0  0  1  0  0  0  0  0  0  0  0
   -1.1477    1.3716   -1.6348 H   0  0  0  1  0  0  0  0  0  0  0  0
   -1.3609   -0.1017   -0.1357 C   0  0  0  1  0  0  0  0  0  0  0  0
   -1.6425   -0.8447   -0.8523 H   0  0  0  1  0  0  0  0  0  0  0  0
   -0.5760   -0.6947    0.9141 O   0  0  0  1  0  0  0  0  0  0  0  0
   -2.6196    0.4916    0.5439 C   0  0  0  1  0  0  0  0  0  0  0  0
   -2.8657    1.4478    0.1315 H   0  0  0  1  0  0  0  0  0  0  0  0
   -3.7380   -0.3869    0.4115 O   0  0  0  1  0  0  0  0  0  0  0  0
   -4.3142   -0.2892    1.1731 H   0  0  0  1  0  0  0  0  0  0  0  0
   -2.1910    0.6162    1.9954 C   0  0  0  1  0  0  0  0  0  0  0  0
   -1.7108    1.5550    2.1769 H   0  0  0  1  0  0  0  0  0  0  0  0
   -3.3074    0.4727    2.8772 O   0  0  0  1  0  0  0  0  0  0  0  0
   -3.0859    0.8382    3.7368 H   0  0  0  1  0  0  0  0  0  0  0  0
   -1.2044   -0.5514    2.1552 C   0  0  0  1  0  0  0  0  0  0  0  0
   -1.7280   -1.4482    2.4129 H   0  0  0  1  0  0  0  0  0  0  0  0
   -0.2179   -0.2459    3.1932 N   0  0  0  1  0  0  0  0  0  0  0  0
   -0.0807    0.9284    3.8677 C   0  0  0  1  0  0  0  0  0  0  0  0
   -0.7458    1.7198    3.7536 H   0  0  0  1  0  0  0  0  0  0  0  0
    0.9484    0.9864    4.6686 N   0  0  0  1  0  0  0  0  0  0  0  0
    1.5435   -0.2571    4.5230 C   0  0  0  1  0  0  0  0  0  0  0  0
    2.6717   -0.8628    5.0683 C   0  0  0  1  0  0  0  0  0  0  0  0
    3.4927   -0.2388    5.9702 N   0  0  0  1  0  0  0  0  0  0  0  0
    4.3463   -0.6495    6.2215 H   0  0  0  1  0  0  0  0  0  0  0  0
    3.2265    0.6181    6.3641 H   0  0  0  1  0  0  0  0  0  0  0  0
    2.9914   -2.1115    4.7120 N   0  0  0  1  0  0  0  0  0  0  0  0
    2.2051   -2.7319    3.8182 C   0  0  0  1  0  0  0  0  0  0  0  0
    2.4894   -3.6995    3.5641 H   0  0  0  1  0  0  0  0  0  0  0  0
    1.1136   -2.2772    3.2150 N   0  0  0  1  0  0  0  0  0  0  0  0
    0.8242   -1.0354    3.6061 C   0  0  0  1  0  0  0  0  0  0  0  0
  1  2  2  0  0  0  0
  1  3  1  0  0  0  0
  1  4  1  0  0  0  0
  1  8  1  0  0  0  0
  5  6  2  0  0  0  0
  5  7  1  0  0  0  0
  5  8  1  0  0  0  0
  5  9  1  0  0  0  0
  9 10  1  0  0  0  0
 10 11  1  0  0  0  0
 10 12  1  0  0  0  0
 10 13  1  0  0  0  0
 13 14  1  0  0  0  0
 13 15  1  0  0  0  0
 13 16  1  0  0  0  0
 15 24  1  0  0  0  0
 16 17  1  0  0  0  0
 16 18  1  0  0  0  0
 16 20  1  0  0  0  0
 18 19  1  0  0  0  0
 20 21  1  0  0  0  0
 20 22  1  0  0  0  0
 20 24  1  0  0  0  0
 22 23  1  0  0  0  0
 24 25  1  0  0  0  0
 24 26  1  0  0  0  0
 26 27  1  0  0  0  0
 26 39  1  0  0  0  0
 27 28  1  0  0  0  0
 27 29  2  0  0  0  0
 29 30  1  0  0  0  0
 30 31  1  0  0  0  0
 30 39  2  0  0  0  0
 31 32  1  0  0  0  0
 31 35  2  0  0  0  0
 32 33  1  0  0  0  0
 32 34  1  0  0  0  0
 35 36  1  0  0  0  0
 36 37  1  0  0  0  0
 36 38  2  0  0  0  0
 38 39  1  0  0  0  0
M  END
> <ConfClashScore>
0 

> <ConfOneFourInteractionScore>
-0.979916 

> <ConfScore>
-0.0067527 

> <ConfScorePBest>
0.0114935 

> <ConfTolerance>
0.954687 

$$$$
ADP.****
  PyMOL2.5          3D                             0

 39 41  0  0  0  0  0  0  0  0999 V2000
    3.0163    3.2847   -2.2463 P   0  0  0  1  0  0  0  0  0  0  0  0
    2.3750    3.9285   -3.4145 O   0  0  0  1  0  0  0  0  0  0  0  0
    3.7942    4.3104   -1.2628 O   0  5  0  1  0  0  0  0  0  0  0  0
    4.2150    2.3500   -2.8066 O   0  5  0  1  0  0  0  0  0  0  0  0
    0.7839    1.4865   -2.1517 P   0  0  0  1  0  0  0  0  0  0  0  0
   -0.1103    2.3568   -2.9475 O   0  0  0  1  0  0  0  0  0  0  0  0
    1.2540    0.1217   -2.8871 O   0  5  0  1  0  0  0  0  0  0  0  0
    2.0042    2.2965   -1.4614 O   0  0  0  1  0  0  0  0  0  0  0  0
   -0.0718    0.9127   -0.9511 O   0  0  0  1  0  0  0  0  0  0  0  0
   -1.1717    0.0206   -1.2480 C   0  0  0  1  0  0  0  0  0  0  0  0
   -0.8118   -0.8394   -1.7732 H   0  0  0  1  0  0  0  0  0  0  0  0
   -1.8996    0.5264   -1.8474 H   0  0  0  1  0  0  0  0  0  0  0  0
   -1.7887   -0.3996    0.0651 C   0  0  0  1  0  0  0  0  0  0  0  0
   -2.5192   -1.1613   -0.1110 H   0  0  0  1  0  0  0  0  0  0  0  0
   -0.7659   -0.8735    0.9829 O   0  0  0  1  0  0  0  0  0  0  0  0
   -2.4208    0.7994    0.7707 C   0  0  0  1  0  0  0  0  0  0  0  0
   -1.8922    1.7038    0.5531 H   0  0  0  1  0  0  0  0  0  0  0  0
   -3.7945    0.9515    0.4103 O   0  0  0  1  0  0  0  0  0  0  0  0
   -3.9421    0.5702   -0.4583 H   0  0  0  1  0  0  0  0  0  0  0  0
   -2.2722    0.4105    2.2191 C   0  0  0  1  0  0  0  0  0  0  0  0
   -2.2993    1.2702    2.8555 H   0  0  0  1  0  0  0  0  0  0  0  0
   -3.2918   -0.5081    2.6148 O   0  0  0  1  0  0  0  0  0  0  0  0
   -3.3806   -0.4960    3.5706 H   0  0  0  1  0  0  0  0  0  0  0  0
   -0.9035   -0.2455    2.2402 C   0  0  0  1  0  0  0  0  0  0  0  0
   -0.8477   -0.9684    3.0271 H   0  0  0  1  0  0  0  0  0  0  0  0
    0.1441    0.7620    2.4264 N   0  0  0  1  0  0  0  0  0  0  0  0
    1.1351    1.0916    1.5534 C   0  0  0  1  0  0  0  0  0  0  0  0
    1.2819    0.5851    0.6570 H   0  0  0  1  0  0  0  0  0  0  0  0
    1.8874    2.0910    1.9261 N   0  0  0  1  0  0  0  0  0  0  0  0
    1.3477    2.4660    3.1467 C   0  0  0  1  0  0  0  0  0  0  0  0
    1.6612    3.4427    4.0873 C   0  0  0  1  0  0  0  0  0  0  0  0
    2.7018    4.3206    3.9349 N   0  0  0  1  0  0  0  0  0  0  0  0
    3.2812    4.2615    3.1467 H   0  0  0  1  0  0  0  0  0  0  0  0
    2.8668    5.0076    4.6140 H   0  0  0  1  0  0  0  0  0  0  0  0
    0.9280    3.5505    5.2007 N   0  0  0  1  0  0  0  0  0  0  0  0
   -0.0867    2.6885    5.3720 C   0  0  0  1  0  0  0  0  0  0  0  0
   -0.6298    2.8022    6.2517 H   0  0  0  1  0  0  0  0  0  0  0  0
   -0.4905    1.7107    4.5704 N   0  0  0  1  0  0  0  0  0  0  0  0
    0.2587    1.6450    3.4689 C   0  0  0  1  0  0  0  0  0  0  0  0
  1  2  2  0  0  0  0
  1  3  1  0  0  0  0
  1  4  1  0  0  0  0
  1  8  1  0  0  0  0
  5  6  2  0  0  0  0
  5  7  1  0  0  0  0
  5  8  1  0  0  0  0
  5  9  1  0  0  0  0
  9 10  1  0  0  0  0
 10 11  1  0  0  0  0
 10 12  1  0  0  0  0
 10 13  1  0  0  0  0
 13 14  1  0  0  0  0
 13 15  1  0  0  0  0
 13 16  1  0  0  0  0
 15 24  1  0  0  0  0
 16 17  1  0  0  0  0
 16 18  1  0  0  0  0
 16 20  1  0  0  0  0
 18 19  1  0  0  0  0
 20 21  1  0  0  0  0
 20 22  1  0  0  0  0
 20 24  1  0  0  0  0
 22 23  1  0  0  0  0
 24 25  1  0  0  0  0
 24 26  1  0  0  0  0
 26 27  1  0  0  0  0
 26 39  1  0  0  0  0
 27 28  1  0  0  0  0
 27 29  2  0  0  0  0
 29 30  1  0  0  0  0
 30 31  1  0  0  0  0
 30 39  2  0  0  0  0
 31 32  1  0  0  0  0
 31 35  2  0  0  0  0
 32 33  1  0  0  0  0
 32 34  1  0  0  0  0
 35 36  1  0  0  0  0
 36 37  1  0  0  0  0
 36 38  2  0  0  0  0
 38 39  1  0  0  0  0
M  END
> <ConfClashScore>
0 

> <ConfOneFourInteractionScore>
-0.990604 

> <ConfScore>
-0.00586721 

> <ConfScorePBest>
0.0113905 

> <ConfTolerance>
0.953225 

$$$$
ADP.****
  PyMOL2.5          3D                             0

 39 41  0  0  0  0  0  0  0  0999 V2000
   -3.1444    2.9646   -2.6940 P   0  0  0  1  0  0  0  0  0  0  0  0
   -3.2171    3.5805   -1.3502 O   0  0  0  1  0  0  0  0  0  0  0  0
   -4.1414    3.7334   -3.7135 O   0  5  0  1  0  0  0  0  0  0  0  0
   -3.7776    1.4736   -2.6991 O   0  5  0  1  0  0  0  0  0  0  0  0
   -0.3397    2.6424   -2.5189 P   0  0  0  1  0  0  0  0  0  0  0  0
    0.7796    2.0362   -3.2741 O   0  0  0  1  0  0  0  0  0  0  0  0
    0.1501    4.0128   -1.8072 O   0  5  0  1  0  0  0  0  0  0  0  0
   -1.6808    2.8998   -3.3804 O   0  0  0  1  0  0  0  0  0  0  0  0
   -0.6602    1.7768   -1.2444 O   0  0  0  1  0  0  0  0  0  0  0  0
   -1.0777    0.3963   -1.3706 C   0  0  0  1  0  0  0  0  0  0  0  0
   -0.2616   -0.1727   -1.7645 H   0  0  0  1  0  0  0  0  0  0  0  0
   -1.9049    0.3501   -2.0476 H   0  0  0  1  0  0  0  0  0  0  0  0
   -1.4985   -0.2126   -0.0522 C   0  0  0  1  0  0  0  0  0  0  0  0
   -1.9296   -1.1765   -0.2253 H   0  0  0  1  0  0  0  0  0  0  0  0
   -0.3703   -0.3134    0.8451 O   0  0  0  1  0  0  0  0  0  0  0  0
   -2.5012    0.7088    0.6774 C   0  0  0  1  0  0  0  0  0  0  0  0
   -2.3885    1.7230    0.3556 H   0  0  0  1  0  0  0  0  0  0  0  0
   -3.8472    0.2804    0.4448 O   0  0  0  1  0  0  0  0  0  0  0  0
   -4.1306   -0.2900    1.1630 H   0  0  0  1  0  0  0  0  0  0  0  0
   -2.1288    0.5622    2.1716 C   0  0  0  1  0  0  0  0  0  0  0  0
   -1.8353    1.5047    2.5846 H   0  0  0  1  0  0  0  0  0  0  0  0
   -3.2261    0.0352    2.9189 O   0  0  0  1  0  0  0  0  0  0  0  0
   -4.0220    0.5306    2.7121 H   0  0  0  1  0  0  0  0  0  0  0  0
   -0.9434   -0.4273    2.1654 C   0  0  0  1  0  0  0  0  0  0  0  0
   -1.2857   -1.4255    2.3421 H   0  0  0  1  0  0  0  0  0  0  0  0
    0.0387   -0.0599    3.1860 N   0  0  0  1  0  0  0  0  0  0  0  0
    0.6474    1.1474    3.3429 C   0  0  0  1  0  0  0  0  0  0  0  0
    0.4507    1.9578    2.7214 H   0  0  0  1  0  0  0  0  0  0  0  0
    1.4967    1.2115    4.3321 N   0  0  0  1  0  0  0  0  0  0  0  0
    1.4441   -0.0573    4.8878 C   0  0  0  1  0  0  0  0  0  0  0  0
    2.0915   -0.6782    5.9519 C   0  0  0  1  0  0  0  0  0  0  0  0
    3.0447   -0.1218    6.8098 N   0  0  0  1  0  0  0  0  0  0  0  0
    3.3575    0.7957    6.6657 H   0  0  0  1  0  0  0  0  0  0  0  0
    3.4003   -0.6492    7.5553 H   0  0  0  1  0  0  0  0  0  0  0  0
    1.8162   -1.9544    6.2419 N   0  0  0  1  0  0  0  0  0  0  0  0
    0.9227   -2.5961    5.4725 C   0  0  0  1  0  0  0  0  0  0  0  0
    0.7393   -3.5875    5.7276 H   0  0  0  1  0  0  0  0  0  0  0  0
    0.2418   -2.1361    4.4301 N   0  0  0  1  0  0  0  0  0  0  0  0
    0.5370   -0.8592    4.1823 C   0  0  0  1  0  0  0  0  0  0  0  0
  1  2  2  0  0  0  0
  1  3  1  0  0  0  0
  1  4  1  0  0  0  0
  1  8  1  0  0  0  0
  5  6  2  0  0  0  0
  5  7  1  0  0  0  0
  5  8  1  0  0  0  0
  5  9  1  0  0  0  0
  9 10  1  0  0  0  0
 10 11  1  0  0  0  0
 10 12  1  0  0  0  0
 10 13  1  0  0  0  0
 13 14  1  0  0  0  0
 13 15  1  0  0  0  0
 13 16  1  0  0  0  0
 15 24  1  0  0  0  0
 16 17  1  0  0  0  0
 16 18  1  0  0  0  0
 16 20  1  0  0  0  0
 18 19  1  0  0  0  0
 20 21  1  0  0  0  0
 20 22  1  0  0  0  0
 20 24  1  0  0  0  0
 22 23  1  0  0  0  0
 24 25  1  0  0  0  0
 24 26  1  0  0  0  0
 26 27  1  0  0  0  0
 26 39  1  0  0  0  0
 27 28  1  0  0  0  0
 27 29  2  0  0  0  0
 29 30  1  0  0  0  0
 30 31  1  0  0  0  0
 30 39  2  0  0  0  0
 31 32  1  0  0  0  0
 31 35  2  0  0  0  0
 32 33  1  0  0  0  0
 32 34  1  0  0  0  0
 35 36  1  0  0  0  0
 36 37  1  0  0  0  0
 36 38  2  0  0  0  0
 38 39  1  0  0  0  0
M  END
> <ConfClashScore>
0 

> <ConfOneFourInteractionScore>
-0.982586 

> <ConfScore>
-0.00569559 

> <ConfScorePBest>
0.0112875 

> <ConfTolerance>
0.987141 

$$$$
ADP.****
  PyMOL2.5          3D                             0

 39 41  0  0  0  0  0  0  0  0999 V2000
   -4.5995    1.6012   -5.2732 P   0  0  0  1  0  0  0  0  0  0  0  0
   -3.7873    1.9728   -6.4533 O   0  0  0  1  0  0  0  0  0  0  0  0
   -5.8259    0.6236   -5.6790 O   0  5  0  1  0  0  0  0  0  0  0  0
   -5.1782    2.8223   -4.3796 O   0  5  0  1  0  0  0  0  0  0  0  0
   -2.3649    0.8833   -3.5445 P   0  0  0  1  0  0  0  0  0  0  0  0
   -1.1778    0.3274   -4.2316 O   0  0  0  1  0  0  0  0  0  0  0  0
   -2.2466    2.4901   -3.3756 O   0  5  0  1  0  0  0  0  0  0  0  0
   -3.7630    0.6397   -4.3000 O   0  0  0  1  0  0  0  0  0  0  0  0
   -2.3991    0.1879   -2.1238 O   0  0  0  1  0  0  0  0  0  0  0  0
   -1.1816    0.1462   -1.3430 C   0  0  0  1  0  0  0  0  0  0  0  0
   -0.7532    1.1248   -1.2834 H   0  0  0  1  0  0  0  0  0  0  0  0
   -0.4808   -0.5235   -1.7961 H   0  0  0  1  0  0  0  0  0  0  0  0
   -1.5410   -0.3440    0.0422 C   0  0  0  1  0  0  0  0  0  0  0  0
   -1.9618   -1.3256   -0.0242 H   0  0  0  1  0  0  0  0  0  0  0  0
   -0.3775   -0.3461    0.8992 O   0  0  0  1  0  0  0  0  0  0  0  0
   -2.5304    0.6273    0.7236 C   0  0  0  1  0  0  0  0  0  0  0  0
   -2.4477    1.6088    0.3057 H   0  0  0  1  0  0  0  0  0  0  0  0
   -3.8738    0.1621    0.5855 O   0  0  0  1  0  0  0  0  0  0  0  0
   -4.4593    0.9101    0.4468 H   0  0  0  1  0  0  0  0  0  0  0  0
   -2.0983    0.6246    2.2088 C   0  0  0  1  0  0  0  0  0  0  0  0
   -1.8053    1.6051    2.5213 H   0  0  0  1  0  0  0  0  0  0  0  0
   -3.1567    0.1542    3.0446 O   0  0  0  1  0  0  0  0  0  0  0  0
   -3.7181   -0.4433    2.5451 H   0  0  0  1  0  0  0  0  0  0  0  0
   -0.8972   -0.3451    2.2462 C   0  0  0  1  0  0  0  0  0  0  0  0
   -1.2153   -1.3273    2.5275 H   0  0  0  1  0  0  0  0  0  0  0  0
    0.1178    0.1287    3.1892 N   0  0  0  1  0  0  0  0  0  0  0  0
    0.5965   -0.5301    4.2799 C   0  0  0  1  0  0  0  0  0  0  0  0
    0.2695   -1.4805    4.5472 H   0  0  0  1  0  0  0  0  0  0  0  0
    1.4968    0.1208    4.9652 N   0  0  0  1  0  0  0  0  0  0  0  0
    1.6374    1.3109    4.2683 C   0  0  0  1  0  0  0  0  0  0  0  0
    2.4119    2.4535    4.4457 C   0  0  0  1  0  0  0  0  0  0  0  0
    3.2467    2.6591    5.5441 N   0  0  0  1  0  0  0  0  0  0  0  0
    3.7219    3.5101    5.6459 H   0  0  0  1  0  0  0  0  0  0  0  0
    3.3581    1.9524    6.2139 H   0  0  0  1  0  0  0  0  0  0  0  0
    2.3132    3.4632    3.5742 N   0  0  0  1  0  0  0  0  0  0  0  0
    1.4468    3.3343    2.5570 C   0  0  0  1  0  0  0  0  0  0  0  0
    1.3964    4.1421    1.9039 H   0  0  0  1  0  0  0  0  0  0  0  0
    0.6457    2.3150    2.2721 N   0  0  0  1  0  0  0  0  0  0  0  0
    0.7832    1.3270    3.1575 C   0  0  0  1  0  0  0  0  0  0  0  0
  1  2  2  0  0  0  0
  1  3  1  0  0  0  0
  1  4  1  0  0  0  0
  1  8  1  0  0  0  0
  5  6  2  0  0  0  0
  5  7  1  0  0  0  0
  5  8  1  0  0  0  0
  5  9  1  0  0  0  0
  9 10  1  0  0  0  0
 10 11  1  0  0  0  0
 10 12  1  0  0  0  0
 10 13  1  0  0  0  0
 13 14  1  0  0  0  0
 13 15  1  0  0  0  0
 13 16  1  0  0  0  0
 15 24  1  0  0  0  0
 16 17  1  0  0  0  0
 16 18  1  0  0  0  0
 16 20  1  0  0  0  0
 18 19  1  0  0  0  0
 20 21  1  0  0  0  0
 20 22  1  0  0  0  0
 20 24  1  0  0  0  0
 22 23  1  0  0  0  0
 24 25  1  0  0  0  0
 24 26  1  0  0  0  0
 26 27  1  0  0  0  0
 26 39  1  0  0  0  0
 27 28  1  0  0  0  0
 27 29  2  0  0  0  0
 29 30  1  0  0  0  0
 30 31  1  0  0  0  0
 30 39  2  0  0  0  0
 31 32  1  0  0  0  0
 31 35  2  0  0  0  0
 32 33  1  0  0  0  0
 32 34  1  0  0  0  0
 35 36  1  0  0  0  0
 36 37  1  0  0  0  0
 36 38  2  0  0  0  0
 38 39  1  0  0  0  0
M  END
> <ConfClashScore>
0 

> <ConfOneFourInteractionScore>
-0.973465 

> <ConfScore>
-0.00517807 

> <ConfScorePBest>
0.0111845 

> <ConfTolerance>
0.880789 

$$$$
ADP.****
  PyMOL2.5          3D                             0

 39 41  0  0  0  0  0  0  0  0999 V2000
    3.3762   -0.6746   -3.4607 P   0  0  0  1  0  0  0  0  0  0  0  0
    3.5816   -1.3191   -2.1444 O   0  0  0  1  0  0  0  0  0  0  0  0
    3.3489   -1.7812   -4.6436 O   0  5  0  1  0  0  0  0  0  0  0  0
    4.6598    0.2744   -3.7367 O   0  5  0  1  0  0  0  0  0  0  0  0
    1.2284    1.0668   -2.5380 P   0  0  0  1  0  0  0  0  0  0  0  0
    2.0602    1.9532   -1.6936 O   0  0  0  1  0  0  0  0  0  0  0  0
    0.1763    1.9656   -3.3805 O   0  5  0  1  0  0  0  0  0  0  0  0
    2.0130    0.1570   -3.6064 O   0  0  0  1  0  0  0  0  0  0  0  0
    0.3469    0.1599   -1.5957 O   0  0  0  1  0  0  0  0  0  0  0  0
   -0.7205    0.8323   -0.8786 C   0  0  0  1  0  0  0  0  0  0  0  0
   -1.3803    1.2956   -1.5821 H   0  0  0  1  0  0  0  0  0  0  0  0
   -0.2990    1.5792   -0.2388 H   0  0  0  1  0  0  0  0  0  0  0  0
   -1.4984   -0.1559   -0.0437 C   0  0  0  1  0  0  0  0  0  0  0  0
   -1.9054   -0.9163   -0.6771 H   0  0  0  1  0  0  0  0  0  0  0  0
   -0.6459   -0.7436    0.9551 O   0  0  0  1  0  0  0  0  0  0  0  0
   -2.6333    0.5668    0.7232 C   0  0  0  1  0  0  0  0  0  0  0  0
   -2.8579    1.5131    0.2771 H   0  0  0  1  0  0  0  0  0  0  0  0
   -3.8159   -0.2330    0.7655 O   0  0  0  1  0  0  0  0  0  0  0  0
   -4.3962    0.0144    0.0418 H   0  0  0  1  0  0  0  0  0  0  0  0
   -2.0424    0.7430    2.1109 C   0  0  0  1  0  0  0  0  0  0  0  0
   -1.4834    1.6527    2.1799 H   0  0  0  1  0  0  0  0  0  0  0  0
   -3.0626    0.7333    3.1105 O   0  0  0  1  0  0  0  0  0  0  0  0
   -3.2686   -0.1734    3.3494 H   0  0  0  1  0  0  0  0  0  0  0  0
   -1.1250   -0.4830    2.2429 C   0  0  0  1  0  0  0  0  0  0  0  0
   -1.6766   -1.3225    2.6117 H   0  0  0  1  0  0  0  0  0  0  0  0
   -0.0142   -0.1920    3.1498 N   0  0  0  1  0  0  0  0  0  0  0  0
    1.2426    0.2039    2.8082 C   0  0  0  1  0  0  0  0  0  0  0  0
    1.5344    0.3477    1.8205 H   0  0  0  1  0  0  0  0  0  0  0  0
    2.0538    0.3894    3.8139 N   0  0  0  1  0  0  0  0  0  0  0  0
    1.2702    0.1016    4.9205 C   0  0  0  1  0  0  0  0  0  0  0  0
    1.4982    0.0860    6.2934 C   0  0  0  1  0  0  0  0  0  0  0  0
    2.7077    0.4020    6.8538 N   0  0  0  1  0  0  0  0  0  0  0  0
    3.4758    0.6042    6.2798 H   0  0  0  1  0  0  0  0  0  0  0  0
    2.8047    0.4259    7.8287 H   0  0  0  1  0  0  0  0  0  0  0  0
    0.5071   -0.2495    7.1263 N   0  0  0  1  0  0  0  0  0  0  0  0
   -0.6805   -0.5758    6.5923 C   0  0  0  1  0  0  0  0  0  0  0  0
   -1.4236   -0.8346    7.2723 H   0  0  0  1  0  0  0  0  0  0  0  0
   -1.0345   -0.6127    5.3135 N   0  0  0  1  0  0  0  0  0  0  0  0
   -0.0225   -0.2611    4.5191 C   0  0  0  1  0  0  0  0  0  0  0  0
  1  2  2  0  0  0  0
  1  3  1  0  0  0  0
  1  4  1  0  0  0  0
  1  8  1  0  0  0  0
  5  6  2  0  0  0  0
  5  7  1  0  0  0  0
  5  8  1  0  0  0  0
  5  9  1  0  0  0  0
  9 10  1  0  0  0  0
 10 11  1  0  0  0  0
 10 12  1  0  0  0  0
 10 13  1  0  0  0  0
 13 14  1  0  0  0  0
 13 15  1  0  0  0  0
 13 16  1  0  0  0  0
 15 24  1  0  0  0  0
 16 17  1  0  0  0  0
 16 18  1  0  0  0  0
 16 20  1  0  0  0  0
 18 19  1  0  0  0  0
 20 21  1  0  0  0  0
 20 22  1  0  0  0  0
 20 24  1  0  0  0  0
 22 23  1  0  0  0  0
 24 25  1  0  0  0  0
 24 26  1  0  0  0  0
 26 27  1  0  0  0  0
 26 39  1  0  0  0  0
 27 28  1  0  0  0  0
 27 29  2  0  0  0  0
 29 30  1  0  0  0  0
 30 31  1  0  0  0  0
 30 39  2  0  0  0  0
 31 32  1  0  0  0  0
 31 35  2  0  0  0  0
 32 33  1  0  0  0  0
 32 34  1  0  0  0  0
 35 36  1  0  0  0  0
 36 37  1  0  0  0  0
 36 38  2  0  0  0  0
 38 39  1  0  0  0  0
M  END
> <ConfClashScore>
0 

> <ConfOneFourInteractionScore>
-0.980272 

> <ConfScore>
-0.0047205 

> <ConfScorePBest>
0.0110815 

> <ConfTolerance>
0.829194 

$$$$
ADP.****
  PyMOL2.5          3D                             0

 39 41  0  0  0  0  0  0  0  0999 V2000
   -0.4613    5.7612   -1.6697 P   0  0  0  1  0  0  0  0  0  0  0  0
   -0.4767    6.1094   -3.1081 O   0  0  0  1  0  0  0  0  0  0  0  0
   -1.7373    6.2875   -0.8216 O   0  5  0  1  0  0  0  0  0  0  0  0
    0.9010    6.3163   -0.9914 O   0  5  0  1  0  0  0  0  0  0  0  0
    0.4593    3.3360   -0.2935 P   0  0  0  1  0  0  0  0  0  0  0  0
    1.7695    3.0235   -0.9067 O   0  0  0  1  0  0  0  0  0  0  0  0
    0.6362    4.3517    0.9561 O   0  5  0  1  0  0  0  0  0  0  0  0
   -0.3445    4.1835   -1.3898 O   0  0  0  1  0  0  0  0  0  0  0  0
   -0.3663    2.0644    0.1587 O   0  0  0  1  0  0  0  0  0  0  0  0
   -0.6540    1.0400   -0.8218 C   0  0  0  1  0  0  0  0  0  0  0  0
    0.2591    0.6169   -1.1854 H   0  0  0  1  0  0  0  0  0  0  0  0
   -1.2027    1.4609   -1.6383 H   0  0  0  1  0  0  0  0  0  0  0  0
   -1.4810   -0.0273   -0.1416 C   0  0  0  1  0  0  0  0  0  0  0  0
   -1.8356   -0.7241   -0.8721 H   0  0  0  1  0  0  0  0  0  0  0  0
   -0.6956   -0.7065    0.8542 O   0  0  0  1  0  0  0  0  0  0  0  0
   -2.6735    0.6158    0.6087 C   0  0  0  1  0  0  0  0  0  0  0  0
   -2.8747    1.6001    0.2405 H   0  0  0  1  0  0  0  0  0  0  0  0
   -3.8407   -0.1814    0.4912 O   0  0  0  1  0  0  0  0  0  0  0  0
   -3.6732   -1.0512    0.8612 H   0  0  0  1  0  0  0  0  0  0  0  0
   -2.1831    0.6590    2.0452 C   0  0  0  1  0  0  0  0  0  0  0  0
   -1.6386    1.5591    2.2404 H   0  0  0  1  0  0  0  0  0  0  0  0
   -3.2709    0.5510    2.9646 O   0  0  0  1  0  0  0  0  0  0  0  0
   -2.9995    0.8847    3.8228 H   0  0  0  1  0  0  0  0  0  0  0  0
   -1.2663   -0.5720    2.1239 C   0  0  0  1  0  0  0  0  0  0  0  0
   -1.8348   -1.4442    2.3705 H   0  0  0  1  0  0  0  0  0  0  0  0
   -0.2246   -0.3670    3.1308 N   0  0  0  1  0  0  0  0  0  0  0  0
    1.1178   -0.2889    2.9194 C   0  0  0  1  0  0  0  0  0  0  0  0
    1.5400   -0.3654    1.9721 H   0  0  0  1  0  0  0  0  0  0  0  0
    1.8352   -0.1106    3.9952 N   0  0  0  1  0  0  0  0  0  0  0  0
    0.8917   -0.0565    5.0093 C   0  0  0  1  0  0  0  0  0  0  0  0
    0.9594    0.1020    6.3903 C   0  0  0  1  0  0  0  0  0  0  0  0
    2.1680    0.2525    7.0177 N   0  0  0  1  0  0  0  0  0  0  0  0
    2.9992    0.1835    6.5031 H   0  0  0  1  0  0  0  0  0  0  0  0
    2.2014    0.4291    7.9811 H   0  0  0  1  0  0  0  0  0  0  0  0
   -0.1659    0.1077    7.1131 N   0  0  0  1  0  0  0  0  0  0  0  0
   -1.3304   -0.0566    6.4659 C   0  0  0  1  0  0  0  0  0  0  0  0
   -2.1817   -0.0505    7.0632 H   0  0  0  1  0  0  0  0  0  0  0  0
   -1.5421   -0.2258    5.1665 N   0  0  0  1  0  0  0  0  0  0  0  0
   -0.3972   -0.2139    4.4823 C   0  0  0  1  0  0  0  0  0  0  0  0
  1  2  2  0  0  0  0
  1  3  1  0  0  0  0
  1  4  1  0  0  0  0
  1  8  1  0  0  0  0
  5  6  2  0  0  0  0
  5  7  1  0  0  0  0
  5  8  1  0  0  0  0
  5  9  1  0  0  0  0
  9 10  1  0  0  0  0
 10 11  1  0  0  0  0
 10 12  1  0  0  0  0
 10 13  1  0  0  0  0
 13 14  1  0  0  0  0
 13 15  1  0  0  0  0
 13 16  1  0  0  0  0
 15 24  1  0  0  0  0
 16 17  1  0  0  0  0
 16 18  1  0  0  0  0
 16 20  1  0  0  0  0
 18 19  1  0  0  0  0
 20 21  1  0  0  0  0
 20 22  1  0  0  0  0
 20 24  1  0  0  0  0
 22 23  1  0  0  0  0
 24 25  1  0  0  0  0
 24 26  1  0  0  0  0
 26 27  1  0  0  0  0
 26 39  1  0  0  0  0
 27 28  1  0  0  0  0
 27 29  2  0  0  0  0
 29 30  1  0  0  0  0
 30 31  1  0  0  0  0
 30 39  2  0  0  0  0
 31 32  1  0  0  0  0
 31 35  2  0  0  0  0
 32 33  1  0  0  0  0
 32 34  1  0  0  0  0
 35 36  1  0  0  0  0
 36 37  1  0  0  0  0
 36 38  2  0  0  0  0
 38 39  1  0  0  0  0
M  END
> <ConfClashScore>
0 

> <ConfOneFourInteractionScore>
-0.979254 

> <ConfScore>
-0.00381877 

> <ConfScorePBest>
0.0109785 

> <ConfTolerance>
0.932082 

$$$$
ADP.****
  PyMOL2.5          3D                             0

 39 41  0  0  0  0  0  0  0  0999 V2000
   -2.4064    4.5407   -3.4674 P   0  0  0  1  0  0  0  0  0  0  0  0
   -1.4089    5.2502   -4.2992 O   0  0  0  1  0  0  0  0  0  0  0  0
   -3.7133    3.9323   -4.2066 O   0  5  0  1  0  0  0  0  0  0  0  0
   -3.0756    5.4218   -2.2841 O   0  5  0  1  0  0  0  0  0  0  0  0
   -0.4064    2.6510   -2.2116 P   0  0  0  1  0  0  0  0  0  0  0  0
    0.3574    2.0763   -3.3416 O   0  0  0  1  0  0  0  0  0  0  0  0
    0.3420    3.8023   -1.3521 O   0  5  0  1  0  0  0  0  0  0  0  0
   -1.7843    3.2286   -2.7904 O   0  0  0  1  0  0  0  0  0  0  0  0
   -0.7164    1.5900   -1.1018 O   0  0  0  1  0  0  0  0  0  0  0  0
   -1.2145    0.2515   -1.3395 C   0  0  0  1  0  0  0  0  0  0  0  0
   -0.4710   -0.3419   -1.8292 H   0  0  0  1  0  0  0  0  0  0  0  0
   -2.0990    0.2837   -1.9408 H   0  0  0  1  0  0  0  0  0  0  0  0
   -1.5262   -0.3157    0.0269 C   0  0  0  1  0  0  0  0  0  0  0  0
   -1.9003   -1.3127   -0.0771 H   0  0  0  1  0  0  0  0  0  0  0  0
   -0.3496   -0.2983    0.8656 O   0  0  0  1  0  0  0  0  0  0  0  0
   -2.5497    0.5753    0.7654 C   0  0  0  1  0  0  0  0  0  0  0  0
   -2.5214    1.5771    0.3905 H   0  0  0  1  0  0  0  0  0  0  0  0
   -3.8712    0.0514    0.6266 O   0  0  0  1  0  0  0  0  0  0  0  0
   -4.4003    0.6526    0.0973 H   0  0  0  1  0  0  0  0  0  0  0  0
   -2.0929    0.5287    2.2425 C   0  0  0  1  0  0  0  0  0  0  0  0
   -1.8422    1.5077    2.5941 H   0  0  0  1  0  0  0  0  0  0  0  0
   -3.1131   -0.0292    3.0720 O   0  0  0  1  0  0  0  0  0  0  0  0
   -3.9674    0.3202    2.8081 H   0  0  0  1  0  0  0  0  0  0  0  0
   -0.8459   -0.3818    2.2189 C   0  0  0  1  0  0  0  0  0  0  0  0
   -1.1114   -1.3898    2.4607 H   0  0  0  1  0  0  0  0  0  0  0  0
    0.1602    0.0989    3.1664 N   0  0  0  1  0  0  0  0  0  0  0  0
    0.0464    0.1660    4.5212 C   0  0  0  1  0  0  0  0  0  0  0  0
   -0.8089   -0.1417    5.0264 H   0  0  0  1  0  0  0  0  0  0  0  0
    1.0917    0.6458    5.1384 N   0  0  0  1  0  0  0  0  0  0  0  0
    1.9817    0.9134    4.1098 C   0  0  0  1  0  0  0  0  0  0  0  0
    3.2683    1.4409    4.0525 C   0  0  0  1  0  0  0  0  0  0  0  0
    4.0234    1.8563    5.1439 N   0  0  0  1  0  0  0  0  0  0  0  0
    3.6890    1.7135    6.0539 H   0  0  0  1  0  0  0  0  0  0  0  0
    4.8898    2.2920    5.0029 H   0  0  0  1  0  0  0  0  0  0  0  0
    3.8753    1.5809    2.8690 N   0  0  0  1  0  0  0  0  0  0  0  0
    3.2006    1.2135    1.7682 C   0  0  0  1  0  0  0  0  0  0  0  0
    3.7050    1.3418    0.8678 H   0  0  0  1  0  0  0  0  0  0  0  0
    1.9767    0.7086    1.6737 N   0  0  0  1  0  0  0  0  0  0  0  0
    1.4123    0.5751    2.8748 C   0  0  0  1  0  0  0  0  0  0  0  0
  1  2  2  0  0  0  0
  1  3  1  0  0  0  0
  1  4  1  0  0  0  0
  1  8  1  0  0  0  0
  5  6  2  0  0  0  0
  5  7  1  0  0  0  0
  5  8  1  0  0  0  0
  5  9  1  0  0  0  0
  9 10  1  0  0  0  0
 10 11  1  0  0  0  0
 10 12  1  0  0  0  0
 10 13  1  0  0  0  0
 13 14  1  0  0  0  0
 13 15  1  0  0  0  0
 13 16  1  0  0  0  0
 15 24  1  0  0  0  0
 16 17  1  0  0  0  0
 16 18  1  0  0  0  0
 16 20  1  0  0  0  0
 18 19  1  0  0  0  0
 20 21  1  0  0  0  0
 20 22  1  0  0  0  0
 20 24  1  0  0  0  0
 22 23  1  0  0  0  0
 24 25  1  0  0  0  0
 24 26  1  0  0  0  0
 26 27  1  0  0  0  0
 26 39  1  0  0  0  0
 27 28  1  0  0  0  0
 27 29  2  0  0  0  0
 29 30  1  0  0  0  0
 30 31  1  0  0  0  0
 30 39  2  0  0  0  0
 31 32  1  0  0  0  0
 31 35  2  0  0  0  0
 32 33  1  0  0  0  0
 32 34  1  0  0  0  0
 35 36  1  0  0  0  0
 36 37  1  0  0  0  0
 36 38  2  0  0  0  0
 38 39  1  0  0  0  0
M  END
> <ConfClashScore>
0 

> <ConfOneFourInteractionScore>
-0.983365 

> <ConfScore>
-0.00369859 

> <ConfScorePBest>
0.0108755 

> <ConfTolerance>
0.995424 

$$$$
ADP.****
  PyMOL2.5          3D                             0

 39 41  0  0  0  0  0  0  0  0999 V2000
    1.9041    2.4893   -4.3465 P   0  0  0  1  0  0  0  0  0  0  0  0
    2.9273    3.4236   -3.8264 O   0  0  0  1  0  0  0  0  0  0  0  0
    2.6703    1.2945   -5.1274 O   0  5  0  1  0  0  0  0  0  0  0  0
    0.7750    3.1296   -5.3159 O   0  5  0  1  0  0  0  0  0  0  0  0
    0.0262    2.6381   -2.1593 P   0  0  0  1  0  0  0  0  0  0  0  0
    0.6752    3.8958   -1.7264 O   0  0  0  1  0  0  0  0  0  0  0  0
   -1.1219    2.9780   -3.2504 O   0  5  0  1  0  0  0  0  0  0  0  0
    0.9980    1.8625   -3.1764 O   0  0  0  1  0  0  0  0  0  0  0  0
   -0.4975    1.6389   -1.0727 O   0  0  0  1  0  0  0  0  0  0  0  0
   -1.2437    0.4283   -1.3399 C   0  0  0  1  0  0  0  0  0  0  0  0
   -0.6470   -0.2479   -1.9157 H   0  0  0  1  0  0  0  0  0  0  0  0
   -2.1381    0.6629   -1.8784 H   0  0  0  1  0  0  0  0  0  0  0  0
   -1.5930   -0.1979   -0.0106 C   0  0  0  1  0  0  0  0  0  0  0  0
   -2.0278   -1.1620   -0.1733 H   0  0  0  1  0  0  0  0  0  0  0  0
   -0.4198   -0.3033    0.8264 O   0  0  0  1  0  0  0  0  0  0  0  0
   -2.5614    0.7092    0.7806 C   0  0  0  1  0  0  0  0  0  0  0  0
   -2.4703    1.7278    0.4658 H   0  0  0  1  0  0  0  0  0  0  0  0
   -3.8990    0.2815    0.6140 O   0  0  0  1  0  0  0  0  0  0  0  0
   -3.9345   -0.4065   -0.0545 H   0  0  0  1  0  0  0  0  0  0  0  0
   -2.1122    0.5468    2.2518 C   0  0  0  1  0  0  0  0  0  0  0  0
   -1.8025    1.4859    2.6607 H   0  0  0  1  0  0  0  0  0  0  0  0
   -3.1671    0.0049    3.0478 O   0  0  0  1  0  0  0  0  0  0  0  0
   -3.8464    0.6710    3.1761 H   0  0  0  1  0  0  0  0  0  0  0  0
   -0.9239   -0.4361    2.1728 C   0  0  0  1  0  0  0  0  0  0  0  0
   -1.2518   -1.4382    2.3546 H   0  0  0  1  0  0  0  0  0  0  0  0
    0.1075   -0.0755    3.1461 N   0  0  0  1  0  0  0  0  0  0  0  0
    0.4932    1.1789    3.5072 C   0  0  0  1  0  0  0  0  0  0  0  0
    0.0595    2.0346    3.1055 H   0  0  0  1  0  0  0  0  0  0  0  0
    1.4483    1.2271    4.3956 N   0  0  0  1  0  0  0  0  0  0  0  0
    1.7169   -0.1076    4.6561 C   0  0  0  1  0  0  0  0  0  0  0  0
    2.6162   -0.7728    5.4842 C   0  0  0  1  0  0  0  0  0  0  0  0
    3.5417   -0.1676    6.3275 N   0  0  0  1  0  0  0  0  0  0  0  0
    3.6286    0.8084    6.3397 H   0  0  0  1  0  0  0  0  0  0  0  0
    4.1070   -0.7172    6.9096 H   0  0  0  1  0  0  0  0  0  0  0  0
    2.6317   -2.1099    5.5077 N   0  0  0  1  0  0  0  0  0  0  0  0
    1.7745   -2.7634    4.7076 C   0  0  0  1  0  0  0  0  0  0  0  0
    1.8204   -3.8015    4.7517 H   0  0  0  1  0  0  0  0  0  0  0  0
    0.8762   -2.2636    3.8679 N   0  0  0  1  0  0  0  0  0  0  0  0
    0.8859   -0.9300    3.8835 C   0  0  0  1  0  0  0  0  0  0  0  0
  1  2  2  0  0  0  0
  1  3  1  0  0  0  0
  1  4  1  0  0  0  0
  1  8  1  0  0  0  0
  5  6  2  0  0  0  0
  5  7  1  0  0  0  0
  5  8  1  0  0  0  0
  5  9  1  0  0  0  0
  9 10  1  0  0  0  0
 10 11  1  0  0  0  0
 10 12  1  0  0  0  0
 10 13  1  0  0  0  0
 13 14  1  0  0  0  0
 13 15  1  0  0  0  0
 13 16  1  0  0  0  0
 15 24  1  0  0  0  0
 16 17  1  0  0  0  0
 16 18  1  0  0  0  0
 16 20  1  0  0  0  0
 18 19  1  0  0  0  0
 20 21  1  0  0  0  0
 20 22  1  0  0  0  0
 20 24  1  0  0  0  0
 22 23  1  0  0  0  0
 24 25  1  0  0  0  0
 24 26  1  0  0  0  0
 26 27  1  0  0  0  0
 26 39  1  0  0  0  0
 27 28  1  0  0  0  0
 27 29  2  0  0  0  0
 29 30  1  0  0  0  0
 30 31  1  0  0  0  0
 30 39  2  0  0  0  0
 31 32  1  0  0  0  0
 31 35  2  0  0  0  0
 32 33  1  0  0  0  0
 32 34  1  0  0  0  0
 35 36  1  0  0  0  0
 36 37  1  0  0  0  0
 36 38  2  0  0  0  0
 38 39  1  0  0  0  0
M  END
> <ConfClashScore>
0 

> <ConfOneFourInteractionScore>
-0.981127 

> <ConfScore>
-0.00218669 

> <ConfScorePBest>
0.0107725 

> <ConfTolerance>
0.842946 

$$$$
ADP.****
  PyMOL2.5          3D                             0

 39 41  0  0  0  0  0  0  0  0999 V2000
    0.3523    5.6542    0.8835 P   0  0  0  1  0  0  0  0  0  0  0  0
   -0.9908    5.7069    0.2642 O   0  0  0  1  0  0  0  0  0  0  0  0
    0.4485    6.2125    2.4013 O   0  5  0  1  0  0  0  0  0  0  0  0
    1.4858    6.3037   -0.0745 O   0  5  0  1  0  0  0  0  0  0  0  0
    0.8773    2.9569   -0.2253 P   0  0  0  1  0  0  0  0  0  0  0  0
    1.0316    3.4603   -1.6085 O   0  0  0  1  0  0  0  0  0  0  0  0
    2.0315    1.8772    0.1304 O   0  5  0  1  0  0  0  0  0  0  0  0
    0.8776    4.1437    0.8571 O   0  0  0  1  0  0  0  0  0  0  0  0
   -0.4164    2.0853   -0.0839 O   0  0  0  1  0  0  0  0  0  0  0  0
   -0.7097    0.8931   -0.8501 C   0  0  0  1  0  0  0  0  0  0  0  0
    0.2138    0.4515   -1.1615 H   0  0  0  1  0  0  0  0  0  0  0  0
   -1.2804    1.1723   -1.7110 H   0  0  0  1  0  0  0  0  0  0  0  0
   -1.4928   -0.1310   -0.0641 C   0  0  0  1  0  0  0  0  0  0  0  0
   -1.8665   -0.8818   -0.7286 H   0  0  0  1  0  0  0  0  0  0  0  0
   -0.6588   -0.7289    0.9441 O   0  0  0  1  0  0  0  0  0  0  0  0
   -2.6633    0.5504    0.6870 C   0  0  0  1  0  0  0  0  0  0  0  0
   -2.8928    1.5038    0.2589 H   0  0  0  1  0  0  0  0  0  0  0  0
   -3.8311   -0.2718    0.6736 O   0  0  0  1  0  0  0  0  0  0  0  0
   -4.3136   -0.1299   -0.1441 H   0  0  0  1  0  0  0  0  0  0  0  0
   -2.1166    0.7009    2.0957 C   0  0  0  1  0  0  0  0  0  0  0  0
   -1.5773    1.6187    2.2046 H   0  0  0  1  0  0  0  0  0  0  0  0
   -3.1600    0.6466    3.0593 O   0  0  0  1  0  0  0  0  0  0  0  0
   -2.8553    0.1701    3.8350 H   0  0  0  1  0  0  0  0  0  0  0  0
   -1.1801   -0.5110    2.2234 C   0  0  0  1  0  0  0  0  0  0  0  0
   -1.7261   -1.3699    2.5539 H   0  0  0  1  0  0  0  0  0  0  0  0
   -0.1020   -0.2235    3.1700 N   0  0  0  1  0  0  0  0  0  0  0  0
    0.7963    0.7971    3.1061 C   0  0  0  1  0  0  0  0  0  0  0  0
    0.7885    1.5018    2.3413 H   0  0  0  1  0  0  0  0  0  0  0  0
    1.6684    0.8247    4.0770 N   0  0  0  1  0  0  0  0  0  0  0  0
    1.3172   -0.2642    4.8597 C   0  0  0  1  0  0  0  0  0  0  0  0
    1.8242   -0.8219    6.0298 C   0  0  0  1  0  0  0  0  0  0  0  0
    2.9061   -0.3083    6.6949 N   0  0  0  1  0  0  0  0  0  0  0  0
    3.3152    0.5291    6.3920 H   0  0  0  1  0  0  0  0  0  0  0  0
    3.2710   -0.7783    7.4736 H   0  0  0  1  0  0  0  0  0  0  0  0
    1.2465   -1.9102    6.5499 N   0  0  0  1  0  0  0  0  0  0  0  0
    0.1939   -2.4344    5.9025 C   0  0  0  1  0  0  0  0  0  0  0  0
   -0.2244   -3.2820    6.3362 H   0  0  0  1  0  0  0  0  0  0  0  0
   -0.3852   -2.0170    4.7834 N   0  0  0  1  0  0  0  0  0  0  0  0
    0.2132   -0.9253    4.3049 C   0  0  0  1  0  0  0  0  0  0  0  0
  1  2  2  0  0  0  0
  1  3  1  0  0  0  0
  1  4  1  0  0  0  0
  1  8  1  0  0  0  0
  5  6  2  0  0  0  0
  5  7  1  0  0  0  0
  5  8  1  0  0  0  0
  5  9  1  0  0  0  0
  9 10  1  0  0  0  0
 10 11  1  0  0  0  0
 10 12  1  0  0  0  0
 10 13  1  0  0  0  0
 13 14  1  0  0  0  0
 13 15  1  0  0  0  0
 13 16  1  0  0  0  0
 15 24  1  0  0  0  0
 16 17  1  0  0  0  0
 16 18  1  0  0  0  0
 16 20  1  0  0  0  0
 18 19  1  0  0  0  0
 20 21  1  0  0  0  0
 20 22  1  0  0  0  0
 20 24  1  0  0  0  0
 22 23  1  0  0  0  0
 24 25  1  0  0  0  0
 24 26  1  0  0  0  0
 26 27  1  0  0  0  0
 26 39  1  0  0  0  0
 27 28  1  0  0  0  0
 27 29  2  0  0  0  0
 29 30  1  0  0  0  0
 30 31  1  0  0  0  0
 30 39  2  0  0  0  0
 31 32  1  0  0  0  0
 31 35  2  0  0  0  0
 32 33  1  0  0  0  0
 32 34  1  0  0  0  0
 35 36  1  0  0  0  0
 36 37  1  0  0  0  0
 36 38  2  0  0  0  0
 38 39  1  0  0  0  0
M  END
> <ConfClashScore>
0 

> <ConfOneFourInteractionScore>
-0.986061 

> <ConfScore>
-0.00217587 

> <ConfScorePBest>
0.0106695 

> <ConfTolerance>
0.957741 

$$$$
ADP.****
  PyMOL2.5          3D                             0

 39 41  0  0  0  0  0  0  0  0999 V2000
    3.3163    2.0399   -0.2497 P   0  0  0  1  0  0  0  0  0  0  0  0
    4.1067    3.2673   -0.0067 O   0  0  0  1  0  0  0  0  0  0  0  0
    2.8944    1.2615    1.1071 O   0  5  0  1  0  0  0  0  0  0  0  0
    4.0355    0.9431   -1.2006 O   0  5  0  1  0  0  0  0  0  0  0  0
    0.5618    3.1162   -0.4380 P   0  0  0  1  0  0  0  0  0  0  0  0
    0.6879    3.9419    0.7837 O   0  0  0  1  0  0  0  0  0  0  0  0
   -0.2583    3.8515   -1.6259 O   0  5  0  1  0  0  0  0  0  0  0  0
    1.9646    2.5267   -0.9527 O   0  0  0  1  0  0  0  0  0  0  0  0
   -0.3318    1.9113    0.0258 O   0  0  0  1  0  0  0  0  0  0  0  0
   -0.7092    0.8229   -0.8498 C   0  0  0  1  0  0  0  0  0  0  0  0
    0.1670    0.3488   -1.2403 H   0  0  0  1  0  0  0  0  0  0  0  0
   -1.3042    1.1947   -1.6576 H   0  0  0  1  0  0  0  0  0  0  0  0
   -1.5088   -0.1655   -0.0344 C   0  0  0  1  0  0  0  0  0  0  0  0
   -1.9273   -0.9072   -0.6822 H   0  0  0  1  0  0  0  0  0  0  0  0
   -0.6595   -0.7940    0.9590 O   0  0  0  1  0  0  0  0  0  0  0  0
   -2.6255    0.5603    0.7258 C   0  0  0  1  0  0  0  0  0  0  0  0
   -2.8424    1.5072    0.2773 H   0  0  0  1  0  0  0  0  0  0  0  0
   -3.8141   -0.2306    0.7684 O   0  0  0  1  0  0  0  0  0  0  0  0
   -4.4209    0.0659    0.0861 H   0  0  0  1  0  0  0  0  0  0  0  0
   -2.0330    0.7392    2.1296 C   0  0  0  1  0  0  0  0  0  0  0  0
   -1.4887    1.6572    2.2070 H   0  0  0  1  0  0  0  0  0  0  0  0
   -3.0517    0.7032    3.1302 O   0  0  0  1  0  0  0  0  0  0  0  0
   -3.3986   -0.1890    3.2024 H   0  0  0  1  0  0  0  0  0  0  0  0
   -1.0948   -0.4781    2.2432 C   0  0  0  1  0  0  0  0  0  0  0  0
   -1.6232   -1.3080    2.6639 H   0  0  0  1  0  0  0  0  0  0  0  0
    0.0516   -0.1476    3.0920 N   0  0  0  1  0  0  0  0  0  0  0  0
    1.3536   -0.0435    2.7092 C   0  0  0  1  0  0  0  0  0  0  0  0
    1.6612   -0.1911    1.7268 H   0  0  0  1  0  0  0  0  0  0  0  0
    2.1873    0.2555    3.6682 N   0  0  0  1  0  0  0  0  0  0  0  0
    1.3719    0.3692    4.7834 C   0  0  0  1  0  0  0  0  0  0  0  0
    1.5991    0.6541    6.1266 C   0  0  0  1  0  0  0  0  0  0  0  0
    2.8450    0.9088    6.6363 N   0  0  0  1  0  0  0  0  0  0  0  0
    2.9914    0.8895    7.6051 H   0  0  0  1  0  0  0  0  0  0  0  0
    3.5897    1.1104    6.0320 H   0  0  0  1  0  0  0  0  0  0  0  0
    0.5704    0.6870    6.9806 N   0  0  0  1  0  0  0  0  0  0  0  0
   -0.6554    0.4256    6.4999 C   0  0  0  1  0  0  0  0  0  0  0  0
   -1.4276    0.4569    7.1958 H   0  0  0  1  0  0  0  0  0  0  0  0
   -1.0150    0.1326    5.2562 N   0  0  0  1  0  0  0  0  0  0  0  0
    0.0370    0.1212    4.4363 C   0  0  0  1  0  0  0  0  0  0  0  0
  1  2  2  0  0  0  0
  1  3  1  0  0  0  0
  1  4  1  0  0  0  0
  1  8  1  0  0  0  0
  5  6  2  0  0  0  0
  5  7  1  0  0  0  0
  5  8  1  0  0  0  0
  5  9  1  0  0  0  0
  9 10  1  0  0  0  0
 10 11  1  0  0  0  0
 10 12  1  0  0  0  0
 10 13  1  0  0  0  0
 13 14  1  0  0  0  0
 13 15  1  0  0  0  0
 13 16  1  0  0  0  0
 15 24  1  0  0  0  0
 16 17  1  0  0  0  0
 16 18  1  0  0  0  0
 16 20  1  0  0  0  0
 18 19  1  0  0  0  0
 20 21  1  0  0  0  0
 20 22  1  0  0  0  0
 20 24  1  0  0  0  0
 22 23  1  0  0  0  0
 24 25  1  0  0  0  0
 24 26  1  0  0  0  0
 26 27  1  0  0  0  0
 26 39  1  0  0  0  0
 27 28  1  0  0  0  0
 27 29  2  0  0  0  0
 29 30  1  0  0  0  0
 30 31  1  0  0  0  0
 30 39  2  0  0  0  0
 31 32  1  0  0  0  0
 31 35  2  0  0  0  0
 32 33  1  0  0  0  0
 32 34  1  0  0  0  0
 35 36  1  0  0  0  0
 36 37  1  0  0  0  0
 36 38  2  0  0  0  0
 38 39  1  0  0  0  0
M  END
> <ConfClashScore>
0 

> <ConfOneFourInteractionScore>
-0.979254 

> <ConfScore>
-0.00154743 

> <ConfScorePBest>
0.0105665 

> <ConfTolerance>
1.02111 

$$$$
ADP.****
  PyMOL2.5          3D                             0

 39 41  0  0  0  0  0  0  0  0999 V2000
   -3.0936    2.2032   -5.6756 P   0  0  0  1  0  0  0  0  0  0  0  0
   -1.8916    2.0224   -6.5200 O   0  0  0  1  0  0  0  0  0  0  0  0
   -4.3625    1.7134   -6.5557 O   0  5  0  1  0  0  0  0  0  0  0  0
   -3.2832    3.7369   -5.1896 O   0  5  0  1  0  0  0  0  0  0  0  0
   -1.6963    0.9953   -3.4814 P   0  0  0  1  0  0  0  0  0  0  0  0
   -0.6896    0.1251   -4.1292 O   0  0  0  1  0  0  0  0  0  0  0  0
   -0.9487    2.3924   -3.1448 O   0  5  0  1  0  0  0  0  0  0  0  0
   -3.0329    1.2765   -4.3510 O   0  0  0  1  0  0  0  0  0  0  0  0
   -2.0888    0.3634   -2.0948 O   0  0  0  1  0  0  0  0  0  0  0  0
   -1.0708   -0.0987   -1.1749 C   0  0  0  1  0  0  0  0  0  0  0  0
   -0.3674    0.6851   -0.9860 H   0  0  0  1  0  0  0  0  0  0  0  0
   -0.5614   -0.9435   -1.5895 H   0  0  0  1  0  0  0  0  0  0  0  0
   -1.7609   -0.4942    0.1142 C   0  0  0  1  0  0  0  0  0  0  0  0
   -2.4667   -1.2739   -0.0831 H   0  0  0  1  0  0  0  0  0  0  0  0
   -0.7908   -0.9358    1.0816 O   0  0  0  1  0  0  0  0  0  0  0  0
   -2.4398    0.6662    0.7013 C   0  0  0  1  0  0  0  0  0  0  0  0
   -1.9735    1.5746    0.3815 H   0  0  0  1  0  0  0  0  0  0  0  0
   -3.8184    0.6809    0.3281 O   0  0  0  1  0  0  0  0  0  0  0  0
   -4.1507    1.5808    0.3644 H   0  0  0  1  0  0  0  0  0  0  0  0
   -2.2970    0.4952    2.2065 C   0  0  0  1  0  0  0  0  0  0  0  0
   -2.2980    1.4389    2.7109 H   0  0  0  1  0  0  0  0  0  0  0  0
   -3.3316   -0.3321    2.7408 O   0  0  0  1  0  0  0  0  0  0  0  0
   -3.0553   -1.2510    2.7097 H   0  0  0  1  0  0  0  0  0  0  0  0
   -0.9305   -0.1871    2.2945 C   0  0  0  1  0  0  0  0  0  0  0  0
   -0.8937   -0.8398    3.1416 H   0  0  0  1  0  0  0  0  0  0  0  0
    0.1316    0.8119    2.4015 N   0  0  0  1  0  0  0  0  0  0  0  0
    1.0011    1.2507    1.4506 C   0  0  0  1  0  0  0  0  0  0  0  0
    0.9888    0.8934    0.4740 H   0  0  0  1  0  0  0  0  0  0  0  0
    1.8515    2.1538    1.8569 N   0  0  0  1  0  0  0  0  0  0  0  0
    1.5158    2.3399    3.1889 C   0  0  0  1  0  0  0  0  0  0  0  0
    2.0142    3.1405    4.2124 C   0  0  0  1  0  0  0  0  0  0  0  0
    3.0666    4.0011    4.0432 N   0  0  0  1  0  0  0  0  0  0  0  0
    3.4847    4.0966    3.1620 H   0  0  0  1  0  0  0  0  0  0  0  0
    3.4015    4.5211    4.8034 H   0  0  0  1  0  0  0  0  0  0  0  0
    1.4576    3.0863    5.4273 N   0  0  0  1  0  0  0  0  0  0  0  0
    0.4343    2.2376    5.6135 C   0  0  0  1  0  0  0  0  0  0  0  0
    0.0318    2.2219    6.5723 H   0  0  0  1  0  0  0  0  0  0  0  0
   -0.1331    1.4158    4.7391 N   0  0  0  1  0  0  0  0  0  0  0  0
    0.4433    1.5092    3.5400 C   0  0  0  1  0  0  0  0  0  0  0  0
  1  2  2  0  0  0  0
  1  3  1  0  0  0  0
  1  4  1  0  0  0  0
  1  8  1  0  0  0  0
  5  6  2  0  0  0  0
  5  7  1  0  0  0  0
  5  8  1  0  0  0  0
  5  9  1  0  0  0  0
  9 10  1  0  0  0  0
 10 11  1  0  0  0  0
 10 12  1  0  0  0  0
 10 13  1  0  0  0  0
 13 14  1  0  0  0  0
 13 15  1  0  0  0  0
 13 16  1  0  0  0  0
 15 24  1  0  0  0  0
 16 17  1  0  0  0  0
 16 18  1  0  0  0  0
 16 20  1  0  0  0  0
 18 19  1  0  0  0  0
 20 21  1  0  0  0  0
 20 22  1  0  0  0  0
 20 24  1  0  0  0  0
 22 23  1  0  0  0  0
 24 25  1  0  0  0  0
 24 26  1  0  0  0  0
 26 27  1  0  0  0  0
 26 39  1  0  0  0  0
 27 28  1  0  0  0  0
 27 29  2  0  0  0  0
 29 30  1  0  0  0  0
 30 31  1  0  0  0  0
 30 39  2  0  0  0  0
 31 32  1  0  0  0  0
 31 35  2  0  0  0  0
 32 33  1  0  0  0  0
 32 34  1  0  0  0  0
 35 36  1  0  0  0  0
 36 37  1  0  0  0  0
 36 38  2  0  0  0  0
 38 39  1  0  0  0  0
M  END
> <ConfClashScore>
0 

> <ConfOneFourInteractionScore>
-0.980272 

> <ConfScore>
-0.00014192 

> <ConfScorePBest>
0.0104635 

> <ConfTolerance>
0.915001 

$$$$
ADP.****
  PyMOL2.5          3D                             0

 39 41  0  0  0  0  0  0  0  0999 V2000
    0.3226   -0.9000   -4.2048 P   0  0  0  1  0  0  0  0  0  0  0  0
    1.2506   -0.5228   -5.2943 O   0  0  0  1  0  0  0  0  0  0  0  0
    1.0400   -0.2736   -2.8943 O   0  5  0  1  0  0  0  0  0  0  0  0
    0.2367   -2.5016   -3.9773 O   0  5  0  1  0  0  0  0  0  0  0  0
   -1.5818    1.0775   -3.5238 P   0  0  0  1  0  0  0  0  0  0  0  0
   -0.5695    2.1561   -3.5741 O   0  0  0  1  0  0  0  0  0  0  0  0
   -2.8995    1.6653   -4.2603 O   0  5  0  1  0  0  0  0  0  0  0  0
   -1.1510   -0.2465   -4.3415 O   0  0  0  1  0  0  0  0  0  0  0  0
   -2.0120    0.6070   -2.0852 O   0  0  0  1  0  0  0  0  0  0  0  0
   -1.0419    0.0527   -1.1645 C   0  0  0  1  0  0  0  0  0  0  0  0
   -0.3265    0.8012   -0.8947 H   0  0  0  1  0  0  0  0  0  0  0  0
   -0.5388   -0.7746   -1.6198 H   0  0  0  1  0  0  0  0  0  0  0  0
   -1.7892   -0.4123    0.0648 C   0  0  0  1  0  0  0  0  0  0  0  0
   -2.5153   -1.1466   -0.2151 H   0  0  0  1  0  0  0  0  0  0  0  0
   -0.8716   -0.9529    1.0421 O   0  0  0  1  0  0  0  0  0  0  0  0
   -2.4638    0.7718    0.7638 C   0  0  0  1  0  0  0  0  0  0  0  0
   -1.9796    1.6923    0.5127 H   0  0  0  1  0  0  0  0  0  0  0  0
   -3.8426    0.8506    0.4183 O   0  0  0  1  0  0  0  0  0  0  0  0
   -3.9453    0.7070   -0.5253 H   0  0  0  1  0  0  0  0  0  0  0  0
   -2.2904    0.4513    2.2252 C   0  0  0  1  0  0  0  0  0  0  0  0
   -2.2769    1.3429    2.8167 H   0  0  0  1  0  0  0  0  0  0  0  0
   -3.3284   -0.4131    2.6894 O   0  0  0  1  0  0  0  0  0  0  0  0
   -3.1656   -0.6456    3.6065 H   0  0  0  1  0  0  0  0  0  0  0  0
   -0.9271   -0.2545    2.2562 C   0  0  0  1  0  0  0  0  0  0  0  0
   -0.8683   -0.9292    3.0846 H   0  0  0  1  0  0  0  0  0  0  0  0
    0.1599    0.7213    2.3430 N   0  0  0  1  0  0  0  0  0  0  0  0
    0.9508    1.1620    1.3266 C   0  0  0  1  0  0  0  0  0  0  0  0
    0.8397    0.8299    0.3474 H   0  0  0  1  0  0  0  0  0  0  0  0
    1.8593    2.0327    1.6737 N   0  0  0  1  0  0  0  0  0  0  0  0
    1.6517    2.1934    3.0348 C   0  0  0  1  0  0  0  0  0  0  0  0
    2.2632    2.9549    4.0263 C   0  0  0  1  0  0  0  0  0  0  0  0
    3.3191    3.7925    3.7810 N   0  0  0  1  0  0  0  0  0  0  0  0
    3.6860    3.8661    2.8752 H   0  0  0  1  0  0  0  0  0  0  0  0
    3.7076    4.3182    4.5112 H   0  0  0  1  0  0  0  0  0  0  0  0
    1.8184    2.8841    5.2856 N   0  0  0  1  0  0  0  0  0  0  0  0
    0.7934    2.0571    5.5455 C   0  0  0  1  0  0  0  0  0  0  0  0
    0.4798    2.0272    6.5367 H   0  0  0  1  0  0  0  0  0  0  0  0
    0.1262    1.2723    4.7084 N   0  0  0  1  0  0  0  0  0  0  0  0
    0.5932    1.3815    3.4638 C   0  0  0  1  0  0  0  0  0  0  0  0
  1  2  2  0  0  0  0
  1  3  1  0  0  0  0
  1  4  1  0  0  0  0
  1  8  1  0  0  0  0
  5  6  2  0  0  0  0
  5  7  1  0  0  0  0
  5  8  1  0  0  0  0
  5  9  1  0  0  0  0
  9 10  1  0  0  0  0
 10 11  1  0  0  0  0
 10 12  1  0  0  0  0
 10 13  1  0  0  0  0
 13 14  1  0  0  0  0
 13 15  1  0  0  0  0
 13 16  1  0  0  0  0
 15 24  1  0  0  0  0
 16 17  1  0  0  0  0
 16 18  1  0  0  0  0
 16 20  1  0  0  0  0
 18 19  1  0  0  0  0
 20 21  1  0  0  0  0
 20 22  1  0  0  0  0
 20 24  1  0  0  0  0
 22 23  1  0  0  0  0
 24 25  1  0  0  0  0
 24 26  1  0  0  0  0
 26 27  1  0  0  0  0
 26 39  1  0  0  0  0
 27 28  1  0  0  0  0
 27 29  2  0  0  0  0
 29 30  1  0  0  0  0
 30 31  1  0  0  0  0
 30 39  2  0  0  0  0
 31 32  1  0  0  0  0
 31 35  2  0  0  0  0
 32 33  1  0  0  0  0
 32 34  1  0  0  0  0
 35 36  1  0  0  0  0
 36 37  1  0  0  0  0
 36 38  2  0  0  0  0
 38 39  1  0  0  0  0
M  END
> <ConfClashScore>
0 

> <ConfOneFourInteractionScore>
-0.980272 

> <ConfScore>
0.00193721 

> <ConfScorePBest>
0.0103605 

> <ConfTolerance>
0.99468 

$$$$
ADP.****
  PyMOL2.5          3D                             0

 39 41  0  0  0  0  0  0  0  0999 V2000
    3.6466   -1.3462   -1.6883 P   0  0  0  1  0  0  0  0  0  0  0  0
    4.1551   -0.6787   -0.4691 O   0  0  0  1  0  0  0  0  0  0  0  0
    2.5577   -2.4564   -1.2343 O   0  5  0  1  0  0  0  0  0  0  0  0
    4.7013   -1.9344   -2.7681 O   0  5  0  1  0  0  0  0  0  0  0  0
    1.7633    0.8219   -1.9803 P   0  0  0  1  0  0  0  0  0  0  0  0
    2.4237    1.8272   -1.1179 O   0  0  0  1  0  0  0  0  0  0  0  0
    1.2367    1.5322   -3.3377 O   0  5  0  1  0  0  0  0  0  0  0  0
    2.7920   -0.2803   -2.5348 O   0  0  0  1  0  0  0  0  0  0  0  0
    0.4478    0.2040   -1.3810 O   0  0  0  1  0  0  0  0  0  0  0  0
   -0.6968    0.8901   -0.8217 C   0  0  0  1  0  0  0  0  0  0  0  0
   -1.2847    1.3179   -1.6068 H   0  0  0  1  0  0  0  0  0  0  0  0
   -0.3698    1.6634   -0.1584 H   0  0  0  1  0  0  0  0  0  0  0  0
   -1.5176   -0.1301   -0.0598 C   0  0  0  1  0  0  0  0  0  0  0  0
   -1.9100   -0.8545   -0.7425 H   0  0  0  1  0  0  0  0  0  0  0  0
   -0.6961   -0.7829    0.9412 O   0  0  0  1  0  0  0  0  0  0  0  0
   -2.6631    0.5660    0.6854 C   0  0  0  1  0  0  0  0  0  0  0  0
   -2.8721    1.5246    0.2584 H   0  0  0  1  0  0  0  0  0  0  0  0
   -3.8469   -0.2329    0.6662 O   0  0  0  1  0  0  0  0  0  0  0  0
   -4.2612   -0.1712   -0.1976 H   0  0  0  1  0  0  0  0  0  0  0  0
   -2.1170    0.7064    2.1122 C   0  0  0  1  0  0  0  0  0  0  0  0
   -1.5818    1.6249    2.2342 H   0  0  0  1  0  0  0  0  0  0  0  0
   -3.1668    0.6344    3.0780 O   0  0  0  1  0  0  0  0  0  0  0  0
   -2.8730    0.1192    3.8329 H   0  0  0  1  0  0  0  0  0  0  0  0
   -1.1745   -0.5081    2.2197 C   0  0  0  1  0  0  0  0  0  0  0  0
   -1.7102   -1.3534    2.5983 H   0  0  0  1  0  0  0  0  0  0  0  0
   -0.0588   -0.1965    3.1137 N   0  0  0  1  0  0  0  0  0  0  0  0
    0.1476   -0.6809    4.3689 C   0  0  0  1  0  0  0  0  0  0  0  0
   -0.5015   -1.3557    4.8216 H   0  0  0  1  0  0  0  0  0  0  0  0
    1.2215   -0.2347    4.9616 N   0  0  0  1  0  0  0  0  0  0  0  0
    1.7842    0.6122    4.0194 C   0  0  0  1  0  0  0  0  0  0  0  0
    2.9195    1.4169    3.9930 C   0  0  0  1  0  0  0  0  0  0  0  0
    3.7560    1.4753    5.0693 N   0  0  0  1  0  0  0  0  0  0  0  0
    4.5690    2.0210    5.0290 H   0  0  0  1  0  0  0  0  0  0  0  0
    3.5439    0.9715    5.8827 H   0  0  0  1  0  0  0  0  0  0  0  0
    3.1941    2.1404    2.9023 N   0  0  0  1  0  0  0  0  0  0  0  0
    2.3410    2.0688    1.8683 C   0  0  0  1  0  0  0  0  0  0  0  0
    2.5872    2.6490    1.0410 H   0  0  0  1  0  0  0  0  0  0  0  0
    1.2257    1.3574    1.7591 N   0  0  0  1  0  0  0  0  0  0  0  0
    0.9952    0.6433    2.8617 C   0  0  0  1  0  0  0  0  0  0  0  0
  1  2  2  0  0  0  0
  1  3  1  0  0  0  0
  1  4  1  0  0  0  0
  1  8  1  0  0  0  0
  5  6  2  0  0  0  0
  5  7  1  0  0  0  0
  5  8  1  0  0  0  0
  5  9  1  0  0  0  0
  9 10  1  0  0  0  0
 10 11  1  0  0  0  0
 10 12  1  0  0  0  0
 10 13  1  0  0  0  0
 13 14  1  0  0  0  0
 13 15  1  0  0  0  0
 13 16  1  0  0  0  0
 15 24  1  0  0  0  0
 16 17  1  0  0  0  0
 16 18  1  0  0  0  0
 16 20  1  0  0  0  0
 18 19  1  0  0  0  0
 20 21  1  0  0  0  0
 20 22  1  0  0  0  0
 20 24  1  0  0  0  0
 22 23  1  0  0  0  0
 24 25  1  0  0  0  0
 24 26  1  0  0  0  0
 26 27  1  0  0  0  0
 26 39  1  0  0  0  0
 27 28  1  0  0  0  0
 27 29  2  0  0  0  0
 29 30  1  0  0  0  0
 30 31  1  0  0  0  0
 30 39  2  0  0  0  0
 31 32  1  0  0  0  0
 31 35  2  0  0  0  0
 32 33  1  0  0  0  0
 32 34  1  0  0  0  0
 35 36  1  0  0  0  0
 36 37  1  0  0  0  0
 36 38  2  0  0  0  0
 38 39  1  0  0  0  0
M  END
> <ConfClashScore>
0 

> <ConfOneFourInteractionScore>
-0.982876 

> <ConfScore>
0.00266452 

> <ConfScorePBest>
0.0102575 

> <ConfTolerance>
0.995649 

$$$$
ADP.****
  PyMOL2.5          3D                             0

 39 41  0  0  0  0  0  0  0  0999 V2000
    1.4795    4.6785   -2.3169 P   0  0  0  1  0  0  0  0  0  0  0  0
    0.6291    5.4518   -3.2492 O   0  0  0  1  0  0  0  0  0  0  0  0
    2.1510    5.6096   -1.1739 O   0  5  0  1  0  0  0  0  0  0  0  0
    2.7041    4.1616   -3.2430 O   0  5  0  1  0  0  0  0  0  0  0  0
    0.5203    1.9365   -2.0748 P   0  0  0  1  0  0  0  0  0  0  0  0
   -0.2958    2.1652   -3.2881 O   0  0  0  1  0  0  0  0  0  0  0  0
    1.9270    1.2332   -2.4636 O   0  5  0  1  0  0  0  0  0  0  0  0
    0.8658    3.4144   -1.5444 O   0  0  0  1  0  0  0  0  0  0  0  0
   -0.2658    1.2037   -0.9300 O   0  0  0  1  0  0  0  0  0  0  0  0
   -1.1308    0.0678   -1.1656 C   0  0  0  1  0  0  0  0  0  0  0  0
   -0.5435   -0.7559   -1.5142 H   0  0  0  1  0  0  0  0  0  0  0  0
   -1.8582    0.3266   -1.9064 H   0  0  0  1  0  0  0  0  0  0  0  0
   -1.8380   -0.3295    0.1084 C   0  0  0  1  0  0  0  0  0  0  0  0
   -2.6309   -1.0105   -0.1207 H   0  0  0  1  0  0  0  0  0  0  0  0
   -0.9085   -0.9393    1.0228 O   0  0  0  1  0  0  0  0  0  0  0  0
   -2.3708    0.8591    0.7833 C   0  0  0  1  0  0  0  0  0  0  0  0
   -1.8097    1.7282    0.5101 H   0  0  0  1  0  0  0  0  0  0  0  0
   -3.7448    1.0528    0.4446 O   0  0  0  1  0  0  0  0  0  0  0  0
   -4.1169    0.2258    0.1296 H   0  0  0  1  0  0  0  0  0  0  0  0
   -2.2235    0.5754    2.2709 C   0  0  0  1  0  0  0  0  0  0  0  0
   -2.1090    1.4784    2.8335 H   0  0  0  1  0  0  0  0  0  0  0  0
   -3.3364   -0.1634    2.7766 O   0  0  0  1  0  0  0  0  0  0  0  0
   -3.2481   -1.0864    2.5275 H   0  0  0  1  0  0  0  0  0  0  0  0
   -0.9422   -0.2603    2.2833 C   0  0  0  1  0  0  0  0  0  0  0  0
   -0.9657   -0.9668    3.0866 H   0  0  0  1  0  0  0  0  0  0  0  0
    0.2292    0.6047    2.4277 N   0  0  0  1  0  0  0  0  0  0  0  0
    0.4320    1.8166    1.8422 C   0  0  0  1  0  0  0  0  0  0  0  0
   -0.2690    2.2584    1.2137 H   0  0  0  1  0  0  0  0  0  0  0  0
    1.5727    2.3827    2.1290 N   0  0  0  1  0  0  0  0  0  0  0  0
    2.1788    1.4762    2.9850 C   0  0  0  1  0  0  0  0  0  0  0  0
    3.3990    1.4392    3.6533 C   0  0  0  1  0  0  0  0  0  0  0  0
    4.3313    2.4389    3.5629 N   0  0  0  1  0  0  0  0  0  0  0  0
    4.1942    3.1818    2.9387 H   0  0  0  1  0  0  0  0  0  0  0  0
    5.1354    2.4110    4.1224 H   0  0  0  1  0  0  0  0  0  0  0  0
    3.7001    0.3900    4.4261 N   0  0  0  1  0  0  0  0  0  0  0  0
    2.8032   -0.6049    4.5141 C   0  0  0  1  0  0  0  0  0  0  0  0
    3.0760   -1.4041    5.1211 H   0  0  0  1  0  0  0  0  0  0  0  0
    1.6150   -0.7064    3.9311 N   0  0  0  1  0  0  0  0  0  0  0  0
    1.3496    0.3634    3.1800 C   0  0  0  1  0  0  0  0  0  0  0  0
  1  2  2  0  0  0  0
  1  3  1  0  0  0  0
  1  4  1  0  0  0  0
  1  8  1  0  0  0  0
  5  6  2  0  0  0  0
  5  7  1  0  0  0  0
  5  8  1  0  0  0  0
  5  9  1  0  0  0  0
  9 10  1  0  0  0  0
 10 11  1  0  0  0  0
 10 12  1  0  0  0  0
 10 13  1  0  0  0  0
 13 14  1  0  0  0  0
 13 15  1  0  0  0  0
 13 16  1  0  0  0  0
 15 24  1  0  0  0  0
 16 17  1  0  0  0  0
 16 18  1  0  0  0  0
 16 20  1  0  0  0  0
 18 19  1  0  0  0  0
 20 21  1  0  0  0  0
 20 22  1  0  0  0  0
 20 24  1  0  0  0  0
 22 23  1  0  0  0  0
 24 25  1  0  0  0  0
 24 26  1  0  0  0  0
 26 27  1  0  0  0  0
 26 39  1  0  0  0  0
 27 28  1  0  0  0  0
 27 29  2  0  0  0  0
 29 30  1  0  0  0  0
 30 31  1  0  0  0  0
 30 39  2  0  0  0  0
 31 32  1  0  0  0  0
 31 35  2  0  0  0  0
 32 33  1  0  0  0  0
 32 34  1  0  0  0  0
 35 36  1  0  0  0  0
 36 37  1  0  0  0  0
 36 38  2  0  0  0  0
 38 39  1  0  0  0  0
M  END
> <ConfClashScore>
0 

> <ConfOneFourInteractionScore>
-0.976584 

> <ConfScore>
0.00587004 

> <ConfScorePBest>
0.0101545 

> <ConfTolerance>
0.983043 

$$$$
ADP.****
  PyMOL2.5          3D                             0

 39 41  0  0  0  0  0  0  0  0999 V2000
   -3.2500    2.9603   -3.0430 P   0  0  0  1  0  0  0  0  0  0  0  0
   -3.8895    3.2148   -4.3532 O   0  0  0  1  0  0  0  0  0  0  0  0
   -4.0465    1.8601   -2.1600 O   0  5  0  1  0  0  0  0  0  0  0  0
   -3.3760    4.3576   -2.2330 O   0  5  0  1  0  0  0  0  0  0  0  0
   -0.4444    2.5346   -2.5142 P   0  0  0  1  0  0  0  0  0  0  0  0
    0.7641    1.9201   -3.1077 O   0  0  0  1  0  0  0  0  0  0  0  0
   -0.1495    4.0539   -2.0353 O   0  5  0  1  0  0  0  0  0  0  0  0
   -1.7401    2.6025   -3.4613 O   0  0  0  1  0  0  0  0  0  0  0  0
   -0.7583    1.6893   -1.2142 O   0  0  0  1  0  0  0  0  0  0  0  0
   -1.0906    0.2887   -1.3616 C   0  0  0  1  0  0  0  0  0  0  0  0
   -0.2463   -0.2336   -1.7605 H   0  0  0  1  0  0  0  0  0  0  0  0
   -1.9196    0.1918   -2.0312 H   0  0  0  1  0  0  0  0  0  0  0  0
   -1.4593   -0.3098   -0.0231 C   0  0  0  1  0  0  0  0  0  0  0  0
   -1.8009   -1.3142   -0.1629 H   0  0  0  1  0  0  0  0  0  0  0  0
   -0.3297   -0.2771    0.8775 O   0  0  0  1  0  0  0  0  0  0  0  0
   -2.5437    0.5418    0.6737 C   0  0  0  1  0  0  0  0  0  0  0  0
   -2.5220    1.5503    0.3169 H   0  0  0  1  0  0  0  0  0  0  0  0
   -3.8417   -0.0131    0.4560 O   0  0  0  1  0  0  0  0  0  0  0  0
   -4.4741    0.6957    0.3176 H   0  0  0  1  0  0  0  0  0  0  0  0
   -2.1648    0.4812    2.1722 C   0  0  0  1  0  0  0  0  0  0  0  0
   -1.9591    1.4600    2.5523 H   0  0  0  1  0  0  0  0  0  0  0  0
   -3.2149   -0.1182    2.9386 O   0  0  0  1  0  0  0  0  0  0  0  0
   -3.7510    0.5694    3.3404 H   0  0  0  1  0  0  0  0  0  0  0  0
   -0.8948   -0.3967    2.2008 C   0  0  0  1  0  0  0  0  0  0  0  0
   -1.1461   -1.4151    2.4119 H   0  0  0  1  0  0  0  0  0  0  0  0
    0.0465    0.0930    3.2083 N   0  0  0  1  0  0  0  0  0  0  0  0
    0.5672   -0.6058    4.2540 C   0  0  0  1  0  0  0  0  0  0  0  0
    0.3332   -1.6034    4.4317 H   0  0  0  1  0  0  0  0  0  0  0  0
    1.3825    0.0705    5.0168 N   0  0  0  1  0  0  0  0  0  0  0  0
    1.4156    1.3239    4.4256 C   0  0  0  1  0  0  0  0  0  0  0  0
    2.0661    2.5186    4.7197 C   0  0  0  1  0  0  0  0  0  0  0  0
    2.9025    2.6694    5.7942 N   0  0  0  1  0  0  0  0  0  0  0  0
    3.2858    3.5481    5.9972 H   0  0  0  1  0  0  0  0  0  0  0  0
    3.1174    1.8985    6.3598 H   0  0  0  1  0  0  0  0  0  0  0  0
    1.8832    3.5843    3.9326 N   0  0  0  1  0  0  0  0  0  0  0  0
    1.0554    3.4573    2.8835 C   0  0  0  1  0  0  0  0  0  0  0  0
    0.9366    4.3090    2.2986 H   0  0  0  1  0  0  0  0  0  0  0  0
    0.3681    2.3914    2.4918 N   0  0  0  1  0  0  0  0  0  0  0  0
    0.5872    1.3499    3.2956 C   0  0  0  1  0  0  0  0  0  0  0  0
  1  2  2  0  0  0  0
  1  3  1  0  0  0  0
  1  4  1  0  0  0  0
  1  8  1  0  0  0  0
  5  6  2  0  0  0  0
  5  7  1  0  0  0  0
  5  8  1  0  0  0  0
  5  9  1  0  0  0  0
  9 10  1  0  0  0  0
 10 11  1  0  0  0  0
 10 12  1  0  0  0  0
 10 13  1  0  0  0  0
 13 14  1  0  0  0  0
 13 15  1  0  0  0  0
 13 16  1  0  0  0  0
 15 24  1  0  0  0  0
 16 17  1  0  0  0  0
 16 18  1  0  0  0  0
 16 20  1  0  0  0  0
 18 19  1  0  0  0  0
 20 21  1  0  0  0  0
 20 22  1  0  0  0  0
 20 24  1  0  0  0  0
 22 23  1  0  0  0  0
 24 25  1  0  0  0  0
 24 26  1  0  0  0  0
 26 27  1  0  0  0  0
 26 39  1  0  0  0  0
 27 28  1  0  0  0  0
 27 29  2  0  0  0  0
 29 30  1  0  0  0  0
 30 31  1  0  0  0  0
 30 39  2  0  0  0  0
 31 32  1  0  0  0  0
 31 35  2  0  0  0  0
 32 33  1  0  0  0  0
 32 34  1  0  0  0  0
 35 36  1  0  0  0  0
 36 37  1  0  0  0  0
 36 38  2  0  0  0  0
 38 39  1  0  0  0  0
M  END
> <ConfClashScore>
0 

> <ConfOneFourInteractionScore>
-0.982586 

> <ConfScore>
0.00697982 

> <ConfScorePBest>
0.0100515 

> <ConfTolerance>
1.13251 

$$$$
ADP.****
  PyMOL2.5          3D                             0

 39 41  0  0  0  0  0  0  0  0999 V2000
    0.2618   -2.7844   -5.4552 P   0  0  0  1  0  0  0  0  0  0  0  0
   -1.0701   -3.0547   -6.0412 O   0  0  0  1  0  0  0  0  0  0  0  0
    1.0974   -1.6618   -6.2714 O   0  5  0  1  0  0  0  0  0  0  0  0
    1.0271   -4.2121   -5.4689 O   0  5  0  1  0  0  0  0  0  0  0  0
   -0.2671   -0.8002   -3.4529 P   0  0  0  1  0  0  0  0  0  0  0  0
    0.9148    0.0899   -3.4167 O   0  0  0  1  0  0  0  0  0  0  0  0
   -1.4095   -0.2594   -4.4662 O   0  5  0  1  0  0  0  0  0  0  0  0
    0.3428   -2.2181   -3.9421 O   0  0  0  1  0  0  0  0  0  0  0  0
   -0.7710   -0.9867   -1.9739 O   0  0  0  1  0  0  0  0  0  0  0  0
   -1.1916    0.1542   -1.1819 C   0  0  0  1  0  0  0  0  0  0  0  0
   -1.9268    0.7181   -1.7170 H   0  0  0  1  0  0  0  0  0  0  0  0
   -0.3497    0.7785   -0.9664 H   0  0  0  1  0  0  0  0  0  0  0  0
   -1.7830   -0.3731    0.1034 C   0  0  0  1  0  0  0  0  0  0  0  0
   -2.4991   -1.1363   -0.1196 H   0  0  0  1  0  0  0  0  0  0  0  0
   -0.7439   -0.8991    0.9492 O   0  0  0  1  0  0  0  0  0  0  0  0
   -2.4207    0.7161    0.8512 C   0  0  0  1  0  0  0  0  0  0  0  0
   -1.9814    1.6565    0.5912 H   0  0  0  1  0  0  0  0  0  0  0  0
   -3.8244    0.7540    0.5815 O   0  0  0  1  0  0  0  0  0  0  0  0
   -3.9898    0.4207   -0.3034 H   0  0  0  1  0  0  0  0  0  0  0  0
   -2.1682    0.3974    2.3175 C   0  0  0  1  0  0  0  0  0  0  0  0
   -2.1352    1.2860    2.9126 H   0  0  0  1  0  0  0  0  0  0  0  0
   -3.1588   -0.4895    2.8394 O   0  0  0  1  0  0  0  0  0  0  0  0
   -4.0252   -0.0836    2.7615 H   0  0  0  1  0  0  0  0  0  0  0  0
   -0.7970   -0.2765    2.2378 C   0  0  0  1  0  0  0  0  0  0  0  0
   -0.6967   -1.0099    3.0104 H   0  0  0  1  0  0  0  0  0  0  0  0
    0.2688    0.7190    2.3676 N   0  0  0  1  0  0  0  0  0  0  0  0
    0.9019    1.3728    1.3554 C   0  0  0  1  0  0  0  0  0  0  0  0
    0.6153    1.2741    0.3605 H   0  0  0  1  0  0  0  0  0  0  0  0
    1.8957    2.1329    1.7274 N   0  0  0  1  0  0  0  0  0  0  0  0
    1.9229    1.9806    3.1050 C   0  0  0  1  0  0  0  0  0  0  0  0
    2.7249    2.4900    4.1220 C   0  0  0  1  0  0  0  0  0  0  0  0
    3.7649    3.3518    3.8929 N   0  0  0  1  0  0  0  0  0  0  0  0
    3.9594    3.6537    2.9811 H   0  0  0  1  0  0  0  0  0  0  0  0
    4.3143    3.6665    4.6409 H   0  0  0  1  0  0  0  0  0  0  0  0
    2.4905    2.1376    5.3906 N   0  0  0  1  0  0  0  0  0  0  0  0
    1.4839    1.2825    5.6307 C   0  0  0  1  0  0  0  0  0  0  0  0
    1.3366    1.0301    6.6288 H   0  0  0  1  0  0  0  0  0  0  0  0
    0.6512    0.7158    4.7662 N   0  0  0  1  0  0  0  0  0  0  0  0
    0.9118    1.1018    3.5164 C   0  0  0  1  0  0  0  0  0  0  0  0
  1  2  2  0  0  0  0
  1  3  1  0  0  0  0
  1  4  1  0  0  0  0
  1  8  1  0  0  0  0
  5  6  2  0  0  0  0
  5  7  1  0  0  0  0
  5  8  1  0  0  0  0
  5  9  1  0  0  0  0
  9 10  1  0  0  0  0
 10 11  1  0  0  0  0
 10 12  1  0  0  0  0
 10 13  1  0  0  0  0
 13 14  1  0  0  0  0
 13 15  1  0  0  0  0
 13 16  1  0  0  0  0
 15 24  1  0  0  0  0
 16 17  1  0  0  0  0
 16 18  1  0  0  0  0
 16 20  1  0  0  0  0
 18 19  1  0  0  0  0
 20 21  1  0  0  0  0
 20 22  1  0  0  0  0
 20 24  1  0  0  0  0
 22 23  1  0  0  0  0
 24 25  1  0  0  0  0
 24 26  1  0  0  0  0
 26 27  1  0  0  0  0
 26 39  1  0  0  0  0
 27 28  1  0  0  0  0
 27 29  2  0  0  0  0
 29 30  1  0  0  0  0
 30 31  1  0  0  0  0
 30 39  2  0  0  0  0
 31 32  1  0  0  0  0
 31 35  2  0  0  0  0
 32 33  1  0  0  0  0
 32 34  1  0  0  0  0
 35 36  1  0  0  0  0
 36 37  1  0  0  0  0
 36 38  2  0  0  0  0
 38 39  1  0  0  0  0
M  END
> <ConfClashScore>
0 

> <ConfOneFourInteractionScore>
-0.973465 

> <ConfScore>
0.00920748 

> <ConfScorePBest>
0.0099485 

> <ConfTolerance>
0.884778 

$$$$
ADP.****
  PyMOL2.5          3D                             0

 39 41  0  0  0  0  0  0  0  0999 V2000
    3.2239   -1.9022   -3.1351 P   0  0  0  1  0  0  0  0  0  0  0  0
    3.7114   -3.2961   -3.2338 O   0  0  0  1  0  0  0  0  0  0  0  0
    3.9267   -1.0080   -4.2887 O   0  5  0  1  0  0  0  0  0  0  0  0
    3.6127   -1.1850   -1.7355 O   0  5  0  1  0  0  0  0  0  0  0  0
    0.4899   -0.6251   -3.3411 P   0  0  0  1  0  0  0  0  0  0  0  0
    0.8899    0.7513   -3.7101 O   0  0  0  1  0  0  0  0  0  0  0  0
   -0.6874   -1.0328   -4.3765 O   0  5  0  1  0  0  0  0  0  0  0  0
    1.6609   -1.7148   -3.4331 O   0  0  0  1  0  0  0  0  0  0  0  0
   -0.1079   -0.7387   -1.8936 O   0  0  0  1  0  0  0  0  0  0  0  0
   -1.0858    0.1932   -1.3635 C   0  0  0  1  0  0  0  0  0  0  0  0
   -1.9347    0.2394   -2.0132 H   0  0  0  1  0  0  0  0  0  0  0  0
   -0.6507    1.1666   -1.2745 H   0  0  0  1  0  0  0  0  0  0  0  0
   -1.5066   -0.3086   -0.0023 C   0  0  0  1  0  0  0  0  0  0  0  0
   -1.9480   -1.2784   -0.0999 H   0  0  0  1  0  0  0  0  0  0  0  0
   -0.3756   -0.3523    0.8960 O   0  0  0  1  0  0  0  0  0  0  0  0
   -2.4968    0.6761    0.6584 C   0  0  0  1  0  0  0  0  0  0  0  0
   -2.3753    1.6616    0.2598 H   0  0  0  1  0  0  0  0  0  0  0  0
   -3.8449    0.2461    0.4643 O   0  0  0  1  0  0  0  0  0  0  0  0
   -4.3950    0.5857    1.1741 H   0  0  0  1  0  0  0  0  0  0  0  0
   -2.1194    0.6401    2.1581 C   0  0  0  1  0  0  0  0  0  0  0  0
   -1.8147    1.6082    2.4969 H   0  0  0  1  0  0  0  0  0  0  0  0
   -3.2187    0.1829    2.9473 O   0  0  0  1  0  0  0  0  0  0  0  0
   -3.7727   -0.3970    2.4196 H   0  0  0  1  0  0  0  0  0  0  0  0
   -0.9440   -0.3592    2.2232 C   0  0  0  1  0  0  0  0  0  0  0  0
   -1.2955   -1.3375    2.4767 H   0  0  0  1  0  0  0  0  0  0  0  0
    0.0468    0.0750    3.2099 N   0  0  0  1  0  0  0  0  0  0  0  0
    0.5973    1.3188    3.2628 C   0  0  0  1  0  0  0  0  0  0  0  0
    0.3419    2.0723    2.5930 H   0  0  0  1  0  0  0  0  0  0  0  0
    1.4699    1.4946    4.2175 N   0  0  0  1  0  0  0  0  0  0  0  0
    1.4979    0.2674    4.8617 C   0  0  0  1  0  0  0  0  0  0  0  0
    2.2061   -0.2438    5.9452 C   0  0  0  1  0  0  0  0  0  0  0  0
    3.1477    0.4552    6.7062 N   0  0  0  1  0  0  0  0  0  0  0  0
    3.5835    0.0189    7.4679 H   0  0  0  1  0  0  0  0  0  0  0  0
    3.3721    1.3814    6.4779 H   0  0  0  1  0  0  0  0  0  0  0  0
    2.0047   -1.5081    6.3320 N   0  0  0  1  0  0  0  0  0  0  0  0
    1.1237   -2.2458    5.6380 C   0  0  0  1  0  0  0  0  0  0  0  0
    0.9984   -3.2243    5.9673 H   0  0  0  1  0  0  0  0  0  0  0  0
    0.3908   -1.8950    4.5883 N   0  0  0  1  0  0  0  0  0  0  0  0
    0.6133   -0.6261    4.2430 C   0  0  0  1  0  0  0  0  0  0  0  0
  1  2  2  0  0  0  0
  1  3  1  0  0  0  0
  1  4  1  0  0  0  0
  1  8  1  0  0  0  0
  5  6  2  0  0  0  0
  5  7  1  0  0  0  0
  5  8  1  0  0  0  0
  5  9  1  0  0  0  0
  9 10  1  0  0  0  0
 10 11  1  0  0  0  0
 10 12  1  0  0  0  0
 10 13  1  0  0  0  0
 13 14  1  0  0  0  0
 13 15  1  0  0  0  0
 13 16  1  0  0  0  0
 15 24  1  0  0  0  0
 16 17  1  0  0  0  0
 16 18  1  0  0  0  0
 16 20  1  0  0  0  0
 18 19  1  0  0  0  0
 20 21  1  0  0  0  0
 20 22  1  0  0  0  0
 20 24  1  0  0  0  0
 22 23  1  0  0  0  0
 24 25  1  0  0  0  0
 24 26  1  0  0  0  0
 26 27  1  0  0  0  0
 26 39  1  0  0  0  0
 27 28  1  0  0  0  0
 27 29  2  0  0  0  0
 29 30  1  0  0  0  0
 30 31  1  0  0  0  0
 30 39  2  0  0  0  0
 31 32  1  0  0  0  0
 31 35  2  0  0  0  0
 32 33  1  0  0  0  0
 32 34  1  0  0  0  0
 35 36  1  0  0  0  0
 36 37  1  0  0  0  0
 36 38  2  0  0  0  0
 38 39  1  0  0  0  0
M  END
> <ConfClashScore>
0 

> <ConfOneFourInteractionScore>
-0.977602 

> <ConfScore>
0.00939052 

> <ConfScorePBest>
0.0098455 

> <ConfTolerance>
0.87067 

$$$$
ADP.****
  PyMOL2.5          3D                             0

 39 41  0  0  0  0  0  0  0  0999 V2000
   -1.4521    2.0445   -4.1000 P   0  0  0  1  0  0  0  0  0  0  0  0
   -2.0445    0.7033   -3.8985 O   0  0  0  1  0  0  0  0  0  0  0  0
   -2.6475    3.0816   -4.4463 O   0  5  0  1  0  0  0  0  0  0  0  0
   -0.5544    2.0065   -5.4480 O   0  5  0  1  0  0  0  0  0  0  0  0
    0.5620    1.8753   -1.9996 P   0  0  0  1  0  0  0  0  0  0  0  0
    1.4591    1.0021   -2.7890 O   0  0  0  1  0  0  0  0  0  0  0  0
    1.4217    3.0355   -1.2653 O   0  5  0  1  0  0  0  0  0  0  0  0
   -0.4825    2.6270   -2.9634 O   0  0  0  1  0  0  0  0  0  0  0  0
   -0.2971    1.1405   -0.9099 O   0  0  0  1  0  0  0  0  0  0  0  0
   -1.0518   -0.0648   -1.1773 C   0  0  0  1  0  0  0  0  0  0  0  0
   -0.3933   -0.8418   -1.5053 H   0  0  0  1  0  0  0  0  0  0  0  0
   -1.7851    0.1246   -1.9331 H   0  0  0  1  0  0  0  0  0  0  0  0
   -1.7322   -0.4752    0.1089 C   0  0  0  1  0  0  0  0  0  0  0  0
   -2.4416   -1.2502   -0.0939 H   0  0  0  1  0  0  0  0  0  0  0  0
   -0.7562   -0.9327    1.0629 O   0  0  0  1  0  0  0  0  0  0  0  0
   -2.4034    0.6788    0.7169 C   0  0  0  1  0  0  0  0  0  0  0  0
   -1.9370    1.5902    0.4061 H   0  0  0  1  0  0  0  0  0  0  0  0
   -3.7848    0.7024    0.3542 O   0  0  0  1  0  0  0  0  0  0  0  0
   -4.2466    1.3490    0.8930 H   0  0  0  1  0  0  0  0  0  0  0  0
   -2.2500    0.4867    2.2185 C   0  0  0  1  0  0  0  0  0  0  0  0
   -2.2446    1.4234    2.7358 H   0  0  0  1  0  0  0  0  0  0  0  0
   -3.2829   -0.3450    2.7491 O   0  0  0  1  0  0  0  0  0  0  0  0
   -3.4692   -1.0571    2.1327 H   0  0  0  1  0  0  0  0  0  0  0  0
   -0.8848   -0.2005    2.2869 C   0  0  0  1  0  0  0  0  0  0  0  0
   -0.8435   -0.8648    3.1247 H   0  0  0  1  0  0  0  0  0  0  0  0
    0.1824    0.7956    2.3999 N   0  0  0  1  0  0  0  0  0  0  0  0
    0.3581    1.7059    3.3964 C   0  0  0  1  0  0  0  0  0  0  0  0
   -0.3231    1.8227    4.1736 H   0  0  0  1  0  0  0  0  0  0  0  0
    1.4459    2.4213    3.3033 N   0  0  0  1  0  0  0  0  0  0  0  0
    2.0520    1.9422    2.1523 C   0  0  0  1  0  0  0  0  0  0  0  0
    3.2213    2.2593    1.4674 C   0  0  0  1  0  0  0  0  0  0  0  0
    4.1635    3.2255    1.8027 N   0  0  0  1  0  0  0  0  0  0  0  0
    4.9307    3.3866    1.2147 H   0  0  0  1  0  0  0  0  0  0  0  0
    4.0602    3.7454    2.6270 H   0  0  0  1  0  0  0  0  0  0  0  0
    3.5353    1.5960    0.3493 N   0  0  0  1  0  0  0  0  0  0  0  0
    2.6878    0.6470   -0.0786 C   0  0  0  1  0  0  0  0  0  0  0  0
    2.9652    0.1573   -0.9532 H   0  0  0  1  0  0  0  0  0  0  0  0
    1.5434    0.2491    0.4637 N   0  0  0  1  0  0  0  0  0  0  0  0
    1.2738    0.9267    1.5805 C   0  0  0  1  0  0  0  0  0  0  0  0
  1  2  2  0  0  0  0
  1  3  1  0  0  0  0
  1  4  1  0  0  0  0
  1  8  1  0  0  0  0
  5  6  2  0  0  0  0
  5  7  1  0  0  0  0
  5  8  1  0  0  0  0
  5  9  1  0  0  0  0
  9 10  1  0  0  0  0
 10 11  1  0  0  0  0
 10 12  1  0  0  0  0
 10 13  1  0  0  0  0
 13 14  1  0  0  0  0
 13 15  1  0  0  0  0
 13 16  1  0  0  0  0
 15 24  1  0  0  0  0
 16 17  1  0  0  0  0
 16 18  1  0  0  0  0
 16 20  1  0  0  0  0
 18 19  1  0  0  0  0
 20 21  1  0  0  0  0
 20 22  1  0  0  0  0
 20 24  1  0  0  0  0
 22 23  1  0  0  0  0
 24 25  1  0  0  0  0
 24 26  1  0  0  0  0
 26 27  1  0  0  0  0
 26 39  1  0  0  0  0
 27 28  1  0  0  0  0
 27 29  2  0  0  0  0
 29 30  1  0  0  0  0
 30 31  1  0  0  0  0
 30 39  2  0  0  0  0
 31 32  1  0  0  0  0
 31 35  2  0  0  0  0
 32 33  1  0  0  0  0
 32 34  1  0  0  0  0
 35 36  1  0  0  0  0
 36 37  1  0  0  0  0
 36 38  2  0  0  0  0
 38 39  1  0  0  0  0
M  END
> <ConfClashScore>
0 

> <ConfOneFourInteractionScore>
-0.986061 

> <ConfScore>
0.0119405 

> <ConfScorePBest>
0.0097425 

> <ConfTolerance>
1.22769 

$$$$
ADP.****
  PyMOL2.5          3D                             0

 39 41  0  0  0  0  0  0  0  0999 V2000
    4.0689    1.5518   -0.6209 P   0  0  0  1  0  0  0  0  0  0  0  0
    4.5899    0.7086   -1.7199 O   0  0  0  1  0  0  0  0  0  0  0  0
    4.6306    3.0711   -0.6431 O   0  5  0  1  0  0  0  0  0  0  0  0
    4.3397    0.9797    0.8703 O   0  5  0  1  0  0  0  0  0  0  0  0
    1.4833    0.7564   -1.5739 P   0  0  0  1  0  0  0  0  0  0  0  0
    1.3093    0.9988   -3.0235 O   0  0  0  1  0  0  0  0  0  0  0  0
    2.0169   -0.7648   -1.4138 O   0  5  0  1  0  0  0  0  0  0  0  0
    2.4815    1.7877   -0.8244 O   0  0  0  1  0  0  0  0  0  0  0  0
    0.1145    0.8539   -0.8039 O   0  0  0  1  0  0  0  0  0  0  0  0
   -1.0163    0.0304   -1.1895 C   0  0  0  1  0  0  0  0  0  0  0  0
   -0.6746   -0.8289   -1.7279 H   0  0  0  1  0  0  0  0  0  0  0  0
   -1.6851    0.5949   -1.8051 H   0  0  0  1  0  0  0  0  0  0  0  0
   -1.7252   -0.4039    0.0812 C   0  0  0  1  0  0  0  0  0  0  0  0
   -2.4601   -1.1448   -0.1551 H   0  0  0  1  0  0  0  0  0  0  0  0
   -0.7744   -0.9308    1.0248 O   0  0  0  1  0  0  0  0  0  0  0  0
   -2.3599    0.7507    0.7264 C   0  0  0  1  0  0  0  0  0  0  0  0
   -1.8584    1.6554    0.4527 H   0  0  0  1  0  0  0  0  0  0  0  0
   -3.7378    0.8374    0.3543 O   0  0  0  1  0  0  0  0  0  0  0  0
   -4.2876    0.7283    1.1337 H   0  0  0  1  0  0  0  0  0  0  0  0
   -2.2263    0.4986    2.2210 C   0  0  0  1  0  0  0  0  0  0  0  0
   -2.1919    1.4149    2.7724 H   0  0  0  1  0  0  0  0  0  0  0  0
   -3.2928   -0.3142    2.7130 O   0  0  0  1  0  0  0  0  0  0  0  0
   -3.6659   -0.8250    1.9909 H   0  0  0  1  0  0  0  0  0  0  0  0
   -0.8873   -0.2395    2.2740 C   0  0  0  1  0  0  0  0  0  0  0  0
   -0.8770   -0.9350    3.0871 H   0  0  0  1  0  0  0  0  0  0  0  0
    0.2148    0.7133    2.4314 N   0  0  0  1  0  0  0  0  0  0  0  0
    0.4512    1.8635    1.7431 C   0  0  0  1  0  0  0  0  0  0  0  0
   -0.2169    2.2433    1.0424 H   0  0  0  1  0  0  0  0  0  0  0  0
    1.5798    2.4540    2.0287 N   0  0  0  1  0  0  0  0  0  0  0  0
    2.1399    1.6335    2.9954 C   0  0  0  1  0  0  0  0  0  0  0  0
    3.3268    1.6602    3.7217 C   0  0  0  1  0  0  0  0  0  0  0  0
    4.3455    2.6151    3.6530 N   0  0  0  1  0  0  0  0  0  0  0  0
    5.1585    2.5036    4.1887 H   0  0  0  1  0  0  0  0  0  0  0  0
    4.2465    3.3960    3.0692 H   0  0  0  1  0  0  0  0  0  0  0  0
    3.5856    0.6897    4.6049 N   0  0  0  1  0  0  0  0  0  0  0  0
    2.6806   -0.2918    4.7447 C   0  0  0  1  0  0  0  0  0  0  0  0
    2.9204   -1.0293    5.4377 H   0  0  0  1  0  0  0  0  0  0  0  0
    1.5211   -0.4482    4.1178 N   0  0  0  1  0  0  0  0  0  0  0  0
    1.2970    0.5448    3.2561 C   0  0  0  1  0  0  0  0  0  0  0  0
  1  2  2  0  0  0  0
  1  3  1  0  0  0  0
  1  4  1  0  0  0  0
  1  8  1  0  0  0  0
  5  6  2  0  0  0  0
  5  7  1  0  0  0  0
  5  8  1  0  0  0  0
  5  9  1  0  0  0  0
  9 10  1  0  0  0  0
 10 11  1  0  0  0  0
 10 12  1  0  0  0  0
 10 13  1  0  0  0  0
 13 14  1  0  0  0  0
 13 15  1  0  0  0  0
 13 16  1  0  0  0  0
 15 24  1  0  0  0  0
 16 17  1  0  0  0  0
 16 18  1  0  0  0  0
 16 20  1  0  0  0  0
 18 19  1  0  0  0  0
 20 21  1  0  0  0  0
 20 22  1  0  0  0  0
 20 24  1  0  0  0  0
 22 23  1  0  0  0  0
 24 25  1  0  0  0  0
 24 26  1  0  0  0  0
 26 27  1  0  0  0  0
 26 39  1  0  0  0  0
 27 28  1  0  0  0  0
 27 29  2  0  0  0  0
 29 30  1  0  0  0  0
 30 31  1  0  0  0  0
 30 39  2  0  0  0  0
 31 32  1  0  0  0  0
 31 35  2  0  0  0  0
 32 33  1  0  0  0  0
 32 34  1  0  0  0  0
 35 36  1  0  0  0  0
 36 37  1  0  0  0  0
 36 38  2  0  0  0  0
 38 39  1  0  0  0  0
M  END
> <ConfClashScore>
0 

> <ConfOneFourInteractionScore>
-0.987934 

> <ConfScore>
0.0161693 

> <ConfScorePBest>
0.0096395 

> <ConfTolerance>
1.15144 

$$$$
ADP.****
  PyMOL2.5          3D                             0

 39 41  0  0  0  0  0  0  0  0999 V2000
    3.1180    0.0012   -2.1129 P   0  0  0  1  0  0  0  0  0  0  0  0
    2.4871    0.9495   -1.1678 O   0  0  0  1  0  0  0  0  0  0  0  0
    4.3762   -0.8467   -1.5451 O   0  5  0  1  0  0  0  0  0  0  0  0
    3.7862    0.7514   -3.3838 O   0  5  0  1  0  0  0  0  0  0  0  0
    0.4709   -0.9494   -3.1071 P   0  0  0  1  0  0  0  0  0  0  0  0
    0.2851    0.3438   -3.8025 O   0  0  0  1  0  0  0  0  0  0  0  0
    0.2405   -2.2015   -4.1088 O   0  5  0  1  0  0  0  0  0  0  0  0
    1.9938   -0.9996   -2.6260 O   0  0  0  1  0  0  0  0  0  0  0  0
   -0.5052   -1.1957   -1.8866 O   0  0  0  1  0  0  0  0  0  0  0  0
   -1.0431   -0.0492   -1.1867 C   0  0  0  1  0  0  0  0  0  0  0  0
   -1.7436    0.4536   -1.8202 H   0  0  0  1  0  0  0  0  0  0  0  0
   -0.2444    0.6178   -0.9373 H   0  0  0  1  0  0  0  0  0  0  0  0
   -1.7411   -0.4844    0.0795 C   0  0  0  1  0  0  0  0  0  0  0  0
   -2.4268   -1.2747   -0.1443 H   0  0  0  1  0  0  0  0  0  0  0  0
   -0.7759   -0.9250    1.0522 O   0  0  0  1  0  0  0  0  0  0  0  0
   -2.4534    0.6489    0.6798 C   0  0  0  1  0  0  0  0  0  0  0  0
   -2.0022    1.5734    0.3855 H   0  0  0  1  0  0  0  0  0  0  0  0
   -3.8264    0.6419    0.2862 O   0  0  0  1  0  0  0  0  0  0  0  0
   -4.0882    1.5266    0.0209 H   0  0  0  1  0  0  0  0  0  0  0  0
   -2.3289    0.4499    2.1832 C   0  0  0  1  0  0  0  0  0  0  0  0
   -2.3578    1.3827    2.7066 H   0  0  0  1  0  0  0  0  0  0  0  0
   -3.3540   -0.4109    2.6853 O   0  0  0  1  0  0  0  0  0  0  0  0
   -2.9864   -0.9882    3.3584 H   0  0  0  1  0  0  0  0  0  0  0  0
   -0.9495   -0.2048    2.2778 C   0  0  0  1  0  0  0  0  0  0  0  0
   -0.9109   -0.8738    3.1119 H   0  0  0  1  0  0  0  0  0  0  0  0
    0.0983    0.8233    2.4223 N   0  0  0  1  0  0  0  0  0  0  0  0
    0.5781    1.5921    1.4067 C   0  0  0  1  0  0  0  0  0  0  0  0
    0.2262    1.5130    0.4312 H   0  0  0  1  0  0  0  0  0  0  0  0
    1.5130    2.4362    1.7492 N   0  0  0  1  0  0  0  0  0  0  0  0
    1.6640    2.2187    3.1099 C   0  0  0  1  0  0  0  0  0  0  0  0
    2.4857    2.7606    4.0939 C   0  0  0  1  0  0  0  0  0  0  0  0
    3.4086    3.7409    3.8405 N   0  0  0  1  0  0  0  0  0  0  0  0
    3.9121    4.1425    4.5791 H   0  0  0  1  0  0  0  0  0  0  0  0
    3.5652    4.0405    2.9207 H   0  0  0  1  0  0  0  0  0  0  0  0
    2.3898    2.3215    5.3535 N   0  0  0  1  0  0  0  0  0  0  0  0
    1.5002    1.3511    5.6158 C   0  0  0  1  0  0  0  0  0  0  0  0
    1.4589    1.0343    6.6055 H   0  0  0  1  0  0  0  0  0  0  0  0
    0.6661    0.7412    4.7825 N   0  0  0  1  0  0  0  0  0  0  0  0
    0.7859    1.2156    3.5417 C   0  0  0  1  0  0  0  0  0  0  0  0
  1  2  2  0  0  0  0
  1  3  1  0  0  0  0
  1  4  1  0  0  0  0
  1  8  1  0  0  0  0
  5  6  2  0  0  0  0
  5  7  1  0  0  0  0
  5  8  1  0  0  0  0
  5  9  1  0  0  0  0
  9 10  1  0  0  0  0
 10 11  1  0  0  0  0
 10 12  1  0  0  0  0
 10 13  1  0  0  0  0
 13 14  1  0  0  0  0
 13 15  1  0  0  0  0
 13 16  1  0  0  0  0
 15 24  1  0  0  0  0
 16 17  1  0  0  0  0
 16 18  1  0  0  0  0
 16 20  1  0  0  0  0
 18 19  1  0  0  0  0
 20 21  1  0  0  0  0
 20 22  1  0  0  0  0
 20 24  1  0  0  0  0
 22 23  1  0  0  0  0
 24 25  1  0  0  0  0
 24 26  1  0  0  0  0
 26 27  1  0  0  0  0
 26 39  1  0  0  0  0
 27 28  1  0  0  0  0
 27 29  2  0  0  0  0
 29 30  1  0  0  0  0
 30 31  1  0  0  0  0
 30 39  2  0  0  0  0
 31 32  1  0  0  0  0
 31 35  2  0  0  0  0
 32 33  1  0  0  0  0
 32 34  1  0  0  0  0
 35 36  1  0  0  0  0
 36 37  1  0  0  0  0
 36 38  2  0  0  0  0
 38 39  1  0  0  0  0
M  END
> <ConfClashScore>
0 

> <ConfOneFourInteractionScore>
-0.980272 

> <ConfScore>
0.0173367 

> <ConfScorePBest>
0.0095365 

> <ConfTolerance>
0.911908 

$$$$
ADP.****
  PyMOL2.5          3D                             0

 39 41  0  0  0  0  0  0  0  0999 V2000
    0.5979    3.3247   -4.3084 P   0  0  0  1  0  0  0  0  0  0  0  0
    2.0557    3.5005   -4.1225 O   0  0  0  1  0  0  0  0  0  0  0  0
    1.0535    3.4004   -5.8612 O   0  5  0  1  0  0  0  0  0  0  0  0
   -0.5472    4.3966   -3.9033 O   0  5  0  1  0  0  0  0  0  0  0  0
    1.2215    1.2351   -2.5068 P   0  0  0  1  0  0  0  0  0  0  0  0
    2.2978    0.3410   -2.9889 O   0  0  0  1  0  0  0  0  0  0  0  0
    1.8028    2.4863   -1.6577 O   0  5  0  1  0  0  0  0  0  0  0  0
    0.3548    1.8332   -3.7309 O   0  0  0  1  0  0  0  0  0  0  0  0
    0.1783    0.4501   -1.6415 O   0  0  0  1  0  0  0  0  0  0  0  0
   -0.8506    1.0525   -0.8215 C   0  0  0  1  0  0  0  0  0  0  0  0
   -1.5566    1.5651   -1.4408 H   0  0  0  1  0  0  0  0  0  0  0  0
   -0.4101    1.7442   -0.1340 H   0  0  0  1  0  0  0  0  0  0  0  0
   -1.5411   -0.0567   -0.0637 C   0  0  0  1  0  0  0  0  0  0  0  0
   -1.9218   -0.7787   -0.7556 H   0  0  0  1  0  0  0  0  0  0  0  0
   -0.6233   -0.6804    0.8520 O   0  0  0  1  0  0  0  0  0  0  0  0
   -2.6921    0.5187    0.7979 C   0  0  0  1  0  0  0  0  0  0  0  0
   -2.9872    1.4865    0.4498 H   0  0  0  1  0  0  0  0  0  0  0  0
   -3.8227   -0.3542    0.7950 O   0  0  0  1  0  0  0  0  0  0  0  0
   -3.8645   -0.8217   -0.0425 H   0  0  0  1  0  0  0  0  0  0  0  0
   -2.0687    0.6014    2.1801 C   0  0  0  1  0  0  0  0  0  0  0  0
   -1.5633    1.5340    2.3205 H   0  0  0  1  0  0  0  0  0  0  0  0
   -3.0539    0.4346    3.2007 O   0  0  0  1  0  0  0  0  0  0  0  0
   -3.5638    1.2431    3.2891 H   0  0  0  1  0  0  0  0  0  0  0  0
   -1.0756   -0.5716    2.1709 C   0  0  0  1  0  0  0  0  0  0  0  0
   -1.5638   -1.4747    2.4725 H   0  0  0  1  0  0  0  0  0  0  0  0
    0.0462   -0.2968    3.0734 N   0  0  0  1  0  0  0  0  0  0  0  0
    1.1894    0.3710    2.7573 C   0  0  0  1  0  0  0  0  0  0  0  0
    1.2948    0.9132    1.8761 H   0  0  0  1  0  0  0  0  0  0  0  0
    2.1434    0.2797    3.6435 N   0  0  0  1  0  0  0  0  0  0  0  0
    1.5873   -0.5083    4.6392 C   0  0  0  1  0  0  0  0  0  0  0  0
    2.0479   -1.0034    5.8556 C   0  0  0  1  0  0  0  0  0  0  0  0
    3.3327   -0.6926    6.2498 N   0  0  0  1  0  0  0  0  0  0  0  0
    3.6924   -1.0619    7.0833 H   0  0  0  1  0  0  0  0  0  0  0  0
    3.8858   -0.1025    5.6964 H   0  0  0  1  0  0  0  0  0  0  0  0
    1.2449   -1.7621    6.6094 N   0  0  0  1  0  0  0  0  0  0  0  0
    0.0137   -2.0291    6.1458 C   0  0  0  1  0  0  0  0  0  0  0  0
   -0.5782   -2.6253    6.7589 H   0  0  0  1  0  0  0  0  0  0  0  0
   -0.5503   -1.6350    5.0107 N   0  0  0  1  0  0  0  0  0  0  0  0
    0.2786   -0.8730    4.2956 C   0  0  0  1  0  0  0  0  0  0  0  0
  1  2  2  0  0  0  0
  1  3  1  0  0  0  0
  1  4  1  0  0  0  0
  1  8  1  0  0  0  0
  5  6  2  0  0  0  0
  5  7  1  0  0  0  0
  5  8  1  0  0  0  0
  5  9  1  0  0  0  0
  9 10  1  0  0  0  0
 10 11  1  0  0  0  0
 10 12  1  0  0  0  0
 10 13  1  0  0  0  0
 13 14  1  0  0  0  0
 13 15  1  0  0  0  0
 13 16  1  0  0  0  0
 15 24  1  0  0  0  0
 16 17  1  0  0  0  0
 16 18  1  0  0  0  0
 16 20  1  0  0  0  0
 18 19  1  0  0  0  0
 20 21  1  0  0  0  0
 20 22  1  0  0  0  0
 20 24  1  0  0  0  0
 22 23  1  0  0  0  0
 24 25  1  0  0  0  0
 24 26  1  0  0  0  0
 26 27  1  0  0  0  0
 26 39  1  0  0  0  0
 27 28  1  0  0  0  0
 27 29  2  0  0  0  0
 29 30  1  0  0  0  0
 30 31  1  0  0  0  0
 30 39  2  0  0  0  0
 31 32  1  0  0  0  0
 31 35  2  0  0  0  0
 32 33  1  0  0  0  0
 32 34  1  0  0  0  0
 35 36  1  0  0  0  0
 36 37  1  0  0  0  0
 36 38  2  0  0  0  0
 38 39  1  0  0  0  0
M  END
> <ConfClashScore>
0 

> <ConfOneFourInteractionScore>
-0.966658 

> <ConfScore>
0.0177256 

> <ConfScorePBest>
0.00943349 

> <ConfTolerance>
0.987425 

$$$$
ADP.****
  PyMOL2.5          3D                             0

 39 41  0  0  0  0  0  0  0  0999 V2000
    3.2325    3.4094   -1.4922 P   0  0  0  1  0  0  0  0  0  0  0  0
    2.7614    4.0026   -2.7637 O   0  0  0  1  0  0  0  0  0  0  0  0
    3.5664    4.5479   -0.3891 O   0  5  0  1  0  0  0  0  0  0  0  0
    4.5349    2.4474   -1.5453 O   0  5  0  1  0  0  0  0  0  0  0  0
    0.5717    3.2457   -0.3851 P   0  0  0  1  0  0  0  0  0  0  0  0
    0.8035    4.4854    0.3894 O   0  0  0  1  0  0  0  0  0  0  0  0
   -0.0940    3.8352   -1.7392 O   0  5  0  1  0  0  0  0  0  0  0  0
    1.9586    2.6244   -0.9058 O   0  0  0  1  0  0  0  0  0  0  0  0
   -0.2798    2.0179    0.1085 O   0  0  0  1  0  0  0  0  0  0  0  0
   -0.7178    0.9978   -0.8196 C   0  0  0  1  0  0  0  0  0  0  0  0
    0.1312    0.6085   -1.3416 H   0  0  0  1  0  0  0  0  0  0  0  0
   -1.4011    1.4294   -1.5208 H   0  0  0  1  0  0  0  0  0  0  0  0
   -1.4061   -0.1260   -0.0816 C   0  0  0  1  0  0  0  0  0  0  0  0
   -1.6954   -0.8857   -0.7773 H   0  0  0  1  0  0  0  0  0  0  0  0
   -0.5299   -0.6747    0.9190 O   0  0  0  1  0  0  0  0  0  0  0  0
   -2.6475    0.4100    0.6735 C   0  0  0  1  0  0  0  0  0  0  0  0
   -2.9646    1.3509    0.2746 H   0  0  0  1  0  0  0  0  0  0  0  0
   -3.7282   -0.5220    0.6132 O   0  0  0  1  0  0  0  0  0  0  0  0
   -4.5076   -0.0865    0.2604 H   0  0  0  1  0  0  0  0  0  0  0  0
   -2.1362    0.5632    2.0951 C   0  0  0  1  0  0  0  0  0  0  0  0
   -1.6916    1.5250    2.2440 H   0  0  0  1  0  0  0  0  0  0  0  0
   -3.1870    0.3714    3.0445 O   0  0  0  1  0  0  0  0  0  0  0  0
   -3.2437    1.1383    3.6190 H   0  0  0  1  0  0  0  0  0  0  0  0
   -1.0864   -0.5547    2.1964 C   0  0  0  1  0  0  0  0  0  0  0  0
   -1.5491   -1.4742    2.4885 H   0  0  0  1  0  0  0  0  0  0  0  0
   -0.0549   -0.1969    3.1687 N   0  0  0  1  0  0  0  0  0  0  0  0
    0.2692    1.0530    3.5996 C   0  0  0  1  0  0  0  0  0  0  0  0
   -0.2204    1.9057    3.2608 H   0  0  0  1  0  0  0  0  0  0  0  0
    1.2407    1.1007    4.4701 N   0  0  0  1  0  0  0  0  0  0  0  0
    1.5887   -0.2302    4.6414 C   0  0  0  1  0  0  0  0  0  0  0  0
    2.5425   -0.8928    5.4083 C   0  0  0  1  0  0  0  0  0  0  0  0
    3.3833   -0.1995    6.2177 N   0  0  0  1  0  0  0  0  0  0  0  0
    4.0451   -0.6765    6.7607 H   0  0  0  1  0  0  0  0  0  0  0  0
    3.3285    0.7781    6.2590 H   0  0  0  1  0  0  0  0  0  0  0  0
    2.6325   -2.2258    5.3479 N   0  0  0  1  0  0  0  0  0  0  0  0
    1.7942   -2.8766    4.5259 C   0  0  0  1  0  0  0  0  0  0  0  0
    1.8984   -3.9111    4.5042 H   0  0  0  1  0  0  0  0  0  0  0  0
    0.8502   -2.3780    3.7371 N   0  0  0  1  0  0  0  0  0  0  0  0
    0.7865   -1.0494    3.8357 C   0  0  0  1  0  0  0  0  0  0  0  0
  1  2  2  0  0  0  0
  1  3  1  0  0  0  0
  1  4  1  0  0  0  0
  1  8  1  0  0  0  0
  5  6  2  0  0  0  0
  5  7  1  0  0  0  0
  5  8  1  0  0  0  0
  5  9  1  0  0  0  0
  9 10  1  0  0  0  0
 10 11  1  0  0  0  0
 10 12  1  0  0  0  0
 10 13  1  0  0  0  0
 13 14  1  0  0  0  0
 13 15  1  0  0  0  0
 13 16  1  0  0  0  0
 15 24  1  0  0  0  0
 16 17  1  0  0  0  0
 16 18  1  0  0  0  0
 16 20  1  0  0  0  0
 18 19  1  0  0  0  0
 20 21  1  0  0  0  0
 20 22  1  0  0  0  0
 20 24  1  0  0  0  0
 22 23  1  0  0  0  0
 24 25  1  0  0  0  0
 24 26  1  0  0  0  0
 26 27  1  0  0  0  0
 26 39  1  0  0  0  0
 27 28  1  0  0  0  0
 27 29  2  0  0  0  0
 29 30  1  0  0  0  0
 30 31  1  0  0  0  0
 30 39  2  0  0  0  0
 31 32  1  0  0  0  0
 31 35  2  0  0  0  0
 32 33  1  0  0  0  0
 32 34  1  0  0  0  0
 35 36  1  0  0  0  0
 36 37  1  0  0  0  0
 36 38  2  0  0  0  0
 38 39  1  0  0  0  0
M  END
> <ConfClashScore>
0 

> <ConfOneFourInteractionScore>
-0.980695 

> <ConfScore>
0.0178206 

> <ConfScorePBest>
0.00933049 

> <ConfTolerance>
1.01756 

$$$$
ADP.****
  PyMOL2.5          3D                             0

 39 41  0  0  0  0  0  0  0  0999 V2000
    0.8246    4.1624    0.4025 P   0  0  0  1  0  0  0  0  0  0  0  0
   -0.3305    3.5270    1.0751 O   0  0  0  1  0  0  0  0  0  0  0  0
    2.0555    4.4297    1.4212 O   0  5  0  1  0  0  0  0  0  0  0  0
    0.5376    5.5842   -0.3190 O   0  5  0  1  0  0  0  0  0  0  0  0
    0.8548    2.0808   -1.7062 P   0  0  0  1  0  0  0  0  0  0  0  0
    0.2388    2.6022   -2.9467 O   0  0  0  1  0  0  0  0  0  0  0  0
    2.0542    1.0383   -2.0210 O   0  5  0  1  0  0  0  0  0  0  0  0
    1.4438    3.1962   -0.7116 O   0  0  0  1  0  0  0  0  0  0  0  0
   -0.0494    1.2381   -0.7378 O   0  0  0  1  0  0  0  0  0  0  0  0
   -0.9259    0.1754   -1.1941 C   0  0  0  1  0  0  0  0  0  0  0  0
   -0.3481   -0.6081   -1.6381 H   0  0  0  1  0  0  0  0  0  0  0  0
   -1.6198    0.5587   -1.9129 H   0  0  0  1  0  0  0  0  0  0  0  0
   -1.6707   -0.3531    0.0088 C   0  0  0  1  0  0  0  0  0  0  0  0
   -2.3918   -1.0775   -0.3075 H   0  0  0  1  0  0  0  0  0  0  0  0
   -0.7504   -0.9416    0.9464 O   0  0  0  1  0  0  0  0  0  0  0  0
   -2.3539    0.7813    0.7431 C   0  0  0  1  0  0  0  0  0  0  0  0
   -1.8621    1.7122    0.5517 H   0  0  0  1  0  0  0  0  0  0  0  0
   -3.7275    0.8811    0.3644 O   0  0  0  1  0  0  0  0  0  0  0  0
   -4.2121    0.1305    0.7157 H   0  0  0  1  0  0  0  0  0  0  0  0
   -2.2211    0.3890    2.1940 C   0  0  0  1  0  0  0  0  0  0  0  0
   -2.2376    1.2487    2.8308 H   0  0  0  1  0  0  0  0  0  0  0  0
   -3.2586   -0.5124    2.5830 O   0  0  0  1  0  0  0  0  0  0  0  0
   -4.0344   -0.0128    2.8479 H   0  0  0  1  0  0  0  0  0  0  0  0
   -0.8706   -0.2867    2.2225 C   0  0  0  1  0  0  0  0  0  0  0  0
   -0.8255   -1.0019    3.0171 H   0  0  0  1  0  0  0  0  0  0  0  0
    0.1962    0.7036    2.3945 N   0  0  0  1  0  0  0  0  0  0  0  0
    1.1982    1.0483    1.5402 C   0  0  0  1  0  0  0  0  0  0  0  0
    1.3091    0.6113    0.6030 H   0  0  0  1  0  0  0  0  0  0  0  0
    2.0095    1.9687    1.9858 N   0  0  0  1  0  0  0  0  0  0  0  0
    1.5011    2.2701    3.2397 C   0  0  0  1  0  0  0  0  0  0  0  0
    1.8770    3.1452    4.2546 C   0  0  0  1  0  0  0  0  0  0  0  0
    2.9712    3.9477    4.1114 N   0  0  0  1  0  0  0  0  0  0  0  0
    3.5662    3.8322    3.3413 H   0  0  0  1  0  0  0  0  0  0  0  0
    3.1621    4.6396    4.7786 H   0  0  0  1  0  0  0  0  0  0  0  0
    1.1593    3.2008    5.3817 N   0  0  0  1  0  0  0  0  0  0  0  0
    0.0979    2.3865    5.4929 C   0  0  0  1  0  0  0  0  0  0  0  0
   -0.4313    2.4568    6.3854 H   0  0  0  1  0  0  0  0  0  0  0  0
   -0.3673    1.5038    4.6175 N   0  0  0  1  0  0  0  0  0  0  0  0
    0.3689    1.4882    3.5055 C   0  0  0  1  0  0  0  0  0  0  0  0
  1  2  2  0  0  0  0
  1  3  1  0  0  0  0
  1  4  1  0  0  0  0
  1  8  1  0  0  0  0
  5  6  2  0  0  0  0
  5  7  1  0  0  0  0
  5  8  1  0  0  0  0
  5  9  1  0  0  0  0
  9 10  1  0  0  0  0
 10 11  1  0  0  0  0
 10 12  1  0  0  0  0
 10 13  1  0  0  0  0
 13 14  1  0  0  0  0
 13 15  1  0  0  0  0
 13 16  1  0  0  0  0
 15 24  1  0  0  0  0
 16 17  1  0  0  0  0
 16 18  1  0  0  0  0
 16 20  1  0  0  0  0
 18 19  1  0  0  0  0
 20 21  1  0  0  0  0
 20 22  1  0  0  0  0
 20 24  1  0  0  0  0
 22 23  1  0  0  0  0
 24 25  1  0  0  0  0
 24 26  1  0  0  0  0
 26 27  1  0  0  0  0
 26 39  1  0  0  0  0
 27 28  1  0  0  0  0
 27 29  2  0  0  0  0
 29 30  1  0  0  0  0
 30 31  1  0  0  0  0
 30 39  2  0  0  0  0
 31 32  1  0  0  0  0
 31 35  2  0  0  0  0
 32 33  1  0  0  0  0
 32 34  1  0  0  0  0
 35 36  1  0  0  0  0
 36 37  1  0  0  0  0
 36 38  2  0  0  0  0
 38 39  1  0  0  0  0
M  END
> <ConfClashScore>
0 

> <ConfOneFourInteractionScore>
-0.989393 

> <ConfScore>
0.0215696 

> <ConfScorePBest>
0.00922749 

> <ConfTolerance>
1.29351 

$$$$
ADP.****
  PyMOL2.5          3D                             0

 39 41  0  0  0  0  0  0  0  0999 V2000
    2.8425   -1.5977   -4.6943 P   0  0  0  1  0  0  0  0  0  0  0  0
    4.1301   -0.9223   -4.4181 O   0  0  0  1  0  0  0  0  0  0  0  0
    3.0862   -3.1683   -5.0078 O   0  5  0  1  0  0  0  0  0  0  0  0
    2.0757   -0.9126   -5.9461 O   0  5  0  1  0  0  0  0  0  0  0  0
    0.7301   -0.1501   -3.2035 P   0  0  0  1  0  0  0  0  0  0  0  0
    1.6194    1.0310   -3.2697 O   0  0  0  1  0  0  0  0  0  0  0  0
   -0.3517   -0.1243   -4.4090 O   0  5  0  1  0  0  0  0  0  0  0  0
    1.6787   -1.3778   -3.6194 O   0  0  0  1  0  0  0  0  0  0  0  0
   -0.0733   -0.5092   -1.8989 O   0  0  0  1  0  0  0  0  0  0  0  0
   -1.0715    0.3984   -1.3670 C   0  0  0  1  0  0  0  0  0  0  0  0
   -1.8844    0.4908   -2.0567 H   0  0  0  1  0  0  0  0  0  0  0  0
   -0.6356    1.3608   -1.1977 H   0  0  0  1  0  0  0  0  0  0  0  0
   -1.5676   -0.1791   -0.0608 C   0  0  0  1  0  0  0  0  0  0  0  0
   -2.0564   -1.1128   -0.2459 H   0  0  0  1  0  0  0  0  0  0  0  0
   -0.4735   -0.3525    0.8672 O   0  0  0  1  0  0  0  0  0  0  0  0
   -2.5270    0.8077    0.6410 C   0  0  0  1  0  0  0  0  0  0  0  0
   -2.3389    1.8117    0.3225 H   0  0  0  1  0  0  0  0  0  0  0  0
   -3.8883    0.4693    0.3720 O   0  0  0  1  0  0  0  0  0  0  0  0
   -3.9745   -0.4846    0.3069 H   0  0  0  1  0  0  0  0  0  0  0  0
   -2.2062    0.6394    2.1448 C   0  0  0  1  0  0  0  0  0  0  0  0
   -1.8627    1.5612    2.5658 H   0  0  0  1  0  0  0  0  0  0  0  0
   -3.3560    0.1872    2.8616 O   0  0  0  1  0  0  0  0  0  0  0  0
   -3.1223    0.0375    3.7806 H   0  0  0  1  0  0  0  0  0  0  0  0
   -1.0889   -0.4261    2.1712 C   0  0  0  1  0  0  0  0  0  0  0  0
   -1.5010   -1.3993    2.3383 H   0  0  0  1  0  0  0  0  0  0  0  0
   -0.1114   -0.1219    3.2203 N   0  0  0  1  0  0  0  0  0  0  0  0
   -0.0663    0.9356    4.0760 C   0  0  0  1  0  0  0  0  0  0  0  0
   -0.7836    1.6887    4.0726 H   0  0  0  1  0  0  0  0  0  0  0  0
    0.9451    0.9335    4.9012 N   0  0  0  1  0  0  0  0  0  0  0  0
    1.6279   -0.2279    4.5748 C   0  0  0  1  0  0  0  0  0  0  0  0
    2.7882   -0.8360    5.0448 C   0  0  0  1  0  0  0  0  0  0  0  0
    3.6013   -0.3520    6.0639 N   0  0  0  1  0  0  0  0  0  0  0  0
    3.4276    0.5310    6.4518 H   0  0  0  1  0  0  0  0  0  0  0  0
    4.3481   -0.8940    6.3941 H   0  0  0  1  0  0  0  0  0  0  0  0
    3.1997   -1.9872    4.5026 N   0  0  0  1  0  0  0  0  0  0  0  0
    2.4713   -2.5077    3.5024 C   0  0  0  1  0  0  0  0  0  0  0  0
    2.8263   -3.4008    3.1049 H   0  0  0  1  0  0  0  0  0  0  0  0
    1.3590   -2.0365    2.9522 N   0  0  0  1  0  0  0  0  0  0  0  0
    0.9778   -0.8956    3.5283 C   0  0  0  1  0  0  0  0  0  0  0  0
  1  2  2  0  0  0  0
  1  3  1  0  0  0  0
  1  4  1  0  0  0  0
  1  8  1  0  0  0  0
  5  6  2  0  0  0  0
  5  7  1  0  0  0  0
  5  8  1  0  0  0  0
  5  9  1  0  0  0  0
  9 10  1  0  0  0  0
 10 11  1  0  0  0  0
 10 12  1  0  0  0  0
 10 13  1  0  0  0  0
 13 14  1  0  0  0  0
 13 15  1  0  0  0  0
 13 16  1  0  0  0  0
 15 24  1  0  0  0  0
 16 17  1  0  0  0  0
 16 18  1  0  0  0  0
 16 20  1  0  0  0  0
 18 19  1  0  0  0  0
 20 21  1  0  0  0  0
 20 22  1  0  0  0  0
 20 24  1  0  0  0  0
 22 23  1  0  0  0  0
 24 25  1  0  0  0  0
 24 26  1  0  0  0  0
 26 27  1  0  0  0  0
 26 39  1  0  0  0  0
 27 28  1  0  0  0  0
 27 29  2  0  0  0  0
 29 30  1  0  0  0  0
 30 31  1  0  0  0  0
 30 39  2  0  0  0  0
 31 32  1  0  0  0  0
 31 35  2  0  0  0  0
 32 33  1  0  0  0  0
 32 34  1  0  0  0  0
 35 36  1  0  0  0  0
 36 37  1  0  0  0  0
 36 38  2  0  0  0  0
 38 39  1  0  0  0  0
M  END
> <ConfClashScore>
0 

> <ConfOneFourInteractionScore>
-0.970795 

> <ConfScore>
0.0218854 

> <ConfScorePBest>
0.00912449 

> <ConfTolerance>
1.02126 

$$$$
ADP.****
  PyMOL2.5          3D                             0

 39 41  0  0  0  0  0  0  0  0999 V2000
    3.5380    3.2095   -1.1951 P   0  0  0  1  0  0  0  0  0  0  0  0
    3.5823    3.4204   -2.6593 O   0  0  0  1  0  0  0  0  0  0  0  0
    3.7292    4.5925   -0.3733 O   0  5  0  1  0  0  0  0  0  0  0  0
    4.8134    2.2649   -0.8700 O   0  5  0  1  0  0  0  0  0  0  0  0
    0.7234    3.0367   -0.5781 P   0  0  0  1  0  0  0  0  0  0  0  0
    0.8334    4.2676    0.2362 O   0  0  0  1  0  0  0  0  0  0  0  0
    0.1878    3.3587   -2.0727 O   0  5  0  1  0  0  0  0  0  0  0  0
    2.2084    2.4411   -0.7209 O   0  0  0  1  0  0  0  0  0  0  0  0
   -0.2579    1.9447   -0.0020 O   0  0  0  1  0  0  0  0  0  0  0  0
   -0.5753    0.8413   -0.8879 C   0  0  0  1  0  0  0  0  0  0  0  0
    0.3260    0.3704   -1.2209 H   0  0  0  1  0  0  0  0  0  0  0  0
   -1.1247    1.1992   -1.7334 H   0  0  0  1  0  0  0  0  0  0  0  0
   -1.4145   -0.1460   -0.1089 C   0  0  0  1  0  0  0  0  0  0  0  0
   -1.7848   -0.9006   -0.7710 H   0  0  0  1  0  0  0  0  0  0  0  0
   -0.6333   -0.7443    0.9406 O   0  0  0  1  0  0  0  0  0  0  0  0
   -2.5918    0.5821    0.5856 C   0  0  0  1  0  0  0  0  0  0  0  0
   -2.7799    1.5319    0.1303 H   0  0  0  1  0  0  0  0  0  0  0  0
   -3.7804   -0.2090    0.5470 O   0  0  0  1  0  0  0  0  0  0  0  0
   -4.2751   -0.0841    1.3602 H   0  0  0  1  0  0  0  0  0  0  0  0
   -2.0914    0.7479    2.0097 C   0  0  0  1  0  0  0  0  0  0  0  0
   -1.5315    1.6532    2.1193 H   0  0  0  1  0  0  0  0  0  0  0  0
   -3.1747    0.7418    2.9406 O   0  0  0  1  0  0  0  0  0  0  0  0
   -3.4058   -0.1644    3.1574 H   0  0  0  1  0  0  0  0  0  0  0  0
   -1.1935   -0.4855    2.1956 C   0  0  0  1  0  0  0  0  0  0  0  0
   -1.7740   -1.3223    2.5237 H   0  0  0  1  0  0  0  0  0  0  0  0
   -0.1403   -0.2061    3.1761 N   0  0  0  1  0  0  0  0  0  0  0  0
   -0.2243   -0.3294    4.5291 C   0  0  0  1  0  0  0  0  0  0  0  0
   -1.0874   -0.6567    5.0082 H   0  0  0  1  0  0  0  0  0  0  0  0
    0.8600   -0.0060    5.1799 N   0  0  0  1  0  0  0  0  0  0  0  0
    1.7453    0.3554    4.1763 C   0  0  0  1  0  0  0  0  0  0  0  0
    3.0608    0.8096    4.1600 C   0  0  0  1  0  0  0  0  0  0  0  0
    3.8981    1.0321    5.2571 N   0  0  0  1  0  0  0  0  0  0  0  0
    3.5478    0.9391    6.1677 H   0  0  0  1  0  0  0  0  0  0  0  0
    4.8353    1.2811    5.1157 H   0  0  0  1  0  0  0  0  0  0  0  0
    3.6530    1.0840    2.9927 N   0  0  0  1  0  0  0  0  0  0  0  0
    2.9365    0.9199    1.8695 C   0  0  0  1  0  0  0  0  0  0  0  0
    3.4309    1.1476    0.9833 H   0  0  0  1  0  0  0  0  0  0  0  0
    1.6822    0.5064    1.7371 N   0  0  0  1  0  0  0  0  0  0  0  0
    1.1332    0.2334    2.9217 C   0  0  0  1  0  0  0  0  0  0  0  0
  1  2  2  0  0  0  0
  1  3  1  0  0  0  0
  1  4  1  0  0  0  0
  1  8  1  0  0  0  0
  5  6  2  0  0  0  0
  5  7  1  0  0  0  0
  5  8  1  0  0  0  0
  5  9  1  0  0  0  0
  9 10  1  0  0  0  0
 10 11  1  0  0  0  0
 10 12  1  0  0  0  0
 10 13  1  0  0  0  0
 13 14  1  0  0  0  0
 13 15  1  0  0  0  0
 13 16  1  0  0  0  0
 15 24  1  0  0  0  0
 16 17  1  0  0  0  0
 16 18  1  0  0  0  0
 16 20  1  0  0  0  0
 18 19  1  0  0  0  0
 20 21  1  0  0  0  0
 20 22  1  0  0  0  0
 20 24  1  0  0  0  0
 22 23  1  0  0  0  0
 24 25  1  0  0  0  0
 24 26  1  0  0  0  0
 26 27  1  0  0  0  0
 26 39  1  0  0  0  0
 27 28  1  0  0  0  0
 27 29  2  0  0  0  0
 29 30  1  0  0  0  0
 30 31  1  0  0  0  0
 30 39  2  0  0  0  0
 31 32  1  0  0  0  0
 31 35  2  0  0  0  0
 32 33  1  0  0  0  0
 32 34  1  0  0  0  0
 35 36  1  0  0  0  0
 36 37  1  0  0  0  0
 36 38  2  0  0  0  0
 38 39  1  0  0  0  0
M  END
> <ConfClashScore>
0 

> <ConfOneFourInteractionScore>
-0.979254 

> <ConfScore>
0.0228046 

> <ConfScorePBest>
0.00902149 

> <ConfTolerance>
1.13202 

$$$$
ADP.****
  PyMOL2.5          3D                             0

 39 41  0  0  0  0  0  0  0  0999 V2000
   -3.2396    4.3951   -2.2481 P   0  0  0  1  0  0  0  0  0  0  0  0
   -3.6312    5.2254   -3.4089 O   0  0  0  1  0  0  0  0  0  0  0  0
   -4.3626    3.3316   -1.7661 O   0  5  0  1  0  0  0  0  0  0  0  0
   -2.6255    5.2775   -1.0362 O   0  5  0  1  0  0  0  0  0  0  0  0
   -1.8666    1.9728   -3.2621 P   0  0  0  1  0  0  0  0  0  0  0  0
   -2.9459    1.8030   -4.2605 O   0  0  0  1  0  0  0  0  0  0  0  0
   -0.3934    1.8707   -3.9281 O   0  5  0  1  0  0  0  0  0  0  0  0
   -2.0129    3.4517   -2.6527 O   0  0  0  1  0  0  0  0  0  0  0  0
   -2.0214    0.9646   -2.0639 O   0  0  0  1  0  0  0  0  0  0  0  0
   -0.9559    0.7876   -1.1010 C   0  0  0  1  0  0  0  0  0  0  0  0
   -0.7102    1.7275   -0.6526 H   0  0  0  1  0  0  0  0  0  0  0  0
   -0.0904    0.3856   -1.5850 H   0  0  0  1  0  0  0  0  0  0  0  0
   -1.4489   -0.1764   -0.0414 C   0  0  0  1  0  0  0  0  0  0  0  0
   -1.7711   -1.0844   -0.5068 H   0  0  0  1  0  0  0  0  0  0  0  0
   -0.3975   -0.4532    0.8953 O   0  0  0  1  0  0  0  0  0  0  0  0
   -2.5853    0.4388    0.7207 C   0  0  0  1  0  0  0  0  0  0  0  0
   -2.8107    1.4126    0.3387 H   0  0  0  1  0  0  0  0  0  0  0  0
   -3.7370   -0.3778    0.6408 O   0  0  0  1  0  0  0  0  0  0  0  0
   -4.4455    0.1084    0.2128 H   0  0  0  1  0  0  0  0  0  0  0  0
   -2.0967    0.5282    2.1447 C   0  0  0  1  0  0  0  0  0  0  0  0
   -1.7190    1.5064    2.3579 H   0  0  0  1  0  0  0  0  0  0  0  0
   -3.1434    0.2106    3.0633 O   0  0  0  1  0  0  0  0  0  0  0  0
   -3.5870    1.0174    3.3350 H   0  0  0  1  0  0  0  0  0  0  0  0
   -1.0072   -0.4879    2.2080 C   0  0  0  1  0  0  0  0  0  0  0  0
   -1.4079   -1.4587    2.4125 H   0  0  0  1  0  0  0  0  0  0  0  0
   -0.0332   -0.1356    3.2381 N   0  0  0  1  0  0  0  0  0  0  0  0
    0.7276    0.9916    3.2976 C   0  0  0  1  0  0  0  0  0  0  0  0
    0.6724    1.7420    2.5797 H   0  0  0  1  0  0  0  0  0  0  0  0
    1.5315    1.0598    4.3237 N   0  0  0  1  0  0  0  0  0  0  0  0
    1.2801   -0.1170    5.0118 C   0  0  0  1  0  0  0  0  0  0  0  0
    1.7870   -0.6880    6.1754 C   0  0  0  1  0  0  0  0  0  0  0  0
    2.7533   -0.0909    6.9413 N   0  0  0  1  0  0  0  0  0  0  0  0
    3.0514   -0.5155    7.7728 H   0  0  0  1  0  0  0  0  0  0  0  0
    3.1465    0.7608    6.6578 H   0  0  0  1  0  0  0  0  0  0  0  0
    1.3263   -1.8741    6.5871 N   0  0  0  1  0  0  0  0  0  0  0  0
    0.3894   -2.4792    5.8401 C   0  0  0  1  0  0  0  0  0  0  0  0
    0.0603   -3.4011    6.1914 H   0  0  0  1  0  0  0  0  0  0  0  0
   -0.1737   -2.0597    4.7137 N   0  0  0  1  0  0  0  0  0  0  0  0
    0.3047   -0.8706    4.3450 C   0  0  0  1  0  0  0  0  0  0  0  0
  1  2  2  0  0  0  0
  1  3  1  0  0  0  0
  1  4  1  0  0  0  0
  1  8  1  0  0  0  0
  5  6  2  0  0  0  0
  5  7  1  0  0  0  0
  5  8  1  0  0  0  0
  5  9  1  0  0  0  0
  9 10  1  0  0  0  0
 10 11  1  0  0  0  0
 10 12  1  0  0  0  0
 10 13  1  0  0  0  0
 13 14  1  0  0  0  0
 13 15  1  0  0  0  0
 13 16  1  0  0  0  0
 15 24  1  0  0  0  0
 16 17  1  0  0  0  0
 16 18  1  0  0  0  0
 16 20  1  0  0  0  0
 18 19  1  0  0  0  0
 20 21  1  0  0  0  0
 20 22  1  0  0  0  0
 20 24  1  0  0  0  0
 22 23  1  0  0  0  0
 24 25  1  0  0  0  0
 24 26  1  0  0  0  0
 26 27  1  0  0  0  0
 26 39  1  0  0  0  0
 27 28  1  0  0  0  0
 27 29  2  0  0  0  0
 29 30  1  0  0  0  0
 30 31  1  0  0  0  0
 30 39  2  0  0  0  0
 31 32  1  0  0  0  0
 31 35  2  0  0  0  0
 32 33  1  0  0  0  0
 32 34  1  0  0  0  0
 35 36  1  0  0  0  0
 36 37  1  0  0  0  0
 36 38  2  0  0  0  0
 38 39  1  0  0  0  0
M  END
> <ConfClashScore>
0 

> <ConfOneFourInteractionScore>
-0.976069 

> <ConfScore>
0.0233359 

> <ConfScorePBest>
0.00891849 

> <ConfTolerance>
0.992825 

$$$$
ADP.****
  PyMOL2.5          3D                             0

 39 41  0  0  0  0  0  0  0  0999 V2000
    0.1399    3.8742   -3.1890 P   0  0  0  1  0  0  0  0  0  0  0  0
    0.4765    4.7772   -2.0657 O   0  0  0  1  0  0  0  0  0  0  0  0
    1.2096    4.1656   -4.3702 O   0  5  0  1  0  0  0  0  0  0  0  0
   -1.3139    4.2592   -3.7912 O   0  5  0  1  0  0  0  0  0  0  0  0
    0.8981    1.3454   -1.8432 P   0  0  0  1  0  0  0  0  0  0  0  0
    1.4188    0.1617   -2.5628 O   0  0  0  1  0  0  0  0  0  0  0  0
    2.0259    2.1344   -0.9887 O   0  5  0  1  0  0  0  0  0  0  0  0
    0.0721    2.3202   -2.8168 O   0  0  0  1  0  0  0  0  0  0  0  0
   -0.1745    0.9289   -0.7573 O   0  0  0  1  0  0  0  0  0  0  0  0
   -1.1999   -0.0297   -1.1250 C   0  0  0  1  0  0  0  0  0  0  0  0
   -0.7623   -0.8762   -1.6117 H   0  0  0  1  0  0  0  0  0  0  0  0
   -1.9190    0.4237   -1.7748 H   0  0  0  1  0  0  0  0  0  0  0  0
   -1.8513   -0.4466    0.1725 C   0  0  0  1  0  0  0  0  0  0  0  0
   -2.6021   -1.1829   -0.0252 H   0  0  0  1  0  0  0  0  0  0  0  0
   -0.8638   -0.9633    1.0928 O   0  0  0  1  0  0  0  0  0  0  0  0
   -2.4611    0.7661    0.8818 C   0  0  0  1  0  0  0  0  0  0  0  0
   -1.9918    1.6733    0.5630 H   0  0  0  1  0  0  0  0  0  0  0  0
   -3.8684    0.8468    0.6414 O   0  0  0  1  0  0  0  0  0  0  0  0
   -4.0309    0.8735   -0.3044 H   0  0  0  1  0  0  0  0  0  0  0  0
   -2.1762    0.4923    2.3352 C   0  0  0  1  0  0  0  0  0  0  0  0
   -2.1103    1.4026    2.8936 H   0  0  0  1  0  0  0  0  0  0  0  0
   -3.1806   -0.3466    2.9076 O   0  0  0  1  0  0  0  0  0  0  0  0
   -3.5680   -0.8960    2.2223 H   0  0  0  1  0  0  0  0  0  0  0  0
   -0.8194   -0.2249    2.2835 C   0  0  0  1  0  0  0  0  0  0  0  0
   -0.7006   -0.8725    3.1270 H   0  0  0  1  0  0  0  0  0  0  0  0
    0.2783    0.7436    2.2525 N   0  0  0  1  0  0  0  0  0  0  0  0
    1.2966    0.7937    1.3507 C   0  0  0  1  0  0  0  0  0  0  0  0
    1.3410    0.1668    0.5221 H   0  0  0  1  0  0  0  0  0  0  0  0
    2.2133    1.6877    1.6042 N   0  0  0  1  0  0  0  0  0  0  0  0
    1.7647    2.2914    2.7687 C   0  0  0  1  0  0  0  0  0  0  0  0
    2.2542    3.3053    3.5868 C   0  0  0  1  0  0  0  0  0  0  0  0
    3.3999    4.0742    3.3251 N   0  0  0  1  0  0  0  0  0  0  0  0
    3.9447    3.8875    2.5322 H   0  0  0  1  0  0  0  0  0  0  0  0
    3.6546    4.7974    3.9354 H   0  0  0  1  0  0  0  0  0  0  0  0
    1.5680    3.6678    4.6760 N   0  0  0  1  0  0  0  0  0  0  0  0
    0.4248    3.0176    4.9450 C   0  0  0  1  0  0  0  0  0  0  0  0
   -0.0769    3.3258    5.8023 H   0  0  0  1  0  0  0  0  0  0  0  0
   -0.1518    2.0345    4.2646 N   0  0  0  1  0  0  0  0  0  0  0  0
    0.5576    1.7118    3.1822 C   0  0  0  1  0  0  0  0  0  0  0  0
  1  2  2  0  0  0  0
  1  3  1  0  0  0  0
  1  4  1  0  0  0  0
  1  8  1  0  0  0  0
  5  6  2  0  0  0  0
  5  7  1  0  0  0  0
  5  8  1  0  0  0  0
  5  9  1  0  0  0  0
  9 10  1  0  0  0  0
 10 11  1  0  0  0  0
 10 12  1  0  0  0  0
 10 13  1  0  0  0  0
 13 14  1  0  0  0  0
 13 15  1  0  0  0  0
 13 16  1  0  0  0  0
 15 24  1  0  0  0  0
 16 17  1  0  0  0  0
 16 18  1  0  0  0  0
 16 20  1  0  0  0  0
 18 19  1  0  0  0  0
 20 21  1  0  0  0  0
 20 22  1  0  0  0  0
 20 24  1  0  0  0  0
 22 23  1  0  0  0  0
 24 25  1  0  0  0  0
 24 26  1  0  0  0  0
 26 27  1  0  0  0  0
 26 39  1  0  0  0  0
 27 28  1  0  0  0  0
 27 29  2  0  0  0  0
 29 30  1  0  0  0  0
 30 31  1  0  0  0  0
 30 39  2  0  0  0  0
 31 32  1  0  0  0  0
 31 35  2  0  0  0  0
 32 33  1  0  0  0  0
 32 34  1  0  0  0  0
 35 36  1  0  0  0  0
 36 37  1  0  0  0  0
 36 38  2  0  0  0  0
 38 39  1  0  0  0  0
M  END
> <ConfClashScore>
0 

> <ConfOneFourInteractionScore>
-0.983365 

> <ConfScore>
0.0234424 

> <ConfScorePBest>
0.00881549 

> <ConfTolerance>
1.20317 

$$$$
ADP.****
  PyMOL2.5          3D                             0

 39 41  0  0  0  0  0  0  0  0999 V2000
   -3.7370    2.1844   -5.0405 P   0  0  0  1  0  0  0  0  0  0  0  0
   -4.0517    0.7657   -4.7601 O   0  0  0  1  0  0  0  0  0  0  0  0
   -5.0454    3.1009   -5.3098 O   0  5  0  1  0  0  0  0  0  0  0  0
   -2.7374    2.2024   -6.3152 O   0  5  0  1  0  0  0  0  0  0  0  0
   -1.5776    2.4716   -2.9424 P   0  0  0  1  0  0  0  0  0  0  0  0
   -0.5258    2.0420   -3.8908 O   0  0  0  1  0  0  0  0  0  0  0  0
   -1.0946    3.8410   -2.2241 O   0  5  0  1  0  0  0  0  0  0  0  0
   -2.9392    2.7072   -3.7532 O   0  0  0  1  0  0  0  0  0  0  0  0
   -1.8613    1.4695   -1.7725 O   0  0  0  1  0  0  0  0  0  0  0  0
   -0.8552    0.8663   -0.9253 C   0  0  0  1  0  0  0  0  0  0  0  0
   -0.3750    1.6197   -0.3366 H   0  0  0  1  0  0  0  0  0  0  0  0
   -0.1262    0.3641   -1.5264 H   0  0  0  1  0  0  0  0  0  0  0  0
   -1.5508   -0.1270   -0.0225 C   0  0  0  1  0  0  0  0  0  0  0  0
   -1.9963   -0.8980   -0.6158 H   0  0  0  1  0  0  0  0  0  0  0  0
   -0.6276   -0.6868    0.8685 O   0  0  0  1  0  0  0  0  0  0  0  0
   -2.6329    0.5870    0.8029 C   0  0  0  1  0  0  0  0  0  0  0  0
   -2.8557    1.5508    0.3950 H   0  0  0  1  0  0  0  0  0  0  0  0
   -3.8286   -0.1916    0.8673 O   0  0  0  1  0  0  0  0  0  0  0  0
   -4.1633   -0.3389   -0.0203 H   0  0  0  1  0  0  0  0  0  0  0  0
   -1.9777    0.7097    2.1852 C   0  0  0  1  0  0  0  0  0  0  0  0
   -1.4217    1.6203    2.2653 H   0  0  0  1  0  0  0  0  0  0  0  0
   -2.9592    0.6576    3.2216 O   0  0  0  1  0  0  0  0  0  0  0  0
   -3.7158    0.1487    2.9212 H   0  0  0  1  0  0  0  0  0  0  0  0
   -1.0610   -0.4904    2.2489 C   0  0  0  1  0  0  0  0  0  0  0  0
   -1.5871   -1.3506    2.6069 H   0  0  0  1  0  0  0  0  0  0  0  0
    0.0867   -0.2212    3.1199 N   0  0  0  1  0  0  0  0  0  0  0  0
    1.3716    0.0781    2.7849 C   0  0  0  1  0  0  0  0  0  0  0  0
    1.6879    0.1579    1.7974 H   0  0  0  1  0  0  0  0  0  0  0  0
    2.1769    0.2575    3.7964 N   0  0  0  1  0  0  0  0  0  0  0  0
    1.3587    0.0708    4.8998 C   0  0  0  1  0  0  0  0  0  0  0  0
    1.5631    0.1035    6.2760 C   0  0  0  1  0  0  0  0  0  0  0  0
    2.8297    0.3789    6.7480 N   0  0  0  1  0  0  0  0  0  0  0  0
    2.9679    0.5666    7.6999 H   0  0  0  1  0  0  0  0  0  0  0  0
    3.5914    0.3869    6.1314 H   0  0  0  1  0  0  0  0  0  0  0  0
    0.5392   -0.1301    7.1041 N   0  0  0  1  0  0  0  0  0  0  0  0
   -0.6582   -0.4044    6.5628 C   0  0  0  1  0  0  0  0  0  0  0  0
   -1.4272   -0.5841    7.2395 H   0  0  0  1  0  0  0  0  0  0  0  0
   -0.9932   -0.4771    5.2805 N   0  0  0  1  0  0  0  0  0  0  0  0
    0.0520   -0.2271    4.4905 C   0  0  0  1  0  0  0  0  0  0  0  0
  1  2  2  0  0  0  0
  1  3  1  0  0  0  0
  1  4  1  0  0  0  0
  1  8  1  0  0  0  0
  5  6  2  0  0  0  0
  5  7  1  0  0  0  0
  5  8  1  0  0  0  0
  5  9  1  0  0  0  0
  9 10  1  0  0  0  0
 10 11  1  0  0  0  0
 10 12  1  0  0  0  0
 10 13  1  0  0  0  0
 13 14  1  0  0  0  0
 13 15  1  0  0  0  0
 13 16  1  0  0  0  0
 15 24  1  0  0  0  0
 16 17  1  0  0  0  0
 16 18  1  0  0  0  0
 16 20  1  0  0  0  0
 18 19  1  0  0  0  0
 20 21  1  0  0  0  0
 20 22  1  0  0  0  0
 20 24  1  0  0  0  0
 22 23  1  0  0  0  0
 24 25  1  0  0  0  0
 24 26  1  0  0  0  0
 26 27  1  0  0  0  0
 26 39  1  0  0  0  0
 27 28  1  0  0  0  0
 27 29  2  0  0  0  0
 29 30  1  0  0  0  0
 30 31  1  0  0  0  0
 30 39  2  0  0  0  0
 31 32  1  0  0  0  0
 31 35  2  0  0  0  0
 32 33  1  0  0  0  0
 32 34  1  0  0  0  0
 35 36  1  0  0  0  0
 36 37  1  0  0  0  0
 36 38  2  0  0  0  0
 38 39  1  0  0  0  0
M  END
> <ConfClashScore>
0 

> <ConfOneFourInteractionScore>
-0.980272 

> <ConfScore>
0.0244005 

> <ConfScorePBest>
0.00871249 

> <ConfTolerance>
0.919427 

$$$$
ADP.****
  PyMOL2.5          3D                             0

 39 41  0  0  0  0  0  0  0  0999 V2000
    2.9069   -0.5852   -3.8399 P   0  0  0  1  0  0  0  0  0  0  0  0
    2.7151   -0.5980   -5.3074 O   0  0  0  1  0  0  0  0  0  0  0  0
    3.8250    0.6994   -3.4774 O   0  5  0  1  0  0  0  0  0  0  0  0
    3.7138   -1.9013   -3.3491 O   0  5  0  1  0  0  0  0  0  0  0  0
    0.1804   -1.2761   -3.2789 P   0  0  0  1  0  0  0  0  0  0  0  0
   -0.6410   -0.8784   -4.4441 O   0  0  0  1  0  0  0  0  0  0  0  0
    0.7745   -2.7797   -3.3815 O   0  5  0  1  0  0  0  0  0  0  0  0
    1.5269   -0.4171   -3.0128 O   0  0  0  1  0  0  0  0  0  0  0  0
   -0.5764   -1.3399   -1.8911 O   0  0  0  1  0  0  0  0  0  0  0  0
   -1.0522   -0.1053   -1.3031 C   0  0  0  1  0  0  0  0  0  0  0  0
   -1.7815    0.3458   -1.9431 H   0  0  0  1  0  0  0  0  0  0  0  0
   -0.2343    0.5700   -1.1620 H   0  0  0  1  0  0  0  0  0  0  0  0
   -1.6764   -0.4430    0.0302 C   0  0  0  1  0  0  0  0  0  0  0  0
   -2.3671   -1.2509   -0.0931 H   0  0  0  1  0  0  0  0  0  0  0  0
   -0.6905   -0.7719    0.9710 O   0  0  0  1  0  0  0  0  0  0  0  0
   -2.3770    0.7849    0.6295 C   0  0  0  1  0  0  0  0  0  0  0  0
   -1.8547    1.6856    0.3829 H   0  0  0  1  0  0  0  0  0  0  0  0
   -3.7251    0.8782    0.1782 O   0  0  0  1  0  0  0  0  0  0  0  0
   -4.3013    1.0571    0.9249 H   0  0  0  1  0  0  0  0  0  0  0  0
   -2.3175    0.5104    2.1092 C   0  0  0  1  0  0  0  0  0  0  0  0
   -2.3285    1.4220    2.6694 H   0  0  0  1  0  0  0  0  0  0  0  0
   -3.4075   -0.3156    2.5212 O   0  0  0  1  0  0  0  0  0  0  0  0
   -3.0674   -1.1107    2.9380 H   0  0  0  1  0  0  0  0  0  0  0  0
   -0.9816   -0.2201    2.2748 C   0  0  0  1  0  0  0  0  0  0  0  0
   -1.0677   -1.0001    3.0021 H   0  0  0  1  0  0  0  0  0  0  0  0
    0.0684    0.7152    2.6832 N   0  0  0  1  0  0  0  0  0  0  0  0
    0.0362    1.5637    3.7470 C   0  0  0  1  0  0  0  0  0  0  0  0
   -0.7407    1.5643    4.4384 H   0  0  0  1  0  0  0  0  0  0  0  0
    1.0539    2.3765    3.8341 N   0  0  0  1  0  0  0  0  0  0  0  0
    1.8356    2.0360    2.7412 C   0  0  0  1  0  0  0  0  0  0  0  0
    3.0424    2.5026    2.2283 C   0  0  0  1  0  0  0  0  0  0  0  0
    3.7577    3.5178    2.8066 N   0  0  0  1  0  0  0  0  0  0  0  0
    4.6627    3.7215    2.4905 H   0  0  0  1  0  0  0  0  0  0  0  0
    3.3644    4.0404    3.5364 H   0  0  0  1  0  0  0  0  0  0  0  0
    3.5493    1.9512    1.1202 N   0  0  0  1  0  0  0  0  0  0  0  0
    2.8535    0.9647    0.5331 C   0  0  0  1  0  0  0  0  0  0  0  0
    3.2787    0.5652   -0.3278 H   0  0  0  1  0  0  0  0  0  0  0  0
    1.6961    0.4303    0.9030 N   0  0  0  1  0  0  0  0  0  0  0  0
    1.2319    0.9999    2.0162 C   0  0  0  1  0  0  0  0  0  0  0  0
  1  2  2  0  0  0  0
  1  3  1  0  0  0  0
  1  4  1  0  0  0  0
  1  8  1  0  0  0  0
  5  6  2  0  0  0  0
  5  7  1  0  0  0  0
  5  8  1  0  0  0  0
  5  9  1  0  0  0  0
  9 10  1  0  0  0  0
 10 11  1  0  0  0  0
 10 12  1  0  0  0  0
 10 13  1  0  0  0  0
 13 14  1  0  0  0  0
 13 15  1  0  0  0  0
 13 16  1  0  0  0  0
 15 24  1  0  0  0  0
 16 17  1  0  0  0  0
 16 18  1  0  0  0  0
 16 20  1  0  0  0  0
 18 19  1  0  0  0  0
 20 21  1  0  0  0  0
 20 22  1  0  0  0  0
 20 24  1  0  0  0  0
 22 23  1  0  0  0  0
 24 25  1  0  0  0  0
 24 26  1  0  0  0  0
 26 27  1  0  0  0  0
 26 39  1  0  0  0  0
 27 28  1  0  0  0  0
 27 29  2  0  0  0  0
 29 30  1  0  0  0  0
 30 31  1  0  0  0  0
 30 39  2  0  0  0  0
 31 32  1  0  0  0  0
 31 35  2  0  0  0  0
 32 33  1  0  0  0  0
 32 34  1  0  0  0  0
 35 36  1  0  0  0  0
 36 37  1  0  0  0  0
 36 38  2  0  0  0  0
 38 39  1  0  0  0  0
M  END
> <ConfClashScore>
0 

> <ConfOneFourInteractionScore>
-0.973465 

> <ConfScore>
0.0272933 

> <ConfScorePBest>
0.00860949 

> <ConfTolerance>
1.07094 

$$$$
ADP.****
  PyMOL2.5          3D                             0

 39 41  0  0  0  0  0  0  0  0999 V2000
    2.6012    1.8217   -2.6980 P   0  0  0  1  0  0  0  0  0  0  0  0
    3.6102    0.9877   -2.0076 O   0  0  0  1  0  0  0  0  0  0  0  0
    3.0340    2.3724   -4.1587 O   0  5  0  1  0  0  0  0  0  0  0  0
    2.2872    3.1651   -1.8488 O   0  5  0  1  0  0  0  0  0  0  0  0
    0.4147   -0.1732   -3.3207 P   0  0  0  1  0  0  0  0  0  0  0  0
   -0.5193    0.0929   -4.4375 O   0  0  0  1  0  0  0  0  0  0  0  0
    1.6598   -1.1398   -3.6944 O   0  5  0  1  0  0  0  0  0  0  0  0
    1.1423    1.1886   -2.8927 O   0  0  0  1  0  0  0  0  0  0  0  0
   -0.3359   -0.5981   -1.9944 O   0  0  0  1  0  0  0  0  0  0  0  0
   -1.1981    0.3666   -1.3464 C   0  0  0  1  0  0  0  0  0  0  0  0
   -2.0763    0.5361   -1.9336 H   0  0  0  1  0  0  0  0  0  0  0  0
   -0.6806    1.2920   -1.2022 H   0  0  0  1  0  0  0  0  0  0  0  0
   -1.5649   -0.2457   -0.0136 C   0  0  0  1  0  0  0  0  0  0  0  0
   -1.9640   -1.2263   -0.1688 H   0  0  0  1  0  0  0  0  0  0  0  0
   -0.4130   -0.2969    0.8574 O   0  0  0  1  0  0  0  0  0  0  0  0
   -2.5836    0.6446    0.7323 C   0  0  0  1  0  0  0  0  0  0  0  0
   -2.5161    1.6594    0.3999 H   0  0  0  1  0  0  0  0  0  0  0  0
   -3.9149    0.1660    0.5357 O   0  0  0  1  0  0  0  0  0  0  0  0
   -4.0990    0.1082   -0.4048 H   0  0  0  1  0  0  0  0  0  0  0  0
   -2.1710    0.5251    2.2183 C   0  0  0  1  0  0  0  0  0  0  0  0
   -1.9030    1.4813    2.6167 H   0  0  0  1  0  0  0  0  0  0  0  0
   -3.2302   -0.0354    2.9957 O   0  0  0  1  0  0  0  0  0  0  0  0
   -3.4280    0.5457    3.7338 H   0  0  0  1  0  0  0  0  0  0  0  0
   -0.9503   -0.4202    2.1918 C   0  0  0  1  0  0  0  0  0  0  0  0
   -1.2512   -1.4287    2.3846 H   0  0  0  1  0  0  0  0  0  0  0  0
    0.0413   -0.0079    3.1857 N   0  0  0  1  0  0  0  0  0  0  0  0
    0.7959   -0.8147    3.9810 C   0  0  0  1  0  0  0  0  0  0  0  0
    0.6813   -1.8482    3.9983 H   0  0  0  1  0  0  0  0  0  0  0  0
    1.6742   -0.1935    4.7202 N   0  0  0  1  0  0  0  0  0  0  0  0
    1.4971    1.1395    4.3838 C   0  0  0  1  0  0  0  0  0  0  0  0
    2.0873    2.3309    4.7952 C   0  0  0  1  0  0  0  0  0  0  0  0
    3.0829    2.3286    5.7363 N   0  0  0  1  0  0  0  0  0  0  0  0
    3.3947    1.4815    6.1178 H   0  0  0  1  0  0  0  0  0  0  0  0
    3.4834    3.1742    6.0279 H   0  0  0  1  0  0  0  0  0  0  0  0
    1.6792    3.4899    4.2673 N   0  0  0  1  0  0  0  0  0  0  0  0
    0.6919    3.4546    3.3585 C   0  0  0  1  0  0  0  0  0  0  0  0
    0.4004    4.3763    2.9750 H   0  0  0  1  0  0  0  0  0  0  0  0
    0.0374    2.4021    2.8833 N   0  0  0  1  0  0  0  0  0  0  0  0
    0.4819    1.2679    3.4263 C   0  0  0  1  0  0  0  0  0  0  0  0
  1  2  2  0  0  0  0
  1  3  1  0  0  0  0
  1  4  1  0  0  0  0
  1  8  1  0  0  0  0
  5  6  2  0  0  0  0
  5  7  1  0  0  0  0
  5  8  1  0  0  0  0
  5  9  1  0  0  0  0
  9 10  1  0  0  0  0
 10 11  1  0  0  0  0
 10 12  1  0  0  0  0
 10 13  1  0  0  0  0
 13 14  1  0  0  0  0
 13 15  1  0  0  0  0
 13 16  1  0  0  0  0
 15 24  1  0  0  0  0
 16 17  1  0  0  0  0
 16 18  1  0  0  0  0
 16 20  1  0  0  0  0
 18 19  1  0  0  0  0
 20 21  1  0  0  0  0
 20 22  1  0  0  0  0
 20 24  1  0  0  0  0
 22 23  1  0  0  0  0
 24 25  1  0  0  0  0
 24 26  1  0  0  0  0
 26 27  1  0  0  0  0
 26 39  1  0  0  0  0
 27 28  1  0  0  0  0
 27 29  2  0  0  0  0
 29 30  1  0  0  0  0
 30 31  1  0  0  0  0
 30 39  2  0  0  0  0
 31 32  1  0  0  0  0
 31 35  2  0  0  0  0
 32 33  1  0  0  0  0
 32 34  1  0  0  0  0
 35 36  1  0  0  0  0
 36 37  1  0  0  0  0
 36 38  2  0  0  0  0
 38 39  1  0  0  0  0
M  END
> <ConfClashScore>
0 

> <ConfOneFourInteractionScore>
-0.970795 

> <ConfScore>
0.0301752 

> <ConfScorePBest>
0.00850649 

> <ConfTolerance>
1.07507 

$$$$
ADP.****
  PyMOL2.5          3D                             0

 39 41  0  0  0  0  0  0  0  0999 V2000
   -1.7655   -1.1636   -4.8297 P   0  0  0  1  0  0  0  0  0  0  0  0
   -2.6151   -1.3540   -3.6328 O   0  0  0  1  0  0  0  0  0  0  0  0
   -2.5457   -0.4856   -6.0770 O   0  5  0  1  0  0  0  0  0  0  0  0
   -1.0794   -2.5155   -5.4005 O   0  5  0  1  0  0  0  0  0  0  0  0
    0.5773    0.0152   -3.3232 P   0  0  0  1  0  0  0  0  0  0  0  0
    1.6470   -0.9962   -3.4758 O   0  0  0  1  0  0  0  0  0  0  0  0
    0.9845    1.5831   -3.3431 O   0  5  0  1  0  0  0  0  0  0  0  0
   -0.6114   -0.1450   -4.3854 O   0  0  0  1  0  0  0  0  0  0  0  0
   -0.0650   -0.3484   -1.9335 O   0  0  0  1  0  0  0  0  0  0  0  0
   -1.1175    0.4707   -1.3638 C   0  0  0  1  0  0  0  0  0  0  0  0
   -1.9485    0.5158   -2.0363 H   0  0  0  1  0  0  0  0  0  0  0  0
   -0.7514    1.4594   -1.1815 H   0  0  0  1  0  0  0  0  0  0  0  0
   -1.5438   -0.1702   -0.0592 C   0  0  0  1  0  0  0  0  0  0  0  0
   -1.9862   -1.1241   -0.2576 H   0  0  0  1  0  0  0  0  0  0  0  0
   -0.4154   -0.3081    0.8328 O   0  0  0  1  0  0  0  0  0  0  0  0
   -2.5347    0.7424    0.6971 C   0  0  0  1  0  0  0  0  0  0  0  0
   -2.4110    1.7636    0.4027 H   0  0  0  1  0  0  0  0  0  0  0  0
   -3.8829    0.3367    0.4561 O   0  0  0  1  0  0  0  0  0  0  0  0
   -3.9345   -0.6219    0.4595 H   0  0  0  1  0  0  0  0  0  0  0  0
   -2.1616    0.5511    2.1860 C   0  0  0  1  0  0  0  0  0  0  0  0
   -1.8567    1.4785    2.6239 H   0  0  0  1  0  0  0  0  0  0  0  0
   -3.2636    0.0164    2.9208 O   0  0  0  1  0  0  0  0  0  0  0  0
   -3.7102    0.7252    3.3897 H   0  0  0  1  0  0  0  0  0  0  0  0
   -0.9875   -0.4513    2.1507 C   0  0  0  1  0  0  0  0  0  0  0  0
   -1.3409   -1.4501    2.3009 H   0  0  0  1  0  0  0  0  0  0  0  0
    0.0004   -0.1230    3.1789 N   0  0  0  1  0  0  0  0  0  0  0  0
    0.0304   -0.5743    4.4627 C   0  0  0  1  0  0  0  0  0  0  0  0
   -0.6809   -1.2321    4.8410 H   0  0  0  1  0  0  0  0  0  0  0  0
    1.0191   -0.1194    5.1834 N   0  0  0  1  0  0  0  0  0  0  0  0
    1.7126    0.6976    4.3041 C   0  0  0  1  0  0  0  0  0  0  0  0
    2.8494    1.4935    4.4105 C   0  0  0  1  0  0  0  0  0  0  0  0
    3.5732    1.6120    5.5676 N   0  0  0  1  0  0  0  0  0  0  0  0
    4.3612    2.1939    5.5951 H   0  0  0  1  0  0  0  0  0  0  0  0
    3.3029    1.1149    6.3677 H   0  0  0  1  0  0  0  0  0  0  0  0
    3.2762    2.1851    3.3484 N   0  0  0  1  0  0  0  0  0  0  0  0
    2.5699    2.0911    2.2107 C   0  0  0  1  0  0  0  0  0  0  0  0
    2.9316    2.6468    1.4095 H   0  0  0  1  0  0  0  0  0  0  0  0
    1.4721    1.3846    1.9703 N   0  0  0  1  0  0  0  0  0  0  0  0
    1.0875    0.7025    3.0500 C   0  0  0  1  0  0  0  0  0  0  0  0
  1  2  2  0  0  0  0
  1  3  1  0  0  0  0
  1  4  1  0  0  0  0
  1  8  1  0  0  0  0
  5  6  2  0  0  0  0
  5  7  1  0  0  0  0
  5  8  1  0  0  0  0
  5  9  1  0  0  0  0
  9 10  1  0  0  0  0
 10 11  1  0  0  0  0
 10 12  1  0  0  0  0
 10 13  1  0  0  0  0
 13 14  1  0  0  0  0
 13 15  1  0  0  0  0
 13 16  1  0  0  0  0
 15 24  1  0  0  0  0
 16 17  1  0  0  0  0
 16 18  1  0  0  0  0
 16 20  1  0  0  0  0
 18 19  1  0  0  0  0
 20 21  1  0  0  0  0
 20 22  1  0  0  0  0
 20 24  1  0  0  0  0
 22 23  1  0  0  0  0
 24 25  1  0  0  0  0
 24 26  1  0  0  0  0
 26 27  1  0  0  0  0
 26 39  1  0  0  0  0
 27 28  1  0  0  0  0
 27 29  2  0  0  0  0
 29 30  1  0  0  0  0
 30 31  1  0  0  0  0
 30 39  2  0  0  0  0
 31 32  1  0  0  0  0
 31 35  2  0  0  0  0
 32 33  1  0  0  0  0
 32 34  1  0  0  0  0
 35 36  1  0  0  0  0
 36 37  1  0  0  0  0
 36 38  2  0  0  0  0
 38 39  1  0  0  0  0
M  END
> <ConfClashScore>
0 

> <ConfOneFourInteractionScore>
-0.976069 

> <ConfScore>
0.0316544 

> <ConfScorePBest>
0.00840348 

> <ConfTolerance>
1.07935 

$$$$
ADP.****
  PyMOL2.5          3D                             0

 39 41  0  0  0  0  0  0  0  0999 V2000
    2.4660   -0.0373   -4.6349 P   0  0  0  1  0  0  0  0  0  0  0  0
    2.2313   -0.8823   -5.8271 O   0  0  0  1  0  0  0  0  0  0  0  0
    2.8223    1.4838   -5.0633 O   0  5  0  1  0  0  0  0  0  0  0  0
    3.7737   -0.5221   -3.8107 O   0  5  0  1  0  0  0  0  0  0  0  0
   -0.0468   -0.9152   -3.5179 P   0  0  0  1  0  0  0  0  0  0  0  0
   -1.1892   -0.4496   -4.3356 O   0  0  0  1  0  0  0  0  0  0  0  0
    0.4447   -2.4459   -3.7174 O   0  5  0  1  0  0  0  0  0  0  0  0
    1.1846    0.1043   -3.6752 O   0  0  0  1  0  0  0  0  0  0  0  0
   -0.4178   -0.9306   -1.9923 O   0  0  0  1  0  0  0  0  0  0  0  0
   -1.1555    0.1336   -1.3465 C   0  0  0  1  0  0  0  0  0  0  0  0
   -2.0368    0.3599   -1.9096 H   0  0  0  1  0  0  0  0  0  0  0  0
   -0.5440    1.0085   -1.2731 H   0  0  0  1  0  0  0  0  0  0  0  0
   -1.5368   -0.3455    0.0360 C   0  0  0  1  0  0  0  0  0  0  0  0
   -1.9659   -1.3234   -0.0306 H   0  0  0  1  0  0  0  0  0  0  0  0
   -0.3844   -0.3536    0.9077 O   0  0  0  1  0  0  0  0  0  0  0  0
   -2.5258    0.6387    0.6994 C   0  0  0  1  0  0  0  0  0  0  0  0
   -2.4286    1.6171    0.2774 H   0  0  0  1  0  0  0  0  0  0  0  0
   -3.8716    0.1851    0.5468 O   0  0  0  1  0  0  0  0  0  0  0  0
   -4.4656    0.9393    0.5444 H   0  0  0  1  0  0  0  0  0  0  0  0
   -2.1126    0.6401    2.1900 C   0  0  0  1  0  0  0  0  0  0  0  0
   -1.8144    1.6195    2.5011 H   0  0  0  1  0  0  0  0  0  0  0  0
   -3.1859    0.1841    3.0148 O   0  0  0  1  0  0  0  0  0  0  0  0
   -3.6116   -0.5693    2.5991 H   0  0  0  1  0  0  0  0  0  0  0  0
   -0.9211   -0.3405    2.2480 C   0  0  0  1  0  0  0  0  0  0  0  0
   -1.2519   -1.3181    2.5304 H   0  0  0  1  0  0  0  0  0  0  0  0
    0.0855    0.1288    3.2007 N   0  0  0  1  0  0  0  0  0  0  0  0
    0.5311    1.3992    3.4014 C   0  0  0  1  0  0  0  0  0  0  0  0
    0.0920    2.2243    2.9455 H   0  0  0  1  0  0  0  0  0  0  0  0
    1.5511    1.5038    4.2092 N   0  0  0  1  0  0  0  0  0  0  0  0
    1.8021    0.1937    4.5864 C   0  0  0  1  0  0  0  0  0  0  0  0
    2.7425   -0.4151    5.4122 C   0  0  0  1  0  0  0  0  0  0  0  0
    3.7500    0.2432    6.1235 N   0  0  0  1  0  0  0  0  0  0  0  0
    4.4086   -0.2740    6.6324 H   0  0  0  1  0  0  0  0  0  0  0  0
    3.7976    1.2220    6.1132 H   0  0  0  1  0  0  0  0  0  0  0  0
    2.7234   -1.7427    5.5727 N   0  0  0  1  0  0  0  0  0  0  0  0
    1.7911   -2.4436    4.9082 C   0  0  0  1  0  0  0  0  0  0  0  0
    1.8119   -3.4728    5.0560 H   0  0  0  1  0  0  0  0  0  0  0  0
    0.8463   -2.0005    4.0879 N   0  0  0  1  0  0  0  0  0  0  0  0
    0.8934   -0.6732    3.9647 C   0  0  0  1  0  0  0  0  0  0  0  0
  1  2  2  0  0  0  0
  1  3  1  0  0  0  0
  1  4  1  0  0  0  0
  1  8  1  0  0  0  0
  5  6  2  0  0  0  0
  5  7  1  0  0  0  0
  5  8  1  0  0  0  0
  5  9  1  0  0  0  0
  9 10  1  0  0  0  0
 10 11  1  0  0  0  0
 10 12  1  0  0  0  0
 10 13  1  0  0  0  0
 13 14  1  0  0  0  0
 13 15  1  0  0  0  0
 13 16  1  0  0  0  0
 15 24  1  0  0  0  0
 16 17  1  0  0  0  0
 16 18  1  0  0  0  0
 16 20  1  0  0  0  0
 18 19  1  0  0  0  0
 20 21  1  0  0  0  0
 20 22  1  0  0  0  0
 20 24  1  0  0  0  0
 22 23  1  0  0  0  0
 24 25  1  0  0  0  0
 24 26  1  0  0  0  0
 26 27  1  0  0  0  0
 26 39  1  0  0  0  0
 27 28  1  0  0  0  0
 27 29  2  0  0  0  0
 29 30  1  0  0  0  0
 30 31  1  0  0  0  0
 30 39  2  0  0  0  0
 31 32  1  0  0  0  0
 31 35  2  0  0  0  0
 32 33  1  0  0  0  0
 32 34  1  0  0  0  0
 35 36  1  0  0  0  0
 36 37  1  0  0  0  0
 36 38  2  0  0  0  0
 38 39  1  0  0  0  0
M  END
> <ConfClashScore>
0 

> <ConfOneFourInteractionScore>
-0.970795 

> <ConfScore>
0.0324504 

> <ConfScorePBest>
0.00830048 

> <ConfTolerance>
0.957311 

$$$$
ADP.****
  PyMOL2.5          3D                             0

 39 41  0  0  0  0  0  0  0  0999 V2000
   -5.0453   -0.9972   -4.2285 P   0  0  0  1  0  0  0  0  0  0  0  0
   -4.8970   -2.1932   -3.3693 O   0  0  0  1  0  0  0  0  0  0  0  0
   -6.5647   -0.4357   -4.2491 O   0  5  0  1  0  0  0  0  0  0  0  0
   -4.7956   -1.4056   -5.7761 O   0  5  0  1  0  0  0  0  0  0  0  0
   -2.3727    0.1578   -3.6774 P   0  0  0  1  0  0  0  0  0  0  0  0
   -1.5411   -0.9679   -4.1587 O   0  0  0  1  0  0  0  0  0  0  0  0
   -1.7064    1.5422   -4.1911 O   0  5  0  1  0  0  0  0  0  0  0  0
   -3.9493    0.1418   -3.9843 O   0  0  0  1  0  0  0  0  0  0  0  0
   -2.2814    0.3919   -2.1274 O   0  0  0  1  0  0  0  0  0  0  0  0
   -1.0670    0.1907   -1.3668 C   0  0  0  1  0  0  0  0  0  0  0  0
   -0.5286    1.1106   -1.2730 H   0  0  0  1  0  0  0  0  0  0  0  0
   -0.4459   -0.5398   -1.8417 H   0  0  0  1  0  0  0  0  0  0  0  0
   -1.5138   -0.2998   -0.0084 C   0  0  0  1  0  0  0  0  0  0  0  0
   -1.9738   -1.2606   -0.1091 H   0  0  0  1  0  0  0  0  0  0  0  0
   -0.3943   -0.3645    0.9029 O   0  0  0  1  0  0  0  0  0  0  0  0
   -2.4913    0.7063    0.6390 C   0  0  0  1  0  0  0  0  0  0  0  0
   -2.3453    1.6882    0.2398 H   0  0  0  1  0  0  0  0  0  0  0  0
   -3.8456    0.3033    0.4303 O   0  0  0  1  0  0  0  0  0  0  0  0
   -4.3679    0.5211    1.2059 H   0  0  0  1  0  0  0  0  0  0  0  0
   -2.1319    0.6659    2.1430 C   0  0  0  1  0  0  0  0  0  0  0  0
   -1.8114    1.6284    2.4833 H   0  0  0  1  0  0  0  0  0  0  0  0
   -3.2491    0.2329    2.9204 O   0  0  0  1  0  0  0  0  0  0  0  0
   -3.6337   -0.5504    2.5202 H   0  0  0  1  0  0  0  0  0  0  0  0
   -0.9779   -0.3570    2.2235 C   0  0  0  1  0  0  0  0  0  0  0  0
   -1.3521   -1.3273    2.4750 H   0  0  0  1  0  0  0  0  0  0  0  0
    0.0089    0.0587    3.2193 N   0  0  0  1  0  0  0  0  0  0  0  0
    0.4206   -0.6511    4.3054 C   0  0  0  1  0  0  0  0  0  0  0  0
    0.1116   -1.6278    4.4849 H   0  0  0  1  0  0  0  0  0  0  0  0
    1.2323   -0.0136    5.1045 N   0  0  0  1  0  0  0  0  0  0  0  0
    1.3821    1.2229    4.4962 C   0  0  0  1  0  0  0  0  0  0  0  0
    2.0911    2.3789    4.8093 C   0  0  0  1  0  0  0  0  0  0  0  0
    2.8711    2.4969    5.9293 N   0  0  0  1  0  0  0  0  0  0  0  0
    2.9736    1.7354    6.5375 H   0  0  0  1  0  0  0  0  0  0  0  0
    3.3267    3.3429    6.1222 H   0  0  0  1  0  0  0  0  0  0  0  0
    2.0249    3.4382    3.9956 N   0  0  0  1  0  0  0  0  0  0  0  0
    1.2534    3.3438    2.9010 C   0  0  0  1  0  0  0  0  0  0  0  0
    1.2251    4.1895    2.2964 H   0  0  0  1  0  0  0  0  0  0  0  0
    0.5218    2.3168    2.4862 N   0  0  0  1  0  0  0  0  0  0  0  0
    0.6247    1.2797    3.3185 C   0  0  0  1  0  0  0  0  0  0  0  0
  1  2  2  0  0  0  0
  1  3  1  0  0  0  0
  1  4  1  0  0  0  0
  1  8  1  0  0  0  0
  5  6  2  0  0  0  0
  5  7  1  0  0  0  0
  5  8  1  0  0  0  0
  5  9  1  0  0  0  0
  9 10  1  0  0  0  0
 10 11  1  0  0  0  0
 10 12  1  0  0  0  0
 10 13  1  0  0  0  0
 13 14  1  0  0  0  0
 13 15  1  0  0  0  0
 13 16  1  0  0  0  0
 15 24  1  0  0  0  0
 16 17  1  0  0  0  0
 16 18  1  0  0  0  0
 16 20  1  0  0  0  0
 18 19  1  0  0  0  0
 20 21  1  0  0  0  0
 20 22  1  0  0  0  0
 20 24  1  0  0  0  0
 22 23  1  0  0  0  0
 24 25  1  0  0  0  0
 24 26  1  0  0  0  0
 26 27  1  0  0  0  0
 26 39  1  0  0  0  0
 27 28  1  0  0  0  0
 27 29  2  0  0  0  0
 29 30  1  0  0  0  0
 30 31  1  0  0  0  0
 30 39  2  0  0  0  0
 31 32  1  0  0  0  0
 31 35  2  0  0  0  0
 32 33  1  0  0  0  0
 32 34  1  0  0  0  0
 35 36  1  0  0  0  0
 36 37  1  0  0  0  0
 36 38  2  0  0  0  0
 38 39  1  0  0  0  0
M  END
> <ConfClashScore>
0 

> <ConfOneFourInteractionScore>
-0.977602 

> <ConfScore>
0.0347021 

> <ConfScorePBest>
0.00819748 

> <ConfTolerance>
1.25224 

$$$$
ADP.****
  PyMOL2.5          3D                             0

 39 41  0  0  0  0  0  0  0  0999 V2000
   -3.7338    0.3009   -5.2863 P   0  0  0  1  0  0  0  0  0  0  0  0
   -3.4494   -1.0497   -4.7520 O   0  0  0  1  0  0  0  0  0  0  0  0
   -5.2920    0.7145   -5.4449 O   0  5  0  1  0  0  0  0  0  0  0  0
   -2.9920    0.4528   -6.7185 O   0  5  0  1  0  0  0  0  0  0  0  0
   -1.7360    1.3648   -3.4494 P   0  0  0  1  0  0  0  0  0  0  0  0
   -0.5613    0.6712   -4.0234 O   0  0  0  1  0  0  0  0  0  0  0  0
   -1.3514    2.8555   -2.9452 O   0  5  0  1  0  0  0  0  0  0  0  0
   -3.0565    1.4247   -4.3646 O   0  0  0  1  0  0  0  0  0  0  0  0
   -2.0758    0.5430   -2.1511 O   0  0  0  1  0  0  0  0  0  0  0  0
   -1.0227    0.0813   -1.2660 C   0  0  0  1  0  0  0  0  0  0  0  0
   -0.3403    0.8802   -1.0637 H   0  0  0  1  0  0  0  0  0  0  0  0
   -0.4959   -0.7321   -1.7197 H   0  0  0  1  0  0  0  0  0  0  0  0
   -1.6716   -0.3785    0.0180 C   0  0  0  1  0  0  0  0  0  0  0  0
   -2.3862   -1.1452   -0.1975 H   0  0  0  1  0  0  0  0  0  0  0  0
   -0.6694   -0.8612    0.9538 O   0  0  0  1  0  0  0  0  0  0  0  0
   -2.3402    0.7947    0.7333 C   0  0  0  1  0  0  0  0  0  0  0  0
   -1.8179    1.7109    0.5528 H   0  0  0  1  0  0  0  0  0  0  0  0
   -3.7049    0.9377    0.3365 O   0  0  0  1  0  0  0  0  0  0  0  0
   -4.2443    0.2987    0.8080 H   0  0  0  1  0  0  0  0  0  0  0  0
   -2.2282    0.3728    2.1756 C   0  0  0  1  0  0  0  0  0  0  0  0
   -2.2855    1.2164    2.8314 H   0  0  0  1  0  0  0  0  0  0  0  0
   -3.2461   -0.5684    2.5194 O   0  0  0  1  0  0  0  0  0  0  0  0
   -4.0422   -0.0988    2.7789 H   0  0  0  1  0  0  0  0  0  0  0  0
   -0.8518   -0.2657    2.2211 C   0  0  0  1  0  0  0  0  0  0  0  0
   -0.8089   -1.0067    2.9919 H   0  0  0  1  0  0  0  0  0  0  0  0
    0.1738    0.7482    2.4613 N   0  0  0  1  0  0  0  0  0  0  0  0
   -0.0307    2.0595    2.7636 C   0  0  0  1  0  0  0  0  0  0  0  0
   -0.9782    2.4528    2.9345 H   0  0  0  1  0  0  0  0  0  0  0  0
    1.0519    2.7863    2.8228 N   0  0  0  1  0  0  0  0  0  0  0  0
    2.0654    1.8822    2.5452 C   0  0  0  1  0  0  0  0  0  0  0  0
    3.4494    1.9795    2.4356 C   0  0  0  1  0  0  0  0  0  0  0  0
    4.1326    3.1535    2.6139 N   0  0  0  1  0  0  0  0  0  0  0  0
    5.1123    3.1584    2.5926 H   0  0  0  1  0  0  0  0  0  0  0  0
    3.6415    3.9885    2.7627 H   0  0  0  1  0  0  0  0  0  0  0  0
    4.1695    0.8910    2.1436 N   0  0  0  1  0  0  0  0  0  0  0  0
    3.5139   -0.2646    1.9518 C   0  0  0  1  0  0  0  0  0  0  0  0
    4.1086   -1.0864    1.7226 H   0  0  0  1  0  0  0  0  0  0  0  0
    2.2091   -0.5000    2.0151 N   0  0  0  1  0  0  0  0  0  0  0  0
    1.5301    0.6070    2.3192 C   0  0  0  1  0  0  0  0  0  0  0  0
  1  2  2  0  0  0  0
  1  3  1  0  0  0  0
  1  4  1  0  0  0  0
  1  8  1  0  0  0  0
  5  6  2  0  0  0  0
  5  7  1  0  0  0  0
  5  8  1  0  0  0  0
  5  9  1  0  0  0  0
  9 10  1  0  0  0  0
 10 11  1  0  0  0  0
 10 12  1  0  0  0  0
 10 13  1  0  0  0  0
 13 14  1  0  0  0  0
 13 15  1  0  0  0  0
 13 16  1  0  0  0  0
 15 24  1  0  0  0  0
 16 17  1  0  0  0  0
 16 18  1  0  0  0  0
 16 20  1  0  0  0  0
 18 19  1  0  0  0  0
 20 21  1  0  0  0  0
 20 22  1  0  0  0  0
 20 24  1  0  0  0  0
 22 23  1  0  0  0  0
 24 25  1  0  0  0  0
 24 26  1  0  0  0  0
 26 27  1  0  0  0  0
 26 39  1  0  0  0  0
 27 28  1  0  0  0  0
 27 29  2  0  0  0  0
 29 30  1  0  0  0  0
 30 31  1  0  0  0  0
 30 39  2  0  0  0  0
 31 32  1  0  0  0  0
 31 35  2  0  0  0  0
 32 33  1  0  0  0  0
 32 34  1  0  0  0  0
 35 36  1  0  0  0  0
 36 37  1  0  0  0  0
 36 38  2  0  0  0  0
 38 39  1  0  0  0  0
M  END
> <ConfClashScore>
0 

> <ConfOneFourInteractionScore>
-0.977602 

> <ConfScore>
0.0351206 

> <ConfScorePBest>
0.00809448 

> <ConfTolerance>
1.08802 

$$$$
ADP.****
  PyMOL2.5          3D                             0

 39 41  0  0  0  0  0  0  0  0999 V2000
    0.6160   -3.1572   -4.5068 P   0  0  0  1  0  0  0  0  0  0  0  0
   -0.5375   -3.8073   -3.8457 O   0  0  0  1  0  0  0  0  0  0  0  0
    0.4809   -2.8772   -6.0967 O   0  5  0  1  0  0  0  0  0  0  0  0
    1.9611   -4.0304   -4.2771 O   0  5  0  1  0  0  0  0  0  0  0  0
    0.0878   -0.4880   -3.5431 P   0  0  0  1  0  0  0  0  0  0  0  0
    0.7548    0.8002   -3.8364 O   0  0  0  1  0  0  0  0  0  0  0  0
   -1.2188   -0.5984   -4.4945 O   0  5  0  1  0  0  0  0  0  0  0  0
    1.0148   -1.7773   -3.7858 O   0  0  0  1  0  0  0  0  0  0  0  0
   -0.3701   -0.5844   -2.0484 O   0  0  0  1  0  0  0  0  0  0  0  0
   -1.1737    0.3989   -1.3547 C   0  0  0  1  0  0  0  0  0  0  0  0
   -2.0485    0.6246   -1.9280 H   0  0  0  1  0  0  0  0  0  0  0  0
   -0.6054    1.2928   -1.2033 H   0  0  0  1  0  0  0  0  0  0  0  0
   -1.5702   -0.1905   -0.0217 C   0  0  0  1  0  0  0  0  0  0  0  0
   -2.0449   -1.1368   -0.1766 H   0  0  0  1  0  0  0  0  0  0  0  0
   -0.4154   -0.3345    0.8348 O   0  0  0  1  0  0  0  0  0  0  0  0
   -2.5089    0.7708    0.7408 C   0  0  0  1  0  0  0  0  0  0  0  0
   -2.3680    1.7794    0.4123 H   0  0  0  1  0  0  0  0  0  0  0  0
   -3.8752    0.3964    0.5581 O   0  0  0  1  0  0  0  0  0  0  0  0
   -3.9936   -0.5204    0.8171 H   0  0  0  1  0  0  0  0  0  0  0  0
   -2.0892    0.6118    2.2210 C   0  0  0  1  0  0  0  0  0  0  0  0
   -1.7441    1.5425    2.6206 H   0  0  0  1  0  0  0  0  0  0  0  0
   -3.1788    0.1295    3.0086 O   0  0  0  1  0  0  0  0  0  0  0  0
   -4.0062    0.3144    2.5583 H   0  0  0  1  0  0  0  0  0  0  0  0
   -0.9447   -0.4238    2.1752 C   0  0  0  1  0  0  0  0  0  0  0  0
   -1.3195   -1.4075    2.3668 H   0  0  0  1  0  0  0  0  0  0  0  0
    0.0864   -0.0943    3.1580 N   0  0  0  1  0  0  0  0  0  0  0  0
    1.1553    0.7248    2.9603 C   0  0  0  1  0  0  0  0  0  0  0  0
    1.2389    1.3442    2.1290 H   0  0  0  1  0  0  0  0  0  0  0  0
    2.0675    0.6745    3.8925 N   0  0  0  1  0  0  0  0  0  0  0  0
    1.5608   -0.2497    4.7930 C   0  0  0  1  0  0  0  0  0  0  0  0
    2.0158   -0.7835    5.9950 C   0  0  0  1  0  0  0  0  0  0  0  0
    3.2324   -0.3580    6.4867 N   0  0  0  1  0  0  0  0  0  0  0  0
    3.7406    0.3302    6.0085 H   0  0  0  1  0  0  0  0  0  0  0  0
    3.5886   -0.7439    7.3141 H   0  0  0  1  0  0  0  0  0  0  0  0
    1.2731   -1.6881    6.6421 N   0  0  0  1  0  0  0  0  0  0  0  0
    0.1079   -2.0584    6.0878 C   0  0  0  1  0  0  0  0  0  0  0  0
   -0.4380   -2.7664    6.6192 H   0  0  0  1  0  0  0  0  0  0  0  0
   -0.4415   -1.6431    4.9531 N   0  0  0  1  0  0  0  0  0  0  0  0
    0.3246   -0.7354    4.3463 C   0  0  0  1  0  0  0  0  0  0  0  0
  1  2  2  0  0  0  0
  1  3  1  0  0  0  0
  1  4  1  0  0  0  0
  1  8  1  0  0  0  0
  5  6  2  0  0  0  0
  5  7  1  0  0  0  0
  5  8  1  0  0  0  0
  5  9  1  0  0  0  0
  9 10  1  0  0  0  0
 10 11  1  0  0  0  0
 10 12  1  0  0  0  0
 10 13  1  0  0  0  0
 13 14  1  0  0  0  0
 13 15  1  0  0  0  0
 13 16  1  0  0  0  0
 15 24  1  0  0  0  0
 16 17  1  0  0  0  0
 16 18  1  0  0  0  0
 16 20  1  0  0  0  0
 18 19  1  0  0  0  0
 20 21  1  0  0  0  0
 20 22  1  0  0  0  0
 20 24  1  0  0  0  0
 22 23  1  0  0  0  0
 24 25  1  0  0  0  0
 24 26  1  0  0  0  0
 26 27  1  0  0  0  0
 26 39  1  0  0  0  0
 27 28  1  0  0  0  0
 27 29  2  0  0  0  0
 29 30  1  0  0  0  0
 30 31  1  0  0  0  0
 30 39  2  0  0  0  0
 31 32  1  0  0  0  0
 31 35  2  0  0  0  0
 32 33  1  0  0  0  0
 32 34  1  0  0  0  0
 35 36  1  0  0  0  0
 36 37  1  0  0  0  0
 36 38  2  0  0  0  0
 38 39  1  0  0  0  0
M  END
> <ConfClashScore>
0 

> <ConfOneFourInteractionScore>
-0.973465 

> <ConfScore>
0.04207 

> <ConfScorePBest>
0.00799148 

> <ConfTolerance>
1.01109 

$$$$
ADP.****
  PyMOL2.5          3D                             0

 39 41  0  0  0  0  0  0  0  0999 V2000
   -0.4804    2.7769   -4.6554 P   0  0  0  1  0  0  0  0  0  0  0  0
   -0.7577    2.4551   -6.0731 O   0  0  0  1  0  0  0  0  0  0  0  0
   -0.5149    4.3710   -4.3691 O   0  5  0  1  0  0  0  0  0  0  0  0
    1.0063    2.2274   -4.3206 O   0  5  0  1  0  0  0  0  0  0  0  0
   -2.1439    0.6353   -3.7217 P   0  0  0  1  0  0  0  0  0  0  0  0
   -3.4863    0.7221   -4.3388 O   0  0  0  1  0  0  0  0  0  0  0  0
   -1.0675   -0.2688   -4.5268 O   0  5  0  1  0  0  0  0  0  0  0  0
   -1.5481    2.1375   -3.6219 O   0  0  0  1  0  0  0  0  0  0  0  0
   -2.2846    0.1788   -2.2223 O   0  0  0  1  0  0  0  0  0  0  0  0
   -1.1308    0.1296   -1.3505 C   0  0  0  1  0  0  0  0  0  0  0  0
   -0.7032    1.1076   -1.2765 H   0  0  0  1  0  0  0  0  0  0  0  0
   -0.4088   -0.5459   -1.7594 H   0  0  0  1  0  0  0  0  0  0  0  0
   -1.5311   -0.3443    0.0283 C   0  0  0  1  0  0  0  0  0  0  0  0
   -1.9656   -1.3196   -0.0414 H   0  0  0  1  0  0  0  0  0  0  0  0
   -0.3888   -0.3580    0.9133 O   0  0  0  1  0  0  0  0  0  0  0  0
   -2.5213    0.6475    0.6784 C   0  0  0  1  0  0  0  0  0  0  0  0
   -2.4130    1.6244    0.2557 H   0  0  0  1  0  0  0  0  0  0  0  0
   -3.8681    0.2022    0.5111 O   0  0  0  1  0  0  0  0  0  0  0  0
   -4.4678    0.9413    0.6363 H   0  0  0  1  0  0  0  0  0  0  0  0
   -2.1253    0.6492    2.1737 C   0  0  0  1  0  0  0  0  0  0  0  0
   -1.8245    1.6274    2.4863 H   0  0  0  1  0  0  0  0  0  0  0  0
   -3.2109    0.2016    2.9869 O   0  0  0  1  0  0  0  0  0  0  0  0
   -3.5347   -0.6389    2.6548 H   0  0  0  1  0  0  0  0  0  0  0  0
   -0.9408   -0.3388    2.2472 C   0  0  0  1  0  0  0  0  0  0  0  0
   -1.2811   -1.3137    2.5277 H   0  0  0  1  0  0  0  0  0  0  0  0
    0.0577    0.1259    3.2106 N   0  0  0  1  0  0  0  0  0  0  0  0
    1.3856    0.3233    2.9861 C   0  0  0  1  0  0  0  0  0  0  0  0
    1.8265    0.1584    2.0587 H   0  0  0  1  0  0  0  0  0  0  0  0
    2.0640    0.7352    4.0224 N   0  0  0  1  0  0  0  0  0  0  0  0
    1.1068    0.8290    5.0206 C   0  0  0  1  0  0  0  0  0  0  0  0
    1.1377    1.1926    6.3637 C   0  0  0  1  0  0  0  0  0  0  0  0
    2.2799    1.5737    7.0056 N   0  0  0  1  0  0  0  0  0  0  0  0
    3.1387    1.5480    6.5343 H   0  0  0  1  0  0  0  0  0  0  0  0
    2.2414    1.8733    7.9379 H   0  0  0  1  0  0  0  0  0  0  0  0
    0.0092    1.1760    7.0813 N   0  0  0  1  0  0  0  0  0  0  0  0
   -1.1208    0.7896    6.4683 C   0  0  0  1  0  0  0  0  0  0  0  0
   -1.9754    0.7863    7.0609 H   0  0  0  1  0  0  0  0  0  0  0  0
   -1.2947    0.4113    5.2079 N   0  0  0  1  0  0  0  0  0  0  0  0
   -0.1492    0.4528    4.5259 C   0  0  0  1  0  0  0  0  0  0  0  0
  1  2  2  0  0  0  0
  1  3  1  0  0  0  0
  1  4  1  0  0  0  0
  1  8  1  0  0  0  0
  5  6  2  0  0  0  0
  5  7  1  0  0  0  0
  5  8  1  0  0  0  0
  5  9  1  0  0  0  0
  9 10  1  0  0  0  0
 10 11  1  0  0  0  0
 10 12  1  0  0  0  0
 10 13  1  0  0  0  0
 13 14  1  0  0  0  0
 13 15  1  0  0  0  0
 13 16  1  0  0  0  0
 15 24  1  0  0  0  0
 16 17  1  0  0  0  0
 16 18  1  0  0  0  0
 16 20  1  0  0  0  0
 18 19  1  0  0  0  0
 20 21  1  0  0  0  0
 20 22  1  0  0  0  0
 20 24  1  0  0  0  0
 22 23  1  0  0  0  0
 24 25  1  0  0  0  0
 24 26  1  0  0  0  0
 26 27  1  0  0  0  0
 26 39  1  0  0  0  0
 27 28  1  0  0  0  0
 27 29  2  0  0  0  0
 29 30  1  0  0  0  0
 30 31  1  0  0  0  0
 30 39  2  0  0  0  0
 31 32  1  0  0  0  0
 31 35  2  0  0  0  0
 32 33  1  0  0  0  0
 32 34  1  0  0  0  0
 35 36  1  0  0  0  0
 36 37  1  0  0  0  0
 36 38  2  0  0  0  0
 38 39  1  0  0  0  0
M  END
> <ConfClashScore>
0 

> <ConfOneFourInteractionScore>
-0.966658 

> <ConfScore>
0.0422607 

> <ConfScorePBest>
0.00788848 

> <ConfTolerance>
1.04248 

$$$$
ADP.****
  PyMOL2.5          3D                             0

 39 41  0  0  0  0  0  0  0  0999 V2000
   -0.0767    6.1084    0.2701 P   0  0  0  1  0  0  0  0  0  0  0  0
   -0.1907    6.6847   -1.0883 O   0  0  0  1  0  0  0  0  0  0  0  0
   -1.2219    6.8590    1.1357 O   0  5  0  1  0  0  0  0  0  0  0  0
    1.3312    6.5287    0.9524 O   0  5  0  1  0  0  0  0  0  0  0  0
    0.3854    3.2943   -0.4307 P   0  0  0  1  0  0  0  0  0  0  0  0
    0.2376    3.5847   -1.8743 O   0  0  0  1  0  0  0  0  0  0  0  0
    1.9439    3.2341    0.0071 O   0  5  0  1  0  0  0  0  0  0  0  0
   -0.2840    4.5176    0.3579 O   0  0  0  1  0  0  0  0  0  0  0  0
   -0.2374    1.9308    0.0367 O   0  0  0  1  0  0  0  0  0  0  0  0
   -0.7573    0.9418   -0.8828 C   0  0  0  1  0  0  0  0  0  0  0  0
    0.0504    0.4415   -1.3749 H   0  0  0  1  0  0  0  0  0  0  0  0
   -1.3817    1.4147   -1.6119 H   0  0  0  1  0  0  0  0  0  0  0  0
   -1.5656   -0.0519   -0.0795 C   0  0  0  1  0  0  0  0  0  0  0  0
   -2.0268   -0.7550   -0.7411 H   0  0  0  1  0  0  0  0  0  0  0  0
   -0.7200   -0.7355    0.8626 O   0  0  0  1  0  0  0  0  0  0  0  0
   -2.6423    0.6838    0.7559 C   0  0  0  1  0  0  0  0  0  0  0  0
   -2.8287    1.6632    0.3673 H   0  0  0  1  0  0  0  0  0  0  0  0
   -3.8632   -0.0568    0.7880 O   0  0  0  1  0  0  0  0  0  0  0  0
   -3.6724   -0.9932    0.6972 H   0  0  0  1  0  0  0  0  0  0  0  0
   -2.0088    0.7539    2.1342 C   0  0  0  1  0  0  0  0  0  0  0  0
   -1.4020    1.6293    2.2362 H   0  0  0  1  0  0  0  0  0  0  0  0
   -3.0030    0.7407    3.1596 O   0  0  0  1  0  0  0  0  0  0  0  0
   -3.7587    0.2262    2.8667 H   0  0  0  1  0  0  0  0  0  0  0  0
   -1.1529   -0.5220    2.1752 C   0  0  0  1  0  0  0  0  0  0  0  0
   -1.7378   -1.3516    2.5137 H   0  0  0  1  0  0  0  0  0  0  0  0
   -0.0064   -0.3371    3.0654 N   0  0  0  1  0  0  0  0  0  0  0  0
    0.4399   -1.1994    4.0194 C   0  0  0  1  0  0  0  0  0  0  0  0
   -0.0164   -2.1159    4.2023 H   0  0  0  1  0  0  0  0  0  0  0  0
    1.4837   -0.7894    4.6873 N   0  0  0  1  0  0  0  0  0  0  0  0
    1.7632    0.4469    4.1261 C   0  0  0  1  0  0  0  0  0  0  0  0
    2.7248    1.4249    4.3625 C   0  0  0  1  0  0  0  0  0  0  0  0
    3.6926    1.3043    5.3246 N   0  0  0  1  0  0  0  0  0  0  0  0
    4.2646    2.0695    5.5428 H   0  0  0  1  0  0  0  0  0  0  0  0
    3.8129    0.4528    5.7946 H   0  0  0  1  0  0  0  0  0  0  0  0
    2.7262    2.5440    3.6303 N   0  0  0  1  0  0  0  0  0  0  0  0
    1.7756    2.6840    2.6928 C   0  0  0  1  0  0  0  0  0  0  0  0
    1.8082    3.5693    2.1480 H   0  0  0  1  0  0  0  0  0  0  0  0
    0.7997    1.8452    2.3674 N   0  0  0  1  0  0  0  0  0  0  0  0
    0.8411    0.7395    3.1122 C   0  0  0  1  0  0  0  0  0  0  0  0
  1  2  2  0  0  0  0
  1  3  1  0  0  0  0
  1  4  1  0  0  0  0
  1  8  1  0  0  0  0
  5  6  2  0  0  0  0
  5  7  1  0  0  0  0
  5  8  1  0  0  0  0
  5  9  1  0  0  0  0
  9 10  1  0  0  0  0
 10 11  1  0  0  0  0
 10 12  1  0  0  0  0
 10 13  1  0  0  0  0
 13 14  1  0  0  0  0
 13 15  1  0  0  0  0
 13 16  1  0  0  0  0
 15 24  1  0  0  0  0
 16 17  1  0  0  0  0
 16 18  1  0  0  0  0
 16 20  1  0  0  0  0
 18 19  1  0  0  0  0
 20 21  1  0  0  0  0
 20 22  1  0  0  0  0
 20 24  1  0  0  0  0
 22 23  1  0  0  0  0
 24 25  1  0  0  0  0
 24 26  1  0  0  0  0
 26 27  1  0  0  0  0
 26 39  1  0  0  0  0
 27 28  1  0  0  0  0
 27 29  2  0  0  0  0
 29 30  1  0  0  0  0
 30 31  1  0  0  0  0
 30 39  2  0  0  0  0
 31 32  1  0  0  0  0
 31 35  2  0  0  0  0
 32 33  1  0  0  0  0
 32 34  1  0  0  0  0
 35 36  1  0  0  0  0
 36 37  1  0  0  0  0
 36 38  2  0  0  0  0
 38 39  1  0  0  0  0
M  END
> <ConfClashScore>
0 

> <ConfOneFourInteractionScore>
-0.979916 

> <ConfScore>
0.04246 

> <ConfScorePBest>
0.00778548 

> <ConfTolerance>
1.20195 

$$$$
ADP.****
  PyMOL2.5          3D                             0

 39 41  0  0  0  0  0  0  0  0999 V2000
    1.7930    0.3587   -3.9647 P   0  0  0  1  0  0  0  0  0  0  0  0
    1.4738   -1.0221   -3.5380 O   0  0  0  1  0  0  0  0  0  0  0  0
    1.3718    0.7557   -5.4778 O   0  5  0  1  0  0  0  0  0  0  0  0
    3.3639    0.7459   -3.8819 O   0  5  0  1  0  0  0  0  0  0  0  0
    0.7870    2.0239   -1.6490 P   0  0  0  1  0  0  0  0  0  0  0  0
    1.7211    1.3134   -0.7473 O   0  0  0  1  0  0  0  0  0  0  0  0
    0.8546    3.6388   -1.5405 O   0  5  0  1  0  0  0  0  0  0  0  0
    1.1198    1.5601   -3.1460 O   0  0  0  1  0  0  0  0  0  0  0  0
   -0.7012    1.5938   -1.3721 O   0  0  0  1  0  0  0  0  0  0  0  0
   -1.0841    0.1982   -1.3815 C   0  0  0  1  0  0  0  0  0  0  0  0
   -0.2518   -0.3820   -1.7212 H   0  0  0  1  0  0  0  0  0  0  0  0
   -1.9053    0.0739   -2.0561 H   0  0  0  1  0  0  0  0  0  0  0  0
   -1.5050   -0.3126    0.0009 C   0  0  0  1  0  0  0  0  0  0  0  0
   -1.9416   -1.2848   -0.0953 H   0  0  0  1  0  0  0  0  0  0  0  0
   -0.3715   -0.3501    0.8964 O   0  0  0  1  0  0  0  0  0  0  0  0
   -2.4987    0.6671    0.6637 C   0  0  0  1  0  0  0  0  0  0  0  0
   -2.3834    1.6531    0.2645 H   0  0  0  1  0  0  0  0  0  0  0  0
   -3.8451    0.2299    0.4732 O   0  0  0  1  0  0  0  0  0  0  0  0
   -4.4047    0.6094    1.1546 H   0  0  0  1  0  0  0  0  0  0  0  0
   -2.1174    0.6335    2.1625 C   0  0  0  1  0  0  0  0  0  0  0  0
   -1.8170    1.6033    2.5002 H   0  0  0  1  0  0  0  0  0  0  0  0
   -3.2128    0.1706    2.9549 O   0  0  0  1  0  0  0  0  0  0  0  0
   -3.7986   -0.3620    2.4120 H   0  0  0  1  0  0  0  0  0  0  0  0
   -0.9366   -0.3596    2.2250 C   0  0  0  1  0  0  0  0  0  0  0  0
   -1.2824   -1.3396    2.4798 H   0  0  0  1  0  0  0  0  0  0  0  0
    0.0529    0.0796    3.2076 N   0  0  0  1  0  0  0  0  0  0  0  0
    0.7980    1.2182    3.1747 C   0  0  0  1  0  0  0  0  0  0  0  0
    0.7740    1.8792    2.3721 H   0  0  0  1  0  0  0  0  0  0  0  0
    1.5451    1.4180    4.2263 N   0  0  0  1  0  0  0  0  0  0  0  0
    1.2689    0.3251    5.0331 C   0  0  0  1  0  0  0  0  0  0  0  0
    1.7183   -0.0986    6.2803 C   0  0  0  1  0  0  0  0  0  0  0  0
    2.6383    0.6383    6.9786 N   0  0  0  1  0  0  0  0  0  0  0  0
    2.9304    0.3433    7.8663 H   0  0  0  1  0  0  0  0  0  0  0  0
    3.0042    1.4604    6.5904 H   0  0  0  1  0  0  0  0  0  0  0  0
    1.2481   -1.2362    6.8031 N   0  0  0  1  0  0  0  0  0  0  0  0
    0.3587   -1.9389    6.0841 C   0  0  0  1  0  0  0  0  0  0  0  0
    0.0204   -2.8190    6.5230 H   0  0  0  1  0  0  0  0  0  0  0  0
   -0.1474   -1.6623    4.8885 N   0  0  0  1  0  0  0  0  0  0  0  0
    0.3383   -0.5164    4.4089 C   0  0  0  1  0  0  0  0  0  0  0  0
  1  2  2  0  0  0  0
  1  3  1  0  0  0  0
  1  4  1  0  0  0  0
  1  8  1  0  0  0  0
  5  6  2  0  0  0  0
  5  7  1  0  0  0  0
  5  8  1  0  0  0  0
  5  9  1  0  0  0  0
  9 10  1  0  0  0  0
 10 11  1  0  0  0  0
 10 12  1  0  0  0  0
 10 13  1  0  0  0  0
 13 14  1  0  0  0  0
 13 15  1  0  0  0  0
 13 16  1  0  0  0  0
 15 24  1  0  0  0  0
 16 17  1  0  0  0  0
 16 18  1  0  0  0  0
 16 20  1  0  0  0  0
 18 19  1  0  0  0  0
 20 21  1  0  0  0  0
 20 22  1  0  0  0  0
 20 24  1  0  0  0  0
 22 23  1  0  0  0  0
 24 25  1  0  0  0  0
 24 26  1  0  0  0  0
 26 27  1  0  0  0  0
 26 39  1  0  0  0  0
 27 28  1  0  0  0  0
 27 29  2  0  0  0  0
 29 30  1  0  0  0  0
 30 31  1  0  0  0  0
 30 39  2  0  0  0  0
 31 32  1  0  0  0  0
 31 35  2  0  0  0  0
 32 33  1  0  0  0  0
 32 34  1  0  0  0  0
 35 36  1  0  0  0  0
 36 37  1  0  0  0  0
 36 38  2  0  0  0  0
 38 39  1  0  0  0  0
M  END
> <ConfClashScore>
0 

> <ConfOneFourInteractionScore>
-0.989393 

> <ConfScore>
0.0434246 

> <ConfScorePBest>
0.00768248 

> <ConfTolerance>
1.09903 

$$$$
ADP.****
  PyMOL2.5          3D                             0

 39 41  0  0  0  0  0  0  0  0999 V2000
    1.6508   -1.7057   -5.4169 P   0  0  0  1  0  0  0  0  0  0  0  0
    2.6846   -2.7583   -5.5342 O   0  0  0  1  0  0  0  0  0  0  0  0
    0.4122   -2.2466   -6.3100 O   0  5  0  1  0  0  0  0  0  0  0  0
    2.0590   -0.3512   -6.2064 O   0  5  0  1  0  0  0  0  0  0  0  0
    0.5464   -0.0511   -3.2207 P   0  0  0  1  0  0  0  0  0  0  0  0
    1.6844    0.8766   -3.0341 O   0  0  0  1  0  0  0  0  0  0  0  0
   -0.4989    0.5873   -4.2810 O   0  5  0  1  0  0  0  0  0  0  0  0
    1.1577   -1.3524   -3.9370 O   0  0  0  1  0  0  0  0  0  0  0  0
   -0.2141   -0.4747   -1.9099 O   0  0  0  1  0  0  0  0  0  0  0  0
   -0.7610    0.5219   -1.0146 C   0  0  0  1  0  0  0  0  0  0  0  0
   -1.3425    1.2292   -1.5682 H   0  0  0  1  0  0  0  0  0  0  0  0
    0.0320    1.0305   -0.5074 H   0  0  0  1  0  0  0  0  0  0  0  0
   -1.6386   -0.1938   -0.0117 C   0  0  0  1  0  0  0  0  0  0  0  0
   -2.2708   -0.8896   -0.5226 H   0  0  0  1  0  0  0  0  0  0  0  0
   -0.8303   -0.8805    0.9317 O   0  0  0  1  0  0  0  0  0  0  0  0
   -2.4326    0.7504    0.6945 C   0  0  0  1  0  0  0  0  0  0  0  0
   -2.2183    1.7388    0.3451 H   0  0  0  1  0  0  0  0  0  0  0  0
   -3.8178    0.4642    0.4956 O   0  0  0  1  0  0  0  0  0  0  0  0
   -4.0807   -0.2603    1.0679 H   0  0  0  1  0  0  0  0  0  0  0  0
   -2.1125    0.6471    2.0742 C   0  0  0  1  0  0  0  0  0  0  0  0
   -1.7339    1.5825    2.4300 H   0  0  0  1  0  0  0  0  0  0  0  0
   -3.2794    0.2914    2.8171 O   0  0  0  1  0  0  0  0  0  0  0  0
   -3.4411   -0.6507    2.7282 H   0  0  0  1  0  0  0  0  0  0  0  0
   -1.1231   -0.3597    2.2209 C   0  0  0  1  0  0  0  0  0  0  0  0
   -1.4914   -1.1408    2.8527 H   0  0  0  1  0  0  0  0  0  0  0  0
    0.0855    0.2151    2.8095 N   0  0  0  1  0  0  0  0  0  0  0  0
    0.2770    0.7292    4.0552 C   0  0  0  1  0  0  0  0  0  0  0  0
   -0.4780    0.7593    4.7699 H   0  0  0  1  0  0  0  0  0  0  0  0
    1.4796    1.1816    4.2853 N   0  0  0  1  0  0  0  0  0  0  0  0
    2.1499    0.9413    3.0960 C   0  0  0  1  0  0  0  0  0  0  0  0
    3.4455    1.1795    2.6470 C   0  0  0  1  0  0  0  0  0  0  0  0
    4.4102    1.8567    3.3931 N   0  0  0  1  0  0  0  0  0  0  0  0
    4.1982    2.1731    4.2960 H   0  0  0  1  0  0  0  0  0  0  0  0
    5.2998    2.0161    3.0142 H   0  0  0  1  0  0  0  0  0  0  0  0
    3.7932    0.8228    1.4058 N   0  0  0  1  0  0  0  0  0  0  0  0
    2.8579    0.2537    0.6292 C   0  0  0  1  0  0  0  0  0  0  0  0
    3.1662   -0.0053   -0.3297 H   0  0  0  1  0  0  0  0  0  0  0  0
    1.5927   -0.0233    0.9198 N   0  0  0  1  0  0  0  0  0  0  0  0
    1.2909    0.3373    2.1679 C   0  0  0  1  0  0  0  0  0  0  0  0
  1  2  2  0  0  0  0
  1  3  1  0  0  0  0
  1  4  1  0  0  0  0
  1  8  1  0  0  0  0
  5  6  2  0  0  0  0
  5  7  1  0  0  0  0
  5  8  1  0  0  0  0
  5  9  1  0  0  0  0
  9 10  1  0  0  0  0
 10 11  1  0  0  0  0
 10 12  1  0  0  0  0
 10 13  1  0  0  0  0
 13 14  1  0  0  0  0
 13 15  1  0  0  0  0
 13 16  1  0  0  0  0
 15 24  1  0  0  0  0
 16 17  1  0  0  0  0
 16 18  1  0  0  0  0
 16 20  1  0  0  0  0
 18 19  1  0  0  0  0
 20 21  1  0  0  0  0
 20 22  1  0  0  0  0
 20 24  1  0  0  0  0
 22 23  1  0  0  0  0
 24 25  1  0  0  0  0
 24 26  1  0  0  0  0
 26 27  1  0  0  0  0
 26 39  1  0  0  0  0
 27 28  1  0  0  0  0
 27 29  2  0  0  0  0
 29 30  1  0  0  0  0
 30 31  1  0  0  0  0
 30 39  2  0  0  0  0
 31 32  1  0  0  0  0
 31 35  2  0  0  0  0
 32 33  1  0  0  0  0
 32 34  1  0  0  0  0
 35 36  1  0  0  0  0
 36 37  1  0  0  0  0
 36 38  2  0  0  0  0
 38 39  1  0  0  0  0
M  END
> <ConfClashScore>
0 

> <ConfOneFourInteractionScore>
-0.970606 

> <ConfScore>
0.0463183 

> <ConfScorePBest>
0.00757948 

> <ConfTolerance>
1.15745 

$$$$
ADP.****
  PyMOL2.5          3D                             0

 39 41  0  0  0  0  0  0  0  0999 V2000
   -1.4760   -1.2769   -5.8346 P   0  0  0  1  0  0  0  0  0  0  0  0
   -2.4370   -0.7300   -6.8184 O   0  0  0  1  0  0  0  0  0  0  0  0
    0.0384   -1.2009   -6.4049 O   0  5  0  1  0  0  0  0  0  0  0  0
   -1.7123   -2.8662   -5.6281 O   0  5  0  1  0  0  0  0  0  0  0  0
   -1.6397    0.8228   -3.7501 P   0  0  0  1  0  0  0  0  0  0  0  0
   -0.3728    1.5841   -3.8274 O   0  0  0  1  0  0  0  0  0  0  0  0
   -2.9449    1.3808   -4.5308 O   0  5  0  1  0  0  0  0  0  0  0  0
   -1.4391   -0.6477   -4.3646 O   0  0  0  1  0  0  0  0  0  0  0  0
   -2.0339    0.5267   -2.2468 O   0  0  0  1  0  0  0  0  0  0  0  0
   -1.0045    0.0731   -1.3366 C   0  0  0  1  0  0  0  0  0  0  0  0
   -0.3206    0.8747   -1.1506 H   0  0  0  1  0  0  0  0  0  0  0  0
   -0.4803   -0.7483   -1.7787 H   0  0  0  1  0  0  0  0  0  0  0  0
   -1.6157   -0.3727   -0.0293 C   0  0  0  1  0  0  0  0  0  0  0  0
   -2.2821   -1.1907   -0.2071 H   0  0  0  1  0  0  0  0  0  0  0  0
   -0.6187   -0.7346    0.8871 O   0  0  0  1  0  0  0  0  0  0  0  0
   -2.3517    0.7904    0.6516 C   0  0  0  1  0  0  0  0  0  0  0  0
   -1.8571    1.7210    0.4667 H   0  0  0  1  0  0  0  0  0  0  0  0
   -3.7063    0.8737    0.2064 O   0  0  0  1  0  0  0  0  0  0  0  0
   -4.2755    0.4071    0.8227 H   0  0  0  1  0  0  0  0  0  0  0  0
   -2.2812    0.4182    2.1094 C   0  0  0  1  0  0  0  0  0  0  0  0
   -2.3184    1.2891    2.7300 H   0  0  0  1  0  0  0  0  0  0  0  0
   -3.3452   -0.4661    2.4644 O   0  0  0  1  0  0  0  0  0  0  0  0
   -3.6782   -0.2338    3.3343 H   0  0  0  1  0  0  0  0  0  0  0  0
   -0.9236   -0.2813    2.2253 C   0  0  0  1  0  0  0  0  0  0  0  0
   -0.9849   -1.1111    2.8981 H   0  0  0  1  0  0  0  0  0  0  0  0
    0.0969    0.6537    2.6954 N   0  0  0  1  0  0  0  0  0  0  0  0
    1.0918    1.2212    1.9599 C   0  0  0  1  0  0  0  0  0  0  0  0
    1.2133    1.0332    0.9443 H   0  0  0  1  0  0  0  0  0  0  0  0
    1.8820    2.0191    2.6254 N   0  0  0  1  0  0  0  0  0  0  0  0
    1.3659    1.9886    3.9115 C   0  0  0  1  0  0  0  0  0  0  0  0
    1.7213    2.5919    5.1143 C   0  0  0  1  0  0  0  0  0  0  0  0
    2.8018    3.4313    5.1822 N   0  0  0  1  0  0  0  0  0  0  0  0
    3.3154    3.6354    4.3729 H   0  0  0  1  0  0  0  0  0  0  0  0
    3.0612    3.8277    6.0401 H   0  0  0  1  0  0  0  0  0  0  0  0
    1.0015    2.3504    6.2153 N   0  0  0  1  0  0  0  0  0  0  0  0
   -0.0416    1.5115    6.1140 C   0  0  0  1  0  0  0  0  0  0  0  0
   -0.5731    1.3465    6.9925 H   0  0  0  1  0  0  0  0  0  0  0  0
   -0.4863    0.8643    5.0438 N   0  0  0  1  0  0  0  0  0  0  0  0
    0.2512    1.1412    3.9675 C   0  0  0  1  0  0  0  0  0  0  0  0
  1  2  2  0  0  0  0
  1  3  1  0  0  0  0
  1  4  1  0  0  0  0
  1  8  1  0  0  0  0
  5  6  2  0  0  0  0
  5  7  1  0  0  0  0
  5  8  1  0  0  0  0
  5  9  1  0  0  0  0
  9 10  1  0  0  0  0
 10 11  1  0  0  0  0
 10 12  1  0  0  0  0
 10 13  1  0  0  0  0
 13 14  1  0  0  0  0
 13 15  1  0  0  0  0
 13 16  1  0  0  0  0
 15 24  1  0  0  0  0
 16 17  1  0  0  0  0
 16 18  1  0  0  0  0
 16 20  1  0  0  0  0
 18 19  1  0  0  0  0
 20 21  1  0  0  0  0
 20 22  1  0  0  0  0
 20 24  1  0  0  0  0
 22 23  1  0  0  0  0
 24 25  1  0  0  0  0
 24 26  1  0  0  0  0
 26 27  1  0  0  0  0
 26 39  1  0  0  0  0
 27 28  1  0  0  0  0
 27 29  2  0  0  0  0
 29 30  1  0  0  0  0
 30 31  1  0  0  0  0
 30 39  2  0  0  0  0
 31 32  1  0  0  0  0
 31 35  2  0  0  0  0
 32 33  1  0  0  0  0
 32 34  1  0  0  0  0
 35 36  1  0  0  0  0
 36 37  1  0  0  0  0
 36 38  2  0  0  0  0
 38 39  1  0  0  0  0
M  END
> <ConfClashScore>
0 

> <ConfOneFourInteractionScore>
-0.973465 

> <ConfScore>
0.0483691 

> <ConfScorePBest>
0.00747648 

> <ConfTolerance>
1.0426 

$$$$
ADP.****
  PyMOL2.5          3D                             0

 39 41  0  0  0  0  0  0  0  0999 V2000
    0.5062   -4.0602   -2.6617 P   0  0  0  1  0  0  0  0  0  0  0  0
    0.5532   -4.1066   -1.1831 O   0  0  0  1  0  0  0  0  0  0  0  0
   -0.9784   -4.4182   -3.2024 O   0  5  0  1  0  0  0  0  0  0  0  0
    1.4231   -5.2337   -3.2993 O   0  5  0  1  0  0  0  0  0  0  0  0
    0.3092   -1.2409   -3.2492 P   0  0  0  1  0  0  0  0  0  0  0  0
    1.2146   -0.1106   -3.5543 O   0  0  0  1  0  0  0  0  0  0  0  0
   -0.9529   -1.4655   -4.2398 O   0  5  0  1  0  0  0  0  0  0  0  0
    0.9483   -2.7063   -3.4064 O   0  0  0  1  0  0  0  0  0  0  0  0
   -0.2583   -1.1287   -1.7895 O   0  0  0  1  0  0  0  0  0  0  0  0
   -1.0190    0.0098   -1.3215 C   0  0  0  1  0  0  0  0  0  0  0  0
   -1.7738    0.2626   -2.0366 H   0  0  0  1  0  0  0  0  0  0  0  0
   -0.3693    0.8475   -1.1767 H   0  0  0  1  0  0  0  0  0  0  0  0
   -1.6620   -0.3760   -0.0088 C   0  0  0  1  0  0  0  0  0  0  0  0
   -2.3640   -1.1665   -0.1736 H   0  0  0  1  0  0  0  0  0  0  0  0
   -0.6907   -0.7612    0.9256 O   0  0  0  1  0  0  0  0  0  0  0  0
   -2.3493    0.8358    0.6371 C   0  0  0  1  0  0  0  0  0  0  0  0
   -1.8106    1.7379    0.4349 H   0  0  0  1  0  0  0  0  0  0  0  0
   -3.6947    0.9706    0.1768 O   0  0  0  1  0  0  0  0  0  0  0  0
   -4.2836    0.4900    0.7632 H   0  0  0  1  0  0  0  0  0  0  0  0
   -2.3086    0.4962    2.1039 C   0  0  0  1  0  0  0  0  0  0  0  0
   -2.3109    1.3825    2.7033 H   0  0  0  1  0  0  0  0  0  0  0  0
   -3.4154   -0.3294    2.4695 O   0  0  0  1  0  0  0  0  0  0  0  0
   -3.2329   -0.7564    3.3097 H   0  0  0  1  0  0  0  0  0  0  0  0
   -0.9859   -0.2621    2.2496 C   0  0  0  1  0  0  0  0  0  0  0  0
   -1.0913   -1.0716    2.9413 H   0  0  0  1  0  0  0  0  0  0  0  0
    0.0729    0.6363    2.7074 N   0  0  0  1  0  0  0  0  0  0  0  0
    0.1335    1.9859    2.5411 C   0  0  0  1  0  0  0  0  0  0  0  0
   -0.6119    2.5233    2.0540 H   0  0  0  1  0  0  0  0  0  0  0  0
    1.1975    2.5548    3.0391 N   0  0  0  1  0  0  0  0  0  0  0  0
    1.9025    1.4971    3.5921 C   0  0  0  1  0  0  0  0  0  0  0  0
    3.1151    1.3859    4.2660 C   0  0  0  1  0  0  0  0  0  0  0  0
    3.9797    2.4422    4.5672 N   0  0  0  1  0  0  0  0  0  0  0  0
    4.7882    2.2781    5.0962 H   0  0  0  1  0  0  0  0  0  0  0  0
    3.7774    3.3469    4.2493 H   0  0  0  1  0  0  0  0  0  0  0  0
    3.5346    0.1862    4.6824 N   0  0  0  1  0  0  0  0  0  0  0  0
    2.7617   -0.8784    4.4156 C   0  0  0  1  0  0  0  0  0  0  0  0
    3.1244   -1.7932    4.7520 H   0  0  0  1  0  0  0  0  0  0  0  0
    1.5969   -0.9211    3.7804 N   0  0  0  1  0  0  0  0  0  0  0  0
    1.2103    0.2950    3.3927 C   0  0  0  1  0  0  0  0  0  0  0  0
  1  2  2  0  0  0  0
  1  3  1  0  0  0  0
  1  4  1  0  0  0  0
  1  8  1  0  0  0  0
  5  6  2  0  0  0  0
  5  7  1  0  0  0  0
  5  8  1  0  0  0  0
  5  9  1  0  0  0  0
  9 10  1  0  0  0  0
 10 11  1  0  0  0  0
 10 12  1  0  0  0  0
 10 13  1  0  0  0  0
 13 14  1  0  0  0  0
 13 15  1  0  0  0  0
 13 16  1  0  0  0  0
 15 24  1  0  0  0  0
 16 17  1  0  0  0  0
 16 18  1  0  0  0  0
 16 20  1  0  0  0  0
 18 19  1  0  0  0  0
 20 21  1  0  0  0  0
 20 22  1  0  0  0  0
 20 24  1  0  0  0  0
 22 23  1  0  0  0  0
 24 25  1  0  0  0  0
 24 26  1  0  0  0  0
 26 27  1  0  0  0  0
 26 39  1  0  0  0  0
 27 28  1  0  0  0  0
 27 29  2  0  0  0  0
 29 30  1  0  0  0  0
 30 31  1  0  0  0  0
 30 39  2  0  0  0  0
 31 32  1  0  0  0  0
 31 35  2  0  0  0  0
 32 33  1  0  0  0  0
 32 34  1  0  0  0  0
 35 36  1  0  0  0  0
 36 37  1  0  0  0  0
 36 38  2  0  0  0  0
 38 39  1  0  0  0  0
M  END
> <ConfClashScore>
0 

> <ConfOneFourInteractionScore>
-0.977602 

> <ConfScore>
0.0501696 

> <ConfScorePBest>
0.00737347 

> <ConfTolerance>
1.19242 

$$$$
ADP.****
  PyMOL2.5          3D                             0

 39 41  0  0  0  0  0  0  0  0999 V2000
    0.7198    2.4106   -2.9962 P   0  0  0  1  0  0  0  0  0  0  0  0
    1.7967    3.2622   -3.5490 O   0  0  0  1  0  0  0  0  0  0  0  0
   -0.7493    2.9739   -3.3817 O   0  5  0  1  0  0  0  0  0  0  0  0
    0.8754    2.2274   -1.3941 O   0  5  0  1  0  0  0  0  0  0  0  0
   -0.0403   -0.4115   -3.4852 P   0  0  0  1  0  0  0  0  0  0  0  0
   -1.2932   -0.3727   -4.2720 O   0  0  0  1  0  0  0  0  0  0  0  0
    0.9386   -1.6852   -3.6946 O   0  5  0  1  0  0  0  0  0  0  0  0
    0.7652    0.9647   -3.6787 O   0  0  0  1  0  0  0  0  0  0  0  0
   -0.3459   -0.5351   -1.9465 O   0  0  0  1  0  0  0  0  0  0  0  0
   -1.3102    0.3355   -1.3094 C   0  0  0  1  0  0  0  0  0  0  0  0
   -2.2026    0.3833   -1.8979 H   0  0  0  1  0  0  0  0  0  0  0  0
   -0.8997    1.3178   -1.2027 H   0  0  0  1  0  0  0  0  0  0  0  0
   -1.6180   -0.2359    0.0355 C   0  0  0  1  0  0  0  0  0  0  0  0
   -2.0647   -1.2013   -0.0804 H   0  0  0  1  0  0  0  0  0  0  0  0
   -0.4195   -0.3226    0.8381 O   0  0  0  1  0  0  0  0  0  0  0  0
   -2.5541    0.7055    0.8255 C   0  0  0  1  0  0  0  0  0  0  0  0
   -2.4657    1.7121    0.4735 H   0  0  0  1  0  0  0  0  0  0  0  0
   -3.9129    0.2793    0.7149 O   0  0  0  1  0  0  0  0  0  0  0  0
   -4.0618   -0.0935   -0.1572 H   0  0  0  1  0  0  0  0  0  0  0  0
   -2.0594    0.5893    2.2865 C   0  0  0  1  0  0  0  0  0  0  0  0
   -1.7300    1.5391    2.6531 H   0  0  0  1  0  0  0  0  0  0  0  0
   -3.0923    0.0834    3.1334 O   0  0  0  1  0  0  0  0  0  0  0  0
   -3.9484    0.2696    2.7409 H   0  0  0  1  0  0  0  0  0  0  0  0
   -0.8813   -0.4055    2.2036 C   0  0  0  1  0  0  0  0  0  0  0  0
   -1.2106   -1.3982    2.4297 H   0  0  0  1  0  0  0  0  0  0  0  0
    0.1831   -0.0208    3.1309 N   0  0  0  1  0  0  0  0  0  0  0  0
    0.4855    1.2357    3.5581 C   0  0  0  1  0  0  0  0  0  0  0  0
   -0.0474    2.0742    3.2507 H   0  0  0  1  0  0  0  0  0  0  0  0
    1.4946    1.3090    4.3828 N   0  0  0  1  0  0  0  0  0  0  0  0
    1.8942   -0.0108    4.5249 C   0  0  0  1  0  0  0  0  0  0  0  0
    2.9043   -0.6472    5.2402 C   0  0  0  1  0  0  0  0  0  0  0  0
    3.7991    0.0295    6.0430 N   0  0  0  1  0  0  0  0  0  0  0  0
    3.7318    1.0024    6.1399 H   0  0  0  1  0  0  0  0  0  0  0  0
    4.5020   -0.4627    6.5164 H   0  0  0  1  0  0  0  0  0  0  0  0
    3.0354   -1.9759    5.1630 N   0  0  0  1  0  0  0  0  0  0  0  0
    2.1815   -2.6478    4.3747 C   0  0  0  1  0  0  0  0  0  0  0  0
    2.3187   -3.6781    4.3383 H   0  0  0  1  0  0  0  0  0  0  0  0
    1.1856   -2.1749    3.6355 N   0  0  0  1  0  0  0  0  0  0  0  0
    1.0827   -0.8500    3.7498 C   0  0  0  1  0  0  0  0  0  0  0  0
  1  2  2  0  0  0  0
  1  3  1  0  0  0  0
  1  4  1  0  0  0  0
  1  8  1  0  0  0  0
  5  6  2  0  0  0  0
  5  7  1  0  0  0  0
  5  8  1  0  0  0  0
  5  9  1  0  0  0  0
  9 10  1  0  0  0  0
 10 11  1  0  0  0  0
 10 12  1  0  0  0  0
 10 13  1  0  0  0  0
 13 14  1  0  0  0  0
 13 15  1  0  0  0  0
 13 16  1  0  0  0  0
 15 24  1  0  0  0  0
 16 17  1  0  0  0  0
 16 18  1  0  0  0  0
 16 20  1  0  0  0  0
 18 19  1  0  0  0  0
 20 21  1  0  0  0  0
 20 22  1  0  0  0  0
 20 24  1  0  0  0  0
 22 23  1  0  0  0  0
 24 25  1  0  0  0  0
 24 26  1  0  0  0  0
 26 27  1  0  0  0  0
 26 39  1  0  0  0  0
 27 28  1  0  0  0  0
 27 29  2  0  0  0  0
 29 30  1  0  0  0  0
 30 31  1  0  0  0  0
 30 39  2  0  0  0  0
 31 32  1  0  0  0  0
 31 35  2  0  0  0  0
 32 33  1  0  0  0  0
 32 34  1  0  0  0  0
 35 36  1  0  0  0  0
 36 37  1  0  0  0  0
 36 38  2  0  0  0  0
 38 39  1  0  0  0  0
M  END
> <ConfClashScore>
0 

> <ConfOneFourInteractionScore>
-0.977602 

> <ConfScore>
0.0502779 

> <ConfScorePBest>
0.00727047 

> <ConfTolerance>
1.152 

$$$$
ADP.****
  PyMOL2.5          3D                             0

 39 41  0  0  0  0  0  0  0  0999 V2000
    1.6651    2.7150   -2.8897 P   0  0  0  1  0  0  0  0  0  0  0  0
    2.4543    3.3346   -3.9777 O   0  0  0  1  0  0  0  0  0  0  0  0
    1.7032    3.5110   -1.4793 O   0  5  0  1  0  0  0  0  0  0  0  0
    2.2310    1.2093   -2.6973 O   0  5  0  1  0  0  0  0  0  0  0  0
   -1.3115    2.9091   -2.6076 P   0  0  0  1  0  0  0  0  0  0  0  0
   -1.2677    4.0621   -1.6808 O   0  0  0  1  0  0  0  0  0  0  0  0
   -2.3805    2.9938   -3.8219 O   0  5  0  1  0  0  0  0  0  0  0  0
    0.1038    2.5948   -3.2886 O   0  0  0  1  0  0  0  0  0  0  0  0
   -1.6347    1.6053   -1.7946 O   0  0  0  1  0  0  0  0  0  0  0  0
   -0.7627    1.0761   -0.7679 C   0  0  0  1  0  0  0  0  0  0  0  0
   -0.5562    1.8434   -0.0512 H   0  0  0  1  0  0  0  0  0  0  0  0
    0.1526    0.7506   -1.2165 H   0  0  0  1  0  0  0  0  0  0  0  0
   -1.4186   -0.0936   -0.0699 C   0  0  0  1  0  0  0  0  0  0  0  0
   -1.7034   -0.8278   -0.7943 H   0  0  0  1  0  0  0  0  0  0  0  0
   -0.5115   -0.6699    0.8883 O   0  0  0  1  0  0  0  0  0  0  0  0
   -2.6360    0.3763    0.7023 C   0  0  0  1  0  0  0  0  0  0  0  0
   -3.0104    1.2978    0.3079 H   0  0  0  1  0  0  0  0  0  0  0  0
   -3.6710   -0.6077    0.6793 O   0  0  0  1  0  0  0  0  0  0  0  0
   -4.4776   -0.2164    0.3359 H   0  0  0  1  0  0  0  0  0  0  0  0
   -2.0906    0.5640    2.1079 C   0  0  0  1  0  0  0  0  0  0  0  0
   -1.6212    1.5190    2.2196 H   0  0  0  1  0  0  0  0  0  0  0  0
   -3.1258    0.4199    3.0948 O   0  0  0  1  0  0  0  0  0  0  0  0
   -3.4394    1.2878    3.3594 H   0  0  0  1  0  0  0  0  0  0  0  0
   -1.0775   -0.5648    2.1995 C   0  0  0  1  0  0  0  0  0  0  0  0
   -1.5595   -1.4798    2.4742 H   0  0  0  1  0  0  0  0  0  0  0  0
   -0.0408   -0.2449    3.1814 N   0  0  0  1  0  0  0  0  0  0  0  0
    1.2977   -0.0425    3.0393 C   0  0  0  1  0  0  0  0  0  0  0  0
    1.7760   -0.0929    2.1172 H   0  0  0  1  0  0  0  0  0  0  0  0
    1.9357    0.2195    4.1475 N   0  0  0  1  0  0  0  0  0  0  0  0
    0.9376    0.1989    5.1093 C   0  0  0  1  0  0  0  0  0  0  0  0
    0.9151    0.3841    6.4885 C   0  0  0  1  0  0  0  0  0  0  0  0
    2.1018    0.6583    7.1362 N   0  0  0  1  0  0  0  0  0  0  0  0
    2.1039    0.8386    8.0995 H   0  0  0  1  0  0  0  0  0  0  0  0
    2.9427    0.6728    6.6331 H   0  0  0  1  0  0  0  0  0  0  0  0
   -0.2432    0.2936    7.1508 N   0  0  0  1  0  0  0  0  0  0  0  0
   -1.3503    0.0094    6.4467 C   0  0  0  1  0  0  0  0  0  0  0  0
   -2.2295   -0.0565    6.9982 H   0  0  0  1  0  0  0  0  0  0  0  0
   -1.4743   -0.1988    5.1417 N   0  0  0  1  0  0  0  0  0  0  0  0
   -0.3002   -0.0884    4.5185 C   0  0  0  1  0  0  0  0  0  0  0  0
  1  2  2  0  0  0  0
  1  3  1  0  0  0  0
  1  4  1  0  0  0  0
  1  8  1  0  0  0  0
  5  6  2  0  0  0  0
  5  7  1  0  0  0  0
  5  8  1  0  0  0  0
  5  9  1  0  0  0  0
  9 10  1  0  0  0  0
 10 11  1  0  0  0  0
 10 12  1  0  0  0  0
 10 13  1  0  0  0  0
 13 14  1  0  0  0  0
 13 15  1  0  0  0  0
 13 16  1  0  0  0  0
 15 24  1  0  0  0  0
 16 17  1  0  0  0  0
 16 18  1  0  0  0  0
 16 20  1  0  0  0  0
 18 19  1  0  0  0  0
 20 21  1  0  0  0  0
 20 22  1  0  0  0  0
 20 24  1  0  0  0  0
 22 23  1  0  0  0  0
 24 25  1  0  0  0  0
 24 26  1  0  0  0  0
 26 27  1  0  0  0  0
 26 39  1  0  0  0  0
 27 28  1  0  0  0  0
 27 29  2  0  0  0  0
 29 30  1  0  0  0  0
 30 31  1  0  0  0  0
 30 39  2  0  0  0  0
 31 32  1  0  0  0  0
 31 35  2  0  0  0  0
 32 33  1  0  0  0  0
 32 34  1  0  0  0  0
 35 36  1  0  0  0  0
 36 37  1  0  0  0  0
 36 38  2  0  0  0  0
 38 39  1  0  0  0  0
M  END
> <ConfClashScore>
0 

> <ConfOneFourInteractionScore>
-0.982876 

> <ConfScore>
0.0571743 

> <ConfScorePBest>
0.00716747 

> <ConfTolerance>
1.14859 

$$$$
ADP.****
  PyMOL2.5          3D                             0

 39 41  0  0  0  0  0  0  0  0999 V2000
    1.7537    1.0292   -2.0987 P   0  0  0  1  0  0  0  0  0  0  0  0
    1.2714    0.4036   -0.8472 O   0  0  0  1  0  0  0  0  0  0  0  0
    3.3220    1.3899   -2.2854 O   0  5  0  1  0  0  0  0  0  0  0  0
    0.9825    2.4098   -2.4504 O   0  5  0  1  0  0  0  0  0  0  0  0
   -0.0180   -0.8680   -3.4249 P   0  0  0  1  0  0  0  0  0  0  0  0
   -1.0126   -0.1438   -4.2475 O   0  0  0  1  0  0  0  0  0  0  0  0
    0.3586   -2.3378   -3.9927 O   0  5  0  1  0  0  0  0  0  0  0  0
    1.3157    0.0147   -3.2606 O   0  0  0  1  0  0  0  0  0  0  0  0
   -0.5156   -1.0121   -1.9391 O   0  0  0  1  0  0  0  0  0  0  0  0
   -1.2681    0.0514   -1.3001 C   0  0  0  1  0  0  0  0  0  0  0  0
   -2.1092    0.3042   -1.9112 H   0  0  0  1  0  0  0  0  0  0  0  0
   -0.6386    0.9092   -1.1864 H   0  0  0  1  0  0  0  0  0  0  0  0
   -1.7565   -0.3915    0.0606 C   0  0  0  1  0  0  0  0  0  0  0  0
   -2.4271   -1.2176   -0.0522 H   0  0  0  1  0  0  0  0  0  0  0  0
   -0.6463   -0.7538    0.9020 O   0  0  0  1  0  0  0  0  0  0  0  0
   -2.4383    0.7505    0.7762 C   0  0  0  1  0  0  0  0  0  0  0  0
   -1.9756    1.6863    0.5413 H   0  0  0  1  0  0  0  0  0  0  0  0
   -3.8274    0.8101    0.4490 O   0  0  0  1  0  0  0  0  0  0  0  0
   -3.9456    0.6156   -0.4836 H   0  0  0  1  0  0  0  0  0  0  0  0
   -2.2338    0.3889    2.2268 C   0  0  0  1  0  0  0  0  0  0  0  0
   -2.2463    1.2625    2.8445 H   0  0  0  1  0  0  0  0  0  0  0  0
   -3.2378   -0.5243    2.6722 O   0  0  0  1  0  0  0  0  0  0  0  0
   -3.5890   -0.2283    3.5151 H   0  0  0  1  0  0  0  0  0  0  0  0
   -0.8667   -0.2620    2.2369 C   0  0  0  1  0  0  0  0  0  0  0  0
   -0.8460   -1.0701    2.9380 H   0  0  0  1  0  0  0  0  0  0  0  0
    0.1585    0.7182    2.5915 N   0  0  0  1  0  0  0  0  0  0  0  0
    0.9840    0.6431    3.6712 C   0  0  0  1  0  0  0  0  0  0  0  0
    0.8823   -0.0889    4.4030 H   0  0  0  1  0  0  0  0  0  0  0  0
    1.9128    1.5589    3.7190 N   0  0  0  1  0  0  0  0  0  0  0  0
    1.6945    2.3029    2.5699 C   0  0  0  1  0  0  0  0  0  0  0  0
    2.3034    3.4209    2.0075 C   0  0  0  1  0  0  0  0  0  0  0  0
    3.3856    4.1036    2.5382 N   0  0  0  1  0  0  0  0  0  0  0  0
    3.7176    4.9138    2.0980 H   0  0  0  1  0  0  0  0  0  0  0  0
    3.8193    3.7764    3.3538 H   0  0  0  1  0  0  0  0  0  0  0  0
    1.8413    3.9183    0.8552 N   0  0  0  1  0  0  0  0  0  0  0  0
    0.7837    3.3160    0.2889 C   0  0  0  1  0  0  0  0  0  0  0  0
    0.4520    3.7349   -0.6034 H   0  0  0  1  0  0  0  0  0  0  0  0
    0.1041    2.2580    0.7139 N   0  0  0  1  0  0  0  0  0  0  0  0
    0.6035    1.7872    1.8575 C   0  0  0  1  0  0  0  0  0  0  0  0
  1  2  2  0  0  0  0
  1  3  1  0  0  0  0
  1  4  1  0  0  0  0
  1  8  1  0  0  0  0
  5  6  2  0  0  0  0
  5  7  1  0  0  0  0
  5  8  1  0  0  0  0
  5  9  1  0  0  0  0
  9 10  1  0  0  0  0
 10 11  1  0  0  0  0
 10 12  1  0  0  0  0
 10 13  1  0  0  0  0
 13 14  1  0  0  0  0
 13 15  1  0  0  0  0
 13 16  1  0  0  0  0
 15 24  1  0  0  0  0
 16 17  1  0  0  0  0
 16 18  1  0  0  0  0
 16 20  1  0  0  0  0
 18 19  1  0  0  0  0
 20 21  1  0  0  0  0
 20 22  1  0  0  0  0
 20 24  1  0  0  0  0
 22 23  1  0  0  0  0
 24 25  1  0  0  0  0
 24 26  1  0  0  0  0
 26 27  1  0  0  0  0
 26 39  1  0  0  0  0
 27 28  1  0  0  0  0
 27 29  2  0  0  0  0
 29 30  1  0  0  0  0
 30 31  1  0  0  0  0
 30 39  2  0  0  0  0
 31 32  1  0  0  0  0
 31 35  2  0  0  0  0
 32 33  1  0  0  0  0
 32 34  1  0  0  0  0
 35 36  1  0  0  0  0
 36 37  1  0  0  0  0
 36 38  2  0  0  0  0
 38 39  1  0  0  0  0
M  END
> <ConfClashScore>
0 

> <ConfOneFourInteractionScore>
-0.982876 

> <ConfScore>
0.058617 

> <ConfScorePBest>
0.00706447 

> <ConfTolerance>
1.3349 

$$$$
ADP.****
  PyMOL2.5          3D                             0

 39 41  0  0  0  0  0  0  0  0999 V2000
   -0.2325    4.9915   -3.1402 P   0  0  0  1  0  0  0  0  0  0  0  0
    1.2378    5.1551   -3.1836 O   0  0  0  1  0  0  0  0  0  0  0  0
   -0.9492    5.0894   -4.5897 O   0  5  0  1  0  0  0  0  0  0  0  0
   -0.9755    6.1383   -2.2700 O   0  5  0  1  0  0  0  0  0  0  0  0
   -0.9666    2.1481   -3.1536 P   0  0  0  1  0  0  0  0  0  0  0  0
   -1.8559    2.2722   -4.3301 O   0  0  0  1  0  0  0  0  0  0  0  0
    0.4755    1.5654   -3.6067 O   0  5  0  1  0  0  0  0  0  0  0  0
   -0.6888    3.5872   -2.5069 O   0  0  0  1  0  0  0  0  0  0  0  0
   -1.5168    1.2423   -1.9905 O   0  0  0  1  0  0  0  0  0  0  0  0
   -0.6625    0.8447   -0.8923 C   0  0  0  1  0  0  0  0  0  0  0  0
   -0.4242    1.6959   -0.2894 H   0  0  0  1  0  0  0  0  0  0  0  0
    0.2396    0.4113   -1.2709 H   0  0  0  1  0  0  0  0  0  0  0  0
   -1.4173   -0.1742   -0.0692 C   0  0  0  1  0  0  0  0  0  0  0  0
   -1.7834   -0.9498   -0.7090 H   0  0  0  1  0  0  0  0  0  0  0  0
   -0.5602   -0.7285    0.9448 O   0  0  0  1  0  0  0  0  0  0  0  0
   -2.5924    0.5042    0.6773 C   0  0  0  1  0  0  0  0  0  0  0  0
   -2.8456    1.4411    0.2266 H   0  0  0  1  0  0  0  0  0  0  0  0
   -3.7438   -0.3407    0.6995 O   0  0  0  1  0  0  0  0  0  0  0  0
   -4.4915    0.1458    1.0542 H   0  0  0  1  0  0  0  0  0  0  0  0
   -2.0330    0.7031    2.0749 C   0  0  0  1  0  0  0  0  0  0  0  0
   -1.5108    1.6338    2.1529 H   0  0  0  1  0  0  0  0  0  0  0  0
   -3.0694    0.6541    3.0566 O   0  0  0  1  0  0  0  0  0  0  0  0
   -3.7795    0.0883    2.7450 H   0  0  0  1  0  0  0  0  0  0  0  0
   -1.0714   -0.4865    2.2238 C   0  0  0  1  0  0  0  0  0  0  0  0
   -1.5965   -1.3466    2.5835 H   0  0  0  1  0  0  0  0  0  0  0  0
    0.0114   -0.1527    3.1497 N   0  0  0  1  0  0  0  0  0  0  0  0
   -0.0253   -0.2058    4.5094 C   0  0  0  1  0  0  0  0  0  0  0  0
   -0.8695   -0.5112    5.0345 H   0  0  0  1  0  0  0  0  0  0  0  0
    1.0788    0.1556    5.1045 N   0  0  0  1  0  0  0  0  0  0  0  0
    1.9269    0.4678    4.0534 C   0  0  0  1  0  0  0  0  0  0  0  0
    3.2383    0.9260    3.9679 C   0  0  0  1  0  0  0  0  0  0  0  0
    4.0163    1.1747    5.0678 N   0  0  0  1  0  0  0  0  0  0  0  0
    3.6532    1.0333    5.9670 H   0  0  0  1  0  0  0  0  0  0  0  0
    4.9360    1.4940    4.9554 H   0  0  0  1  0  0  0  0  0  0  0  0
    3.7884    1.1416    2.7681 N   0  0  0  1  0  0  0  0  0  0  0  0
    3.0346    0.9164    1.6805 C   0  0  0  1  0  0  0  0  0  0  0  0
    3.4969    1.0996    0.7670 H   0  0  0  1  0  0  0  0  0  0  0  0
    1.7789    0.4913    1.6133 N   0  0  0  1  0  0  0  0  0  0  0  0
    1.2727    0.2782    2.8288 C   0  0  0  1  0  0  0  0  0  0  0  0
  1  2  2  0  0  0  0
  1  3  1  0  0  0  0
  1  4  1  0  0  0  0
  1  8  1  0  0  0  0
  5  6  2  0  0  0  0
  5  7  1  0  0  0  0
  5  8  1  0  0  0  0
  5  9  1  0  0  0  0
  9 10  1  0  0  0  0
 10 11  1  0  0  0  0
 10 12  1  0  0  0  0
 10 13  1  0  0  0  0
 13 14  1  0  0  0  0
 13 15  1  0  0  0  0
 13 16  1  0  0  0  0
 15 24  1  0  0  0  0
 16 17  1  0  0  0  0
 16 18  1  0  0  0  0
 16 20  1  0  0  0  0
 18 19  1  0  0  0  0
 20 21  1  0  0  0  0
 20 22  1  0  0  0  0
 20 24  1  0  0  0  0
 22 23  1  0  0  0  0
 24 25  1  0  0  0  0
 24 26  1  0  0  0  0
 26 27  1  0  0  0  0
 26 39  1  0  0  0  0
 27 28  1  0  0  0  0
 27 29  2  0  0  0  0
 29 30  1  0  0  0  0
 30 31  1  0  0  0  0
 30 39  2  0  0  0  0
 31 32  1  0  0  0  0
 31 35  2  0  0  0  0
 32 33  1  0  0  0  0
 32 34  1  0  0  0  0
 35 36  1  0  0  0  0
 36 37  1  0  0  0  0
 36 38  2  0  0  0  0
 38 39  1  0  0  0  0
M  END
> <ConfClashScore>
0 

> <ConfOneFourInteractionScore>
-0.976069 

> <ConfScore>
0.0625293 

> <ConfScorePBest>
0.00696147 

> <ConfTolerance>
1.29182 

$$$$
ADP.****
  PyMOL2.5          3D                             0

 39 41  0  0  0  0  0  0  0  0999 V2000
    2.7403    0.0437   -3.6627 P   0  0  0  1  0  0  0  0  0  0  0  0
    2.3816   -0.9710   -4.6787 O   0  0  0  1  0  0  0  0  0  0  0  0
    2.8170    1.4614   -4.4428 O   0  5  0  1  0  0  0  0  0  0  0  0
    4.1107   -0.2391   -2.8465 O   0  5  0  1  0  0  0  0  0  0  0  0
    1.0040    1.4878   -1.8196 P   0  0  0  1  0  0  0  0  0  0  0  0
    2.0621    2.4024   -1.3356 O   0  0  0  1  0  0  0  0  0  0  0  0
    0.1043    2.3795   -2.8295 O   0  5  0  1  0  0  0  0  0  0  0  0
    1.5884    0.1835   -2.5560 O   0  0  0  1  0  0  0  0  0  0  0  0
    0.0236    0.8498   -0.7721 O   0  0  0  1  0  0  0  0  0  0  0  0
   -1.1475    0.0865   -1.1468 C   0  0  0  1  0  0  0  0  0  0  0  0
   -0.8589   -0.7566   -1.7389 H   0  0  0  1  0  0  0  0  0  0  0  0
   -1.8202    0.7024   -1.7063 H   0  0  0  1  0  0  0  0  0  0  0  0
   -1.8178   -0.3836    0.1286 C   0  0  0  1  0  0  0  0  0  0  0  0
   -2.5733   -1.1030   -0.1092 H   0  0  0  1  0  0  0  0  0  0  0  0
   -0.8443   -0.9507    1.0341 O   0  0  0  1  0  0  0  0  0  0  0  0
   -2.4235    0.8018    0.8861 C   0  0  0  1  0  0  0  0  0  0  0  0
   -1.9427    1.7178    0.6130 H   0  0  0  1  0  0  0  0  0  0  0  0
   -3.8148    0.9057    0.6384 O   0  0  0  1  0  0  0  0  0  0  0  0
   -4.0576    0.3153   -0.0786 H   0  0  0  1  0  0  0  0  0  0  0  0
   -2.1556    0.4600    2.3283 C   0  0  0  1  0  0  0  0  0  0  0  0
   -2.0869    1.3437    2.9278 H   0  0  0  1  0  0  0  0  0  0  0  0
   -3.1732   -0.3941    2.8528 O   0  0  0  1  0  0  0  0  0  0  0  0
   -3.9065   -0.4359    2.2346 H   0  0  0  1  0  0  0  0  0  0  0  0
   -0.8049   -0.2670    2.2572 C   0  0  0  1  0  0  0  0  0  0  0  0
   -0.7005   -0.9531    3.0717 H   0  0  0  1  0  0  0  0  0  0  0  0
    0.3031    0.6924    2.2804 N   0  0  0  1  0  0  0  0  0  0  0  0
    0.2193    1.9864    1.8665 C   0  0  0  1  0  0  0  0  0  0  0  0
   -0.6618    2.4006    1.5010 H   0  0  0  1  0  0  0  0  0  0  0  0
    1.3282    2.6682    1.9630 N   0  0  0  1  0  0  0  0  0  0  0  0
    2.2256    1.7550    2.4942 C   0  0  0  1  0  0  0  0  0  0  0  0
    3.5727    1.8071    2.8403 C   0  0  0  1  0  0  0  0  0  0  0  0
    4.3388    2.9334    2.6943 N   0  0  0  1  0  0  0  0  0  0  0  0
    5.2948    2.9069    2.9084 H   0  0  0  1  0  0  0  0  0  0  0  0
    3.9309    3.7656    2.3757 H   0  0  0  1  0  0  0  0  0  0  0  0
    4.1711    0.7209    3.3409 N   0  0  0  1  0  0  0  0  0  0  0  0
    3.4379   -0.3953    3.4770 C   0  0  0  1  0  0  0  0  0  0  0  0
    3.9402   -1.2188    3.8656 H   0  0  0  1  0  0  0  0  0  0  0  0
    2.1582   -0.5898    3.1827 N   0  0  0  1  0  0  0  0  0  0  0  0
    1.5974    0.5190    2.6979 C   0  0  0  1  0  0  0  0  0  0  0  0
  1  2  2  0  0  0  0
  1  3  1  0  0  0  0
  1  4  1  0  0  0  0
  1  8  1  0  0  0  0
  5  6  2  0  0  0  0
  5  7  1  0  0  0  0
  5  8  1  0  0  0  0
  5  9  1  0  0  0  0
  9 10  1  0  0  0  0
 10 11  1  0  0  0  0
 10 12  1  0  0  0  0
 10 13  1  0  0  0  0
 13 14  1  0  0  0  0
 13 15  1  0  0  0  0
 13 16  1  0  0  0  0
 15 24  1  0  0  0  0
 16 17  1  0  0  0  0
 16 18  1  0  0  0  0
 16 20  1  0  0  0  0
 18 19  1  0  0  0  0
 20 21  1  0  0  0  0
 20 22  1  0  0  0  0
 20 24  1  0  0  0  0
 22 23  1  0  0  0  0
 24 25  1  0  0  0  0
 24 26  1  0  0  0  0
 26 27  1  0  0  0  0
 26 39  1  0  0  0  0
 27 28  1  0  0  0  0
 27 29  2  0  0  0  0
 29 30  1  0  0  0  0
 30 31  1  0  0  0  0
 30 39  2  0  0  0  0
 31 32  1  0  0  0  0
 31 35  2  0  0  0  0
 32 33  1  0  0  0  0
 32 34  1  0  0  0  0
 35 36  1  0  0  0  0
 36 37  1  0  0  0  0
 36 38  2  0  0  0  0
 38 39  1  0  0  0  0
M  END
> <ConfClashScore>
0 

> <ConfOneFourInteractionScore>
-0.981127 

> <ConfScore>
0.0658197 

> <ConfScorePBest>
0.00685847 

> <ConfTolerance>
1.31011 

$$$$
ADP.****
  PyMOL2.5          3D                             0

 39 41  0  0  0  0  0  0  0  0999 V2000
   -4.8853   -0.8066   -4.3536 P   0  0  0  1  0  0  0  0  0  0  0  0
   -4.9227   -1.7359   -3.2023 O   0  0  0  1  0  0  0  0  0  0  0  0
   -6.2952   -0.0259   -4.5176 O   0  5  0  1  0  0  0  0  0  0  0  0
   -4.7025   -1.7415   -5.6639 O   0  5  0  1  0  0  0  0  0  0  0  0
   -2.2382    0.3214   -3.7668 P   0  0  0  1  0  0  0  0  0  0  0  0
   -1.5280   -0.8387   -4.3502 O   0  0  0  1  0  0  0  0  0  0  0  0
   -1.5939    1.7652   -4.1199 O   0  5  0  1  0  0  0  0  0  0  0  0
   -3.7446    0.3240   -4.3119 O   0  0  0  1  0  0  0  0  0  0  0  0
   -2.3233    0.1872   -2.2047 O   0  0  0  1  0  0  0  0  0  0  0  0
   -1.1538    0.1483   -1.3466 C   0  0  0  1  0  0  0  0  0  0  0  0
   -0.7399    1.1320   -1.2703 H   0  0  0  1  0  0  0  0  0  0  0  0
   -0.4273   -0.5129   -1.7709 H   0  0  0  1  0  0  0  0  0  0  0  0
   -1.5279   -0.3428    0.0335 C   0  0  0  1  0  0  0  0  0  0  0  0
   -1.9484   -1.3241   -0.0384 H   0  0  0  1  0  0  0  0  0  0  0  0
   -0.3737   -0.3461    0.9028 O   0  0  0  1  0  0  0  0  0  0  0  0
   -2.5243    0.6282    0.7051 C   0  0  0  1  0  0  0  0  0  0  0  0
   -2.4367    1.6101    0.2890 H   0  0  0  1  0  0  0  0  0  0  0  0
   -3.8669    0.1634    0.5522 O   0  0  0  1  0  0  0  0  0  0  0  0
   -4.4736    0.9026    0.6372 H   0  0  0  1  0  0  0  0  0  0  0  0
   -2.1081    0.6240    2.1949 C   0  0  0  1  0  0  0  0  0  0  0  0
   -1.8181    1.6041    2.5114 H   0  0  0  1  0  0  0  0  0  0  0  0
   -3.1619    0.1592    3.0083 O   0  0  0  1  0  0  0  0  0  0  0  0
   -3.7140   -0.4432    2.5043 H   0  0  0  1  0  0  0  0  0  0  0  0
   -0.9078   -0.3462    2.2442 C   0  0  0  1  0  0  0  0  0  0  0  0
   -1.2292   -1.3285    2.5211 H   0  0  0  1  0  0  0  0  0  0  0  0
    0.0983    0.1268    3.1996 N   0  0  0  1  0  0  0  0  0  0  0  0
   -0.0224    1.2460    3.9649 C   0  0  0  1  0  0  0  0  0  0  0  0
   -0.8623    1.8584    3.9313 H   0  0  0  1  0  0  0  0  0  0  0  0
    0.9953    1.4927    4.7441 N   0  0  0  1  0  0  0  0  0  0  0  0
    1.8651    0.4452    4.4834 C   0  0  0  1  0  0  0  0  0  0  0  0
    3.1276    0.0930    4.9513 C   0  0  0  1  0  0  0  0  0  0  0  0
    3.7651    0.8628    5.8801 N   0  0  0  1  0  0  0  0  0  0  0  0
    3.3545    1.6966    6.1907 H   0  0  0  1  0  0  0  0  0  0  0  0
    4.6336    0.5818    6.2367 H   0  0  0  1  0  0  0  0  0  0  0  0
    3.7228   -1.0108    4.4864 N   0  0  0  1  0  0  0  0  0  0  0  0
    3.0717   -1.7356    3.5630 C   0  0  0  1  0  0  0  0  0  0  0  0
    3.5692   -2.5836    3.2239 H   0  0  0  1  0  0  0  0  0  0  0  0
    1.8786   -1.5161    3.0242 N   0  0  0  1  0  0  0  0  0  0  0  0
    1.3159   -0.4143    3.5224 C   0  0  0  1  0  0  0  0  0  0  0  0
  1  2  2  0  0  0  0
  1  3  1  0  0  0  0
  1  4  1  0  0  0  0
  1  8  1  0  0  0  0
  5  6  2  0  0  0  0
  5  7  1  0  0  0  0
  5  8  1  0  0  0  0
  5  9  1  0  0  0  0
  9 10  1  0  0  0  0
 10 11  1  0  0  0  0
 10 12  1  0  0  0  0
 10 13  1  0  0  0  0
 13 14  1  0  0  0  0
 13 15  1  0  0  0  0
 13 16  1  0  0  0  0
 15 24  1  0  0  0  0
 16 17  1  0  0  0  0
 16 18  1  0  0  0  0
 16 20  1  0  0  0  0
 18 19  1  0  0  0  0
 20 21  1  0  0  0  0
 20 22  1  0  0  0  0
 20 24  1  0  0  0  0
 22 23  1  0  0  0  0
 24 25  1  0  0  0  0
 24 26  1  0  0  0  0
 26 27  1  0  0  0  0
 26 39  1  0  0  0  0
 27 28  1  0  0  0  0
 27 29  2  0  0  0  0
 29 30  1  0  0  0  0
 30 31  1  0  0  0  0
 30 39  2  0  0  0  0
 31 32  1  0  0  0  0
 31 35  2  0  0  0  0
 32 33  1  0  0  0  0
 32 34  1  0  0  0  0
 35 36  1  0  0  0  0
 36 37  1  0  0  0  0
 36 38  2  0  0  0  0
 38 39  1  0  0  0  0
M  END
> <ConfClashScore>
0 

> <ConfOneFourInteractionScore>
-0.977602 

> <ConfScore>
0.0681445 

> <ConfScorePBest>
0.00675547 

> <ConfTolerance>
1.11714 

$$$$
ADP.****
  PyMOL2.5          3D                             0

 39 41  0  0  0  0  0  0  0  0999 V2000
    0.6055    0.8294   -5.3011 P   0  0  0  1  0  0  0  0  0  0  0  0
    1.2834   -0.1800   -6.1449 O   0  0  0  1  0  0  0  0  0  0  0  0
   -0.6284    1.4543   -6.1445 O   0  5  0  1  0  0  0  0  0  0  0  0
    1.5828    2.0269   -4.8160 O   0  5  0  1  0  0  0  0  0  0  0  0
    0.3380   -0.9868   -3.0092 P   0  0  0  1  0  0  0  0  0  0  0  0
    0.9402   -2.1351   -3.7229 O   0  0  0  1  0  0  0  0  0  0  0  0
    1.6398   -0.3338   -2.2998 O   0  5  0  1  0  0  0  0  0  0  0  0
   -0.1205    0.1522   -4.0380 O   0  0  0  1  0  0  0  0  0  0  0  0
   -0.8193   -1.0884   -1.9528 O   0  0  0  1  0  0  0  0  0  0  0  0
   -1.2613    0.0357   -1.1502 C   0  0  0  1  0  0  0  0  0  0  0  0
   -1.9957    0.5827   -1.7036 H   0  0  0  1  0  0  0  0  0  0  0  0
   -0.4198    0.6664   -0.9529 H   0  0  0  1  0  0  0  0  0  0  0  0
   -1.8667   -0.3867    0.1677 C   0  0  0  1  0  0  0  0  0  0  0  0
   -2.6318   -1.1139   -0.0075 H   0  0  0  1  0  0  0  0  0  0  0  0
   -0.8505   -0.9326    1.0286 O   0  0  0  1  0  0  0  0  0  0  0  0
   -2.4249    0.7774    0.8644 C   0  0  0  1  0  0  0  0  0  0  0  0
   -1.9318    1.6738    0.5508 H   0  0  0  1  0  0  0  0  0  0  0  0
   -3.8257    0.8894    0.6083 O   0  0  0  1  0  0  0  0  0  0  0  0
   -4.0108    0.6067   -0.2902 H   0  0  0  1  0  0  0  0  0  0  0  0
   -2.1723    0.5194    2.3425 C   0  0  0  1  0  0  0  0  0  0  0  0
   -2.0758    1.4336    2.8900 H   0  0  0  1  0  0  0  0  0  0  0  0
   -3.2092   -0.2759    2.9209 O   0  0  0  1  0  0  0  0  0  0  0  0
   -3.5376   -0.8983    2.2680 H   0  0  0  1  0  0  0  0  0  0  0  0
   -0.8469   -0.2425    2.2834 C   0  0  0  1  0  0  0  0  0  0  0  0
   -0.7816   -0.9400    3.0922 H   0  0  0  1  0  0  0  0  0  0  0  0
    0.2806    0.6897    2.3497 N   0  0  0  1  0  0  0  0  0  0  0  0
    1.0347    1.1330    1.3068 C   0  0  0  1  0  0  0  0  0  0  0  0
    0.8149    0.8974    0.3179 H   0  0  0  1  0  0  0  0  0  0  0  0
    2.0545    1.8759    1.6412 N   0  0  0  1  0  0  0  0  0  0  0  0
    1.9690    1.9414    3.0232 C   0  0  0  1  0  0  0  0  0  0  0  0
    2.7315    2.5516    4.0148 C   0  0  0  1  0  0  0  0  0  0  0  0
    3.8491    3.2970    3.7458 N   0  0  0  1  0  0  0  0  0  0  0  0
    4.1415    3.4246    2.8192 H   0  0  0  1  0  0  0  0  0  0  0  0
    4.3560    3.7025    4.4799 H   0  0  0  1  0  0  0  0  0  0  0  0
    2.3784    2.4198    5.2980 N   0  0  0  1  0  0  0  0  0  0  0  0
    1.2938    1.6807    5.5797 C   0  0  0  1  0  0  0  0  0  0  0  0
    1.0548    1.5990    6.5885 H   0  0  0  1  0  0  0  0  0  0  0  0
    0.4852    1.0400    4.7444 N   0  0  0  1  0  0  0  0  0  0  0  0
    0.8655    1.2063    3.4769 C   0  0  0  1  0  0  0  0  0  0  0  0
  1  2  2  0  0  0  0
  1  3  1  0  0  0  0
  1  4  1  0  0  0  0
  1  8  1  0  0  0  0
  5  6  2  0  0  0  0
  5  7  1  0  0  0  0
  5  8  1  0  0  0  0
  5  9  1  0  0  0  0
  9 10  1  0  0  0  0
 10 11  1  0  0  0  0
 10 12  1  0  0  0  0
 10 13  1  0  0  0  0
 13 14  1  0  0  0  0
 13 15  1  0  0  0  0
 13 16  1  0  0  0  0
 15 24  1  0  0  0  0
 16 17  1  0  0  0  0
 16 18  1  0  0  0  0
 16 20  1  0  0  0  0
 18 19  1  0  0  0  0
 20 21  1  0  0  0  0
 20 22  1  0  0  0  0
 20 24  1  0  0  0  0
 22 23  1  0  0  0  0
 24 25  1  0  0  0  0
 24 26  1  0  0  0  0
 26 27  1  0  0  0  0
 26 39  1  0  0  0  0
 27 28  1  0  0  0  0
 27 29  2  0  0  0  0
 29 30  1  0  0  0  0
 30 31  1  0  0  0  0
 30 39  2  0  0  0  0
 31 32  1  0  0  0  0
 31 35  2  0  0  0  0
 32 33  1  0  0  0  0
 32 34  1  0  0  0  0
 35 36  1  0  0  0  0
 36 37  1  0  0  0  0
 36 38  2  0  0  0  0
 38 39  1  0  0  0  0
M  END
> <ConfClashScore>
0 

> <ConfOneFourInteractionScore>
-0.973465 

> <ConfScore>
0.0699777 

> <ConfScorePBest>
0.00665247 

> <ConfTolerance>
1.2411 

$$$$
ADP.****
  PyMOL2.5          3D                             0

 39 41  0  0  0  0  0  0  0  0999 V2000
   -4.6138    2.4423   -4.4293 P   0  0  0  1  0  0  0  0  0  0  0  0
   -4.9883    3.0729   -3.1439 O   0  0  0  1  0  0  0  0  0  0  0  0
   -4.0590    3.4328   -5.5850 O   0  5  0  1  0  0  0  0  0  0  0  0
   -5.9619    1.6944   -4.9269 O   0  5  0  1  0  0  0  0  0  0  0  0
   -2.1351    1.2237   -3.5905 P   0  0  0  1  0  0  0  0  0  0  0  0
   -1.1147    0.4306   -4.3118 O   0  0  0  1  0  0  0  0  0  0  0  0
   -1.7253    2.7868   -3.4745 O   0  5  0  1  0  0  0  0  0  0  0  0
   -3.6076    1.2046   -4.2322 O   0  0  0  1  0  0  0  0  0  0  0  0
   -2.3286    0.6878   -2.1146 O   0  0  0  1  0  0  0  0  0  0  0  0
   -1.1565    0.3083   -1.3557 C   0  0  0  1  0  0  0  0  0  0  0  0
   -0.5177    1.1564   -1.2234 H   0  0  0  1  0  0  0  0  0  0  0  0
   -0.6234   -0.4636   -1.8702 H   0  0  0  1  0  0  0  0  0  0  0  0
   -1.6245   -0.1978   -0.0116 C   0  0  0  1  0  0  0  0  0  0  0  0
   -2.1640   -1.1125   -0.1425 H   0  0  0  1  0  0  0  0  0  0  0  0
   -0.5024   -0.3915    0.8781 O   0  0  0  1  0  0  0  0  0  0  0  0
   -2.5064    0.8585    0.6906 C   0  0  0  1  0  0  0  0  0  0  0  0
   -2.2845    1.8404    0.3280 H   0  0  0  1  0  0  0  0  0  0  0  0
   -3.8784    0.5803    0.4904 O   0  0  0  1  0  0  0  0  0  0  0  0
   -4.0079   -0.3692    0.4343 H   0  0  0  1  0  0  0  0  0  0  0  0
   -2.1322    0.7278    2.1858 C   0  0  0  1  0  0  0  0  0  0  0  0
   -1.7284    1.6459    2.5584 H   0  0  0  1  0  0  0  0  0  0  0  0
   -3.2634    0.3600    2.9582 O   0  0  0  1  0  0  0  0  0  0  0  0
   -3.2808   -0.5937    3.0670 H   0  0  0  1  0  0  0  0  0  0  0  0
   -1.0662   -0.3893    2.2073 C   0  0  0  1  0  0  0  0  0  0  0  0
   -1.5165   -1.3348    2.4265 H   0  0  0  1  0  0  0  0  0  0  0  0
   -0.0341   -0.0967    3.2038 N   0  0  0  1  0  0  0  0  0  0  0  0
    1.2803    0.1697    2.9707 C   0  0  0  1  0  0  0  0  0  0  0  0
    1.6840    0.1965    2.0126 H   0  0  0  1  0  0  0  0  0  0  0  0
    1.9957    0.3891    4.0402 N   0  0  0  1  0  0  0  0  0  0  0  0
    1.0802    0.2674    5.0738 C   0  0  0  1  0  0  0  0  0  0  0  0
    1.1625    0.3658    6.4597 C   0  0  0  1  0  0  0  0  0  0  0  0
    2.3518    0.6439    7.0679 N   0  0  0  1  0  0  0  0  0  0  0  0
    3.1551    0.7950    6.5274 H   0  0  0  1  0  0  0  0  0  0  0  0
    2.4027    0.6924    8.0454 H   0  0  0  1  0  0  0  0  0  0  0  0
    0.0656    0.1862    7.2034 N   0  0  0  1  0  0  0  0  0  0  0  0
   -1.0836   -0.0998    6.5713 C   0  0  0  1  0  0  0  0  0  0  0  0
   -1.9123   -0.2364    7.1846 H   0  0  0  1  0  0  0  0  0  0  0  0
   -1.3050   -0.2319    5.2692 N   0  0  0  1  0  0  0  0  0  0  0  0
   -0.1900   -0.0342    4.5645 C   0  0  0  1  0  0  0  0  0  0  0  0
  1  2  2  0  0  0  0
  1  3  1  0  0  0  0
  1  4  1  0  0  0  0
  1  8  1  0  0  0  0
  5  6  2  0  0  0  0
  5  7  1  0  0  0  0
  5  8  1  0  0  0  0
  5  9  1  0  0  0  0
  9 10  1  0  0  0  0
 10 11  1  0  0  0  0
 10 12  1  0  0  0  0
 10 13  1  0  0  0  0
 13 14  1  0  0  0  0
 13 15  1  0  0  0  0
 13 16  1  0  0  0  0
 15 24  1  0  0  0  0
 16 17  1  0  0  0  0
 16 18  1  0  0  0  0
 16 20  1  0  0  0  0
 18 19  1  0  0  0  0
 20 21  1  0  0  0  0
 20 22  1  0  0  0  0
 20 24  1  0  0  0  0
 22 23  1  0  0  0  0
 24 25  1  0  0  0  0
 24 26  1  0  0  0  0
 26 27  1  0  0  0  0
 26 39  1  0  0  0  0
 27 28  1  0  0  0  0
 27 29  2  0  0  0  0
 29 30  1  0  0  0  0
 30 31  1  0  0  0  0
 30 39  2  0  0  0  0
 31 32  1  0  0  0  0
 31 35  2  0  0  0  0
 32 33  1  0  0  0  0
 32 34  1  0  0  0  0
 35 36  1  0  0  0  0
 36 37  1  0  0  0  0
 36 38  2  0  0  0  0
 38 39  1  0  0  0  0
M  END
> <ConfClashScore>
0 

> <ConfOneFourInteractionScore>
-0.973465 

> <ConfScore>
0.0705685 

> <ConfScorePBest>
0.00654947 

> <ConfTolerance>
1.08384 

$$$$
ADP.****
  PyMOL2.5          3D                             0

 39 41  0  0  0  0  0  0  0  0999 V2000
   -4.0959    3.9567   -1.7247 P   0  0  0  1  0  0  0  0  0  0  0  0
   -4.5678    3.9233   -3.1271 O   0  0  0  1  0  0  0  0  0  0  0  0
   -5.2889    3.3487   -0.8129 O   0  5  0  1  0  0  0  0  0  0  0  0
   -3.7628    5.4498   -1.1916 O   0  5  0  1  0  0  0  0  0  0  0  0
   -1.3772    2.8305   -2.0723 P   0  0  0  1  0  0  0  0  0  0  0  0
   -1.3230    2.5082   -3.5157 O   0  0  0  1  0  0  0  0  0  0  0  0
   -0.4740    4.1278   -1.7177 O   0  5  0  1  0  0  0  0  0  0  0  0
   -2.8382    3.0135   -1.4303 O   0  0  0  1  0  0  0  0  0  0  0  0
   -0.7427    1.6923   -1.1902 O   0  0  0  1  0  0  0  0  0  0  0  0
   -1.1544    0.3109   -1.3504 C   0  0  0  1  0  0  0  0  0  0  0  0
   -0.3519   -0.2478   -1.7847 H   0  0  0  1  0  0  0  0  0  0  0  0
   -2.0077    0.2701   -1.9946 H   0  0  0  1  0  0  0  0  0  0  0  0
   -1.5123   -0.2911   -0.0121 C   0  0  0  1  0  0  0  0  0  0  0  0
   -1.8725   -1.2886   -0.1540 H   0  0  0  1  0  0  0  0  0  0  0  0
   -0.3690   -0.2836    0.8715 O   0  0  0  1  0  0  0  0  0  0  0  0
   -2.5720    0.5729    0.7073 C   0  0  0  1  0  0  0  0  0  0  0  0
   -2.5391    1.5836    0.3577 H   0  0  0  1  0  0  0  0  0  0  0  0
   -3.8820    0.0408    0.5054 O   0  0  0  1  0  0  0  0  0  0  0  0
   -4.3237    0.5324   -0.1910 H   0  0  0  1  0  0  0  0  0  0  0  0
   -2.1716    0.4947    2.1994 C   0  0  0  1  0  0  0  0  0  0  0  0
   -1.9442    1.4672    2.5835 H   0  0  0  1  0  0  0  0  0  0  0  0
   -3.2174   -0.0918    2.9755 O   0  0  0  1  0  0  0  0  0  0  0  0
   -3.5412    0.5487    3.6131 H   0  0  0  1  0  0  0  0  0  0  0  0
   -0.9159   -0.4039    2.2023 C   0  0  0  1  0  0  0  0  0  0  0  0
   -1.1807   -1.4197    2.4098 H   0  0  0  1  0  0  0  0  0  0  0  0
    0.0498    0.0634    3.2004 N   0  0  0  1  0  0  0  0  0  0  0  0
    1.1674    0.8182    3.0162 C   0  0  0  1  0  0  0  0  0  0  0  0
    1.4186    1.2298    2.0947 H   0  0  0  1  0  0  0  0  0  0  0  0
    1.9002    0.9866    4.0832 N   0  0  0  1  0  0  0  0  0  0  0  0
    1.2090    0.2930    5.0644 C   0  0  0  1  0  0  0  0  0  0  0  0
    1.4263    0.0516    6.4178 C   0  0  0  1  0  0  0  0  0  0  0  0
    2.5137    0.5333    7.0977 N   0  0  0  1  0  0  0  0  0  0  0  0
    2.5926    0.3856    8.0633 H   0  0  0  1  0  0  0  0  0  0  0  0
    3.2125    1.0256    6.6185 H   0  0  0  1  0  0  0  0  0  0  0  0
    0.5478   -0.6819    7.1098 N   0  0  0  1  0  0  0  0  0  0  0  0
   -0.5159   -1.1734    6.4549 C   0  0  0  1  0  0  0  0  0  0  0  0
   -1.1730   -1.7416    7.0268 H   0  0  0  1  0  0  0  0  0  0  0  0
   -0.8424   -1.0321    5.1761 N   0  0  0  1  0  0  0  0  0  0  0  0
    0.0520   -0.2862    4.5261 C   0  0  0  1  0  0  0  0  0  0  0  0
  1  2  2  0  0  0  0
  1  3  1  0  0  0  0
  1  4  1  0  0  0  0
  1  8  1  0  0  0  0
  5  6  2  0  0  0  0
  5  7  1  0  0  0  0
  5  8  1  0  0  0  0
  5  9  1  0  0  0  0
  9 10  1  0  0  0  0
 10 11  1  0  0  0  0
 10 12  1  0  0  0  0
 10 13  1  0  0  0  0
 13 14  1  0  0  0  0
 13 15  1  0  0  0  0
 13 16  1  0  0  0  0
 15 24  1  0  0  0  0
 16 17  1  0  0  0  0
 16 18  1  0  0  0  0
 16 20  1  0  0  0  0
 18 19  1  0  0  0  0
 20 21  1  0  0  0  0
 20 22  1  0  0  0  0
 20 24  1  0  0  0  0
 22 23  1  0  0  0  0
 24 25  1  0  0  0  0
 24 26  1  0  0  0  0
 26 27  1  0  0  0  0
 26 39  1  0  0  0  0
 27 28  1  0  0  0  0
 27 29  2  0  0  0  0
 29 30  1  0  0  0  0
 30 31  1  0  0  0  0
 30 39  2  0  0  0  0
 31 32  1  0  0  0  0
 31 35  2  0  0  0  0
 32 33  1  0  0  0  0
 32 34  1  0  0  0  0
 35 36  1  0  0  0  0
 36 37  1  0  0  0  0
 36 38  2  0  0  0  0
 38 39  1  0  0  0  0
M  END
> <ConfClashScore>
0 

> <ConfOneFourInteractionScore>
-0.982586 

> <ConfScore>
0.0719191 

> <ConfScorePBest>
0.00644647 

> <ConfTolerance>
1.09816 

$$$$
ADP.****
  PyMOL2.5          3D                             0

 39 41  0  0  0  0  0  0  0  0999 V2000
   -2.6446   -3.1571   -4.0651 P   0  0  0  1  0  0  0  0  0  0  0  0
   -2.2916   -4.0517   -2.9402 O   0  0  0  1  0  0  0  0  0  0  0  0
   -4.2445   -2.9041   -4.0401 O   0  5  0  1  0  0  0  0  0  0  0  0
   -2.3288   -3.7320   -5.5464 O   0  5  0  1  0  0  0  0  0  0  0  0
   -0.4389   -1.5267   -3.3740 P   0  0  0  1  0  0  0  0  0  0  0  0
    0.3719   -2.7121   -3.7316 O   0  0  0  1  0  0  0  0  0  0  0  0
    0.1758   -0.2572   -4.1709 O   0  5  0  1  0  0  0  0  0  0  0  0
   -1.9472   -1.7043   -3.9222 O   0  0  0  1  0  0  0  0  0  0  0  0
   -0.6516   -1.2139   -1.8481 O   0  0  0  1  0  0  0  0  0  0  0  0
   -1.1867   -0.0149   -1.2399 C   0  0  0  1  0  0  0  0  0  0  0  0
   -1.9277    0.4182   -1.8787 H   0  0  0  1  0  0  0  0  0  0  0  0
   -0.4005    0.6918   -1.0745 H   0  0  0  1  0  0  0  0  0  0  0  0
   -1.8103   -0.4084    0.0782 C   0  0  0  1  0  0  0  0  0  0  0  0
   -2.5501   -1.1634   -0.0879 H   0  0  0  1  0  0  0  0  0  0  0  0
   -0.7946   -0.8820    1.0040 O   0  0  0  1  0  0  0  0  0  0  0  0
   -2.4281    0.8083    0.7658 C   0  0  0  1  0  0  0  0  0  0  0  0
   -1.8879    1.7029    0.5359 H   0  0  0  1  0  0  0  0  0  0  0  0
   -3.7994    0.9725    0.4015 O   0  0  0  1  0  0  0  0  0  0  0  0
   -3.9300    0.6692   -0.4999 H   0  0  0  1  0  0  0  0  0  0  0  0
   -2.2859    0.4384    2.2198 C   0  0  0  1  0  0  0  0  0  0  0  0
   -2.3030    1.3074    2.8438 H   0  0  0  1  0  0  0  0  0  0  0  0
   -3.3174   -0.4616    2.6273 O   0  0  0  1  0  0  0  0  0  0  0  0
   -3.1801   -0.7126    3.5437 H   0  0  0  1  0  0  0  0  0  0  0  0
   -0.9256   -0.2344    2.2520 C   0  0  0  1  0  0  0  0  0  0  0  0
   -0.8798   -0.9466    3.0493 H   0  0  0  1  0  0  0  0  0  0  0  0
    0.1328    0.7611    2.4249 N   0  0  0  1  0  0  0  0  0  0  0  0
    0.6896    1.5436    1.4602 C   0  0  0  1  0  0  0  0  0  0  0  0
    0.3892    1.5035    0.4653 H   0  0  0  1  0  0  0  0  0  0  0  0
    1.6289    2.3480    1.8778 N   0  0  0  1  0  0  0  0  0  0  0  0
    1.6991    2.0868    3.2374 C   0  0  0  1  0  0  0  0  0  0  0  0
    2.4816    2.5744    4.2800 C   0  0  0  1  0  0  0  0  0  0  0  0
    3.4414    3.5286    4.1071 N   0  0  0  1  0  0  0  0  0  0  0  0
    3.5997    3.9090    3.2179 H   0  0  0  1  0  0  0  0  0  0  0  0
    3.9726    3.8337    4.8721 H   0  0  0  1  0  0  0  0  0  0  0  0
    2.3044    2.1024    5.5188 N   0  0  0  1  0  0  0  0  0  0  0  0
    1.3737    1.1529    5.7034 C   0  0  0  1  0  0  0  0  0  0  0  0
    1.2693    0.8091    6.6793 H   0  0  0  1  0  0  0  0  0  0  0  0
    0.5686    0.5934    4.8085 N   0  0  0  1  0  0  0  0  0  0  0  0
    0.7697    1.0995    3.5909 C   0  0  0  1  0  0  0  0  0  0  0  0
  1  2  2  0  0  0  0
  1  3  1  0  0  0  0
  1  4  1  0  0  0  0
  1  8  1  0  0  0  0
  5  6  2  0  0  0  0
  5  7  1  0  0  0  0
  5  8  1  0  0  0  0
  5  9  1  0  0  0  0
  9 10  1  0  0  0  0
 10 11  1  0  0  0  0
 10 12  1  0  0  0  0
 10 13  1  0  0  0  0
 13 14  1  0  0  0  0
 13 15  1  0  0  0  0
 13 16  1  0  0  0  0
 15 24  1  0  0  0  0
 16 17  1  0  0  0  0
 16 18  1  0  0  0  0
 16 20  1  0  0  0  0
 18 19  1  0  0  0  0
 20 21  1  0  0  0  0
 20 22  1  0  0  0  0
 20 24  1  0  0  0  0
 22 23  1  0  0  0  0
 24 25  1  0  0  0  0
 24 26  1  0  0  0  0
 26 27  1  0  0  0  0
 26 39  1  0  0  0  0
 27 28  1  0  0  0  0
 27 29  2  0  0  0  0
 29 30  1  0  0  0  0
 30 31  1  0  0  0  0
 30 39  2  0  0  0  0
 31 32  1  0  0  0  0
 31 35  2  0  0  0  0
 32 33  1  0  0  0  0
 32 34  1  0  0  0  0
 35 36  1  0  0  0  0
 36 37  1  0  0  0  0
 36 38  2  0  0  0  0
 38 39  1  0  0  0  0
M  END
> <ConfClashScore>
0 

> <ConfOneFourInteractionScore>
-0.973465 

> <ConfScore>
0.0728322 

> <ConfScorePBest>
0.00634346 

> <ConfTolerance>
1.25242 

$$$$
ADP.****
  PyMOL2.5          3D                             0

 39 41  0  0  0  0  0  0  0  0999 V2000
    0.6036    4.4027   -0.1974 P   0  0  0  1  0  0  0  0  0  0  0  0
   -0.3690    5.4989    0.0100 O   0  0  0  1  0  0  0  0  0  0  0  0
    0.6253    3.2671    0.9578 O   0  5  0  1  0  0  0  0  0  0  0  0
    1.9598    5.2735   -0.0334 O   0  5  0  1  0  0  0  0  0  0  0  0
   -0.3165    2.5644   -2.2238 P   0  0  0  1  0  0  0  0  0  0  0  0
   -1.4885    3.1091   -2.9451 O   0  0  0  1  0  0  0  0  0  0  0  0
    0.6010    1.8399   -3.3453 O   0  5  0  1  0  0  0  0  0  0  0  0
    0.5965    3.7658   -1.6730 O   0  0  0  1  0  0  0  0  0  0  0  0
   -0.6598    1.5608   -1.0615 O   0  0  0  1  0  0  0  0  0  0  0  0
   -1.1222    0.2172   -1.3517 C   0  0  0  1  0  0  0  0  0  0  0  0
   -0.3341   -0.3774   -1.7642 H   0  0  0  1  0  0  0  0  0  0  0  0
   -1.9487    0.2359   -2.0310 H   0  0  0  1  0  0  0  0  0  0  0  0
   -1.5458   -0.3104   -0.0013 C   0  0  0  1  0  0  0  0  0  0  0  0
   -1.9607   -1.2902   -0.1147 H   0  0  0  1  0  0  0  0  0  0  0  0
   -0.4247   -0.3349    0.9102 O   0  0  0  1  0  0  0  0  0  0  0  0
   -2.5691    0.6408    0.6581 C   0  0  0  1  0  0  0  0  0  0  0  0
   -2.4686    1.6336    0.2717 H   0  0  0  1  0  0  0  0  0  0  0  0
   -3.9032    0.1782    0.4431 O   0  0  0  1  0  0  0  0  0  0  0  0
   -4.3376    0.7412   -0.2018 H   0  0  0  1  0  0  0  0  0  0  0  0
   -2.2086    0.5978    2.1618 C   0  0  0  1  0  0  0  0  0  0  0  0
   -1.9332    1.5696    2.5148 H   0  0  0  1  0  0  0  0  0  0  0  0
   -3.3060    0.1030    2.9335 O   0  0  0  1  0  0  0  0  0  0  0  0
   -2.9795   -0.2549    3.7623 H   0  0  0  1  0  0  0  0  0  0  0  0
   -1.0084   -0.3714    2.2302 C   0  0  0  1  0  0  0  0  0  0  0  0
   -1.3374   -1.3612    2.4689 H   0  0  0  1  0  0  0  0  0  0  0  0
   -0.0410    0.0774    3.2335 N   0  0  0  1  0  0  0  0  0  0  0  0
    1.2306    0.5096    3.0122 C   0  0  0  1  0  0  0  0  0  0  0  0
    1.6437    0.5678    2.0595 H   0  0  0  1  0  0  0  0  0  0  0  0
    1.8926    0.8457    4.0859 N   0  0  0  1  0  0  0  0  0  0  0  0
    0.9835    0.6277    5.1093 C   0  0  0  1  0  0  0  0  0  0  0  0
    1.0284    0.7675    6.4933 C   0  0  0  1  0  0  0  0  0  0  0  0
    2.1377    1.2108    7.1641 N   0  0  0  1  0  0  0  0  0  0  0  0
    2.0950    1.3699    8.1302 H   0  0  0  1  0  0  0  0  0  0  0  0
    2.9737    1.3688    6.6779 H   0  0  0  1  0  0  0  0  0  0  0  0
   -0.0478    0.4616    7.2259 N   0  0  0  1  0  0  0  0  0  0  0  0
   -1.1384    0.0121    6.5851 C   0  0  0  1  0  0  0  0  0  0  0  0
   -1.9523   -0.2187    7.1899 H   0  0  0  1  0  0  0  0  0  0  0  0
   -1.3182   -0.1775    5.2837 N   0  0  0  1  0  0  0  0  0  0  0  0
   -0.2270    0.1495    4.5899 C   0  0  0  1  0  0  0  0  0  0  0  0
  1  2  2  0  0  0  0
  1  3  1  0  0  0  0
  1  4  1  0  0  0  0
  1  8  1  0  0  0  0
  5  6  2  0  0  0  0
  5  7  1  0  0  0  0
  5  8  1  0  0  0  0
  5  9  1  0  0  0  0
  9 10  1  0  0  0  0
 10 11  1  0  0  0  0
 10 12  1  0  0  0  0
 10 13  1  0  0  0  0
 13 14  1  0  0  0  0
 13 15  1  0  0  0  0
 13 16  1  0  0  0  0
 15 24  1  0  0  0  0
 16 17  1  0  0  0  0
 16 18  1  0  0  0  0
 16 20  1  0  0  0  0
 18 19  1  0  0  0  0
 20 21  1  0  0  0  0
 20 22  1  0  0  0  0
 20 24  1  0  0  0  0
 22 23  1  0  0  0  0
 24 25  1  0  0  0  0
 24 26  1  0  0  0  0
 26 27  1  0  0  0  0
 26 39  1  0  0  0  0
 27 28  1  0  0  0  0
 27 29  2  0  0  0  0
 29 30  1  0  0  0  0
 30 31  1  0  0  0  0
 30 39  2  0  0  0  0
 31 32  1  0  0  0  0
 31 35  2  0  0  0  0
 32 33  1  0  0  0  0
 32 34  1  0  0  0  0
 35 36  1  0  0  0  0
 36 37  1  0  0  0  0
 36 38  2  0  0  0  0
 38 39  1  0  0  0  0
M  END
> <ConfClashScore>
0 

> <ConfOneFourInteractionScore>
-0.986061 

> <ConfScore>
0.07669 

> <ConfScorePBest>
0.00624046 

> <ConfTolerance>
1.14471 

$$$$
ADP.****
  PyMOL2.5          3D                             0

 39 41  0  0  0  0  0  0  0  0999 V2000
    0.5749    2.5243   -3.4612 P   0  0  0  1  0  0  0  0  0  0  0  0
    0.9490    2.8665   -4.8516 O   0  0  0  1  0  0  0  0  0  0  0  0
    0.4448    3.9336   -2.6730 O   0  5  0  1  0  0  0  0  0  0  0  0
    1.7251    1.7196   -2.6524 O   0  5  0  1  0  0  0  0  0  0  0  0
   -1.7470    0.6653   -3.6897 P   0  0  0  1  0  0  0  0  0  0  0  0
   -2.9394    0.9274   -4.5262 O   0  0  0  1  0  0  0  0  0  0  0  0
   -0.7117   -0.4240   -4.2947 O   0  5  0  1  0  0  0  0  0  0  0  0
   -0.8911    1.9433   -3.2566 O   0  0  0  1  0  0  0  0  0  0  0  0
   -2.0340    0.1741   -2.2262 O   0  0  0  1  0  0  0  0  0  0  0  0
   -0.9886   -0.0991   -1.2638 C   0  0  0  1  0  0  0  0  0  0  0  0
   -0.3978    0.7793   -1.1084 H   0  0  0  1  0  0  0  0  0  0  0  0
   -0.3638   -0.8915   -1.6196 H   0  0  0  1  0  0  0  0  0  0  0  0
   -1.6525   -0.5088    0.0312 C   0  0  0  1  0  0  0  0  0  0  0  0
   -2.3121   -1.3316   -0.1503 H   0  0  0  1  0  0  0  0  0  0  0  0
   -0.6554   -0.8623    1.0281 O   0  0  0  1  0  0  0  0  0  0  0  0
   -2.4142    0.6672    0.6411 C   0  0  0  1  0  0  0  0  0  0  0  0
   -1.9420    1.5994    0.4114 H   0  0  0  1  0  0  0  0  0  0  0  0
   -3.7707    0.6971    0.1950 O   0  0  0  1  0  0  0  0  0  0  0  0
   -4.1970    1.4940    0.5188 H   0  0  0  1  0  0  0  0  0  0  0  0
   -2.3260    0.3538    2.1125 C   0  0  0  1  0  0  0  0  0  0  0  0
   -2.4560    1.2356    2.7045 H   0  0  0  1  0  0  0  0  0  0  0  0
   -3.2967   -0.6228    2.4920 O   0  0  0  1  0  0  0  0  0  0  0  0
   -3.4022   -0.6157    3.4462 H   0  0  0  1  0  0  0  0  0  0  0  0
   -0.9161   -0.1931    2.2440 C   0  0  0  1  0  0  0  0  0  0  0  0
   -0.8549   -0.8749    3.0664 H   0  0  0  1  0  0  0  0  0  0  0  0
    0.0382    0.8970    2.4416 N   0  0  0  1  0  0  0  0  0  0  0  0
    0.2177    1.9858    1.6446 C   0  0  0  1  0  0  0  0  0  0  0  0
   -0.3436    2.1475    0.7842 H   0  0  0  1  0  0  0  0  0  0  0  0
    1.1475    2.8115    2.0417 N   0  0  0  1  0  0  0  0  0  0  0  0
    1.6227    2.2295    3.2065 C   0  0  0  1  0  0  0  0  0  0  0  0
    2.6109    2.5669    4.1267 C   0  0  0  1  0  0  0  0  0  0  0  0
    3.3823    3.6936    4.0156 N   0  0  0  1  0  0  0  0  0  0  0  0
    3.2607    4.2975    3.2534 H   0  0  0  1  0  0  0  0  0  0  0  0
    4.0556    3.8957    4.6984 H   0  0  0  1  0  0  0  0  0  0  0  0
    2.8381    1.7711    5.1773 N   0  0  0  1  0  0  0  0  0  0  0  0
    2.1004    0.6556    5.2931 C   0  0  0  1  0  0  0  0  0  0  0  0
    2.3101    0.0616    6.1206 H   0  0  0  1  0  0  0  0  0  0  0  0
    1.1396    0.2082    4.4940 N   0  0  0  1  0  0  0  0  0  0  0  0
    0.9375    1.0352    3.4672 C   0  0  0  1  0  0  0  0  0  0  0  0
  1  2  2  0  0  0  0
  1  3  1  0  0  0  0
  1  4  1  0  0  0  0
  1  8  1  0  0  0  0
  5  6  2  0  0  0  0
  5  7  1  0  0  0  0
  5  8  1  0  0  0  0
  5  9  1  0  0  0  0
  9 10  1  0  0  0  0
 10 11  1  0  0  0  0
 10 12  1  0  0  0  0
 10 13  1  0  0  0  0
 13 14  1  0  0  0  0
 13 15  1  0  0  0  0
 13 16  1  0  0  0  0
 15 24  1  0  0  0  0
 16 17  1  0  0  0  0
 16 18  1  0  0  0  0
 16 20  1  0  0  0  0
 18 19  1  0  0  0  0
 20 21  1  0  0  0  0
 20 22  1  0  0  0  0
 20 24  1  0  0  0  0
 22 23  1  0  0  0  0
 24 25  1  0  0  0  0
 24 26  1  0  0  0  0
 26 27  1  0  0  0  0
 26 39  1  0  0  0  0
 27 28  1  0  0  0  0
 27 29  2  0  0  0  0
 29 30  1  0  0  0  0
 30 31  1  0  0  0  0
 30 39  2  0  0  0  0
 31 32  1  0  0  0  0
 31 35  2  0  0  0  0
 32 33  1  0  0  0  0
 32 34  1  0  0  0  0
 35 36  1  0  0  0  0
 36 37  1  0  0  0  0
 36 38  2  0  0  0  0
 38 39  1  0  0  0  0
M  END
> <ConfClashScore>
0 

> <ConfOneFourInteractionScore>
-0.982876 

> <ConfScore>
0.081433 

> <ConfScorePBest>
0.00613746 

> <ConfTolerance>
1.37609 

$$$$
ADP.****
  PyMOL2.5          3D                             0

 39 41  0  0  0  0  0  0  0  0999 V2000
   -1.4804    4.4774    0.0523 P   0  0  0  1  0  0  0  0  0  0  0  0
   -1.9028    3.4547    1.0351 O   0  0  0  1  0  0  0  0  0  0  0  0
   -0.3529    5.5229    0.5625 O   0  5  0  1  0  0  0  0  0  0  0  0
   -2.6983    5.5099   -0.2217 O   0  5  0  1  0  0  0  0  0  0  0  0
   -1.7051    2.6489   -2.0940 P   0  0  0  1  0  0  0  0  0  0  0  0
   -3.1418    2.6210   -1.7398 O   0  0  0  1  0  0  0  0  0  0  0  0
   -1.2757    2.5225   -3.6510 O   0  5  0  1  0  0  0  0  0  0  0  0
   -1.0093    3.9269   -1.3941 O   0  0  0  1  0  0  0  0  0  0  0  0
   -0.9420    1.5662   -1.2508 O   0  0  0  1  0  0  0  0  0  0  0  0
   -1.2315    0.1500   -1.3328 C   0  0  0  1  0  0  0  0  0  0  0  0
   -0.3684   -0.3790   -1.6793 H   0  0  0  1  0  0  0  0  0  0  0  0
   -2.0467   -0.0170   -2.0055 H   0  0  0  1  0  0  0  0  0  0  0  0
   -1.6032   -0.3236    0.0541 C   0  0  0  1  0  0  0  0  0  0  0  0
   -2.0608   -1.2888   -0.0088 H   0  0  0  1  0  0  0  0  0  0  0  0
   -0.4371   -0.3677    0.9064 O   0  0  0  1  0  0  0  0  0  0  0  0
   -2.5528    0.6854    0.7374 C   0  0  0  1  0  0  0  0  0  0  0  0
   -2.4350    1.6624    0.3172 H   0  0  0  1  0  0  0  0  0  0  0  0
   -3.9097    0.2717    0.6060 O   0  0  0  1  0  0  0  0  0  0  0  0
   -4.3275    0.7641   -0.1043 H   0  0  0  1  0  0  0  0  0  0  0  0
   -2.1150    0.6692    2.2209 C   0  0  0  1  0  0  0  0  0  0  0  0
   -1.7842    1.6386    2.5303 H   0  0  0  1  0  0  0  0  0  0  0  0
   -3.1870    0.2404    3.0618 O   0  0  0  1  0  0  0  0  0  0  0  0
   -3.3337   -0.7004    2.9393 H   0  0  0  1  0  0  0  0  0  0  0  0
   -0.9510   -0.3448    2.2555 C   0  0  0  1  0  0  0  0  0  0  0  0
   -1.3045   -1.3138    2.5399 H   0  0  0  1  0  0  0  0  0  0  0  0
    0.0872    0.0934    3.1957 N   0  0  0  1  0  0  0  0  0  0  0  0
    0.5642   -0.5925    4.2703 C   0  0  0  1  0  0  0  0  0  0  0  0
    0.2199   -1.5398    4.5268 H   0  0  0  1  0  0  0  0  0  0  0  0
    1.4863    0.0282    4.9547 N   0  0  0  1  0  0  0  0  0  0  0  0
    1.6444    1.2257    4.2746 C   0  0  0  1  0  0  0  0  0  0  0  0
    2.4454    2.3486    4.4603 C   0  0  0  1  0  0  0  0  0  0  0  0
    3.3386    2.4672    5.4923 N   0  0  0  1  0  0  0  0  0  0  0  0
    3.4721    1.7207    6.1130 H   0  0  0  1  0  0  0  0  0  0  0  0
    3.8440    3.2986    5.6098 H   0  0  0  1  0  0  0  0  0  0  0  0
    2.3584    3.3737    3.6057 N   0  0  0  1  0  0  0  0  0  0  0  0
    1.4777    3.2793    2.5971 C   0  0  0  1  0  0  0  0  0  0  0  0
    1.4371    4.0982    1.9572 H   0  0  0  1  0  0  0  0  0  0  0  0
    0.6515    2.2820    2.3062 N   0  0  0  1  0  0  0  0  0  0  0  0
    0.7779    1.2775    3.1745 C   0  0  0  1  0  0  0  0  0  0  0  0
  1  2  2  0  0  0  0
  1  3  1  0  0  0  0
  1  4  1  0  0  0  0
  1  8  1  0  0  0  0
  5  6  2  0  0  0  0
  5  7  1  0  0  0  0
  5  8  1  0  0  0  0
  5  9  1  0  0  0  0
  9 10  1  0  0  0  0
 10 11  1  0  0  0  0
 10 12  1  0  0  0  0
 10 13  1  0  0  0  0
 13 14  1  0  0  0  0
 13 15  1  0  0  0  0
 13 16  1  0  0  0  0
 15 24  1  0  0  0  0
 16 17  1  0  0  0  0
 16 18  1  0  0  0  0
 16 20  1  0  0  0  0
 18 19  1  0  0  0  0
 20 21  1  0  0  0  0
 20 22  1  0  0  0  0
 20 24  1  0  0  0  0
 22 23  1  0  0  0  0
 24 25  1  0  0  0  0
 24 26  1  0  0  0  0
 26 27  1  0  0  0  0
 26 39  1  0  0  0  0
 27 28  1  0  0  0  0
 27 29  2  0  0  0  0
 29 30  1  0  0  0  0
 30 31  1  0  0  0  0
 30 39  2  0  0  0  0
 31 32  1  0  0  0  0
 31 35  2  0  0  0  0
 32 33  1  0  0  0  0
 32 34  1  0  0  0  0
 35 36  1  0  0  0  0
 36 37  1  0  0  0  0
 36 38  2  0  0  0  0
 38 39  1  0  0  0  0
M  END
> <ConfClashScore>
0 

> <ConfOneFourInteractionScore>
-0.979254 

> <ConfScore>
0.0848987 

> <ConfScorePBest>
0.00603446 

> <ConfTolerance>
1.65376 

$$$$
ADP.****
  PyMOL2.5          3D                             0

 39 41  0  0  0  0  0  0  0  0999 V2000
    2.3589   -2.7784   -0.6727 P   0  0  0  1  0  0  0  0  0  0  0  0
    3.2970   -2.0208    0.1854 O   0  0  0  1  0  0  0  0  0  0  0  0
    1.0982   -3.2205    0.2436 O   0  5  0  1  0  0  0  0  0  0  0  0
    3.0262   -4.1029   -1.3243 O   0  5  0  1  0  0  0  0  0  0  0  0
    1.1870   -0.5804   -2.2281 P   0  0  0  1  0  0  0  0  0  0  0  0
    1.7206    0.4360   -1.2941 O   0  0  0  1  0  0  0  0  0  0  0  0
    1.3776   -0.2569   -3.8040 O   0  5  0  1  0  0  0  0  0  0  0  0
    1.8383   -2.0250   -1.9928 O   0  0  0  1  0  0  0  0  0  0  0  0
   -0.3511   -0.8090   -2.0105 O   0  0  0  1  0  0  0  0  0  0  0  0
   -1.2066    0.1471   -1.3396 C   0  0  0  1  0  0  0  0  0  0  0  0
   -2.1055    0.2738   -1.9060 H   0  0  0  1  0  0  0  0  0  0  0  0
   -0.6964    1.0847   -1.2649 H   0  0  0  1  0  0  0  0  0  0  0  0
   -1.5577   -0.3417    0.0505 C   0  0  0  1  0  0  0  0  0  0  0  0
   -1.9836   -1.3212   -0.0124 H   0  0  0  1  0  0  0  0  0  0  0  0
   -0.3874   -0.3489    0.8981 O   0  0  0  1  0  0  0  0  0  0  0  0
   -2.5372    0.6344    0.7393 C   0  0  0  1  0  0  0  0  0  0  0  0
   -2.4531    1.6155    0.3205 H   0  0  0  1  0  0  0  0  0  0  0  0
   -3.8837    0.1754    0.6122 O   0  0  0  1  0  0  0  0  0  0  0  0
   -4.4347    0.8871    0.2782 H   0  0  0  1  0  0  0  0  0  0  0  0
   -2.0932    0.6301    2.2211 C   0  0  0  1  0  0  0  0  0  0  0  0
   -1.7932    1.6093    2.5310 H   0  0  0  1  0  0  0  0  0  0  0  0
   -3.1471    0.1649    3.0654 O   0  0  0  1  0  0  0  0  0  0  0  0
   -3.6849   -0.4699    2.5864 H   0  0  0  1  0  0  0  0  0  0  0  0
   -0.8964   -0.3452    2.2493 C   0  0  0  1  0  0  0  0  0  0  0  0
   -1.2168   -1.3258    2.5333 H   0  0  0  1  0  0  0  0  0  0  0  0
    0.1294    0.1247    3.1851 N   0  0  0  1  0  0  0  0  0  0  0  0
    0.6826    1.3671    3.2410 C   0  0  0  1  0  0  0  0  0  0  0  0
    0.4049    2.1325    2.5941 H   0  0  0  1  0  0  0  0  0  0  0  0
    1.5881    1.5254    4.1678 N   0  0  0  1  0  0  0  0  0  0  0  0
    1.6372    0.2870    4.7886 C   0  0  0  1  0  0  0  0  0  0  0  0
    2.3821   -0.2438    5.8376 C   0  0  0  1  0  0  0  0  0  0  0  0
    3.3200    0.4776    6.5282 N   0  0  0  1  0  0  0  0  0  0  0  0
    3.4337    1.4339    6.3469 H   0  0  0  1  0  0  0  0  0  0  0  0
    3.8771    0.0372    7.2036 H   0  0  0  1  0  0  0  0  0  0  0  0
    2.1930   -1.5147    6.2085 N   0  0  0  1  0  0  0  0  0  0  0  0
    1.2876   -2.2396    5.5325 C   0  0  0  1  0  0  0  0  0  0  0  0
    1.1729   -3.2238    5.8484 H   0  0  0  1  0  0  0  0  0  0  0  0
    0.5191   -1.8698    4.5154 N   0  0  0  1  0  0  0  0  0  0  0  0
    0.7307   -0.5950    4.1852 C   0  0  0  1  0  0  0  0  0  0  0  0
  1  2  2  0  0  0  0
  1  3  1  0  0  0  0
  1  4  1  0  0  0  0
  1  8  1  0  0  0  0
  5  6  2  0  0  0  0
  5  7  1  0  0  0  0
  5  8  1  0  0  0  0
  5  9  1  0  0  0  0
  9 10  1  0  0  0  0
 10 11  1  0  0  0  0
 10 12  1  0  0  0  0
 10 13  1  0  0  0  0
 13 14  1  0  0  0  0
 13 15  1  0  0  0  0
 13 16  1  0  0  0  0
 15 24  1  0  0  0  0
 16 17  1  0  0  0  0
 16 18  1  0  0  0  0
 16 20  1  0  0  0  0
 18 19  1  0  0  0  0
 20 21  1  0  0  0  0
 20 22  1  0  0  0  0
 20 24  1  0  0  0  0
 22 23  1  0  0  0  0
 24 25  1  0  0  0  0
 24 26  1  0  0  0  0
 26 27  1  0  0  0  0
 26 39  1  0  0  0  0
 27 28  1  0  0  0  0
 27 29  2  0  0  0  0
 29 30  1  0  0  0  0
 30 31  1  0  0  0  0
 30 39  2  0  0  0  0
 31 32  1  0  0  0  0
 31 35  2  0  0  0  0
 32 33  1  0  0  0  0
 32 34  1  0  0  0  0
 35 36  1  0  0  0  0
 36 37  1  0  0  0  0
 36 38  2  0  0  0  0
 38 39  1  0  0  0  0
M  END
> <ConfClashScore>
0 

> <ConfOneFourInteractionScore>
-0.977602 

> <ConfScore>
0.0893192 

> <ConfScorePBest>
0.00593146 

> <ConfTolerance>
1.57021 

$$$$
ADP.****
  PyMOL2.5          3D                             0

 39 41  0  0  0  0  0  0  0  0999 V2000
   -2.0907    3.6042   -4.5538 P   0  0  0  1  0  0  0  0  0  0  0  0
   -2.8734    4.8498   -4.3915 O   0  0  0  1  0  0  0  0  0  0  0  0
   -0.5004    3.7917   -4.7992 O   0  5  0  1  0  0  0  0  0  0  0  0
   -2.5360    2.9785   -5.9801 O   0  5  0  1  0  0  0  0  0  0  0  0
   -2.5080    0.8627   -3.5876 P   0  0  0  1  0  0  0  0  0  0  0  0
   -3.6831    0.4369   -4.3802 O   0  0  0  1  0  0  0  0  0  0  0  0
   -1.1708    0.3758   -4.3616 O   0  5  0  1  0  0  0  0  0  0  0  0
   -2.4604    2.4608   -3.4874 O   0  0  0  1  0  0  0  0  0  0  0  0
   -2.4613    0.2466   -2.1404 O   0  0  0  1  0  0  0  0  0  0  0  0
   -1.2610    0.3384   -1.3317 C   0  0  0  1  0  0  0  0  0  0  0  0
   -0.9763    1.3635   -1.2172 H   0  0  0  1  0  0  0  0  0  0  0  0
   -0.4649   -0.2033   -1.7982 H   0  0  0  1  0  0  0  0  0  0  0  0
   -1.5705   -0.2632    0.0181 C   0  0  0  1  0  0  0  0  0  0  0  0
   -1.9649   -1.2493   -0.1123 H   0  0  0  1  0  0  0  0  0  0  0  0
   -0.3860   -0.2941    0.8453 O   0  0  0  1  0  0  0  0  0  0  0  0
   -2.5695    0.6244    0.7933 C   0  0  0  1  0  0  0  0  0  0  0  0
   -2.5251    1.6364    0.4487 H   0  0  0  1  0  0  0  0  0  0  0  0
   -3.9022    0.1305    0.6518 O   0  0  0  1  0  0  0  0  0  0  0  0
   -4.1696    0.1888   -0.2683 H   0  0  0  1  0  0  0  0  0  0  0  0
   -2.0999    0.5240    2.2637 C   0  0  0  1  0  0  0  0  0  0  0  0
   -1.8269    1.4868    2.6423 H   0  0  0  1  0  0  0  0  0  0  0  0
   -3.1230   -0.0391    3.0860 O   0  0  0  1  0  0  0  0  0  0  0  0
   -3.8748    0.5572    3.1156 H   0  0  0  1  0  0  0  0  0  0  0  0
   -0.8712   -0.4092    2.2002 C   0  0  0  1  0  0  0  0  0  0  0  0
   -1.1541   -1.4187    2.4140 H   0  0  0  1  0  0  0  0  0  0  0  0
    0.1528    0.0231    3.1518 N   0  0  0  1  0  0  0  0  0  0  0  0
    0.5418    1.3022    3.4076 C   0  0  0  1  0  0  0  0  0  0  0  0
    0.2521    2.1043    2.8124 H   0  0  0  1  0  0  0  0  0  0  0  0
    1.3058    1.4461    4.4561 N   0  0  0  1  0  0  0  0  0  0  0  0
    1.4302    0.1557    4.9468 C   0  0  0  1  0  0  0  0  0  0  0  0
    2.1046   -0.4122    6.0237 C   0  0  0  1  0  0  0  0  0  0  0  0
    2.8605    0.3189    6.9017 N   0  0  0  1  0  0  0  0  0  0  0  0
    3.2581   -0.1151    7.6853 H   0  0  0  1  0  0  0  0  0  0  0  0
    3.0037    1.2758    6.7462 H   0  0  0  1  0  0  0  0  0  0  0  0
    2.0275   -1.7308    6.2335 N   0  0  0  1  0  0  0  0  0  0  0  0
    1.3023   -2.4636    5.3738 C   0  0  0  1  0  0  0  0  0  0  0  0
    1.2705   -3.4847    5.5686 H   0  0  0  1  0  0  0  0  0  0  0  0
    0.6203   -2.0609    4.3086 N   0  0  0  1  0  0  0  0  0  0  0  0
    0.7142   -0.7409    4.1423 C   0  0  0  1  0  0  0  0  0  0  0  0
  1  2  2  0  0  0  0
  1  3  1  0  0  0  0
  1  4  1  0  0  0  0
  1  8  1  0  0  0  0
  5  6  2  0  0  0  0
  5  7  1  0  0  0  0
  5  8  1  0  0  0  0
  5  9  1  0  0  0  0
  9 10  1  0  0  0  0
 10 11  1  0  0  0  0
 10 12  1  0  0  0  0
 10 13  1  0  0  0  0
 13 14  1  0  0  0  0
 13 15  1  0  0  0  0
 13 16  1  0  0  0  0
 15 24  1  0  0  0  0
 16 17  1  0  0  0  0
 16 18  1  0  0  0  0
 16 20  1  0  0  0  0
 18 19  1  0  0  0  0
 20 21  1  0  0  0  0
 20 22  1  0  0  0  0
 20 24  1  0  0  0  0
 22 23  1  0  0  0  0
 24 25  1  0  0  0  0
 24 26  1  0  0  0  0
 26 27  1  0  0  0  0
 26 39  1  0  0  0  0
 27 28  1  0  0  0  0
 27 29  2  0  0  0  0
 29 30  1  0  0  0  0
 30 31  1  0  0  0  0
 30 39  2  0  0  0  0
 31 32  1  0  0  0  0
 31 35  2  0  0  0  0
 32 33  1  0  0  0  0
 32 34  1  0  0  0  0
 35 36  1  0  0  0  0
 36 37  1  0  0  0  0
 36 38  2  0  0  0  0
 38 39  1  0  0  0  0
M  END
> <ConfClashScore>
0 

> <ConfOneFourInteractionScore>
-0.973399 

> <ConfScore>
0.0907337 

> <ConfScorePBest>
0.00582846 

> <ConfTolerance>
1.21766 

$$$$
ADP.****
  PyMOL2.5          3D                             0

 39 41  0  0  0  0  0  0  0  0999 V2000
    0.7187    1.0149   -5.6118 P   0  0  0  1  0  0  0  0  0  0  0  0
   -0.3103    0.9374   -6.6727 O   0  0  0  1  0  0  0  0  0  0  0  0
    1.4419    2.4577   -5.4715 O   0  5  0  1  0  0  0  0  0  0  0  0
    1.9454    0.0247   -5.9846 O   0  5  0  1  0  0  0  0  0  0  0  0
    0.9399   -0.0916   -2.9007 P   0  0  0  1  0  0  0  0  0  0  0  0
    1.8176   -1.2258   -3.2665 O   0  0  0  1  0  0  0  0  0  0  0  0
    1.7649    1.1722   -2.3122 O   0  5  0  1  0  0  0  0  0  0  0  0
    0.1905    0.5214   -4.1770 O   0  0  0  1  0  0  0  0  0  0  0  0
   -0.2484   -0.5133   -1.9650 O   0  0  0  1  0  0  0  0  0  0  0  0
   -1.1521    0.4385   -1.3557 C   0  0  0  1  0  0  0  0  0  0  0  0
   -2.0026    0.6008   -1.9843 H   0  0  0  1  0  0  0  0  0  0  0  0
   -0.6530    1.3691   -1.1828 H   0  0  0  1  0  0  0  0  0  0  0  0
   -1.5761   -0.1840   -0.0448 C   0  0  0  1  0  0  0  0  0  0  0  0
   -2.0230   -1.1383   -0.2306 H   0  0  0  1  0  0  0  0  0  0  0  0
   -0.4454   -0.3161    0.8453 O   0  0  0  1  0  0  0  0  0  0  0  0
   -2.5609    0.7416    0.7038 C   0  0  0  1  0  0  0  0  0  0  0  0
   -2.4339    1.7588    0.3970 H   0  0  0  1  0  0  0  0  0  0  0  0
   -3.9114    0.3386    0.4717 O   0  0  0  1  0  0  0  0  0  0  0  0
   -3.9207   -0.4555   -0.0675 H   0  0  0  1  0  0  0  0  0  0  0  0
   -2.1838    0.5662    2.1937 C   0  0  0  1  0  0  0  0  0  0  0  0
   -1.8737    1.4975    2.6196 H   0  0  0  1  0  0  0  0  0  0  0  0
   -3.2862    0.0446    2.9385 O   0  0  0  1  0  0  0  0  0  0  0  0
   -3.3723    0.5272    3.7639 H   0  0  0  1  0  0  0  0  0  0  0  0
   -1.0140   -0.4414    2.1665 C   0  0  0  1  0  0  0  0  0  0  0  0
   -1.3710   -1.4368    2.3295 H   0  0  0  1  0  0  0  0  0  0  0  0
   -0.0215   -0.1051    3.1877 N   0  0  0  1  0  0  0  0  0  0  0  0
    0.5095    1.1218    3.4440 C   0  0  0  1  0  0  0  0  0  0  0  0
    0.2353    1.9721    2.9118 H   0  0  0  1  0  0  0  0  0  0  0  0
    1.3889    1.1506    4.4082 N   0  0  0  1  0  0  0  0  0  0  0  0
    1.4431   -0.1663    4.8376 C   0  0  0  1  0  0  0  0  0  0  0  0
    2.1705   -0.8391    5.8150 C   0  0  0  1  0  0  0  0  0  0  0  0
    3.0788   -0.2179    6.6310 N   0  0  0  1  0  0  0  0  0  0  0  0
    3.2585    0.7396    6.5246 H   0  0  0  1  0  0  0  0  0  0  0  0
    3.5488   -0.7309    7.3211 H   0  0  0  1  0  0  0  0  0  0  0  0
    1.9932   -2.1536    5.9861 N   0  0  0  1  0  0  0  0  0  0  0  0
    1.1171   -2.7802    5.1850 C   0  0  0  1  0  0  0  0  0  0  0  0
    1.0109   -3.8020    5.3466 H   0  0  0  1  0  0  0  0  0  0  0  0
    0.3681   -2.2716    4.2143 N   0  0  0  1  0  0  0  0  0  0  0  0
    0.5666   -0.9591    4.0846 C   0  0  0  1  0  0  0  0  0  0  0  0
  1  2  2  0  0  0  0
  1  3  1  0  0  0  0
  1  4  1  0  0  0  0
  1  8  1  0  0  0  0
  5  6  2  0  0  0  0
  5  7  1  0  0  0  0
  5  8  1  0  0  0  0
  5  9  1  0  0  0  0
  9 10  1  0  0  0  0
 10 11  1  0  0  0  0
 10 12  1  0  0  0  0
 10 13  1  0  0  0  0
 13 14  1  0  0  0  0
 13 15  1  0  0  0  0
 13 16  1  0  0  0  0
 15 24  1  0  0  0  0
 16 17  1  0  0  0  0
 16 18  1  0  0  0  0
 16 20  1  0  0  0  0
 18 19  1  0  0  0  0
 20 21  1  0  0  0  0
 20 22  1  0  0  0  0
 20 24  1  0  0  0  0
 22 23  1  0  0  0  0
 24 25  1  0  0  0  0
 24 26  1  0  0  0  0
 26 27  1  0  0  0  0
 26 39  1  0  0  0  0
 27 28  1  0  0  0  0
 27 29  2  0  0  0  0
 29 30  1  0  0  0  0
 30 31  1  0  0  0  0
 30 39  2  0  0  0  0
 31 32  1  0  0  0  0
 31 35  2  0  0  0  0
 32 33  1  0  0  0  0
 32 34  1  0  0  0  0
 35 36  1  0  0  0  0
 36 37  1  0  0  0  0
 36 38  2  0  0  0  0
 38 39  1  0  0  0  0
M  END
> <ConfClashScore>
0 

> <ConfOneFourInteractionScore>
-0.970795 

> <ConfScore>
0.100257 

> <ConfScorePBest>
0.00572546 

> <ConfTolerance>
1.53559 

$$$$
ADP.****
  PyMOL2.5          3D                             0

 39 41  0  0  0  0  0  0  0  0999 V2000
    0.2593   -0.4573   -5.9847 P   0  0  0  1  0  0  0  0  0  0  0  0
   -0.2992    0.7107   -6.7018 O   0  0  0  1  0  0  0  0  0  0  0  0
    1.8258   -0.7521   -6.2735 O   0  5  0  1  0  0  0  0  0  0  0  0
   -0.5316   -1.8077   -6.4035 O   0  5  0  1  0  0  0  0  0  0  0  0
   -0.0828   -1.3249   -3.2001 P   0  0  0  1  0  0  0  0  0  0  0  0
   -1.3166   -2.1422   -3.1980 O   0  0  0  1  0  0  0  0  0  0  0  0
    1.2369   -2.2631   -3.2513 O   0  5  0  1  0  0  0  0  0  0  0  0
    0.0641   -0.2743   -4.4005 O   0  0  0  1  0  0  0  0  0  0  0  0
   -0.0665   -0.5793   -1.8184 O   0  0  0  1  0  0  0  0  0  0  0  0
   -1.1640    0.2373   -1.3468 C   0  0  0  1  0  0  0  0  0  0  0  0
   -1.9846    0.1750   -2.0306 H   0  0  0  1  0  0  0  0  0  0  0  0
   -0.8488    1.2561   -1.2590 H   0  0  0  1  0  0  0  0  0  0  0  0
   -1.5803   -0.2906    0.0058 C   0  0  0  1  0  0  0  0  0  0  0  0
   -2.0160   -1.2612   -0.1083 H   0  0  0  1  0  0  0  0  0  0  0  0
   -0.4481   -0.3432    0.9022 O   0  0  0  1  0  0  0  0  0  0  0  0
   -2.5758    0.6764    0.6846 C   0  0  0  1  0  0  0  0  0  0  0  0
   -2.4607    1.6694    0.3031 H   0  0  0  1  0  0  0  0  0  0  0  0
   -3.9215    0.2416    0.4843 O   0  0  0  1  0  0  0  0  0  0  0  0
   -4.2332    0.5475   -0.3706 H   0  0  0  1  0  0  0  0  0  0  0  0
   -2.1966    0.6164    2.1830 C   0  0  0  1  0  0  0  0  0  0  0  0
   -1.8974    1.5803    2.5384 H   0  0  0  1  0  0  0  0  0  0  0  0
   -3.2923    0.1389    2.9651 O   0  0  0  1  0  0  0  0  0  0  0  0
   -2.9585   -0.2850    3.7591 H   0  0  0  1  0  0  0  0  0  0  0  0
   -1.0151   -0.3767    2.2296 C   0  0  0  1  0  0  0  0  0  0  0  0
   -1.3605   -1.3614    2.4663 H   0  0  0  1  0  0  0  0  0  0  0  0
   -0.0259    0.0463    3.2228 N   0  0  0  1  0  0  0  0  0  0  0  0
    0.4122   -0.6628    4.2989 C   0  0  0  1  0  0  0  0  0  0  0  0
    0.0683   -1.6201    4.5154 H   0  0  0  1  0  0  0  0  0  0  0  0
    1.2966   -0.0508    5.0386 N   0  0  0  1  0  0  0  0  0  0  0  0
    1.4700    1.1659    4.3974 C   0  0  0  1  0  0  0  0  0  0  0  0
    2.2490    2.2919    4.6469 C   0  0  0  1  0  0  0  0  0  0  0  0
    3.0954    2.3924    5.7194 N   0  0  0  1  0  0  0  0  0  0  0  0
    3.1331    1.6724    6.3831 H   0  0  0  1  0  0  0  0  0  0  0  0
    3.6633    3.1844    5.8229 H   0  0  0  1  0  0  0  0  0  0  0  0
    2.1871    3.3383    3.8163 N   0  0  0  1  0  0  0  0  0  0  0  0
    1.3518    3.2614    2.7683 C   0  0  0  1  0  0  0  0  0  0  0  0
    1.3294    4.0965    2.1488 H   0  0  0  1  0  0  0  0  0  0  0  0
    0.5506    2.2635    2.4159 N   0  0  0  1  0  0  0  0  0  0  0  0
    0.6512    1.2378    3.2624 C   0  0  0  1  0  0  0  0  0  0  0  0
  1  2  2  0  0  0  0
  1  3  1  0  0  0  0
  1  4  1  0  0  0  0
  1  8  1  0  0  0  0
  5  6  2  0  0  0  0
  5  7  1  0  0  0  0
  5  8  1  0  0  0  0
  5  9  1  0  0  0  0
  9 10  1  0  0  0  0
 10 11  1  0  0  0  0
 10 12  1  0  0  0  0
 10 13  1  0  0  0  0
 13 14  1  0  0  0  0
 13 15  1  0  0  0  0
 13 16  1  0  0  0  0
 15 24  1  0  0  0  0
 16 17  1  0  0  0  0
 16 18  1  0  0  0  0
 16 20  1  0  0  0  0
 18 19  1  0  0  0  0
 20 21  1  0  0  0  0
 20 22  1  0  0  0  0
 20 24  1  0  0  0  0
 22 23  1  0  0  0  0
 24 25  1  0  0  0  0
 24 26  1  0  0  0  0
 26 27  1  0  0  0  0
 26 39  1  0  0  0  0
 27 28  1  0  0  0  0
 27 29  2  0  0  0  0
 29 30  1  0  0  0  0
 30 31  1  0  0  0  0
 30 39  2  0  0  0  0
 31 32  1  0  0  0  0
 31 35  2  0  0  0  0
 32 33  1  0  0  0  0
 32 34  1  0  0  0  0
 35 36  1  0  0  0  0
 36 37  1  0  0  0  0
 36 38  2  0  0  0  0
 38 39  1  0  0  0  0
M  END
> <ConfClashScore>
0 

> <ConfOneFourInteractionScore>
-0.976069 

> <ConfScore>
0.102171 

> <ConfScorePBest>
0.00562246 

> <ConfTolerance>
1.26829 

$$$$
ADP.****
  PyMOL2.5          3D                             0

 39 41  0  0  0  0  0  0  0  0999 V2000
   -0.7005   -2.0343   -4.4754 P   0  0  0  1  0  0  0  0  0  0  0  0
   -0.4066   -2.0342   -5.9259 O   0  0  0  1  0  0  0  0  0  0  0  0
    0.6040   -1.4536   -3.7103 O   0  5  0  1  0  0  0  0  0  0  0  0
   -0.8639   -3.5968   -4.0801 O   0  5  0  1  0  0  0  0  0  0  0  0
   -2.2516    0.3171   -3.6456 P   0  0  0  1  0  0  0  0  0  0  0  0
   -1.2106    1.2723   -4.0863 O   0  0  0  1  0  0  0  0  0  0  0  0
   -3.7245    0.8626   -4.0424 O   0  5  0  1  0  0  0  0  0  0  0  0
   -2.0191   -1.2089   -4.0742 O   0  0  0  1  0  0  0  0  0  0  0  0
   -2.2130    0.3240   -2.0759 O   0  0  0  1  0  0  0  0  0  0  0  0
   -1.0805   -0.1502   -1.3101 C   0  0  0  1  0  0  0  0  0  0  0  0
   -0.3337    0.6109   -1.2213 H   0  0  0  1  0  0  0  0  0  0  0  0
   -0.6517   -1.0205   -1.7611 H   0  0  0  1  0  0  0  0  0  0  0  0
   -1.6841   -0.4831    0.0517 C   0  0  0  1  0  0  0  0  0  0  0  0
   -2.3551   -1.3106   -0.0477 H   0  0  0  1  0  0  0  0  0  0  0  0
   -0.6776   -0.7692    0.9845 O   0  0  0  1  0  0  0  0  0  0  0  0
   -2.4085    0.7370    0.6386 C   0  0  0  1  0  0  0  0  0  0  0  0
   -1.9132    1.6463    0.3689 H   0  0  0  1  0  0  0  0  0  0  0  0
   -3.7680    0.7874    0.2033 O   0  0  0  1  0  0  0  0  0  0  0  0
   -4.2620    1.3896    0.7644 H   0  0  0  1  0  0  0  0  0  0  0  0
   -2.3222    0.4911    2.1221 C   0  0  0  1  0  0  0  0  0  0  0  0
   -2.3495    1.4121    2.6660 H   0  0  0  1  0  0  0  0  0  0  0  0
   -3.3847   -0.3552    2.5637 O   0  0  0  1  0  0  0  0  0  0  0  0
   -3.0186   -1.1555    2.9472 H   0  0  0  1  0  0  0  0  0  0  0  0
   -0.9656   -0.2015    2.2822 C   0  0  0  1  0  0  0  0  0  0  0  0
   -1.0216   -0.9702    3.0244 H   0  0  0  1  0  0  0  0  0  0  0  0
    0.0651    0.7680    2.6593 N   0  0  0  1  0  0  0  0  0  0  0  0
    0.7739    0.8707    3.8169 C   0  0  0  1  0  0  0  0  0  0  0  0
    0.5919    0.2615    4.6399 H   0  0  0  1  0  0  0  0  0  0  0  0
    1.6991    1.7915    3.8162 N   0  0  0  1  0  0  0  0  0  0  0  0
    1.6061    2.3441    2.5483 C   0  0  0  1  0  0  0  0  0  0  0  0
    2.2776    3.3659    1.8835 C   0  0  0  1  0  0  0  0  0  0  0  0
    3.2876    4.0929    2.4564 N   0  0  0  1  0  0  0  0  0  0  0  0
    3.7711    4.7615    1.9275 H   0  0  0  1  0  0  0  0  0  0  0  0
    3.5267    3.9444    3.3951 H   0  0  0  1  0  0  0  0  0  0  0  0
    1.9407    3.6723    0.6260 N   0  0  0  1  0  0  0  0  0  0  0  0
    0.9432    2.9788    0.0549 C   0  0  0  1  0  0  0  0  0  0  0  0
    0.7086    3.2497   -0.9214 H   0  0  0  1  0  0  0  0  0  0  0  0
    0.2160    1.9940    0.5680 N   0  0  0  1  0  0  0  0  0  0  0  0
    0.5911    1.7130    1.8167 C   0  0  0  1  0  0  0  0  0  0  0  0
  1  2  2  0  0  0  0
  1  3  1  0  0  0  0
  1  4  1  0  0  0  0
  1  8  1  0  0  0  0
  5  6  2  0  0  0  0
  5  7  1  0  0  0  0
  5  8  1  0  0  0  0
  5  9  1  0  0  0  0
  9 10  1  0  0  0  0
 10 11  1  0  0  0  0
 10 12  1  0  0  0  0
 10 13  1  0  0  0  0
 13 14  1  0  0  0  0
 13 15  1  0  0  0  0
 13 16  1  0  0  0  0
 15 24  1  0  0  0  0
 16 17  1  0  0  0  0
 16 18  1  0  0  0  0
 16 20  1  0  0  0  0
 18 19  1  0  0  0  0
 20 21  1  0  0  0  0
 20 22  1  0  0  0  0
 20 24  1  0  0  0  0
 22 23  1  0  0  0  0
 24 25  1  0  0  0  0
 24 26  1  0  0  0  0
 26 27  1  0  0  0  0
 26 39  1  0  0  0  0
 27 28  1  0  0  0  0
 27 29  2  0  0  0  0
 29 30  1  0  0  0  0
 30 31  1  0  0  0  0
 30 39  2  0  0  0  0
 31 32  1  0  0  0  0
 31 35  2  0  0  0  0
 32 33  1  0  0  0  0
 32 34  1  0  0  0  0
 35 36  1  0  0  0  0
 36 37  1  0  0  0  0
 36 38  2  0  0  0  0
 38 39  1  0  0  0  0
M  END
> <ConfClashScore>
0 

> <ConfOneFourInteractionScore>
-0.976939 

> <ConfScore>
0.104964 

> <ConfScorePBest>
0.00551946 

> <ConfTolerance>
1.40792 

$$$$
ADP.****
  PyMOL2.5          3D                             0

 39 41  0  0  0  0  0  0  0  0999 V2000
   -4.2256    3.2994   -0.9964 P   0  0  0  1  0  0  0  0  0  0  0  0
   -5.2233    2.2090   -0.9204 O   0  0  0  1  0  0  0  0  0  0  0  0
   -4.0056    3.9904    0.4522 O   0  5  0  1  0  0  0  0  0  0  0  0
   -4.6054    4.5186   -1.9933 O   0  5  0  1  0  0  0  0  0  0  0  0
   -2.4041    1.9299   -2.7682 P   0  0  0  1  0  0  0  0  0  0  0  0
   -3.5414    2.0015   -3.7126 O   0  0  0  1  0  0  0  0  0  0  0  0
   -1.0016    2.4338   -3.4035 O   0  5  0  1  0  0  0  0  0  0  0  0
   -2.7689    2.9360   -1.5702 O   0  0  0  1  0  0  0  0  0  0  0  0
   -2.1315    0.5027   -2.1680 O   0  0  0  1  0  0  0  0  0  0  0  0
   -1.0810    0.0916   -1.2617 C   0  0  0  1  0  0  0  0  0  0  0  0
   -0.4226    0.9131   -1.0704 H   0  0  0  1  0  0  0  0  0  0  0  0
   -0.5272   -0.7180   -1.6891 H   0  0  0  1  0  0  0  0  0  0  0  0
   -1.7341   -0.3545    0.0251 C   0  0  0  1  0  0  0  0  0  0  0  0
   -2.4710   -1.1004   -0.1882 H   0  0  0  1  0  0  0  0  0  0  0  0
   -0.7396   -0.8680    0.9527 O   0  0  0  1  0  0  0  0  0  0  0  0
   -2.3654    0.8342    0.7486 C   0  0  0  1  0  0  0  0  0  0  0  0
   -1.8191    1.7363    0.5677 H   0  0  0  1  0  0  0  0  0  0  0  0
   -3.7172    1.0147    0.3644 O   0  0  0  1  0  0  0  0  0  0  0  0
   -4.0855    0.1740    0.0831 H   0  0  0  1  0  0  0  0  0  0  0  0
   -2.2558    0.4044    2.1888 C   0  0  0  1  0  0  0  0  0  0  0  0
   -2.2855    1.2469    2.8477 H   0  0  0  1  0  0  0  0  0  0  0  0
   -3.2995   -0.5116    2.5369 O   0  0  0  1  0  0  0  0  0  0  0  0
   -3.6828   -0.2555    3.3790 H   0  0  0  1  0  0  0  0  0  0  0  0
   -0.8973   -0.2721    2.2232 C   0  0  0  1  0  0  0  0  0  0  0  0
   -0.8699   -1.0166    2.9912 H   0  0  0  1  0  0  0  0  0  0  0  0
    0.1576    0.7125    2.4600 N   0  0  0  1  0  0  0  0  0  0  0  0
    0.1059    2.0490    2.2075 C   0  0  0  1  0  0  0  0  0  0  0  0
   -0.6823    2.4907    1.6924 H   0  0  0  1  0  0  0  0  0  0  0  0
    1.1200    2.7346    2.6606 N   0  0  0  1  0  0  0  0  0  0  0  0
    1.9112    1.7764    3.2749 C   0  0  0  1  0  0  0  0  0  0  0  0
    3.1301    1.8092    3.9458 C   0  0  0  1  0  0  0  0  0  0  0  0
    3.8025    2.9851    4.1099 N   0  0  0  1  0  0  0  0  0  0  0  0
    4.6248    3.0091    4.6425 H   0  0  0  1  0  0  0  0  0  0  0  0
    3.4632    3.8056    3.6951 H   0  0  0  1  0  0  0  0  0  0  0  0
    3.6483    0.6775    4.4350 N   0  0  0  1  0  0  0  0  0  0  0  0
    2.9658   -0.4622    4.2422 C   0  0  0  1  0  0  0  0  0  0  0  0
    3.4036   -1.3205    4.6337 H   0  0  0  1  0  0  0  0  0  0  0  0
    1.8074   -0.6417    3.6193 N   0  0  0  1  0  0  0  0  0  0  0  0
    1.3206    0.5110    3.1575 C   0  0  0  1  0  0  0  0  0  0  0  0
  1  2  2  0  0  0  0
  1  3  1  0  0  0  0
  1  4  1  0  0  0  0
  1  8  1  0  0  0  0
  5  6  2  0  0  0  0
  5  7  1  0  0  0  0
  5  8  1  0  0  0  0
  5  9  1  0  0  0  0
  9 10  1  0  0  0  0
 10 11  1  0  0  0  0
 10 12  1  0  0  0  0
 10 13  1  0  0  0  0
 13 14  1  0  0  0  0
 13 15  1  0  0  0  0
 13 16  1  0  0  0  0
 15 24  1  0  0  0  0
 16 17  1  0  0  0  0
 16 18  1  0  0  0  0
 16 20  1  0  0  0  0
 18 19  1  0  0  0  0
 20 21  1  0  0  0  0
 20 22  1  0  0  0  0
 20 24  1  0  0  0  0
 22 23  1  0  0  0  0
 24 25  1  0  0  0  0
 24 26  1  0  0  0  0
 26 27  1  0  0  0  0
 26 39  1  0  0  0  0
 27 28  1  0  0  0  0
 27 29  2  0  0  0  0
 29 30  1  0  0  0  0
 30 31  1  0  0  0  0
 30 39  2  0  0  0  0
 31 32  1  0  0  0  0
 31 35  2  0  0  0  0
 32 33  1  0  0  0  0
 32 34  1  0  0  0  0
 35 36  1  0  0  0  0
 36 37  1  0  0  0  0
 36 38  2  0  0  0  0
 38 39  1  0  0  0  0
M  END
> <ConfClashScore>
0 

> <ConfOneFourInteractionScore>
-0.973399 

> <ConfScore>
0.110162 

> <ConfScorePBest>
0.00541646 

> <ConfTolerance>
1.78435 

$$$$
ADP.****
  PyMOL2.5          3D                             0

 39 41  0  0  0  0  0  0  0  0999 V2000
   -0.9597   -1.7142   -4.3957 P   0  0  0  1  0  0  0  0  0  0  0  0
   -1.3152   -2.1467   -3.0257 O   0  0  0  1  0  0  0  0  0  0  0  0
   -1.3920   -2.8155   -5.5023 O   0  5  0  1  0  0  0  0  0  0  0  0
    0.5752   -1.3762   -4.7882 O   0  5  0  1  0  0  0  0  0  0  0  0
   -2.0377    0.8094   -3.7100 P   0  0  0  1  0  0  0  0  0  0  0  0
   -0.8922    1.7286   -3.8925 O   0  0  0  1  0  0  0  0  0  0  0  0
   -3.4001    1.6504   -3.9573 O   0  5  0  1  0  0  0  0  0  0  0  0
   -1.9557   -0.4732   -4.6875 O   0  0  0  1  0  0  0  0  0  0  0  0
   -2.1808    0.3599   -2.2088 O   0  0  0  1  0  0  0  0  0  0  0  0
   -1.0141    0.1993   -1.3681 C   0  0  0  1  0  0  0  0  0  0  0  0
   -0.5240    1.1420   -1.2409 H   0  0  0  1  0  0  0  0  0  0  0  0
   -0.3365   -0.4981   -1.8145 H   0  0  0  1  0  0  0  0  0  0  0  0
   -1.4827   -0.3237   -0.0260 C   0  0  0  1  0  0  0  0  0  0  0  0
   -1.8862   -1.3073   -0.1470 H   0  0  0  1  0  0  0  0  0  0  0  0
   -0.3945   -0.3334    0.9247 O   0  0  0  1  0  0  0  0  0  0  0  0
   -2.5356    0.6244    0.5900 C   0  0  0  1  0  0  0  0  0  0  0  0
   -2.4287    1.6152    0.2003 H   0  0  0  1  0  0  0  0  0  0  0  0
   -3.8578    0.1503    0.3313 O   0  0  0  1  0  0  0  0  0  0  0  0
   -4.4801    0.8769    0.4111 H   0  0  0  1  0  0  0  0  0  0  0  0
   -2.2283    0.5944    2.1057 C   0  0  0  1  0  0  0  0  0  0  0  0
   -1.9726    1.5707    2.4613 H   0  0  0  1  0  0  0  0  0  0  0  0
   -3.3475    0.0972    2.8408 O   0  0  0  1  0  0  0  0  0  0  0  0
   -3.0418   -0.3039    3.6577 H   0  0  0  1  0  0  0  0  0  0  0  0
   -1.0243   -0.3653    2.2235 C   0  0  0  1  0  0  0  0  0  0  0  0
   -1.3543   -1.3559    2.4574 H   0  0  0  1  0  0  0  0  0  0  0  0
   -0.0976    0.0969    3.2556 N   0  0  0  1  0  0  0  0  0  0  0  0
    0.8735    1.0416    3.1238 C   0  0  0  1  0  0  0  0  0  0  0  0
    1.0439    1.5476    2.2313 H   0  0  0  1  0  0  0  0  0  0  0  0
    1.5747    1.2646    4.2020 N   0  0  0  1  0  0  0  0  0  0  0  0
    1.0193    0.4024    5.1345 C   0  0  0  1  0  0  0  0  0  0  0  0
    1.2847    0.1164    6.4705 C   0  0  0  1  0  0  0  0  0  0  0  0
    2.2775    0.7075    7.2443 N   0  0  0  1  0  0  0  0  0  0  0  0
    2.8022    1.4521    6.8828 H   0  0  0  1  0  0  0  0  0  0  0  0
    2.4525    0.3794    8.1510 H   0  0  0  1  0  0  0  0  0  0  0  0
    0.5494   -0.7987    7.1113 N   0  0  0  1  0  0  0  0  0  0  0  0
   -0.4197   -1.4221    6.4227 C   0  0  0  1  0  0  0  0  0  0  0  0
   -0.9659   -2.1293    6.9548 H   0  0  0  1  0  0  0  0  0  0  0  0
   -0.7750   -1.2579    5.1544 N   0  0  0  1  0  0  0  0  0  0  0  0
   -0.0258   -0.3305    4.5563 C   0  0  0  1  0  0  0  0  0  0  0  0
  1  2  2  0  0  0  0
  1  3  1  0  0  0  0
  1  4  1  0  0  0  0
  1  8  1  0  0  0  0
  5  6  2  0  0  0  0
  5  7  1  0  0  0  0
  5  8  1  0  0  0  0
  5  9  1  0  0  0  0
  9 10  1  0  0  0  0
 10 11  1  0  0  0  0
 10 12  1  0  0  0  0
 10 13  1  0  0  0  0
 13 14  1  0  0  0  0
 13 15  1  0  0  0  0
 13 16  1  0  0  0  0
 15 24  1  0  0  0  0
 16 17  1  0  0  0  0
 16 18  1  0  0  0  0
 16 20  1  0  0  0  0
 18 19  1  0  0  0  0
 20 21  1  0  0  0  0
 20 22  1  0  0  0  0
 20 24  1  0  0  0  0
 22 23  1  0  0  0  0
 24 25  1  0  0  0  0
 24 26  1  0  0  0  0
 26 27  1  0  0  0  0
 26 39  1  0  0  0  0
 27 28  1  0  0  0  0
 27 29  2  0  0  0  0
 29 30  1  0  0  0  0
 30 31  1  0  0  0  0
 30 39  2  0  0  0  0
 31 32  1  0  0  0  0
 31 35  2  0  0  0  0
 32 33  1  0  0  0  0
 32 34  1  0  0  0  0
 35 36  1  0  0  0  0
 36 37  1  0  0  0  0
 36 38  2  0  0  0  0
 38 39  1  0  0  0  0
M  END
> <ConfClashScore>
0 

> <ConfOneFourInteractionScore>
-0.980272 

> <ConfScore>
0.110444 

> <ConfScorePBest>
0.00531345 

> <ConfTolerance>
1.7764 

$$$$
ADP.****
  PyMOL2.5          3D                             0

 39 41  0  0  0  0  0  0  0  0999 V2000
    4.2908   -0.4503   -2.0652 P   0  0  0  1  0  0  0  0  0  0  0  0
    5.0165   -1.1518   -0.9828 O   0  0  0  1  0  0  0  0  0  0  0  0
    4.8243   -0.8125   -3.5514 O   0  5  0  1  0  0  0  0  0  0  0  0
    4.3953    1.1591   -1.9126 O   0  5  0  1  0  0  0  0  0  0  0  0
    1.6924   -0.1283   -0.8945 P   0  0  0  1  0  0  0  0  0  0  0  0
    1.5195   -0.9495    0.3246 O   0  0  0  1  0  0  0  0  0  0  0  0
    2.2647    1.2888   -0.3573 O   0  5  0  1  0  0  0  0  0  0  0  0
    2.6885   -0.6725   -2.0492 O   0  0  0  1  0  0  0  0  0  0  0  0
    0.3155    0.1888   -1.5871 O   0  0  0  1  0  0  0  0  0  0  0  0
   -0.7151    0.9333   -0.8875 C   0  0  0  1  0  0  0  0  0  0  0  0
   -1.3372    1.4445   -1.5922 H   0  0  0  1  0  0  0  0  0  0  0  0
   -0.2657    1.6442   -0.2261 H   0  0  0  1  0  0  0  0  0  0  0  0
   -1.5394   -0.0567   -0.0963 C   0  0  0  1  0  0  0  0  0  0  0  0
   -1.9887   -0.7617   -0.7640 H   0  0  0  1  0  0  0  0  0  0  0  0
   -0.7126   -0.7377    0.8641 O   0  0  0  1  0  0  0  0  0  0  0  0
   -2.6310    0.6831    0.7159 C   0  0  0  1  0  0  0  0  0  0  0  0
   -2.8090    1.6612    0.3204 H   0  0  0  1  0  0  0  0  0  0  0  0
   -3.8531   -0.0562    0.7275 O   0  0  0  1  0  0  0  0  0  0  0  0
   -3.6817   -0.9540    1.0213 H   0  0  0  1  0  0  0  0  0  0  0  0
   -2.0237    0.7574    2.1057 C   0  0  0  1  0  0  0  0  0  0  0  0
   -1.4181    1.6326    2.2161 H   0  0  0  1  0  0  0  0  0  0  0  0
   -3.0395    0.7489    3.1144 O   0  0  0  1  0  0  0  0  0  0  0  0
   -3.7637    0.1839    2.8352 H   0  0  0  1  0  0  0  0  0  0  0  0
   -1.1700   -0.5191    2.1675 C   0  0  0  1  0  0  0  0  0  0  0  0
   -1.7621   -1.3470    2.4978 H   0  0  0  1  0  0  0  0  0  0  0  0
   -0.0384   -0.3319    3.0802 N   0  0  0  1  0  0  0  0  0  0  0  0
    0.2323   -1.1224    4.1547 C   0  0  0  1  0  0  0  0  0  0  0  0
   -0.3555   -1.9420    4.4082 H   0  0  0  1  0  0  0  0  0  0  0  0
    1.2854   -0.7743    4.8430 N   0  0  0  1  0  0  0  0  0  0  0  0
    1.7629    0.3371    4.1660 C   0  0  0  1  0  0  0  0  0  0  0  0
    2.8364    1.2021    4.3563 C   0  0  0  1  0  0  0  0  0  0  0  0
    3.6878    1.0296    5.3994 N   0  0  0  1  0  0  0  0  0  0  0  0
    4.4706    1.6115    5.4944 H   0  0  0  1  0  0  0  0  0  0  0  0
    3.5197    0.3231    6.0575 H   0  0  0  1  0  0  0  0  0  0  0  0
    3.0320    2.2137    3.5037 N   0  0  0  1  0  0  0  0  0  0  0  0
    2.1617    2.3617    2.4924 C   0  0  0  1  0  0  0  0  0  0  0  0
    2.3457    3.1620    1.8541 H   0  0  0  1  0  0  0  0  0  0  0  0
    1.0981    1.6246    2.1970 N   0  0  0  1  0  0  0  0  0  0  0  0
    0.9461    0.6221    3.0635 C   0  0  0  1  0  0  0  0  0  0  0  0
  1  2  2  0  0  0  0
  1  3  1  0  0  0  0
  1  4  1  0  0  0  0
  1  8  1  0  0  0  0
  5  6  2  0  0  0  0
  5  7  1  0  0  0  0
  5  8  1  0  0  0  0
  5  9  1  0  0  0  0
  9 10  1  0  0  0  0
 10 11  1  0  0  0  0
 10 12  1  0  0  0  0
 10 13  1  0  0  0  0
 13 14  1  0  0  0  0
 13 15  1  0  0  0  0
 13 16  1  0  0  0  0
 15 24  1  0  0  0  0
 16 17  1  0  0  0  0
 16 18  1  0  0  0  0
 16 20  1  0  0  0  0
 18 19  1  0  0  0  0
 20 21  1  0  0  0  0
 20 22  1  0  0  0  0
 20 24  1  0  0  0  0
 22 23  1  0  0  0  0
 24 25  1  0  0  0  0
 24 26  1  0  0  0  0
 26 27  1  0  0  0  0
 26 39  1  0  0  0  0
 27 28  1  0  0  0  0
 27 29  2  0  0  0  0
 29 30  1  0  0  0  0
 30 31  1  0  0  0  0
 30 39  2  0  0  0  0
 31 32  1  0  0  0  0
 31 35  2  0  0  0  0
 32 33  1  0  0  0  0
 32 34  1  0  0  0  0
 35 36  1  0  0  0  0
 36 37  1  0  0  0  0
 36 38  2  0  0  0  0
 38 39  1  0  0  0  0
M  END
> <ConfClashScore>
0 

> <ConfOneFourInteractionScore>
-0.980272 

> <ConfScore>
0.117743 

> <ConfScorePBest>
0.00521045 

> <ConfTolerance>
1.36202 

$$$$
ADP.****
  PyMOL2.5          3D                             0

 39 41  0  0  0  0  0  0  0  0999 V2000
   -1.4415    3.8503   -4.3471 P   0  0  0  1  0  0  0  0  0  0  0  0
   -1.2785    4.8294   -3.2493 O   0  0  0  1  0  0  0  0  0  0  0  0
   -0.0043    3.8432   -5.0946 O   0  5  0  1  0  0  0  0  0  0  0  0
   -2.4964    4.3130   -5.4862 O   0  5  0  1  0  0  0  0  0  0  0  0
   -2.7362    1.5836   -2.9447 P   0  0  0  1  0  0  0  0  0  0  0  0
   -3.2126    2.4776   -1.8657 O   0  0  0  1  0  0  0  0  0  0  0  0
   -3.9840    1.1460   -3.8806 O   0  5  0  1  0  0  0  0  0  0  0  0
   -1.6426    2.3467   -3.8402 O   0  0  0  1  0  0  0  0  0  0  0  0
   -2.0802    0.2971   -2.3197 O   0  0  0  1  0  0  0  0  0  0  0  0
   -0.9887    0.4049   -1.3759 C   0  0  0  1  0  0  0  0  0  0  0  0
   -0.7184    1.4304   -1.2333 H   0  0  0  1  0  0  0  0  0  0  0  0
   -0.1385   -0.1434   -1.7242 H   0  0  0  1  0  0  0  0  0  0  0  0
   -1.5062   -0.1883   -0.0852 C   0  0  0  1  0  0  0  0  0  0  0  0
   -1.9675   -1.1327   -0.2858 H   0  0  0  1  0  0  0  0  0  0  0  0
   -0.4340   -0.3387    0.8718 O   0  0  0  1  0  0  0  0  0  0  0  0
   -2.5075    0.7732    0.5927 C   0  0  0  1  0  0  0  0  0  0  0  0
   -2.3347    1.7825    0.2820 H   0  0  0  1  0  0  0  0  0  0  0  0
   -3.8526    0.4035    0.2859 O   0  0  0  1  0  0  0  0  0  0  0  0
   -4.0823   -0.3962    0.7647 H   0  0  0  1  0  0  0  0  0  0  0  0
   -2.2238    0.6079    2.1043 C   0  0  0  1  0  0  0  0  0  0  0  0
   -1.9138    1.5362    2.5368 H   0  0  0  1  0  0  0  0  0  0  0  0
   -3.3815    0.1262    2.7883 O   0  0  0  1  0  0  0  0  0  0  0  0
   -3.2520    0.2102    3.7359 H   0  0  0  1  0  0  0  0  0  0  0  0
   -1.0826   -0.4310    2.1584 C   0  0  0  1  0  0  0  0  0  0  0  0
   -1.4759   -1.4142    2.3118 H   0  0  0  1  0  0  0  0  0  0  0  0
   -0.1431   -0.1076    3.2326 N   0  0  0  1  0  0  0  0  0  0  0  0
    0.3104   -0.9439    4.2061 C   0  0  0  1  0  0  0  0  0  0  0  0
    0.0174   -1.9398    4.2690 H   0  0  0  1  0  0  0  0  0  0  0  0
    1.1408   -0.4018    5.0549 N   0  0  0  1  0  0  0  0  0  0  0  0
    1.2584    0.9041    4.6050 C   0  0  0  1  0  0  0  0  0  0  0  0
    1.9652    2.0208    5.0412 C   0  0  0  1  0  0  0  0  0  0  0  0
    2.7796    2.0065    6.1427 N   0  0  0  1  0  0  0  0  0  0  0  0
    2.8649    1.1904    6.6785 H   0  0  0  1  0  0  0  0  0  0  0  0
    3.2770    2.8124    6.3949 H   0  0  0  1  0  0  0  0  0  0  0  0
    1.8621    3.1740    4.3716 N   0  0  0  1  0  0  0  0  0  0  0  0
    1.0568    3.2086    3.2981 C   0  0  0  1  0  0  0  0  0  0  0  0
    1.0005    4.1239    2.8075 H   0  0  0  1  0  0  0  0  0  0  0  0
    0.3229    2.2324    2.7782 N   0  0  0  1  0  0  0  0  0  0  0  0
    0.4630    1.0994    3.4678 C   0  0  0  1  0  0  0  0  0  0  0  0
  1  2  2  0  0  0  0
  1  3  1  0  0  0  0
  1  4  1  0  0  0  0
  1  8  1  0  0  0  0
  5  6  2  0  0  0  0
  5  7  1  0  0  0  0
  5  8  1  0  0  0  0
  5  9  1  0  0  0  0
  9 10  1  0  0  0  0
 10 11  1  0  0  0  0
 10 12  1  0  0  0  0
 10 13  1  0  0  0  0
 13 14  1  0  0  0  0
 13 15  1  0  0  0  0
 13 16  1  0  0  0  0
 15 24  1  0  0  0  0
 16 17  1  0  0  0  0
 16 18  1  0  0  0  0
 16 20  1  0  0  0  0
 18 19  1  0  0  0  0
 20 21  1  0  0  0  0
 20 22  1  0  0  0  0
 20 24  1  0  0  0  0
 22 23  1  0  0  0  0
 24 25  1  0  0  0  0
 24 26  1  0  0  0  0
 26 27  1  0  0  0  0
 26 39  1  0  0  0  0
 27 28  1  0  0  0  0
 27 29  2  0  0  0  0
 29 30  1  0  0  0  0
 30 31  1  0  0  0  0
 30 39  2  0  0  0  0
 31 32  1  0  0  0  0
 31 35  2  0  0  0  0
 32 33  1  0  0  0  0
 32 34  1  0  0  0  0
 35 36  1  0  0  0  0
 36 37  1  0  0  0  0
 36 38  2  0  0  0  0
 38 39  1  0  0  0  0
M  END
> <ConfClashScore>
0 

> <ConfOneFourInteractionScore>
-0.963733 

> <ConfScore>
0.120493 

> <ConfScorePBest>
0.00510745 

> <ConfTolerance>
2.03257 

$$$$
ADP.****
  PyMOL2.5          3D                             0

 39 41  0  0  0  0  0  0  0  0999 V2000
    2.4875   -0.2019   -3.1294 P   0  0  0  1  0  0  0  0  0  0  0  0
    3.0838   -0.6505   -1.8513 O   0  0  0  1  0  0  0  0  0  0  0  0
    2.0563   -1.3595   -4.1774 O   0  5  0  1  0  0  0  0  0  0  0  0
    3.4985    0.8026   -3.8996 O   0  5  0  1  0  0  0  0  0  0  0  0
    0.8870    1.8492   -1.7674 P   0  0  0  1  0  0  0  0  0  0  0  0
    1.9891    2.6264   -1.1578 O   0  0  0  1  0  0  0  0  0  0  0  0
   -0.2004    2.7076   -2.6072 O   0  5  0  1  0  0  0  0  0  0  0  0
    1.2203    0.7565   -2.8904 O   0  0  0  1  0  0  0  0  0  0  0  0
    0.0285    0.9978   -0.7656 O   0  0  0  1  0  0  0  0  0  0  0  0
   -0.9318   -0.0021   -1.1944 C   0  0  0  1  0  0  0  0  0  0  0  0
   -0.4243   -0.8122   -1.6750 H   0  0  0  1  0  0  0  0  0  0  0  0
   -1.6329    0.4342   -1.8748 H   0  0  0  1  0  0  0  0  0  0  0  0
   -1.6515   -0.5030    0.0344 C   0  0  0  1  0  0  0  0  0  0  0  0
   -2.3031   -1.3074   -0.2364 H   0  0  0  1  0  0  0  0  0  0  0  0
   -0.7027   -0.9411    1.0244 O   0  0  0  1  0  0  0  0  0  0  0  0
   -2.4414    0.6194    0.6740 C   0  0  0  1  0  0  0  0  0  0  0  0
   -2.0262    1.5724    0.4204 H   0  0  0  1  0  0  0  0  0  0  0  0
   -3.8112    0.5739    0.2719 O   0  0  0  1  0  0  0  0  0  0  0  0
   -4.1681    1.4647    0.2486 H   0  0  0  1  0  0  0  0  0  0  0  0
   -2.3033    0.3465    2.1516 C   0  0  0  1  0  0  0  0  0  0  0  0
   -2.4039    1.2457    2.7227 H   0  0  0  1  0  0  0  0  0  0  0  0
   -3.2683   -0.6094    2.5933 O   0  0  0  1  0  0  0  0  0  0  0  0
   -3.4944   -0.4364    3.5101 H   0  0  0  1  0  0  0  0  0  0  0  0
   -0.9014   -0.2078    2.2469 C   0  0  0  1  0  0  0  0  0  0  0  0
   -0.8112   -0.8568    3.0928 H   0  0  0  1  0  0  0  0  0  0  0  0
    0.0725    0.8772    2.3581 N   0  0  0  1  0  0  0  0  0  0  0  0
    1.1437    1.1092    1.5510 C   0  0  0  1  0  0  0  0  0  0  0  0
    1.4146    0.4635    0.7820 H   0  0  0  1  0  0  0  0  0  0  0  0
    1.8053    2.2031    1.8147 N   0  0  0  1  0  0  0  0  0  0  0  0
    1.1122    2.7522    2.8824 C   0  0  0  1  0  0  0  0  0  0  0  0
    1.2733    3.8961    3.6585 C   0  0  0  1  0  0  0  0  0  0  0  0
    2.3437    4.7738    3.5252 N   0  0  0  1  0  0  0  0  0  0  0  0
    2.3897    5.5787    4.0824 H   0  0  0  1  0  0  0  0  0  0  0  0
    3.0519    4.5876    2.8739 H   0  0  0  1  0  0  0  0  0  0  0  0
    0.4119    4.1520    4.6491 N   0  0  0  1  0  0  0  0  0  0  0  0
   -0.5791    3.2724    4.8643 C   0  0  0  1  0  0  0  0  0  0  0  0
   -1.2250    3.5048    5.6456 H   0  0  0  1  0  0  0  0  0  0  0  0
   -0.8460    2.1461    4.2145 N   0  0  0  1  0  0  0  0  0  0  0  0
    0.0283    1.9347    3.2296 C   0  0  0  1  0  0  0  0  0  0  0  0
  1  2  2  0  0  0  0
  1  3  1  0  0  0  0
  1  4  1  0  0  0  0
  1  8  1  0  0  0  0
  5  6  2  0  0  0  0
  5  7  1  0  0  0  0
  5  8  1  0  0  0  0
  5  9  1  0  0  0  0
  9 10  1  0  0  0  0
 10 11  1  0  0  0  0
 10 12  1  0  0  0  0
 10 13  1  0  0  0  0
 13 14  1  0  0  0  0
 13 15  1  0  0  0  0
 13 16  1  0  0  0  0
 15 24  1  0  0  0  0
 16 17  1  0  0  0  0
 16 18  1  0  0  0  0
 16 20  1  0  0  0  0
 18 19  1  0  0  0  0
 20 21  1  0  0  0  0
 20 22  1  0  0  0  0
 20 24  1  0  0  0  0
 22 23  1  0  0  0  0
 24 25  1  0  0  0  0
 24 26  1  0  0  0  0
 26 27  1  0  0  0  0
 26 39  1  0  0  0  0
 27 28  1  0  0  0  0
 27 29  2  0  0  0  0
 29 30  1  0  0  0  0
 30 31  1  0  0  0  0
 30 39  2  0  0  0  0
 31 32  1  0  0  0  0
 31 35  2  0  0  0  0
 32 33  1  0  0  0  0
 32 34  1  0  0  0  0
 35 36  1  0  0  0  0
 36 37  1  0  0  0  0
 36 38  2  0  0  0  0
 38 39  1  0  0  0  0
M  END
> <ConfClashScore>
0 

> <ConfOneFourInteractionScore>
-0.983365 

> <ConfScore>
0.121124 

> <ConfScorePBest>
0.00500445 

> <ConfTolerance>
1.72311 

$$$$
ADP.****
  PyMOL2.5          3D                             0

 39 41  0  0  0  0  0  0  0  0999 V2000
    0.4202    4.3055   -2.0841 P   0  0  0  1  0  0  0  0  0  0  0  0
   -1.0059    4.1573   -1.7174 O   0  0  0  1  0  0  0  0  0  0  0  0
    1.0482    5.6661   -1.4687 O   0  5  0  1  0  0  0  0  0  0  0  0
    0.4005    4.5108   -3.6909 O   0  5  0  1  0  0  0  0  0  0  0  0
    1.1254    1.4843   -1.6752 P   0  0  0  1  0  0  0  0  0  0  0  0
    0.8636    0.8047   -2.9636 O   0  0  0  1  0  0  0  0  0  0  0  0
    2.4472    0.9026   -0.9411 O   0  5  0  1  0  0  0  0  0  0  0  0
    1.3831    3.0636   -1.7496 O   0  0  0  1  0  0  0  0  0  0  0  0
   -0.1389    1.1496   -0.7851 O   0  0  0  1  0  0  0  0  0  0  0  0
   -0.9660    0.0205   -1.1523 C   0  0  0  1  0  0  0  0  0  0  0  0
   -0.3509   -0.7865   -1.4920 H   0  0  0  1  0  0  0  0  0  0  0  0
   -1.6451    0.3035   -1.9292 H   0  0  0  1  0  0  0  0  0  0  0  0
   -1.7368   -0.4021    0.0760 C   0  0  0  1  0  0  0  0  0  0  0  0
   -2.4869   -1.1135   -0.2002 H   0  0  0  1  0  0  0  0  0  0  0  0
   -0.8456   -0.9631    1.0662 O   0  0  0  1  0  0  0  0  0  0  0  0
   -2.3733    0.8137    0.7559 C   0  0  0  1  0  0  0  0  0  0  0  0
   -1.8548    1.7133    0.4973 H   0  0  0  1  0  0  0  0  0  0  0  0
   -3.7397    0.9368    0.4016 O   0  0  0  1  0  0  0  0  0  0  0  0
   -4.2837    0.5167    1.0718 H   0  0  0  1  0  0  0  0  0  0  0  0
   -2.2212    0.5052    2.2223 C   0  0  0  1  0  0  0  0  0  0  0  0
   -2.1797    1.4028    2.8031 H   0  0  0  1  0  0  0  0  0  0  0  0
   -3.2925   -0.3159    2.6896 O   0  0  0  1  0  0  0  0  0  0  0  0
   -3.6651   -0.8063    1.9531 H   0  0  0  1  0  0  0  0  0  0  0  0
   -0.8842   -0.2483    2.2715 C   0  0  0  1  0  0  0  0  0  0  0  0
   -0.8550   -0.9145    3.1083 H   0  0  0  1  0  0  0  0  0  0  0  0
    0.2383    0.6907    2.3544 N   0  0  0  1  0  0  0  0  0  0  0  0
    0.1803    2.0142    2.6673 C   0  0  0  1  0  0  0  0  0  0  0  0
   -0.7129    2.4967    2.8933 H   0  0  0  1  0  0  0  0  0  0  0  0
    1.3301    2.6321    2.6624 N   0  0  0  1  0  0  0  0  0  0  0  0
    2.2329    1.6353    2.3265 C   0  0  0  1  0  0  0  0  0  0  0  0
    3.6110    1.5983    2.1358 C   0  0  0  1  0  0  0  0  0  0  0  0
    4.4143    2.6995    2.2729 N   0  0  0  1  0  0  0  0  0  0  0  0
    5.3619    2.6483    2.0284 H   0  0  0  1  0  0  0  0  0  0  0  0
    4.0414    3.5385    2.6155 H   0  0  0  1  0  0  0  0  0  0  0  0
    4.2035    0.4465    1.8026 N   0  0  0  1  0  0  0  0  0  0  0  0
    3.4286   -0.6390    1.6503 C   0  0  0  1  0  0  0  0  0  0  0  0
    3.9262   -1.5135    1.3872 H   0  0  0  1  0  0  0  0  0  0  0  0
    2.1131   -0.7469    1.7903 N   0  0  0  1  0  0  0  0  0  0  0  0
    1.5638    0.4192    2.1330 C   0  0  0  1  0  0  0  0  0  0  0  0
  1  2  2  0  0  0  0
  1  3  1  0  0  0  0
  1  4  1  0  0  0  0
  1  8  1  0  0  0  0
  5  6  2  0  0  0  0
  5  7  1  0  0  0  0
  5  8  1  0  0  0  0
  5  9  1  0  0  0  0
  9 10  1  0  0  0  0
 10 11  1  0  0  0  0
 10 12  1  0  0  0  0
 10 13  1  0  0  0  0
 13 14  1  0  0  0  0
 13 15  1  0  0  0  0
 13 16  1  0  0  0  0
 15 24  1  0  0  0  0
 16 17  1  0  0  0  0
 16 18  1  0  0  0  0
 16 20  1  0  0  0  0
 18 19  1  0  0  0  0
 20 21  1  0  0  0  0
 20 22  1  0  0  0  0
 20 24  1  0  0  0  0
 22 23  1  0  0  0  0
 24 25  1  0  0  0  0
 24 26  1  0  0  0  0
 26 27  1  0  0  0  0
 26 39  1  0  0  0  0
 27 28  1  0  0  0  0
 27 29  2  0  0  0  0
 29 30  1  0  0  0  0
 30 31  1  0  0  0  0
 30 39  2  0  0  0  0
 31 32  1  0  0  0  0
 31 35  2  0  0  0  0
 32 33  1  0  0  0  0
 32 34  1  0  0  0  0
 35 36  1  0  0  0  0
 36 37  1  0  0  0  0
 36 38  2  0  0  0  0
 38 39  1  0  0  0  0
M  END
> <ConfClashScore>
0 

> <ConfOneFourInteractionScore>
-0.983391 

> <ConfScore>
0.121328 

> <ConfScorePBest>
0.00490145 

> <ConfTolerance>
3.38856 

$$$$
