# created with PyMOL 2.5.2
@<TRIPOS>MOLECULE
ATP
47 49 1                 
SMALL
USER_CHARGES
@<TRIPOS>ATOM
1	  PG	1.200	-0.226	-6.850	P.3	1	ATP0	0.000	
2	 O1G	1.740	1.140	-6.672	O.co2	1	ATP0	0.000	
3	 O2G	2.123	-1.036	-7.891	O.3	1	ATP0	0.000	
4	 O3G	-0.302	-0.139	-7.421	O.3	1	ATP0	0.000	
5	  PB	0.255	-0.130	-4.446	P.3	1	ATP0	0.000	
6	 O1B	0.810	1.234	-4.304	O.co2	1	ATP0	0.000	
7	 O2B	-1.231	-0.044	-5.057	O.3	1	ATP0	0.000	
8	 O3B	1.192	-0.990	-5.433	O.3	1	ATP0	0.000	
9	  PA	-0.745	0.068	-2.071	P.3	1	ATP0	0.000	
10	 O1A	-2.097	0.143	-2.669	O.co2	1	ATP0	0.000	
11	 O2A	-0.125	1.549	-1.957	O.3	1	ATP0	0.000	
12	 O3A	0.203	-0.840	-3.002	O.3	1	ATP0	0.000	
13	 O5'	-0.844	-0.587	-0.604	O.3	1	ATP0	0.000	
14	 C5'	-1.694	0.260	0.170	C.3	1	ATP0	0.000	
15	 C4'	-1.831	-0.309	1.584	C.3	1	ATP0	0.000	
16	 O4'	-0.542	-0.355	2.234	O.3	1	ATP0	0.000	
17	 C3'	-2.683	0.630	2.465	C.3	1	ATP0	0.000	
18	 O3'	-4.033	0.165	2.534	O.3	1	ATP0	0.000	
19	 C2'	-2.011	0.555	3.856	C.3	1	ATP0	0.000	
20	 O2'	-2.926	0.043	4.827	O.3	1	ATP0	0.000	
21	 C1'	-0.830	-0.418	3.647	C.3	1	ATP0	0.000	
22	  N9	0.332	0.015	4.425	N.pl3	1	ATP0	0.000	
23	  C8	1.302	0.879	4.012	C.2	1	ATP0	0.000	
24	  N7	2.184	1.042	4.955	N.2	1	ATP0	0.000	
25	  C5	1.833	0.300	6.033	C.2	1	ATP0	0.000	
26	  C6	2.391	0.077	7.303	C.2	1	ATP0	0.000	
27	  N6	3.564	0.706	7.681	N.pl3	1	ATP0	0.000	
28	  N1	1.763	-0.747	8.135	N.2	1	ATP0	0.000	
29	  C2	0.644	-1.352	7.783	C.2	1	ATP0	0.000	
30	  N3	0.088	-1.178	6.602	N.2	1	ATP0	0.000	
31	  C4	0.644	-0.371	5.704	C.2	1	ATP0	0.000	
32	HOG2	2.100	-0.546	-8.725	 H	1	ATP0	0.000	
33	HOG3	-0.616	-1.048	-7.522	 H	1	ATP0	0.000	
34	HOB2	-1.554	-0.952	-5.132	 H	1	ATP0	0.000	
35	HOA2	0.752	1.455	-1.563	 H	1	ATP0	0.000	
36	H5'1	-2.678	0.312	-0.296	 H	1	ATP0	0.000	
37	H5'2	-1.263	1.259	0.221	 H	1	ATP0	0.000	
38	 H4'	-2.275	-1.304	1.550	 H	1	ATP0	0.000	
39	 H3'	-2.651	1.649	2.078	 H	1	ATP0	0.000	
40	HO3'	-4.515	0.788	3.094	 H	1	ATP0	0.000	
41	 H2'	-1.646	1.537	4.157	 H	1	ATP0	0.000	
42	HO2'	-3.667	0.662	4.867	 H	1	ATP0	0.000	
43	 H1'	-1.119	-1.430	3.931	 H	1	ATP0	0.000	
44	  H8	1.334	1.357	3.044	 H	1	ATP0	0.000	
45	HN61	3.938	0.548	8.562	 H	1	ATP0	0.000	
46	HN62	4.015	1.303	7.064	 H	1	ATP0	0.000	
47	  H2	0.166	-2.014	8.490	 H	1	ATP0	0.000	
@<TRIPOS>BOND
1 1 2 2
2 1 3 1
3 1 4 1
4 1 8 1
5 3 32 1
6 4 33 1
7 5 6 2
8 5 7 1
9 5 8 1
10 5 12 1
11 7 34 1
12 9 10 2
13 9 11 1
14 9 12 1
15 9 13 1
16 11 35 1
17 13 14 1
18 14 15 1
19 14 36 1
20 14 37 1
21 15 16 1
22 15 17 1
23 15 38 1
24 16 21 1
25 17 18 1
26 17 19 1
27 17 39 1
28 18 40 1
29 19 20 1
30 19 21 1
31 19 41 1
32 20 42 1
33 21 22 1
34 21 43 1
35 22 23 1
36 22 31 1
37 23 24 2
38 23 44 1
39 24 25 1
40 25 26 1
41 25 31 2
42 26 27 1
43 26 28 2
44 27 45 1
45 27 46 1
46 28 29 1
47 29 30 2
48 29 47 1
49 30 31 1
@<TRIPOS>SUBSTRUCTURE
1	ATP0	1	GROUP	1 ****	ATP
