ATP.****
  PyMOL2.5          3D                             0

 43 45  0  0  0  0  0  0  0  0999 V2000
    1.8492    7.2979    3.8882 P   0  0  0  1  0  0  0  0  0  0  0  0
    1.2027    8.7498    3.4836 O   0  0  0  0  0  0  0  0  0  0  0  0
    1.4144    6.8966    5.3962 O   0  5  0  1  0  0  0  0  0  0  0  0
    3.3219    7.1550    3.8538 O   0  0  0  1  0  0  0  0  0  0  0  0
    1.0915    5.7843    1.4317 P   0  0  0  1  0  0  0  0  0  0  0  0
   -0.0167    6.4934    0.7422 O   0  0  0  0  0  0  0  0  0  0  0  0
    2.4516    5.8775    0.8713 O   0  0  0  1  0  0  0  0  0  0  0  0
    1.1514    6.2002    2.9734 O   0  0  0  1  0  0  0  0  0  0  0  0
    0.2327    3.1273    0.5227 P   0  0  0  1  0  0  0  0  0  0  0  0
    1.4765    2.6383   -0.1132 O   0  0  0  1  0  0  0  0  0  0  0  0
   -0.7978    3.7626   -0.5539 O   0  5  0  1  0  0  0  0  0  0  0  0
    0.5604    4.2763    1.5898 O   0  0  0  1  0  0  0  0  0  0  0  0
   -0.5258    1.9731    1.2767 O   0  0  0  1  0  0  0  0  0  0  0  0
   -1.0377    0.8234    0.5543 C   0  0  0  1  0  0  0  0  0  0  0  0
   -0.2249    0.3518    0.0427 H   0  0  0  1  0  0  0  0  0  0  0  0
   -1.7602    1.1620   -0.1586 H   0  0  0  1  0  0  0  0  0  0  0  0
   -1.6927   -0.1931    1.4585 C   0  0  0  1  0  0  0  0  0  0  0  0
   -2.1368   -0.9651    0.8654 H   0  0  0  1  0  0  0  0  0  0  0  0
   -0.7231   -0.7544    2.3611 O   0  0  0  1  0  0  0  0  0  0  0  0
   -2.7664    0.4887    2.3420 C   0  0  0  1  0  0  0  0  0  0  0  0
   -3.0671    1.4280    1.9271 H   0  0  0  1  0  0  0  0  0  0  0  0
   -3.9112   -0.3509    2.5002 O   0  0  0  1  0  0  0  0  0  0  0  0
   -4.6809    0.0826    2.1246 H   0  0  0  1  0  0  0  0  0  0  0  0
   -2.0426    0.6809    3.6630 C   0  0  0  1  0  0  0  0  0  0  0  0
   -1.5101    1.6089    3.6800 H   0  0  0  1  0  0  0  0  0  0  0  0
   -2.9507    0.6341    4.7578 O   0  0  0  1  0  0  0  0  0  0  0  0
   -3.1029   -0.2798    5.0090 H   0  0  0  1  0  0  0  0  0  0  0  0
   -1.0760   -0.5137    3.6928 C   0  0  0  1  0  0  0  0  0  0  0  0
   -1.5585   -1.3723    4.1109 H   0  0  0  1  0  0  0  0  0  0  0  0
    0.1116   -0.1876    4.4830 N   0  0  0  1  0  0  0  0  0  0  0  0
    0.6221    1.0507    4.7253 C   0  0  0  1  0  0  0  0  0  0  0  0
    0.1841    1.9183    4.3552 H   0  0  0  1  0  0  0  0  0  0  0  0
    1.7028    1.0672    5.4571 N   0  0  0  1  0  0  0  0  0  0  0  0
    1.9279   -0.2722    5.7340 C   0  0  0  1  0  0  0  0  0  0  0  0
    2.9018   -0.9655    6.4467 C   0  0  0  1  0  0  0  0  0  0  0  0
    3.9437   -0.3460    7.0851 N   0  0  0  1  0  0  0  0  0  0  0  0
    4.5655   -0.8709    7.6312 H   0  0  0  1  0  0  0  0  0  0  0  0
    4.0672    0.6221    6.9956 H   0  0  0  1  0  0  0  0  0  0  0  0
    2.8408   -2.2990    6.5276 N   0  0  0  1  0  0  0  0  0  0  0  0
    1.8339   -2.9226    5.8956 C   0  0  0  1  0  0  0  0  0  0  0  0
    1.8239   -3.9592    5.9789 H   0  0  0  1  0  0  0  0  0  0  0  0
    0.8494   -2.3947    5.1787 N   0  0  0  1  0  0  0  0  0  0  0  0
    0.9410   -1.0649    5.1328 C   0  0  0  1  0  0  0  0  0  0  0  0
  1  2  1  0  0  0  0
  1  3  1  0  0  0  0
  1  4  2  0  0  0  0
  1  8  1  0  0  0  0
  5  6  1  0  0  0  0
  5  7  2  0  0  0  0
  5  8  1  0  0  0  0
  5 12  1  0  0  0  0
  9 10  2  0  0  0  0
  9 11  1  0  0  0  0
  9 12  1  0  0  0  0
  9 13  1  0  0  0  0
 13 14  1  0  0  0  0
 14 15  1  0  0  0  0
 14 16  1  0  0  0  0
 14 17  1  0  0  0  0
 17 18  1  0  0  0  0
 17 19  1  0  0  0  0
 17 20  1  0  0  0  0
 19 28  1  0  0  0  0
 20 21  1  0  0  0  0
 20 22  1  0  0  0  0
 20 24  1  0  0  0  0
 22 23  1  0  0  0  0
 24 25  1  0  0  0  0
 24 26  1  0  0  0  0
 24 28  1  0  0  0  0
 26 27  1  0  0  0  0
 28 29  1  0  0  0  0
 28 30  1  0  0  0  0
 30 31  1  0  0  0  0
 30 43  1  0  0  0  0
 31 32  1  0  0  0  0
 31 33  2  0  0  0  0
 33 34  1  0  0  0  0
 34 35  1  0  0  0  0
 34 43  2  0  0  0  0
 35 36  1  0  0  0  0
 35 39  2  0  0  0  0
 36 37  1  0  0  0  0
 36 38  1  0  0  0  0
 39 40  1  0  0  0  0
 40 41  1  0  0  0  0
 40 42  2  0  0  0  0
 42 43  1  0  0  0  0
M  BCL ATM P_TeTeTeTePi O_Te2Te2TeTe O_Te2Te2Te2Te O_Tr2Tr2TrPi P_TeTeTeTePi O_Te2Te2TeTe O_Tr2Tr2TrPi O_Tr2TrTrPi2 P_TeTeTeTePi O_Tr2Tr2TrPi O_Te2Te2Te2Te O_Tr2TrTrPi2 O_Tr2TrTrPi2 C_TeTeTeTe H_S H_S C_TeTeTeTe H_S O_Te2Te2TeTe C_TeTeTeTe H_S O_Te2Te2TeTe H_S C_TeTeTeTe H_S O_Te2Te2TeTe H_S C_TeTeTeTe H_S N_TrTrTrPi2 C_TrTrTrPi H_S N_Tr2TrTrPi C_TrTrTrPi C_TrTrTrPi N_TrTrTrPi2 H_S H_S N_Tr2TrTrPi C_TrTrTrPi H_S N_Tr2TrTrPi C_TrTrTrPi
M  BCL BND ConjugatedSingleBond ConjugatedSingleBond ConjugatedDoubleBond ConjugatedSingleBond ConjugatedSingleBond ConjugatedDoubleBond ConjugatedSingleBond ConjugatedSingleBond ConjugatedDoubleBond ConjugatedSingleBond ConjugatedSingleBond ConjugatedSingleBond NonConjugatedSingleBond NonConjugatedSingleBond NonConjugatedSingleBond NonConjugatedSingleBond NonConjugatedSingleBond NonConjugatedSingleBondInRing NonConjugatedSingleBondInRing NonConjugatedSingleBondInRing NonConjugatedSingleBond NonConjugatedSingleBond NonConjugatedSingleBondInRing NonConjugatedSingleBond NonConjugatedSingleBond NonConjugatedSingleBond NonConjugatedSingleBondInRing NonConjugatedSingleBond NonConjugatedSingleBond NonConjugatedSingleBond AromaticSingleBond AromaticSingleBond NonConjugatedSingleBond AromaticDoubleBond AromaticSingleBond AromaticSingleBond AromaticDoubleBond ConjugatedSingleBond AromaticDoubleBond NonConjugatedSingleBond NonConjugatedSingleBond AromaticSingleBond NonConjugatedSingleBond AromaticDoubleBond AromaticSingleBond
M  BCL CHI   1   S   5   S   9   S  17   R  20   S  24   R  28   S
M  BCL DBI - - - - - - -
M  END
> <ConfClashScore>
0 

> <ConfOneFourInteractionScore>
-0.990596 

> <ConfScore>
-0.0322196 

> <ConfScorePBest>
0.0150985 

> <ConfTolerance>
1.18621 

$$$$
ATP.****
  PyMOL2.5          3D                             0

 43 45  0  0  0  0  0  0  0  0999 V2000
   -0.0855   -3.1311   -3.4976 P   0  0  0  1  0  0  0  0  0  0  0  0
   -0.9199   -1.8390   -4.0668 O   0  0  0  0  0  0  0  0  0  0  0  0
   -0.4079   -4.3104   -4.5604 O   0  5  0  1  0  0  0  0  0  0  0  0
   -0.5060   -3.4127   -2.1068 O   0  0  0  1  0  0  0  0  0  0  0  0
    2.2110   -1.4142   -3.4155 P   0  0  0  1  0  0  0  0  0  0  0  0
    3.5997   -1.6113   -2.9628 O   0  0  0  0  0  0  0  0  0  0  0  0
    1.8946   -0.6469   -4.6299 O   0  0  0  1  0  0  0  0  0  0  0  0
    1.4991   -2.8486   -3.6586 O   0  0  0  1  0  0  0  0  0  0  0  0
    0.1542    0.1045   -1.8622 P   0  0  0  1  0  0  0  0  0  0  0  0
   -0.7691    0.2051   -3.0144 O   0  0  0  1  0  0  0  0  0  0  0  0
    0.7982    1.5604   -1.5623 O   0  5  0  1  0  0  0  0  0  0  0  0
    1.4072   -0.8424   -2.1568 O   0  0  0  1  0  0  0  0  0  0  0  0
   -0.4379   -0.2976   -0.4608 O   0  0  0  1  0  0  0  0  0  0  0  0
   -1.5266    0.4526    0.1274 C   0  0  0  1  0  0  0  0  0  0  0  0
   -2.3962    0.3975   -0.4936 H   0  0  0  1  0  0  0  0  0  0  0  0
   -1.2459    1.4767    0.2590 H   0  0  0  1  0  0  0  0  0  0  0  0
   -1.7923   -0.1970    1.4649 C   0  0  0  1  0  0  0  0  0  0  0  0
   -2.2419   -1.1560    1.3132 H   0  0  0  1  0  0  0  0  0  0  0  0
   -0.5685   -0.3228    2.2215 O   0  0  0  1  0  0  0  0  0  0  0  0
   -2.7018    0.6988    2.3334 C   0  0  0  1  0  0  0  0  0  0  0  0
   -2.6256    1.7227    2.0321 H   0  0  0  1  0  0  0  0  0  0  0  0
   -4.0524    0.2793    2.2457 O   0  0  0  1  0  0  0  0  0  0  0  0
   -4.0870   -0.6242    1.9229 H   0  0  0  1  0  0  0  0  0  0  0  0
   -2.1598    0.5074    3.7692 C   0  0  0  1  0  0  0  0  0  0  0  0
   -1.8194    1.4373    4.1745 H   0  0  0  1  0  0  0  0  0  0  0  0
   -3.1640   -0.0451    4.6216 O   0  0  0  1  0  0  0  0  0  0  0  0
   -3.2274    0.4788    5.4235 H   0  0  0  1  0  0  0  0  0  0  0  0
   -0.9841   -0.4788    3.5950 C   0  0  0  1  0  0  0  0  0  0  0  0
   -1.3047   -1.4828    3.7794 H   0  0  0  1  0  0  0  0  0  0  0  0
    0.1104   -0.1405    4.5054 N   0  0  0  1  0  0  0  0  0  0  0  0
    0.8444   -1.0460    5.2084 C   0  0  0  1  0  0  0  0  0  0  0  0
    0.6806   -2.0709    5.1421 H   0  0  0  1  0  0  0  0  0  0  0  0
    1.7693   -0.5311    5.9721 N   0  0  0  1  0  0  0  0  0  0  0  0
    1.6484    0.8325    5.7539 C   0  0  0  1  0  0  0  0  0  0  0  0
    2.3052    1.9561    6.2471 C   0  0  0  1  0  0  0  0  0  0  0  0
    3.3180    1.8285    7.1524 N   0  0  0  1  0  0  0  0  0  0  0  0
    3.7106    2.6264    7.5642 H   0  0  0  1  0  0  0  0  0  0  0  0
    3.6529    0.9389    7.3908 H   0  0  0  1  0  0  0  0  0  0  0  0
    1.9407    3.1734    5.8301 N   0  0  0  1  0  0  0  0  0  0  0  0
    0.9310    3.2611    4.9498 C   0  0  0  1  0  0  0  0  0  0  0  0
    0.6749    4.2245    4.6535 H   0  0  0  1  0  0  0  0  0  0  0  0
    0.2152    2.2841    4.4066 N   0  0  0  1  0  0  0  0  0  0  0  0
    0.6177    1.0885    4.8397 C   0  0  0  1  0  0  0  0  0  0  0  0
  1  2  1  0  0  0  0
  1  3  1  0  0  0  0
  1  4  2  0  0  0  0
  1  8  1  0  0  0  0
  5  6  1  0  0  0  0
  5  7  2  0  0  0  0
  5  8  1  0  0  0  0
  5 12  1  0  0  0  0
  9 10  2  0  0  0  0
  9 11  1  0  0  0  0
  9 12  1  0  0  0  0
  9 13  1  0  0  0  0
 13 14  1  0  0  0  0
 14 15  1  0  0  0  0
 14 16  1  0  0  0  0
 14 17  1  0  0  0  0
 17 18  1  0  0  0  0
 17 19  1  0  0  0  0
 17 20  1  0  0  0  0
 19 28  1  0  0  0  0
 20 21  1  0  0  0  0
 20 22  1  0  0  0  0
 20 24  1  0  0  0  0
 22 23  1  0  0  0  0
 24 25  1  0  0  0  0
 24 26  1  0  0  0  0
 24 28  1  0  0  0  0
 26 27  1  0  0  0  0
 28 29  1  0  0  0  0
 28 30  1  0  0  0  0
 30 31  1  0  0  0  0
 30 43  1  0  0  0  0
 31 32  1  0  0  0  0
 31 33  2  0  0  0  0
 33 34  1  0  0  0  0
 34 35  1  0  0  0  0
 34 43  2  0  0  0  0
 35 36  1  0  0  0  0
 35 39  2  0  0  0  0
 36 37  1  0  0  0  0
 36 38  1  0  0  0  0
 39 40  1  0  0  0  0
 40 41  1  0  0  0  0
 40 42  2  0  0  0  0
 42 43  1  0  0  0  0
M  BCL ATM P_TeTeTeTePi O_Te2Te2TeTe O_Te2Te2Te2Te O_Tr2Tr2TrPi P_TeTeTeTePi O_Te2Te2TeTe O_Tr2Tr2TrPi O_Tr2TrTrPi2 P_TeTeTeTePi O_Tr2Tr2TrPi O_Te2Te2Te2Te O_Tr2TrTrPi2 O_Tr2TrTrPi2 C_TeTeTeTe H_S H_S C_TeTeTeTe H_S O_Te2Te2TeTe C_TeTeTeTe H_S O_Te2Te2TeTe H_S C_TeTeTeTe H_S O_Te2Te2TeTe H_S C_TeTeTeTe H_S N_TrTrTrPi2 C_TrTrTrPi H_S N_Tr2TrTrPi C_TrTrTrPi C_TrTrTrPi N_TrTrTrPi2 H_S H_S N_Tr2TrTrPi C_TrTrTrPi H_S N_Tr2TrTrPi C_TrTrTrPi
M  BCL BND ConjugatedSingleBond ConjugatedSingleBond ConjugatedDoubleBond ConjugatedSingleBond ConjugatedSingleBond ConjugatedDoubleBond ConjugatedSingleBond ConjugatedSingleBond ConjugatedDoubleBond ConjugatedSingleBond ConjugatedSingleBond ConjugatedSingleBond NonConjugatedSingleBond NonConjugatedSingleBond NonConjugatedSingleBond NonConjugatedSingleBond NonConjugatedSingleBond NonConjugatedSingleBondInRing NonConjugatedSingleBondInRing NonConjugatedSingleBondInRing NonConjugatedSingleBond NonConjugatedSingleBond NonConjugatedSingleBondInRing NonConjugatedSingleBond NonConjugatedSingleBond NonConjugatedSingleBond NonConjugatedSingleBondInRing NonConjugatedSingleBond NonConjugatedSingleBond NonConjugatedSingleBond AromaticSingleBond AromaticSingleBond NonConjugatedSingleBond AromaticDoubleBond AromaticSingleBond AromaticSingleBond AromaticDoubleBond ConjugatedSingleBond AromaticDoubleBond NonConjugatedSingleBond NonConjugatedSingleBond AromaticSingleBond NonConjugatedSingleBond AromaticDoubleBond AromaticSingleBond
M  BCL CHI   1   S   5   S   9   S  17   R  20   S  24   R  28   S
M  BCL DBI - - - - - - -
M  END
> <ConfClashScore>
0 

> <ConfOneFourInteractionScore>
-0.981464 

> <ConfScore>
-0.0286728 

> <ConfScorePBest>
0.0149955 

> <ConfTolerance>
1.23828 

$$$$
ATP.****
  PyMOL2.5          3D                             0

 43 45  0  0  0  0  0  0  0  0999 V2000
   -1.4066    5.6184   -2.9194 P   0  0  0  1  0  0  0  0  0  0  0  0
   -1.9988    5.7912   -1.3999 O   0  0  0  0  0  0  0  0  0  0  0  0
    0.1105    6.1709   -2.7870 O   0  5  0  1  0  0  0  0  0  0  0  0
   -2.1222    6.4414   -3.9199 O   0  0  0  1  0  0  0  0  0  0  0  0
   -2.3672    2.8795   -3.3186 P   0  0  0  1  0  0  0  0  0  0  0  0
   -3.7620    3.3789   -3.2100 O   0  0  0  0  0  0  0  0  0  0  0  0
   -1.9995    1.9096   -4.3802 O   0  0  0  1  0  0  0  0  0  0  0  0
   -1.3323    4.0893   -3.4069 O   0  0  0  1  0  0  0  0  0  0  0  0
   -0.5986    1.7070   -1.2218 P   0  0  0  1  0  0  0  0  0  0  0  0
    0.3735    2.7900   -0.9524 O   0  0  0  1  0  0  0  0  0  0  0  0
   -0.0843    0.5310   -2.2102 O   0  5  0  1  0  0  0  0  0  0  0  0
   -1.9170    2.2882   -1.9127 O   0  0  0  1  0  0  0  0  0  0  0  0
   -1.0339    1.1166    0.1703 O   0  0  0  1  0  0  0  0  0  0  0  0
   -1.7510   -0.1375    0.2527 C   0  0  0  1  0  0  0  0  0  0  0  0
   -1.1806   -0.9020   -0.2322 H   0  0  0  1  0  0  0  0  0  0  0  0
   -2.6978   -0.0347   -0.2349 H   0  0  0  1  0  0  0  0  0  0  0  0
   -1.9744   -0.5237    1.6972 C   0  0  0  1  0  0  0  0  0  0  0  0
   -2.6031   -1.3883    1.7426 H   0  0  0  1  0  0  0  0  0  0  0  0
   -0.7529   -0.7636    2.3417 O   0  0  0  1  0  0  0  0  0  0  0  0
   -2.5942    0.6414    2.4822 C   0  0  0  1  0  0  0  0  0  0  0  0
   -2.2319    1.5829    2.1255 H   0  0  0  1  0  0  0  0  0  0  0  0
   -4.0200    0.6170    2.3998 O   0  0  0  1  0  0  0  0  0  0  0  0
   -4.3122    1.2297    1.7209 H   0  0  0  1  0  0  0  0  0  0  0  0
   -2.1271    0.3777    3.8896 C   0  0  0  1  0  0  0  0  0  0  0  0
   -2.0675    1.2867    4.4508 H   0  0  0  1  0  0  0  0  0  0  0  0
   -2.9982   -0.5376    4.5555 O   0  0  0  1  0  0  0  0  0  0  0  0
   -3.7094   -0.7918    3.9630 H   0  0  0  1  0  0  0  0  0  0  0  0
   -0.7380   -0.2347    3.6868 C   0  0  0  1  0  0  0  0  0  0  0  0
   -0.5652   -1.0170    4.3961 H   0  0  0  1  0  0  0  0  0  0  0  0
    0.3001    0.7885    3.8252 N   0  0  0  1  0  0  0  0  0  0  0  0
    0.8259    1.5676    2.8407 C   0  0  0  1  0  0  0  0  0  0  0  0
    0.5684    1.4532    1.8396 H   0  0  0  1  0  0  0  0  0  0  0  0
    1.6777    2.4691    3.2477 N   0  0  0  1  0  0  0  0  0  0  0  0
    1.7173    2.2819    4.6206 C   0  0  0  1  0  0  0  0  0  0  0  0
    2.4154    2.8852    5.6625 C   0  0  0  1  0  0  0  0  0  0  0  0
    3.2796    3.9063    5.3667 N   0  0  0  1  0  0  0  0  0  0  0  0
    3.3572    4.2311    4.4453 H   0  0  0  1  0  0  0  0  0  0  0  0
    3.8201    4.3119    6.0764 H   0  0  0  1  0  0  0  0  0  0  0  0
    2.2310    2.4611    6.9174 N   0  0  0  1  0  0  0  0  0  0  0  0
    1.3767    1.4455    7.1193 C   0  0  0  1  0  0  0  0  0  0  0  0
    1.2640    1.1423    8.1078 H   0  0  0  1  0  0  0  0  0  0  0  0
    0.6564    0.7759    6.2278 N   0  0  0  1  0  0  0  0  0  0  0  0
    0.8610    1.2370    4.9931 C   0  0  0  1  0  0  0  0  0  0  0  0
  1  2  1  0  0  0  0
  1  3  1  0  0  0  0
  1  4  2  0  0  0  0
  1  8  1  0  0  0  0
  5  6  1  0  0  0  0
  5  7  2  0  0  0  0
  5  8  1  0  0  0  0
  5 12  1  0  0  0  0
  9 10  2  0  0  0  0
  9 11  1  0  0  0  0
  9 12  1  0  0  0  0
  9 13  1  0  0  0  0
 13 14  1  0  0  0  0
 14 15  1  0  0  0  0
 14 16  1  0  0  0  0
 14 17  1  0  0  0  0
 17 18  1  0  0  0  0
 17 19  1  0  0  0  0
 17 20  1  0  0  0  0
 19 28  1  0  0  0  0
 20 21  1  0  0  0  0
 20 22  1  0  0  0  0
 20 24  1  0  0  0  0
 22 23  1  0  0  0  0
 24 25  1  0  0  0  0
 24 26  1  0  0  0  0
 24 28  1  0  0  0  0
 26 27  1  0  0  0  0
 28 29  1  0  0  0  0
 28 30  1  0  0  0  0
 30 31  1  0  0  0  0
 30 43  1  0  0  0  0
 31 32  1  0  0  0  0
 31 33  2  0  0  0  0
 33 34  1  0  0  0  0
 34 35  1  0  0  0  0
 34 43  2  0  0  0  0
 35 36  1  0  0  0  0
 35 39  2  0  0  0  0
 36 37  1  0  0  0  0
 36 38  1  0  0  0  0
 39 40  1  0  0  0  0
 40 41  1  0  0  0  0
 40 42  2  0  0  0  0
 42 43  1  0  0  0  0
M  BCL ATM P_TeTeTeTePi O_Te2Te2TeTe O_Te2Te2Te2Te O_Tr2Tr2TrPi P_TeTeTeTePi O_Te2Te2TeTe O_Tr2Tr2TrPi O_Tr2TrTrPi2 P_TeTeTeTePi O_Tr2Tr2TrPi O_Te2Te2Te2Te O_Tr2TrTrPi2 O_Tr2TrTrPi2 C_TeTeTeTe H_S H_S C_TeTeTeTe H_S O_Te2Te2TeTe C_TeTeTeTe H_S O_Te2Te2TeTe H_S C_TeTeTeTe H_S O_Te2Te2TeTe H_S C_TeTeTeTe H_S N_TrTrTrPi2 C_TrTrTrPi H_S N_Tr2TrTrPi C_TrTrTrPi C_TrTrTrPi N_TrTrTrPi2 H_S H_S N_Tr2TrTrPi C_TrTrTrPi H_S N_Tr2TrTrPi C_TrTrTrPi
M  BCL BND ConjugatedSingleBond ConjugatedSingleBond ConjugatedDoubleBond ConjugatedSingleBond ConjugatedSingleBond ConjugatedDoubleBond ConjugatedSingleBond ConjugatedSingleBond ConjugatedDoubleBond ConjugatedSingleBond ConjugatedSingleBond ConjugatedSingleBond NonConjugatedSingleBond NonConjugatedSingleBond NonConjugatedSingleBond NonConjugatedSingleBond NonConjugatedSingleBond NonConjugatedSingleBondInRing NonConjugatedSingleBondInRing NonConjugatedSingleBondInRing NonConjugatedSingleBond NonConjugatedSingleBond NonConjugatedSingleBondInRing NonConjugatedSingleBond NonConjugatedSingleBond NonConjugatedSingleBond NonConjugatedSingleBondInRing NonConjugatedSingleBond NonConjugatedSingleBond NonConjugatedSingleBond AromaticSingleBond AromaticSingleBond NonConjugatedSingleBond AromaticDoubleBond AromaticSingleBond AromaticSingleBond AromaticDoubleBond ConjugatedSingleBond AromaticDoubleBond NonConjugatedSingleBond NonConjugatedSingleBond AromaticSingleBond NonConjugatedSingleBond AromaticDoubleBond AromaticSingleBond
M  BCL CHI   1   S   5   S   9   S  17   R  20   S  24   R  28   S
M  BCL DBI - - - - - - -
M  END
> <ConfClashScore>
0 

> <ConfOneFourInteractionScore>
-0.987665 

> <ConfScore>
-0.0201628 

> <ConfScorePBest>
0.0148925 

> <ConfTolerance>
1.15712 

$$$$
ATP.****
  PyMOL2.5          3D                             0

 43 45  0  0  0  0  0  0  0  0999 V2000
    2.3097    4.4204   -1.1721 P   0  0  0  1  0  0  0  0  0  0  0  0
    1.9703    3.5892   -2.5445 O   0  0  0  0  0  0  0  0  0  0  0  0
    3.6086    5.2385   -1.6897 O   0  5  0  1  0  0  0  0  0  0  0  0
    2.6711    3.5023   -0.0690 O   0  0  0  1  0  0  0  0  0  0  0  0
   -0.4056    5.5323   -1.0521 P   0  0  0  1  0  0  0  0  0  0  0  0
   -1.0364    6.6324   -0.2528 O   0  0  0  0  0  0  0  0  0  0  0  0
   -0.7523    5.5011   -2.5087 O   0  0  0  1  0  0  0  0  0  0  0  0
    1.1929    5.5535   -0.9486 O   0  0  0  1  0  0  0  0  0  0  0  0
   -0.6421    2.5815   -0.8710 P   0  0  0  1  0  0  0  0  0  0  0  0
    0.7583    2.2087   -1.1716 O   0  0  0  1  0  0  0  0  0  0  0  0
   -1.6658    2.4583   -2.1205 O   0  5  0  1  0  0  0  0  0  0  0  0
   -0.7221    4.1104   -0.3849 O   0  0  0  1  0  0  0  0  0  0  0  0
   -1.1932    1.6974    0.3083 O   0  0  0  1  0  0  0  0  0  0  0  0
   -1.4677    0.2897    0.1146 C   0  0  0  1  0  0  0  0  0  0  0  0
   -0.6411   -0.1783   -0.3781 H   0  0  0  1  0  0  0  0  0  0  0  0
   -2.3511    0.1687   -0.4768 H   0  0  0  1  0  0  0  0  0  0  0  0
   -1.6720   -0.3295    1.4771 C   0  0  0  1  0  0  0  0  0  0  0  0
   -2.0074   -1.3392    1.3639 H   0  0  0  1  0  0  0  0  0  0  0  0
   -0.4500   -0.2824    2.2457 O   0  0  0  1  0  0  0  0  0  0  0  0
   -2.6872    0.4918    2.3009 C   0  0  0  1  0  0  0  0  0  0  0  0
   -2.7252    1.5041    1.9565 H   0  0  0  1  0  0  0  0  0  0  0  0
   -3.9904   -0.0877    2.2225 O   0  0  0  1  0  0  0  0  0  0  0  0
   -4.6532    0.6019    2.3045 H   0  0  0  1  0  0  0  0  0  0  0  0
   -2.1425    0.4240    3.7469 C   0  0  0  1  0  0  0  0  0  0  0  0
   -1.9150    1.4030    4.1140 H   0  0  0  1  0  0  0  0  0  0  0  0
   -3.0873   -0.2046    4.6171 O   0  0  0  1  0  0  0  0  0  0  0  0
   -3.5991    0.4674    5.0734 H   0  0  0  1  0  0  0  0  0  0  0  0
   -0.8600   -0.4274    3.6221 C   0  0  0  1  0  0  0  0  0  0  0  0
   -1.0658   -1.4529    3.8474 H   0  0  0  1  0  0  0  0  0  0  0  0
    0.1779    0.0715    4.5230 N   0  0  0  1  0  0  0  0  0  0  0  0
    0.8565   -0.6366    5.4668 C   0  0  0  1  0  0  0  0  0  0  0  0
    0.6041   -1.6126    5.7224 H   0  0  0  1  0  0  0  0  0  0  0  0
    1.8480    0.0015    6.0268 N   0  0  0  1  0  0  0  0  0  0  0  0
    1.8357    1.2367    5.3977 C   0  0  0  1  0  0  0  0  0  0  0  0
    2.6022    2.3925    5.5138 C   0  0  0  1  0  0  0  0  0  0  0  0
    3.6532    2.5127    6.3992 N   0  0  0  1  0  0  0  0  0  0  0  0
    4.1223    3.3684    6.4896 H   0  0  0  1  0  0  0  0  0  0  0  0
    3.9308    1.7424    6.9377 H   0  0  0  1  0  0  0  0  0  0  0  0
    2.3280    3.4502    4.7427 N   0  0  0  1  0  0  0  0  0  0  0  0
    1.2991    3.3546    3.8858 C   0  0  0  1  0  0  0  0  0  0  0  0
    1.1156    4.1991    3.3073 H   0  0  0  1  0  0  0  0  0  0  0  0
    0.4845    2.3276    3.6770 N   0  0  0  1  0  0  0  0  0  0  0  0
    0.7990    1.2919    4.4564 C   0  0  0  1  0  0  0  0  0  0  0  0
  1  2  1  0  0  0  0
  1  3  1  0  0  0  0
  1  4  2  0  0  0  0
  1  8  1  0  0  0  0
  5  6  1  0  0  0  0
  5  7  2  0  0  0  0
  5  8  1  0  0  0  0
  5 12  1  0  0  0  0
  9 10  2  0  0  0  0
  9 11  1  0  0  0  0
  9 12  1  0  0  0  0
  9 13  1  0  0  0  0
 13 14  1  0  0  0  0
 14 15  1  0  0  0  0
 14 16  1  0  0  0  0
 14 17  1  0  0  0  0
 17 18  1  0  0  0  0
 17 19  1  0  0  0  0
 17 20  1  0  0  0  0
 19 28  1  0  0  0  0
 20 21  1  0  0  0  0
 20 22  1  0  0  0  0
 20 24  1  0  0  0  0
 22 23  1  0  0  0  0
 24 25  1  0  0  0  0
 24 26  1  0  0  0  0
 24 28  1  0  0  0  0
 26 27  1  0  0  0  0
 28 29  1  0  0  0  0
 28 30  1  0  0  0  0
 30 31  1  0  0  0  0
 30 43  1  0  0  0  0
 31 32  1  0  0  0  0
 31 33  2  0  0  0  0
 33 34  1  0  0  0  0
 34 35  1  0  0  0  0
 34 43  2  0  0  0  0
 35 36  1  0  0  0  0
 35 39  2  0  0  0  0
 36 37  1  0  0  0  0
 36 38  1  0  0  0  0
 39 40  1  0  0  0  0
 40 41  1  0  0  0  0
 40 42  2  0  0  0  0
 42 43  1  0  0  0  0
M  BCL ATM P_TeTeTeTePi O_Te2Te2TeTe O_Te2Te2Te2Te O_Tr2Tr2TrPi P_TeTeTeTePi O_Te2Te2TeTe O_Tr2Tr2TrPi O_Tr2TrTrPi2 P_TeTeTeTePi O_Tr2Tr2TrPi O_Te2Te2Te2Te O_Tr2TrTrPi2 O_Tr2TrTrPi2 C_TeTeTeTe H_S H_S C_TeTeTeTe H_S O_Te2Te2TeTe C_TeTeTeTe H_S O_Te2Te2TeTe H_S C_TeTeTeTe H_S O_Te2Te2TeTe H_S C_TeTeTeTe H_S N_TrTrTrPi2 C_TrTrTrPi H_S N_Tr2TrTrPi C_TrTrTrPi C_TrTrTrPi N_TrTrTrPi2 H_S H_S N_Tr2TrTrPi C_TrTrTrPi H_S N_Tr2TrTrPi C_TrTrTrPi
M  BCL BND ConjugatedSingleBond ConjugatedSingleBond ConjugatedDoubleBond ConjugatedSingleBond ConjugatedSingleBond ConjugatedDoubleBond ConjugatedSingleBond ConjugatedSingleBond ConjugatedDoubleBond ConjugatedSingleBond ConjugatedSingleBond ConjugatedSingleBond NonConjugatedSingleBond NonConjugatedSingleBond NonConjugatedSingleBond NonConjugatedSingleBond NonConjugatedSingleBond NonConjugatedSingleBondInRing NonConjugatedSingleBondInRing NonConjugatedSingleBondInRing NonConjugatedSingleBond NonConjugatedSingleBond NonConjugatedSingleBondInRing NonConjugatedSingleBond NonConjugatedSingleBond NonConjugatedSingleBond NonConjugatedSingleBondInRing NonConjugatedSingleBond NonConjugatedSingleBond NonConjugatedSingleBond AromaticSingleBond AromaticSingleBond NonConjugatedSingleBond AromaticDoubleBond AromaticSingleBond AromaticSingleBond AromaticDoubleBond ConjugatedSingleBond AromaticDoubleBond NonConjugatedSingleBond NonConjugatedSingleBond AromaticSingleBond NonConjugatedSingleBond AromaticDoubleBond AromaticSingleBond
M  BCL CHI   1   S   5   S   9   S  17   R  20   S  24   R  28   S
M  BCL DBI - - - - - - -
M  END
> <ConfClashScore>
0.000154491 

> <ConfOneFourInteractionScore>
-0.985305 

> <ConfScore>
-0.0181295 

> <ConfScorePBest>
0.0147895 

> <ConfTolerance>
1.21916 

$$$$
ATP.****
  PyMOL2.5          3D                             0

 43 45  0  0  0  0  0  0  0  0999 V2000
   -1.1663    6.3848   -0.2237 P   0  0  0  1  0  0  0  0  0  0  0  0
   -1.4636    7.5675    0.8728 O   0  0  0  0  0  0  0  0  0  0  0  0
   -1.7052    6.9040   -1.6605 O   0  5  0  1  0  0  0  0  0  0  0  0
   -1.8371    5.1271    0.1745 O   0  0  0  1  0  0  0  0  0  0  0  0
    1.3537    4.9030   -0.6834 P   0  0  0  1  0  0  0  0  0  0  0  0
    1.3330    4.9178   -2.1577 O   0  0  0  0  0  0  0  0  0  0  0  0
    2.6497    4.9637    0.0151 O   0  0  0  1  0  0  0  0  0  0  0  0
    0.3965    6.0595   -0.1240 O   0  0  0  1  0  0  0  0  0  0  0  0
    0.1272    2.2939   -0.8270 P   0  0  0  1  0  0  0  0  0  0  0  0
    1.2836    1.5347   -1.3532 O   0  0  0  1  0  0  0  0  0  0  0  0
   -0.9492    2.6375   -1.9879 O   0  5  0  1  0  0  0  0  0  0  0  0
    0.4938    3.6777   -0.0983 O   0  0  0  1  0  0  0  0  0  0  0  0
   -0.6192    1.4426    0.2638 O   0  0  0  1  0  0  0  0  0  0  0  0
   -1.3714    0.2184    0.0927 C   0  0  0  1  0  0  0  0  0  0  0  0
   -0.7798   -0.5026   -0.4317 H   0  0  0  1  0  0  0  0  0  0  0  0
   -2.2668    0.4150   -0.4591 H   0  0  0  1  0  0  0  0  0  0  0  0
   -1.7181   -0.3024    1.4668 C   0  0  0  1  0  0  0  0  0  0  0  0
   -2.1772   -1.2649    1.3786 H   0  0  0  1  0  0  0  0  0  0  0  0
   -0.5377   -0.3759    2.2958 O   0  0  0  1  0  0  0  0  0  0  0  0
   -2.6544    0.6814    2.2011 C   0  0  0  1  0  0  0  0  0  0  0  0
   -2.5435    1.6724    1.8130 H   0  0  0  1  0  0  0  0  0  0  0  0
   -4.0171    0.2713    2.0787 O   0  0  0  1  0  0  0  0  0  0  0  0
   -4.4519    0.3454    2.9315 H   0  0  0  1  0  0  0  0  0  0  0  0
   -2.1912    0.6142    3.6752 C   0  0  0  1  0  0  0  0  0  0  0  0
   -1.8549    1.5723    4.0123 H   0  0  0  1  0  0  0  0  0  0  0  0
   -3.2484    0.1558    4.5192 O   0  0  0  1  0  0  0  0  0  0  0  0
   -3.0022   -0.6841    4.9138 H   0  0  0  1  0  0  0  0  0  0  0  0
   -1.0268   -0.4001    3.6537 C   0  0  0  1  0  0  0  0  0  0  0  0
   -1.3753   -1.3786    3.9106 H   0  0  0  1  0  0  0  0  0  0  0  0
    0.0252    0.0044    4.5868 N   0  0  0  1  0  0  0  0  0  0  0  0
    0.5520   -0.7350    5.6010 C   0  0  0  1  0  0  0  0  0  0  0  0
    0.2397   -1.7056    5.8061 H   0  0  0  1  0  0  0  0  0  0  0  0
    1.4786   -0.1341    6.2968 N   0  0  0  1  0  0  0  0  0  0  0  0
    1.5857    1.1079    5.6906 C   0  0  0  1  0  0  0  0  0  0  0  0
    2.3634    2.2381    5.9246 C   0  0  0  1  0  0  0  0  0  0  0  0
    3.2808    2.3150    6.9317 N   0  0  0  1  0  0  0  0  0  0  0  0
    3.8720    3.0938    6.9977 H   0  0  0  1  0  0  0  0  0  0  0  0
    3.3485    1.5913    7.5891 H   0  0  0  1  0  0  0  0  0  0  0  0
    2.2245    3.3125    5.1404 N   0  0  0  1  0  0  0  0  0  0  0  0
    1.3159    3.2584    4.1537 C   0  0  0  1  0  0  0  0  0  0  0  0
    1.2352    4.1147    3.5691 H   0  0  0  1  0  0  0  0  0  0  0  0
    0.5066    2.2594    3.8234 N   0  0  0  1  0  0  0  0  0  0  0  0
    0.6849    1.2058    4.6216 C   0  0  0  1  0  0  0  0  0  0  0  0
  1  2  1  0  0  0  0
  1  3  1  0  0  0  0
  1  4  2  0  0  0  0
  1  8  1  0  0  0  0
  5  6  1  0  0  0  0
  5  7  2  0  0  0  0
  5  8  1  0  0  0  0
  5 12  1  0  0  0  0
  9 10  2  0  0  0  0
  9 11  1  0  0  0  0
  9 12  1  0  0  0  0
  9 13  1  0  0  0  0
 13 14  1  0  0  0  0
 14 15  1  0  0  0  0
 14 16  1  0  0  0  0
 14 17  1  0  0  0  0
 17 18  1  0  0  0  0
 17 19  1  0  0  0  0
 17 20  1  0  0  0  0
 19 28  1  0  0  0  0
 20 21  1  0  0  0  0
 20 22  1  0  0  0  0
 20 24  1  0  0  0  0
 22 23  1  0  0  0  0
 24 25  1  0  0  0  0
 24 26  1  0  0  0  0
 24 28  1  0  0  0  0
 26 27  1  0  0  0  0
 28 29  1  0  0  0  0
 28 30  1  0  0  0  0
 30 31  1  0  0  0  0
 30 43  1  0  0  0  0
 31 32  1  0  0  0  0
 31 33  2  0  0  0  0
 33 34  1  0  0  0  0
 34 35  1  0  0  0  0
 34 43  2  0  0  0  0
 35 36  1  0  0  0  0
 35 39  2  0  0  0  0
 36 37  1  0  0  0  0
 36 38  1  0  0  0  0
 39 40  1  0  0  0  0
 40 41  1  0  0  0  0
 40 42  2  0  0  0  0
 42 43  1  0  0  0  0
M  BCL ATM P_TeTeTeTePi O_Te2Te2TeTe O_Te2Te2Te2Te O_Tr2Tr2TrPi P_TeTeTeTePi O_Te2Te2TeTe O_Tr2Tr2TrPi O_Tr2TrTrPi2 P_TeTeTeTePi O_Tr2Tr2TrPi O_Te2Te2Te2Te O_Tr2TrTrPi2 O_Tr2TrTrPi2 C_TeTeTeTe H_S H_S C_TeTeTeTe H_S O_Te2Te2TeTe C_TeTeTeTe H_S O_Te2Te2TeTe H_S C_TeTeTeTe H_S O_Te2Te2TeTe H_S C_TeTeTeTe H_S N_TrTrTrPi2 C_TrTrTrPi H_S N_Tr2TrTrPi C_TrTrTrPi C_TrTrTrPi N_TrTrTrPi2 H_S H_S N_Tr2TrTrPi C_TrTrTrPi H_S N_Tr2TrTrPi C_TrTrTrPi
M  BCL BND ConjugatedSingleBond ConjugatedSingleBond ConjugatedDoubleBond ConjugatedSingleBond ConjugatedSingleBond ConjugatedDoubleBond ConjugatedSingleBond ConjugatedSingleBond ConjugatedDoubleBond ConjugatedSingleBond ConjugatedSingleBond ConjugatedSingleBond NonConjugatedSingleBond NonConjugatedSingleBond NonConjugatedSingleBond NonConjugatedSingleBond NonConjugatedSingleBond NonConjugatedSingleBondInRing NonConjugatedSingleBondInRing NonConjugatedSingleBondInRing NonConjugatedSingleBond NonConjugatedSingleBond NonConjugatedSingleBondInRing NonConjugatedSingleBond NonConjugatedSingleBond NonConjugatedSingleBond NonConjugatedSingleBondInRing NonConjugatedSingleBond NonConjugatedSingleBond NonConjugatedSingleBond AromaticSingleBond AromaticSingleBond NonConjugatedSingleBond AromaticDoubleBond AromaticSingleBond AromaticSingleBond AromaticDoubleBond ConjugatedSingleBond AromaticDoubleBond NonConjugatedSingleBond NonConjugatedSingleBond AromaticSingleBond NonConjugatedSingleBond AromaticDoubleBond AromaticSingleBond
M  BCL CHI   1   S   5   S   9   S  17   R  20   S  24   R  28   S
M  BCL DBI - - - - - - -
M  END
> <ConfClashScore>
0 

> <ConfOneFourInteractionScore>
-0.988523 

> <ConfScore>
-0.0150918 

> <ConfScorePBest>
0.0146865 

> <ConfTolerance>
1.17144 

$$$$
ATP.****
  PyMOL2.5          3D                             0

 43 45  0  0  0  0  0  0  0  0999 V2000
   -1.9762    6.5140    0.3979 P   0  0  0  1  0  0  0  0  0  0  0  0
   -0.7268    7.0939   -0.4921 O   0  0  0  0  0  0  0  0  0  0  0  0
   -2.3138    7.6373    1.5152 O   0  5  0  1  0  0  0  0  0  0  0  0
   -1.5212    5.2510    1.0210 O   0  0  0  1  0  0  0  0  0  0  0  0
   -3.0176    5.3752   -2.0197 P   0  0  0  1  0  0  0  0  0  0  0  0
   -4.3397    5.6546   -2.7168 O   0  0  0  0  0  0  0  0  0  0  0  0
   -1.8141    5.8563   -2.7908 O   0  0  0  1  0  0  0  0  0  0  0  0
   -3.1327    6.3319   -0.7184 O   0  0  0  1  0  0  0  0  0  0  0  0
   -1.6010    3.0465   -1.0695 P   0  0  0  1  0  0  0  0  0  0  0  0
   -0.5030    3.8785   -0.5285 O   0  0  0  1  0  0  0  0  0  0  0  0
   -1.1693    2.1486   -2.3469 O   0  5  0  1  0  0  0  0  0  0  0  0
   -2.9188    3.8569   -1.5021 O   0  0  0  1  0  0  0  0  0  0  0  0
   -1.9894    1.9424   -0.0228 O   0  0  0  1  0  0  0  0  0  0  0  0
   -1.0123    1.1349    0.6750 C   0  0  0  1  0  0  0  0  0  0  0  0
   -0.5130    1.7379    1.4043 H   0  0  0  1  0  0  0  0  0  0  0  0
   -0.2981    0.7601   -0.0281 H   0  0  0  1  0  0  0  0  0  0  0  0
   -1.6864   -0.0278    1.3676 C   0  0  0  1  0  0  0  0  0  0  0  0
   -2.0659   -0.7088    0.6347 H   0  0  0  1  0  0  0  0  0  0  0  0
   -0.7499   -0.7005    2.2299 O   0  0  0  1  0  0  0  0  0  0  0  0
   -2.8151    0.4730    2.2475 C   0  0  0  1  0  0  0  0  0  0  0  0
   -3.1602    1.4324    1.9227 H   0  0  0  1  0  0  0  0  0  0  0  0
   -3.9067   -0.4480    2.2579 O   0  0  0  1  0  0  0  0  0  0  0  0
   -3.7805   -1.0866    2.9634 H   0  0  0  1  0  0  0  0  0  0  0  0
   -2.1607    0.5614    3.6159 C   0  0  0  1  0  0  0  0  0  0  0  0
   -1.6276    1.4815    3.7344 H   0  0  0  1  0  0  0  0  0  0  0  0
   -3.1236    0.4301    4.6626 O   0  0  0  1  0  0  0  0  0  0  0  0
   -3.0207    1.1534    5.2853 H   0  0  0  1  0  0  0  0  0  0  0  0
   -1.2137   -0.6266    3.5827 C   0  0  0  1  0  0  0  0  0  0  0  0
   -1.7294   -1.5247    3.8519 H   0  0  0  1  0  0  0  0  0  0  0  0
   -0.0923   -0.4141    4.4984 N   0  0  0  1  0  0  0  0  0  0  0  0
    0.2332   -1.1649    5.5860 C   0  0  0  1  0  0  0  0  0  0  0  0
   -0.3128   -2.0031    5.8706 H   0  0  0  1  0  0  0  0  0  0  0  0
    1.2823   -0.7537    6.2450 N   0  0  0  1  0  0  0  0  0  0  0  0
    1.6972    0.3605    5.5322 C   0  0  0  1  0  0  0  0  0  0  0  0
    2.7344    1.2764    5.6807 C   0  0  0  1  0  0  0  0  0  0  0  0
    3.6470    1.2135    6.7005 N   0  0  0  1  0  0  0  0  0  0  0  0
    4.4147    1.8225    6.7094 H   0  0  0  1  0  0  0  0  0  0  0  0
    3.5320    0.5594    7.4212 H   0  0  0  1  0  0  0  0  0  0  0  0
    2.8689    2.2742    4.8003 N   0  0  0  1  0  0  0  0  0  0  0  0
    1.9744    2.3584    3.8029 C   0  0  0  1  0  0  0  0  0  0  0  0
    2.1106    3.1499    3.1422 H   0  0  0  1  0  0  0  0  0  0  0  0
    0.9394    1.5680    3.5462 N   0  0  0  1  0  0  0  0  0  0  0  0
    0.8482    0.5817    4.4394 C   0  0  0  1  0  0  0  0  0  0  0  0
  1  2  1  0  0  0  0
  1  3  1  0  0  0  0
  1  4  2  0  0  0  0
  1  8  1  0  0  0  0
  5  6  1  0  0  0  0
  5  7  2  0  0  0  0
  5  8  1  0  0  0  0
  5 12  1  0  0  0  0
  9 10  2  0  0  0  0
  9 11  1  0  0  0  0
  9 12  1  0  0  0  0
  9 13  1  0  0  0  0
 13 14  1  0  0  0  0
 14 15  1  0  0  0  0
 14 16  1  0  0  0  0
 14 17  1  0  0  0  0
 17 18  1  0  0  0  0
 17 19  1  0  0  0  0
 17 20  1  0  0  0  0
 19 28  1  0  0  0  0
 20 21  1  0  0  0  0
 20 22  1  0  0  0  0
 20 24  1  0  0  0  0
 22 23  1  0  0  0  0
 24 25  1  0  0  0  0
 24 26  1  0  0  0  0
 24 28  1  0  0  0  0
 26 27  1  0  0  0  0
 28 29  1  0  0  0  0
 28 30  1  0  0  0  0
 30 31  1  0  0  0  0
 30 43  1  0  0  0  0
 31 32  1  0  0  0  0
 31 33  2  0  0  0  0
 33 34  1  0  0  0  0
 34 35  1  0  0  0  0
 34 43  2  0  0  0  0
 35 36  1  0  0  0  0
 35 39  2  0  0  0  0
 36 37  1  0  0  0  0
 36 38  1  0  0  0  0
 39 40  1  0  0  0  0
 40 41  1  0  0  0  0
 40 42  2  0  0  0  0
 42 43  1  0  0  0  0
M  BCL ATM P_TeTeTeTePi O_Te2Te2TeTe O_Te2Te2Te2Te O_Tr2Tr2TrPi P_TeTeTeTePi O_Te2Te2TeTe O_Tr2Tr2TrPi O_Tr2TrTrPi2 P_TeTeTeTePi O_Tr2Tr2TrPi O_Te2Te2Te2Te O_Tr2TrTrPi2 O_Tr2TrTrPi2 C_TeTeTeTe H_S H_S C_TeTeTeTe H_S O_Te2Te2TeTe C_TeTeTeTe H_S O_Te2Te2TeTe H_S C_TeTeTeTe H_S O_Te2Te2TeTe H_S C_TeTeTeTe H_S N_TrTrTrPi2 C_TrTrTrPi H_S N_Tr2TrTrPi C_TrTrTrPi C_TrTrTrPi N_TrTrTrPi2 H_S H_S N_Tr2TrTrPi C_TrTrTrPi H_S N_Tr2TrTrPi C_TrTrTrPi
M  BCL BND ConjugatedSingleBond ConjugatedSingleBond ConjugatedDoubleBond ConjugatedSingleBond ConjugatedSingleBond ConjugatedDoubleBond ConjugatedSingleBond ConjugatedSingleBond ConjugatedDoubleBond ConjugatedSingleBond ConjugatedSingleBond ConjugatedSingleBond NonConjugatedSingleBond NonConjugatedSingleBond NonConjugatedSingleBond NonConjugatedSingleBond NonConjugatedSingleBond NonConjugatedSingleBondInRing NonConjugatedSingleBondInRing NonConjugatedSingleBondInRing NonConjugatedSingleBond NonConjugatedSingleBond NonConjugatedSingleBondInRing NonConjugatedSingleBond NonConjugatedSingleBond NonConjugatedSingleBond NonConjugatedSingleBondInRing NonConjugatedSingleBond NonConjugatedSingleBond NonConjugatedSingleBond AromaticSingleBond AromaticSingleBond NonConjugatedSingleBond AromaticDoubleBond AromaticSingleBond AromaticSingleBond AromaticDoubleBond ConjugatedSingleBond AromaticDoubleBond NonConjugatedSingleBond NonConjugatedSingleBond AromaticSingleBond NonConjugatedSingleBond AromaticDoubleBond AromaticSingleBond
M  BCL CHI   1   S   5   S   9   S  17   R  20   S  24   R  28   S
M  BCL DBI - - - - - - -
M  END
> <ConfClashScore>
0 

> <ConfOneFourInteractionScore>
-0.981204 

> <ConfScore>
-0.013718 

> <ConfScorePBest>
0.0145835 

> <ConfTolerance>
1.25025 

$$$$
ATP.****
  PyMOL2.5          3D                             0

 43 45  0  0  0  0  0  0  0  0999 V2000
    0.9740    5.2787   -3.6942 P   0  0  0  1  0  0  0  0  0  0  0  0
    1.5341    4.4578   -4.9987 O   0  0  0  0  0  0  0  0  0  0  0  0
   -0.5746    5.7225   -3.8653 O   0  5  0  1  0  0  0  0  0  0  0  0
    1.6507    6.5077   -3.2228 O   0  0  0  1  0  0  0  0  0  0  0  0
    1.0499    4.2902   -0.9489 P   0  0  0  1  0  0  0  0  0  0  0  0
    2.3624    3.8155   -0.4088 O   0  0  0  0  0  0  0  0  0  0  0  0
    0.6836    5.6199   -0.5001 O   0  0  0  1  0  0  0  0  0  0  0  0
    0.9187    4.1567   -2.5500 O   0  0  0  1  0  0  0  0  0  0  0  0
   -0.5937    1.8567   -0.9690 P   0  0  0  1  0  0  0  0  0  0  0  0
    0.4177    1.2301   -1.8493 O   0  0  0  1  0  0  0  0  0  0  0  0
   -1.9034    2.2007   -1.8582 O   0  5  0  1  0  0  0  0  0  0  0  0
   -0.0744    3.2703   -0.4227 O   0  0  0  1  0  0  0  0  0  0  0  0
   -0.9987    1.0717    0.3333 O   0  0  0  1  0  0  0  0  0  0  0  0
   -1.7255   -0.1768    0.2510 C   0  0  0  1  0  0  0  0  0  0  0  0
   -1.1414   -0.9274   -0.2392 H   0  0  0  1  0  0  0  0  0  0  0  0
   -2.6506   -0.0468   -0.2708 H   0  0  0  1  0  0  0  0  0  0  0  0
   -1.9682   -0.5408    1.6967 C   0  0  0  1  0  0  0  0  0  0  0  0
   -2.5978   -1.4045    1.7467 H   0  0  0  1  0  0  0  0  0  0  0  0
   -0.7555   -0.7713    2.3610 O   0  0  0  1  0  0  0  0  0  0  0  0
   -2.5980    0.6361    2.4556 C   0  0  0  1  0  0  0  0  0  0  0  0
   -2.2305    1.5720    2.0896 H   0  0  0  1  0  0  0  0  0  0  0  0
   -4.0225    0.6108    2.3545 O   0  0  0  1  0  0  0  0  0  0  0  0
   -4.3250    1.3961    1.8926 H   0  0  0  1  0  0  0  0  0  0  0  0
   -2.1498    0.3936    3.8730 C   0  0  0  1  0  0  0  0  0  0  0  0
   -2.0974    1.3110    4.4212 H   0  0  0  1  0  0  0  0  0  0  0  0
   -3.0302   -0.5113    4.5409 O   0  0  0  1  0  0  0  0  0  0  0  0
   -3.5682   -0.9720    3.8929 H   0  0  0  1  0  0  0  0  0  0  0  0
   -0.7584   -0.2221    3.6980 C   0  0  0  1  0  0  0  0  0  0  0  0
   -0.5955   -0.9936    4.4213 H   0  0  0  1  0  0  0  0  0  0  0  0
    0.2775    0.8023    3.8348 N   0  0  0  1  0  0  0  0  0  0  0  0
    1.5383    0.6141    4.3119 C   0  0  0  1  0  0  0  0  0  0  0  0
    1.9453   -0.3316    4.4588 H   0  0  0  1  0  0  0  0  0  0  0  0
    2.1983    1.7101    4.5710 N   0  0  0  1  0  0  0  0  0  0  0  0
    1.3060    2.7146    4.2300 C   0  0  0  1  0  0  0  0  0  0  0  0
    1.3511    4.1052    4.2637 C   0  0  0  1  0  0  0  0  0  0  0  0
    2.4443    4.8072    4.6987 N   0  0  0  1  0  0  0  0  0  0  0  0
    2.4497    5.7859    4.6488 H   0  0  0  1  0  0  0  0  0  0  0  0
    3.2208    4.3307    5.0596 H   0  0  0  1  0  0  0  0  0  0  0  0
    0.2914    4.8130    3.8580 N   0  0  0  1  0  0  0  0  0  0  0  0
   -0.7932    4.1401    3.4422 C   0  0  0  1  0  0  0  0  0  0  0  0
   -1.5972    4.7260    3.1391 H   0  0  0  1  0  0  0  0  0  0  0  0
   -0.9780    2.8279    3.3657 N   0  0  0  1  0  0  0  0  0  0  0  0
    0.1045    2.1607    3.7681 C   0  0  0  1  0  0  0  0  0  0  0  0
  1  2  1  0  0  0  0
  1  3  1  0  0  0  0
  1  4  2  0  0  0  0
  1  8  1  0  0  0  0
  5  6  1  0  0  0  0
  5  7  2  0  0  0  0
  5  8  1  0  0  0  0
  5 12  1  0  0  0  0
  9 10  2  0  0  0  0
  9 11  1  0  0  0  0
  9 12  1  0  0  0  0
  9 13  1  0  0  0  0
 13 14  1  0  0  0  0
 14 15  1  0  0  0  0
 14 16  1  0  0  0  0
 14 17  1  0  0  0  0
 17 18  1  0  0  0  0
 17 19  1  0  0  0  0
 17 20  1  0  0  0  0
 19 28  1  0  0  0  0
 20 21  1  0  0  0  0
 20 22  1  0  0  0  0
 20 24  1  0  0  0  0
 22 23  1  0  0  0  0
 24 25  1  0  0  0  0
 24 26  1  0  0  0  0
 24 28  1  0  0  0  0
 26 27  1  0  0  0  0
 28 29  1  0  0  0  0
 28 30  1  0  0  0  0
 30 31  1  0  0  0  0
 30 43  1  0  0  0  0
 31 32  1  0  0  0  0
 31 33  2  0  0  0  0
 33 34  1  0  0  0  0
 34 35  1  0  0  0  0
 34 43  2  0  0  0  0
 35 36  1  0  0  0  0
 35 39  2  0  0  0  0
 36 37  1  0  0  0  0
 36 38  1  0  0  0  0
 39 40  1  0  0  0  0
 40 41  1  0  0  0  0
 40 42  2  0  0  0  0
 42 43  1  0  0  0  0
M  BCL ATM P_TeTeTeTePi O_Te2Te2TeTe O_Te2Te2Te2Te O_Tr2Tr2TrPi P_TeTeTeTePi O_Te2Te2TeTe O_Tr2Tr2TrPi O_Tr2TrTrPi2 P_TeTeTeTePi O_Tr2Tr2TrPi O_Te2Te2Te2Te O_Tr2TrTrPi2 O_Tr2TrTrPi2 C_TeTeTeTe H_S H_S C_TeTeTeTe H_S O_Te2Te2TeTe C_TeTeTeTe H_S O_Te2Te2TeTe H_S C_TeTeTeTe H_S O_Te2Te2TeTe H_S C_TeTeTeTe H_S N_TrTrTrPi2 C_TrTrTrPi H_S N_Tr2TrTrPi C_TrTrTrPi C_TrTrTrPi N_TrTrTrPi2 H_S H_S N_Tr2TrTrPi C_TrTrTrPi H_S N_Tr2TrTrPi C_TrTrTrPi
M  BCL BND ConjugatedSingleBond ConjugatedSingleBond ConjugatedDoubleBond ConjugatedSingleBond ConjugatedSingleBond ConjugatedDoubleBond ConjugatedSingleBond ConjugatedSingleBond ConjugatedDoubleBond ConjugatedSingleBond ConjugatedSingleBond ConjugatedSingleBond NonConjugatedSingleBond NonConjugatedSingleBond NonConjugatedSingleBond NonConjugatedSingleBond NonConjugatedSingleBond NonConjugatedSingleBondInRing NonConjugatedSingleBondInRing NonConjugatedSingleBondInRing NonConjugatedSingleBond NonConjugatedSingleBond NonConjugatedSingleBondInRing NonConjugatedSingleBond NonConjugatedSingleBond NonConjugatedSingleBond NonConjugatedSingleBondInRing NonConjugatedSingleBond NonConjugatedSingleBond NonConjugatedSingleBond AromaticSingleBond AromaticSingleBond NonConjugatedSingleBond AromaticDoubleBond AromaticSingleBond AromaticSingleBond AromaticDoubleBond ConjugatedSingleBond AromaticDoubleBond NonConjugatedSingleBond NonConjugatedSingleBond AromaticSingleBond NonConjugatedSingleBond AromaticDoubleBond AromaticSingleBond
M  BCL CHI   1   S   5   S   9   S  17   R  20   S  24   R  28   S
M  BCL DBI - - - - - - -
M  END
> <ConfClashScore>
0 

> <ConfOneFourInteractionScore>
-0.983413 

> <ConfScore>
-0.0121985 

> <ConfScorePBest>
0.0144805 

> <ConfTolerance>
1.33188 

$$$$
ATP.****
  PyMOL2.5          3D                             0

 43 45  0  0  0  0  0  0  0  0999 V2000
   -1.2690    7.6073    1.2597 P   0  0  0  1  0  0  0  0  0  0  0  0
   -2.4967    6.5617    1.5587 O   0  0  0  0  0  0  0  0  0  0  0  0
   -0.8849    8.3274    2.6591 O   0  5  0  1  0  0  0  0  0  0  0  0
   -1.7280    8.6044    0.2669 O   0  0  0  1  0  0  0  0  0  0  0  0
    0.0662    5.6659   -0.5373 P   0  0  0  1  0  0  0  0  0  0  0  0
   -0.9637    5.9571   -1.5598 O   0  0  0  0  0  0  0  0  0  0  0  0
    1.5027    5.7172   -0.8496 O   0  0  0  1  0  0  0  0  0  0  0  0
   -0.0991    6.6660    0.7088 O   0  0  0  1  0  0  0  0  0  0  0  0
   -0.9322    2.9631   -0.6418 P   0  0  0  1  0  0  0  0  0  0  0  0
   -0.0970    2.6684   -1.8276 O   0  0  0  1  0  0  0  0  0  0  0  0
   -2.3856    3.4087   -1.2018 O   0  5  0  1  0  0  0  0  0  0  0  0
   -0.3269    4.2502    0.1048 O   0  0  0  1  0  0  0  0  0  0  0  0
   -1.0887    1.7809    0.3826 O   0  0  0  1  0  0  0  0  0  0  0  0
   -1.5985    0.4470    0.1487 C   0  0  0  1  0  0  0  0  0  0  0  0
   -0.8945   -0.1163   -0.4274 H   0  0  0  1  0  0  0  0  0  0  0  0
   -2.5292    0.4996   -0.3766 H   0  0  0  1  0  0  0  0  0  0  0  0
   -1.8035   -0.2081    1.4942 C   0  0  0  1  0  0  0  0  0  0  0  0
   -2.2395   -1.1757    1.3576 H   0  0  0  1  0  0  0  0  0  0  0  0
   -0.5512   -0.3103    2.2064 O   0  0  0  1  0  0  0  0  0  0  0  0
   -2.6987    0.6693    2.3955 C   0  0  0  1  0  0  0  0  0  0  0  0
   -2.6534    1.6946    2.0929 H   0  0  0  1  0  0  0  0  0  0  0  0
   -4.0539    0.2199    2.3554 O   0  0  0  1  0  0  0  0  0  0  0  0
   -4.1125   -0.5738    1.8186 H   0  0  0  1  0  0  0  0  0  0  0  0
   -2.1021    0.4880    3.8109 C   0  0  0  1  0  0  0  0  0  0  0  0
   -1.7656    1.4242    4.2047 H   0  0  0  1  0  0  0  0  0  0  0  0
   -3.0641   -0.0844    4.6980 O   0  0  0  1  0  0  0  0  0  0  0  0
   -3.5847    0.6146    5.1005 H   0  0  0  1  0  0  0  0  0  0  0  0
   -0.9143   -0.4749    3.5936 C   0  0  0  1  0  0  0  0  0  0  0  0
   -1.2084   -1.4851    3.7883 H   0  0  0  1  0  0  0  0  0  0  0  0
    0.2053   -0.1157    4.4647 N   0  0  0  1  0  0  0  0  0  0  0  0
    1.3927    0.4251    4.0769 C   0  0  0  1  0  0  0  0  0  0  0  0
    1.5636    0.7628    3.1082 H   0  0  0  1  0  0  0  0  0  0  0  0
    2.3008    0.4880    5.0125 N   0  0  0  1  0  0  0  0  0  0  0  0
    1.6630   -0.0480    6.1204 C   0  0  0  1  0  0  0  0  0  0  0  0
    2.0443   -0.2901    7.4368 C   0  0  0  1  0  0  0  0  0  0  0  0
    3.2834   -0.0238    8.0268 N   0  0  0  1  0  0  0  0  0  0  0  0
    3.9665    0.4723    7.5292 H   0  0  0  1  0  0  0  0  0  0  0  0
    3.4689   -0.3333    8.9379 H   0  0  0  1  0  0  0  0  0  0  0  0
    1.1725   -0.8396    8.2893 N   0  0  0  1  0  0  0  0  0  0  0  0
   -0.0485   -1.1517    7.8268 C   0  0  0  1  0  0  0  0  0  0  0  0
   -0.6955   -1.5806    8.5189 H   0  0  0  1  0  0  0  0  0  0  0  0
   -0.5415   -0.9869    6.6054 N   0  0  0  1  0  0  0  0  0  0  0  0
    0.3546   -0.4271    5.7915 C   0  0  0  1  0  0  0  0  0  0  0  0
  1  2  1  0  0  0  0
  1  3  1  0  0  0  0
  1  4  2  0  0  0  0
  1  8  1  0  0  0  0
  5  6  1  0  0  0  0
  5  7  2  0  0  0  0
  5  8  1  0  0  0  0
  5 12  1  0  0  0  0
  9 10  2  0  0  0  0
  9 11  1  0  0  0  0
  9 12  1  0  0  0  0
  9 13  1  0  0  0  0
 13 14  1  0  0  0  0
 14 15  1  0  0  0  0
 14 16  1  0  0  0  0
 14 17  1  0  0  0  0
 17 18  1  0  0  0  0
 17 19  1  0  0  0  0
 17 20  1  0  0  0  0
 19 28  1  0  0  0  0
 20 21  1  0  0  0  0
 20 22  1  0  0  0  0
 20 24  1  0  0  0  0
 22 23  1  0  0  0  0
 24 25  1  0  0  0  0
 24 26  1  0  0  0  0
 24 28  1  0  0  0  0
 26 27  1  0  0  0  0
 28 29  1  0  0  0  0
 28 30  1  0  0  0  0
 30 31  1  0  0  0  0
 30 43  1  0  0  0  0
 31 32  1  0  0  0  0
 31 33  2  0  0  0  0
 33 34  1  0  0  0  0
 34 35  1  0  0  0  0
 34 43  2  0  0  0  0
 35 36  1  0  0  0  0
 35 39  2  0  0  0  0
 36 37  1  0  0  0  0
 36 38  1  0  0  0  0
 39 40  1  0  0  0  0
 40 41  1  0  0  0  0
 40 42  2  0  0  0  0
 42 43  1  0  0  0  0
M  BCL ATM P_TeTeTeTePi O_Te2Te2TeTe O_Te2Te2Te2Te O_Tr2Tr2TrPi P_TeTeTeTePi O_Te2Te2TeTe O_Tr2Tr2TrPi O_Tr2TrTrPi2 P_TeTeTeTePi O_Tr2Tr2TrPi O_Te2Te2Te2Te O_Tr2TrTrPi2 O_Tr2TrTrPi2 C_TeTeTeTe H_S H_S C_TeTeTeTe H_S O_Te2Te2TeTe C_TeTeTeTe H_S O_Te2Te2TeTe H_S C_TeTeTeTe H_S O_Te2Te2TeTe H_S C_TeTeTeTe H_S N_TrTrTrPi2 C_TrTrTrPi H_S N_Tr2TrTrPi C_TrTrTrPi C_TrTrTrPi N_TrTrTrPi2 H_S H_S N_Tr2TrTrPi C_TrTrTrPi H_S N_Tr2TrTrPi C_TrTrTrPi
M  BCL BND ConjugatedSingleBond ConjugatedSingleBond ConjugatedDoubleBond ConjugatedSingleBond ConjugatedSingleBond ConjugatedDoubleBond ConjugatedSingleBond ConjugatedSingleBond ConjugatedDoubleBond ConjugatedSingleBond ConjugatedSingleBond ConjugatedSingleBond NonConjugatedSingleBond NonConjugatedSingleBond NonConjugatedSingleBond NonConjugatedSingleBond NonConjugatedSingleBond NonConjugatedSingleBondInRing NonConjugatedSingleBondInRing NonConjugatedSingleBondInRing NonConjugatedSingleBond NonConjugatedSingleBond NonConjugatedSingleBondInRing NonConjugatedSingleBond NonConjugatedSingleBond NonConjugatedSingleBond NonConjugatedSingleBondInRing NonConjugatedSingleBond NonConjugatedSingleBond NonConjugatedSingleBond AromaticSingleBond AromaticSingleBond NonConjugatedSingleBond AromaticDoubleBond AromaticSingleBond AromaticSingleBond AromaticDoubleBond ConjugatedSingleBond AromaticDoubleBond NonConjugatedSingleBond NonConjugatedSingleBond AromaticSingleBond NonConjugatedSingleBond AromaticDoubleBond AromaticSingleBond
M  BCL CHI   1   S   5   S   9   S  17   R  20   S  24   R  28   S
M  BCL DBI - - - - - - -
M  END
> <ConfClashScore>
0 

> <ConfOneFourInteractionScore>
-0.982844 

> <ConfScore>
-0.0109022 

> <ConfScorePBest>
0.0143775 

> <ConfTolerance>
1.16246 

$$$$
ATP.****
  PyMOL2.5          3D                             0

 43 45  0  0  0  0  0  0  0  0999 V2000
    3.0140   -4.5098   -4.0200 P   0  0  0  1  0  0  0  0  0  0  0  0
    2.9004   -5.0260   -5.5725 O   0  0  0  0  0  0  0  0  0  0  0  0
    4.4706   -3.8322   -3.8116 O   0  5  0  1  0  0  0  0  0  0  0  0
    2.8421   -5.6907   -3.1446 O   0  0  0  1  0  0  0  0  0  0  0  0
    2.0914   -2.0564   -2.7446 P   0  0  0  1  0  0  0  0  0  0  0  0
    2.4753   -2.3851   -1.3333 O   0  0  0  0  0  0  0  0  0  0  0  0
    2.9084   -1.0499   -3.4316 O   0  0  0  1  0  0  0  0  0  0  0  0
    1.9719   -3.3284   -3.7206 O   0  0  0  1  0  0  0  0  0  0  0  0
   -0.1758   -0.2500   -2.1299 P   0  0  0  1  0  0  0  0  0  0  0  0
   -1.3503    0.2198   -2.8981 O   0  0  0  1  0  0  0  0  0  0  0  0
    0.8379    0.9945   -1.9105 O   0  5  0  1  0  0  0  0  0  0  0  0
    0.6018   -1.4780   -2.8138 O   0  0  0  1  0  0  0  0  0  0  0  0
   -0.5446   -0.5624   -0.6324 O   0  0  0  1  0  0  0  0  0  0  0  0
   -1.4466    0.2965    0.1041 C   0  0  0  1  0  0  0  0  0  0  0  0
   -2.3799    0.3742   -0.4135 H   0  0  0  1  0  0  0  0  0  0  0  0
   -1.0160    1.2701    0.2120 H   0  0  0  1  0  0  0  0  0  0  0  0
   -1.6638   -0.3269    1.4705 C   0  0  0  1  0  0  0  0  0  0  0  0
   -2.0005   -1.3358    1.3533 H   0  0  0  1  0  0  0  0  0  0  0  0
   -0.4478   -0.2835    2.2486 O   0  0  0  1  0  0  0  0  0  0  0  0
   -2.6837    0.4953    2.2875 C   0  0  0  1  0  0  0  0  0  0  0  0
   -2.7169    1.5082    1.9442 H   0  0  0  1  0  0  0  0  0  0  0  0
   -3.9957   -0.0850    2.1977 O   0  0  0  1  0  0  0  0  0  0  0  0
   -4.6563    0.5854    2.3867 H   0  0  0  1  0  0  0  0  0  0  0  0
   -2.1503    0.4245    3.7375 C   0  0  0  1  0  0  0  0  0  0  0  0
   -1.9237    1.4025    4.1077 H   0  0  0  1  0  0  0  0  0  0  0  0
   -3.1020   -0.2025    4.5986 O   0  0  0  1  0  0  0  0  0  0  0  0
   -3.5747    0.4686    5.0964 H   0  0  0  1  0  0  0  0  0  0  0  0
   -0.8687   -0.4294    3.6215 C   0  0  0  1  0  0  0  0  0  0  0  0
   -1.0783   -1.4548    3.8438 H   0  0  0  1  0  0  0  0  0  0  0  0
    0.1641    0.0665    4.5318 N   0  0  0  1  0  0  0  0  0  0  0  0
    0.8096   -0.5967    5.5299 C   0  0  0  1  0  0  0  0  0  0  0  0
    0.6767   -1.6136    5.7028 H   0  0  0  1  0  0  0  0  0  0  0  0
    1.6081    0.1398    6.2538 N   0  0  0  1  0  0  0  0  0  0  0  0
    1.4925    1.3989    5.6855 C   0  0  0  1  0  0  0  0  0  0  0  0
    2.0516    2.6431    5.9617 C   0  0  0  1  0  0  0  0  0  0  0  0
    2.9374    2.8540    6.9853 N   0  0  0  1  0  0  0  0  0  0  0  0
    3.3492    3.7354    7.1031 H   0  0  0  1  0  0  0  0  0  0  0  0
    3.1591    2.1234    7.5997 H   0  0  0  1  0  0  0  0  0  0  0  0
    1.7256    3.6986    5.2077 N   0  0  0  1  0  0  0  0  0  0  0  0
    0.8478    3.5118    4.2093 C   0  0  0  1  0  0  0  0  0  0  0  0
    0.6172    4.3572    3.6492 H   0  0  0  1  0  0  0  0  0  0  0  0
    0.2345    2.3939    3.8406 N   0  0  0  1  0  0  0  0  0  0  0  0
    0.5954    1.3656    4.6095 C   0  0  0  1  0  0  0  0  0  0  0  0
  1  2  1  0  0  0  0
  1  3  1  0  0  0  0
  1  4  2  0  0  0  0
  1  8  1  0  0  0  0
  5  6  1  0  0  0  0
  5  7  2  0  0  0  0
  5  8  1  0  0  0  0
  5 12  1  0  0  0  0
  9 10  2  0  0  0  0
  9 11  1  0  0  0  0
  9 12  1  0  0  0  0
  9 13  1  0  0  0  0
 13 14  1  0  0  0  0
 14 15  1  0  0  0  0
 14 16  1  0  0  0  0
 14 17  1  0  0  0  0
 17 18  1  0  0  0  0
 17 19  1  0  0  0  0
 17 20  1  0  0  0  0
 19 28  1  0  0  0  0
 20 21  1  0  0  0  0
 20 22  1  0  0  0  0
 20 24  1  0  0  0  0
 22 23  1  0  0  0  0
 24 25  1  0  0  0  0
 24 26  1  0  0  0  0
 24 28  1  0  0  0  0
 26 27  1  0  0  0  0
 28 29  1  0  0  0  0
 28 30  1  0  0  0  0
 30 31  1  0  0  0  0
 30 43  1  0  0  0  0
 31 32  1  0  0  0  0
 31 33  2  0  0  0  0
 33 34  1  0  0  0  0
 34 35  1  0  0  0  0
 34 43  2  0  0  0  0
 35 36  1  0  0  0  0
 35 39  2  0  0  0  0
 36 37  1  0  0  0  0
 36 38  1  0  0  0  0
 39 40  1  0  0  0  0
 40 41  1  0  0  0  0
 40 42  2  0  0  0  0
 42 43  1  0  0  0  0
M  BCL ATM P_TeTeTeTePi O_Te2Te2TeTe O_Te2Te2Te2Te O_Tr2Tr2TrPi P_TeTeTeTePi O_Te2Te2TeTe O_Tr2Tr2TrPi O_Tr2TrTrPi2 P_TeTeTeTePi O_Tr2Tr2TrPi O_Te2Te2Te2Te O_Tr2TrTrPi2 O_Tr2TrTrPi2 C_TeTeTeTe H_S H_S C_TeTeTeTe H_S O_Te2Te2TeTe C_TeTeTeTe H_S O_Te2Te2TeTe H_S C_TeTeTeTe H_S O_Te2Te2TeTe H_S C_TeTeTeTe H_S N_TrTrTrPi2 C_TrTrTrPi H_S N_Tr2TrTrPi C_TrTrTrPi C_TrTrTrPi N_TrTrTrPi2 H_S H_S N_Tr2TrTrPi C_TrTrTrPi H_S N_Tr2TrTrPi C_TrTrTrPi
M  BCL BND ConjugatedSingleBond ConjugatedSingleBond ConjugatedDoubleBond ConjugatedSingleBond ConjugatedSingleBond ConjugatedDoubleBond ConjugatedSingleBond ConjugatedSingleBond ConjugatedDoubleBond ConjugatedSingleBond ConjugatedSingleBond ConjugatedSingleBond NonConjugatedSingleBond NonConjugatedSingleBond NonConjugatedSingleBond NonConjugatedSingleBond NonConjugatedSingleBond NonConjugatedSingleBondInRing NonConjugatedSingleBondInRing NonConjugatedSingleBondInRing NonConjugatedSingleBond NonConjugatedSingleBond NonConjugatedSingleBondInRing NonConjugatedSingleBond NonConjugatedSingleBond NonConjugatedSingleBond NonConjugatedSingleBondInRing NonConjugatedSingleBond NonConjugatedSingleBond NonConjugatedSingleBond AromaticSingleBond AromaticSingleBond NonConjugatedSingleBond AromaticDoubleBond AromaticSingleBond AromaticSingleBond AromaticDoubleBond ConjugatedSingleBond AromaticDoubleBond NonConjugatedSingleBond NonConjugatedSingleBond AromaticSingleBond NonConjugatedSingleBond AromaticDoubleBond AromaticSingleBond
M  BCL CHI   1   S   5   S   9   S  17   R  20   S  24   R  28   S
M  BCL DBI - - - - - - -
M  END
> <ConfClashScore>
0 

> <ConfOneFourInteractionScore>
-0.984135 

> <ConfScore>
-0.00693085 

> <ConfScorePBest>
0.0142745 

> <ConfTolerance>
1.26738 

$$$$
ATP.****
  PyMOL2.5          3D                             0

 43 45  0  0  0  0  0  0  0  0999 V2000
   -1.8987    2.8049   -5.5581 P   0  0  0  1  0  0  0  0  0  0  0  0
   -0.4777    3.3150   -6.1984 O   0  0  0  0  0  0  0  0  0  0  0  0
   -2.6195    1.9817   -6.7527 O   0  5  0  1  0  0  0  0  0  0  0  0
   -2.5750    4.0117   -5.0319 O   0  0  0  1  0  0  0  0  0  0  0  0
   -2.2806    1.0595   -3.2548 P   0  0  0  1  0  0  0  0  0  0  0  0
   -3.6825    0.8699   -3.7681 O   0  0  0  0  0  0  0  0  0  0  0  0
   -1.5792   -0.1312   -2.7053 O   0  0  0  1  0  0  0  0  0  0  0  0
   -1.4299    1.7961   -4.4032 O   0  0  0  1  0  0  0  0  0  0  0  0
   -1.0163    2.3772   -1.0947 P   0  0  0  1  0  0  0  0  0  0  0  0
   -0.8525    3.8473   -1.1448 O   0  0  0  1  0  0  0  0  0  0  0  0
    0.1845    1.6319   -1.8864 O   0  5  0  1  0  0  0  0  0  0  0  0
   -2.2828    2.1648   -2.0735 O   0  0  0  1  0  0  0  0  0  0  0  0
   -1.2398    1.5373    0.2171 O   0  0  0  1  0  0  0  0  0  0  0  0
   -1.5731    0.1266    0.1494 C   0  0  0  1  0  0  0  0  0  0  0  0
   -0.7725   -0.4154   -0.3090 H   0  0  0  1  0  0  0  0  0  0  0  0
   -2.4686   -0.0094   -0.4201 H   0  0  0  1  0  0  0  0  0  0  0  0
   -1.7831   -0.3639    1.5641 C   0  0  0  1  0  0  0  0  0  0  0  0
   -2.2124   -1.3437    1.5423 H   0  0  0  1  0  0  0  0  0  0  0  0
   -0.5348   -0.3713    2.2906 O   0  0  0  1  0  0  0  0  0  0  0  0
   -2.6893    0.6096    2.3482 C   0  0  0  1  0  0  0  0  0  0  0  0
   -2.6481    1.5914    1.9247 H   0  0  0  1  0  0  0  0  0  0  0  0
   -4.0415    0.1495    2.3546 O   0  0  0  1  0  0  0  0  0  0  0  0
   -4.6155    0.8366    2.0080 H   0  0  0  1  0  0  0  0  0  0  0  0
   -2.1008    0.6037    3.7785 C   0  0  0  1  0  0  0  0  0  0  0  0
   -1.7725    1.5828    4.0588 H   0  0  0  1  0  0  0  0  0  0  0  0
   -3.0652    0.1357    4.7225 O   0  0  0  1  0  0  0  0  0  0  0  0
   -3.2130   -0.8036    4.5907 H   0  0  0  1  0  0  0  0  0  0  0  0
   -0.9060   -0.3704    3.6855 C   0  0  0  1  0  0  0  0  0  0  0  0
   -1.1953   -1.3518    3.9985 H   0  0  0  1  0  0  0  0  0  0  0  0
    0.2057    0.0984    4.5134 N   0  0  0  1  0  0  0  0  0  0  0  0
    0.8368    1.3020    4.4357 C   0  0  0  1  0  0  0  0  0  0  0  0
    0.5634    2.0334    3.7488 H   0  0  0  1  0  0  0  0  0  0  0  0
    1.8108    1.4691    5.2884 N   0  0  0  1  0  0  0  0  0  0  0  0
    1.8257    0.2803    6.0012 C   0  0  0  1  0  0  0  0  0  0  0  0
    2.6059   -0.2185    7.0402 C   0  0  0  1  0  0  0  0  0  0  0  0
    3.6309    0.4888    7.6112 N   0  0  0  1  0  0  0  0  0  0  0  0
    3.8441    1.3893    7.2887 H   0  0  0  1  0  0  0  0  0  0  0  0
    4.1508    0.0943    8.3423 H   0  0  0  1  0  0  0  0  0  0  0  0
    2.3646   -1.4425    7.5220 N   0  0  0  1  0  0  0  0  0  0  0  0
    1.3728   -2.1544    6.9638 C   0  0  0  1  0  0  0  0  0  0  0  0
    1.2195   -3.1022    7.3633 H   0  0  0  1  0  0  0  0  0  0  0  0
    0.5614   -1.8119    5.9707 N   0  0  0  1  0  0  0  0  0  0  0  0
    0.8280   -0.5824    5.5278 C   0  0  0  1  0  0  0  0  0  0  0  0
  1  2  1  0  0  0  0
  1  3  1  0  0  0  0
  1  4  2  0  0  0  0
  1  8  1  0  0  0  0
  5  6  1  0  0  0  0
  5  7  2  0  0  0  0
  5  8  1  0  0  0  0
  5 12  1  0  0  0  0
  9 10  2  0  0  0  0
  9 11  1  0  0  0  0
  9 12  1  0  0  0  0
  9 13  1  0  0  0  0
 13 14  1  0  0  0  0
 14 15  1  0  0  0  0
 14 16  1  0  0  0  0
 14 17  1  0  0  0  0
 17 18  1  0  0  0  0
 17 19  1  0  0  0  0
 17 20  1  0  0  0  0
 19 28  1  0  0  0  0
 20 21  1  0  0  0  0
 20 22  1  0  0  0  0
 20 24  1  0  0  0  0
 22 23  1  0  0  0  0
 24 25  1  0  0  0  0
 24 26  1  0  0  0  0
 24 28  1  0  0  0  0
 26 27  1  0  0  0  0
 28 29  1  0  0  0  0
 28 30  1  0  0  0  0
 30 31  1  0  0  0  0
 30 43  1  0  0  0  0
 31 32  1  0  0  0  0
 31 33  2  0  0  0  0
 33 34  1  0  0  0  0
 34 35  1  0  0  0  0
 34 43  2  0  0  0  0
 35 36  1  0  0  0  0
 35 39  2  0  0  0  0
 36 37  1  0  0  0  0
 36 38  1  0  0  0  0
 39 40  1  0  0  0  0
 40 41  1  0  0  0  0
 40 42  2  0  0  0  0
 42 43  1  0  0  0  0
M  BCL ATM P_TeTeTeTePi O_Te2Te2TeTe O_Te2Te2Te2Te O_Tr2Tr2TrPi P_TeTeTeTePi O_Te2Te2TeTe O_Tr2Tr2TrPi O_Tr2TrTrPi2 P_TeTeTeTePi O_Tr2Tr2TrPi O_Te2Te2Te2Te O_Tr2TrTrPi2 O_Tr2TrTrPi2 C_TeTeTeTe H_S H_S C_TeTeTeTe H_S O_Te2Te2TeTe C_TeTeTeTe H_S O_Te2Te2TeTe H_S C_TeTeTeTe H_S O_Te2Te2TeTe H_S C_TeTeTeTe H_S N_TrTrTrPi2 C_TrTrTrPi H_S N_Tr2TrTrPi C_TrTrTrPi C_TrTrTrPi N_TrTrTrPi2 H_S H_S N_Tr2TrTrPi C_TrTrTrPi H_S N_Tr2TrTrPi C_TrTrTrPi
M  BCL BND ConjugatedSingleBond ConjugatedSingleBond ConjugatedDoubleBond ConjugatedSingleBond ConjugatedSingleBond ConjugatedDoubleBond ConjugatedSingleBond ConjugatedSingleBond ConjugatedDoubleBond ConjugatedSingleBond ConjugatedSingleBond ConjugatedSingleBond NonConjugatedSingleBond NonConjugatedSingleBond NonConjugatedSingleBond NonConjugatedSingleBond NonConjugatedSingleBond NonConjugatedSingleBondInRing NonConjugatedSingleBondInRing NonConjugatedSingleBondInRing NonConjugatedSingleBond NonConjugatedSingleBond NonConjugatedSingleBondInRing NonConjugatedSingleBond NonConjugatedSingleBond NonConjugatedSingleBond NonConjugatedSingleBondInRing NonConjugatedSingleBond NonConjugatedSingleBond NonConjugatedSingleBond AromaticSingleBond AromaticSingleBond NonConjugatedSingleBond AromaticDoubleBond AromaticSingleBond AromaticSingleBond AromaticDoubleBond ConjugatedSingleBond AromaticDoubleBond NonConjugatedSingleBond NonConjugatedSingleBond AromaticSingleBond NonConjugatedSingleBond AromaticDoubleBond AromaticSingleBond
M  BCL CHI   1   S   5   S   9   S  17   R  20   S  24   R  28   S
M  BCL DBI - - - - - - -
M  END
> <ConfClashScore>
0 

> <ConfOneFourInteractionScore>
-0.980483 

> <ConfScore>
-0.00664704 

> <ConfScorePBest>
0.0141715 

> <ConfTolerance>
1.14722 

$$$$
ATP.****
  PyMOL2.5          3D                             0

 43 45  0  0  0  0  0  0  0  0999 V2000
   -4.7231    1.9186   -4.8309 P   0  0  0  1  0  0  0  0  0  0  0  0
   -6.2141    1.3243   -4.4943 O   0  0  0  0  0  0  0  0  0  0  0  0
   -5.0116    2.9859   -6.0150 O   0  5  0  1  0  0  0  0  0  0  0  0
   -3.8234    0.8676   -5.3565 O   0  0  0  1  0  0  0  0  0  0  0  0
   -2.5695    3.1530   -3.3576 P   0  0  0  1  0  0  0  0  0  0  0  0
   -1.7379    2.6761   -4.4771 O   0  0  0  0  0  0  0  0  0  0  0  0
   -2.6703    4.5817   -3.0226 O   0  0  0  1  0  0  0  0  0  0  0  0
   -4.0937    2.6928   -3.5709 O   0  0  0  1  0  0  0  0  0  0  0  0
   -0.7927    2.2812   -1.1881 P   0  0  0  1  0  0  0  0  0  0  0  0
   -0.1679    3.6110   -1.0101 O   0  0  0  1  0  0  0  0  0  0  0  0
    0.2892    1.3037   -1.8941 O   0  5  0  1  0  0  0  0  0  0  0  0
   -2.1282    2.2953   -2.0728 O   0  0  0  1  0  0  0  0  0  0  0  0
   -1.1465    1.6281    0.2031 O   0  0  0  1  0  0  0  0  0  0  0  0
   -1.6411    0.2689    0.1609 C   0  0  0  1  0  0  0  0  0  0  0  0
   -0.9222   -0.3525   -0.3311 H   0  0  0  1  0  0  0  0  0  0  0  0
   -2.5633    0.2463   -0.3813 H   0  0  0  1  0  0  0  0  0  0  0  0
   -1.8740   -0.2518    1.5610 C   0  0  0  1  0  0  0  0  0  0  0  0
   -2.3885   -1.1887    1.5127 H   0  0  0  1  0  0  0  0  0  0  0  0
   -0.6212   -0.3951    2.2654 O   0  0  0  1  0  0  0  0  0  0  0  0
   -2.6794    0.7688    2.3938 C   0  0  0  1  0  0  0  0  0  0  0  0
   -2.5574    1.7577    2.0039 H   0  0  0  1  0  0  0  0  0  0  0  0
   -4.0668    0.4295    2.4074 O   0  0  0  1  0  0  0  0  0  0  0  0
   -4.2523   -0.1895    1.6974 H   0  0  0  1  0  0  0  0  0  0  0  0
   -2.0738    0.6597    3.8127 C   0  0  0  1  0  0  0  0  0  0  0  0
   -1.6563    1.5954    4.1211 H   0  0  0  1  0  0  0  0  0  0  0  0
   -3.0625    0.2447    4.7563 O   0  0  0  1  0  0  0  0  0  0  0  0
   -3.1475   -0.7113    4.7319 H   0  0  0  1  0  0  0  0  0  0  0  0
   -0.9713   -0.4117    3.6656 C   0  0  0  1  0  0  0  0  0  0  0  0
   -1.3419   -1.3745    3.9494 H   0  0  0  1  0  0  0  0  0  0  0  0
    0.1890   -0.0726    4.4902 N   0  0  0  1  0  0  0  0  0  0  0  0
    0.8271   -0.8797    5.3813 C   0  0  0  1  0  0  0  0  0  0  0  0
    0.5329   -1.8616    5.5568 H   0  0  0  1  0  0  0  0  0  0  0  0
    1.8362   -0.3284    5.9991 N   0  0  0  1  0  0  0  0  0  0  0  0
    1.8810    0.9519    5.4694 C   0  0  0  1  0  0  0  0  0  0  0  0
    2.6916    2.0628    5.6835 C   0  0  0  1  0  0  0  0  0  0  0  0
    3.7556    2.1299    6.5764 N   0  0  0  1  0  0  0  0  0  0  0  0
    4.2672    2.9607    6.6675 H   0  0  0  1  0  0  0  0  0  0  0  0
    3.9938    1.3463    7.1146 H   0  0  0  1  0  0  0  0  0  0  0  0
    2.4693    3.1881    4.9958 N   0  0  0  1  0  0  0  0  0  0  0  0
    1.4482    3.2020    4.1245 C   0  0  0  1  0  0  0  0  0  0  0  0
    1.3056    4.0961    3.6129 H   0  0  0  1  0  0  0  0  0  0  0  0
    0.5958    2.2286    3.8278 N   0  0  0  1  0  0  0  0  0  0  0  0
    0.8591    1.1230    4.5259 C   0  0  0  1  0  0  0  0  0  0  0  0
  1  2  1  0  0  0  0
  1  3  1  0  0  0  0
  1  4  2  0  0  0  0
  1  8  1  0  0  0  0
  5  6  1  0  0  0  0
  5  7  2  0  0  0  0
  5  8  1  0  0  0  0
  5 12  1  0  0  0  0
  9 10  2  0  0  0  0
  9 11  1  0  0  0  0
  9 12  1  0  0  0  0
  9 13  1  0  0  0  0
 13 14  1  0  0  0  0
 14 15  1  0  0  0  0
 14 16  1  0  0  0  0
 14 17  1  0  0  0  0
 17 18  1  0  0  0  0
 17 19  1  0  0  0  0
 17 20  1  0  0  0  0
 19 28  1  0  0  0  0
 20 21  1  0  0  0  0
 20 22  1  0  0  0  0
 20 24  1  0  0  0  0
 22 23  1  0  0  0  0
 24 25  1  0  0  0  0
 24 26  1  0  0  0  0
 24 28  1  0  0  0  0
 26 27  1  0  0  0  0
 28 29  1  0  0  0  0
 28 30  1  0  0  0  0
 30 31  1  0  0  0  0
 30 43  1  0  0  0  0
 31 32  1  0  0  0  0
 31 33  2  0  0  0  0
 33 34  1  0  0  0  0
 34 35  1  0  0  0  0
 34 43  2  0  0  0  0
 35 36  1  0  0  0  0
 35 39  2  0  0  0  0
 36 37  1  0  0  0  0
 36 38  1  0  0  0  0
 39 40  1  0  0  0  0
 40 41  1  0  0  0  0
 40 42  2  0  0  0  0
 42 43  1  0  0  0  0
M  BCL ATM P_TeTeTeTePi O_Te2Te2TeTe O_Te2Te2Te2Te O_Tr2Tr2TrPi P_TeTeTeTePi O_Te2Te2TeTe O_Tr2Tr2TrPi O_Tr2TrTrPi2 P_TeTeTeTePi O_Tr2Tr2TrPi O_Te2Te2Te2Te O_Tr2TrTrPi2 O_Tr2TrTrPi2 C_TeTeTeTe H_S H_S C_TeTeTeTe H_S O_Te2Te2TeTe C_TeTeTeTe H_S O_Te2Te2TeTe H_S C_TeTeTeTe H_S O_Te2Te2TeTe H_S C_TeTeTeTe H_S N_TrTrTrPi2 C_TrTrTrPi H_S N_Tr2TrTrPi C_TrTrTrPi C_TrTrTrPi N_TrTrTrPi2 H_S H_S N_Tr2TrTrPi C_TrTrTrPi H_S N_Tr2TrTrPi C_TrTrTrPi
M  BCL BND ConjugatedSingleBond ConjugatedSingleBond ConjugatedDoubleBond ConjugatedSingleBond ConjugatedSingleBond ConjugatedDoubleBond ConjugatedSingleBond ConjugatedSingleBond ConjugatedDoubleBond ConjugatedSingleBond ConjugatedSingleBond ConjugatedSingleBond NonConjugatedSingleBond NonConjugatedSingleBond NonConjugatedSingleBond NonConjugatedSingleBond NonConjugatedSingleBond NonConjugatedSingleBondInRing NonConjugatedSingleBondInRing NonConjugatedSingleBondInRing NonConjugatedSingleBond NonConjugatedSingleBond NonConjugatedSingleBondInRing NonConjugatedSingleBond NonConjugatedSingleBond NonConjugatedSingleBond NonConjugatedSingleBondInRing NonConjugatedSingleBond NonConjugatedSingleBond NonConjugatedSingleBond AromaticSingleBond AromaticSingleBond NonConjugatedSingleBond AromaticDoubleBond AromaticSingleBond AromaticSingleBond AromaticDoubleBond ConjugatedSingleBond AromaticDoubleBond NonConjugatedSingleBond NonConjugatedSingleBond AromaticSingleBond NonConjugatedSingleBond AromaticDoubleBond AromaticSingleBond
M  BCL CHI   1   S   5   S   9   S  17   R  20   S  24   R  28   S
M  BCL DBI - - - - - - -
M  END
> <ConfClashScore>
0 

> <ConfOneFourInteractionScore>
-0.983413 

> <ConfScore>
-0.00482833 

> <ConfScorePBest>
0.0140685 

> <ConfTolerance>
1.10484 

$$$$
ATP.****
  PyMOL2.5          3D                             0

 43 45  0  0  0  0  0  0  0  0999 V2000
    2.9509    3.8993   -2.0316 P   0  0  0  1  0  0  0  0  0  0  0  0
    4.4417    4.4656   -2.4140 O   0  0  0  0  0  0  0  0  0  0  0  0
    3.2635    3.0598   -0.6818 O   0  5  0  1  0  0  0  0  0  0  0  0
    2.2516    3.1147   -3.0736 O   0  0  0  1  0  0  0  0  0  0  0  0
    0.6425    5.3139   -0.8943 P   0  0  0  1  0  0  0  0  0  0  0  0
    0.6849    6.4584    0.0390 O   0  0  0  0  0  0  0  0  0  0  0  0
   -0.3182    5.3147   -1.9820 O   0  0  0  1  0  0  0  0  0  0  0  0
    2.1410    5.1531   -1.4374 O   0  0  0  1  0  0  0  0  0  0  0  0
   -0.3839    2.6293   -0.7748 P   0  0  0  1  0  0  0  0  0  0  0  0
    0.4080    2.2777   -1.9747 O   0  0  0  1  0  0  0  0  0  0  0  0
   -1.8297    3.1238   -1.3128 O   0  5  0  1  0  0  0  0  0  0  0  0
    0.3413    3.9176   -0.1146 O   0  0  0  1  0  0  0  0  0  0  0  0
   -0.6496    1.5325    0.3114 O   0  0  0  1  0  0  0  0  0  0  0  0
   -1.3616    0.2923    0.0911 C   0  0  0  1  0  0  0  0  0  0  0  0
   -0.7581   -0.3769   -0.4859 H   0  0  0  1  0  0  0  0  0  0  0  0
   -2.2773    0.4850   -0.4279 H   0  0  0  1  0  0  0  0  0  0  0  0
   -1.6544   -0.3146    1.4422 C   0  0  0  1  0  0  0  0  0  0  0  0
   -2.0158   -1.3136    1.3144 H   0  0  0  1  0  0  0  0  0  0  0  0
   -0.4721   -0.3037    2.2718 O   0  0  0  1  0  0  0  0  0  0  0  0
   -2.6832    0.5417    2.2116 C   0  0  0  1  0  0  0  0  0  0  0  0
   -2.6712    1.5534    1.8636 H   0  0  0  1  0  0  0  0  0  0  0  0
   -3.9994    0.0034    2.0683 O   0  0  0  1  0  0  0  0  0  0  0  0
   -4.6198    0.5353    2.5721 H   0  0  0  1  0  0  0  0  0  0  0  0
   -2.2149    0.4620    3.6835 C   0  0  0  1  0  0  0  0  0  0  0  0
   -1.9751    1.4346    4.0596 H   0  0  0  1  0  0  0  0  0  0  0  0
   -3.2211   -0.1320    4.5051 O   0  0  0  1  0  0  0  0  0  0  0  0
   -3.1475    0.2095    5.3993 H   0  0  0  1  0  0  0  0  0  0  0  0
   -0.9557   -0.4302    3.6259 C   0  0  0  1  0  0  0  0  0  0  0  0
   -1.2054   -1.4479    3.8427 H   0  0  0  1  0  0  0  0  0  0  0  0
    0.0521    0.0394    4.5786 N   0  0  0  1  0  0  0  0  0  0  0  0
    0.5846    1.2899    4.6524 C   0  0  0  1  0  0  0  0  0  0  0  0
    0.2484    2.0766    4.0611 H   0  0  0  1  0  0  0  0  0  0  0  0
    1.5491    1.4273    5.5211 N   0  0  0  1  0  0  0  0  0  0  0  0
    1.6643    0.1643    6.0807 C   0  0  0  1  0  0  0  0  0  0  0  0
    2.4900   -0.3954    7.0513 C   0  0  0  1  0  0  0  0  0  0  0  0
    3.4891    0.2740    7.7497 N   0  0  0  1  0  0  0  0  0  0  0  0
    3.7342    1.1888    7.4980 H   0  0  0  1  0  0  0  0  0  0  0  0
    3.9480   -0.1692    8.4936 H   0  0  0  1  0  0  0  0  0  0  0  0
    2.3508   -1.6851    7.3767 N   0  0  0  1  0  0  0  0  0  0  0  0
    1.4144   -2.3993    6.7324 C   0  0  0  1  0  0  0  0  0  0  0  0
    1.3402   -3.3986    7.0108 H   0  0  0  1  0  0  0  0  0  0  0  0
    0.5704   -2.0023    5.7880 N   0  0  0  1  0  0  0  0  0  0  0  0
    0.7347   -0.7100    5.5018 C   0  0  0  1  0  0  0  0  0  0  0  0
  1  2  1  0  0  0  0
  1  3  1  0  0  0  0
  1  4  2  0  0  0  0
  1  8  1  0  0  0  0
  5  6  1  0  0  0  0
  5  7  2  0  0  0  0
  5  8  1  0  0  0  0
  5 12  1  0  0  0  0
  9 10  2  0  0  0  0
  9 11  1  0  0  0  0
  9 12  1  0  0  0  0
  9 13  1  0  0  0  0
 13 14  1  0  0  0  0
 14 15  1  0  0  0  0
 14 16  1  0  0  0  0
 14 17  1  0  0  0  0
 17 18  1  0  0  0  0
 17 19  1  0  0  0  0
 17 20  1  0  0  0  0
 19 28  1  0  0  0  0
 20 21  1  0  0  0  0
 20 22  1  0  0  0  0
 20 24  1  0  0  0  0
 22 23  1  0  0  0  0
 24 25  1  0  0  0  0
 24 26  1  0  0  0  0
 24 28  1  0  0  0  0
 26 27  1  0  0  0  0
 28 29  1  0  0  0  0
 28 30  1  0  0  0  0
 30 31  1  0  0  0  0
 30 43  1  0  0  0  0
 31 32  1  0  0  0  0
 31 33  2  0  0  0  0
 33 34  1  0  0  0  0
 34 35  1  0  0  0  0
 34 43  2  0  0  0  0
 35 36  1  0  0  0  0
 35 39  2  0  0  0  0
 36 37  1  0  0  0  0
 36 38  1  0  0  0  0
 39 40  1  0  0  0  0
 40 41  1  0  0  0  0
 40 42  2  0  0  0  0
 42 43  1  0  0  0  0
M  BCL ATM P_TeTeTeTePi O_Te2Te2TeTe O_Te2Te2Te2Te O_Tr2Tr2TrPi P_TeTeTeTePi O_Te2Te2TeTe O_Tr2Tr2TrPi O_Tr2TrTrPi2 P_TeTeTeTePi O_Tr2Tr2TrPi O_Te2Te2Te2Te O_Tr2TrTrPi2 O_Tr2TrTrPi2 C_TeTeTeTe H_S H_S C_TeTeTeTe H_S O_Te2Te2TeTe C_TeTeTeTe H_S O_Te2Te2TeTe H_S C_TeTeTeTe H_S O_Te2Te2TeTe H_S C_TeTeTeTe H_S N_TrTrTrPi2 C_TrTrTrPi H_S N_Tr2TrTrPi C_TrTrTrPi C_TrTrTrPi N_TrTrTrPi2 H_S H_S N_Tr2TrTrPi C_TrTrTrPi H_S N_Tr2TrTrPi C_TrTrTrPi
M  BCL BND ConjugatedSingleBond ConjugatedSingleBond ConjugatedDoubleBond ConjugatedSingleBond ConjugatedSingleBond ConjugatedDoubleBond ConjugatedSingleBond ConjugatedSingleBond ConjugatedDoubleBond ConjugatedSingleBond ConjugatedSingleBond ConjugatedSingleBond NonConjugatedSingleBond NonConjugatedSingleBond NonConjugatedSingleBond NonConjugatedSingleBond NonConjugatedSingleBond NonConjugatedSingleBondInRing NonConjugatedSingleBondInRing NonConjugatedSingleBondInRing NonConjugatedSingleBond NonConjugatedSingleBond NonConjugatedSingleBondInRing NonConjugatedSingleBond NonConjugatedSingleBond NonConjugatedSingleBond NonConjugatedSingleBondInRing NonConjugatedSingleBond NonConjugatedSingleBond NonConjugatedSingleBond AromaticSingleBond AromaticSingleBond NonConjugatedSingleBond AromaticDoubleBond AromaticSingleBond AromaticSingleBond AromaticDoubleBond ConjugatedSingleBond AromaticDoubleBond NonConjugatedSingleBond NonConjugatedSingleBond AromaticSingleBond NonConjugatedSingleBond AromaticDoubleBond AromaticSingleBond
M  BCL CHI   1   S   5   S   9   S  17   R  20   S  24   R  28   S
M  BCL DBI - - - - - - -
M  END
> <ConfClashScore>
0 

> <ConfOneFourInteractionScore>
-0.983701 

> <ConfScore>
-0.00357743 

> <ConfScorePBest>
0.0139655 

> <ConfTolerance>
1.1278 

$$$$
ATP.****
  PyMOL2.5          3D                             0

 43 45  0  0  0  0  0  0  0  0999 V2000
    4.7771    2.7318    1.4451 P   0  0  0  1  0  0  0  0  0  0  0  0
    6.1729    2.0009    0.9897 O   0  0  0  0  0  0  0  0  0  0  0  0
    5.2011    4.1929    2.0016 O   0  5  0  1  0  0  0  0  0  0  0  0
    4.0654    1.8836    2.4272 O   0  0  0  1  0  0  0  0  0  0  0  0
    2.5995    3.6196   -0.2774 P   0  0  0  1  0  0  0  0  0  0  0  0
    2.3904    4.5273    0.8939 O   0  0  0  0  0  0  0  0  0  0  0  0
    2.5859    4.1558   -1.6499 O   0  0  0  1  0  0  0  0  0  0  0  0
    3.9556    2.8296    0.0715 O   0  0  0  1  0  0  0  0  0  0  0  0
    0.9089    1.3463   -1.2578 P   0  0  0  1  0  0  0  0  0  0  0  0
    1.9432    0.6735   -2.0750 O   0  0  0  1  0  0  0  0  0  0  0  0
   -0.1826    2.0901   -2.1958 O   0  5  0  1  0  0  0  0  0  0  0  0
    1.4503    2.4813   -0.2655 O   0  0  0  1  0  0  0  0  0  0  0  0
    0.1116    0.4703   -0.2330 O   0  0  0  1  0  0  0  0  0  0  0  0
   -0.8632    0.9689    0.7133 C   0  0  0  1  0  0  0  0  0  0  0  0
   -1.5582    1.5926    0.1911 H   0  0  0  1  0  0  0  0  0  0  0  0
   -0.3536    1.5460    1.4564 H   0  0  0  1  0  0  0  0  0  0  0  0
   -1.6323   -0.1390    1.4047 C   0  0  0  1  0  0  0  0  0  0  0  0
   -2.0139   -0.8196    0.6726 H   0  0  0  1  0  0  0  0  0  0  0  0
   -0.7769   -0.8314    2.3137 O   0  0  0  1  0  0  0  0  0  0  0  0
   -2.7564    0.4395    2.1960 C   0  0  0  1  0  0  0  0  0  0  0  0
   -3.0696    1.3795    1.7918 H   0  0  0  1  0  0  0  0  0  0  0  0
   -3.8692   -0.4548    2.2407 O   0  0  0  1  0  0  0  0  0  0  0  0
   -4.5228   -0.1224    2.8604 H   0  0  0  1  0  0  0  0  0  0  0  0
   -2.1451    0.6111    3.5544 C   0  0  0  1  0  0  0  0  0  0  0  0
   -1.6191    1.5404    3.6232 H   0  0  0  1  0  0  0  0  0  0  0  0
   -3.1422    0.5510    4.5753 O   0  0  0  1  0  0  0  0  0  0  0  0
   -2.7733    0.1384    5.3596 H   0  0  0  1  0  0  0  0  0  0  0  0
   -1.2039   -0.5454    3.6568 C   0  0  0  1  0  0  0  0  0  0  0  0
   -1.7026   -1.3940    4.0765 H   0  0  0  1  0  0  0  0  0  0  0  0
   -0.0546   -0.1925    4.4908 N   0  0  0  1  0  0  0  0  0  0  0  0
    0.3953   -0.9107    5.5560 C   0  0  0  1  0  0  0  0  0  0  0  0
   -0.0966   -1.7567    5.9079 H   0  0  0  1  0  0  0  0  0  0  0  0
    1.4907   -0.4576    6.1025 N   0  0  0  1  0  0  0  0  0  0  0  0
    1.8033    0.6514    5.3319 C   0  0  0  1  0  0  0  0  0  0  0  0
    2.8235    1.5976    5.3619 C   0  0  0  1  0  0  0  0  0  0  0  0
    3.8312    1.5810    6.2897 N   0  0  0  1  0  0  0  0  0  0  0  0
    4.5066    2.2911    6.2924 H   0  0  0  1  0  0  0  0  0  0  0  0
    3.8768    0.8589    6.9508 H   0  0  0  1  0  0  0  0  0  0  0  0
    2.8442    2.5793    4.4538 N   0  0  0  1  0  0  0  0  0  0  0  0
    1.8559    2.6181    3.5462 C   0  0  0  1  0  0  0  0  0  0  0  0
    1.9053    3.3984    2.8605 H   0  0  0  1  0  0  0  0  0  0  0  0
    0.8239    1.7951    3.4059 N   0  0  0  1  0  0  0  0  0  0  0  0
    0.8472    0.8263    4.3223 C   0  0  0  1  0  0  0  0  0  0  0  0
  1  2  1  0  0  0  0
  1  3  1  0  0  0  0
  1  4  2  0  0  0  0
  1  8  1  0  0  0  0
  5  6  1  0  0  0  0
  5  7  2  0  0  0  0
  5  8  1  0  0  0  0
  5 12  1  0  0  0  0
  9 10  2  0  0  0  0
  9 11  1  0  0  0  0
  9 12  1  0  0  0  0
  9 13  1  0  0  0  0
 13 14  1  0  0  0  0
 14 15  1  0  0  0  0
 14 16  1  0  0  0  0
 14 17  1  0  0  0  0
 17 18  1  0  0  0  0
 17 19  1  0  0  0  0
 17 20  1  0  0  0  0
 19 28  1  0  0  0  0
 20 21  1  0  0  0  0
 20 22  1  0  0  0  0
 20 24  1  0  0  0  0
 22 23  1  0  0  0  0
 24 25  1  0  0  0  0
 24 26  1  0  0  0  0
 24 28  1  0  0  0  0
 26 27  1  0  0  0  0
 28 29  1  0  0  0  0
 28 30  1  0  0  0  0
 30 31  1  0  0  0  0
 30 43  1  0  0  0  0
 31 32  1  0  0  0  0
 31 33  2  0  0  0  0
 33 34  1  0  0  0  0
 34 35  1  0  0  0  0
 34 43  2  0  0  0  0
 35 36  1  0  0  0  0
 35 39  2  0  0  0  0
 36 37  1  0  0  0  0
 36 38  1  0  0  0  0
 39 40  1  0  0  0  0
 40 41  1  0  0  0  0
 40 42  2  0  0  0  0
 42 43  1  0  0  0  0
M  BCL ATM P_TeTeTeTePi O_Te2Te2TeTe O_Te2Te2Te2Te O_Tr2Tr2TrPi P_TeTeTeTePi O_Te2Te2TeTe O_Tr2Tr2TrPi O_Tr2TrTrPi2 P_TeTeTeTePi O_Tr2Tr2TrPi O_Te2Te2Te2Te O_Tr2TrTrPi2 O_Tr2TrTrPi2 C_TeTeTeTe H_S H_S C_TeTeTeTe H_S O_Te2Te2TeTe C_TeTeTeTe H_S O_Te2Te2TeTe H_S C_TeTeTeTe H_S O_Te2Te2TeTe H_S C_TeTeTeTe H_S N_TrTrTrPi2 C_TrTrTrPi H_S N_Tr2TrTrPi C_TrTrTrPi C_TrTrTrPi N_TrTrTrPi2 H_S H_S N_Tr2TrTrPi C_TrTrTrPi H_S N_Tr2TrTrPi C_TrTrTrPi
M  BCL BND ConjugatedSingleBond ConjugatedSingleBond ConjugatedDoubleBond ConjugatedSingleBond ConjugatedSingleBond ConjugatedDoubleBond ConjugatedSingleBond ConjugatedSingleBond ConjugatedDoubleBond ConjugatedSingleBond ConjugatedSingleBond ConjugatedSingleBond NonConjugatedSingleBond NonConjugatedSingleBond NonConjugatedSingleBond NonConjugatedSingleBond NonConjugatedSingleBond NonConjugatedSingleBondInRing NonConjugatedSingleBondInRing NonConjugatedSingleBondInRing NonConjugatedSingleBond NonConjugatedSingleBond NonConjugatedSingleBondInRing NonConjugatedSingleBond NonConjugatedSingleBond NonConjugatedSingleBond NonConjugatedSingleBondInRing NonConjugatedSingleBond NonConjugatedSingleBond NonConjugatedSingleBond AromaticSingleBond AromaticSingleBond NonConjugatedSingleBond AromaticDoubleBond AromaticSingleBond AromaticSingleBond AromaticDoubleBond ConjugatedSingleBond AromaticDoubleBond NonConjugatedSingleBond NonConjugatedSingleBond AromaticSingleBond NonConjugatedSingleBond AromaticDoubleBond AromaticSingleBond
M  BCL CHI   1   S   5   S   9   S  17   R  20   S  24   R  28   S
M  BCL DBI - - - - - - -
M  END
> <ConfClashScore>
0 

> <ConfOneFourInteractionScore>
-0.981204 

> <ConfScore>
-0.00174262 

> <ConfScorePBest>
0.0138625 

> <ConfTolerance>
1.44156 

$$$$
ATP.****
  PyMOL2.5          3D                             0

 43 45  0  0  0  0  0  0  0  0999 V2000
    2.4535    6.1902    4.3537 P   0  0  0  1  0  0  0  0  0  0  0  0
    3.4513    7.4826    4.5073 O   0  0  0  0  0  0  0  0  0  0  0  0
    1.0684    6.7668    3.7425 O   0  5  0  1  0  0  0  0  0  0  0  0
    2.0820    5.5955    5.6570 O   0  0  0  1  0  0  0  0  0  0  0  0
    2.3303    3.5182    3.1952 P   0  0  0  1  0  0  0  0  0  0  0  0
    3.4445    2.6852    2.5543 O   0  0  0  0  0  0  0  0  0  0  0  0
    1.7141    2.8738    4.3783 O   0  0  0  1  0  0  0  0  0  0  0  0
    3.0229    4.9252    3.5495 O   0  0  0  1  0  0  0  0  0  0  0  0
    0.5149    3.0114    0.8660 P   0  0  0  1  0  0  0  0  0  0  0  0
    1.5657    2.5476   -0.0673 O   0  0  0  1  0  0  0  0  0  0  0  0
   -0.6451    3.9652    0.2585 O   0  5  0  1  0  0  0  0  0  0  0  0
    1.1565    3.7805    2.1160 O   0  0  0  1  0  0  0  0  0  0  0  0
   -0.4325    1.8919    1.4364 O   0  0  0  1  0  0  0  0  0  0  0  0
   -1.0350    0.9111    0.5583 C   0  0  0  1  0  0  0  0  0  0  0  0
   -0.2745    0.4046    0.0015 H   0  0  0  1  0  0  0  0  0  0  0  0
   -1.7110    1.3928   -0.1169 H   0  0  0  1  0  0  0  0  0  0  0  0
   -1.7850   -0.0760    1.4197 C   0  0  0  1  0  0  0  0  0  0  0  0
   -2.2991   -0.7765    0.7953 H   0  0  0  1  0  0  0  0  0  0  0  0
   -0.8748   -0.7645    2.2957 O   0  0  0  1  0  0  0  0  0  0  0  0
   -2.7911    0.6664    2.3334 C   0  0  0  1  0  0  0  0  0  0  0  0
   -3.0005    1.6468    1.9594 H   0  0  0  1  0  0  0  0  0  0  0  0
   -4.0105   -0.0668    2.4582 O   0  0  0  1  0  0  0  0  0  0  0  0
   -3.8245   -1.0076    2.4164 H   0  0  0  1  0  0  0  0  0  0  0  0
   -2.0549    0.7329    3.6599 C   0  0  0  1  0  0  0  0  0  0  0  0
   -1.4369    1.6047    3.7152 H   0  0  0  1  0  0  0  0  0  0  0  0
   -2.9694    0.7260    4.7581 O   0  0  0  1  0  0  0  0  0  0  0  0
   -3.0930   -0.1746    5.0665 H   0  0  0  1  0  0  0  0  0  0  0  0
   -1.2061   -0.5481    3.6371 C   0  0  0  1  0  0  0  0  0  0  0  0
   -1.7687   -1.3741    4.0193 H   0  0  0  1  0  0  0  0  0  0  0  0
    0.0045   -0.3701    4.4373 N   0  0  0  1  0  0  0  0  0  0  0  0
    1.2871   -0.6120    4.0510 C   0  0  0  1  0  0  0  0  0  0  0  0
    1.5292   -0.9562    3.1000 H   0  0  0  1  0  0  0  0  0  0  0  0
    2.1904   -0.3795    4.9642 N   0  0  0  1  0  0  0  0  0  0  0  0
    1.4491    0.0632    6.0487 C   0  0  0  1  0  0  0  0  0  0  0  0
    1.7680    0.4696    7.3411 C   0  0  0  1  0  0  0  0  0  0  0  0
    3.0518    0.5065    7.8176 N   0  0  0  1  0  0  0  0  0  0  0  0
    3.7951    0.2213    7.2460 H   0  0  0  1  0  0  0  0  0  0  0  0
    3.2271    0.8180    8.7301 H   0  0  0  1  0  0  0  0  0  0  0  0
    0.7942    0.8465    8.1768 N   0  0  0  1  0  0  0  0  0  0  0  0
   -0.4708    0.8026    7.7299 C   0  0  0  1  0  0  0  0  0  0  0  0
   -1.1989    1.0993    8.4106 H   0  0  0  1  0  0  0  0  0  0  0  0
   -0.9180    0.4314    6.5364 N   0  0  0  1  0  0  0  0  0  0  0  0
    0.0841    0.0747    5.7318 C   0  0  0  1  0  0  0  0  0  0  0  0
  1  2  1  0  0  0  0
  1  3  1  0  0  0  0
  1  4  2  0  0  0  0
  1  8  1  0  0  0  0
  5  6  1  0  0  0  0
  5  7  2  0  0  0  0
  5  8  1  0  0  0  0
  5 12  1  0  0  0  0
  9 10  2  0  0  0  0
  9 11  1  0  0  0  0
  9 12  1  0  0  0  0
  9 13  1  0  0  0  0
 13 14  1  0  0  0  0
 14 15  1  0  0  0  0
 14 16  1  0  0  0  0
 14 17  1  0  0  0  0
 17 18  1  0  0  0  0
 17 19  1  0  0  0  0
 17 20  1  0  0  0  0
 19 28  1  0  0  0  0
 20 21  1  0  0  0  0
 20 22  1  0  0  0  0
 20 24  1  0  0  0  0
 22 23  1  0  0  0  0
 24 25  1  0  0  0  0
 24 26  1  0  0  0  0
 24 28  1  0  0  0  0
 26 27  1  0  0  0  0
 28 29  1  0  0  0  0
 28 30  1  0  0  0  0
 30 31  1  0  0  0  0
 30 43  1  0  0  0  0
 31 32  1  0  0  0  0
 31 33  2  0  0  0  0
 33 34  1  0  0  0  0
 34 35  1  0  0  0  0
 34 43  2  0  0  0  0
 35 36  1  0  0  0  0
 35 39  2  0  0  0  0
 36 37  1  0  0  0  0
 36 38  1  0  0  0  0
 39 40  1  0  0  0  0
 40 41  1  0  0  0  0
 40 42  2  0  0  0  0
 42 43  1  0  0  0  0
M  BCL ATM P_TeTeTeTePi O_Te2Te2TeTe O_Te2Te2Te2Te O_Tr2Tr2TrPi P_TeTeTeTePi O_Te2Te2TeTe O_Tr2Tr2TrPi O_Tr2TrTrPi2 P_TeTeTeTePi O_Tr2Tr2TrPi O_Te2Te2Te2Te O_Tr2TrTrPi2 O_Tr2TrTrPi2 C_TeTeTeTe H_S H_S C_TeTeTeTe H_S O_Te2Te2TeTe C_TeTeTeTe H_S O_Te2Te2TeTe H_S C_TeTeTeTe H_S O_Te2Te2TeTe H_S C_TeTeTeTe H_S N_TrTrTrPi2 C_TrTrTrPi H_S N_Tr2TrTrPi C_TrTrTrPi C_TrTrTrPi N_TrTrTrPi2 H_S H_S N_Tr2TrTrPi C_TrTrTrPi H_S N_Tr2TrTrPi C_TrTrTrPi
M  BCL BND ConjugatedSingleBond ConjugatedSingleBond ConjugatedDoubleBond ConjugatedSingleBond ConjugatedSingleBond ConjugatedDoubleBond ConjugatedSingleBond ConjugatedSingleBond ConjugatedDoubleBond ConjugatedSingleBond ConjugatedSingleBond ConjugatedSingleBond NonConjugatedSingleBond NonConjugatedSingleBond NonConjugatedSingleBond NonConjugatedSingleBond NonConjugatedSingleBond NonConjugatedSingleBondInRing NonConjugatedSingleBondInRing NonConjugatedSingleBondInRing NonConjugatedSingleBond NonConjugatedSingleBond NonConjugatedSingleBondInRing NonConjugatedSingleBond NonConjugatedSingleBond NonConjugatedSingleBond NonConjugatedSingleBondInRing NonConjugatedSingleBond NonConjugatedSingleBond NonConjugatedSingleBond AromaticSingleBond AromaticSingleBond NonConjugatedSingleBond AromaticDoubleBond AromaticSingleBond AromaticSingleBond AromaticDoubleBond ConjugatedSingleBond AromaticDoubleBond NonConjugatedSingleBond NonConjugatedSingleBond AromaticSingleBond NonConjugatedSingleBond AromaticDoubleBond AromaticSingleBond
M  BCL CHI   1   S   5   S   9   S  17   R  20   S  24   R  28   S
M  BCL DBI - - - - - - -
M  END
> <ConfClashScore>
0 

> <ConfOneFourInteractionScore>
-0.987665 

> <ConfScore>
-0.00034459 

> <ConfScorePBest>
0.0137595 

> <ConfTolerance>
1.3211 

$$$$
ATP.****
  PyMOL2.5          3D                             0

 43 45  0  0  0  0  0  0  0  0999 V2000
    0.1450    5.7987   -3.7506 P   0  0  0  1  0  0  0  0  0  0  0  0
    1.0261    4.9973   -4.8780 O   0  0  0  0  0  0  0  0  0  0  0  0
   -1.4185    5.7755   -4.1740 O   0  5  0  1  0  0  0  0  0  0  0  0
    0.5695    7.1937   -3.4971 O   0  0  0  1  0  0  0  0  0  0  0  0
    0.4845    5.2430   -0.9092 P   0  0  0  1  0  0  0  0  0  0  0  0
    1.9502    5.4640   -0.6313 O   0  0  0  0  0  0  0  0  0  0  0  0
   -0.4303    6.3069   -0.4938 O   0  0  0  1  0  0  0  0  0  0  0  0
    0.1391    4.8794   -2.4368 O   0  0  0  1  0  0  0  0  0  0  0  0
    0.4891    3.1979    1.1680 P   0  0  0  1  0  0  0  0  0  0  0  0
    0.7949    4.1680    2.2430 O   0  0  0  1  0  0  0  0  0  0  0  0
    1.8142    2.4213    0.6527 O   0  5  0  1  0  0  0  0  0  0  0  0
   -0.0529    3.9343   -0.1545 O   0  0  0  1  0  0  0  0  0  0  0  0
   -0.5483    2.0894    1.5818 O   0  0  0  1  0  0  0  0  0  0  0  0
   -0.9455    1.0590    0.6468 C   0  0  0  1  0  0  0  0  0  0  0  0
   -0.0733    0.6525    0.1790 H   0  0  0  1  0  0  0  0  0  0  0  0
   -1.5840    1.4863   -0.0980 H   0  0  0  1  0  0  0  0  0  0  0  0
   -1.6871   -0.0465    1.3635 C   0  0  0  1  0  0  0  0  0  0  0  0
   -2.0873   -0.7318    0.6458 H   0  0  0  1  0  0  0  0  0  0  0  0
   -0.7991   -0.7353    2.2636 O   0  0  0  1  0  0  0  0  0  0  0  0
   -2.8044    0.5367    2.2064 C   0  0  0  1  0  0  0  0  0  0  0  0
   -3.0967    1.5006    1.8452 H   0  0  0  1  0  0  0  0  0  0  0  0
   -3.9398   -0.3296    2.2261 O   0  0  0  1  0  0  0  0  0  0  0  0
   -3.8536   -0.9544    2.9498 H   0  0  0  1  0  0  0  0  0  0  0  0
   -2.1693    0.6378    3.5830 C   0  0  0  1  0  0  0  0  0  0  0  0
   -1.5938    1.5345    3.6819 H   0  0  0  1  0  0  0  0  0  0  0  0
   -3.1552    0.5873    4.6162 O   0  0  0  1  0  0  0  0  0  0  0  0
   -2.7214    0.5315    5.4707 H   0  0  0  1  0  0  0  0  0  0  0  0
   -1.2812   -0.5950    3.6047 C   0  0  0  1  0  0  0  0  0  0  0  0
   -1.8445   -1.4579    3.8928 H   0  0  0  1  0  0  0  0  0  0  0  0
   -0.1661   -0.4073    4.5334 N   0  0  0  1  0  0  0  0  0  0  0  0
    0.1361   -1.2436    5.5640 C   0  0  0  1  0  0  0  0  0  0  0  0
   -0.4140   -2.1027    5.7667 H   0  0  0  1  0  0  0  0  0  0  0  0
    1.1682   -0.8862    6.2786 N   0  0  0  1  0  0  0  0  0  0  0  0
    1.5965    0.2825    5.6685 C   0  0  0  1  0  0  0  0  0  0  0  0
    2.6273    1.1845    5.9152 C   0  0  0  1  0  0  0  0  0  0  0  0
    3.5574    1.0907    6.9448 N   0  0  0  1  0  0  0  0  0  0  0  0
    3.5335    0.3271    7.5587 H   0  0  0  1  0  0  0  0  0  0  0  0
    4.2367    1.7881    7.0565 H   0  0  0  1  0  0  0  0  0  0  0  0
    2.7795    2.2505    5.1221 N   0  0  0  1  0  0  0  0  0  0  0  0
    1.9083    2.4145    4.1141 C   0  0  0  1  0  0  0  0  0  0  0  0
    2.0577    3.2571    3.5231 H   0  0  0  1  0  0  0  0  0  0  0  0
    0.8819    1.6465    3.7698 N   0  0  0  1  0  0  0  0  0  0  0  0
    0.7727    0.5909    4.5776 C   0  0  0  1  0  0  0  0  0  0  0  0
  1  2  1  0  0  0  0
  1  3  1  0  0  0  0
  1  4  2  0  0  0  0
  1  8  1  0  0  0  0
  5  6  1  0  0  0  0
  5  7  2  0  0  0  0
  5  8  1  0  0  0  0
  5 12  1  0  0  0  0
  9 10  2  0  0  0  0
  9 11  1  0  0  0  0
  9 12  1  0  0  0  0
  9 13  1  0  0  0  0
 13 14  1  0  0  0  0
 14 15  1  0  0  0  0
 14 16  1  0  0  0  0
 14 17  1  0  0  0  0
 17 18  1  0  0  0  0
 17 19  1  0  0  0  0
 17 20  1  0  0  0  0
 19 28  1  0  0  0  0
 20 21  1  0  0  0  0
 20 22  1  0  0  0  0
 20 24  1  0  0  0  0
 22 23  1  0  0  0  0
 24 25  1  0  0  0  0
 24 26  1  0  0  0  0
 24 28  1  0  0  0  0
 26 27  1  0  0  0  0
 28 29  1  0  0  0  0
 28 30  1  0  0  0  0
 30 31  1  0  0  0  0
 30 43  1  0  0  0  0
 31 32  1  0  0  0  0
 31 33  2  0  0  0  0
 33 34  1  0  0  0  0
 34 35  1  0  0  0  0
 34 43  2  0  0  0  0
 35 36  1  0  0  0  0
 35 39  2  0  0  0  0
 36 37  1  0  0  0  0
 36 38  1  0  0  0  0
 39 40  1  0  0  0  0
 40 41  1  0  0  0  0
 40 42  2  0  0  0  0
 42 43  1  0  0  0  0
M  BCL ATM P_TeTeTeTePi O_Te2Te2TeTe O_Te2Te2Te2Te O_Tr2Tr2TrPi P_TeTeTeTePi O_Te2Te2TeTe O_Tr2Tr2TrPi O_Tr2TrTrPi2 P_TeTeTeTePi O_Tr2Tr2TrPi O_Te2Te2Te2Te O_Tr2TrTrPi2 O_Tr2TrTrPi2 C_TeTeTeTe H_S H_S C_TeTeTeTe H_S O_Te2Te2TeTe C_TeTeTeTe H_S O_Te2Te2TeTe H_S C_TeTeTeTe H_S O_Te2Te2TeTe H_S C_TeTeTeTe H_S N_TrTrTrPi2 C_TrTrTrPi H_S N_Tr2TrTrPi C_TrTrTrPi C_TrTrTrPi N_TrTrTrPi2 H_S H_S N_Tr2TrTrPi C_TrTrTrPi H_S N_Tr2TrTrPi C_TrTrTrPi
M  BCL BND ConjugatedSingleBond ConjugatedSingleBond ConjugatedDoubleBond ConjugatedSingleBond ConjugatedSingleBond ConjugatedDoubleBond ConjugatedSingleBond ConjugatedSingleBond ConjugatedDoubleBond ConjugatedSingleBond ConjugatedSingleBond ConjugatedSingleBond NonConjugatedSingleBond NonConjugatedSingleBond NonConjugatedSingleBond NonConjugatedSingleBond NonConjugatedSingleBond NonConjugatedSingleBondInRing NonConjugatedSingleBondInRing NonConjugatedSingleBondInRing NonConjugatedSingleBond NonConjugatedSingleBond NonConjugatedSingleBondInRing NonConjugatedSingleBond NonConjugatedSingleBond NonConjugatedSingleBond NonConjugatedSingleBondInRing NonConjugatedSingleBond NonConjugatedSingleBond NonConjugatedSingleBond AromaticSingleBond AromaticSingleBond NonConjugatedSingleBond AromaticDoubleBond AromaticSingleBond AromaticSingleBond AromaticDoubleBond ConjugatedSingleBond AromaticDoubleBond NonConjugatedSingleBond NonConjugatedSingleBond AromaticSingleBond NonConjugatedSingleBond AromaticDoubleBond AromaticSingleBond
M  BCL CHI   1   S   5   S   9   S  17   R  20   S  24   R  28   S
M  BCL DBI - - - - - - -
M  END
> <ConfClashScore>
0 

> <ConfOneFourInteractionScore>
-0.987665 

> <ConfScore>
-0.000341504 

> <ConfScorePBest>
0.0136565 

> <ConfTolerance>
1.31776 

$$$$
ATP.****
  PyMOL2.5          3D                             0

 43 45  0  0  0  0  0  0  0  0999 V2000
   -4.6801    2.6249   -3.6055 P   0  0  0  1  0  0  0  0  0  0  0  0
   -5.6055    2.4304   -4.9454 O   0  0  0  0  0  0  0  0  0  0  0  0
   -4.1203    1.1798   -3.1337 O   0  5  0  1  0  0  0  0  0  0  0  0
   -5.0394    3.4447   -2.4269 O   0  0  0  1  0  0  0  0  0  0  0  0
   -1.9578    3.5504   -3.3509 P   0  0  0  1  0  0  0  0  0  0  0  0
   -0.8395    3.2399   -4.3504 O   0  0  0  0  0  0  0  0  0  0  0  0
   -1.8944    4.9234   -2.7980 O   0  0  0  1  0  0  0  0  0  0  0  0
   -3.3179    3.2735   -4.1595 O   0  0  0  1  0  0  0  0  0  0  0  0
   -0.6205    2.3826   -1.0984 P   0  0  0  1  0  0  0  0  0  0  0  0
   -0.1421    3.7557   -0.8227 O   0  0  0  1  0  0  0  0  0  0  0  0
    0.5113    1.4986   -1.8480 O   0  5  0  1  0  0  0  0  0  0  0  0
   -1.8797    2.5190   -2.1071 O   0  0  0  1  0  0  0  0  0  0  0  0
   -1.0304    1.6145    0.2124 O   0  0  0  1  0  0  0  0  0  0  0  0
   -1.6022    0.2860    0.1462 C   0  0  0  1  0  0  0  0  0  0  0  0
   -0.9200   -0.3665   -0.3577 H   0  0  0  1  0  0  0  0  0  0  0  0
   -2.5242    0.3259   -0.3953 H   0  0  0  1  0  0  0  0  0  0  0  0
   -1.8646   -0.2464    1.5390 C   0  0  0  1  0  0  0  0  0  0  0  0
   -2.3753   -1.1844    1.4725 H   0  0  0  1  0  0  0  0  0  0  0  0
   -0.6272   -0.3916    2.2697 O   0  0  0  1  0  0  0  0  0  0  0  0
   -2.6912    0.7657    2.3613 C   0  0  0  1  0  0  0  0  0  0  0  0
   -2.5635    1.7578    1.9815 H   0  0  0  1  0  0  0  0  0  0  0  0
   -4.0775    0.4225    2.3419 O   0  0  0  1  0  0  0  0  0  0  0  0
   -4.2434   -0.2009    1.6309 H   0  0  0  1  0  0  0  0  0  0  0  0
   -2.1166    0.6477    3.7924 C   0  0  0  1  0  0  0  0  0  0  0  0
   -1.7087    1.5822    4.1168 H   0  0  0  1  0  0  0  0  0  0  0  0
   -3.1251    0.2228    4.7114 O   0  0  0  1  0  0  0  0  0  0  0  0
   -2.9018   -0.6461    5.0530 H   0  0  0  1  0  0  0  0  0  0  0  0
   -1.0080   -0.4195    3.6618 C   0  0  0  1  0  0  0  0  0  0  0  0
   -1.3820   -1.3854    3.9302 H   0  0  0  1  0  0  0  0  0  0  0  0
    0.1421   -0.0807    4.5210 N   0  0  0  1  0  0  0  0  0  0  0  0
    1.2958    0.5596    4.1866 C   0  0  0  1  0  0  0  0  0  0  0  0
    1.4551    0.9690    3.2439 H   0  0  0  1  0  0  0  0  0  0  0  0
    2.1871    0.6211    5.1382 N   0  0  0  1  0  0  0  0  0  0  0  0
    1.5734   -0.0249    6.2001 C   0  0  0  1  0  0  0  0  0  0  0  0
    1.9549   -0.3257    7.5043 C   0  0  0  1  0  0  0  0  0  0  0  0
    3.1608   -0.0197    8.1257 N   0  0  0  1  0  0  0  0  0  0  0  0
    3.8255    0.5308    7.6614 H   0  0  0  1  0  0  0  0  0  0  0  0
    3.3459   -0.3545    9.0279 H   0  0  0  1  0  0  0  0  0  0  0  0
    1.1114   -0.9839    8.3067 N   0  0  0  1  0  0  0  0  0  0  0  0
   -0.0811   -1.3442    7.8066 C   0  0  0  1  0  0  0  0  0  0  0  0
   -0.7064   -1.8575    8.4602 H   0  0  0  1  0  0  0  0  0  0  0  0
   -0.5700   -1.1337    6.5906 N   0  0  0  1  0  0  0  0  0  0  0  0
    0.2965   -0.4661    5.8276 C   0  0  0  1  0  0  0  0  0  0  0  0
  1  2  1  0  0  0  0
  1  3  1  0  0  0  0
  1  4  2  0  0  0  0
  1  8  1  0  0  0  0
  5  6  1  0  0  0  0
  5  7  2  0  0  0  0
  5  8  1  0  0  0  0
  5 12  1  0  0  0  0
  9 10  2  0  0  0  0
  9 11  1  0  0  0  0
  9 12  1  0  0  0  0
  9 13  1  0  0  0  0
 13 14  1  0  0  0  0
 14 15  1  0  0  0  0
 14 16  1  0  0  0  0
 14 17  1  0  0  0  0
 17 18  1  0  0  0  0
 17 19  1  0  0  0  0
 17 20  1  0  0  0  0
 19 28  1  0  0  0  0
 20 21  1  0  0  0  0
 20 22  1  0  0  0  0
 20 24  1  0  0  0  0
 22 23  1  0  0  0  0
 24 25  1  0  0  0  0
 24 26  1  0  0  0  0
 24 28  1  0  0  0  0
 26 27  1  0  0  0  0
 28 29  1  0  0  0  0
 28 30  1  0  0  0  0
 30 31  1  0  0  0  0
 30 43  1  0  0  0  0
 31 32  1  0  0  0  0
 31 33  2  0  0  0  0
 33 34  1  0  0  0  0
 34 35  1  0  0  0  0
 34 43  2  0  0  0  0
 35 36  1  0  0  0  0
 35 39  2  0  0  0  0
 36 37  1  0  0  0  0
 36 38  1  0  0  0  0
 39 40  1  0  0  0  0
 40 41  1  0  0  0  0
 40 42  2  0  0  0  0
 42 43  1  0  0  0  0
M  BCL ATM P_TeTeTeTePi O_Te2Te2TeTe O_Te2Te2Te2Te O_Tr2Tr2TrPi P_TeTeTeTePi O_Te2Te2TeTe O_Tr2Tr2TrPi O_Tr2TrTrPi2 P_TeTeTeTePi O_Tr2Tr2TrPi O_Te2Te2Te2Te O_Tr2TrTrPi2 O_Tr2TrTrPi2 C_TeTeTeTe H_S H_S C_TeTeTeTe H_S O_Te2Te2TeTe C_TeTeTeTe H_S O_Te2Te2TeTe H_S C_TeTeTeTe H_S O_Te2Te2TeTe H_S C_TeTeTeTe H_S N_TrTrTrPi2 C_TrTrTrPi H_S N_Tr2TrTrPi C_TrTrTrPi C_TrTrTrPi N_TrTrTrPi2 H_S H_S N_Tr2TrTrPi C_TrTrTrPi H_S N_Tr2TrTrPi C_TrTrTrPi
M  BCL BND ConjugatedSingleBond ConjugatedSingleBond ConjugatedDoubleBond ConjugatedSingleBond ConjugatedSingleBond ConjugatedDoubleBond ConjugatedSingleBond ConjugatedSingleBond ConjugatedDoubleBond ConjugatedSingleBond ConjugatedSingleBond ConjugatedSingleBond NonConjugatedSingleBond NonConjugatedSingleBond NonConjugatedSingleBond NonConjugatedSingleBond NonConjugatedSingleBond NonConjugatedSingleBondInRing NonConjugatedSingleBondInRing NonConjugatedSingleBondInRing NonConjugatedSingleBond NonConjugatedSingleBond NonConjugatedSingleBondInRing NonConjugatedSingleBond NonConjugatedSingleBond NonConjugatedSingleBond NonConjugatedSingleBondInRing NonConjugatedSingleBond NonConjugatedSingleBond NonConjugatedSingleBond AromaticSingleBond AromaticSingleBond NonConjugatedSingleBond AromaticDoubleBond AromaticSingleBond AromaticSingleBond AromaticDoubleBond ConjugatedSingleBond AromaticDoubleBond NonConjugatedSingleBond NonConjugatedSingleBond AromaticSingleBond NonConjugatedSingleBond AromaticDoubleBond AromaticSingleBond
M  BCL CHI   1   S   5   S   9   S  17   R  20   S  24   R  28   S
M  BCL DBI - - - - - - -
M  END
> <ConfClashScore>
0 

> <ConfOneFourInteractionScore>
-0.982844 

> <ConfScore>
0.000335034 

> <ConfScorePBest>
0.0135535 

> <ConfTolerance>
1.13036 

$$$$
ATP.****
  PyMOL2.5          3D                             0

 43 45  0  0  0  0  0  0  0  0999 V2000
   -1.2254    5.4371   -2.8744 P   0  0  0  1  0  0  0  0  0  0  0  0
   -2.3408    4.5224   -3.6546 O   0  0  0  0  0  0  0  0  0  0  0  0
   -1.2626    6.9735   -3.3869 O   0  5  0  1  0  0  0  0  0  0  0  0
    0.1635    4.9845   -3.1122 O   0  0  0  1  0  0  0  0  0  0  0  0
   -1.8366    4.1927   -0.3368 P   0  0  0  1  0  0  0  0  0  0  0  0
   -2.4455    4.5363    0.9942 O   0  0  0  0  0  0  0  0  0  0  0  0
   -2.4138    3.0131   -0.9526 O   0  0  0  1  0  0  0  0  0  0  0  0
   -1.7915    5.4290   -1.3702 O   0  0  0  1  0  0  0  0  0  0  0  0
    0.4923    3.0401    1.0312 P   0  0  0  1  0  0  0  0  0  0  0  0
    0.6696    3.7934    2.2927 O   0  0  0  1  0  0  0  0  0  0  0  0
    1.7843    2.3965    0.2958 O   0  5  0  1  0  0  0  0  0  0  0  0
   -0.2782    3.8972   -0.0815 O   0  0  0  1  0  0  0  0  0  0  0  0
   -0.4805    1.8700    1.4264 O   0  0  0  1  0  0  0  0  0  0  0  0
   -1.0738    0.8638    0.5725 C   0  0  0  1  0  0  0  0  0  0  0  0
   -0.3147    0.3902   -0.0143 H   0  0  0  1  0  0  0  0  0  0  0  0
   -1.7961    1.3153   -0.0751 H   0  0  0  1  0  0  0  0  0  0  0  0
   -1.7461   -0.1541    1.4621 C   0  0  0  1  0  0  0  0  0  0  0  0
   -2.2127   -0.9038    0.8579 H   0  0  0  1  0  0  0  0  0  0  0  0
   -0.7836   -0.7553    2.3464 O   0  0  0  1  0  0  0  0  0  0  0  0
   -2.7970    0.5357    2.3667 C   0  0  0  1  0  0  0  0  0  0  0  0
   -3.0782    1.4897    1.9722 H   0  0  0  1  0  0  0  0  0  0  0  0
   -3.9600   -0.2795    2.5178 O   0  0  0  1  0  0  0  0  0  0  0  0
   -4.4795   -0.2493    1.7110 H   0  0  0  1  0  0  0  0  0  0  0  0
   -2.0591    0.6853    3.6855 C   0  0  0  1  0  0  0  0  0  0  0  0
   -1.5047    1.6000    3.7161 H   0  0  0  1  0  0  0  0  0  0  0  0
   -2.9634    0.6388    4.7902 O   0  0  0  1  0  0  0  0  0  0  0  0
   -2.8256   -0.1734    5.2832 H   0  0  0  1  0  0  0  0  0  0  0  0
   -1.1210   -0.5320    3.6851 C   0  0  0  1  0  0  0  0  0  0  0  0
   -1.6207   -1.3870    4.0904 H   0  0  0  1  0  0  0  0  0  0  0  0
    0.0805   -0.2492    4.4726 N   0  0  0  1  0  0  0  0  0  0  0  0
    1.0746    0.6258    4.1581 C   0  0  0  1  0  0  0  0  0  0  0  0
    1.0250    1.2549    3.3314 H   0  0  0  1  0  0  0  0  0  0  0  0
    2.0949    0.6159    4.9722 N   0  0  0  1  0  0  0  0  0  0  0  0
    1.7490   -0.3401    5.9146 C   0  0  0  1  0  0  0  0  0  0  0  0
    2.3734   -0.8586    7.0452 C   0  0  0  1  0  0  0  0  0  0  0  0
    3.6160   -0.4425    7.4761 N   0  0  0  1  0  0  0  0  0  0  0  0
    3.9760   -0.7730    8.3256 H   0  0  0  1  0  0  0  0  0  0  0  0
    4.1387    0.1836    6.9329 H   0  0  0  1  0  0  0  0  0  0  0  0
    1.7616   -1.8052    7.7650 N   0  0  0  1  0  0  0  0  0  0  0  0
    0.5579   -2.2314    7.3510 C   0  0  0  1  0  0  0  0  0  0  0  0
    0.1172   -2.9707    7.9348 H   0  0  0  1  0  0  0  0  0  0  0  0
   -0.1459   -1.8367    6.2970 N   0  0  0  1  0  0  0  0  0  0  0  0
    0.4937   -0.8859    5.6144 C   0  0  0  1  0  0  0  0  0  0  0  0
  1  2  1  0  0  0  0
  1  3  1  0  0  0  0
  1  4  2  0  0  0  0
  1  8  1  0  0  0  0
  5  6  1  0  0  0  0
  5  7  2  0  0  0  0
  5  8  1  0  0  0  0
  5 12  1  0  0  0  0
  9 10  2  0  0  0  0
  9 11  1  0  0  0  0
  9 12  1  0  0  0  0
  9 13  1  0  0  0  0
 13 14  1  0  0  0  0
 14 15  1  0  0  0  0
 14 16  1  0  0  0  0
 14 17  1  0  0  0  0
 17 18  1  0  0  0  0
 17 19  1  0  0  0  0
 17 20  1  0  0  0  0
 19 28  1  0  0  0  0
 20 21  1  0  0  0  0
 20 22  1  0  0  0  0
 20 24  1  0  0  0  0
 22 23  1  0  0  0  0
 24 25  1  0  0  0  0
 24 26  1  0  0  0  0
 24 28  1  0  0  0  0
 26 27  1  0  0  0  0
 28 29  1  0  0  0  0
 28 30  1  0  0  0  0
 30 31  1  0  0  0  0
 30 43  1  0  0  0  0
 31 32  1  0  0  0  0
 31 33  2  0  0  0  0
 33 34  1  0  0  0  0
 34 35  1  0  0  0  0
 34 43  2  0  0  0  0
 35 36  1  0  0  0  0
 35 39  2  0  0  0  0
 36 37  1  0  0  0  0
 36 38  1  0  0  0  0
 39 40  1  0  0  0  0
 40 41  1  0  0  0  0
 40 42  2  0  0  0  0
 42 43  1  0  0  0  0
M  BCL ATM P_TeTeTeTePi O_Te2Te2TeTe O_Te2Te2Te2Te O_Tr2Tr2TrPi P_TeTeTeTePi O_Te2Te2TeTe O_Tr2Tr2TrPi O_Tr2TrTrPi2 P_TeTeTeTePi O_Tr2Tr2TrPi O_Te2Te2Te2Te O_Tr2TrTrPi2 O_Tr2TrTrPi2 C_TeTeTeTe H_S H_S C_TeTeTeTe H_S O_Te2Te2TeTe C_TeTeTeTe H_S O_Te2Te2TeTe H_S C_TeTeTeTe H_S O_Te2Te2TeTe H_S C_TeTeTeTe H_S N_TrTrTrPi2 C_TrTrTrPi H_S N_Tr2TrTrPi C_TrTrTrPi C_TrTrTrPi N_TrTrTrPi2 H_S H_S N_Tr2TrTrPi C_TrTrTrPi H_S N_Tr2TrTrPi C_TrTrTrPi
M  BCL BND ConjugatedSingleBond ConjugatedSingleBond ConjugatedDoubleBond ConjugatedSingleBond ConjugatedSingleBond ConjugatedDoubleBond ConjugatedSingleBond ConjugatedSingleBond ConjugatedDoubleBond ConjugatedSingleBond ConjugatedSingleBond ConjugatedSingleBond NonConjugatedSingleBond NonConjugatedSingleBond NonConjugatedSingleBond NonConjugatedSingleBond NonConjugatedSingleBond NonConjugatedSingleBondInRing NonConjugatedSingleBondInRing NonConjugatedSingleBondInRing NonConjugatedSingleBond NonConjugatedSingleBond NonConjugatedSingleBondInRing NonConjugatedSingleBond NonConjugatedSingleBond NonConjugatedSingleBond NonConjugatedSingleBondInRing NonConjugatedSingleBond NonConjugatedSingleBond NonConjugatedSingleBond AromaticSingleBond AromaticSingleBond NonConjugatedSingleBond AromaticDoubleBond AromaticSingleBond AromaticSingleBond AromaticDoubleBond ConjugatedSingleBond AromaticDoubleBond NonConjugatedSingleBond NonConjugatedSingleBond AromaticSingleBond NonConjugatedSingleBond AromaticDoubleBond AromaticSingleBond
M  BCL CHI   1   S   5   S   9   S  17   R  20   S  24   R  28   S
M  BCL DBI - - - - - - -
M  END
> <ConfClashScore>
0 

> <ConfOneFourInteractionScore>
-0.988217 

> <ConfScore>
0.00110921 

> <ConfScorePBest>
0.0134505 

> <ConfTolerance>
1.26103 

$$$$
ATP.****
  PyMOL2.5          3D                             0

 43 45  0  0  0  0  0  0  0  0999 V2000
    4.3933    3.7181   -1.5769 P   0  0  0  1  0  0  0  0  0  0  0  0
    5.6535    2.7125   -1.2766 O   0  0  0  0  0  0  0  0  0  0  0  0
    4.6293    4.6388   -2.8888 O   0  5  0  1  0  0  0  0  0  0  0  0
    4.0215    4.5177   -0.3882 O   0  0  0  1  0  0  0  0  0  0  0  0
    2.4315    1.6029   -1.0288 P   0  0  0  1  0  0  0  0  0  0  0  0
    2.9560    0.2504   -1.4065 O   0  0  0  0  0  0  0  0  0  0  0  0
    2.5518    1.9697    0.4183 O   0  0  0  1  0  0  0  0  0  0  0  0
    3.1265    2.7749   -1.8712 O   0  0  0  1  0  0  0  0  0  0  0  0
   -0.3613    2.5951   -0.9951 P   0  0  0  1  0  0  0  0  0  0  0  0
   -1.4223    2.9075   -1.9785 O   0  0  0  1  0  0  0  0  0  0  0  0
    0.3387    3.9369   -0.4172 O   0  5  0  1  0  0  0  0  0  0  0  0
    0.9127    1.7614   -1.5072 O   0  0  0  1  0  0  0  0  0  0  0  0
   -0.8222    1.7428    0.2404 O   0  0  0  1  0  0  0  0  0  0  0  0
   -1.4878    0.4595    0.1154 C   0  0  0  1  0  0  0  0  0  0  0  0
   -0.8711   -0.1895   -0.4705 H   0  0  0  1  0  0  0  0  0  0  0  0
   -2.4239    0.6072   -0.3814 H   0  0  0  1  0  0  0  0  0  0  0  0
   -1.7491   -0.1990    1.4511 C   0  0  0  1  0  0  0  0  0  0  0  0
   -2.1871   -1.1626    1.2946 H   0  0  0  1  0  0  0  0  0  0  0  0
   -0.5254   -0.3135    2.2098 O   0  0  0  1  0  0  0  0  0  0  0  0
   -2.6708    0.6826    2.3210 C   0  0  0  1  0  0  0  0  0  0  0  0
   -2.6060    1.7085    2.0239 H   0  0  0  1  0  0  0  0  0  0  0  0
   -4.0270    0.2441    2.2280 O   0  0  0  1  0  0  0  0  0  0  0  0
   -4.0975   -0.6528    2.5628 H   0  0  0  1  0  0  0  0  0  0  0  0
   -2.1297    0.4919    3.7573 C   0  0  0  1  0  0  0  0  0  0  0  0
   -1.8011    1.4242    4.1669 H   0  0  0  1  0  0  0  0  0  0  0  0
   -3.1291   -0.0757    4.6053 O   0  0  0  1  0  0  0  0  0  0  0  0
   -3.6868    0.6229    4.9554 H   0  0  0  1  0  0  0  0  0  0  0  0
   -0.9421   -0.4797    3.5818 C   0  0  0  1  0  0  0  0  0  0  0  0
   -1.2513   -1.4882    3.7615 H   0  0  0  1  0  0  0  0  0  0  0  0
    0.1455   -0.1325    4.4951 N   0  0  0  1  0  0  0  0  0  0  0  0
    1.1403    0.7716    4.2812 C   0  0  0  1  0  0  0  0  0  0  0  0
    1.2116    1.3278    3.4053 H   0  0  0  1  0  0  0  0  0  0  0  0
    1.9980    0.8881    5.2582 N   0  0  0  1  0  0  0  0  0  0  0  0
    1.5317   -0.0075    6.2080 C   0  0  0  1  0  0  0  0  0  0  0  0
    1.9661   -0.3950    7.4722 C   0  0  0  1  0  0  0  0  0  0  0  0
    3.0843    0.1240    8.0698 N   0  0  0  1  0  0  0  0  0  0  0  0
    3.6271    0.7903    7.5989 H   0  0  0  1  0  0  0  0  0  0  0  0
    3.3414   -0.1712    8.9682 H   0  0  0  1  0  0  0  0  0  0  0  0
    1.2778   -1.3151    8.1566 N   0  0  0  1  0  0  0  0  0  0  0  0
    0.1875   -1.8440    7.5791 C   0  0  0  1  0  0  0  0  0  0  0  0
   -0.3174   -2.5585    8.1412 H   0  0  0  1  0  0  0  0  0  0  0  0
   -0.3331   -1.5781    6.3873 N   0  0  0  1  0  0  0  0  0  0  0  0
    0.3756   -0.6493    5.7439 C   0  0  0  1  0  0  0  0  0  0  0  0
  1  2  1  0  0  0  0
  1  3  1  0  0  0  0
  1  4  2  0  0  0  0
  1  8  1  0  0  0  0
  5  6  1  0  0  0  0
  5  7  2  0  0  0  0
  5  8  1  0  0  0  0
  5 12  1  0  0  0  0
  9 10  2  0  0  0  0
  9 11  1  0  0  0  0
  9 12  1  0  0  0  0
  9 13  1  0  0  0  0
 13 14  1  0  0  0  0
 14 15  1  0  0  0  0
 14 16  1  0  0  0  0
 14 17  1  0  0  0  0
 17 18  1  0  0  0  0
 17 19  1  0  0  0  0
 17 20  1  0  0  0  0
 19 28  1  0  0  0  0
 20 21  1  0  0  0  0
 20 22  1  0  0  0  0
 20 24  1  0  0  0  0
 22 23  1  0  0  0  0
 24 25  1  0  0  0  0
 24 26  1  0  0  0  0
 24 28  1  0  0  0  0
 26 27  1  0  0  0  0
 28 29  1  0  0  0  0
 28 30  1  0  0  0  0
 30 31  1  0  0  0  0
 30 43  1  0  0  0  0
 31 32  1  0  0  0  0
 31 33  2  0  0  0  0
 33 34  1  0  0  0  0
 34 35  1  0  0  0  0
 34 43  2  0  0  0  0
 35 36  1  0  0  0  0
 35 39  2  0  0  0  0
 36 37  1  0  0  0  0
 36 38  1  0  0  0  0
 39 40  1  0  0  0  0
 40 41  1  0  0  0  0
 40 42  2  0  0  0  0
 42 43  1  0  0  0  0
M  BCL ATM P_TeTeTeTePi O_Te2Te2TeTe O_Te2Te2Te2Te O_Tr2Tr2TrPi P_TeTeTeTePi O_Te2Te2TeTe O_Tr2Tr2TrPi O_Tr2TrTrPi2 P_TeTeTeTePi O_Tr2Tr2TrPi O_Te2Te2Te2Te O_Tr2TrTrPi2 O_Tr2TrTrPi2 C_TeTeTeTe H_S H_S C_TeTeTeTe H_S O_Te2Te2TeTe C_TeTeTeTe H_S O_Te2Te2TeTe H_S C_TeTeTeTe H_S O_Te2Te2TeTe H_S C_TeTeTeTe H_S N_TrTrTrPi2 C_TrTrTrPi H_S N_Tr2TrTrPi C_TrTrTrPi C_TrTrTrPi N_TrTrTrPi2 H_S H_S N_Tr2TrTrPi C_TrTrTrPi H_S N_Tr2TrTrPi C_TrTrTrPi
M  BCL BND ConjugatedSingleBond ConjugatedSingleBond ConjugatedDoubleBond ConjugatedSingleBond ConjugatedSingleBond ConjugatedDoubleBond ConjugatedSingleBond ConjugatedSingleBond ConjugatedDoubleBond ConjugatedSingleBond ConjugatedSingleBond ConjugatedSingleBond NonConjugatedSingleBond NonConjugatedSingleBond NonConjugatedSingleBond NonConjugatedSingleBond NonConjugatedSingleBond NonConjugatedSingleBondInRing NonConjugatedSingleBondInRing NonConjugatedSingleBondInRing NonConjugatedSingleBond NonConjugatedSingleBond NonConjugatedSingleBondInRing NonConjugatedSingleBond NonConjugatedSingleBond NonConjugatedSingleBond NonConjugatedSingleBondInRing NonConjugatedSingleBond NonConjugatedSingleBond NonConjugatedSingleBond AromaticSingleBond AromaticSingleBond NonConjugatedSingleBond AromaticDoubleBond AromaticSingleBond AromaticSingleBond AromaticDoubleBond ConjugatedSingleBond AromaticDoubleBond NonConjugatedSingleBond NonConjugatedSingleBond AromaticSingleBond NonConjugatedSingleBond AromaticDoubleBond AromaticSingleBond
M  BCL CHI   1   S   5   S   9   S  17   R  20   S  24   R  28   S
M  BCL DBI - - - - - - -
M  END
> <ConfClashScore>
0 

> <ConfOneFourInteractionScore>
-0.988217 

> <ConfScore>
0.00302318 

> <ConfScorePBest>
0.0133475 

> <ConfTolerance>
1.11547 

$$$$
ATP.****
  PyMOL2.5          3D                             0

 43 45  0  0  0  0  0  0  0  0999 V2000
    3.7815   -0.7570   -4.1930 P   0  0  0  1  0  0  0  0  0  0  0  0
    5.3394   -0.2467   -4.2418 O   0  0  0  0  0  0  0  0  0  0  0  0
    3.7864   -2.1030   -5.0944 O   0  5  0  1  0  0  0  0  0  0  0  0
    2.9048    0.3041   -4.7369 O   0  0  0  1  0  0  0  0  0  0  0  0
    2.3175   -2.0660   -1.9740 P   0  0  0  1  0  0  0  0  0  0  0  0
    2.3361   -3.4838   -2.5970 O   0  0  0  0  0  0  0  0  0  0  0  0
    2.3667   -1.9904   -0.5106 O   0  0  0  1  0  0  0  0  0  0  0  0
    3.4865   -1.2327   -2.6947 O   0  0  0  1  0  0  0  0  0  0  0  0
   -0.0031   -0.2240   -2.0213 P   0  0  0  1  0  0  0  0  0  0  0  0
   -1.0921    0.1506   -2.9509 O   0  0  0  1  0  0  0  0  0  0  0  0
    0.8930    1.1101   -1.8176 O   0  5  0  1  0  0  0  0  0  0  0  0
    1.0126   -1.3474   -2.5564 O   0  0  0  1  0  0  0  0  0  0  0  0
   -0.5858   -0.5576   -0.5981 O   0  0  0  1  0  0  0  0  0  0  0  0
   -1.4227    0.3926    0.1022 C   0  0  0  1  0  0  0  0  0  0  0  0
   -2.3161    0.5738   -0.4582 H   0  0  0  1  0  0  0  0  0  0  0  0
   -0.8939    1.3127    0.2386 H   0  0  0  1  0  0  0  0  0  0  0  0
   -1.7702   -0.2049    1.4451 C   0  0  0  1  0  0  0  0  0  0  0  0
   -2.2559   -1.1475    1.3018 H   0  0  0  1  0  0  0  0  0  0  0  0
   -0.5843   -0.3615    2.2545 O   0  0  0  1  0  0  0  0  0  0  0  0
   -2.6726    0.7550    2.2503 C   0  0  0  1  0  0  0  0  0  0  0  0
   -2.5387    1.7652    1.9241 H   0  0  0  1  0  0  0  0  0  0  0  0
   -4.0469    0.3893    2.1179 O   0  0  0  1  0  0  0  0  0  0  0  0
   -4.1604   -0.5288    2.3743 H   0  0  0  1  0  0  0  0  0  0  0  0
   -2.1972    0.5826    3.7120 C   0  0  0  1  0  0  0  0  0  0  0  0
   -1.8319    1.5084    4.1049 H   0  0  0  1  0  0  0  0  0  0  0  0
   -3.2588    0.0995    4.5379 O   0  0  0  1  0  0  0  0  0  0  0  0
   -2.9232   -0.0787    5.4195 H   0  0  0  1  0  0  0  0  0  0  0  0
   -1.0607   -0.4586    3.6136 C   0  0  0  1  0  0  0  0  0  0  0  0
   -1.4330   -1.4418    3.8125 H   0  0  0  1  0  0  0  0  0  0  0  0
    0.0116   -0.1413    4.5591 N   0  0  0  1  0  0  0  0  0  0  0  0
    0.3225   -0.8874    5.6543 C   0  0  0  1  0  0  0  0  0  0  0  0
   -0.1362   -1.7980    5.8592 H   0  0  0  1  0  0  0  0  0  0  0  0
    1.2398   -0.3738    6.4281 N   0  0  0  1  0  0  0  0  0  0  0  0
    1.5757    0.8107    5.7912 C   0  0  0  1  0  0  0  0  0  0  0  0
    2.4665    1.8432    6.0695 C   0  0  0  1  0  0  0  0  0  0  0  0
    3.3099    1.9108    7.1731 N   0  0  0  1  0  0  0  0  0  0  0  0
    3.2694    1.2170    7.8640 H   0  0  0  1  0  0  0  0  0  0  0  0
    3.9447    2.6524    7.2600 H   0  0  0  1  0  0  0  0  0  0  0  0
    2.5573    2.8837    5.2341 N   0  0  0  1  0  0  0  0  0  0  0  0
    1.7619    2.8940    4.1528 C   0  0  0  1  0  0  0  0  0  0  0  0
    1.8594    3.7216    3.5306 H   0  0  0  1  0  0  0  0  0  0  0  0
    0.8678    1.9905    3.7704 N   0  0  0  1  0  0  0  0  0  0  0  0
    0.8171    0.9663    4.6233 C   0  0  0  1  0  0  0  0  0  0  0  0
  1  2  1  0  0  0  0
  1  3  1  0  0  0  0
  1  4  2  0  0  0  0
  1  8  1  0  0  0  0
  5  6  1  0  0  0  0
  5  7  2  0  0  0  0
  5  8  1  0  0  0  0
  5 12  1  0  0  0  0
  9 10  2  0  0  0  0
  9 11  1  0  0  0  0
  9 12  1  0  0  0  0
  9 13  1  0  0  0  0
 13 14  1  0  0  0  0
 14 15  1  0  0  0  0
 14 16  1  0  0  0  0
 14 17  1  0  0  0  0
 17 18  1  0  0  0  0
 17 19  1  0  0  0  0
 17 20  1  0  0  0  0
 19 28  1  0  0  0  0
 20 21  1  0  0  0  0
 20 22  1  0  0  0  0
 20 24  1  0  0  0  0
 22 23  1  0  0  0  0
 24 25  1  0  0  0  0
 24 26  1  0  0  0  0
 24 28  1  0  0  0  0
 26 27  1  0  0  0  0
 28 29  1  0  0  0  0
 28 30  1  0  0  0  0
 30 31  1  0  0  0  0
 30 43  1  0  0  0  0
 31 32  1  0  0  0  0
 31 33  2  0  0  0  0
 33 34  1  0  0  0  0
 34 35  1  0  0  0  0
 34 43  2  0  0  0  0
 35 36  1  0  0  0  0
 35 39  2  0  0  0  0
 36 37  1  0  0  0  0
 36 38  1  0  0  0  0
 39 40  1  0  0  0  0
 40 41  1  0  0  0  0
 40 42  2  0  0  0  0
 42 43  1  0  0  0  0
M  BCL ATM P_TeTeTeTePi O_Te2Te2TeTe O_Te2Te2Te2Te O_Tr2Tr2TrPi P_TeTeTeTePi O_Te2Te2TeTe O_Tr2Tr2TrPi O_Tr2TrTrPi2 P_TeTeTeTePi O_Tr2Tr2TrPi O_Te2Te2Te2Te O_Tr2TrTrPi2 O_Tr2TrTrPi2 C_TeTeTeTe H_S H_S C_TeTeTeTe H_S O_Te2Te2TeTe C_TeTeTeTe H_S O_Te2Te2TeTe H_S C_TeTeTeTe H_S O_Te2Te2TeTe H_S C_TeTeTeTe H_S N_TrTrTrPi2 C_TrTrTrPi H_S N_Tr2TrTrPi C_TrTrTrPi C_TrTrTrPi N_TrTrTrPi2 H_S H_S N_Tr2TrTrPi C_TrTrTrPi H_S N_Tr2TrTrPi C_TrTrTrPi
M  BCL BND ConjugatedSingleBond ConjugatedSingleBond ConjugatedDoubleBond ConjugatedSingleBond ConjugatedSingleBond ConjugatedDoubleBond ConjugatedSingleBond ConjugatedSingleBond ConjugatedDoubleBond ConjugatedSingleBond ConjugatedSingleBond ConjugatedSingleBond NonConjugatedSingleBond NonConjugatedSingleBond NonConjugatedSingleBond NonConjugatedSingleBond NonConjugatedSingleBond NonConjugatedSingleBondInRing NonConjugatedSingleBondInRing NonConjugatedSingleBondInRing NonConjugatedSingleBond NonConjugatedSingleBond NonConjugatedSingleBondInRing NonConjugatedSingleBond NonConjugatedSingleBond NonConjugatedSingleBond NonConjugatedSingleBondInRing NonConjugatedSingleBond NonConjugatedSingleBond NonConjugatedSingleBond AromaticSingleBond AromaticSingleBond NonConjugatedSingleBond AromaticDoubleBond AromaticSingleBond AromaticSingleBond AromaticDoubleBond ConjugatedSingleBond AromaticDoubleBond NonConjugatedSingleBond NonConjugatedSingleBond AromaticSingleBond NonConjugatedSingleBond AromaticDoubleBond AromaticSingleBond
M  BCL CHI   1   S   5   S   9   S  17   R  20   S  24   R  28   S
M  BCL DBI - - - - - - -
M  END
> <ConfClashScore>
0 

> <ConfOneFourInteractionScore>
-0.981204 

> <ConfScore>
0.00322185 

> <ConfScorePBest>
0.0132445 

> <ConfTolerance>
1.2402 

$$$$
ATP.****
  PyMOL2.5          3D                             0

 43 45  0  0  0  0  0  0  0  0999 V2000
    3.0155   -2.9921   -3.6806 P   0  0  0  1  0  0  0  0  0  0  0  0
    4.1590   -3.2447   -2.5325 O   0  0  0  0  0  0  0  0  0  0  0  0
    3.5904   -3.7561   -4.9883 O   0  5  0  1  0  0  0  0  0  0  0  0
    2.8014   -1.5320   -3.7943 O   0  0  0  1  0  0  0  0  0  0  0  0
    0.1337   -3.5435   -3.5577 P   0  0  0  1  0  0  0  0  0  0  0  0
   -0.0319   -2.6403   -4.7235 O   0  0  0  0  0  0  0  0  0  0  0  0
   -0.5507   -4.8557   -3.5694 O   0  0  0  1  0  0  0  0  0  0  0  0
    1.6869   -3.7858   -3.2492 O   0  0  0  1  0  0  0  0  0  0  0  0
   -0.5510   -1.1122   -1.8940 P   0  0  0  1  0  0  0  0  0  0  0  0
   -1.5393   -0.3719   -2.7098 O   0  0  0  1  0  0  0  0  0  0  0  0
    0.8874   -0.3697   -1.8302 O   0  5  0  1  0  0  0  0  0  0  0  0
   -0.2424   -2.6326   -2.2945 O   0  0  0  1  0  0  0  0  0  0  0  0
   -1.1168   -1.2191   -0.4204 O   0  0  0  1  0  0  0  0  0  0  0  0
   -1.6282   -0.0198    0.2166 C   0  0  0  1  0  0  0  0  0  0  0  0
   -2.4849    0.3382   -0.3152 H   0  0  0  1  0  0  0  0  0  0  0  0
   -0.8725    0.7376    0.2276 H   0  0  0  1  0  0  0  0  0  0  0  0
   -2.0149   -0.3812    1.6312 C   0  0  0  1  0  0  0  0  0  0  0  0
   -2.7614   -1.1475    1.6127 H   0  0  0  1  0  0  0  0  0  0  0  0
   -0.8934   -0.7980    2.3615 O   0  0  0  1  0  0  0  0  0  0  0  0
   -2.5224    0.8543    2.3889 C   0  0  0  1  0  0  0  0  0  0  0  0
   -2.0038    1.7372    2.0783 H   0  0  0  1  0  0  0  0  0  0  0  0
   -3.9265    1.0343    2.1986 O   0  0  0  1  0  0  0  0  0  0  0  0
   -4.3224    0.2026    1.9280 H   0  0  0  1  0  0  0  0  0  0  0  0
   -2.2077    0.5156    3.8223 C   0  0  0  1  0  0  0  0  0  0  0  0
   -2.0636    1.4024    4.4035 H   0  0  0  1  0  0  0  0  0  0  0  0
   -3.2487   -0.2712    4.4032 O   0  0  0  1  0  0  0  0  0  0  0  0
   -2.9897   -1.1956    4.4033 H   0  0  0  1  0  0  0  0  0  0  0  0
   -0.9079   -0.2872    3.7136 C   0  0  0  1  0  0  0  0  0  0  0  0
   -0.9032   -1.0916    4.4191 H   0  0  0  1  0  0  0  0  0  0  0  0
    0.2490    0.5751    3.9489 N   0  0  0  1  0  0  0  0  0  0  0  0
    1.4918    0.1906    4.3494 C   0  0  0  1  0  0  0  0  0  0  0  0
    1.7398   -0.8040    4.5252 H   0  0  0  1  0  0  0  0  0  0  0  0
    2.3488    1.1641    4.4964 N   0  0  0  1  0  0  0  0  0  0  0  0
    1.6192    2.2928    4.1570 C   0  0  0  1  0  0  0  0  0  0  0  0
    1.9058    3.6537    4.1035 C   0  0  0  1  0  0  0  0  0  0  0  0
    3.1340    4.1719    4.4198 N   0  0  0  1  0  0  0  0  0  0  0  0
    3.3050    5.1303    4.3078 H   0  0  0  1  0  0  0  0  0  0  0  0
    3.8415    3.5841    4.7580 H   0  0  0  1  0  0  0  0  0  0  0  0
    0.9556    4.5172    3.7290 N   0  0  0  1  0  0  0  0  0  0  0  0
   -0.2576    4.0270    3.4294 C   0  0  0  1  0  0  0  0  0  0  0  0
   -0.9697    4.7304    3.1470 H   0  0  0  1  0  0  0  0  0  0  0  0
   -0.6712    2.7658    3.4451 N   0  0  0  1  0  0  0  0  0  0  0  0
    0.3081    1.9381    3.8123 C   0  0  0  1  0  0  0  0  0  0  0  0
  1  2  1  0  0  0  0
  1  3  1  0  0  0  0
  1  4  2  0  0  0  0
  1  8  1  0  0  0  0
  5  6  1  0  0  0  0
  5  7  2  0  0  0  0
  5  8  1  0  0  0  0
  5 12  1  0  0  0  0
  9 10  2  0  0  0  0
  9 11  1  0  0  0  0
  9 12  1  0  0  0  0
  9 13  1  0  0  0  0
 13 14  1  0  0  0  0
 14 15  1  0  0  0  0
 14 16  1  0  0  0  0
 14 17  1  0  0  0  0
 17 18  1  0  0  0  0
 17 19  1  0  0  0  0
 17 20  1  0  0  0  0
 19 28  1  0  0  0  0
 20 21  1  0  0  0  0
 20 22  1  0  0  0  0
 20 24  1  0  0  0  0
 22 23  1  0  0  0  0
 24 25  1  0  0  0  0
 24 26  1  0  0  0  0
 24 28  1  0  0  0  0
 26 27  1  0  0  0  0
 28 29  1  0  0  0  0
 28 30  1  0  0  0  0
 30 31  1  0  0  0  0
 30 43  1  0  0  0  0
 31 32  1  0  0  0  0
 31 33  2  0  0  0  0
 33 34  1  0  0  0  0
 34 35  1  0  0  0  0
 34 43  2  0  0  0  0
 35 36  1  0  0  0  0
 35 39  2  0  0  0  0
 36 37  1  0  0  0  0
 36 38  1  0  0  0  0
 39 40  1  0  0  0  0
 40 41  1  0  0  0  0
 40 42  2  0  0  0  0
 42 43  1  0  0  0  0
M  BCL ATM P_TeTeTeTePi O_Te2Te2TeTe O_Te2Te2Te2Te O_Tr2Tr2TrPi P_TeTeTeTePi O_Te2Te2TeTe O_Tr2Tr2TrPi O_Tr2TrTrPi2 P_TeTeTeTePi O_Tr2Tr2TrPi O_Te2Te2Te2Te O_Tr2TrTrPi2 O_Tr2TrTrPi2 C_TeTeTeTe H_S H_S C_TeTeTeTe H_S O_Te2Te2TeTe C_TeTeTeTe H_S O_Te2Te2TeTe H_S C_TeTeTeTe H_S O_Te2Te2TeTe H_S C_TeTeTeTe H_S N_TrTrTrPi2 C_TrTrTrPi H_S N_Tr2TrTrPi C_TrTrTrPi C_TrTrTrPi N_TrTrTrPi2 H_S H_S N_Tr2TrTrPi C_TrTrTrPi H_S N_Tr2TrTrPi C_TrTrTrPi
M  BCL BND ConjugatedSingleBond ConjugatedSingleBond ConjugatedDoubleBond ConjugatedSingleBond ConjugatedSingleBond ConjugatedDoubleBond ConjugatedSingleBond ConjugatedSingleBond ConjugatedDoubleBond ConjugatedSingleBond ConjugatedSingleBond ConjugatedSingleBond NonConjugatedSingleBond NonConjugatedSingleBond NonConjugatedSingleBond NonConjugatedSingleBond NonConjugatedSingleBond NonConjugatedSingleBondInRing NonConjugatedSingleBondInRing NonConjugatedSingleBondInRing NonConjugatedSingleBond NonConjugatedSingleBond NonConjugatedSingleBondInRing NonConjugatedSingleBond NonConjugatedSingleBond NonConjugatedSingleBond NonConjugatedSingleBondInRing NonConjugatedSingleBond NonConjugatedSingleBond NonConjugatedSingleBond AromaticSingleBond AromaticSingleBond NonConjugatedSingleBond AromaticDoubleBond AromaticSingleBond AromaticSingleBond AromaticDoubleBond ConjugatedSingleBond AromaticDoubleBond NonConjugatedSingleBond NonConjugatedSingleBond AromaticSingleBond NonConjugatedSingleBond AromaticDoubleBond AromaticSingleBond
M  BCL CHI   1   S   5   S   9   S  17   R  20   S  24   R  28   S
M  BCL DBI - - - - - - -
M  END
> <ConfClashScore>
0 

> <ConfOneFourInteractionScore>
-0.979313 

> <ConfScore>
0.00516033 

> <ConfScorePBest>
0.0131415 

> <ConfTolerance>
1.3135 

$$$$
ATP.****
  PyMOL2.5          3D                             0

 43 45  0  0  0  0  0  0  0  0999 V2000
    0.1185   -4.7587   -5.1240 P   0  0  0  1  0  0  0  0  0  0  0  0
    0.4226   -6.3349   -5.4597 O   0  0  0  0  0  0  0  0  0  0  0  0
   -0.5439   -4.1731   -6.4815 O   0  5  0  1  0  0  0  0  0  0  0  0
    1.3533   -4.0237   -4.7699 O   0  0  0  1  0  0  0  0  0  0  0  0
   -1.8865   -3.3696   -3.4888 P   0  0  0  1  0  0  0  0  0  0  0  0
   -2.0044   -2.3352   -4.5410 O   0  0  0  0  0  0  0  0  0  0  0  0
   -3.1206   -3.8764   -2.8446 O   0  0  0  1  0  0  0  0  0  0  0  0
   -1.0434   -4.6227   -4.0228 O   0  0  0  1  0  0  0  0  0  0  0  0
   -0.6725   -1.2362   -1.9698 P   0  0  0  1  0  0  0  0  0  0  0  0
   -1.2505   -0.1385   -2.7768 O   0  0  0  1  0  0  0  0  0  0  0  0
    0.8850   -0.8375   -1.7704 O   0  5  0  1  0  0  0  0  0  0  0  0
   -0.8198   -2.7615   -2.4517 O   0  0  0  1  0  0  0  0  0  0  0  0
   -1.2698   -1.2306   -0.5176 O   0  0  0  1  0  0  0  0  0  0  0  0
   -1.5868   -0.0137    0.2048 C   0  0  0  1  0  0  0  0  0  0  0  0
   -2.4118    0.4827   -0.2619 H   0  0  0  1  0  0  0  0  0  0  0  0
   -0.7372    0.6367    0.2136 H   0  0  0  1  0  0  0  0  0  0  0  0
   -1.9528   -0.4019    1.6194 C   0  0  0  1  0  0  0  0  0  0  0  0
   -2.6711   -1.1946    1.5978 H   0  0  0  1  0  0  0  0  0  0  0  0
   -0.8129   -0.7842    2.3402 O   0  0  0  1  0  0  0  0  0  0  0  0
   -2.5006    0.8076    2.3909 C   0  0  0  1  0  0  0  0  0  0  0  0
   -2.0160    1.7114    2.0857 H   0  0  0  1  0  0  0  0  0  0  0  0
   -3.9113    0.9382    2.2094 O   0  0  0  1  0  0  0  0  0  0  0  0
   -4.3638    0.2603    2.7168 H   0  0  0  1  0  0  0  0  0  0  0  0
   -2.1660    0.4678    3.8196 C   0  0  0  1  0  0  0  0  0  0  0  0
   -2.0510    1.3540    4.4080 H   0  0  0  1  0  0  0  0  0  0  0  0
   -3.1746   -0.3614    4.3986 O   0  0  0  1  0  0  0  0  0  0  0  0
   -3.5890   -0.8889    3.7119 H   0  0  0  1  0  0  0  0  0  0  0  0
   -0.8386   -0.2863    3.6969 C   0  0  0  1  0  0  0  0  0  0  0  0
   -0.8009   -1.0963    4.3950 H   0  0  0  1  0  0  0  0  0  0  0  0
    0.2904    0.6176    3.9347 N   0  0  0  1  0  0  0  0  0  0  0  0
    0.5221    1.8594    3.4277 C   0  0  0  1  0  0  0  0  0  0  0  0
   -0.1369    2.3283    2.7740 H   0  0  0  1  0  0  0  0  0  0  0  0
    1.6337    2.4173    3.8237 N   0  0  0  1  0  0  0  0  0  0  0  0
    2.1866    1.4719    4.6736 C   0  0  0  1  0  0  0  0  0  0  0  0
    3.3566    1.4084    5.4246 C   0  0  0  1  0  0  0  0  0  0  0  0
    4.2828    2.4175    5.4521 N   0  0  0  1  0  0  0  0  0  0  0  0
    4.2021    3.1737    4.8339 H   0  0  0  1  0  0  0  0  0  0  0  0
    5.0261    2.3832    6.0898 H   0  0  0  1  0  0  0  0  0  0  0  0
    3.6126    0.3229    6.1627 N   0  0  0  1  0  0  0  0  0  0  0  0
    2.7218   -0.6810    6.1356 C   0  0  0  1  0  0  0  0  0  0  0  0
    2.9589   -1.5086    6.7191 H   0  0  0  1  0  0  0  0  0  0  0  0
    1.5792   -0.7601    5.4647 N   0  0  0  1  0  0  0  0  0  0  0  0
    1.3570    0.3452    4.7520 C   0  0  0  1  0  0  0  0  0  0  0  0
  1  2  1  0  0  0  0
  1  3  1  0  0  0  0
  1  4  2  0  0  0  0
  1  8  1  0  0  0  0
  5  6  1  0  0  0  0
  5  7  2  0  0  0  0
  5  8  1  0  0  0  0
  5 12  1  0  0  0  0
  9 10  2  0  0  0  0
  9 11  1  0  0  0  0
  9 12  1  0  0  0  0
  9 13  1  0  0  0  0
 13 14  1  0  0  0  0
 14 15  1  0  0  0  0
 14 16  1  0  0  0  0
 14 17  1  0  0  0  0
 17 18  1  0  0  0  0
 17 19  1  0  0  0  0
 17 20  1  0  0  0  0
 19 28  1  0  0  0  0
 20 21  1  0  0  0  0
 20 22  1  0  0  0  0
 20 24  1  0  0  0  0
 22 23  1  0  0  0  0
 24 25  1  0  0  0  0
 24 26  1  0  0  0  0
 24 28  1  0  0  0  0
 26 27  1  0  0  0  0
 28 29  1  0  0  0  0
 28 30  1  0  0  0  0
 30 31  1  0  0  0  0
 30 43  1  0  0  0  0
 31 32  1  0  0  0  0
 31 33  2  0  0  0  0
 33 34  1  0  0  0  0
 34 35  1  0  0  0  0
 34 43  2  0  0  0  0
 35 36  1  0  0  0  0
 35 39  2  0  0  0  0
 36 37  1  0  0  0  0
 36 38  1  0  0  0  0
 39 40  1  0  0  0  0
 40 41  1  0  0  0  0
 40 42  2  0  0  0  0
 42 43  1  0  0  0  0
M  BCL ATM P_TeTeTeTePi O_Te2Te2TeTe O_Te2Te2Te2Te O_Tr2Tr2TrPi P_TeTeTeTePi O_Te2Te2TeTe O_Tr2Tr2TrPi O_Tr2TrTrPi2 P_TeTeTeTePi O_Tr2Tr2TrPi O_Te2Te2Te2Te O_Tr2TrTrPi2 O_Tr2TrTrPi2 C_TeTeTeTe H_S H_S C_TeTeTeTe H_S O_Te2Te2TeTe C_TeTeTeTe H_S O_Te2Te2TeTe H_S C_TeTeTeTe H_S O_Te2Te2TeTe H_S C_TeTeTeTe H_S N_TrTrTrPi2 C_TrTrTrPi H_S N_Tr2TrTrPi C_TrTrTrPi C_TrTrTrPi N_TrTrTrPi2 H_S H_S N_Tr2TrTrPi C_TrTrTrPi H_S N_Tr2TrTrPi C_TrTrTrPi
M  BCL BND ConjugatedSingleBond ConjugatedSingleBond ConjugatedDoubleBond ConjugatedSingleBond ConjugatedSingleBond ConjugatedDoubleBond ConjugatedSingleBond ConjugatedSingleBond ConjugatedDoubleBond ConjugatedSingleBond ConjugatedSingleBond ConjugatedSingleBond NonConjugatedSingleBond NonConjugatedSingleBond NonConjugatedSingleBond NonConjugatedSingleBond NonConjugatedSingleBond NonConjugatedSingleBondInRing NonConjugatedSingleBondInRing NonConjugatedSingleBondInRing NonConjugatedSingleBond NonConjugatedSingleBond NonConjugatedSingleBondInRing NonConjugatedSingleBond NonConjugatedSingleBond NonConjugatedSingleBond NonConjugatedSingleBondInRing NonConjugatedSingleBond NonConjugatedSingleBond NonConjugatedSingleBond AromaticSingleBond AromaticSingleBond NonConjugatedSingleBond AromaticDoubleBond AromaticSingleBond AromaticSingleBond AromaticDoubleBond ConjugatedSingleBond AromaticDoubleBond NonConjugatedSingleBond NonConjugatedSingleBond AromaticSingleBond NonConjugatedSingleBond AromaticDoubleBond AromaticSingleBond
M  BCL CHI   1   S   5   S   9   S  17   R  20   S  24   R  28   S
M  BCL DBI - - - - - - -
M  END
> <ConfClashScore>
0 

> <ConfOneFourInteractionScore>
-0.979313 

> <ConfScore>
0.00566282 

> <ConfScorePBest>
0.0130385 

> <ConfTolerance>
1.21435 

$$$$
ATP.****
  PyMOL2.5          3D                             0

 43 45  0  0  0  0  0  0  0  0999 V2000
   -3.7612   -2.1811   -5.1863 P   0  0  0  1  0  0  0  0  0  0  0  0
   -4.2001   -1.8346   -6.7280 O   0  0  0  0  0  0  0  0  0  0  0  0
   -2.5552   -3.2555   -5.3114 O   0  5  0  1  0  0  0  0  0  0  0  0
   -4.9081   -2.6501   -4.3770 O   0  0  0  1  0  0  0  0  0  0  0  0
   -2.6664   -0.6605   -2.9905 P   0  0  0  1  0  0  0  0  0  0  0  0
   -2.8461    0.7960   -2.5693 O   0  0  0  0  0  0  0  0  0  0  0  0
   -3.4171   -1.6315   -2.1437 O   0  0  0  1  0  0  0  0  0  0  0  0
   -3.1821   -0.8480   -4.5002 O   0  0  0  1  0  0  0  0  0  0  0  0
    0.0045   -0.8573   -1.7860 P   0  0  0  1  0  0  0  0  0  0  0  0
    0.6549    0.4708   -1.8459 O   0  0  0  1  0  0  0  0  0  0  0  0
    1.0227   -2.0861   -2.0651 O   0  5  0  1  0  0  0  0  0  0  0  0
   -1.0771   -0.8944   -2.9671 O   0  0  0  1  0  0  0  0  0  0  0  0
   -0.7701   -1.0360   -0.4365 O   0  0  0  1  0  0  0  0  0  0  0  0
   -1.6142   -0.0367    0.1821 C   0  0  0  1  0  0  0  0  0  0  0  0
   -2.5264    0.0614   -0.3687 H   0  0  0  1  0  0  0  0  0  0  0  0
   -1.1074    0.9054    0.2042 H   0  0  0  1  0  0  0  0  0  0  0  0
   -1.9104   -0.4945    1.5900 C   0  0  0  1  0  0  0  0  0  0  0  0
   -2.5158   -1.3762    1.5590 H   0  0  0  1  0  0  0  0  0  0  0  0
   -0.7224   -0.7324    2.2951 O   0  0  0  1  0  0  0  0  0  0  0  0
   -2.6082    0.6166    2.3878 C   0  0  0  1  0  0  0  0  0  0  0  0
   -2.2526    1.5826    2.0959 H   0  0  0  1  0  0  0  0  0  0  0  0
   -4.0261    0.5592    2.2192 O   0  0  0  1  0  0  0  0  0  0  0  0
   -4.2822    1.1044    1.4716 H   0  0  0  1  0  0  0  0  0  0  0  0
   -2.2170    0.3001    3.8074 C   0  0  0  1  0  0  0  0  0  0  0  0
   -2.2164    1.1834    4.4113 H   0  0  0  1  0  0  0  0  0  0  0  0
   -3.0992   -0.6672    4.3784 O   0  0  0  1  0  0  0  0  0  0  0  0
   -3.4276   -0.3438    5.2205 H   0  0  0  1  0  0  0  0  0  0  0  0
   -0.8015   -0.2662    3.6609 C   0  0  0  1  0  0  0  0  0  0  0  0
   -0.6484   -1.0758    4.3436 H   0  0  0  1  0  0  0  0  0  0  0  0
    0.1970    0.7761    3.9069 N   0  0  0  1  0  0  0  0  0  0  0  0
    1.0423    0.8611    4.9704 C   0  0  0  1  0  0  0  0  0  0  0  0
    1.1081    0.1162    5.6933 H   0  0  0  1  0  0  0  0  0  0  0  0
    1.7641    1.9478    5.0147 N   0  0  0  1  0  0  0  0  0  0  0  0
    1.3741    2.6429    3.8805 C   0  0  0  1  0  0  0  0  0  0  0  0
    1.7288    3.8680    3.3234 C   0  0  0  1  0  0  0  0  0  0  0  0
    2.6576    4.7037    3.8852 N   0  0  0  1  0  0  0  0  0  0  0  0
    2.7416    5.6270    3.5678 H   0  0  0  1  0  0  0  0  0  0  0  0
    3.2380    4.3782    4.6046 H   0  0  0  1  0  0  0  0  0  0  0  0
    1.1507    4.2717    2.1869 N   0  0  0  1  0  0  0  0  0  0  0  0
    0.2280    3.4708    1.6310 C   0  0  0  1  0  0  0  0  0  0  0  0
   -0.2009    3.8218    0.7510 H   0  0  0  1  0  0  0  0  0  0  0  0
   -0.2110    2.2912    2.0529 N   0  0  0  1  0  0  0  0  0  0  0  0
    0.3978    1.9214    3.1805 C   0  0  0  1  0  0  0  0  0  0  0  0
  1  2  1  0  0  0  0
  1  3  1  0  0  0  0
  1  4  2  0  0  0  0
  1  8  1  0  0  0  0
  5  6  1  0  0  0  0
  5  7  2  0  0  0  0
  5  8  1  0  0  0  0
  5 12  1  0  0  0  0
  9 10  2  0  0  0  0
  9 11  1  0  0  0  0
  9 12  1  0  0  0  0
  9 13  1  0  0  0  0
 13 14  1  0  0  0  0
 14 15  1  0  0  0  0
 14 16  1  0  0  0  0
 14 17  1  0  0  0  0
 17 18  1  0  0  0  0
 17 19  1  0  0  0  0
 17 20  1  0  0  0  0
 19 28  1  0  0  0  0
 20 21  1  0  0  0  0
 20 22  1  0  0  0  0
 20 24  1  0  0  0  0
 22 23  1  0  0  0  0
 24 25  1  0  0  0  0
 24 26  1  0  0  0  0
 24 28  1  0  0  0  0
 26 27  1  0  0  0  0
 28 29  1  0  0  0  0
 28 30  1  0  0  0  0
 30 31  1  0  0  0  0
 30 43  1  0  0  0  0
 31 32  1  0  0  0  0
 31 33  2  0  0  0  0
 33 34  1  0  0  0  0
 34 35  1  0  0  0  0
 34 43  2  0  0  0  0
 35 36  1  0  0  0  0
 35 39  2  0  0  0  0
 36 37  1  0  0  0  0
 36 38  1  0  0  0  0
 39 40  1  0  0  0  0
 40 41  1  0  0  0  0
 40 42  2  0  0  0  0
 42 43  1  0  0  0  0
M  BCL ATM P_TeTeTeTePi O_Te2Te2TeTe O_Te2Te2Te2Te O_Tr2Tr2TrPi P_TeTeTeTePi O_Te2Te2TeTe O_Tr2Tr2TrPi O_Tr2TrTrPi2 P_TeTeTeTePi O_Tr2Tr2TrPi O_Te2Te2Te2Te O_Tr2TrTrPi2 O_Tr2TrTrPi2 C_TeTeTeTe H_S H_S C_TeTeTeTe H_S O_Te2Te2TeTe C_TeTeTeTe H_S O_Te2Te2TeTe H_S C_TeTeTeTe H_S O_Te2Te2TeTe H_S C_TeTeTeTe H_S N_TrTrTrPi2 C_TrTrTrPi H_S N_Tr2TrTrPi C_TrTrTrPi C_TrTrTrPi N_TrTrTrPi2 H_S H_S N_Tr2TrTrPi C_TrTrTrPi H_S N_Tr2TrTrPi C_TrTrTrPi
M  BCL BND ConjugatedSingleBond ConjugatedSingleBond ConjugatedDoubleBond ConjugatedSingleBond ConjugatedSingleBond ConjugatedDoubleBond ConjugatedSingleBond ConjugatedSingleBond ConjugatedDoubleBond ConjugatedSingleBond ConjugatedSingleBond ConjugatedSingleBond NonConjugatedSingleBond NonConjugatedSingleBond NonConjugatedSingleBond NonConjugatedSingleBond NonConjugatedSingleBond NonConjugatedSingleBondInRing NonConjugatedSingleBondInRing NonConjugatedSingleBondInRing NonConjugatedSingleBond NonConjugatedSingleBond NonConjugatedSingleBondInRing NonConjugatedSingleBond NonConjugatedSingleBond NonConjugatedSingleBond NonConjugatedSingleBondInRing NonConjugatedSingleBond NonConjugatedSingleBond NonConjugatedSingleBond AromaticSingleBond AromaticSingleBond NonConjugatedSingleBond AromaticDoubleBond AromaticSingleBond AromaticSingleBond AromaticDoubleBond ConjugatedSingleBond AromaticDoubleBond NonConjugatedSingleBond NonConjugatedSingleBond AromaticSingleBond NonConjugatedSingleBond AromaticDoubleBond AromaticSingleBond
M  BCL CHI   1   S   5   S   9   S  17   R  20   S  24   R  28   S
M  BCL DBI - - - - - - -
M  END
> <ConfClashScore>
0 

> <ConfOneFourInteractionScore>
-0.98787 

> <ConfScore>
0.00716754 

> <ConfScorePBest>
0.0129355 

> <ConfTolerance>
1.41122 

$$$$
ATP.****
  PyMOL2.5          3D                             0

 43 45  0  0  0  0  0  0  0  0999 V2000
    2.5994    0.8052   -1.9334 P   0  0  0  1  0  0  0  0  0  0  0  0
    0.9700    0.9758   -2.0076 O   0  0  0  0  0  0  0  0  0  0  0  0
    3.1404    0.5039   -3.4304 O   0  5  0  1  0  0  0  0  0  0  0  0
    2.9429   -0.1440   -0.8511 O   0  0  0  1  0  0  0  0  0  0  0  0
    2.6739    3.0550   -0.0851 P   0  0  0  1  0  0  0  0  0  0  0  0
    2.9911    2.2785    1.1371 O   0  0  0  0  0  0  0  0  0  0  0  0
    3.2399    4.3964   -0.2948 O   0  0  0  1  0  0  0  0  0  0  0  0
    3.0492    2.2588   -1.4274 O   0  0  0  1  0  0  0  0  0  0  0  0
   -0.0720    3.4353    0.9723 P   0  0  0  1  0  0  0  0  0  0  0  0
   -1.1885    4.2368    0.4233 O   0  0  0  1  0  0  0  0  0  0  0  0
    0.6754    4.1594    2.2139 O   0  5  0  1  0  0  0  0  0  0  0  0
    1.0707    3.0794   -0.0991 O   0  0  0  1  0  0  0  0  0  0  0  0
   -0.5247    2.0173    1.4826 O   0  0  0  1  0  0  0  0  0  0  0  0
   -0.9879    1.0080    0.5549 C   0  0  0  1  0  0  0  0  0  0  0  0
   -0.1603    0.6110    0.0051 H   0  0  0  1  0  0  0  0  0  0  0  0
   -1.6960    1.4350   -0.1242 H   0  0  0  1  0  0  0  0  0  0  0  0
   -1.6438   -0.0881    1.3598 C   0  0  0  1  0  0  0  0  0  0  0  0
   -2.0263   -0.8370    0.6982 H   0  0  0  1  0  0  0  0  0  0  0  0
   -0.7114   -0.6582    2.2344 O   0  0  0  1  0  0  0  0  0  0  0  0
   -2.7880    0.4969    2.2028 C   0  0  0  1  0  0  0  0  0  0  0  0
   -3.0586    1.4739    1.8604 H   0  0  0  1  0  0  0  0  0  0  0  0
   -3.9355   -0.3532    2.1737 O   0  0  0  1  0  0  0  0  0  0  0  0
   -4.0506   -0.7656    3.0329 H   0  0  0  1  0  0  0  0  0  0  0  0
   -2.1771    0.5533    3.6093 C   0  0  0  1  0  0  0  0  0  0  0  0
   -1.6796    1.4864    3.7729 H   0  0  0  1  0  0  0  0  0  0  0  0
   -3.1798    0.3659    4.6091 O   0  0  0  1  0  0  0  0  0  0  0  0
   -2.9493    0.8704    5.3927 H   0  0  0  1  0  0  0  0  0  0  0  0
   -1.1910   -0.5922    3.6119 C   0  0  0  1  0  0  0  0  0  0  0  0
   -1.6728   -1.5063    3.8896 H   0  0  0  1  0  0  0  0  0  0  0  0
   -0.0934   -0.3246    4.5270 N   0  0  0  1  0  0  0  0  0  0  0  0
    0.9138    0.5757    4.3602 C   0  0  0  1  0  0  0  0  0  0  0  0
    0.9842    1.1870    3.5218 H   0  0  0  1  0  0  0  0  0  0  0  0
    1.7846    0.6140    5.3319 N   0  0  0  1  0  0  0  0  0  0  0  0
    1.3144   -0.3345    6.2268 C   0  0  0  1  0  0  0  0  0  0  0  0
    1.7568   -0.8111    7.4572 C   0  0  0  1  0  0  0  0  0  0  0  0
    2.8963   -0.3834    8.1300 N   0  0  0  1  0  0  0  0  0  0  0  0
    3.0819   -0.7089    9.0355 H   0  0  0  1  0  0  0  0  0  0  0  0
    3.5137    0.2436    7.6985 H   0  0  0  1  0  0  0  0  0  0  0  0
    1.0612   -1.7631    8.0886 N   0  0  0  1  0  0  0  0  0  0  0  0
   -0.0444   -2.2354    7.4915 C   0  0  0  1  0  0  0  0  0  0  0  0
   -0.5546   -2.9772    8.0120 H   0  0  0  1  0  0  0  0  0  0  0  0
   -0.5742   -1.8836    6.3264 N   0  0  0  1  0  0  0  0  0  0  0  0
    0.1424   -0.9260    5.7363 C   0  0  0  1  0  0  0  0  0  0  0  0
  1  2  1  0  0  0  0
  1  3  1  0  0  0  0
  1  4  2  0  0  0  0
  1  8  1  0  0  0  0
  5  6  1  0  0  0  0
  5  7  2  0  0  0  0
  5  8  1  0  0  0  0
  5 12  1  0  0  0  0
  9 10  2  0  0  0  0
  9 11  1  0  0  0  0
  9 12  1  0  0  0  0
  9 13  1  0  0  0  0
 13 14  1  0  0  0  0
 14 15  1  0  0  0  0
 14 16  1  0  0  0  0
 14 17  1  0  0  0  0
 17 18  1  0  0  0  0
 17 19  1  0  0  0  0
 17 20  1  0  0  0  0
 19 28  1  0  0  0  0
 20 21  1  0  0  0  0
 20 22  1  0  0  0  0
 20 24  1  0  0  0  0
 22 23  1  0  0  0  0
 24 25  1  0  0  0  0
 24 26  1  0  0  0  0
 24 28  1  0  0  0  0
 26 27  1  0  0  0  0
 28 29  1  0  0  0  0
 28 30  1  0  0  0  0
 30 31  1  0  0  0  0
 30 43  1  0  0  0  0
 31 32  1  0  0  0  0
 31 33  2  0  0  0  0
 33 34  1  0  0  0  0
 34 35  1  0  0  0  0
 34 43  2  0  0  0  0
 35 36  1  0  0  0  0
 35 39  2  0  0  0  0
 36 37  1  0  0  0  0
 36 38  1  0  0  0  0
 39 40  1  0  0  0  0
 40 41  1  0  0  0  0
 40 42  2  0  0  0  0
 42 43  1  0  0  0  0
M  BCL ATM P_TeTeTeTePi O_Te2Te2TeTe O_Te2Te2Te2Te O_Tr2Tr2TrPi P_TeTeTeTePi O_Te2Te2TeTe O_Tr2Tr2TrPi O_Tr2TrTrPi2 P_TeTeTeTePi O_Tr2Tr2TrPi O_Te2Te2Te2Te O_Tr2TrTrPi2 O_Tr2TrTrPi2 C_TeTeTeTe H_S H_S C_TeTeTeTe H_S O_Te2Te2TeTe C_TeTeTeTe H_S O_Te2Te2TeTe H_S C_TeTeTeTe H_S O_Te2Te2TeTe H_S C_TeTeTeTe H_S N_TrTrTrPi2 C_TrTrTrPi H_S N_Tr2TrTrPi C_TrTrTrPi C_TrTrTrPi N_TrTrTrPi2 H_S H_S N_Tr2TrTrPi C_TrTrTrPi H_S N_Tr2TrTrPi C_TrTrTrPi
M  BCL BND ConjugatedSingleBond ConjugatedSingleBond ConjugatedDoubleBond ConjugatedSingleBond ConjugatedSingleBond ConjugatedDoubleBond ConjugatedSingleBond ConjugatedSingleBond ConjugatedDoubleBond ConjugatedSingleBond ConjugatedSingleBond ConjugatedSingleBond NonConjugatedSingleBond NonConjugatedSingleBond NonConjugatedSingleBond NonConjugatedSingleBond NonConjugatedSingleBond NonConjugatedSingleBondInRing NonConjugatedSingleBondInRing NonConjugatedSingleBondInRing NonConjugatedSingleBond NonConjugatedSingleBond NonConjugatedSingleBondInRing NonConjugatedSingleBond NonConjugatedSingleBond NonConjugatedSingleBond NonConjugatedSingleBondInRing NonConjugatedSingleBond NonConjugatedSingleBond NonConjugatedSingleBond AromaticSingleBond AromaticSingleBond NonConjugatedSingleBond AromaticDoubleBond AromaticSingleBond AromaticSingleBond AromaticDoubleBond ConjugatedSingleBond AromaticDoubleBond NonConjugatedSingleBond NonConjugatedSingleBond AromaticSingleBond NonConjugatedSingleBond AromaticDoubleBond AromaticSingleBond
M  BCL CHI   1   S   5   S   9   S  17   R  20   S  24   R  28   S
M  BCL DBI - - - - - - -
M  END
> <ConfClashScore>
0 

> <ConfOneFourInteractionScore>
-0.988217 

> <ConfScore>
0.0072642 

> <ConfScorePBest>
0.0128325 

> <ConfTolerance>
1.18889 

$$$$
ATP.****
  PyMOL2.5          3D                             0

 43 45  0  0  0  0  0  0  0  0999 V2000
   -4.5693    0.5578   -3.3170 P   0  0  0  1  0  0  0  0  0  0  0  0
   -4.8477    2.1695   -3.4366 O   0  0  0  0  0  0  0  0  0  0  0  0
   -5.7917   -0.2055   -4.0569 O   0  5  0  1  0  0  0  0  0  0  0  0
   -4.4123    0.2755   -1.8727 O   0  0  0  1  0  0  0  0  0  0  0  0
   -2.1156   -0.8795   -4.0656 P   0  0  0  1  0  0  0  0  0  0  0  0
   -2.6769   -2.0684   -3.3830 O   0  0  0  0  0  0  0  0  0  0  0  0
   -1.4656   -1.0475   -5.3773 O   0  0  0  1  0  0  0  0  0  0  0  0
   -3.2442    0.2583   -4.1746 O   0  0  0  1  0  0  0  0  0  0  0  0
   -0.0232   -0.3761   -1.9809 P   0  0  0  1  0  0  0  0  0  0  0  0
    0.9106    0.7720   -2.0017 O   0  0  0  1  0  0  0  0  0  0  0  0
    0.7376   -1.7585   -2.3475 O   0  5  0  1  0  0  0  0  0  0  0  0
   -1.1339   -0.0483   -3.0876 O   0  0  0  1  0  0  0  0  0  0  0  0
   -0.7184   -0.6417   -0.5961 O   0  0  0  1  0  0  0  0  0  0  0  0
   -1.5968    0.2302    0.1534 C   0  0  0  1  0  0  0  0  0  0  0  0
   -2.5549    0.2771   -0.3205 H   0  0  0  1  0  0  0  0  0  0  0  0
   -1.1762    1.2127    0.2068 H   0  0  0  1  0  0  0  0  0  0  0  0
   -1.7378   -0.3451    1.5429 C   0  0  0  1  0  0  0  0  0  0  0  0
   -2.1045   -1.3483    1.4785 H   0  0  0  1  0  0  0  0  0  0  0  0
   -0.4729   -0.3095    2.2391 O   0  0  0  1  0  0  0  0  0  0  0  0
   -2.6830    0.5255    2.3987 C   0  0  0  1  0  0  0  0  0  0  0  0
   -2.7153    1.5286    2.0276 H   0  0  0  1  0  0  0  0  0  0  0  0
   -4.0026   -0.0209    2.4115 O   0  0  0  1  0  0  0  0  0  0  0  0
   -4.6204    0.6251    2.0611 H   0  0  0  1  0  0  0  0  0  0  0  0
   -2.0578    0.4834    3.8127 C   0  0  0  1  0  0  0  0  0  0  0  0
   -1.7851    1.4657    4.1375 H   0  0  0  1  0  0  0  0  0  0  0  0
   -2.9653   -0.0946    4.7522 O   0  0  0  1  0  0  0  0  0  0  0  0
   -3.8665    0.1218    4.5019 H   0  0  0  1  0  0  0  0  0  0  0  0
   -0.8064   -0.4051    3.6402 C   0  0  0  1  0  0  0  0  0  0  0  0
   -1.0246   -1.4182    3.9067 H   0  0  0  1  0  0  0  0  0  0  0  0
    0.2940    0.0907    4.4657 N   0  0  0  1  0  0  0  0  0  0  0  0
    0.8112   -0.5097    5.5725 C   0  0  0  1  0  0  0  0  0  0  0  0
    0.5453   -1.4725    5.8622 H   0  0  0  1  0  0  0  0  0  0  0  0
    1.6660    0.2140    6.2428 N   0  0  0  1  0  0  0  0  0  0  0  0
    1.7317    1.3936    5.5177 C   0  0  0  1  0  0  0  0  0  0  0  0
    2.4306    2.5877    5.6683 C   0  0  0  1  0  0  0  0  0  0  0  0
    3.2943    2.8224    6.7055 N   0  0  0  1  0  0  0  0  0  0  0  0
    3.8045    3.6584    6.7387 H   0  0  0  1  0  0  0  0  0  0  0  0
    3.4019    2.1542    7.4143 H   0  0  0  1  0  0  0  0  0  0  0  0
    2.2695    3.5678    4.7727 N   0  0  0  1  0  0  0  0  0  0  0  0
    1.4158    3.3591    3.7580 C   0  0  0  1  0  0  0  0  0  0  0  0
    1.3153    4.1462    3.0857 H   0  0  0  1  0  0  0  0  0  0  0  0
    0.6826    2.2839    3.4969 N   0  0  0  1  0  0  0  0  0  0  0  0
    0.8811    1.3282    4.4059 C   0  0  0  1  0  0  0  0  0  0  0  0
  1  2  1  0  0  0  0
  1  3  1  0  0  0  0
  1  4  2  0  0  0  0
  1  8  1  0  0  0  0
  5  6  1  0  0  0  0
  5  7  2  0  0  0  0
  5  8  1  0  0  0  0
  5 12  1  0  0  0  0
  9 10  2  0  0  0  0
  9 11  1  0  0  0  0
  9 12  1  0  0  0  0
  9 13  1  0  0  0  0
 13 14  1  0  0  0  0
 14 15  1  0  0  0  0
 14 16  1  0  0  0  0
 14 17  1  0  0  0  0
 17 18  1  0  0  0  0
 17 19  1  0  0  0  0
 17 20  1  0  0  0  0
 19 28  1  0  0  0  0
 20 21  1  0  0  0  0
 20 22  1  0  0  0  0
 20 24  1  0  0  0  0
 22 23  1  0  0  0  0
 24 25  1  0  0  0  0
 24 26  1  0  0  0  0
 24 28  1  0  0  0  0
 26 27  1  0  0  0  0
 28 29  1  0  0  0  0
 28 30  1  0  0  0  0
 30 31  1  0  0  0  0
 30 43  1  0  0  0  0
 31 32  1  0  0  0  0
 31 33  2  0  0  0  0
 33 34  1  0  0  0  0
 34 35  1  0  0  0  0
 34 43  2  0  0  0  0
 35 36  1  0  0  0  0
 35 39  2  0  0  0  0
 36 37  1  0  0  0  0
 36 38  1  0  0  0  0
 39 40  1  0  0  0  0
 40 41  1  0  0  0  0
 40 42  2  0  0  0  0
 42 43  1  0  0  0  0
M  BCL ATM P_TeTeTeTePi O_Te2Te2TeTe O_Te2Te2Te2Te O_Tr2Tr2TrPi P_TeTeTeTePi O_Te2Te2TeTe O_Tr2Tr2TrPi O_Tr2TrTrPi2 P_TeTeTeTePi O_Tr2Tr2TrPi O_Te2Te2Te2Te O_Tr2TrTrPi2 O_Tr2TrTrPi2 C_TeTeTeTe H_S H_S C_TeTeTeTe H_S O_Te2Te2TeTe C_TeTeTeTe H_S O_Te2Te2TeTe H_S C_TeTeTeTe H_S O_Te2Te2TeTe H_S C_TeTeTeTe H_S N_TrTrTrPi2 C_TrTrTrPi H_S N_Tr2TrTrPi C_TrTrTrPi C_TrTrTrPi N_TrTrTrPi2 H_S H_S N_Tr2TrTrPi C_TrTrTrPi H_S N_Tr2TrTrPi C_TrTrTrPi
M  BCL BND ConjugatedSingleBond ConjugatedSingleBond ConjugatedDoubleBond ConjugatedSingleBond ConjugatedSingleBond ConjugatedDoubleBond ConjugatedSingleBond ConjugatedSingleBond ConjugatedDoubleBond ConjugatedSingleBond ConjugatedSingleBond ConjugatedSingleBond NonConjugatedSingleBond NonConjugatedSingleBond NonConjugatedSingleBond NonConjugatedSingleBond NonConjugatedSingleBond NonConjugatedSingleBondInRing NonConjugatedSingleBondInRing NonConjugatedSingleBondInRing NonConjugatedSingleBond NonConjugatedSingleBond NonConjugatedSingleBondInRing NonConjugatedSingleBond NonConjugatedSingleBond NonConjugatedSingleBond NonConjugatedSingleBondInRing NonConjugatedSingleBond NonConjugatedSingleBond NonConjugatedSingleBond AromaticSingleBond AromaticSingleBond NonConjugatedSingleBond AromaticDoubleBond AromaticSingleBond AromaticSingleBond AromaticDoubleBond ConjugatedSingleBond AromaticDoubleBond NonConjugatedSingleBond NonConjugatedSingleBond AromaticSingleBond NonConjugatedSingleBond AromaticDoubleBond AromaticSingleBond
M  BCL CHI   1   S   5   S   9   S  17   R  20   S  24   R  28   S
M  BCL DBI - - - - - - -
M  END
> <ConfClashScore>
0 

> <ConfOneFourInteractionScore>
-0.981204 

> <ConfScore>
0.0080714 

> <ConfScorePBest>
0.0127295 

> <ConfTolerance>
1.26016 

$$$$
ATP.****
  PyMOL2.5          3D                             0

 43 45  0  0  0  0  0  0  0  0999 V2000
    1.6587   -5.8397   -1.7609 P   0  0  0  1  0  0  0  0  0  0  0  0
    0.7314   -7.1768   -1.5558 O   0  0  0  0  0  0  0  0  0  0  0  0
    3.0884   -6.2512   -2.4019 O   0  5  0  1  0  0  0  0  0  0  0  0
    1.8476   -5.0331   -0.5345 O   0  0  0  1  0  0  0  0  0  0  0  0
    0.9347   -3.3687   -3.3476 P   0  0  0  1  0  0  0  0  0  0  0  0
    2.3923   -2.8456   -3.3725 O   0  0  0  0  0  0  0  0  0  0  0  0
    0.1431   -3.1668   -4.5651 O   0  0  0  1  0  0  0  0  0  0  0  0
    1.0058   -4.9003   -2.8826 O   0  0  0  1  0  0  0  0  0  0  0  0
   -0.2951   -1.1828   -1.8621 P   0  0  0  1  0  0  0  0  0  0  0  0
   -1.2575   -0.8905   -2.9478 O   0  0  0  1  0  0  0  0  0  0  0  0
    1.0244   -0.2614   -2.0477 O   0  5  0  1  0  0  0  0  0  0  0  0
    0.2425   -2.6831   -2.0740 O   0  0  0  1  0  0  0  0  0  0  0  0
   -0.8748   -1.0846   -0.4041 O   0  0  0  1  0  0  0  0  0  0  0  0
   -1.5285    0.0387    0.2321 C   0  0  0  1  0  0  0  0  0  0  0  0
   -2.3698    0.3492   -0.3516 H   0  0  0  1  0  0  0  0  0  0  0  0
   -0.8412    0.8529    0.3295 H   0  0  0  1  0  0  0  0  0  0  0  0
   -1.9888   -0.4122    1.5983 C   0  0  0  1  0  0  0  0  0  0  0  0
   -2.7260   -1.1804    1.4913 H   0  0  0  1  0  0  0  0  0  0  0  0
   -0.8638   -0.8885    2.3861 O   0  0  0  1  0  0  0  0  0  0  0  0
   -2.5505    0.7659    2.3929 C   0  0  0  1  0  0  0  0  0  0  0  0
   -2.0599    1.6809    2.1340 H   0  0  0  1  0  0  0  0  0  0  0  0
   -3.9577    0.9062    2.1923 O   0  0  0  1  0  0  0  0  0  0  0  0
   -4.2299    0.3693    1.4445 H   0  0  0  1  0  0  0  0  0  0  0  0
   -2.2351    0.3540    3.8078 C   0  0  0  1  0  0  0  0  0  0  0  0
   -2.1998    1.2021    4.4592 H   0  0  0  1  0  0  0  0  0  0  0  0
   -3.1936   -0.5849    4.2987 O   0  0  0  1  0  0  0  0  0  0  0  0
   -3.2153   -0.5489    5.2578 H   0  0  0  1  0  0  0  0  0  0  0  0
   -0.8656   -0.2842    3.6624 C   0  0  0  1  0  0  0  0  0  0  0  0
   -0.7133   -1.0199    4.4243 H   0  0  0  1  0  0  0  0  0  0  0  0
    0.1829    0.7314    3.7480 N   0  0  0  1  0  0  0  0  0  0  0  0
    0.4634    1.6869    2.8200 C   0  0  0  1  0  0  0  0  0  0  0  0
   -0.1495    1.8662    1.9992 H   0  0  0  1  0  0  0  0  0  0  0  0
    1.5596    2.3613    3.0380 N   0  0  0  1  0  0  0  0  0  0  0  0
    2.0475    1.8159    4.2154 C   0  0  0  1  0  0  0  0  0  0  0  0
    3.1715    2.0519    5.0014 C   0  0  0  1  0  0  0  0  0  0  0  0
    4.0584    3.0318    4.6061 N   0  0  0  1  0  0  0  0  0  0  0  0
    4.8491    3.2259    5.1515 H   0  0  0  1  0  0  0  0  0  0  0  0
    3.8976    3.5338    3.7800 H   0  0  0  1  0  0  0  0  0  0  0  0
    3.3672    1.3323    6.1116 N   0  0  0  1  0  0  0  0  0  0  0  0
    2.4631    0.3882    6.4172 C   0  0  0  1  0  0  0  0  0  0  0  0
    2.6530   -0.1521    7.2853 H   0  0  0  1  0  0  0  0  0  0  0  0
    1.3595    0.0513    5.7611 N   0  0  0  1  0  0  0  0  0  0  0  0
    1.1965    0.7990    4.6688 C   0  0  0  1  0  0  0  0  0  0  0  0
  1  2  1  0  0  0  0
  1  3  1  0  0  0  0
  1  4  2  0  0  0  0
  1  8  1  0  0  0  0
  5  6  1  0  0  0  0
  5  7  2  0  0  0  0
  5  8  1  0  0  0  0
  5 12  1  0  0  0  0
  9 10  2  0  0  0  0
  9 11  1  0  0  0  0
  9 12  1  0  0  0  0
  9 13  1  0  0  0  0
 13 14  1  0  0  0  0
 14 15  1  0  0  0  0
 14 16  1  0  0  0  0
 14 17  1  0  0  0  0
 17 18  1  0  0  0  0
 17 19  1  0  0  0  0
 17 20  1  0  0  0  0
 19 28  1  0  0  0  0
 20 21  1  0  0  0  0
 20 22  1  0  0  0  0
 20 24  1  0  0  0  0
 22 23  1  0  0  0  0
 24 25  1  0  0  0  0
 24 26  1  0  0  0  0
 24 28  1  0  0  0  0
 26 27  1  0  0  0  0
 28 29  1  0  0  0  0
 28 30  1  0  0  0  0
 30 31  1  0  0  0  0
 30 43  1  0  0  0  0
 31 32  1  0  0  0  0
 31 33  2  0  0  0  0
 33 34  1  0  0  0  0
 34 35  1  0  0  0  0
 34 43  2  0  0  0  0
 35 36  1  0  0  0  0
 35 39  2  0  0  0  0
 36 37  1  0  0  0  0
 36 38  1  0  0  0  0
 39 40  1  0  0  0  0
 40 41  1  0  0  0  0
 40 42  2  0  0  0  0
 42 43  1  0  0  0  0
M  BCL ATM P_TeTeTeTePi O_Te2Te2TeTe O_Te2Te2Te2Te O_Tr2Tr2TrPi P_TeTeTeTePi O_Te2Te2TeTe O_Tr2Tr2TrPi O_Tr2TrTrPi2 P_TeTeTeTePi O_Tr2Tr2TrPi O_Te2Te2Te2Te O_Tr2TrTrPi2 O_Tr2TrTrPi2 C_TeTeTeTe H_S H_S C_TeTeTeTe H_S O_Te2Te2TeTe C_TeTeTeTe H_S O_Te2Te2TeTe H_S C_TeTeTeTe H_S O_Te2Te2TeTe H_S C_TeTeTeTe H_S N_TrTrTrPi2 C_TrTrTrPi H_S N_Tr2TrTrPi C_TrTrTrPi C_TrTrTrPi N_TrTrTrPi2 H_S H_S N_Tr2TrTrPi C_TrTrTrPi H_S N_Tr2TrTrPi C_TrTrTrPi
M  BCL BND ConjugatedSingleBond ConjugatedSingleBond ConjugatedDoubleBond ConjugatedSingleBond ConjugatedSingleBond ConjugatedDoubleBond ConjugatedSingleBond ConjugatedSingleBond ConjugatedDoubleBond ConjugatedSingleBond ConjugatedSingleBond ConjugatedSingleBond NonConjugatedSingleBond NonConjugatedSingleBond NonConjugatedSingleBond NonConjugatedSingleBond NonConjugatedSingleBond NonConjugatedSingleBondInRing NonConjugatedSingleBondInRing NonConjugatedSingleBondInRing NonConjugatedSingleBond NonConjugatedSingleBond NonConjugatedSingleBondInRing NonConjugatedSingleBond NonConjugatedSingleBond NonConjugatedSingleBond NonConjugatedSingleBondInRing NonConjugatedSingleBond NonConjugatedSingleBond NonConjugatedSingleBond AromaticSingleBond AromaticSingleBond NonConjugatedSingleBond AromaticDoubleBond AromaticSingleBond AromaticSingleBond AromaticDoubleBond ConjugatedSingleBond AromaticDoubleBond NonConjugatedSingleBond NonConjugatedSingleBond AromaticSingleBond NonConjugatedSingleBond AromaticDoubleBond AromaticSingleBond
M  BCL CHI   1   S   5   S   9   S  17   R  20   S  24   R  28   S
M  BCL DBI - - - - - - -
M  END
> <ConfClashScore>
0 

> <ConfOneFourInteractionScore>
-0.978227 

> <ConfScore>
0.00953343 

> <ConfScorePBest>
0.0126265 

> <ConfTolerance>
1.1858 

$$$$
ATP.****
  PyMOL2.5          3D                             0

 43 45  0  0  0  0  0  0  0  0999 V2000
    1.0018    5.5524   -2.2632 P   0  0  0  1  0  0  0  0  0  0  0  0
    2.5087    6.1612   -2.0434 O   0  0  0  0  0  0  0  0  0  0  0  0
    0.6086    5.8539   -3.8056 O   0  5  0  1  0  0  0  0  0  0  0  0
    0.2054    6.3413   -1.2968 O   0  0  0  1  0  0  0  0  0  0  0  0
    0.0350    2.8024   -2.2597 P   0  0  0  1  0  0  0  0  0  0  0  0
   -1.0906    2.8193   -1.3084 O   0  0  0  0  0  0  0  0  0  0  0  0
   -0.1767    2.9226   -3.7134 O   0  0  0  1  0  0  0  0  0  0  0  0
    1.0641    3.9885   -1.9145 O   0  0  0  1  0  0  0  0  0  0  0  0
    0.2598   -0.0004   -1.9525 P   0  0  0  1  0  0  0  0  0  0  0  0
    1.1844   -1.0695   -2.3915 O   0  0  0  1  0  0  0  0  0  0  0  0
   -0.9950   -0.0469   -2.9760 O   0  5  0  1  0  0  0  0  0  0  0  0
    0.9011    1.4809   -1.9123 O   0  0  0  1  0  0  0  0  0  0  0  0
   -0.3587   -0.3656   -0.5562 O   0  0  0  1  0  0  0  0  0  0  0  0
   -1.3821    0.4289    0.0882 C   0  0  0  1  0  0  0  0  0  0  0  0
   -2.2606    0.4558   -0.5221 H   0  0  0  1  0  0  0  0  0  0  0  0
   -1.0252    1.4254    0.2446 H   0  0  0  1  0  0  0  0  0  0  0  0
   -1.6985   -0.2207    1.4195 C   0  0  0  1  0  0  0  0  0  0  0  0
   -2.1194   -1.1902    1.2528 H   0  0  0  1  0  0  0  0  0  0  0  0
   -0.5098   -0.3155    2.2345 O   0  0  0  1  0  0  0  0  0  0  0  0
   -2.6677    0.6597    2.2375 C   0  0  0  1  0  0  0  0  0  0  0  0
   -2.5993    1.6834    1.9335 H   0  0  0  1  0  0  0  0  0  0  0  0
   -4.0104    0.2077    2.0873 O   0  0  0  1  0  0  0  0  0  0  0  0
   -4.2289   -0.3915    2.8048 H   0  0  0  1  0  0  0  0  0  0  0  0
   -2.1911    0.4882    3.6989 C   0  0  0  1  0  0  0  0  0  0  0  0
   -1.8908    1.4277    4.1138 H   0  0  0  1  0  0  0  0  0  0  0  0
   -3.2228   -0.0814    4.5059 O   0  0  0  1  0  0  0  0  0  0  0  0
   -3.3989    0.4938    5.2540 H   0  0  0  1  0  0  0  0  0  0  0  0
   -0.9873   -0.4729    3.5876 C   0  0  0  1  0  0  0  0  0  0  0  0
   -1.2946   -1.4827    3.7630 H   0  0  0  1  0  0  0  0  0  0  0  0
    0.0565   -0.1050    4.5486 N   0  0  0  1  0  0  0  0  0  0  0  0
    0.6187    1.1305    4.6503 C   0  0  0  1  0  0  0  0  0  0  0  0
    0.3358    1.9253    4.0422 H   0  0  0  1  0  0  0  0  0  0  0  0
    1.5397    1.2425    5.5685 N   0  0  0  1  0  0  0  0  0  0  0  0
    1.5905   -0.0224    6.1333 C   0  0  0  1  0  0  0  0  0  0  0  0
    2.3484   -0.6033    7.1458 C   0  0  0  1  0  0  0  0  0  0  0  0
    3.2896    0.1281    7.8211 N   0  0  0  1  0  0  0  0  0  0  0  0
    3.7780   -0.2737    8.5697 H   0  0  0  1  0  0  0  0  0  0  0  0
    3.4745    1.0532    7.5556 H   0  0  0  1  0  0  0  0  0  0  0  0
    2.1568   -1.8882    7.4634 N   0  0  0  1  0  0  0  0  0  0  0  0
    1.2362   -2.5772    6.7709 C   0  0  0  1  0  0  0  0  0  0  0  0
    1.1199   -3.5737    7.0449 H   0  0  0  1  0  0  0  0  0  0  0  0
    0.4541   -2.1585    5.7835 N   0  0  0  1  0  0  0  0  0  0  0  0
    0.6688   -0.8716    5.5063 C   0  0  0  1  0  0  0  0  0  0  0  0
  1  2  1  0  0  0  0
  1  3  1  0  0  0  0
  1  4  2  0  0  0  0
  1  8  1  0  0  0  0
  5  6  1  0  0  0  0
  5  7  2  0  0  0  0
  5  8  1  0  0  0  0
  5 12  1  0  0  0  0
  9 10  2  0  0  0  0
  9 11  1  0  0  0  0
  9 12  1  0  0  0  0
  9 13  1  0  0  0  0
 13 14  1  0  0  0  0
 14 15  1  0  0  0  0
 14 16  1  0  0  0  0
 14 17  1  0  0  0  0
 17 18  1  0  0  0  0
 17 19  1  0  0  0  0
 17 20  1  0  0  0  0
 19 28  1  0  0  0  0
 20 21  1  0  0  0  0
 20 22  1  0  0  0  0
 20 24  1  0  0  0  0
 22 23  1  0  0  0  0
 24 25  1  0  0  0  0
 24 26  1  0  0  0  0
 24 28  1  0  0  0  0
 26 27  1  0  0  0  0
 28 29  1  0  0  0  0
 28 30  1  0  0  0  0
 30 31  1  0  0  0  0
 30 43  1  0  0  0  0
 31 32  1  0  0  0  0
 31 33  2  0  0  0  0
 33 34  1  0  0  0  0
 34 35  1  0  0  0  0
 34 43  2  0  0  0  0
 35 36  1  0  0  0  0
 35 39  2  0  0  0  0
 36 37  1  0  0  0  0
 36 38  1  0  0  0  0
 39 40  1  0  0  0  0
 40 41  1  0  0  0  0
 40 42  2  0  0  0  0
 42 43  1  0  0  0  0
M  BCL ATM P_TeTeTeTePi O_Te2Te2TeTe O_Te2Te2Te2Te O_Tr2Tr2TrPi P_TeTeTeTePi O_Te2Te2TeTe O_Tr2Tr2TrPi O_Tr2TrTrPi2 P_TeTeTeTePi O_Tr2Tr2TrPi O_Te2Te2Te2Te O_Tr2TrTrPi2 O_Tr2TrTrPi2 C_TeTeTeTe H_S H_S C_TeTeTeTe H_S O_Te2Te2TeTe C_TeTeTeTe H_S O_Te2Te2TeTe H_S C_TeTeTeTe H_S O_Te2Te2TeTe H_S C_TeTeTeTe H_S N_TrTrTrPi2 C_TrTrTrPi H_S N_Tr2TrTrPi C_TrTrTrPi C_TrTrTrPi N_TrTrTrPi2 H_S H_S N_Tr2TrTrPi C_TrTrTrPi H_S N_Tr2TrTrPi C_TrTrTrPi
M  BCL BND ConjugatedSingleBond ConjugatedSingleBond ConjugatedDoubleBond ConjugatedSingleBond ConjugatedSingleBond ConjugatedDoubleBond ConjugatedSingleBond ConjugatedSingleBond ConjugatedDoubleBond ConjugatedSingleBond ConjugatedSingleBond ConjugatedSingleBond NonConjugatedSingleBond NonConjugatedSingleBond NonConjugatedSingleBond NonConjugatedSingleBond NonConjugatedSingleBond NonConjugatedSingleBondInRing NonConjugatedSingleBondInRing NonConjugatedSingleBondInRing NonConjugatedSingleBond NonConjugatedSingleBond NonConjugatedSingleBondInRing NonConjugatedSingleBond NonConjugatedSingleBond NonConjugatedSingleBond NonConjugatedSingleBondInRing NonConjugatedSingleBond NonConjugatedSingleBond NonConjugatedSingleBond AromaticSingleBond AromaticSingleBond NonConjugatedSingleBond AromaticDoubleBond AromaticSingleBond AromaticSingleBond AromaticDoubleBond ConjugatedSingleBond AromaticDoubleBond NonConjugatedSingleBond NonConjugatedSingleBond AromaticSingleBond NonConjugatedSingleBond AromaticDoubleBond AromaticSingleBond
M  BCL CHI   1   S   5   S   9   S  17   R  20   S  24   R  28   S
M  BCL DBI - - - - - - -
M  END
> <ConfClashScore>
0 

> <ConfOneFourInteractionScore>
-0.983049 

> <ConfScore>
0.0107716 

> <ConfScorePBest>
0.0125235 

> <ConfTolerance>
1.2864 

$$$$
ATP.****
  PyMOL2.5          3D                             0

 43 45  0  0  0  0  0  0  0  0999 V2000
    1.7675   -0.9099   -0.9799 P   0  0  0  1  0  0  0  0  0  0  0  0
    0.8466   -1.1560    0.3546 O   0  0  0  0  0  0  0  0  0  0  0  0
    1.0525   -1.7103   -2.1935 O   0  5  0  1  0  0  0  0  0  0  0  0
    3.1958   -1.1623   -0.6854 O   0  0  0  1  0  0  0  0  0  0  0  0
    2.1012    2.0938   -1.0988 P   0  0  0  1  0  0  0  0  0  0  0  0
    3.5984    1.8377   -1.0297 O   0  0  0  0  0  0  0  0  0  0  0  0
    1.6868    2.9436   -2.2738 O   0  0  0  1  0  0  0  0  0  0  0  0
    1.5406    0.6217   -1.3916 O   0  0  0  1  0  0  0  0  0  0  0  0
    0.0682    3.1825    0.6842 P   0  0  0  1  0  0  0  0  0  0  0  0
   -0.6444    3.5579   -0.5575 O   0  0  0  1  0  0  0  0  0  0  0  0
    0.2188    4.3796    1.7652 O   0  5  0  1  0  0  0  0  0  0  0  0
    1.5073    2.5692    0.3127 O   0  0  0  1  0  0  0  0  0  0  0  0
   -0.7514    1.9903    1.2944 O   0  0  0  1  0  0  0  0  0  0  0  0
   -1.1665    0.8346    0.5211 C   0  0  0  1  0  0  0  0  0  0  0  0
   -0.3283    0.4285   -0.0057 H   0  0  0  1  0  0  0  0  0  0  0  0
   -1.9250    1.1176   -0.1785 H   0  0  0  1  0  0  0  0  0  0  0  0
   -1.7130   -0.1900    1.4856 C   0  0  0  1  0  0  0  0  0  0  0  0
   -2.1696   -0.9879    0.9382 H   0  0  0  1  0  0  0  0  0  0  0  0
   -0.6776   -0.6921    2.2825 O   0  0  0  1  0  0  0  0  0  0  0  0
   -2.7486    0.4663    2.4124 C   0  0  0  1  0  0  0  0  0  0  0  0
   -3.0641    1.4138    2.0283 H   0  0  0  1  0  0  0  0  0  0  0  0
   -3.8870   -0.3785    2.5926 O   0  0  0  1  0  0  0  0  0  0  0  0
   -4.6246   -0.0353    2.0829 H   0  0  0  1  0  0  0  0  0  0  0  0
   -1.9704    0.6329    3.7245 C   0  0  0  1  0  0  0  0  0  0  0  0
   -1.4616    1.5738    3.7504 H   0  0  0  1  0  0  0  0  0  0  0  0
   -2.8422    0.5311    4.8513 O   0  0  0  1  0  0  0  0  0  0  0  0
   -3.6340    0.0492    4.6015 H   0  0  0  1  0  0  0  0  0  0  0  0
   -0.9854   -0.5132    3.6985 C   0  0  0  1  0  0  0  0  0  0  0  0
   -1.4248   -1.3998    4.1058 H   0  0  0  1  0  0  0  0  0  0  0  0
    0.2244   -0.1752    4.4541 N   0  0  0  1  0  0  0  0  0  0  0  0
    0.6677   -0.7617    5.5996 C   0  0  0  1  0  0  0  0  0  0  0  0
    0.1623   -1.5468    6.0577 H   0  0  0  1  0  0  0  0  0  0  0  0
    1.7750   -0.2646    6.0799 N   0  0  0  1  0  0  0  0  0  0  0  0
    2.1032    0.7320    5.1740 C   0  0  0  1  0  0  0  0  0  0  0  0
    3.1411    1.6544    5.0800 C   0  0  0  1  0  0  0  0  0  0  0  0
    4.1943    1.7839    5.9787 N   0  0  0  1  0  0  0  0  0  0  0  0
    4.8915    2.4548    5.8232 H   0  0  0  1  0  0  0  0  0  0  0  0
    4.2393    1.2043    6.7677 H   0  0  0  1  0  0  0  0  0  0  0  0
    3.1742    2.5129    4.0550 N   0  0  0  1  0  0  0  0  0  0  0  0
    2.1809    2.4561    3.1540 C   0  0  0  1  0  0  0  0  0  0  0  0
    2.2405    3.1424    2.3749 H   0  0  0  1  0  0  0  0  0  0  0  0
    1.1328    1.6421    3.1230 N   0  0  0  1  0  0  0  0  0  0  0  0
    1.1440    0.7965    4.1544 C   0  0  0  1  0  0  0  0  0  0  0  0
  1  2  1  0  0  0  0
  1  3  1  0  0  0  0
  1  4  2  0  0  0  0
  1  8  1  0  0  0  0
  5  6  1  0  0  0  0
  5  7  2  0  0  0  0
  5  8  1  0  0  0  0
  5 12  1  0  0  0  0
  9 10  2  0  0  0  0
  9 11  1  0  0  0  0
  9 12  1  0  0  0  0
  9 13  1  0  0  0  0
 13 14  1  0  0  0  0
 14 15  1  0  0  0  0
 14 16  1  0  0  0  0
 14 17  1  0  0  0  0
 17 18  1  0  0  0  0
 17 19  1  0  0  0  0
 17 20  1  0  0  0  0
 19 28  1  0  0  0  0
 20 21  1  0  0  0  0
 20 22  1  0  0  0  0
 20 24  1  0  0  0  0
 22 23  1  0  0  0  0
 24 25  1  0  0  0  0
 24 26  1  0  0  0  0
 24 28  1  0  0  0  0
 26 27  1  0  0  0  0
 28 29  1  0  0  0  0
 28 30  1  0  0  0  0
 30 31  1  0  0  0  0
 30 43  1  0  0  0  0
 31 32  1  0  0  0  0
 31 33  2  0  0  0  0
 33 34  1  0  0  0  0
 34 35  1  0  0  0  0
 34 43  2  0  0  0  0
 35 36  1  0  0  0  0
 35 39  2  0  0  0  0
 36 37  1  0  0  0  0
 36 38  1  0  0  0  0
 39 40  1  0  0  0  0
 40 41  1  0  0  0  0
 40 42  2  0  0  0  0
 42 43  1  0  0  0  0
M  BCL ATM P_TeTeTeTePi O_Te2Te2TeTe O_Te2Te2Te2Te O_Tr2Tr2TrPi P_TeTeTeTePi O_Te2Te2TeTe O_Tr2Tr2TrPi O_Tr2TrTrPi2 P_TeTeTeTePi O_Tr2Tr2TrPi O_Te2Te2Te2Te O_Tr2TrTrPi2 O_Tr2TrTrPi2 C_TeTeTeTe H_S H_S C_TeTeTeTe H_S O_Te2Te2TeTe C_TeTeTeTe H_S O_Te2Te2TeTe H_S C_TeTeTeTe H_S O_Te2Te2TeTe H_S C_TeTeTeTe H_S N_TrTrTrPi2 C_TrTrTrPi H_S N_Tr2TrTrPi C_TrTrTrPi C_TrTrTrPi N_TrTrTrPi2 H_S H_S N_Tr2TrTrPi C_TrTrTrPi H_S N_Tr2TrTrPi C_TrTrTrPi
M  BCL BND ConjugatedSingleBond ConjugatedSingleBond ConjugatedDoubleBond ConjugatedSingleBond ConjugatedSingleBond ConjugatedDoubleBond ConjugatedSingleBond ConjugatedSingleBond ConjugatedDoubleBond ConjugatedSingleBond ConjugatedSingleBond ConjugatedSingleBond NonConjugatedSingleBond NonConjugatedSingleBond NonConjugatedSingleBond NonConjugatedSingleBond NonConjugatedSingleBond NonConjugatedSingleBondInRing NonConjugatedSingleBondInRing NonConjugatedSingleBondInRing NonConjugatedSingleBond NonConjugatedSingleBond NonConjugatedSingleBondInRing NonConjugatedSingleBond NonConjugatedSingleBond NonConjugatedSingleBond NonConjugatedSingleBondInRing NonConjugatedSingleBond NonConjugatedSingleBond NonConjugatedSingleBond AromaticSingleBond AromaticSingleBond NonConjugatedSingleBond AromaticDoubleBond AromaticSingleBond AromaticSingleBond AromaticDoubleBond ConjugatedSingleBond AromaticDoubleBond NonConjugatedSingleBond NonConjugatedSingleBond AromaticSingleBond NonConjugatedSingleBond AromaticDoubleBond AromaticSingleBond
M  BCL CHI   1   S   5   S   9   S  17   R  20   S  24   R  28   S
M  BCL DBI - - - - - - -
M  END
> <ConfClashScore>
0 

> <ConfOneFourInteractionScore>
-0.990126 

> <ConfScore>
0.0115586 

> <ConfScorePBest>
0.0124205 

> <ConfTolerance>
1.43316 

$$$$
ATP.****
  PyMOL2.5          3D                             0

 43 45  0  0  0  0  0  0  0  0999 V2000
    2.4934    2.9089   -2.6616 P   0  0  0  1  0  0  0  0  0  0  0  0
    4.0387    2.5510   -2.2452 O   0  0  0  0  0  0  0  0  0  0  0  0
    2.4457    3.3321   -4.2247 O   0  5  0  1  0  0  0  0  0  0  0  0
    1.9980    4.0250   -1.8253 O   0  0  0  1  0  0  0  0  0  0  0  0
    0.0117    1.3393   -2.6929 P   0  0  0  1  0  0  0  0  0  0  0  0
   -0.8055    2.0954   -1.7117 O   0  0  0  0  0  0  0  0  0  0  0  0
   -0.3030    1.4339   -4.1359 O   0  0  0  1  0  0  0  0  0  0  0  0
    1.5701    1.6127   -2.4416 O   0  0  0  1  0  0  0  0  0  0  0  0
   -0.9497   -1.3307   -1.9376 P   0  0  0  1  0  0  0  0  0  0  0  0
   -0.4139   -2.6538   -2.3285 O   0  0  0  1  0  0  0  0  0  0  0  0
   -2.2940   -1.0151   -2.7848 O   0  5  0  1  0  0  0  0  0  0  0  0
    0.1406   -0.1952   -2.2345 O   0  0  0  1  0  0  0  0  0  0  0  0
   -1.2897   -1.3263   -0.4013 O   0  0  0  1  0  0  0  0  0  0  0  0
   -1.7496   -0.1167    0.2554 C   0  0  0  1  0  0  0  0  0  0  0  0
   -2.6354    0.2441   -0.2243 H   0  0  0  1  0  0  0  0  0  0  0  0
   -0.9884    0.6339    0.2111 H   0  0  0  1  0  0  0  0  0  0  0  0
   -2.0488   -0.4621    1.6966 C   0  0  0  1  0  0  0  0  0  0  0  0
   -2.7500   -1.2696    1.7322 H   0  0  0  1  0  0  0  0  0  0  0  0
   -0.8723   -0.7956    2.3818 O   0  0  0  1  0  0  0  0  0  0  0  0
   -2.5907    0.7623    2.4482 C   0  0  0  1  0  0  0  0  0  0  0  0
   -2.1389    1.6646    2.0922 H   0  0  0  1  0  0  0  0  0  0  0  0
   -4.0102    0.8578    2.3213 O   0  0  0  1  0  0  0  0  0  0  0  0
   -4.2505    0.8446    1.3920 H   0  0  0  1  0  0  0  0  0  0  0  0
   -2.1906    0.4800    3.8725 C   0  0  0  1  0  0  0  0  0  0  0  0
   -2.0709    1.3885    4.4248 H   0  0  0  1  0  0  0  0  0  0  0  0
   -3.1564   -0.3486    4.5213 O   0  0  0  1  0  0  0  0  0  0  0  0
   -2.9554   -1.2712    4.3477 H   0  0  0  1  0  0  0  0  0  0  0  0
   -0.8532   -0.2508    3.7205 C   0  0  0  1  0  0  0  0  0  0  0  0
   -0.7693   -1.0348    4.4439 H   0  0  0  1  0  0  0  0  0  0  0  0
    0.2619    0.6813    3.8795 N   0  0  0  1  0  0  0  0  0  0  0  0
    1.2289    0.9682    2.9655 C   0  0  0  1  0  0  0  0  0  0  0  0
    1.2545    0.5304    2.0225 H   0  0  0  1  0  0  0  0  0  0  0  0
    2.1215    1.8343    3.3617 N   0  0  0  1  0  0  0  0  0  0  0  0
    1.7110    2.1595    4.6451 C   0  0  0  1  0  0  0  0  0  0  0  0
    2.2022    3.0040    5.6363 C   0  0  0  1  0  0  0  0  0  0  0  0
    3.3320    3.7627    5.4794 N   0  0  0  1  0  0  0  0  0  0  0  0
    3.8989    3.6400    4.6894 H   0  0  0  1  0  0  0  0  0  0  0  0
    3.5734    4.4282    6.1571 H   0  0  0  1  0  0  0  0  0  0  0  0
    1.5601    3.0975    6.8058 N   0  0  0  1  0  0  0  0  0  0  0  0
    0.4592    2.3498    6.9809 C   0  0  0  1  0  0  0  0  0  0  0  0
   -0.0088    2.4476    7.9046 H   0  0  0  1  0  0  0  0  0  0  0  0
   -0.1129    1.5023    6.1345 N   0  0  0  1  0  0  0  0  0  0  0  0
    0.5510    1.4475    4.9790 C   0  0  0  1  0  0  0  0  0  0  0  0
  1  2  1  0  0  0  0
  1  3  1  0  0  0  0
  1  4  2  0  0  0  0
  1  8  1  0  0  0  0
  5  6  1  0  0  0  0
  5  7  2  0  0  0  0
  5  8  1  0  0  0  0
  5 12  1  0  0  0  0
  9 10  2  0  0  0  0
  9 11  1  0  0  0  0
  9 12  1  0  0  0  0
  9 13  1  0  0  0  0
 13 14  1  0  0  0  0
 14 15  1  0  0  0  0
 14 16  1  0  0  0  0
 14 17  1  0  0  0  0
 17 18  1  0  0  0  0
 17 19  1  0  0  0  0
 17 20  1  0  0  0  0
 19 28  1  0  0  0  0
 20 21  1  0  0  0  0
 20 22  1  0  0  0  0
 20 24  1  0  0  0  0
 22 23  1  0  0  0  0
 24 25  1  0  0  0  0
 24 26  1  0  0  0  0
 24 28  1  0  0  0  0
 26 27  1  0  0  0  0
 28 29  1  0  0  0  0
 28 30  1  0  0  0  0
 30 31  1  0  0  0  0
 30 43  1  0  0  0  0
 31 32  1  0  0  0  0
 31 33  2  0  0  0  0
 33 34  1  0  0  0  0
 34 35  1  0  0  0  0
 34 43  2  0  0  0  0
 35 36  1  0  0  0  0
 35 39  2  0  0  0  0
 36 37  1  0  0  0  0
 36 38  1  0  0  0  0
 39 40  1  0  0  0  0
 40 41  1  0  0  0  0
 40 42  2  0  0  0  0
 42 43  1  0  0  0  0
M  BCL ATM P_TeTeTeTePi O_Te2Te2TeTe O_Te2Te2Te2Te O_Tr2Tr2TrPi P_TeTeTeTePi O_Te2Te2TeTe O_Tr2Tr2TrPi O_Tr2TrTrPi2 P_TeTeTeTePi O_Tr2Tr2TrPi O_Te2Te2Te2Te O_Tr2TrTrPi2 O_Tr2TrTrPi2 C_TeTeTeTe H_S H_S C_TeTeTeTe H_S O_Te2Te2TeTe C_TeTeTeTe H_S O_Te2Te2TeTe H_S C_TeTeTeTe H_S O_Te2Te2TeTe H_S C_TeTeTeTe H_S N_TrTrTrPi2 C_TrTrTrPi H_S N_Tr2TrTrPi C_TrTrTrPi C_TrTrTrPi N_TrTrTrPi2 H_S H_S N_Tr2TrTrPi C_TrTrTrPi H_S N_Tr2TrTrPi C_TrTrTrPi
M  BCL BND ConjugatedSingleBond ConjugatedSingleBond ConjugatedDoubleBond ConjugatedSingleBond ConjugatedSingleBond ConjugatedDoubleBond ConjugatedSingleBond ConjugatedSingleBond ConjugatedDoubleBond ConjugatedSingleBond ConjugatedSingleBond ConjugatedSingleBond NonConjugatedSingleBond NonConjugatedSingleBond NonConjugatedSingleBond NonConjugatedSingleBond NonConjugatedSingleBond NonConjugatedSingleBondInRing NonConjugatedSingleBondInRing NonConjugatedSingleBondInRing NonConjugatedSingleBond NonConjugatedSingleBond NonConjugatedSingleBondInRing NonConjugatedSingleBond NonConjugatedSingleBond NonConjugatedSingleBond NonConjugatedSingleBondInRing NonConjugatedSingleBond NonConjugatedSingleBond NonConjugatedSingleBond AromaticSingleBond AromaticSingleBond NonConjugatedSingleBond AromaticDoubleBond AromaticSingleBond AromaticSingleBond AromaticDoubleBond ConjugatedSingleBond AromaticDoubleBond NonConjugatedSingleBond NonConjugatedSingleBond AromaticSingleBond NonConjugatedSingleBond AromaticDoubleBond AromaticSingleBond
M  BCL CHI   1   S   5   S   9   S  17   R  20   S  24   R  28   S
M  BCL DBI - - - - - - -
M  END
> <ConfClashScore>
0 

> <ConfOneFourInteractionScore>
-0.986026 

> <ConfScore>
0.0116216 

> <ConfScorePBest>
0.0123175 

> <ConfTolerance>
1.22588 

$$$$
ATP.****
  PyMOL2.5          3D                             0

 43 45  0  0  0  0  0  0  0  0999 V2000
    1.1334    4.1962   -0.2878 P   0  0  0  1  0  0  0  0  0  0  0  0
    2.1675    3.8144    0.9265 O   0  0  0  0  0  0  0  0  0  0  0  0
    1.0128    5.8104   -0.3531 O   0  5  0  1  0  0  0  0  0  0  0  0
   -0.0993    3.4367    0.0186 O   0  0  0  1  0  0  0  0  0  0  0  0
    2.4061    2.2274   -2.0564 P   0  0  0  1  0  0  0  0  0  0  0  0
    2.3541    2.0907   -3.5696 O   0  0  0  0  0  0  0  0  0  0  0  0
    3.7440    2.0429   -1.4168 O   0  0  0  1  0  0  0  0  0  0  0  0
    1.8210    3.6584   -1.6366 O   0  0  0  1  0  0  0  0  0  0  0  0
    0.4284   -0.0546   -1.8868 P   0  0  0  1  0  0  0  0  0  0  0  0
    1.1342   -1.2431   -2.4156 O   0  0  0  1  0  0  0  0  0  0  0  0
   -0.7094    0.3962   -2.9482 O   0  5  0  1  0  0  0  0  0  0  0  0
    1.3286    1.2010   -1.4626 O   0  0  0  1  0  0  0  0  0  0  0  0
   -0.3694   -0.4609   -0.5946 O   0  0  0  1  0  0  0  0  0  0  0  0
   -1.3905    0.2901    0.1101 C   0  0  0  1  0  0  0  0  0  0  0  0
   -2.2929    0.2831   -0.4649 H   0  0  0  1  0  0  0  0  0  0  0  0
   -1.0585    1.2988    0.2413 H   0  0  0  1  0  0  0  0  0  0  0  0
   -1.6552   -0.3184    1.4481 C   0  0  0  1  0  0  0  0  0  0  0  0
   -2.0038   -1.3220    1.3213 H   0  0  0  1  0  0  0  0  0  0  0  0
   -0.4631   -0.2930    2.2633 O   0  0  0  1  0  0  0  0  0  0  0  0
   -2.6867    0.5207    2.2327 C   0  0  0  1  0  0  0  0  0  0  0  0
   -2.6935    1.5335    1.8878 H   0  0  0  1  0  0  0  0  0  0  0  0
   -3.9933   -0.0345    2.1039 O   0  0  0  1  0  0  0  0  0  0  0  0
   -4.6370    0.5702    2.4803 H   0  0  0  1  0  0  0  0  0  0  0  0
   -2.1995    0.4432    3.6985 C   0  0  0  1  0  0  0  0  0  0  0  0
   -1.9691    1.4180    4.0748 H   0  0  0  1  0  0  0  0  0  0  0  0
   -3.1869   -0.1678    4.5302 O   0  0  0  1  0  0  0  0  0  0  0  0
   -3.2612    0.3223    5.3524 H   0  0  0  1  0  0  0  0  0  0  0  0
   -0.9284   -0.4307    3.6227 C   0  0  0  1  0  0  0  0  0  0  0  0
   -1.1608   -1.4525    3.8392 H   0  0  0  1  0  0  0  0  0  0  0  0
    0.0841    0.0504    4.5646 N   0  0  0  1  0  0  0  0  0  0  0  0
    0.7193   -0.6724    5.5274 C   0  0  0  1  0  0  0  0  0  0  0  0
    0.5347   -1.6845    5.6799 H   0  0  0  1  0  0  0  0  0  0  0  0
    1.5775    0.0003    6.2448 N   0  0  0  1  0  0  0  0  0  0  0  0
    1.5166    1.2779    5.7102 C   0  0  0  1  0  0  0  0  0  0  0  0
    2.1518    2.4820    5.9993 C   0  0  0  1  0  0  0  0  0  0  0  0
    3.0762    2.6177    7.0012 N   0  0  0  1  0  0  0  0  0  0  0  0
    3.4127    3.5065    7.2404 H   0  0  0  1  0  0  0  0  0  0  0  0
    3.4010    1.8260    7.4788 H   0  0  0  1  0  0  0  0  0  0  0  0
    1.8643    3.5726    5.2805 N   0  0  0  1  0  0  0  0  0  0  0  0
    0.9499    3.4598    4.3041 C   0  0  0  1  0  0  0  0  0  0  0  0
    0.7513    4.3305    3.7712 H   0  0  0  1  0  0  0  0  0  0  0  0
    0.2651    2.3871    3.9270 N   0  0  0  1  0  0  0  0  0  0  0  0
    0.5893    1.3213    4.6604 C   0  0  0  1  0  0  0  0  0  0  0  0
  1  2  1  0  0  0  0
  1  3  1  0  0  0  0
  1  4  2  0  0  0  0
  1  8  1  0  0  0  0
  5  6  1  0  0  0  0
  5  7  2  0  0  0  0
  5  8  1  0  0  0  0
  5 12  1  0  0  0  0
  9 10  2  0  0  0  0
  9 11  1  0  0  0  0
  9 12  1  0  0  0  0
  9 13  1  0  0  0  0
 13 14  1  0  0  0  0
 14 15  1  0  0  0  0
 14 16  1  0  0  0  0
 14 17  1  0  0  0  0
 17 18  1  0  0  0  0
 17 19  1  0  0  0  0
 17 20  1  0  0  0  0
 19 28  1  0  0  0  0
 20 21  1  0  0  0  0
 20 22  1  0  0  0  0
 20 24  1  0  0  0  0
 22 23  1  0  0  0  0
 24 25  1  0  0  0  0
 24 26  1  0  0  0  0
 24 28  1  0  0  0  0
 26 27  1  0  0  0  0
 28 29  1  0  0  0  0
 28 30  1  0  0  0  0
 30 31  1  0  0  0  0
 30 43  1  0  0  0  0
 31 32  1  0  0  0  0
 31 33  2  0  0  0  0
 33 34  1  0  0  0  0
 34 35  1  0  0  0  0
 34 43  2  0  0  0  0
 35 36  1  0  0  0  0
 35 39  2  0  0  0  0
 36 37  1  0  0  0  0
 36 38  1  0  0  0  0
 39 40  1  0  0  0  0
 40 41  1  0  0  0  0
 40 42  2  0  0  0  0
 42 43  1  0  0  0  0
M  BCL ATM P_TeTeTeTePi O_Te2Te2TeTe O_Te2Te2Te2Te O_Tr2Tr2TrPi P_TeTeTeTePi O_Te2Te2TeTe O_Tr2Tr2TrPi O_Tr2TrTrPi2 P_TeTeTeTePi O_Tr2Tr2TrPi O_Te2Te2Te2Te O_Tr2TrTrPi2 O_Tr2TrTrPi2 C_TeTeTeTe H_S H_S C_TeTeTeTe H_S O_Te2Te2TeTe C_TeTeTeTe H_S O_Te2Te2TeTe H_S C_TeTeTeTe H_S O_Te2Te2TeTe H_S C_TeTeTeTe H_S N_TrTrTrPi2 C_TrTrTrPi H_S N_Tr2TrTrPi C_TrTrTrPi C_TrTrTrPi N_TrTrTrPi2 H_S H_S N_Tr2TrTrPi C_TrTrTrPi H_S N_Tr2TrTrPi C_TrTrTrPi
M  BCL BND ConjugatedSingleBond ConjugatedSingleBond ConjugatedDoubleBond ConjugatedSingleBond ConjugatedSingleBond ConjugatedDoubleBond ConjugatedSingleBond ConjugatedSingleBond ConjugatedDoubleBond ConjugatedSingleBond ConjugatedSingleBond ConjugatedSingleBond NonConjugatedSingleBond NonConjugatedSingleBond NonConjugatedSingleBond NonConjugatedSingleBond NonConjugatedSingleBond NonConjugatedSingleBondInRing NonConjugatedSingleBondInRing NonConjugatedSingleBondInRing NonConjugatedSingleBond NonConjugatedSingleBond NonConjugatedSingleBondInRing NonConjugatedSingleBond NonConjugatedSingleBond NonConjugatedSingleBond NonConjugatedSingleBondInRing NonConjugatedSingleBond NonConjugatedSingleBond NonConjugatedSingleBond AromaticSingleBond AromaticSingleBond NonConjugatedSingleBond AromaticDoubleBond AromaticSingleBond AromaticSingleBond AromaticDoubleBond ConjugatedSingleBond AromaticDoubleBond NonConjugatedSingleBond NonConjugatedSingleBond AromaticSingleBond NonConjugatedSingleBond AromaticDoubleBond AromaticSingleBond
M  BCL CHI   1   S   5   S   9   S  17   R  20   S  24   R  28   S
M  BCL DBI - - - - - - -
M  END
> <ConfClashScore>
0 

> <ConfOneFourInteractionScore>
-0.976383 

> <ConfScore>
0.0116707 

> <ConfScorePBest>
0.0122145 

> <ConfTolerance>
1.488 

$$$$
ATP.****
  PyMOL2.5          3D                             0

 43 45  0  0  0  0  0  0  0  0999 V2000
    0.8899    6.4152   -3.3195 P   0  0  0  1  0  0  0  0  0  0  0  0
   -0.5066    6.8041   -4.0863 O   0  0  0  0  0  0  0  0  0  0  0  0
    1.4343    7.7285   -2.5426 O   0  5  0  1  0  0  0  0  0  0  0  0
    1.9139    5.9426   -4.2778 O   0  0  0  1  0  0  0  0  0  0  0  0
    0.8525    5.3788   -0.5664 P   0  0  0  1  0  0  0  0  0  0  0  0
    2.2839    5.0941   -0.3609 O   0  0  0  0  0  0  0  0  0  0  0  0
    0.2715    6.5747    0.0153 O   0  0  0  1  0  0  0  0  0  0  0  0
    0.6335    5.3346   -2.1586 O   0  0  0  1  0  0  0  0  0  0  0  0
   -0.6188    2.8674   -0.7252 P   0  0  0  1  0  0  0  0  0  0  0  0
    0.3508    2.1509   -1.5837 O   0  0  0  1  0  0  0  0  0  0  0  0
   -1.9197    3.2935   -1.5915 O   0  5  0  1  0  0  0  0  0  0  0  0
   -0.0704    4.1949   -0.0027 O   0  0  0  1  0  0  0  0  0  0  0  0
   -1.0710    1.8287    0.3565 O   0  0  0  1  0  0  0  0  0  0  0  0
   -1.4133    0.4468    0.0976 C   0  0  0  1  0  0  0  0  0  0  0  0
   -0.5909   -0.0502   -0.3730 H   0  0  0  1  0  0  0  0  0  0  0  0
   -2.2721    0.3972   -0.5388 H   0  0  0  1  0  0  0  0  0  0  0  0
   -1.7183   -0.2072    1.4261 C   0  0  0  1  0  0  0  0  0  0  0  0
   -2.1488   -1.1724    1.2585 H   0  0  0  1  0  0  0  0  0  0  0  0
   -0.5209   -0.3162    2.2263 O   0  0  0  1  0  0  0  0  0  0  0  0
   -2.6709    0.6757    2.2609 C   0  0  0  1  0  0  0  0  0  0  0  0
   -2.5981    1.7006    1.9623 H   0  0  0  1  0  0  0  0  0  0  0  0
   -4.0188    0.2350    2.1239 O   0  0  0  1  0  0  0  0  0  0  0  0
   -4.1658   -0.5270    2.6890 H   0  0  0  1  0  0  0  0  0  0  0  0
   -2.1784    0.4915    3.7154 C   0  0  0  1  0  0  0  0  0  0  0  0
   -1.8658    1.4260    4.1324 H   0  0  0  1  0  0  0  0  0  0  0  0
   -3.2049   -0.0751    4.5312 O   0  0  0  1  0  0  0  0  0  0  0  0
   -3.4352    0.5411    5.2304 H   0  0  0  1  0  0  0  0  0  0  0  0
   -0.9836   -0.4782    3.5840 C   0  0  0  1  0  0  0  0  0  0  0  0
   -1.2967   -1.4867    3.7570 H   0  0  0  1  0  0  0  0  0  0  0  0
    0.0744   -0.1244    4.5348 N   0  0  0  1  0  0  0  0  0  0  0  0
    0.9426    0.9202    4.4459 C   0  0  0  1  0  0  0  0  0  0  0  0
    0.9239    1.5972    3.6566 H   0  0  0  1  0  0  0  0  0  0  0  0
    1.8003    1.0084    5.4259 N   0  0  0  1  0  0  0  0  0  0  0  0
    1.4715   -0.0625    6.2423 C   0  0  0  1  0  0  0  0  0  0  0  0
    1.9791   -0.5632    7.4376 C   0  0  0  1  0  0  0  0  0  0  0  0
    3.0467   -0.0299    8.1514 N   0  0  0  1  0  0  0  0  0  0  0  0
    3.3630   -0.4747    8.9653 H   0  0  0  1  0  0  0  0  0  0  0  0
    3.4828    0.7908    7.8405 H   0  0  0  1  0  0  0  0  0  0  0  0
    1.4274   -1.6497    7.9888 N   0  0  0  1  0  0  0  0  0  0  0  0
    0.3997   -2.2281    7.3473 C   0  0  0  1  0  0  0  0  0  0  0  0
    0.0012   -3.0723    7.8057 H   0  0  0  1  0  0  0  0  0  0  0  0
   -0.1765   -1.8679    6.2071 N   0  0  0  1  0  0  0  0  0  0  0  0
    0.3953   -0.7760    5.6976 C   0  0  0  1  0  0  0  0  0  0  0  0
  1  2  1  0  0  0  0
  1  3  1  0  0  0  0
  1  4  2  0  0  0  0
  1  8  1  0  0  0  0
  5  6  1  0  0  0  0
  5  7  2  0  0  0  0
  5  8  1  0  0  0  0
  5 12  1  0  0  0  0
  9 10  2  0  0  0  0
  9 11  1  0  0  0  0
  9 12  1  0  0  0  0
  9 13  1  0  0  0  0
 13 14  1  0  0  0  0
 14 15  1  0  0  0  0
 14 16  1  0  0  0  0
 14 17  1  0  0  0  0
 17 18  1  0  0  0  0
 17 19  1  0  0  0  0
 17 20  1  0  0  0  0
 19 28  1  0  0  0  0
 20 21  1  0  0  0  0
 20 22  1  0  0  0  0
 20 24  1  0  0  0  0
 22 23  1  0  0  0  0
 24 25  1  0  0  0  0
 24 26  1  0  0  0  0
 24 28  1  0  0  0  0
 26 27  1  0  0  0  0
 28 29  1  0  0  0  0
 28 30  1  0  0  0  0
 30 31  1  0  0  0  0
 30 43  1  0  0  0  0
 31 32  1  0  0  0  0
 31 33  2  0  0  0  0
 33 34  1  0  0  0  0
 34 35  1  0  0  0  0
 34 43  2  0  0  0  0
 35 36  1  0  0  0  0
 35 39  2  0  0  0  0
 36 37  1  0  0  0  0
 36 38  1  0  0  0  0
 39 40  1  0  0  0  0
 40 41  1  0  0  0  0
 40 42  2  0  0  0  0
 42 43  1  0  0  0  0
M  BCL ATM P_TeTeTeTePi O_Te2Te2TeTe O_Te2Te2Te2Te O_Tr2Tr2TrPi P_TeTeTeTePi O_Te2Te2TeTe O_Tr2Tr2TrPi O_Tr2TrTrPi2 P_TeTeTeTePi O_Tr2Tr2TrPi O_Te2Te2Te2Te O_Tr2TrTrPi2 O_Tr2TrTrPi2 C_TeTeTeTe H_S H_S C_TeTeTeTe H_S O_Te2Te2TeTe C_TeTeTeTe H_S O_Te2Te2TeTe H_S C_TeTeTeTe H_S O_Te2Te2TeTe H_S C_TeTeTeTe H_S N_TrTrTrPi2 C_TrTrTrPi H_S N_Tr2TrTrPi C_TrTrTrPi C_TrTrTrPi N_TrTrTrPi2 H_S H_S N_Tr2TrTrPi C_TrTrTrPi H_S N_Tr2TrTrPi C_TrTrTrPi
M  BCL BND ConjugatedSingleBond ConjugatedSingleBond ConjugatedDoubleBond ConjugatedSingleBond ConjugatedSingleBond ConjugatedDoubleBond ConjugatedSingleBond ConjugatedSingleBond ConjugatedDoubleBond ConjugatedSingleBond ConjugatedSingleBond ConjugatedSingleBond NonConjugatedSingleBond NonConjugatedSingleBond NonConjugatedSingleBond NonConjugatedSingleBond NonConjugatedSingleBond NonConjugatedSingleBondInRing NonConjugatedSingleBondInRing NonConjugatedSingleBondInRing NonConjugatedSingleBond NonConjugatedSingleBond NonConjugatedSingleBondInRing NonConjugatedSingleBond NonConjugatedSingleBond NonConjugatedSingleBond NonConjugatedSingleBondInRing NonConjugatedSingleBond NonConjugatedSingleBond NonConjugatedSingleBond AromaticSingleBond AromaticSingleBond NonConjugatedSingleBond AromaticDoubleBond AromaticSingleBond AromaticSingleBond AromaticDoubleBond ConjugatedSingleBond AromaticDoubleBond NonConjugatedSingleBond NonConjugatedSingleBond AromaticSingleBond NonConjugatedSingleBond AromaticDoubleBond AromaticSingleBond
M  BCL CHI   1   S   5   S   9   S  17   R  20   S  24   R  28   S
M  BCL DBI - - - - - - -
M  END
> <ConfClashScore>
0 

> <ConfOneFourInteractionScore>
-0.990126 

> <ConfScore>
0.0127745 

> <ConfScorePBest>
0.0121115 

> <ConfTolerance>
1.05574 

$$$$
ATP.****
  PyMOL2.5          3D                             0

 43 45  0  0  0  0  0  0  0  0999 V2000
   -2.0005   -3.0153   -2.8945 P   0  0  0  1  0  0  0  0  0  0  0  0
   -3.2045   -3.9949   -3.4239 O   0  0  0  0  0  0  0  0  0  0  0  0
   -1.8059   -3.2557   -1.3043 O   0  5  0  1  0  0  0  0  0  0  0  0
   -2.4660   -1.6244   -3.0921 O   0  0  0  1  0  0  0  0  0  0  0  0
    0.6285   -2.3577   -4.0258 P   0  0  0  1  0  0  0  0  0  0  0  0
    1.7737   -3.3206   -4.0579 O   0  0  0  0  0  0  0  0  0  0  0  0
    0.4110   -1.4239   -5.1350 O   0  0  0  1  0  0  0  0  0  0  0  0
   -0.6497   -3.2753   -3.7245 O   0  0  0  1  0  0  0  0  0  0  0  0
    0.0125   -0.1616   -2.0792 P   0  0  0  1  0  0  0  0  0  0  0  0
   -1.0635    0.2090   -3.0253 O   0  0  0  1  0  0  0  0  0  0  0  0
    1.1728    0.9531   -1.8903 O   0  5  0  1  0  0  0  0  0  0  0  0
    0.7741   -1.4188   -2.7155 O   0  0  0  1  0  0  0  0  0  0  0  0
   -0.5074   -0.5513   -0.6460 O   0  0  0  1  0  0  0  0  0  0  0  0
   -1.3875    0.3312    0.0891 C   0  0  0  1  0  0  0  0  0  0  0  0
   -2.3093    0.4509   -0.4409 H   0  0  0  1  0  0  0  0  0  0  0  0
   -0.9223    1.2862    0.2169 H   0  0  0  1  0  0  0  0  0  0  0  0
   -1.6480   -0.3008    1.4411 C   0  0  0  1  0  0  0  0  0  0  0  0
   -2.0016   -1.3015    1.3054 H   0  0  0  1  0  0  0  0  0  0  0  0
   -0.4498   -0.2895    2.2474 O   0  0  0  1  0  0  0  0  0  0  0  0
   -2.6703    0.5331    2.2433 C   0  0  0  1  0  0  0  0  0  0  0  0
   -2.6756    1.5500    1.9102 H   0  0  0  1  0  0  0  0  0  0  0  0
   -3.9826   -0.0165    2.1179 O   0  0  0  1  0  0  0  0  0  0  0  0
   -4.5510    0.3528    2.7976 H   0  0  0  1  0  0  0  0  0  0  0  0
   -2.1722    0.4368    3.7043 C   0  0  0  1  0  0  0  0  0  0  0  0
   -1.9350    1.4063    4.0901 H   0  0  0  1  0  0  0  0  0  0  0  0
   -3.1562   -0.1802    4.5369 O   0  0  0  1  0  0  0  0  0  0  0  0
   -3.5857    0.4887    5.0751 H   0  0  0  1  0  0  0  0  0  0  0  0
   -0.9052   -0.4411    3.6087 C   0  0  0  1  0  0  0  0  0  0  0  0
   -1.1400   -1.4644    3.8151 H   0  0  0  1  0  0  0  0  0  0  0  0
    0.1157    0.0248    4.5477 N   0  0  0  1  0  0  0  0  0  0  0  0
    0.9386    1.0989    4.3997 C   0  0  0  1  0  0  0  0  0  0  0  0
    0.9055    1.7177    3.5645 H   0  0  0  1  0  0  0  0  0  0  0  0
    1.7723    1.2938    5.3849 N   0  0  0  1  0  0  0  0  0  0  0  0
    1.4751    0.2685    6.2693 C   0  0  0  1  0  0  0  0  0  0  0  0
    1.9809   -0.1243    7.5049 C   0  0  0  1  0  0  0  0  0  0  0  0
    3.0100    0.5053    8.1968 N   0  0  0  1  0  0  0  0  0  0  0  0
    3.3738    0.0984    9.0107 H   0  0  0  1  0  0  0  0  0  0  0  0
    3.3713    1.3557    7.8704 H   0  0  0  1  0  0  0  0  0  0  0  0
    1.4670   -1.1936    8.1222 N   0  0  0  1  0  0  0  0  0  0  0  0
    0.4785   -1.8612    7.5063 C   0  0  0  1  0  0  0  0  0  0  0  0
    0.1087   -2.6886    8.0164 H   0  0  0  1  0  0  0  0  0  0  0  0
   -0.0908   -1.6077    6.3343 N   0  0  0  1  0  0  0  0  0  0  0  0
    0.4423   -0.5291    5.7586 C   0  0  0  1  0  0  0  0  0  0  0  0
  1  2  1  0  0  0  0
  1  3  1  0  0  0  0
  1  4  2  0  0  0  0
  1  8  1  0  0  0  0
  5  6  1  0  0  0  0
  5  7  2  0  0  0  0
  5  8  1  0  0  0  0
  5 12  1  0  0  0  0
  9 10  2  0  0  0  0
  9 11  1  0  0  0  0
  9 12  1  0  0  0  0
  9 13  1  0  0  0  0
 13 14  1  0  0  0  0
 14 15  1  0  0  0  0
 14 16  1  0  0  0  0
 14 17  1  0  0  0  0
 17 18  1  0  0  0  0
 17 19  1  0  0  0  0
 17 20  1  0  0  0  0
 19 28  1  0  0  0  0
 20 21  1  0  0  0  0
 20 22  1  0  0  0  0
 20 24  1  0  0  0  0
 22 23  1  0  0  0  0
 24 25  1  0  0  0  0
 24 26  1  0  0  0  0
 24 28  1  0  0  0  0
 26 27  1  0  0  0  0
 28 29  1  0  0  0  0
 28 30  1  0  0  0  0
 30 31  1  0  0  0  0
 30 43  1  0  0  0  0
 31 32  1  0  0  0  0
 31 33  2  0  0  0  0
 33 34  1  0  0  0  0
 34 35  1  0  0  0  0
 34 43  2  0  0  0  0
 35 36  1  0  0  0  0
 35 39  2  0  0  0  0
 36 37  1  0  0  0  0
 36 38  1  0  0  0  0
 39 40  1  0  0  0  0
 40 41  1  0  0  0  0
 40 42  2  0  0  0  0
 42 43  1  0  0  0  0
M  BCL ATM P_TeTeTeTePi O_Te2Te2TeTe O_Te2Te2Te2Te O_Tr2Tr2TrPi P_TeTeTeTePi O_Te2Te2TeTe O_Tr2Tr2TrPi O_Tr2TrTrPi2 P_TeTeTeTePi O_Tr2Tr2TrPi O_Te2Te2Te2Te O_Tr2TrTrPi2 O_Tr2TrTrPi2 C_TeTeTeTe H_S H_S C_TeTeTeTe H_S O_Te2Te2TeTe C_TeTeTeTe H_S O_Te2Te2TeTe H_S C_TeTeTeTe H_S O_Te2Te2TeTe H_S C_TeTeTeTe H_S N_TrTrTrPi2 C_TrTrTrPi H_S N_Tr2TrTrPi C_TrTrTrPi C_TrTrTrPi N_TrTrTrPi2 H_S H_S N_Tr2TrTrPi C_TrTrTrPi H_S N_Tr2TrTrPi C_TrTrTrPi
M  BCL BND ConjugatedSingleBond ConjugatedSingleBond ConjugatedDoubleBond ConjugatedSingleBond ConjugatedSingleBond ConjugatedDoubleBond ConjugatedSingleBond ConjugatedSingleBond ConjugatedDoubleBond ConjugatedSingleBond ConjugatedSingleBond ConjugatedSingleBond NonConjugatedSingleBond NonConjugatedSingleBond NonConjugatedSingleBond NonConjugatedSingleBond NonConjugatedSingleBond NonConjugatedSingleBondInRing NonConjugatedSingleBondInRing NonConjugatedSingleBondInRing NonConjugatedSingleBond NonConjugatedSingleBond NonConjugatedSingleBondInRing NonConjugatedSingleBond NonConjugatedSingleBond NonConjugatedSingleBond NonConjugatedSingleBondInRing NonConjugatedSingleBond NonConjugatedSingleBond NonConjugatedSingleBond AromaticSingleBond AromaticSingleBond NonConjugatedSingleBond AromaticDoubleBond AromaticSingleBond AromaticSingleBond AromaticDoubleBond ConjugatedSingleBond AromaticDoubleBond NonConjugatedSingleBond NonConjugatedSingleBond AromaticSingleBond NonConjugatedSingleBond AromaticDoubleBond AromaticSingleBond
M  BCL CHI   1   S   5   S   9   S  17   R  20   S  24   R  28   S
M  BCL DBI - - - - - - -
M  END
> <ConfClashScore>
0 

> <ConfOneFourInteractionScore>
-0.981204 

> <ConfScore>
0.0137834 

> <ConfScorePBest>
0.0120085 

> <ConfTolerance>
1.19678 

$$$$
ATP.****
  PyMOL2.5          3D                             0

 43 45  0  0  0  0  0  0  0  0999 V2000
   -5.3601    4.8455   -0.0351 P   0  0  0  1  0  0  0  0  0  0  0  0
   -6.1052    6.2605   -0.3988 O   0  0  0  0  0  0  0  0  0  0  0  0
   -6.1330    3.6513   -0.8103 O   0  5  0  1  0  0  0  0  0  0  0  0
   -5.3283    4.4150    1.3805 O   0  0  0  1  0  0  0  0  0  0  0  0
   -3.4455    4.5593   -2.1764 P   0  0  0  1  0  0  0  0  0  0  0  0
   -4.5997    4.6199   -3.1310 O   0  0  0  0  0  0  0  0  0  0  0  0
   -2.2753    5.4326   -2.5096 O   0  0  0  1  0  0  0  0  0  0  0  0
   -3.8864    4.9135   -0.6729 O   0  0  0  1  0  0  0  0  0  0  0  0
   -1.5383    2.5189   -1.4472 P   0  0  0  1  0  0  0  0  0  0  0  0
   -0.6704    3.4907   -0.7453 O   0  0  0  1  0  0  0  0  0  0  0  0
   -0.8051    1.8307   -2.7173 O   0  5  0  1  0  0  0  0  0  0  0  0
   -2.9585    3.0392   -1.9881 O   0  0  0  1  0  0  0  0  0  0  0  0
   -1.9200    1.3836   -0.4266 O   0  0  0  1  0  0  0  0  0  0  0  0
   -0.9387    0.8605    0.5056 C   0  0  0  1  0  0  0  0  0  0  0  0
   -0.5492    1.6542    1.1082 H   0  0  0  1  0  0  0  0  0  0  0  0
   -0.1390    0.3939   -0.0309 H   0  0  0  1  0  0  0  0  0  0  0  0
   -1.6340   -0.1572    1.3811 C   0  0  0  1  0  0  0  0  0  0  0  0
   -2.0439   -0.9338    0.7698 H   0  0  0  1  0  0  0  0  0  0  0  0
   -0.7221   -0.7018    2.2929 O   0  0  0  1  0  0  0  0  0  0  0  0
   -2.7556    0.5231    2.1819 C   0  0  0  1  0  0  0  0  0  0  0  0
   -2.9909    1.4846    1.7755 H   0  0  0  1  0  0  0  0  0  0  0  0
   -3.9331   -0.2850    2.2072 O   0  0  0  1  0  0  0  0  0  0  0  0
   -4.3519   -0.2142    3.0681 H   0  0  0  1  0  0  0  0  0  0  0  0
   -2.1418    0.6500    3.5827 C   0  0  0  1  0  0  0  0  0  0  0  0
   -1.6108    1.5733    3.6852 H   0  0  0  1  0  0  0  0  0  0  0  0
   -3.1498    0.5652    4.5911 O   0  0  0  1  0  0  0  0  0  0  0  0
   -2.8791   -0.0653    5.2625 H   0  0  0  1  0  0  0  0  0  0  0  0
   -1.1978   -0.5278    3.6622 C   0  0  0  1  0  0  0  0  0  0  0  0
   -1.7122   -1.4036    3.9989 H   0  0  0  1  0  0  0  0  0  0  0  0
   -0.0833   -0.2385    4.5652 N   0  0  0  1  0  0  0  0  0  0  0  0
    0.9321    0.6444    4.3596 C   0  0  0  1  0  0  0  0  0  0  0  0
    1.0026    1.2252    3.4998 H   0  0  0  1  0  0  0  0  0  0  0  0
    1.8106    0.7072    5.3230 N   0  0  0  1  0  0  0  0  0  0  0  0
    1.3372   -0.2042    6.2540 C   0  0  0  1  0  0  0  0  0  0  0  0
    1.7839   -0.6422    7.4972 C   0  0  0  1  0  0  0  0  0  0  0  0
    2.9407   -0.1095    8.0021 N   0  0  0  1  0  0  0  0  0  0  0  0
    3.4549    0.5355    7.4730 H   0  0  0  1  0  0  0  0  0  0  0  0
    3.2540   -0.3735    8.8924 H   0  0  0  1  0  0  0  0  0  0  0  0
    1.0831   -1.5638    8.1666 N   0  0  0  1  0  0  0  0  0  0  0  0
   -0.0320   -2.0447    7.5945 C   0  0  0  1  0  0  0  0  0  0  0  0
   -0.5462   -2.7622    8.1444 H   0  0  0  1  0  0  0  0  0  0  0  0
   -0.5670   -1.7281    6.4217 N   0  0  0  1  0  0  0  0  0  0  0  0
    0.1553   -0.7996    5.7931 C   0  0  0  1  0  0  0  0  0  0  0  0
  1  2  1  0  0  0  0
  1  3  1  0  0  0  0
  1  4  2  0  0  0  0
  1  8  1  0  0  0  0
  5  6  1  0  0  0  0
  5  7  2  0  0  0  0
  5  8  1  0  0  0  0
  5 12  1  0  0  0  0
  9 10  2  0  0  0  0
  9 11  1  0  0  0  0
  9 12  1  0  0  0  0
  9 13  1  0  0  0  0
 13 14  1  0  0  0  0
 14 15  1  0  0  0  0
 14 16  1  0  0  0  0
 14 17  1  0  0  0  0
 17 18  1  0  0  0  0
 17 19  1  0  0  0  0
 17 20  1  0  0  0  0
 19 28  1  0  0  0  0
 20 21  1  0  0  0  0
 20 22  1  0  0  0  0
 20 24  1  0  0  0  0
 22 23  1  0  0  0  0
 24 25  1  0  0  0  0
 24 26  1  0  0  0  0
 24 28  1  0  0  0  0
 26 27  1  0  0  0  0
 28 29  1  0  0  0  0
 28 30  1  0  0  0  0
 30 31  1  0  0  0  0
 30 43  1  0  0  0  0
 31 32  1  0  0  0  0
 31 33  2  0  0  0  0
 33 34  1  0  0  0  0
 34 35  1  0  0  0  0
 34 43  2  0  0  0  0
 35 36  1  0  0  0  0
 35 39  2  0  0  0  0
 36 37  1  0  0  0  0
 36 38  1  0  0  0  0
 39 40  1  0  0  0  0
 40 41  1  0  0  0  0
 40 42  2  0  0  0  0
 42 43  1  0  0  0  0
M  BCL ATM P_TeTeTeTePi O_Te2Te2TeTe O_Te2Te2Te2Te O_Tr2Tr2TrPi P_TeTeTeTePi O_Te2Te2TeTe O_Tr2Tr2TrPi O_Tr2TrTrPi2 P_TeTeTeTePi O_Tr2Tr2TrPi O_Te2Te2Te2Te O_Tr2TrTrPi2 O_Tr2TrTrPi2 C_TeTeTeTe H_S H_S C_TeTeTeTe H_S O_Te2Te2TeTe C_TeTeTeTe H_S O_Te2Te2TeTe H_S C_TeTeTeTe H_S O_Te2Te2TeTe H_S C_TeTeTeTe H_S N_TrTrTrPi2 C_TrTrTrPi H_S N_Tr2TrTrPi C_TrTrTrPi C_TrTrTrPi N_TrTrTrPi2 H_S H_S N_Tr2TrTrPi C_TrTrTrPi H_S N_Tr2TrTrPi C_TrTrTrPi
M  BCL BND ConjugatedSingleBond ConjugatedSingleBond ConjugatedDoubleBond ConjugatedSingleBond ConjugatedSingleBond ConjugatedDoubleBond ConjugatedSingleBond ConjugatedSingleBond ConjugatedDoubleBond ConjugatedSingleBond ConjugatedSingleBond ConjugatedSingleBond NonConjugatedSingleBond NonConjugatedSingleBond NonConjugatedSingleBond NonConjugatedSingleBond NonConjugatedSingleBond NonConjugatedSingleBondInRing NonConjugatedSingleBondInRing NonConjugatedSingleBondInRing NonConjugatedSingleBond NonConjugatedSingleBond NonConjugatedSingleBondInRing NonConjugatedSingleBond NonConjugatedSingleBond NonConjugatedSingleBond NonConjugatedSingleBondInRing NonConjugatedSingleBond NonConjugatedSingleBond NonConjugatedSingleBond AromaticSingleBond AromaticSingleBond NonConjugatedSingleBond AromaticDoubleBond AromaticSingleBond AromaticSingleBond AromaticDoubleBond ConjugatedSingleBond AromaticDoubleBond NonConjugatedSingleBond NonConjugatedSingleBond AromaticSingleBond NonConjugatedSingleBond AromaticDoubleBond AromaticSingleBond
M  BCL CHI   1   S   5   S   9   S  17   R  20   S  24   R  28   S
M  BCL DBI - - - - - - -
M  END
> <ConfClashScore>
0 

> <ConfOneFourInteractionScore>
-0.981204 

> <ConfScore>
0.0148854 

> <ConfScorePBest>
0.0119055 

> <ConfTolerance>
1.15718 

$$$$
ATP.****
  PyMOL2.5          3D                             0

 43 45  0  0  0  0  0  0  0  0999 V2000
   -0.2056   -0.2869   -5.7783 P   0  0  0  1  0  0  0  0  0  0  0  0
   -0.1204   -1.4863   -4.6631 O   0  0  0  0  0  0  0  0  0  0  0  0
   -1.5622   -0.4945   -6.6390 O   0  5  0  1  0  0  0  0  0  0  0  0
    1.0235   -0.2131   -6.5996 O   0  0  0  1  0  0  0  0  0  0  0  0
    0.6399    1.6475   -3.8368 P   0  0  0  1  0  0  0  0  0  0  0  0
    1.9872    1.0847   -4.1020 O   0  0  0  0  0  0  0  0  0  0  0  0
    0.4707    3.1061   -3.7096 O   0  0  0  1  0  0  0  0  0  0  0  0
   -0.4344    1.0436   -4.8870 O   0  0  0  1  0  0  0  0  0  0  0  0
   -0.3635   -0.5907   -2.0671 P   0  0  0  1  0  0  0  0  0  0  0  0
    0.6234   -1.6156   -2.4746 O   0  0  0  1  0  0  0  0  0  0  0  0
   -1.7646   -0.9437   -2.7997 O   0  5  0  1  0  0  0  0  0  0  0  0
   -0.0399    0.8841   -2.6031 O   0  0  0  1  0  0  0  0  0  0  0  0
   -0.6394   -0.6080   -0.5215 O   0  0  0  1  0  0  0  0  0  0  0  0
   -1.5546    0.3083    0.1311 C   0  0  0  1  0  0  0  0  0  0  0  0
   -2.4679    0.3675   -0.4232 H   0  0  0  1  0  0  0  0  0  0  0  0
   -1.1125    1.2805    0.1960 H   0  0  0  1  0  0  0  0  0  0  0  0
   -1.8282   -0.2266    1.5185 C   0  0  0  1  0  0  0  0  0  0  0  0
   -2.3521   -1.1567    1.4459 H   0  0  0  1  0  0  0  0  0  0  0  0
   -0.5951   -0.3932    2.2518 O   0  0  0  1  0  0  0  0  0  0  0  0
   -2.6424    0.7932    2.3437 C   0  0  0  1  0  0  0  0  0  0  0  0
   -2.4993    1.7852    1.9693 H   0  0  0  1  0  0  0  0  0  0  0  0
   -4.0335    0.4701    2.3188 O   0  0  0  1  0  0  0  0  0  0  0  0
   -4.1522   -0.4533    2.5528 H   0  0  0  1  0  0  0  0  0  0  0  0
   -2.0735    0.6597    3.7758 C   0  0  0  1  0  0  0  0  0  0  0  0
   -1.6531    1.5866    4.1060 H   0  0  0  1  0  0  0  0  0  0  0  0
   -3.0901    0.2449    4.6894 O   0  0  0  1  0  0  0  0  0  0  0  0
   -3.4846   -0.5737    4.3797 H   0  0  0  1  0  0  0  0  0  0  0  0
   -0.9800   -0.4227    3.6427 C   0  0  0  1  0  0  0  0  0  0  0  0
   -1.3687   -1.3845    3.9052 H   0  0  0  1  0  0  0  0  0  0  0  0
    0.1624   -0.1076    4.4992 N   0  0  0  1  0  0  0  0  0  0  0  0
    0.5863   -0.7960    5.5942 C   0  0  0  1  0  0  0  0  0  0  0  0
    0.0688   -1.6135    5.9756 H   0  0  0  1  0  0  0  0  0  0  0  0
    1.6912   -0.3529    6.1296 N   0  0  0  1  0  0  0  0  0  0  0  0
    2.0390    0.7160    5.3185 C   0  0  0  1  0  0  0  0  0  0  0  0
    3.0854    1.6337    5.3182 C   0  0  0  1  0  0  0  0  0  0  0  0
    4.1335    1.6747    6.2423 N   0  0  0  1  0  0  0  0  0  0  0  0
    4.7973    2.3943    6.1988 H   0  0  0  1  0  0  0  0  0  0  0  0
    4.2044    0.9838    6.9337 H   0  0  0  1  0  0  0  0  0  0  0  0
    3.1386    2.5782    4.3728 N   0  0  0  1  0  0  0  0  0  0  0  0
    2.1565    2.6094    3.4583 C   0  0  0  1  0  0  0  0  0  0  0  0
    2.2316    3.3607    2.7431 H   0  0  0  1  0  0  0  0  0  0  0  0
    1.1024    1.8109    3.3435 N   0  0  0  1  0  0  0  0  0  0  0  0
    1.0936    0.8782    4.2969 C   0  0  0  1  0  0  0  0  0  0  0  0
  1  2  1  0  0  0  0
  1  3  1  0  0  0  0
  1  4  2  0  0  0  0
  1  8  1  0  0  0  0
  5  6  1  0  0  0  0
  5  7  2  0  0  0  0
  5  8  1  0  0  0  0
  5 12  1  0  0  0  0
  9 10  2  0  0  0  0
  9 11  1  0  0  0  0
  9 12  1  0  0  0  0
  9 13  1  0  0  0  0
 13 14  1  0  0  0  0
 14 15  1  0  0  0  0
 14 16  1  0  0  0  0
 14 17  1  0  0  0  0
 17 18  1  0  0  0  0
 17 19  1  0  0  0  0
 17 20  1  0  0  0  0
 19 28  1  0  0  0  0
 20 21  1  0  0  0  0
 20 22  1  0  0  0  0
 20 24  1  0  0  0  0
 22 23  1  0  0  0  0
 24 25  1  0  0  0  0
 24 26  1  0  0  0  0
 24 28  1  0  0  0  0
 26 27  1  0  0  0  0
 28 29  1  0  0  0  0
 28 30  1  0  0  0  0
 30 31  1  0  0  0  0
 30 43  1  0  0  0  0
 31 32  1  0  0  0  0
 31 33  2  0  0  0  0
 33 34  1  0  0  0  0
 34 35  1  0  0  0  0
 34 43  2  0  0  0  0
 35 36  1  0  0  0  0
 35 39  2  0  0  0  0
 36 37  1  0  0  0  0
 36 38  1  0  0  0  0
 39 40  1  0  0  0  0
 40 41  1  0  0  0  0
 40 42  2  0  0  0  0
 42 43  1  0  0  0  0
M  BCL ATM P_TeTeTeTePi O_Te2Te2TeTe O_Te2Te2Te2Te O_Tr2Tr2TrPi P_TeTeTeTePi O_Te2Te2TeTe O_Tr2Tr2TrPi O_Tr2TrTrPi2 P_TeTeTeTePi O_Tr2Tr2TrPi O_Te2Te2Te2Te O_Tr2TrTrPi2 O_Tr2TrTrPi2 C_TeTeTeTe H_S H_S C_TeTeTeTe H_S O_Te2Te2TeTe C_TeTeTeTe H_S O_Te2Te2TeTe H_S C_TeTeTeTe H_S O_Te2Te2TeTe H_S C_TeTeTeTe H_S N_TrTrTrPi2 C_TrTrTrPi H_S N_Tr2TrTrPi C_TrTrTrPi C_TrTrTrPi N_TrTrTrPi2 H_S H_S N_Tr2TrTrPi C_TrTrTrPi H_S N_Tr2TrTrPi C_TrTrTrPi
M  BCL BND ConjugatedSingleBond ConjugatedSingleBond ConjugatedDoubleBond ConjugatedSingleBond ConjugatedSingleBond ConjugatedDoubleBond ConjugatedSingleBond ConjugatedSingleBond ConjugatedDoubleBond ConjugatedSingleBond ConjugatedSingleBond ConjugatedSingleBond NonConjugatedSingleBond NonConjugatedSingleBond NonConjugatedSingleBond NonConjugatedSingleBond NonConjugatedSingleBond NonConjugatedSingleBondInRing NonConjugatedSingleBondInRing NonConjugatedSingleBondInRing NonConjugatedSingleBond NonConjugatedSingleBond NonConjugatedSingleBondInRing NonConjugatedSingleBond NonConjugatedSingleBond NonConjugatedSingleBond NonConjugatedSingleBondInRing NonConjugatedSingleBond NonConjugatedSingleBond NonConjugatedSingleBond AromaticSingleBond AromaticSingleBond NonConjugatedSingleBond AromaticDoubleBond AromaticSingleBond AromaticSingleBond AromaticDoubleBond ConjugatedSingleBond AromaticDoubleBond NonConjugatedSingleBond NonConjugatedSingleBond AromaticSingleBond NonConjugatedSingleBond AromaticDoubleBond AromaticSingleBond
M  BCL CHI   1   S   5   S   9   S  17   R  20   S  24   R  28   S
M  BCL DBI - - - - - - -
M  END
> <ConfClashScore>
0 

> <ConfOneFourInteractionScore>
-0.983049 

> <ConfScore>
0.0153479 

> <ConfScorePBest>
0.0118025 

> <ConfTolerance>
1.39412 

$$$$
ATP.****
  PyMOL2.5          3D                             0

 43 45  0  0  0  0  0  0  0  0999 V2000
    2.8645   -2.4987   -2.9255 P   0  0  0  1  0  0  0  0  0  0  0  0
    4.3493   -2.1219   -3.5111 O   0  0  0  0  0  0  0  0  0  0  0  0
    2.5050   -1.2368   -1.9753 O   0  5  0  1  0  0  0  0  0  0  0  0
    3.0472   -3.7256   -2.1183 O   0  0  0  1  0  0  0  0  0  0  0  0
    0.2080   -2.6542   -4.1586 P   0  0  0  1  0  0  0  0  0  0  0  0
   -0.4084   -1.5694   -4.9608 O   0  0  0  0  0  0  0  0  0  0  0  0
   -0.0961   -4.0658   -4.4578 O   0  0  0  1  0  0  0  0  0  0  0  0
    1.7992   -2.5104   -4.1280 O   0  0  0  1  0  0  0  0  0  0  0  0
   -0.7033   -0.9886   -2.0619 P   0  0  0  1  0  0  0  0  0  0  0  0
   -1.8833   -0.7607   -2.9256 O   0  0  0  1  0  0  0  0  0  0  0  0
    0.4395    0.1305   -2.3191 O   0  5  0  1  0  0  0  0  0  0  0  0
   -0.0859   -2.3836   -2.5910 O   0  0  0  1  0  0  0  0  0  0  0  0
   -0.9760   -1.1270   -0.5097 O   0  0  0  1  0  0  0  0  0  0  0  0
   -1.6191   -0.0305    0.1817 C   0  0  0  1  0  0  0  0  0  0  0  0
   -2.5290    0.2310   -0.3169 H   0  0  0  1  0  0  0  0  0  0  0  0
   -0.9677    0.8180    0.2045 H   0  0  0  1  0  0  0  0  0  0  0  0
   -1.9176   -0.4886    1.5912 C   0  0  0  1  0  0  0  0  0  0  0  0
   -2.5282   -1.3667    1.5597 H   0  0  0  1  0  0  0  0  0  0  0  0
   -0.7306   -0.7342    2.2953 O   0  0  0  1  0  0  0  0  0  0  0  0
   -2.6083    0.6259    2.3905 C   0  0  0  1  0  0  0  0  0  0  0  0
   -2.2471    1.5901    2.0993 H   0  0  0  1  0  0  0  0  0  0  0  0
   -4.0259    0.5771    2.2226 O   0  0  0  1  0  0  0  0  0  0  0  0
   -4.2712    1.0562    1.4277 H   0  0  0  1  0  0  0  0  0  0  0  0
   -2.2182    0.3057    3.8096 C   0  0  0  1  0  0  0  0  0  0  0  0
   -2.2120    1.1883    4.4143 H   0  0  0  1  0  0  0  0  0  0  0  0
   -3.1063   -0.6576    4.3805 O   0  0  0  1  0  0  0  0  0  0  0  0
   -3.3957   -0.3544    5.2441 H   0  0  0  1  0  0  0  0  0  0  0  0
   -0.8062   -0.2689    3.6617 C   0  0  0  1  0  0  0  0  0  0  0  0
   -0.6574   -1.0800    4.3435 H   0  0  0  1  0  0  0  0  0  0  0  0
    0.1987    0.7672    3.9081 N   0  0  0  1  0  0  0  0  0  0  0  0
    0.5373    1.8286    3.1261 C   0  0  0  1  0  0  0  0  0  0  0  0
    0.0245    2.0660    2.2530 H   0  0  0  1  0  0  0  0  0  0  0  0
    1.5540    2.5261    3.5546 N   0  0  0  1  0  0  0  0  0  0  0  0
    1.9196    1.8812    4.7259 C   0  0  0  1  0  0  0  0  0  0  0  0
    2.9178    2.0838    5.6743 C   0  0  0  1  0  0  0  0  0  0  0  0
    3.8297    3.1030    5.5936 N   0  0  0  1  0  0  0  0  0  0  0  0
    4.4711    3.2453    6.3207 H   0  0  0  1  0  0  0  0  0  0  0  0
    3.8405    3.6898    4.8088 H   0  0  0  1  0  0  0  0  0  0  0  0
    3.0131    1.2593    6.7231 N   0  0  0  1  0  0  0  0  0  0  0  0
    2.1360    0.2468    6.8095 C   0  0  0  1  0  0  0  0  0  0  0  0
    2.2457   -0.3739    7.6367 H   0  0  0  1  0  0  0  0  0  0  0  0
    1.1475   -0.0690    5.9818 N   0  0  0  1  0  0  0  0  0  0  0  0
    1.0805    0.7830    4.9578 C   0  0  0  1  0  0  0  0  0  0  0  0
  1  2  1  0  0  0  0
  1  3  1  0  0  0  0
  1  4  2  0  0  0  0
  1  8  1  0  0  0  0
  5  6  1  0  0  0  0
  5  7  2  0  0  0  0
  5  8  1  0  0  0  0
  5 12  1  0  0  0  0
  9 10  2  0  0  0  0
  9 11  1  0  0  0  0
  9 12  1  0  0  0  0
  9 13  1  0  0  0  0
 13 14  1  0  0  0  0
 14 15  1  0  0  0  0
 14 16  1  0  0  0  0
 14 17  1  0  0  0  0
 17 18  1  0  0  0  0
 17 19  1  0  0  0  0
 17 20  1  0  0  0  0
 19 28  1  0  0  0  0
 20 21  1  0  0  0  0
 20 22  1  0  0  0  0
 20 24  1  0  0  0  0
 22 23  1  0  0  0  0
 24 25  1  0  0  0  0
 24 26  1  0  0  0  0
 24 28  1  0  0  0  0
 26 27  1  0  0  0  0
 28 29  1  0  0  0  0
 28 30  1  0  0  0  0
 30 31  1  0  0  0  0
 30 43  1  0  0  0  0
 31 32  1  0  0  0  0
 31 33  2  0  0  0  0
 33 34  1  0  0  0  0
 34 35  1  0  0  0  0
 34 43  2  0  0  0  0
 35 36  1  0  0  0  0
 35 39  2  0  0  0  0
 36 37  1  0  0  0  0
 36 38  1  0  0  0  0
 39 40  1  0  0  0  0
 40 41  1  0  0  0  0
 40 42  2  0  0  0  0
 42 43  1  0  0  0  0
M  BCL ATM P_TeTeTeTePi O_Te2Te2TeTe O_Te2Te2Te2Te O_Tr2Tr2TrPi P_TeTeTeTePi O_Te2Te2TeTe O_Tr2Tr2TrPi O_Tr2TrTrPi2 P_TeTeTeTePi O_Tr2Tr2TrPi O_Te2Te2Te2Te O_Tr2TrTrPi2 O_Tr2TrTrPi2 C_TeTeTeTe H_S H_S C_TeTeTeTe H_S O_Te2Te2TeTe C_TeTeTeTe H_S O_Te2Te2TeTe H_S C_TeTeTeTe H_S O_Te2Te2TeTe H_S C_TeTeTeTe H_S N_TrTrTrPi2 C_TrTrTrPi H_S N_Tr2TrTrPi C_TrTrTrPi C_TrTrTrPi N_TrTrTrPi2 H_S H_S N_Tr2TrTrPi C_TrTrTrPi H_S N_Tr2TrTrPi C_TrTrTrPi
M  BCL BND ConjugatedSingleBond ConjugatedSingleBond ConjugatedDoubleBond ConjugatedSingleBond ConjugatedSingleBond ConjugatedDoubleBond ConjugatedSingleBond ConjugatedSingleBond ConjugatedDoubleBond ConjugatedSingleBond ConjugatedSingleBond ConjugatedSingleBond NonConjugatedSingleBond NonConjugatedSingleBond NonConjugatedSingleBond NonConjugatedSingleBond NonConjugatedSingleBond NonConjugatedSingleBondInRing NonConjugatedSingleBondInRing NonConjugatedSingleBondInRing NonConjugatedSingleBond NonConjugatedSingleBond NonConjugatedSingleBondInRing NonConjugatedSingleBond NonConjugatedSingleBond NonConjugatedSingleBond NonConjugatedSingleBondInRing NonConjugatedSingleBond NonConjugatedSingleBond NonConjugatedSingleBond AromaticSingleBond AromaticSingleBond NonConjugatedSingleBond AromaticDoubleBond AromaticSingleBond AromaticSingleBond AromaticDoubleBond ConjugatedSingleBond AromaticDoubleBond NonConjugatedSingleBond NonConjugatedSingleBond AromaticSingleBond NonConjugatedSingleBond AromaticDoubleBond AromaticSingleBond
M  BCL CHI   1   S   5   S   9   S  17   R  20   S  24   R  28   S
M  BCL DBI - - - - - - -
M  END
> <ConfClashScore>
0 

> <ConfOneFourInteractionScore>
-0.976383 

> <ConfScore>
0.0154792 

> <ConfScorePBest>
0.0116995 

> <ConfTolerance>
1.21968 

$$$$
ATP.****
  PyMOL2.5          3D                             0

 43 45  0  0  0  0  0  0  0  0999 V2000
    4.1570   -0.7884   -1.0751 P   0  0  0  1  0  0  0  0  0  0  0  0
    4.2060   -0.9658    0.5546 O   0  0  0  0  0  0  0  0  0  0  0  0
    5.1212   -1.9395   -1.6831 O   0  5  0  1  0  0  0  0  0  0  0  0
    4.7533    0.5332   -1.3723 O   0  0  0  1  0  0  0  0  0  0  0  0
    2.0640   -1.4659   -3.0283 P   0  0  0  1  0  0  0  0  0  0  0  0
    2.4548   -0.5698   -4.1704 O   0  0  0  0  0  0  0  0  0  0  0  0
    2.3283   -2.8706   -3.2750 O   0  0  0  1  0  0  0  0  0  0  0  0
    2.6563   -1.0019   -1.6074 O   0  0  0  1  0  0  0  0  0  0  0  0
   -0.5297   -0.1727   -2.2614 P   0  0  0  1  0  0  0  0  0  0  0  0
   -1.8094   -0.2709   -2.9983 O   0  0  0  1  0  0  0  0  0  0  0  0
    0.3255    1.1955   -2.4070 O   0  5  0  1  0  0  0  0  0  0  0  0
    0.4695   -1.2960   -2.8141 O   0  0  0  1  0  0  0  0  0  0  0  0
   -0.6922   -0.4309   -0.7176 O   0  0  0  1  0  0  0  0  0  0  0  0
   -1.4932    0.4525    0.1019 C   0  0  0  1  0  0  0  0  0  0  0  0
   -2.4168    0.6564   -0.3984 H   0  0  0  1  0  0  0  0  0  0  0  0
   -0.9614    1.3680    0.2570 H   0  0  0  1  0  0  0  0  0  0  0  0
   -1.7870   -0.1965    1.4589 C   0  0  0  1  0  0  0  0  0  0  0  0
   -2.2462   -1.1508    1.3065 H   0  0  0  1  0  0  0  0  0  0  0  0
   -0.5739   -0.3331    2.2308 O   0  0  0  1  0  0  0  0  0  0  0  0
   -2.6960    0.7144    2.3120 C   0  0  0  1  0  0  0  0  0  0  0  0
   -2.6039    1.7358    2.0067 H   0  0  0  1  0  0  0  0  0  0  0  0
   -4.0613    0.3073    2.2093 O   0  0  0  1  0  0  0  0  0  0  0  0
   -4.1017   -0.6301    2.0061 H   0  0  0  1  0  0  0  0  0  0  0  0
   -2.1736    0.5237    3.7552 C   0  0  0  1  0  0  0  0  0  0  0  0
   -1.8270    1.4515    4.1600 H   0  0  0  1  0  0  0  0  0  0  0  0
   -3.1944   -0.0126    4.5981 O   0  0  0  1  0  0  0  0  0  0  0  0
   -3.1180    0.3683    5.4760 H   0  0  0  1  0  0  0  0  0  0  0  0
   -1.0078   -0.4773    3.5999 C   0  0  0  1  0  0  0  0  0  0  0  0
   -1.3426   -1.4765    3.7853 H   0  0  0  1  0  0  0  0  0  0  0  0
    0.0816   -0.1471    4.5233 N   0  0  0  1  0  0  0  0  0  0  0  0
    0.5998   -1.0036    5.4455 C   0  0  0  1  0  0  0  0  0  0  0  0
    0.3085   -1.9999    5.5092 H   0  0  0  1  0  0  0  0  0  0  0  0
    1.4899   -0.4802    6.2440 N   0  0  0  1  0  0  0  0  0  0  0  0
    1.5799    0.8342    5.8129 C   0  0  0  1  0  0  0  0  0  0  0  0
    2.3197    1.9405    6.2201 C   0  0  0  1  0  0  0  0  0  0  0  0
    3.1606    1.7446    7.2677 N   0  0  0  1  0  0  0  0  0  0  0  0
    3.0941    0.9264    7.8030 H   0  0  0  1  0  0  0  0  0  0  0  0
    3.8341    2.4213    7.4886 H   0  0  0  1  0  0  0  0  0  0  0  0
    2.1735    3.1070    5.5825 N   0  0  0  1  0  0  0  0  0  0  0  0
    1.2946    3.1648    4.5695 C   0  0  0  1  0  0  0  0  0  0  0  0
    1.2069    4.0898    4.1023 H   0  0  0  1  0  0  0  0  0  0  0  0
    0.5224    2.2007    4.0836 N   0  0  0  1  0  0  0  0  0  0  0  0
    0.7070    1.0538    4.7389 C   0  0  0  1  0  0  0  0  0  0  0  0
  1  2  1  0  0  0  0
  1  3  1  0  0  0  0
  1  4  2  0  0  0  0
  1  8  1  0  0  0  0
  5  6  1  0  0  0  0
  5  7  2  0  0  0  0
  5  8  1  0  0  0  0
  5 12  1  0  0  0  0
  9 10  2  0  0  0  0
  9 11  1  0  0  0  0
  9 12  1  0  0  0  0
  9 13  1  0  0  0  0
 13 14  1  0  0  0  0
 14 15  1  0  0  0  0
 14 16  1  0  0  0  0
 14 17  1  0  0  0  0
 17 18  1  0  0  0  0
 17 19  1  0  0  0  0
 17 20  1  0  0  0  0
 19 28  1  0  0  0  0
 20 21  1  0  0  0  0
 20 22  1  0  0  0  0
 20 24  1  0  0  0  0
 22 23  1  0  0  0  0
 24 25  1  0  0  0  0
 24 26  1  0  0  0  0
 24 28  1  0  0  0  0
 26 27  1  0  0  0  0
 28 29  1  0  0  0  0
 28 30  1  0  0  0  0
 30 31  1  0  0  0  0
 30 43  1  0  0  0  0
 31 32  1  0  0  0  0
 31 33  2  0  0  0  0
 33 34  1  0  0  0  0
 34 35  1  0  0  0  0
 34 43  2  0  0  0  0
 35 36  1  0  0  0  0
 35 39  2  0  0  0  0
 36 37  1  0  0  0  0
 36 38  1  0  0  0  0
 39 40  1  0  0  0  0
 40 41  1  0  0  0  0
 40 42  2  0  0  0  0
 42 43  1  0  0  0  0
M  BCL ATM P_TeTeTeTePi O_Te2Te2TeTe O_Te2Te2Te2Te O_Tr2Tr2TrPi P_TeTeTeTePi O_Te2Te2TeTe O_Tr2Tr2TrPi O_Tr2TrTrPi2 P_TeTeTeTePi O_Tr2Tr2TrPi O_Te2Te2Te2Te O_Tr2TrTrPi2 O_Tr2TrTrPi2 C_TeTeTeTe H_S H_S C_TeTeTeTe H_S O_Te2Te2TeTe C_TeTeTeTe H_S O_Te2Te2TeTe H_S C_TeTeTeTe H_S O_Te2Te2TeTe H_S C_TeTeTeTe H_S N_TrTrTrPi2 C_TrTrTrPi H_S N_Tr2TrTrPi C_TrTrTrPi C_TrTrTrPi N_TrTrTrPi2 H_S H_S N_Tr2TrTrPi C_TrTrTrPi H_S N_Tr2TrTrPi C_TrTrTrPi
M  BCL BND ConjugatedSingleBond ConjugatedSingleBond ConjugatedDoubleBond ConjugatedSingleBond ConjugatedSingleBond ConjugatedDoubleBond ConjugatedSingleBond ConjugatedSingleBond ConjugatedDoubleBond ConjugatedSingleBond ConjugatedSingleBond ConjugatedSingleBond NonConjugatedSingleBond NonConjugatedSingleBond NonConjugatedSingleBond NonConjugatedSingleBond NonConjugatedSingleBond NonConjugatedSingleBondInRing NonConjugatedSingleBondInRing NonConjugatedSingleBondInRing NonConjugatedSingleBond NonConjugatedSingleBond NonConjugatedSingleBondInRing NonConjugatedSingleBond NonConjugatedSingleBond NonConjugatedSingleBond NonConjugatedSingleBondInRing NonConjugatedSingleBond NonConjugatedSingleBond NonConjugatedSingleBond AromaticSingleBond AromaticSingleBond NonConjugatedSingleBond AromaticDoubleBond AromaticSingleBond AromaticSingleBond AromaticDoubleBond ConjugatedSingleBond AromaticDoubleBond NonConjugatedSingleBond NonConjugatedSingleBond AromaticSingleBond NonConjugatedSingleBond AromaticDoubleBond AromaticSingleBond
M  BCL CHI   1   S   5   S   9   S  17   R  20   S  24   R  28   S
M  BCL DBI - - - - - - -
M  END
> <ConfClashScore>
0 

> <ConfOneFourInteractionScore>
-0.984135 

> <ConfScore>
0.0158201 

> <ConfScorePBest>
0.0115965 

> <ConfTolerance>
1.39907 

$$$$
ATP.****
  PyMOL2.5          3D                             0

 43 45  0  0  0  0  0  0  0  0999 V2000
   -3.5460    5.4849   -0.0361 P   0  0  0  1  0  0  0  0  0  0  0  0
   -3.4961    6.5209    1.2343 O   0  0  0  0  0  0  0  0  0  0  0  0
   -4.1134    6.2755   -1.3312 O   0  5  0  1  0  0  0  0  0  0  0  0
   -4.2198    4.1772    0.1259 O   0  0  0  1  0  0  0  0  0  0  0  0
   -0.7088    4.9491    0.4993 P   0  0  0  1  0  0  0  0  0  0  0  0
    0.1933    6.1216    0.5493 O   0  0  0  0  0  0  0  0  0  0  0  0
   -1.1639    4.3455    1.7704 O   0  0  0  1  0  0  0  0  0  0  0  0
   -1.9963    5.2669   -0.3994 O   0  0  0  1  0  0  0  0  0  0  0  0
   -0.4639    2.5197   -1.0930 P   0  0  0  1  0  0  0  0  0  0  0  0
    0.4644    1.8445   -2.0273 O   0  0  0  1  0  0  0  0  0  0  0  0
   -1.9139    2.9262   -1.6903 O   0  5  0  1  0  0  0  0  0  0  0  0
    0.0379    3.9159   -0.4735 O   0  0  0  1  0  0  0  0  0  0  0  0
   -0.8609    1.7145    0.1993 O   0  0  0  1  0  0  0  0  0  0  0  0
   -1.4276    0.3832    0.1010 C   0  0  0  1  0  0  0  0  0  0  0  0
   -0.7160   -0.2563   -0.3781 H   0  0  0  1  0  0  0  0  0  0  0  0
   -2.3177    0.4337   -0.4906 H   0  0  0  1  0  0  0  0  0  0  0  0
   -1.7765   -0.2072    1.4484 C   0  0  0  1  0  0  0  0  0  0  0  0
   -2.2669   -1.1481    1.3099 H   0  0  0  1  0  0  0  0  0  0  0  0
   -0.5903   -0.3660    2.2570 O   0  0  0  1  0  0  0  0  0  0  0  0
   -2.6732    0.7605    2.2505 C   0  0  0  1  0  0  0  0  0  0  0  0
   -2.5349    1.7686    1.9196 H   0  0  0  1  0  0  0  0  0  0  0  0
   -4.0358    0.4045    2.1227 O   0  0  0  1  0  0  0  0  0  0  0  0
   -4.1525   -0.5133    2.3788 H   0  0  0  1  0  0  0  0  0  0  0  0
   -2.1967    0.5924    3.7123 C   0  0  0  1  0  0  0  0  0  0  0  0
   -1.8265    1.5181    4.1006 H   0  0  0  1  0  0  0  0  0  0  0  0
   -3.2589    0.1183    4.5412 O   0  0  0  1  0  0  0  0  0  0  0  0
   -2.9053   -0.1525    5.3916 H   0  0  0  1  0  0  0  0  0  0  0  0
   -1.0655   -0.4547    3.6171 C   0  0  0  1  0  0  0  0  0  0  0  0
   -1.4422   -1.4352    3.8208 H   0  0  0  1  0  0  0  0  0  0  0  0
    0.0079   -0.1389    4.5583 N   0  0  0  1  0  0  0  0  0  0  0  0
    0.6640    1.0466    4.6877 C   0  0  0  1  0  0  0  0  0  0  0  0
    0.4412    1.8760    4.1012 H   0  0  0  1  0  0  0  0  0  0  0  0
    1.5940    1.0641    5.6035 N   0  0  0  1  0  0  0  0  0  0  0  0
    1.5490   -0.2149    6.1363 C   0  0  0  1  0  0  0  0  0  0  0  0
    2.2632   -0.8778    7.1300 C   0  0  0  1  0  0  0  0  0  0  0  0
    3.2689   -0.2867    7.8483 N   0  0  0  1  0  0  0  0  0  0  0  0
    3.5827    0.6095    7.6060 H   0  0  0  1  0  0  0  0  0  0  0  0
    3.6746   -0.7601    8.6044 H   0  0  0  1  0  0  0  0  0  0  0  0
    1.9741   -2.1518    7.4165 N   0  0  0  1  0  0  0  0  0  0  0  0
    1.0008   -2.7501    6.7118 C   0  0  0  1  0  0  0  0  0  0  0  0
    0.8090   -3.7413    6.9615 H   0  0  0  1  0  0  0  0  0  0  0  0
    0.2500   -2.2475    5.7393 N   0  0  0  1  0  0  0  0  0  0  0  0
    0.5624   -0.9744    5.4932 C   0  0  0  1  0  0  0  0  0  0  0  0
  1  2  1  0  0  0  0
  1  3  1  0  0  0  0
  1  4  2  0  0  0  0
  1  8  1  0  0  0  0
  5  6  1  0  0  0  0
  5  7  2  0  0  0  0
  5  8  1  0  0  0  0
  5 12  1  0  0  0  0
  9 10  2  0  0  0  0
  9 11  1  0  0  0  0
  9 12  1  0  0  0  0
  9 13  1  0  0  0  0
 13 14  1  0  0  0  0
 14 15  1  0  0  0  0
 14 16  1  0  0  0  0
 14 17  1  0  0  0  0
 17 18  1  0  0  0  0
 17 19  1  0  0  0  0
 17 20  1  0  0  0  0
 19 28  1  0  0  0  0
 20 21  1  0  0  0  0
 20 22  1  0  0  0  0
 20 24  1  0  0  0  0
 22 23  1  0  0  0  0
 24 25  1  0  0  0  0
 24 26  1  0  0  0  0
 24 28  1  0  0  0  0
 26 27  1  0  0  0  0
 28 29  1  0  0  0  0
 28 30  1  0  0  0  0
 30 31  1  0  0  0  0
 30 43  1  0  0  0  0
 31 32  1  0  0  0  0
 31 33  2  0  0  0  0
 33 34  1  0  0  0  0
 34 35  1  0  0  0  0
 34 43  2  0  0  0  0
 35 36  1  0  0  0  0
 35 39  2  0  0  0  0
 36 37  1  0  0  0  0
 36 38  1  0  0  0  0
 39 40  1  0  0  0  0
 40 41  1  0  0  0  0
 40 42  2  0  0  0  0
 42 43  1  0  0  0  0
M  BCL ATM P_TeTeTeTePi O_Te2Te2TeTe O_Te2Te2Te2Te O_Tr2Tr2TrPi P_TeTeTeTePi O_Te2Te2TeTe O_Tr2Tr2TrPi O_Tr2TrTrPi2 P_TeTeTeTePi O_Tr2Tr2TrPi O_Te2Te2Te2Te O_Tr2TrTrPi2 O_Tr2TrTrPi2 C_TeTeTeTe H_S H_S C_TeTeTeTe H_S O_Te2Te2TeTe C_TeTeTeTe H_S O_Te2Te2TeTe H_S C_TeTeTeTe H_S O_Te2Te2TeTe H_S C_TeTeTeTe H_S N_TrTrTrPi2 C_TrTrTrPi H_S N_Tr2TrTrPi C_TrTrTrPi C_TrTrTrPi N_TrTrTrPi2 H_S H_S N_Tr2TrTrPi C_TrTrTrPi H_S N_Tr2TrTrPi C_TrTrTrPi
M  BCL BND ConjugatedSingleBond ConjugatedSingleBond ConjugatedDoubleBond ConjugatedSingleBond ConjugatedSingleBond ConjugatedDoubleBond ConjugatedSingleBond ConjugatedSingleBond ConjugatedDoubleBond ConjugatedSingleBond ConjugatedSingleBond ConjugatedSingleBond NonConjugatedSingleBond NonConjugatedSingleBond NonConjugatedSingleBond NonConjugatedSingleBond NonConjugatedSingleBond NonConjugatedSingleBondInRing NonConjugatedSingleBondInRing NonConjugatedSingleBondInRing NonConjugatedSingleBond NonConjugatedSingleBond NonConjugatedSingleBondInRing NonConjugatedSingleBond NonConjugatedSingleBond NonConjugatedSingleBond NonConjugatedSingleBondInRing NonConjugatedSingleBond NonConjugatedSingleBond NonConjugatedSingleBond AromaticSingleBond AromaticSingleBond NonConjugatedSingleBond AromaticDoubleBond AromaticSingleBond AromaticSingleBond AromaticDoubleBond ConjugatedSingleBond AromaticDoubleBond NonConjugatedSingleBond NonConjugatedSingleBond AromaticSingleBond NonConjugatedSingleBond AromaticDoubleBond AromaticSingleBond
M  BCL CHI   1   S   5   S   9   S  17   R  20   S  24   R  28   S
M  BCL DBI - - - - - - -
M  END
> <ConfClashScore>
0 

> <ConfOneFourInteractionScore>
-0.990596 

> <ConfScore>
0.0164828 

> <ConfScorePBest>
0.0114935 

> <ConfTolerance>
1.27744 

$$$$
ATP.****
  PyMOL2.5          3D                             0

 43 45  0  0  0  0  0  0  0  0999 V2000
   -5.2697   -0.2165   -4.6248 P   0  0  0  1  0  0  0  0  0  0  0  0
   -5.3989   -0.5669   -6.2217 O   0  0  0  0  0  0  0  0  0  0  0  0
   -6.4061   -1.1254   -3.9128 O   0  5  0  1  0  0  0  0  0  0  0  0
   -5.6634    1.1897   -4.3837 O   0  0  0  1  0  0  0  0  0  0  0  0
   -3.1347   -0.5374   -2.6343 P   0  0  0  1  0  0  0  0  0  0  0  0
   -3.1294    0.9623   -2.3837 O   0  0  0  0  0  0  0  0  0  0  0  0
   -4.0440   -1.3023   -1.7056 O   0  0  0  1  0  0  0  0  0  0  0  0
   -3.8097   -0.6143   -4.0851 O   0  0  0  1  0  0  0  0  0  0  0  0
   -0.2691   -0.7570   -2.0309 P   0  0  0  1  0  0  0  0  0  0  0  0
    0.3185    0.5168   -2.5025 O   0  0  0  1  0  0  0  0  0  0  0  0
    0.6970   -2.0559   -2.0921 O   0  5  0  1  0  0  0  0  0  0  0  0
   -1.6473   -1.1326   -2.7560 O   0  0  0  1  0  0  0  0  0  0  0  0
   -0.6427   -0.8390   -0.5080 O   0  0  0  1  0  0  0  0  0  0  0  0
   -1.5136    0.1175    0.1476 C   0  0  0  1  0  0  0  0  0  0  0  0
   -2.4427    0.1848   -0.3788 H   0  0  0  1  0  0  0  0  0  0  0  0
   -1.0459    1.0796    0.1713 H   0  0  0  1  0  0  0  0  0  0  0  0
   -1.7519   -0.3665    1.5401 C   0  0  0  1  0  0  0  0  0  0  0  0
   -2.1772   -1.3479    1.5092 H   0  0  0  1  0  0  0  0  0  0  0  0
   -0.5209   -0.3690    2.2956 O   0  0  0  1  0  0  0  0  0  0  0  0
   -2.6796    0.6044    2.3020 C   0  0  0  1  0  0  0  0  0  0  0  0
   -2.6319    1.5860    1.8787 H   0  0  0  1  0  0  0  0  0  0  0  0
   -4.0300    0.1396    2.2773 O   0  0  0  1  0  0  0  0  0  0  0  0
   -4.6277    0.8879    2.3434 H   0  0  0  1  0  0  0  0  0  0  0  0
   -2.1246    0.6017    3.7457 C   0  0  0  1  0  0  0  0  0  0  0  0
   -1.8064    1.5822    4.0327 H   0  0  0  1  0  0  0  0  0  0  0  0
   -3.1091    0.1311    4.6673 O   0  0  0  1  0  0  0  0  0  0  0  0
   -3.1918   -0.8221    4.5889 H   0  0  0  1  0  0  0  0  0  0  0  0
   -0.9245   -0.3682    3.6814 C   0  0  0  1  0  0  0  0  0  0  0  0
   -1.2177   -1.3504    3.9885 H   0  0  0  1  0  0  0  0  0  0  0  0
    0.1618    0.1033    4.5314 N   0  0  0  1  0  0  0  0  0  0  0  0
    1.0304    1.1284    4.3134 C   0  0  0  1  0  0  0  0  0  0  0  0
    0.9472    1.7680    3.4976 H   0  0  0  1  0  0  0  0  0  0  0  0
    1.9758    1.2482    5.2056 N   0  0  0  1  0  0  0  0  0  0  0  0
    1.7108    0.2221    6.0991 C   0  0  0  1  0  0  0  0  0  0  0  0
    2.3204   -0.2304    7.2656 C   0  0  0  1  0  0  0  0  0  0  0  0
    3.4555    0.3182    7.8523 N   0  0  0  1  0  0  0  0  0  0  0  0
    3.9490    1.0299    7.3936 H   0  0  0  1  0  0  0  0  0  0  0  0
    3.7620   -0.0068    8.7246 H   0  0  0  1  0  0  0  0  0  0  0  0
    1.8089   -1.2809    7.9164 N   0  0  0  1  0  0  0  0  0  0  0  0
    0.7197   -1.8717    7.4001 C   0  0  0  1  0  0  0  0  0  0  0  0
    0.3551   -2.6871    7.9330 H   0  0  0  1  0  0  0  0  0  0  0  0
    0.0452   -1.5559    6.3014 N   0  0  0  1  0  0  0  0  0  0  0  0
    0.5807   -0.4984    5.6899 C   0  0  0  1  0  0  0  0  0  0  0  0
  1  2  1  0  0  0  0
  1  3  1  0  0  0  0
  1  4  2  0  0  0  0
  1  8  1  0  0  0  0
  5  6  1  0  0  0  0
  5  7  2  0  0  0  0
  5  8  1  0  0  0  0
  5 12  1  0  0  0  0
  9 10  2  0  0  0  0
  9 11  1  0  0  0  0
  9 12  1  0  0  0  0
  9 13  1  0  0  0  0
 13 14  1  0  0  0  0
 14 15  1  0  0  0  0
 14 16  1  0  0  0  0
 14 17  1  0  0  0  0
 17 18  1  0  0  0  0
 17 19  1  0  0  0  0
 17 20  1  0  0  0  0
 19 28  1  0  0  0  0
 20 21  1  0  0  0  0
 20 22  1  0  0  0  0
 20 24  1  0  0  0  0
 22 23  1  0  0  0  0
 24 25  1  0  0  0  0
 24 26  1  0  0  0  0
 24 28  1  0  0  0  0
 26 27  1  0  0  0  0
 28 29  1  0  0  0  0
 28 30  1  0  0  0  0
 30 31  1  0  0  0  0
 30 43  1  0  0  0  0
 31 32  1  0  0  0  0
 31 33  2  0  0  0  0
 33 34  1  0  0  0  0
 34 35  1  0  0  0  0
 34 43  2  0  0  0  0
 35 36  1  0  0  0  0
 35 39  2  0  0  0  0
 36 37  1  0  0  0  0
 36 38  1  0  0  0  0
 39 40  1  0  0  0  0
 40 41  1  0  0  0  0
 40 42  2  0  0  0  0
 42 43  1  0  0  0  0
M  BCL ATM P_TeTeTeTePi O_Te2Te2TeTe O_Te2Te2Te2Te O_Tr2Tr2TrPi P_TeTeTeTePi O_Te2Te2TeTe O_Tr2Tr2TrPi O_Tr2TrTrPi2 P_TeTeTeTePi O_Tr2Tr2TrPi O_Te2Te2Te2Te O_Tr2TrTrPi2 O_Tr2TrTrPi2 C_TeTeTeTe H_S H_S C_TeTeTeTe H_S O_Te2Te2TeTe C_TeTeTeTe H_S O_Te2Te2TeTe H_S C_TeTeTeTe H_S O_Te2Te2TeTe H_S C_TeTeTeTe H_S N_TrTrTrPi2 C_TrTrTrPi H_S N_Tr2TrTrPi C_TrTrTrPi C_TrTrTrPi N_TrTrTrPi2 H_S H_S N_Tr2TrTrPi C_TrTrTrPi H_S N_Tr2TrTrPi C_TrTrTrPi
M  BCL BND ConjugatedSingleBond ConjugatedSingleBond ConjugatedDoubleBond ConjugatedSingleBond ConjugatedSingleBond ConjugatedDoubleBond ConjugatedSingleBond ConjugatedSingleBond ConjugatedDoubleBond ConjugatedSingleBond ConjugatedSingleBond ConjugatedSingleBond NonConjugatedSingleBond NonConjugatedSingleBond NonConjugatedSingleBond NonConjugatedSingleBond NonConjugatedSingleBond NonConjugatedSingleBondInRing NonConjugatedSingleBondInRing NonConjugatedSingleBondInRing NonConjugatedSingleBond NonConjugatedSingleBond NonConjugatedSingleBondInRing NonConjugatedSingleBond NonConjugatedSingleBond NonConjugatedSingleBond NonConjugatedSingleBondInRing NonConjugatedSingleBond NonConjugatedSingleBond NonConjugatedSingleBond AromaticSingleBond AromaticSingleBond NonConjugatedSingleBond AromaticDoubleBond AromaticSingleBond AromaticSingleBond AromaticDoubleBond ConjugatedSingleBond AromaticDoubleBond NonConjugatedSingleBond NonConjugatedSingleBond AromaticSingleBond NonConjugatedSingleBond AromaticDoubleBond AromaticSingleBond
M  BCL CHI   1   S   5   S   9   S  17   R  20   S  24   R  28   S
M  BCL DBI - - - - - - -
M  END
> <ConfClashScore>
0 

> <ConfOneFourInteractionScore>
-0.986026 

> <ConfScore>
0.0176885 

> <ConfScorePBest>
0.0113905 

> <ConfTolerance>
1.26751 

$$$$
ATP.****
  PyMOL2.5          3D                             0

 43 45  0  0  0  0  0  0  0  0999 V2000
   -6.7967   -0.1042   -5.5790 P   0  0  0  1  0  0  0  0  0  0  0  0
   -6.2388   -1.4024   -6.4115 O   0  0  0  0  0  0  0  0  0  0  0  0
   -8.3330   -0.3651   -5.1364 O   0  5  0  1  0  0  0  0  0  0  0  0
   -6.5160    1.0779   -6.4242 O   0  0  0  1  0  0  0  0  0  0  0  0
   -4.3256   -0.4587   -4.0739 P   0  0  0  1  0  0  0  0  0  0  0  0
   -3.9816   -1.8128   -3.5815 O   0  0  0  0  0  0  0  0  0  0  0  0
   -3.7301   -0.2086   -5.4171 O   0  0  0  1  0  0  0  0  0  0  0  0
   -5.8906   -0.1390   -4.2565 O   0  0  0  1  0  0  0  0  0  0  0  0
   -2.3561    0.7496   -2.2615 P   0  0  0  1  0  0  0  0  0  0  0  0
   -2.0196    2.1909   -2.2615 O   0  0  0  1  0  0  0  0  0  0  0  0
   -1.2538   -0.2094   -2.9612 O   0  5  0  1  0  0  0  0  0  0  0  0
   -3.7680    0.6021   -3.0039 O   0  0  0  1  0  0  0  0  0  0  0  0
   -2.5382    0.1992   -0.7895 O   0  0  0  1  0  0  0  0  0  0  0  0
   -1.3886    0.1889    0.0960 C   0  0  0  1  0  0  0  0  0  0  0  0
   -1.0140    1.1876    0.1809 H   0  0  0  1  0  0  0  0  0  0  0  0
   -0.6351   -0.4402   -0.3298 H   0  0  0  1  0  0  0  0  0  0  0  0
   -1.7183   -0.3221    1.4802 C   0  0  0  1  0  0  0  0  0  0  0  0
   -2.1682   -1.2901    1.4058 H   0  0  0  1  0  0  0  0  0  0  0  0
   -0.5300   -0.3748    2.2995 O   0  0  0  1  0  0  0  0  0  0  0  0
   -2.6584    0.6596    2.2127 C   0  0  0  1  0  0  0  0  0  0  0  0
   -2.5611    1.6476    1.8137 H   0  0  0  1  0  0  0  0  0  0  0  0
   -4.0177    0.2342    2.1066 O   0  0  0  1  0  0  0  0  0  0  0  0
   -4.5035    0.5164    2.8850 H   0  0  0  1  0  0  0  0  0  0  0  0
   -2.1816    0.6122    3.6832 C   0  0  0  1  0  0  0  0  0  0  0  0
   -1.8524    1.5772    4.0077 H   0  0  0  1  0  0  0  0  0  0  0  0
   -3.2266    0.1516    4.5412 O   0  0  0  1  0  0  0  0  0  0  0  0
   -3.0366   -0.7458    4.8243 H   0  0  0  1  0  0  0  0  0  0  0  0
   -1.0070   -0.3902    3.6617 C   0  0  0  1  0  0  0  0  0  0  0  0
   -1.3430   -1.3695    3.9317 H   0  0  0  1  0  0  0  0  0  0  0  0
    0.0480    0.0343    4.5806 N   0  0  0  1  0  0  0  0  0  0  0  0
    1.1725    0.7269    4.2512 C   0  0  0  1  0  0  0  0  0  0  0  0
    1.2980    1.1811    3.3241 H   0  0  0  1  0  0  0  0  0  0  0  0
    2.0816    0.7781    5.1866 N   0  0  0  1  0  0  0  0  0  0  0  0
    1.5124    0.0671    6.2316 C   0  0  0  1  0  0  0  0  0  0  0  0
    1.9314   -0.2757    7.5137 C   0  0  0  1  0  0  0  0  0  0  0  0
    3.1243    0.1691    8.0598 N   0  0  0  1  0  0  0  0  0  0  0  0
    3.3396   -0.0302    8.9948 H   0  0  0  1  0  0  0  0  0  0  0  0
    3.7529    0.6831    7.5110 H   0  0  0  1  0  0  0  0  0  0  0  0
    1.1275   -0.9956    8.3037 N   0  0  0  1  0  0  0  0  0  0  0  0
   -0.0629   -1.3745    7.8125 C   0  0  0  1  0  0  0  0  0  0  0  0
   -0.6568   -1.9360    8.4556 H   0  0  0  1  0  0  0  0  0  0  0  0
   -0.5844   -1.1293    6.6167 N   0  0  0  1  0  0  0  0  0  0  0  0
    0.2431   -0.4008    5.8661 C   0  0  0  1  0  0  0  0  0  0  0  0
  1  2  1  0  0  0  0
  1  3  1  0  0  0  0
  1  4  2  0  0  0  0
  1  8  1  0  0  0  0
  5  6  1  0  0  0  0
  5  7  2  0  0  0  0
  5  8  1  0  0  0  0
  5 12  1  0  0  0  0
  9 10  2  0  0  0  0
  9 11  1  0  0  0  0
  9 12  1  0  0  0  0
  9 13  1  0  0  0  0
 13 14  1  0  0  0  0
 14 15  1  0  0  0  0
 14 16  1  0  0  0  0
 14 17  1  0  0  0  0
 17 18  1  0  0  0  0
 17 19  1  0  0  0  0
 17 20  1  0  0  0  0
 19 28  1  0  0  0  0
 20 21  1  0  0  0  0
 20 22  1  0  0  0  0
 20 24  1  0  0  0  0
 22 23  1  0  0  0  0
 24 25  1  0  0  0  0
 24 26  1  0  0  0  0
 24 28  1  0  0  0  0
 26 27  1  0  0  0  0
 28 29  1  0  0  0  0
 28 30  1  0  0  0  0
 30 31  1  0  0  0  0
 30 43  1  0  0  0  0
 31 32  1  0  0  0  0
 31 33  2  0  0  0  0
 33 34  1  0  0  0  0
 34 35  1  0  0  0  0
 34 43  2  0  0  0  0
 35 36  1  0  0  0  0
 35 39  2  0  0  0  0
 36 37  1  0  0  0  0
 36 38  1  0  0  0  0
 39 40  1  0  0  0  0
 40 41  1  0  0  0  0
 40 42  2  0  0  0  0
 42 43  1  0  0  0  0
M  BCL ATM P_TeTeTeTePi O_Te2Te2TeTe O_Te2Te2Te2Te O_Tr2Tr2TrPi P_TeTeTeTePi O_Te2Te2TeTe O_Tr2Tr2TrPi O_Tr2TrTrPi2 P_TeTeTeTePi O_Tr2Tr2TrPi O_Te2Te2Te2Te O_Tr2TrTrPi2 O_Tr2TrTrPi2 C_TeTeTeTe H_S H_S C_TeTeTeTe H_S O_Te2Te2TeTe C_TeTeTeTe H_S O_Te2Te2TeTe H_S C_TeTeTeTe H_S O_Te2Te2TeTe H_S C_TeTeTeTe H_S N_TrTrTrPi2 C_TrTrTrPi H_S N_Tr2TrTrPi C_TrTrTrPi C_TrTrTrPi N_TrTrTrPi2 H_S H_S N_Tr2TrTrPi C_TrTrTrPi H_S N_Tr2TrTrPi C_TrTrTrPi
M  BCL BND ConjugatedSingleBond ConjugatedSingleBond ConjugatedDoubleBond ConjugatedSingleBond ConjugatedSingleBond ConjugatedDoubleBond ConjugatedSingleBond ConjugatedSingleBond ConjugatedDoubleBond ConjugatedSingleBond ConjugatedSingleBond ConjugatedSingleBond NonConjugatedSingleBond NonConjugatedSingleBond NonConjugatedSingleBond NonConjugatedSingleBond NonConjugatedSingleBond NonConjugatedSingleBondInRing NonConjugatedSingleBondInRing NonConjugatedSingleBondInRing NonConjugatedSingleBond NonConjugatedSingleBond NonConjugatedSingleBondInRing NonConjugatedSingleBond NonConjugatedSingleBond NonConjugatedSingleBond NonConjugatedSingleBondInRing NonConjugatedSingleBond NonConjugatedSingleBond NonConjugatedSingleBond AromaticSingleBond AromaticSingleBond NonConjugatedSingleBond AromaticDoubleBond AromaticSingleBond AromaticSingleBond AromaticDoubleBond ConjugatedSingleBond AromaticDoubleBond NonConjugatedSingleBond NonConjugatedSingleBond AromaticSingleBond NonConjugatedSingleBond AromaticDoubleBond AromaticSingleBond
M  BCL CHI   1   S   5   S   9   S  17   R  20   S  24   R  28   S
M  BCL DBI - - - - - - -
M  END
> <ConfClashScore>
0 

> <ConfOneFourInteractionScore>
-0.98787 

> <ConfScore>
0.0176957 

> <ConfScorePBest>
0.0112875 

> <ConfTolerance>
1.37154 

$$$$
ATP.****
  PyMOL2.5          3D                             0

 43 45  0  0  0  0  0  0  0  0999 V2000
   -0.2540    4.7647   -4.9206 P   0  0  0  1  0  0  0  0  0  0  0  0
    1.2488    4.3205   -5.4043 O   0  0  0  0  0  0  0  0  0  0  0  0
   -1.3743    4.0670   -5.8601 O   0  5  0  1  0  0  0  0  0  0  0  0
   -0.6636    6.1837   -4.8265 O   0  0  0  1  0  0  0  0  0  0  0  0
   -1.8207    4.1774   -2.4351 P   0  0  0  1  0  0  0  0  0  0  0  0
   -1.9051    5.4484   -1.6937 O   0  0  0  0  0  0  0  0  0  0  0  0
   -3.0723    3.9190   -3.2019 O   0  0  0  1  0  0  0  0  0  0  0  0
   -0.6486    4.0609   -3.5206 O   0  0  0  1  0  0  0  0  0  0  0  0
   -0.2690    2.1379   -1.0011 P   0  0  0  1  0  0  0  0  0  0  0  0
    0.8113    3.0629   -0.5914 O   0  0  0  1  0  0  0  0  0  0  0  0
    0.1296    1.2607   -2.3034 O   0  5  0  1  0  0  0  0  0  0  0  0
   -1.5644    3.0078   -1.3639 O   0  0  0  1  0  0  0  0  0  0  0  0
   -0.6229    1.2384    0.2363 O   0  0  0  1  0  0  0  0  0  0  0  0
   -1.5061    0.0950    0.1567 C   0  0  0  1  0  0  0  0  0  0  0  0
   -1.0143   -0.6939   -0.3730 H   0  0  0  1  0  0  0  0  0  0  0  0
   -2.3976    0.3741   -0.3651 H   0  0  0  1  0  0  0  0  0  0  0  0
   -1.8715   -0.3884    1.5450 C   0  0  0  1  0  0  0  0  0  0  0  0
   -2.5410   -1.2196    1.4690 H   0  0  0  1  0  0  0  0  0  0  0  0
   -0.7225   -0.7407    2.2665 O   0  0  0  1  0  0  0  0  0  0  0  0
   -2.5022    0.7448    2.3671 C   0  0  0  1  0  0  0  0  0  0  0  0
   -2.0674    1.6902    2.1180 H   0  0  0  1  0  0  0  0  0  0  0  0
   -3.9152    0.8020    2.1659 O   0  0  0  1  0  0  0  0  0  0  0  0
   -4.3423    0.1272    2.6987 H   0  0  0  1  0  0  0  0  0  0  0  0
   -2.1708    0.3507    3.7825 C   0  0  0  1  0  0  0  0  0  0  0  0
   -2.1179    1.2100    4.4178 H   0  0  0  1  0  0  0  0  0  0  0  0
   -3.1379   -0.5657    4.2992 O   0  0  0  1  0  0  0  0  0  0  0  0
   -3.9951   -0.1358    4.3435 H   0  0  0  1  0  0  0  0  0  0  0  0
   -0.7992   -0.3171    3.6463 C   0  0  0  1  0  0  0  0  0  0  0  0
   -0.7245   -1.1590    4.3024 H   0  0  0  1  0  0  0  0  0  0  0  0
    0.2685    0.6359    3.9511 N   0  0  0  1  0  0  0  0  0  0  0  0
    0.4494    1.8691    3.4039 C   0  0  0  1  0  0  0  0  0  0  0  0
   -0.1946    2.2634    2.6887 H   0  0  0  1  0  0  0  0  0  0  0  0
    1.4919    2.5194    3.8443 N   0  0  0  1  0  0  0  0  0  0  0  0
    2.0491    1.6509    4.7699 C   0  0  0  1  0  0  0  0  0  0  0  0
    3.1679    1.7006    5.5962 C   0  0  0  1  0  0  0  0  0  0  0  0
    4.0669    2.7582    5.6807 N   0  0  0  1  0  0  0  0  0  0  0  0
    4.8264    2.7076    6.2980 H   0  0  0  1  0  0  0  0  0  0  0  0
    3.9411    3.5540    5.1228 H   0  0  0  1  0  0  0  0  0  0  0  0
    3.4466    0.6668    6.3977 N   0  0  0  1  0  0  0  0  0  0  0  0
    2.6293   -0.3974    6.3596 C   0  0  0  1  0  0  0  0  0  0  0  0
    2.8821   -1.1816    6.9941 H   0  0  0  1  0  0  0  0  0  0  0  0
    1.5420   -0.5839    5.6214 N   0  0  0  1  0  0  0  0  0  0  0  0
    1.2940    0.4729    4.8464 C   0  0  0  1  0  0  0  0  0  0  0  0
  1  2  1  0  0  0  0
  1  3  1  0  0  0  0
  1  4  2  0  0  0  0
  1  8  1  0  0  0  0
  5  6  1  0  0  0  0
  5  7  2  0  0  0  0
  5  8  1  0  0  0  0
  5 12  1  0  0  0  0
  9 10  2  0  0  0  0
  9 11  1  0  0  0  0
  9 12  1  0  0  0  0
  9 13  1  0  0  0  0
 13 14  1  0  0  0  0
 14 15  1  0  0  0  0
 14 16  1  0  0  0  0
 14 17  1  0  0  0  0
 17 18  1  0  0  0  0
 17 19  1  0  0  0  0
 17 20  1  0  0  0  0
 19 28  1  0  0  0  0
 20 21  1  0  0  0  0
 20 22  1  0  0  0  0
 20 24  1  0  0  0  0
 22 23  1  0  0  0  0
 24 25  1  0  0  0  0
 24 26  1  0  0  0  0
 24 28  1  0  0  0  0
 26 27  1  0  0  0  0
 28 29  1  0  0  0  0
 28 30  1  0  0  0  0
 30 31  1  0  0  0  0
 30 43  1  0  0  0  0
 31 32  1  0  0  0  0
 31 33  2  0  0  0  0
 33 34  1  0  0  0  0
 34 35  1  0  0  0  0
 34 43  2  0  0  0  0
 35 36  1  0  0  0  0
 35 39  2  0  0  0  0
 36 37  1  0  0  0  0
 36 38  1  0  0  0  0
 39 40  1  0  0  0  0
 40 41  1  0  0  0  0
 40 42  2  0  0  0  0
 42 43  1  0  0  0  0
M  BCL ATM P_TeTeTeTePi O_Te2Te2TeTe O_Te2Te2Te2Te O_Tr2Tr2TrPi P_TeTeTeTePi O_Te2Te2TeTe O_Tr2Tr2TrPi O_Tr2TrTrPi2 P_TeTeTeTePi O_Tr2Tr2TrPi O_Te2Te2Te2Te O_Tr2TrTrPi2 O_Tr2TrTrPi2 C_TeTeTeTe H_S H_S C_TeTeTeTe H_S O_Te2Te2TeTe C_TeTeTeTe H_S O_Te2Te2TeTe H_S C_TeTeTeTe H_S O_Te2Te2TeTe H_S C_TeTeTeTe H_S N_TrTrTrPi2 C_TrTrTrPi H_S N_Tr2TrTrPi C_TrTrTrPi C_TrTrTrPi N_TrTrTrPi2 H_S H_S N_Tr2TrTrPi C_TrTrTrPi H_S N_Tr2TrTrPi C_TrTrTrPi
M  BCL BND ConjugatedSingleBond ConjugatedSingleBond ConjugatedDoubleBond ConjugatedSingleBond ConjugatedSingleBond ConjugatedDoubleBond ConjugatedSingleBond ConjugatedSingleBond ConjugatedDoubleBond ConjugatedSingleBond ConjugatedSingleBond ConjugatedSingleBond NonConjugatedSingleBond NonConjugatedSingleBond NonConjugatedSingleBond NonConjugatedSingleBond NonConjugatedSingleBond NonConjugatedSingleBondInRing NonConjugatedSingleBondInRing NonConjugatedSingleBondInRing NonConjugatedSingleBond NonConjugatedSingleBond NonConjugatedSingleBondInRing NonConjugatedSingleBond NonConjugatedSingleBond NonConjugatedSingleBond NonConjugatedSingleBondInRing NonConjugatedSingleBond NonConjugatedSingleBond NonConjugatedSingleBond AromaticSingleBond AromaticSingleBond NonConjugatedSingleBond AromaticDoubleBond AromaticSingleBond AromaticSingleBond AromaticDoubleBond ConjugatedSingleBond AromaticDoubleBond NonConjugatedSingleBond NonConjugatedSingleBond AromaticSingleBond NonConjugatedSingleBond AromaticDoubleBond AromaticSingleBond
M  BCL CHI   1   S   5   S   9   S  17   R  20   S  24   R  28   S
M  BCL DBI - - - - - - -
M  END
> <ConfClashScore>
0 

> <ConfOneFourInteractionScore>
-0.986326 

> <ConfScore>
0.0183926 

> <ConfScorePBest>
0.0111845 

> <ConfTolerance>
1.25212 

$$$$
ATP.****
  PyMOL2.5          3D                             0

 43 45  0  0  0  0  0  0  0  0999 V2000
   -6.6314    3.9696   -4.3056 P   0  0  0  1  0  0  0  0  0  0  0  0
   -6.2550    4.0225   -5.9010 O   0  0  0  0  0  0  0  0  0  0  0  0
   -8.1557    3.4225   -4.3430 O   0  5  0  1  0  0  0  0  0  0  0  0
   -6.4175    5.2869   -3.6658 O   0  0  0  1  0  0  0  0  0  0  0  0
   -4.1508    2.5748   -3.8221 P   0  0  0  1  0  0  0  0  0  0  0  0
   -3.7337    1.7763   -5.0202 O   0  0  0  0  0  0  0  0  0  0  0  0
   -3.5480    3.9409   -3.7051 O   0  0  0  1  0  0  0  0  0  0  0  0
   -5.7451    2.7535   -3.7410 O   0  0  0  1  0  0  0  0  0  0  0  0
   -2.5005    1.2620   -1.8078 P   0  0  0  1  0  0  0  0  0  0  0  0
   -1.3806    2.2247   -1.9043 O   0  0  0  1  0  0  0  0  0  0  0  0
   -2.1063   -0.0199   -2.7165 O   0  5  0  1  0  0  0  0  0  0  0  0
   -3.8814    1.7410   -2.4776 O   0  0  0  1  0  0  0  0  0  0  0  0
   -2.6864    0.6601   -0.3659 O   0  0  0  1  0  0  0  0  0  0  0  0
   -1.6108   -0.0669    0.2806 C   0  0  0  1  0  0  0  0  0  0  0  0
   -0.7340    0.5447    0.3270 H   0  0  0  1  0  0  0  0  0  0  0  0
   -1.3945   -0.9605   -0.2667 H   0  0  0  1  0  0  0  0  0  0  0  0
   -2.0694   -0.4178    1.6803 C   0  0  0  1  0  0  0  0  0  0  0  0
   -2.8555   -1.1417    1.6276 H   0  0  0  1  0  0  0  0  0  0  0  0
   -0.9595   -0.9239    2.4708 O   0  0  0  1  0  0  0  0  0  0  0  0
   -2.5385    0.8330    2.4223 C   0  0  0  1  0  0  0  0  0  0  0  0
   -1.9971    1.7003    2.1066 H   0  0  0  1  0  0  0  0  0  0  0  0
   -3.9381    1.0524    2.2410 O   0  0  0  1  0  0  0  0  0  0  0  0
   -4.2762    0.4393    1.5842 H   0  0  0  1  0  0  0  0  0  0  0  0
   -2.2185    0.4748    3.8507 C   0  0  0  1  0  0  0  0  0  0  0  0
   -2.1157    1.3512    4.4559 H   0  0  0  1  0  0  0  0  0  0  0  0
   -3.2227   -0.3744    4.4080 O   0  0  0  1  0  0  0  0  0  0  0  0
   -2.8924   -1.2747    4.4524 H   0  0  0  1  0  0  0  0  0  0  0  0
   -0.8952   -0.2562    3.7134 C   0  0  0  1  0  0  0  0  0  0  0  0
   -0.7727   -0.9600    4.5100 H   0  0  0  1  0  0  0  0  0  0  0  0
    0.2173    0.6942    3.7260 N   0  0  0  1  0  0  0  0  0  0  0  0
    1.0974    0.9463    2.7186 C   0  0  0  1  0  0  0  0  0  0  0  0
    1.0953    0.4105    1.8272 H   0  0  0  1  0  0  0  0  0  0  0  0
    1.9440    1.9111    2.9557 N   0  0  0  1  0  0  0  0  0  0  0  0
    1.5941    2.3455    4.2247 C   0  0  0  1  0  0  0  0  0  0  0  0
    2.0819    3.3261    5.0835 C   0  0  0  1  0  0  0  0  0  0  0  0
    3.1368    4.1404    4.7657 N   0  0  0  1  0  0  0  0  0  0  0  0
    3.5798    4.0516    3.8960 H   0  0  0  1  0  0  0  0  0  0  0  0
    3.4484    4.8118    5.4080 H   0  0  0  1  0  0  0  0  0  0  0  0
    1.5122    3.5021    6.2806 N   0  0  0  1  0  0  0  0  0  0  0  0
    0.4864    2.7026    6.6131 C   0  0  0  1  0  0  0  0  0  0  0  0
    0.0736    2.8681    7.5532 H   0  0  0  1  0  0  0  0  0  0  0  0
   -0.0721    1.7294    5.9041 N   0  0  0  1  0  0  0  0  0  0  0  0
    0.5172    1.5948    4.7152 C   0  0  0  1  0  0  0  0  0  0  0  0
  1  2  1  0  0  0  0
  1  3  1  0  0  0  0
  1  4  2  0  0  0  0
  1  8  1  0  0  0  0
  5  6  1  0  0  0  0
  5  7  2  0  0  0  0
  5  8  1  0  0  0  0
  5 12  1  0  0  0  0
  9 10  2  0  0  0  0
  9 11  1  0  0  0  0
  9 12  1  0  0  0  0
  9 13  1  0  0  0  0
 13 14  1  0  0  0  0
 14 15  1  0  0  0  0
 14 16  1  0  0  0  0
 14 17  1  0  0  0  0
 17 18  1  0  0  0  0
 17 19  1  0  0  0  0
 17 20  1  0  0  0  0
 19 28  1  0  0  0  0
 20 21  1  0  0  0  0
 20 22  1  0  0  0  0
 20 24  1  0  0  0  0
 22 23  1  0  0  0  0
 24 25  1  0  0  0  0
 24 26  1  0  0  0  0
 24 28  1  0  0  0  0
 26 27  1  0  0  0  0
 28 29  1  0  0  0  0
 28 30  1  0  0  0  0
 30 31  1  0  0  0  0
 30 43  1  0  0  0  0
 31 32  1  0  0  0  0
 31 33  2  0  0  0  0
 33 34  1  0  0  0  0
 34 35  1  0  0  0  0
 34 43  2  0  0  0  0
 35 36  1  0  0  0  0
 35 39  2  0  0  0  0
 36 37  1  0  0  0  0
 36 38  1  0  0  0  0
 39 40  1  0  0  0  0
 40 41  1  0  0  0  0
 40 42  2  0  0  0  0
 42 43  1  0  0  0  0
M  BCL ATM P_TeTeTeTePi O_Te2Te2TeTe O_Te2Te2Te2Te O_Tr2Tr2TrPi P_TeTeTeTePi O_Te2Te2TeTe O_Tr2Tr2TrPi O_Tr2TrTrPi2 P_TeTeTeTePi O_Tr2Tr2TrPi O_Te2Te2Te2Te O_Tr2TrTrPi2 O_Tr2TrTrPi2 C_TeTeTeTe H_S H_S C_TeTeTeTe H_S O_Te2Te2TeTe C_TeTeTeTe H_S O_Te2Te2TeTe H_S C_TeTeTeTe H_S O_Te2Te2TeTe H_S C_TeTeTeTe H_S N_TrTrTrPi2 C_TrTrTrPi H_S N_Tr2TrTrPi C_TrTrTrPi C_TrTrTrPi N_TrTrTrPi2 H_S H_S N_Tr2TrTrPi C_TrTrTrPi H_S N_Tr2TrTrPi C_TrTrTrPi
M  BCL BND ConjugatedSingleBond ConjugatedSingleBond ConjugatedDoubleBond ConjugatedSingleBond ConjugatedSingleBond ConjugatedDoubleBond ConjugatedSingleBond ConjugatedSingleBond ConjugatedDoubleBond ConjugatedSingleBond ConjugatedSingleBond ConjugatedSingleBond NonConjugatedSingleBond NonConjugatedSingleBond NonConjugatedSingleBond NonConjugatedSingleBond NonConjugatedSingleBond NonConjugatedSingleBondInRing NonConjugatedSingleBondInRing NonConjugatedSingleBondInRing NonConjugatedSingleBond NonConjugatedSingleBond NonConjugatedSingleBondInRing NonConjugatedSingleBond NonConjugatedSingleBond NonConjugatedSingleBond NonConjugatedSingleBondInRing NonConjugatedSingleBond NonConjugatedSingleBond NonConjugatedSingleBond AromaticSingleBond AromaticSingleBond NonConjugatedSingleBond AromaticDoubleBond AromaticSingleBond AromaticSingleBond AromaticDoubleBond ConjugatedSingleBond AromaticDoubleBond NonConjugatedSingleBond NonConjugatedSingleBond AromaticSingleBond NonConjugatedSingleBond AromaticDoubleBond AromaticSingleBond
M  BCL CHI   1   S   5   S   9   S  17   R  20   S  24   R  28   S
M  BCL DBI - - - - - - -
M  END
> <ConfClashScore>
0 

> <ConfOneFourInteractionScore>
-0.981204 

> <ConfScore>
0.0190471 

> <ConfScorePBest>
0.0110815 

> <ConfTolerance>
1.32917 

$$$$
ATP.****
  PyMOL2.5          3D                             0

 43 45  0  0  0  0  0  0  0  0999 V2000
   -3.7545    3.2710   -0.9854 P   0  0  0  1  0  0  0  0  0  0  0  0
   -3.1992    2.2411    0.1636 O   0  0  0  0  0  0  0  0  0  0  0  0
   -3.6128    4.7768   -0.4049 O   0  5  0  1  0  0  0  0  0  0  0  0
   -5.2018    3.0945   -1.2398 O   0  0  0  1  0  0  0  0  0  0  0  0
   -1.6297    2.1936   -2.6084 P   0  0  0  1  0  0  0  0  0  0  0  0
   -2.1108    0.7843   -2.5409 O   0  0  0  0  0  0  0  0  0  0  0  0
   -0.9515    2.6989   -3.8202 O   0  0  0  1  0  0  0  0  0  0  0  0
   -2.8734    3.1628   -2.3252 O   0  0  0  1  0  0  0  0  0  0  0  0
    0.5398    1.6518   -0.7149 P   0  0  0  1  0  0  0  0  0  0  0  0
    1.5922    2.5845   -0.2536 O   0  0  0  1  0  0  0  0  0  0  0  0
    1.0362    0.5181   -1.7603 O   0  5  0  1  0  0  0  0  0  0  0  0
   -0.6664    2.4822   -1.3646 O   0  0  0  1  0  0  0  0  0  0  0  0
   -0.1894    0.8940    0.4556 O   0  0  0  1  0  0  0  0  0  0  0  0
   -1.3507    0.0653    0.1951 C   0  0  0  1  0  0  0  0  0  0  0  0
   -1.0690   -0.7817   -0.3950 H   0  0  0  1  0  0  0  0  0  0  0  0
   -2.0936    0.6324   -0.3258 H   0  0  0  1  0  0  0  0  0  0  0  0
   -1.8943   -0.3938    1.5268 C   0  0  0  1  0  0  0  0  0  0  0  0
   -2.6306   -1.1540    1.3691 H   0  0  0  1  0  0  0  0  0  0  0  0
   -0.8219   -0.8877    2.3747 O   0  0  0  1  0  0  0  0  0  0  0  0
   -2.4917    0.7821    2.2984 C   0  0  0  1  0  0  0  0  0  0  0  0
   -1.9788    1.6949    2.0778 H   0  0  0  1  0  0  0  0  0  0  0  0
   -3.8834    0.9372    2.0168 O   0  0  0  1  0  0  0  0  0  0  0  0
   -4.3758    0.2257    2.4326 H   0  0  0  1  0  0  0  0  0  0  0  0
   -2.2638    0.3542    3.7253 C   0  0  0  1  0  0  0  0  0  0  0  0
   -2.2597    1.1959    4.3859 H   0  0  0  1  0  0  0  0  0  0  0  0
   -3.2585   -0.5811    4.1501 O   0  0  0  1  0  0  0  0  0  0  0  0
   -3.4064   -0.4851    5.0938 H   0  0  0  1  0  0  0  0  0  0  0  0
   -0.8937   -0.2953    3.6546 C   0  0  0  1  0  0  0  0  0  0  0  0
   -0.7930   -1.0393    4.4169 H   0  0  0  1  0  0  0  0  0  0  0  0
    0.1574    0.7105    3.8118 N   0  0  0  1  0  0  0  0  0  0  0  0
    1.0906    1.0739    2.8900 C   0  0  0  1  0  0  0  0  0  0  0  0
    1.1345    0.6497    1.9415 H   0  0  0  1  0  0  0  0  0  0  0  0
    1.9264    1.9949    3.2862 N   0  0  0  1  0  0  0  0  0  0  0  0
    1.5107    2.2765    4.5783 C   0  0  0  1  0  0  0  0  0  0  0  0
    1.9551    3.1415    5.5738 C   0  0  0  1  0  0  0  0  0  0  0  0
    3.0280    3.9782    5.4128 N   0  0  0  1  0  0  0  0  0  0  0  0
    3.2953    4.5778    6.1404 H   0  0  0  1  0  0  0  0  0  0  0  0
    3.5281    3.9770    4.5700 H   0  0  0  1  0  0  0  0  0  0  0  0
    1.3230    3.1772    6.7518 N   0  0  0  1  0  0  0  0  0  0  0  0
    0.2784    2.3533    6.9308 C   0  0  0  1  0  0  0  0  0  0  0  0
   -0.1834    2.4081    7.8611 H   0  0  0  1  0  0  0  0  0  0  0  0
   -0.2446    1.4781    6.0809 N   0  0  0  1  0  0  0  0  0  0  0  0
    0.4069    1.4824    4.9171 C   0  0  0  1  0  0  0  0  0  0  0  0
  1  2  1  0  0  0  0
  1  3  1  0  0  0  0
  1  4  2  0  0  0  0
  1  8  1  0  0  0  0
  5  6  1  0  0  0  0
  5  7  2  0  0  0  0
  5  8  1  0  0  0  0
  5 12  1  0  0  0  0
  9 10  2  0  0  0  0
  9 11  1  0  0  0  0
  9 12  1  0  0  0  0
  9 13  1  0  0  0  0
 13 14  1  0  0  0  0
 14 15  1  0  0  0  0
 14 16  1  0  0  0  0
 14 17  1  0  0  0  0
 17 18  1  0  0  0  0
 17 19  1  0  0  0  0
 17 20  1  0  0  0  0
 19 28  1  0  0  0  0
 20 21  1  0  0  0  0
 20 22  1  0  0  0  0
 20 24  1  0  0  0  0
 22 23  1  0  0  0  0
 24 25  1  0  0  0  0
 24 26  1  0  0  0  0
 24 28  1  0  0  0  0
 26 27  1  0  0  0  0
 28 29  1  0  0  0  0
 28 30  1  0  0  0  0
 30 31  1  0  0  0  0
 30 43  1  0  0  0  0
 31 32  1  0  0  0  0
 31 33  2  0  0  0  0
 33 34  1  0  0  0  0
 34 35  1  0  0  0  0
 34 43  2  0  0  0  0
 35 36  1  0  0  0  0
 35 39  2  0  0  0  0
 36 37  1  0  0  0  0
 36 38  1  0  0  0  0
 39 40  1  0  0  0  0
 40 41  1  0  0  0  0
 40 42  2  0  0  0  0
 42 43  1  0  0  0  0
M  BCL ATM P_TeTeTeTePi O_Te2Te2TeTe O_Te2Te2Te2Te O_Tr2Tr2TrPi P_TeTeTeTePi O_Te2Te2TeTe O_Tr2Tr2TrPi O_Tr2TrTrPi2 P_TeTeTeTePi O_Tr2Tr2TrPi O_Te2Te2Te2Te O_Tr2TrTrPi2 O_Tr2TrTrPi2 C_TeTeTeTe H_S H_S C_TeTeTeTe H_S O_Te2Te2TeTe C_TeTeTeTe H_S O_Te2Te2TeTe H_S C_TeTeTeTe H_S O_Te2Te2TeTe H_S C_TeTeTeTe H_S N_TrTrTrPi2 C_TrTrTrPi H_S N_Tr2TrTrPi C_TrTrTrPi C_TrTrTrPi N_TrTrTrPi2 H_S H_S N_Tr2TrTrPi C_TrTrTrPi H_S N_Tr2TrTrPi C_TrTrTrPi
M  BCL BND ConjugatedSingleBond ConjugatedSingleBond ConjugatedDoubleBond ConjugatedSingleBond ConjugatedSingleBond ConjugatedDoubleBond ConjugatedSingleBond ConjugatedSingleBond ConjugatedDoubleBond ConjugatedSingleBond ConjugatedSingleBond ConjugatedSingleBond NonConjugatedSingleBond NonConjugatedSingleBond NonConjugatedSingleBond NonConjugatedSingleBond NonConjugatedSingleBond NonConjugatedSingleBondInRing NonConjugatedSingleBondInRing NonConjugatedSingleBondInRing NonConjugatedSingleBond NonConjugatedSingleBond NonConjugatedSingleBondInRing NonConjugatedSingleBond NonConjugatedSingleBond NonConjugatedSingleBond NonConjugatedSingleBondInRing NonConjugatedSingleBond NonConjugatedSingleBond NonConjugatedSingleBond AromaticSingleBond AromaticSingleBond NonConjugatedSingleBond AromaticDoubleBond AromaticSingleBond AromaticSingleBond AromaticDoubleBond ConjugatedSingleBond AromaticDoubleBond NonConjugatedSingleBond NonConjugatedSingleBond AromaticSingleBond NonConjugatedSingleBond AromaticDoubleBond AromaticSingleBond
M  BCL CHI   1   S   5   S   9   S  17   R  20   S  24   R  28   S
M  BCL DBI - - - - - - -
M  END
> <ConfClashScore>
0 

> <ConfOneFourInteractionScore>
-0.993344 

> <ConfScore>
0.0198911 

> <ConfScorePBest>
0.0109785 

> <ConfTolerance>
1.40306 

$$$$
ATP.****
  PyMOL2.5          3D                             0

 43 45  0  0  0  0  0  0  0  0999 V2000
   -3.3895    5.5676   -4.1327 P   0  0  0  1  0  0  0  0  0  0  0  0
   -3.7202    6.2548   -2.6808 O   0  0  0  0  0  0  0  0  0  0  0  0
   -1.8956    6.0110   -4.5755 O   0  5  0  1  0  0  0  0  0  0  0  0
   -4.2444    5.9247   -5.2869 O   0  0  0  1  0  0  0  0  0  0  0  0
   -3.9286    3.0337   -2.7498 P   0  0  0  1  0  0  0  0  0  0  0  0
   -5.4427    3.2148   -2.6753 O   0  0  0  0  0  0  0  0  0  0  0  0
   -3.5012    1.6394   -3.0607 O   0  0  0  1  0  0  0  0  0  0  0  0
   -3.3344    3.9791   -3.8985 O   0  0  0  1  0  0  0  0  0  0  0  0
   -1.9104    3.1994   -0.7749 P   0  0  0  1  0  0  0  0  0  0  0  0
   -1.5646    4.2840    0.1708 O   0  0  0  1  0  0  0  0  0  0  0  0
   -0.8976    3.0469   -2.0301 O   0  5  0  1  0  0  0  0  0  0  0  0
   -3.3848    3.5654   -1.3220 O   0  0  0  1  0  0  0  0  0  0  0  0
   -2.1799    1.8191   -0.0690 O   0  0  0  1  0  0  0  0  0  0  0  0
   -1.1366    1.1531    0.6806 C   0  0  0  1  0  0  0  0  0  0  0  0
   -0.7025    1.8327    1.3837 H   0  0  0  1  0  0  0  0  0  0  0  0
   -0.3793    0.7970    0.0137 H   0  0  0  1  0  0  0  0  0  0  0  0
   -1.7677   -0.0104    1.4113 C   0  0  0  1  0  0  0  0  0  0  0  0
   -2.2028   -0.6836    0.7025 H   0  0  0  1  0  0  0  0  0  0  0  0
   -0.7770   -0.6951    2.2004 O   0  0  0  1  0  0  0  0  0  0  0  0
   -2.8278    0.4911    2.3724 C   0  0  0  1  0  0  0  0  0  0  0  0
   -3.1886    1.4549    2.0795 H   0  0  0  1  0  0  0  0  0  0  0  0
   -3.9221   -0.4231    2.4539 O   0  0  0  1  0  0  0  0  0  0  0  0
   -3.5862   -1.3201    2.5193 H   0  0  0  1  0  0  0  0  0  0  0  0
   -2.0774    0.5654    3.6915 C   0  0  0  1  0  0  0  0  0  0  0  0
   -1.5311    1.4814    3.7781 H   0  0  0  1  0  0  0  0  0  0  0  0
   -2.9646    0.4325    4.8030 O   0  0  0  1  0  0  0  0  0  0  0  0
   -3.4159    1.2662    4.9543 H   0  0  0  1  0  0  0  0  0  0  0  0
   -1.1433   -0.6281    3.5832 C   0  0  0  1  0  0  0  0  0  0  0  0
   -1.6446   -1.5249    3.8821 H   0  0  0  1  0  0  0  0  0  0  0  0
    0.0407   -0.4295    4.4177 N   0  0  0  1  0  0  0  0  0  0  0  0
    0.6379   -1.3424    5.2317 C   0  0  0  1  0  0  0  0  0  0  0  0
    0.2455   -2.2927    5.3889 H   0  0  0  1  0  0  0  0  0  0  0  0
    1.7402   -0.9355    5.8002 N   0  0  0  1  0  0  0  0  0  0  0  0
    1.8967    0.3548    5.3183 C   0  0  0  1  0  0  0  0  0  0  0  0
    2.8403    1.3579    5.5193 C   0  0  0  1  0  0  0  0  0  0  0  0
    3.9594    1.2655    6.3397 N   0  0  0  1  0  0  0  0  0  0  0  0
    4.1229    0.4482    6.8552 H   0  0  0  1  0  0  0  0  0  0  0  0
    4.5845    2.0176    6.4024 H   0  0  0  1  0  0  0  0  0  0  0  0
    2.7045    2.5313    4.8921 N   0  0  0  1  0  0  0  0  0  0  0  0
    1.6385    2.6984    4.0935 C   0  0  0  1  0  0  0  0  0  0  0  0
    1.5665    3.6254    3.6275 H   0  0  0  1  0  0  0  0  0  0  0  0
    0.6639    1.8403    3.8182 N   0  0  0  1  0  0  0  0  0  0  0  0
    0.8433    0.6815    4.4538 C   0  0  0  1  0  0  0  0  0  0  0  0
  1  2  1  0  0  0  0
  1  3  1  0  0  0  0
  1  4  2  0  0  0  0
  1  8  1  0  0  0  0
  5  6  1  0  0  0  0
  5  7  2  0  0  0  0
  5  8  1  0  0  0  0
  5 12  1  0  0  0  0
  9 10  2  0  0  0  0
  9 11  1  0  0  0  0
  9 12  1  0  0  0  0
  9 13  1  0  0  0  0
 13 14  1  0  0  0  0
 14 15  1  0  0  0  0
 14 16  1  0  0  0  0
 14 17  1  0  0  0  0
 17 18  1  0  0  0  0
 17 19  1  0  0  0  0
 17 20  1  0  0  0  0
 19 28  1  0  0  0  0
 20 21  1  0  0  0  0
 20 22  1  0  0  0  0
 20 24  1  0  0  0  0
 22 23  1  0  0  0  0
 24 25  1  0  0  0  0
 24 26  1  0  0  0  0
 24 28  1  0  0  0  0
 26 27  1  0  0  0  0
 28 29  1  0  0  0  0
 28 30  1  0  0  0  0
 30 31  1  0  0  0  0
 30 43  1  0  0  0  0
 31 32  1  0  0  0  0
 31 33  2  0  0  0  0
 33 34  1  0  0  0  0
 34 35  1  0  0  0  0
 34 43  2  0  0  0  0
 35 36  1  0  0  0  0
 35 39  2  0  0  0  0
 36 37  1  0  0  0  0
 36 38  1  0  0  0  0
 39 40  1  0  0  0  0
 40 41  1  0  0  0  0
 40 42  2  0  0  0  0
 42 43  1  0  0  0  0
M  BCL ATM P_TeTeTeTePi O_Te2Te2TeTe O_Te2Te2Te2Te O_Tr2Tr2TrPi P_TeTeTeTePi O_Te2Te2TeTe O_Tr2Tr2TrPi O_Tr2TrTrPi2 P_TeTeTeTePi O_Tr2Tr2TrPi O_Te2Te2Te2Te O_Tr2TrTrPi2 O_Tr2TrTrPi2 C_TeTeTeTe H_S H_S C_TeTeTeTe H_S O_Te2Te2TeTe C_TeTeTeTe H_S O_Te2Te2TeTe H_S C_TeTeTeTe H_S O_Te2Te2TeTe H_S C_TeTeTeTe H_S N_TrTrTrPi2 C_TrTrTrPi H_S N_Tr2TrTrPi C_TrTrTrPi C_TrTrTrPi N_TrTrTrPi2 H_S H_S N_Tr2TrTrPi C_TrTrTrPi H_S N_Tr2TrTrPi C_TrTrTrPi
M  BCL BND ConjugatedSingleBond ConjugatedSingleBond ConjugatedDoubleBond ConjugatedSingleBond ConjugatedSingleBond ConjugatedDoubleBond ConjugatedSingleBond ConjugatedSingleBond ConjugatedDoubleBond ConjugatedSingleBond ConjugatedSingleBond ConjugatedSingleBond NonConjugatedSingleBond NonConjugatedSingleBond NonConjugatedSingleBond NonConjugatedSingleBond NonConjugatedSingleBond NonConjugatedSingleBondInRing NonConjugatedSingleBondInRing NonConjugatedSingleBondInRing NonConjugatedSingleBond NonConjugatedSingleBond NonConjugatedSingleBondInRing NonConjugatedSingleBond NonConjugatedSingleBond NonConjugatedSingleBond NonConjugatedSingleBondInRing NonConjugatedSingleBond NonConjugatedSingleBond NonConjugatedSingleBond AromaticSingleBond AromaticSingleBond NonConjugatedSingleBond AromaticDoubleBond AromaticSingleBond AromaticSingleBond AromaticDoubleBond ConjugatedSingleBond AromaticDoubleBond NonConjugatedSingleBond NonConjugatedSingleBond AromaticSingleBond NonConjugatedSingleBond AromaticDoubleBond AromaticSingleBond
M  BCL CHI   1   S   5   S   9   S  17   R  20   S  24   R  28   S
M  BCL DBI - - - - - - -
M  END
> <ConfClashScore>
0 

> <ConfOneFourInteractionScore>
-0.974492 

> <ConfScore>
0.0204442 

> <ConfScorePBest>
0.0108755 

> <ConfTolerance>
1.26249 

$$$$
ATP.****
  PyMOL2.5          3D                             0

 43 45  0  0  0  0  0  0  0  0999 V2000
    4.6989    1.6176    1.2192 P   0  0  0  1  0  0  0  0  0  0  0  0
    4.8983    2.3521    2.6719 O   0  0  0  0  0  0  0  0  0  0  0  0
    4.6573    0.0428    1.5969 O   0  5  0  1  0  0  0  0  0  0  0  0
    5.7379    1.8313    0.1870 O   0  0  0  1  0  0  0  0  0  0  0  0
    2.7674    3.3566   -0.0564 P   0  0  0  1  0  0  0  0  0  0  0  0
    3.0264    4.5316    0.8050 O   0  0  0  0  0  0  0  0  0  0  0  0
    3.3998    3.2946   -1.3918 O   0  0  0  1  0  0  0  0  0  0  0  0
    3.2254    2.0110    0.7122 O   0  0  0  1  0  0  0  0  0  0  0  0
    0.2433    1.9790   -0.6523 P   0  0  0  1  0  0  0  0  0  0  0  0
    0.9337    0.9522   -1.4644 O   0  0  0  1  0  0  0  0  0  0  0  0
   -0.8772    2.7229   -1.5552 O   0  5  0  1  0  0  0  0  0  0  0  0
    1.1736    3.1928   -0.1751 O   0  0  0  1  0  0  0  0  0  0  0  0
   -0.6108    1.3504    0.5103 O   0  0  0  1  0  0  0  0  0  0  0  0
   -1.4561    0.2006    0.2716 C   0  0  0  1  0  0  0  0  0  0  0  0
   -0.8926   -0.5505   -0.2415 H   0  0  0  1  0  0  0  0  0  0  0  0
   -2.2900    0.4952   -0.3307 H   0  0  0  1  0  0  0  0  0  0  0  0
   -1.9626   -0.3643    1.5821 C   0  0  0  1  0  0  0  0  0  0  0  0
   -2.6933   -1.1210    1.3862 H   0  0  0  1  0  0  0  0  0  0  0  0
   -0.8700   -0.9138    2.3412 O   0  0  0  1  0  0  0  0  0  0  0  0
   -2.5466    0.7034    2.4013 C   0  0  0  1  0  0  0  0  0  0  0  0
   -2.1241    1.6507    2.1389 H   0  0  0  1  0  0  0  0  0  0  0  0
   -3.9636    0.7487    2.2276 O   0  0  0  1  0  0  0  0  0  0  0  0
   -4.2226    0.1277    1.5429 H   0  0  0  1  0  0  0  0  0  0  0  0
   -2.1970    0.3435    3.8378 C   0  0  0  1  0  0  0  0  0  0  0  0
   -2.1226    1.2150    4.4541 H   0  0  0  1  0  0  0  0  0  0  0  0
   -3.1520   -0.5578    4.3998 O   0  0  0  1  0  0  0  0  0  0  0  0
   -3.5532   -0.1573    5.1746 H   0  0  0  1  0  0  0  0  0  0  0  0
   -0.8355   -0.3278    3.6475 C   0  0  0  1  0  0  0  0  0  0  0  0
   -0.6850   -1.0827    4.3907 H   0  0  0  1  0  0  0  0  0  0  0  0
    0.2395    0.6647    3.7335 N   0  0  0  1  0  0  0  0  0  0  0  0
    0.3279    1.8444    3.0603 C   0  0  0  1  0  0  0  0  0  0  0  0
   -0.3649    2.1300    2.3392 H   0  0  0  1  0  0  0  0  0  0  0  0
    1.3478    2.5903    3.3879 N   0  0  0  1  0  0  0  0  0  0  0  0
    1.9895    1.8502    4.3687 C   0  0  0  1  0  0  0  0  0  0  0  0
    3.1349    2.0421    5.1356 C   0  0  0  1  0  0  0  0  0  0  0  0
    3.9252    3.1564    5.0327 N   0  0  0  1  0  0  0  0  0  0  0  0
    3.6630    3.8900    4.4381 H   0  0  0  1  0  0  0  0  0  0  0  0
    4.7528    3.2200    5.5537 H   0  0  0  1  0  0  0  0  0  0  0  0
    3.5034    1.1105    6.0217 N   0  0  0  1  0  0  0  0  0  0  0  0
    2.7476    0.0059    6.1246 C   0  0  0  1  0  0  0  0  0  0  0  0
    3.0695   -0.6960    6.8213 H   0  0  0  1  0  0  0  0  0  0  0  0
    1.6449   -0.3115    5.4573 N   0  0  0  1  0  0  0  0  0  0  0  0
    1.3067    0.6473    4.5940 C   0  0  0  1  0  0  0  0  0  0  0  0
  1  2  1  0  0  0  0
  1  3  1  0  0  0  0
  1  4  2  0  0  0  0
  1  8  1  0  0  0  0
  5  6  1  0  0  0  0
  5  7  2  0  0  0  0
  5  8  1  0  0  0  0
  5 12  1  0  0  0  0
  9 10  2  0  0  0  0
  9 11  1  0  0  0  0
  9 12  1  0  0  0  0
  9 13  1  0  0  0  0
 13 14  1  0  0  0  0
 14 15  1  0  0  0  0
 14 16  1  0  0  0  0
 14 17  1  0  0  0  0
 17 18  1  0  0  0  0
 17 19  1  0  0  0  0
 17 20  1  0  0  0  0
 19 28  1  0  0  0  0
 20 21  1  0  0  0  0
 20 22  1  0  0  0  0
 20 24  1  0  0  0  0
 22 23  1  0  0  0  0
 24 25  1  0  0  0  0
 24 26  1  0  0  0  0
 24 28  1  0  0  0  0
 26 27  1  0  0  0  0
 28 29  1  0  0  0  0
 28 30  1  0  0  0  0
 30 31  1  0  0  0  0
 30 43  1  0  0  0  0
 31 32  1  0  0  0  0
 31 33  2  0  0  0  0
 33 34  1  0  0  0  0
 34 35  1  0  0  0  0
 34 43  2  0  0  0  0
 35 36  1  0  0  0  0
 35 39  2  0  0  0  0
 36 37  1  0  0  0  0
 36 38  1  0  0  0  0
 39 40  1  0  0  0  0
 40 41  1  0  0  0  0
 40 42  2  0  0  0  0
 42 43  1  0  0  0  0
M  BCL ATM P_TeTeTeTePi O_Te2Te2TeTe O_Te2Te2Te2Te O_Tr2Tr2TrPi P_TeTeTeTePi O_Te2Te2TeTe O_Tr2Tr2TrPi O_Tr2TrTrPi2 P_TeTeTeTePi O_Tr2Tr2TrPi O_Te2Te2Te2Te O_Tr2TrTrPi2 O_Tr2TrTrPi2 C_TeTeTeTe H_S H_S C_TeTeTeTe H_S O_Te2Te2TeTe C_TeTeTeTe H_S O_Te2Te2TeTe H_S C_TeTeTeTe H_S O_Te2Te2TeTe H_S C_TeTeTeTe H_S N_TrTrTrPi2 C_TrTrTrPi H_S N_Tr2TrTrPi C_TrTrTrPi C_TrTrTrPi N_TrTrTrPi2 H_S H_S N_Tr2TrTrPi C_TrTrTrPi H_S N_Tr2TrTrPi C_TrTrTrPi
M  BCL BND ConjugatedSingleBond ConjugatedSingleBond ConjugatedDoubleBond ConjugatedSingleBond ConjugatedSingleBond ConjugatedDoubleBond ConjugatedSingleBond ConjugatedSingleBond ConjugatedDoubleBond ConjugatedSingleBond ConjugatedSingleBond ConjugatedSingleBond NonConjugatedSingleBond NonConjugatedSingleBond NonConjugatedSingleBond NonConjugatedSingleBond NonConjugatedSingleBond NonConjugatedSingleBondInRing NonConjugatedSingleBondInRing NonConjugatedSingleBondInRing NonConjugatedSingleBond NonConjugatedSingleBond NonConjugatedSingleBondInRing NonConjugatedSingleBond NonConjugatedSingleBond NonConjugatedSingleBond NonConjugatedSingleBondInRing NonConjugatedSingleBond NonConjugatedSingleBond NonConjugatedSingleBond AromaticSingleBond AromaticSingleBond NonConjugatedSingleBond AromaticDoubleBond AromaticSingleBond AromaticSingleBond AromaticDoubleBond ConjugatedSingleBond AromaticDoubleBond NonConjugatedSingleBond NonConjugatedSingleBond AromaticSingleBond NonConjugatedSingleBond AromaticDoubleBond AromaticSingleBond
M  BCL CHI   1   S   5   S   9   S  17   R  20   S  24   R  28   S
M  BCL DBI - - - - - - -
M  END
> <ConfClashScore>
0 

> <ConfOneFourInteractionScore>
-0.990596 

> <ConfScore>
0.0227637 

> <ConfScorePBest>
0.0107725 

> <ConfTolerance>
1.28314 

$$$$
ATP.****
  PyMOL2.5          3D                             0

 43 45  0  0  0  0  0  0  0  0999 V2000
   -3.0509    4.9963   -1.0427 P   0  0  0  1  0  0  0  0  0  0  0  0
   -3.2286    3.9225    0.1842 O   0  0  0  0  0  0  0  0  0  0  0  0
   -4.3511    5.9516   -1.1888 O   0  5  0  1  0  0  0  0  0  0  0  0
   -2.7692    4.2365   -2.2812 O   0  0  0  1  0  0  0  0  0  0  0  0
   -0.2708    5.5249   -0.4671 P   0  0  0  1  0  0  0  0  0  0  0  0
    0.3897    5.2499   -1.7565 O   0  0  0  0  0  0  0  0  0  0  0  0
    0.3503    6.4816    0.4658 O   0  0  0  1  0  0  0  0  0  0  0  0
   -1.7985    5.9530   -0.7276 O   0  0  0  1  0  0  0  0  0  0  0  0
    0.4917    3.1335    0.9207 P   0  0  0  1  0  0  0  0  0  0  0  0
    1.3202    3.7874    1.9583 O   0  0  0  1  0  0  0  0  0  0  0  0
    1.3321    2.6682   -0.3838 O   0  5  0  1  0  0  0  0  0  0  0  0
   -0.6130    4.1556    0.3233 O   0  0  0  1  0  0  0  0  0  0  0  0
   -0.3883    1.9642    1.5217 O   0  0  0  1  0  0  0  0  0  0  0  0
   -1.0336    1.0544    0.6174 C   0  0  0  1  0  0  0  0  0  0  0  0
   -0.3071    0.6561   -0.0597 H   0  0  0  1  0  0  0  0  0  0  0  0
   -1.7855    1.5794    0.0663 H   0  0  0  1  0  0  0  0  0  0  0  0
   -1.6697   -0.0670    1.3718 C   0  0  0  1  0  0  0  0  0  0  0  0
   -2.0643   -0.7832    0.6816 H   0  0  0  1  0  0  0  0  0  0  0  0
   -0.7079   -0.6909    2.2411 O   0  0  0  1  0  0  0  0  0  0  0  0
   -2.7967    0.4735    2.2861 C   0  0  0  1  0  0  0  0  0  0  0  0
   -3.1206    1.4421    1.9669 H   0  0  0  1  0  0  0  0  0  0  0  0
   -3.9121   -0.4184    2.3096 O   0  0  0  1  0  0  0  0  0  0  0  0
   -3.8853   -0.9439    3.1126 H   0  0  0  1  0  0  0  0  0  0  0  0
   -2.1231    0.5426    3.6453 C   0  0  0  1  0  0  0  0  0  0  0  0
   -1.6281    1.4811    3.7836 H   0  0  0  1  0  0  0  0  0  0  0  0
   -3.0663    0.3411    4.6988 O   0  0  0  1  0  0  0  0  0  0  0  0
   -3.4880    1.1759    4.9153 H   0  0  0  1  0  0  0  0  0  0  0  0
   -1.1120   -0.6129    3.5777 C   0  0  0  1  0  0  0  0  0  0  0  0
   -1.5736   -1.5294    3.8809 H   0  0  0  1  0  0  0  0  0  0  0  0
    0.0363   -0.3354    4.4410 N   0  0  0  1  0  0  0  0  0  0  0  0
    0.2280   -0.7687    5.7171 C   0  0  0  1  0  0  0  0  0  0  0  0
   -0.4593   -1.3724    6.2118 H   0  0  0  1  0  0  0  0  0  0  0  0
    1.3395   -0.3695    6.2731 N   0  0  0  1  0  0  0  0  0  0  0  0
    1.9449    0.3869    5.2817 C   0  0  0  1  0  0  0  0  0  0  0  0
    3.1328    1.1075    5.2001 C   0  0  0  1  0  0  0  0  0  0  0  0
    4.0763    1.2325    6.2141 N   0  0  0  1  0  0  0  0  0  0  0  0
    3.8987    0.8497    7.0986 H   0  0  0  1  0  0  0  0  0  0  0  0
    4.9188    1.7034    6.0442 H   0  0  0  1  0  0  0  0  0  0  0  0
    3.4401    1.7537    4.0702 N   0  0  0  1  0  0  0  0  0  0  0  0
    2.5682    1.6897    3.0515 C   0  0  0  1  0  0  0  0  0  0  0  0
    2.8413    2.2084    2.1925 H   0  0  0  1  0  0  0  0  0  0  0  0
    1.4046    1.0537    2.9926 N   0  0  0  1  0  0  0  0  0  0  0  0
    1.1421    0.4145    4.1334 C   0  0  0  1  0  0  0  0  0  0  0  0
  1  2  1  0  0  0  0
  1  3  1  0  0  0  0
  1  4  2  0  0  0  0
  1  8  1  0  0  0  0
  5  6  1  0  0  0  0
  5  7  2  0  0  0  0
  5  8  1  0  0  0  0
  5 12  1  0  0  0  0
  9 10  2  0  0  0  0
  9 11  1  0  0  0  0
  9 12  1  0  0  0  0
  9 13  1  0  0  0  0
 13 14  1  0  0  0  0
 14 15  1  0  0  0  0
 14 16  1  0  0  0  0
 14 17  1  0  0  0  0
 17 18  1  0  0  0  0
 17 19  1  0  0  0  0
 17 20  1  0  0  0  0
 19 28  1  0  0  0  0
 20 21  1  0  0  0  0
 20 22  1  0  0  0  0
 20 24  1  0  0  0  0
 22 23  1  0  0  0  0
 24 25  1  0  0  0  0
 24 26  1  0  0  0  0
 24 28  1  0  0  0  0
 26 27  1  0  0  0  0
 28 29  1  0  0  0  0
 28 30  1  0  0  0  0
 30 31  1  0  0  0  0
 30 43  1  0  0  0  0
 31 32  1  0  0  0  0
 31 33  2  0  0  0  0
 33 34  1  0  0  0  0
 34 35  1  0  0  0  0
 34 43  2  0  0  0  0
 35 36  1  0  0  0  0
 35 39  2  0  0  0  0
 36 37  1  0  0  0  0
 36 38  1  0  0  0  0
 39 40  1  0  0  0  0
 40 41  1  0  0  0  0
 40 42  2  0  0  0  0
 42 43  1  0  0  0  0
M  BCL ATM P_TeTeTeTePi O_Te2Te2TeTe O_Te2Te2Te2Te O_Tr2Tr2TrPi P_TeTeTeTePi O_Te2Te2TeTe O_Tr2Tr2TrPi O_Tr2TrTrPi2 P_TeTeTeTePi O_Tr2Tr2TrPi O_Te2Te2Te2Te O_Tr2TrTrPi2 O_Tr2TrTrPi2 C_TeTeTeTe H_S H_S C_TeTeTeTe H_S O_Te2Te2TeTe C_TeTeTeTe H_S O_Te2Te2TeTe H_S C_TeTeTeTe H_S O_Te2Te2TeTe H_S C_TeTeTeTe H_S N_TrTrTrPi2 C_TrTrTrPi H_S N_Tr2TrTrPi C_TrTrTrPi C_TrTrTrPi N_TrTrTrPi2 H_S H_S N_Tr2TrTrPi C_TrTrTrPi H_S N_Tr2TrTrPi C_TrTrTrPi
M  BCL BND ConjugatedSingleBond ConjugatedSingleBond ConjugatedDoubleBond ConjugatedSingleBond ConjugatedSingleBond ConjugatedDoubleBond ConjugatedSingleBond ConjugatedSingleBond ConjugatedDoubleBond ConjugatedSingleBond ConjugatedSingleBond ConjugatedSingleBond NonConjugatedSingleBond NonConjugatedSingleBond NonConjugatedSingleBond NonConjugatedSingleBond NonConjugatedSingleBond NonConjugatedSingleBondInRing NonConjugatedSingleBondInRing NonConjugatedSingleBondInRing NonConjugatedSingleBond NonConjugatedSingleBond NonConjugatedSingleBondInRing NonConjugatedSingleBond NonConjugatedSingleBond NonConjugatedSingleBond NonConjugatedSingleBondInRing NonConjugatedSingleBond NonConjugatedSingleBond NonConjugatedSingleBond AromaticSingleBond AromaticSingleBond NonConjugatedSingleBond AromaticDoubleBond AromaticSingleBond AromaticSingleBond AromaticDoubleBond ConjugatedSingleBond AromaticDoubleBond NonConjugatedSingleBond NonConjugatedSingleBond AromaticSingleBond NonConjugatedSingleBond AromaticDoubleBond AromaticSingleBond
M  BCL CHI   1   S   5   S   9   S  17   R  20   S  24   R  28   S
M  BCL DBI - - - - - - -
M  END
> <ConfClashScore>
0 

> <ConfOneFourInteractionScore>
-0.983395 

> <ConfScore>
0.0259024 

> <ConfScorePBest>
0.0106695 

> <ConfTolerance>
1.41879 

$$$$
ATP.****
  PyMOL2.5          3D                             0

 43 45  0  0  0  0  0  0  0  0999 V2000
    1.8555    3.3489   -3.3957 P   0  0  0  1  0  0  0  0  0  0  0  0
    2.6554    4.7369   -3.7467 O   0  0  0  0  0  0  0  0  0  0  0  0
    2.0794    2.4228   -4.7059 O   0  5  0  1  0  0  0  0  0  0  0  0
    0.4067    3.6295   -3.2834 O   0  0  0  1  0  0  0  0  0  0  0  0
    2.9191    3.0746   -0.6724 P   0  0  0  1  0  0  0  0  0  0  0  0
    4.1703    2.3123   -0.3676 O   0  0  0  0  0  0  0  0  0  0  0  0
    2.8827    4.5404   -0.5252 O   0  0  0  1  0  0  0  0  0  0  0  0
    2.5077    2.5858   -2.1414 O   0  0  0  1  0  0  0  0  0  0  0  0
    0.3871    3.0725    0.9051 P   0  0  0  1  0  0  0  0  0  0  0  0
   -0.4640    3.8658   -0.0096 O   0  0  0  1  0  0  0  0  0  0  0  0
    0.7842    3.8541    2.2674 O   0  5  0  1  0  0  0  0  0  0  0  0
    1.7531    2.5415    0.2684 O   0  0  0  1  0  0  0  0  0  0  0  0
   -0.4349    1.8537    1.4663 O   0  0  0  1  0  0  0  0  0  0  0  0
   -0.9360    0.8257    0.5798 C   0  0  0  1  0  0  0  0  0  0  0  0
   -0.1224    0.3644    0.0601 H   0  0  0  1  0  0  0  0  0  0  0  0
   -1.6149    1.2538   -0.1278 H   0  0  0  1  0  0  0  0  0  0  0  0
   -1.6542   -0.2005    1.4265 C   0  0  0  1  0  0  0  0  0  0  0  0
   -2.0764   -0.9532    0.7939 H   0  0  0  1  0  0  0  0  0  0  0  0
   -0.7310   -0.8027    2.3689 O   0  0  0  1  0  0  0  0  0  0  0  0
   -2.7575    0.4751    2.2499 C   0  0  0  1  0  0  0  0  0  0  0  0
   -3.0339    1.4161    1.8222 H   0  0  0  1  0  0  0  0  0  0  0  0
   -3.9107   -0.3622    2.3458 O   0  0  0  1  0  0  0  0  0  0  0  0
   -4.6732    0.1689    2.5872 H   0  0  0  1  0  0  0  0  0  0  0  0
   -2.1008    0.6665    3.6231 C   0  0  0  1  0  0  0  0  0  0  0  0
   -1.5893    1.6045    3.6813 H   0  0  0  1  0  0  0  0  0  0  0  0
   -3.0643    0.5830    4.6742 O   0  0  0  1  0  0  0  0  0  0  0  0
   -2.9834   -0.2652    5.1165 H   0  0  0  1  0  0  0  0  0  0  0  0
   -1.1114   -0.5139    3.6768 C   0  0  0  1  0  0  0  0  0  0  0  0
   -1.5847   -1.3671    4.1161 H   0  0  0  1  0  0  0  0  0  0  0  0
    0.0618   -0.1455    4.4677 N   0  0  0  1  0  0  0  0  0  0  0  0
    1.3595   -0.1378    4.0569 C   0  0  0  1  0  0  0  0  0  0  0  0
    1.6419   -0.4008    3.0911 H   0  0  0  1  0  0  0  0  0  0  0  0
    2.2228    0.2246    4.9663 N   0  0  0  1  0  0  0  0  0  0  0  0
    1.4343    0.4896    6.0752 C   0  0  0  1  0  0  0  0  0  0  0  0
    1.6986    0.9043    7.3772 C   0  0  0  1  0  0  0  0  0  0  0  0
    2.9576    1.1762    7.9014 N   0  0  0  1  0  0  0  0  0  0  0  0
    3.7554    1.0647    7.3432 H   0  0  0  1  0  0  0  0  0  0  0  0
    3.0471    1.4794    8.8290 H   0  0  0  1  0  0  0  0  0  0  0  0
    0.6887    1.0705    8.2380 N   0  0  0  1  0  0  0  0  0  0  0  0
   -0.5557    0.8124    7.8057 C   0  0  0  1  0  0  0  0  0  0  0  0
   -1.3125    0.9496    8.5058 H   0  0  0  1  0  0  0  0  0  0  0  0
   -0.9507    0.4058    6.6055 N   0  0  0  1  0  0  0  0  0  0  0  0
    0.0840    0.2635    5.7760 C   0  0  0  1  0  0  0  0  0  0  0  0
  1  2  1  0  0  0  0
  1  3  1  0  0  0  0
  1  4  2  0  0  0  0
  1  8  1  0  0  0  0
  5  6  1  0  0  0  0
  5  7  2  0  0  0  0
  5  8  1  0  0  0  0
  5 12  1  0  0  0  0
  9 10  2  0  0  0  0
  9 11  1  0  0  0  0
  9 12  1  0  0  0  0
  9 13  1  0  0  0  0
 13 14  1  0  0  0  0
 14 15  1  0  0  0  0
 14 16  1  0  0  0  0
 14 17  1  0  0  0  0
 17 18  1  0  0  0  0
 17 19  1  0  0  0  0
 17 20  1  0  0  0  0
 19 28  1  0  0  0  0
 20 21  1  0  0  0  0
 20 22  1  0  0  0  0
 20 24  1  0  0  0  0
 22 23  1  0  0  0  0
 24 25  1  0  0  0  0
 24 26  1  0  0  0  0
 24 28  1  0  0  0  0
 26 27  1  0  0  0  0
 28 29  1  0  0  0  0
 28 30  1  0  0  0  0
 30 31  1  0  0  0  0
 30 43  1  0  0  0  0
 31 32  1  0  0  0  0
 31 33  2  0  0  0  0
 33 34  1  0  0  0  0
 34 35  1  0  0  0  0
 34 43  2  0  0  0  0
 35 36  1  0  0  0  0
 35 39  2  0  0  0  0
 36 37  1  0  0  0  0
 36 38  1  0  0  0  0
 39 40  1  0  0  0  0
 40 41  1  0  0  0  0
 40 42  2  0  0  0  0
 42 43  1  0  0  0  0
M  BCL ATM P_TeTeTeTePi O_Te2Te2TeTe O_Te2Te2Te2Te O_Tr2Tr2TrPi P_TeTeTeTePi O_Te2Te2TeTe O_Tr2Tr2TrPi O_Tr2TrTrPi2 P_TeTeTeTePi O_Tr2Tr2TrPi O_Te2Te2Te2Te O_Tr2TrTrPi2 O_Tr2TrTrPi2 C_TeTeTeTe H_S H_S C_TeTeTeTe H_S O_Te2Te2TeTe C_TeTeTeTe H_S O_Te2Te2TeTe H_S C_TeTeTeTe H_S O_Te2Te2TeTe H_S C_TeTeTeTe H_S N_TrTrTrPi2 C_TrTrTrPi H_S N_Tr2TrTrPi C_TrTrTrPi C_TrTrTrPi N_TrTrTrPi2 H_S H_S N_Tr2TrTrPi C_TrTrTrPi H_S N_Tr2TrTrPi C_TrTrTrPi
M  BCL BND ConjugatedSingleBond ConjugatedSingleBond ConjugatedDoubleBond ConjugatedSingleBond ConjugatedSingleBond ConjugatedDoubleBond ConjugatedSingleBond ConjugatedSingleBond ConjugatedDoubleBond ConjugatedSingleBond ConjugatedSingleBond ConjugatedSingleBond NonConjugatedSingleBond NonConjugatedSingleBond NonConjugatedSingleBond NonConjugatedSingleBond NonConjugatedSingleBond NonConjugatedSingleBondInRing NonConjugatedSingleBondInRing NonConjugatedSingleBondInRing NonConjugatedSingleBond NonConjugatedSingleBond NonConjugatedSingleBondInRing NonConjugatedSingleBond NonConjugatedSingleBond NonConjugatedSingleBond NonConjugatedSingleBondInRing NonConjugatedSingleBond NonConjugatedSingleBond NonConjugatedSingleBond AromaticSingleBond AromaticSingleBond NonConjugatedSingleBond AromaticDoubleBond AromaticSingleBond AromaticSingleBond AromaticDoubleBond ConjugatedSingleBond AromaticDoubleBond NonConjugatedSingleBond NonConjugatedSingleBond AromaticSingleBond NonConjugatedSingleBond AromaticDoubleBond AromaticSingleBond
M  BCL CHI   1   S   5   S   9   S  17   R  20   S  24   R  28   S
M  BCL DBI - - - - - - -
M  END
> <ConfClashScore>
0 

> <ConfOneFourInteractionScore>
-0.987665 

> <ConfScore>
0.0285448 

> <ConfScorePBest>
0.0105665 

> <ConfTolerance>
1.25864 

$$$$
ATP.****
  PyMOL2.5          3D                             0

 43 45  0  0  0  0  0  0  0  0999 V2000
    2.3826    5.6505    0.2751 P   0  0  0  1  0  0  0  0  0  0  0  0
    2.9563    4.7214    1.4988 O   0  0  0  0  0  0  0  0  0  0  0  0
    3.6085    6.6881    0.0629 O   0  5  0  1  0  0  0  0  0  0  0  0
    1.1831    6.4539    0.6012 O   0  0  0  1  0  0  0  0  0  0  0  0
    1.9674    3.2642   -1.2607 P   0  0  0  1  0  0  0  0  0  0  0  0
    1.1398    2.8706   -2.4584 O   0  0  0  0  0  0  0  0  0  0  0  0
    3.2520    2.5756   -1.0932 O   0  0  0  1  0  0  0  0  0  0  0  0
    2.2471    4.8533   -1.1259 O   0  0  0  1  0  0  0  0  0  0  0  0
   -0.1311    3.4253    0.9115 P   0  0  0  1  0  0  0  0  0  0  0  0
   -1.1011    3.9809   -0.0584 O   0  0  0  1  0  0  0  0  0  0  0  0
    0.3347    4.5083    2.0226 O   0  5  0  1  0  0  0  0  0  0  0  0
    1.1774    2.9764    0.1031 O   0  0  0  1  0  0  0  0  0  0  0  0
   -0.6216    2.0461    1.5116 O   0  0  0  1  0  0  0  0  0  0  0  0
   -0.9343    0.9659    0.6010 C   0  0  0  1  0  0  0  0  0  0  0  0
   -0.0311    0.5463    0.2097 H   0  0  0  1  0  0  0  0  0  0  0  0
   -1.5368    1.3311   -0.2043 H   0  0  0  1  0  0  0  0  0  0  0  0
   -1.6945   -0.0831    1.3776 C   0  0  0  1  0  0  0  0  0  0  0  0
   -2.1314   -0.7842    0.6976 H   0  0  0  1  0  0  0  0  0  0  0  0
   -0.8100   -0.7623    2.2884 O   0  0  0  1  0  0  0  0  0  0  0  0
   -2.7747    0.5710    2.2171 C   0  0  0  1  0  0  0  0  0  0  0  0
   -3.0438    1.5279    1.8213 H   0  0  0  1  0  0  0  0  0  0  0  0
   -3.9248   -0.2480    2.2951 O   0  0  0  1  0  0  0  0  0  0  0  0
   -3.9246   -0.7222    3.1298 H   0  0  0  1  0  0  0  0  0  0  0  0
   -2.1077    0.7085    3.5753 C   0  0  0  1  0  0  0  0  0  0  0  0
   -1.5021    1.5892    3.6248 H   0  0  0  1  0  0  0  0  0  0  0  0
   -3.0723    0.7333    4.6285 O   0  0  0  1  0  0  0  0  0  0  0  0
   -3.0032   -0.0728    5.1453 H   0  0  0  1  0  0  0  0  0  0  0  0
   -1.2590   -0.5507    3.6316 C   0  0  0  1  0  0  0  0  0  0  0  0
   -1.8433   -1.3820    3.9670 H   0  0  0  1  0  0  0  0  0  0  0  0
   -0.1192   -0.3610    4.5293 N   0  0  0  1  0  0  0  0  0  0  0  0
    0.4406    0.8208    4.9072 C   0  0  0  1  0  0  0  0  0  0  0  0
    0.0822    1.7399    4.5779 H   0  0  0  1  0  0  0  0  0  0  0  0
    1.4610    0.7137    5.7141 N   0  0  0  1  0  0  0  0  0  0  0  0
    1.5878   -0.6545    5.8973 C   0  0  0  1  0  0  0  0  0  0  0  0
    2.4630   -1.4598    6.6200 C   0  0  0  1  0  0  0  0  0  0  0  0
    3.4862   -0.9574    7.3801 N   0  0  0  1  0  0  0  0  0  0  0  0
    4.0368   -1.5611    7.9211 H   0  0  0  1  0  0  0  0  0  0  0  0
    3.6674    0.0057    7.3827 H   0  0  0  1  0  0  0  0  0  0  0  0
    2.3205   -2.7892    6.5882 N   0  0  0  1  0  0  0  0  0  0  0  0
    1.3315   -3.2984    5.8367 C   0  0  0  1  0  0  0  0  0  0  0  0
    1.2563   -4.3356    5.8349 H   0  0  0  1  0  0  0  0  0  0  0  0
    0.4365   -2.6567    5.0956 N   0  0  0  1  0  0  0  0  0  0  0  0
    0.6067   -1.3356    5.1642 C   0  0  0  1  0  0  0  0  0  0  0  0
  1  2  1  0  0  0  0
  1  3  1  0  0  0  0
  1  4  2  0  0  0  0
  1  8  1  0  0  0  0
  5  6  1  0  0  0  0
  5  7  2  0  0  0  0
  5  8  1  0  0  0  0
  5 12  1  0  0  0  0
  9 10  2  0  0  0  0
  9 11  1  0  0  0  0
  9 12  1  0  0  0  0
  9 13  1  0  0  0  0
 13 14  1  0  0  0  0
 14 15  1  0  0  0  0
 14 16  1  0  0  0  0
 14 17  1  0  0  0  0
 17 18  1  0  0  0  0
 17 19  1  0  0  0  0
 17 20  1  0  0  0  0
 19 28  1  0  0  0  0
 20 21  1  0  0  0  0
 20 22  1  0  0  0  0
 20 24  1  0  0  0  0
 22 23  1  0  0  0  0
 24 25  1  0  0  0  0
 24 26  1  0  0  0  0
 24 28  1  0  0  0  0
 26 27  1  0  0  0  0
 28 29  1  0  0  0  0
 28 30  1  0  0  0  0
 30 31  1  0  0  0  0
 30 43  1  0  0  0  0
 31 32  1  0  0  0  0
 31 33  2  0  0  0  0
 33 34  1  0  0  0  0
 34 35  1  0  0  0  0
 34 43  2  0  0  0  0
 35 36  1  0  0  0  0
 35 39  2  0  0  0  0
 36 37  1  0  0  0  0
 36 38  1  0  0  0  0
 39 40  1  0  0  0  0
 40 41  1  0  0  0  0
 40 42  2  0  0  0  0
 42 43  1  0  0  0  0
M  BCL ATM P_TeTeTeTePi O_Te2Te2TeTe O_Te2Te2Te2Te O_Tr2Tr2TrPi P_TeTeTeTePi O_Te2Te2TeTe O_Tr2Tr2TrPi O_Tr2TrTrPi2 P_TeTeTeTePi O_Tr2Tr2TrPi O_Te2Te2Te2Te O_Tr2TrTrPi2 O_Tr2TrTrPi2 C_TeTeTeTe H_S H_S C_TeTeTeTe H_S O_Te2Te2TeTe C_TeTeTeTe H_S O_Te2Te2TeTe H_S C_TeTeTeTe H_S O_Te2Te2TeTe H_S C_TeTeTeTe H_S N_TrTrTrPi2 C_TrTrTrPi H_S N_Tr2TrTrPi C_TrTrTrPi C_TrTrTrPi N_TrTrTrPi2 H_S H_S N_Tr2TrTrPi C_TrTrTrPi H_S N_Tr2TrTrPi C_TrTrTrPi
M  BCL BND ConjugatedSingleBond ConjugatedSingleBond ConjugatedDoubleBond ConjugatedSingleBond ConjugatedSingleBond ConjugatedDoubleBond ConjugatedSingleBond ConjugatedSingleBond ConjugatedDoubleBond ConjugatedSingleBond ConjugatedSingleBond ConjugatedSingleBond NonConjugatedSingleBond NonConjugatedSingleBond NonConjugatedSingleBond NonConjugatedSingleBond NonConjugatedSingleBond NonConjugatedSingleBondInRing NonConjugatedSingleBondInRing NonConjugatedSingleBondInRing NonConjugatedSingleBond NonConjugatedSingleBond NonConjugatedSingleBondInRing NonConjugatedSingleBond NonConjugatedSingleBond NonConjugatedSingleBond NonConjugatedSingleBondInRing NonConjugatedSingleBond NonConjugatedSingleBond NonConjugatedSingleBond AromaticSingleBond AromaticSingleBond NonConjugatedSingleBond AromaticDoubleBond AromaticSingleBond AromaticSingleBond AromaticDoubleBond ConjugatedSingleBond AromaticDoubleBond NonConjugatedSingleBond NonConjugatedSingleBond AromaticSingleBond NonConjugatedSingleBond AromaticDoubleBond AromaticSingleBond
M  BCL CHI   1   S   5   S   9   S  17   R  20   S  24   R  28   S
M  BCL DBI - - - - - - -
M  END
> <ConfClashScore>
0 

> <ConfOneFourInteractionScore>
-0.978592 

> <ConfScore>
0.028839 

> <ConfScorePBest>
0.0104635 

> <ConfTolerance>
1.28281 

$$$$
ATP.****
  PyMOL2.5          3D                             0

 43 45  0  0  0  0  0  0  0  0999 V2000
    2.3359   -3.4956   -4.2534 P   0  0  0  1  0  0  0  0  0  0  0  0
    1.5129   -4.9061   -4.1026 O   0  0  0  0  0  0  0  0  0  0  0  0
    2.6776   -3.3259   -5.8279 O   0  5  0  1  0  0  0  0  0  0  0  0
    3.5263   -3.4436   -3.3755 O   0  0  0  1  0  0  0  0  0  0  0  0
    0.6334   -1.9398   -2.5175 P   0  0  0  1  0  0  0  0  0  0  0  0
   -0.8733   -1.9237   -2.4557 O   0  0  0  0  0  0  0  0  0  0  0  0
    1.3259   -2.7305   -1.4938 O   0  0  0  1  0  0  0  0  0  0  0  0
    1.2410   -2.3606   -3.9438 O   0  0  0  1  0  0  0  0  0  0  0  0
    0.6151    0.7696   -1.5219 P   0  0  0  1  0  0  0  0  0  0  0  0
   -0.0623    1.8422   -2.2841 O   0  0  0  1  0  0  0  0  0  0  0  0
    1.9376    1.2277   -0.7062 O   0  5  0  1  0  0  0  0  0  0  0  0
    1.2328   -0.4575   -2.3544 O   0  0  0  1  0  0  0  0  0  0  0  0
   -0.3395    0.1564   -0.4420 O   0  0  0  1  0  0  0  0  0  0  0  0
   -1.0672    0.9103    0.5560 C   0  0  0  1  0  0  0  0  0  0  0  0
   -1.7686    1.5630    0.0797 H   0  0  0  1  0  0  0  0  0  0  0  0
   -0.3856    1.4873    1.1454 H   0  0  0  1  0  0  0  0  0  0  0  0
   -1.8002   -0.0805    1.4369 C   0  0  0  1  0  0  0  0  0  0  0  0
   -2.3241   -0.7839    0.8240 H   0  0  0  1  0  0  0  0  0  0  0  0
   -0.8713   -0.7643    2.2968 O   0  0  0  1  0  0  0  0  0  0  0  0
   -2.7907    0.6611    2.3682 C   0  0  0  1  0  0  0  0  0  0  0  0
   -3.0101    1.6400    1.9961 H   0  0  0  1  0  0  0  0  0  0  0  0
   -4.0054   -0.0754    2.5180 O   0  0  0  1  0  0  0  0  0  0  0  0
   -3.8635   -0.9857    2.2482 H   0  0  0  1  0  0  0  0  0  0  0  0
   -2.0294    0.7327    3.6801 C   0  0  0  1  0  0  0  0  0  0  0  0
   -1.4130    1.6064    3.7216 H   0  0  0  1  0  0  0  0  0  0  0  0
   -2.9221    0.7256    4.7951 O   0  0  0  1  0  0  0  0  0  0  0  0
   -3.1915   -0.1762    4.9842 H   0  0  0  1  0  0  0  0  0  0  0  0
   -1.1774   -0.5459    3.6438 C   0  0  0  1  0  0  0  0  0  0  0  0
   -1.7301   -1.3726    4.0386 H   0  0  0  1  0  0  0  0  0  0  0  0
    0.0509   -0.3621    4.4222 N   0  0  0  1  0  0  0  0  0  0  0  0
    1.3481   -0.4656    4.0229 C   0  0  0  1  0  0  0  0  0  0  0  0
    1.6152   -0.6977    3.0449 H   0  0  0  1  0  0  0  0  0  0  0  0
    2.2314   -0.2518    4.9598 N   0  0  0  1  0  0  0  0  0  0  0  0
    1.4590    0.0265    6.0767 C   0  0  0  1  0  0  0  0  0  0  0  0
    1.7465    0.3313    7.4039 C   0  0  0  1  0  0  0  0  0  0  0  0
    3.0623    0.3850    7.7333 N   0  0  0  1  0  0  0  0  0  0  0  0
    3.7390    0.0617    7.1025 H   0  0  0  1  0  0  0  0  0  0  0  0
    3.3356    0.7471    8.6020 H   0  0  0  1  0  0  0  0  0  0  0  0
    0.7472    0.5500    8.2654 N   0  0  0  1  0  0  0  0  0  0  0  0
   -0.5110    0.4507    7.8083 C   0  0  0  1  0  0  0  0  0  0  0  0
   -1.2593    0.6237    8.5095 H   0  0  0  1  0  0  0  0  0  0  0  0
   -0.9291    0.1614    6.5821 N   0  0  0  1  0  0  0  0  0  0  0  0
    0.0969   -0.0379    5.7536 C   0  0  0  1  0  0  0  0  0  0  0  0
  1  2  1  0  0  0  0
  1  3  1  0  0  0  0
  1  4  2  0  0  0  0
  1  8  1  0  0  0  0
  5  6  1  0  0  0  0
  5  7  2  0  0  0  0
  5  8  1  0  0  0  0
  5 12  1  0  0  0  0
  9 10  2  0  0  0  0
  9 11  1  0  0  0  0
  9 12  1  0  0  0  0
  9 13  1  0  0  0  0
 13 14  1  0  0  0  0
 14 15  1  0  0  0  0
 14 16  1  0  0  0  0
 14 17  1  0  0  0  0
 17 18  1  0  0  0  0
 17 19  1  0  0  0  0
 17 20  1  0  0  0  0
 19 28  1  0  0  0  0
 20 21  1  0  0  0  0
 20 22  1  0  0  0  0
 20 24  1  0  0  0  0
 22 23  1  0  0  0  0
 24 25  1  0  0  0  0
 24 26  1  0  0  0  0
 24 28  1  0  0  0  0
 26 27  1  0  0  0  0
 28 29  1  0  0  0  0
 28 30  1  0  0  0  0
 30 31  1  0  0  0  0
 30 43  1  0  0  0  0
 31 32  1  0  0  0  0
 31 33  2  0  0  0  0
 33 34  1  0  0  0  0
 34 35  1  0  0  0  0
 34 43  2  0  0  0  0
 35 36  1  0  0  0  0
 35 39  2  0  0  0  0
 36 37  1  0  0  0  0
 36 38  1  0  0  0  0
 39 40  1  0  0  0  0
 40 41  1  0  0  0  0
 40 42  2  0  0  0  0
 42 43  1  0  0  0  0
M  BCL ATM P_TeTeTeTePi O_Te2Te2TeTe O_Te2Te2Te2Te O_Tr2Tr2TrPi P_TeTeTeTePi O_Te2Te2TeTe O_Tr2Tr2TrPi O_Tr2TrTrPi2 P_TeTeTeTePi O_Tr2Tr2TrPi O_Te2Te2Te2Te O_Tr2TrTrPi2 O_Tr2TrTrPi2 C_TeTeTeTe H_S H_S C_TeTeTeTe H_S O_Te2Te2TeTe C_TeTeTeTe H_S O_Te2Te2TeTe H_S C_TeTeTeTe H_S O_Te2Te2TeTe H_S C_TeTeTeTe H_S N_TrTrTrPi2 C_TrTrTrPi H_S N_Tr2TrTrPi C_TrTrTrPi C_TrTrTrPi N_TrTrTrPi2 H_S H_S N_Tr2TrTrPi C_TrTrTrPi H_S N_Tr2TrTrPi C_TrTrTrPi
M  BCL BND ConjugatedSingleBond ConjugatedSingleBond ConjugatedDoubleBond ConjugatedSingleBond ConjugatedSingleBond ConjugatedDoubleBond ConjugatedSingleBond ConjugatedSingleBond ConjugatedDoubleBond ConjugatedSingleBond ConjugatedSingleBond ConjugatedSingleBond NonConjugatedSingleBond NonConjugatedSingleBond NonConjugatedSingleBond NonConjugatedSingleBond NonConjugatedSingleBond NonConjugatedSingleBondInRing NonConjugatedSingleBondInRing NonConjugatedSingleBondInRing NonConjugatedSingleBond NonConjugatedSingleBond NonConjugatedSingleBondInRing NonConjugatedSingleBond NonConjugatedSingleBond NonConjugatedSingleBond NonConjugatedSingleBondInRing NonConjugatedSingleBond NonConjugatedSingleBond NonConjugatedSingleBond AromaticSingleBond AromaticSingleBond NonConjugatedSingleBond AromaticDoubleBond AromaticSingleBond AromaticSingleBond AromaticDoubleBond ConjugatedSingleBond AromaticDoubleBond NonConjugatedSingleBond NonConjugatedSingleBond AromaticSingleBond NonConjugatedSingleBond AromaticDoubleBond AromaticSingleBond
M  BCL CHI   1   S   5   S   9   S  17   R  20   S  24   R  28   S
M  BCL DBI - - - - - - -
M  END
> <ConfClashScore>
0 

> <ConfOneFourInteractionScore>
-0.981204 

> <ConfScore>
0.0310067 

> <ConfScorePBest>
0.0103605 

> <ConfTolerance>
1.26027 

$$$$
ATP.****
  PyMOL2.5          3D                             0

 43 45  0  0  0  0  0  0  0  0999 V2000
   -2.0515    5.9659    1.5963 P   0  0  0  1  0  0  0  0  0  0  0  0
   -0.7635    6.2291    2.5767 O   0  0  0  0  0  0  0  0  0  0  0  0
   -2.0858    7.2715    0.6379 O   0  5  0  1  0  0  0  0  0  0  0  0
   -3.3291    5.6727    2.2835 O   0  0  0  1  0  0  0  0  0  0  0  0
   -1.8175    4.3940   -0.8474 P   0  0  0  1  0  0  0  0  0  0  0  0
   -3.2030    4.4906   -1.3509 O   0  0  0  0  0  0  0  0  0  0  0  0
   -0.9221    5.3549   -1.5517 O   0  0  0  1  0  0  0  0  0  0  0  0
   -1.5997    4.7047    0.7149 O   0  0  0  1  0  0  0  0  0  0  0  0
   -0.0997    1.9693   -0.6705 P   0  0  0  1  0  0  0  0  0  0  0  0
    1.0372    2.7606   -0.1493 O   0  0  0  1  0  0  0  0  0  0  0  0
    0.1997    1.0554   -1.9742 O   0  5  0  1  0  0  0  0  0  0  0  0
   -1.3278    2.9062   -1.0794 O   0  0  0  1  0  0  0  0  0  0  0  0
   -0.5800    1.0709    0.5288 O   0  0  0  1  0  0  0  0  0  0  0  0
   -1.5629    0.0240    0.3265 C   0  0  0  1  0  0  0  0  0  0  0  0
   -1.1111   -0.8088   -0.1709 H   0  0  0  1  0  0  0  0  0  0  0  0
   -2.3744    0.3952   -0.2638 H   0  0  0  1  0  0  0  0  0  0  0  0
   -2.0677   -0.4009    1.6867 C   0  0  0  1  0  0  0  0  0  0  0  0
   -2.8498   -1.1214    1.5684 H   0  0  0  1  0  0  0  0  0  0  0  0
   -0.9920   -0.9587    2.4636 O   0  0  0  1  0  0  0  0  0  0  0  0
   -2.5609    0.7639    2.4299 C   0  0  0  1  0  0  0  0  0  0  0  0
   -2.0866    1.6581    2.0829 H   0  0  0  1  0  0  0  0  0  0  0  0
   -3.9764    0.8876    2.2841 O   0  0  0  1  0  0  0  0  0  0  0  0
   -4.2482    0.4954    1.4510 H   0  0  0  1  0  0  0  0  0  0  0  0
   -2.1963    0.4965    3.8827 C   0  0  0  1  0  0  0  0  0  0  0  0
   -2.0503    1.4072    4.4251 H   0  0  0  1  0  0  0  0  0  0  0  0
   -3.1911   -0.2937    4.5364 O   0  0  0  1  0  0  0  0  0  0  0  0
   -2.9635   -1.2232    4.4595 H   0  0  0  1  0  0  0  0  0  0  0  0
   -0.8855   -0.2750    3.7174 C   0  0  0  1  0  0  0  0  0  0  0  0
   -0.7630   -0.9770    4.5156 H   0  0  0  1  0  0  0  0  0  0  0  0
    0.2494    0.6470    3.6999 N   0  0  0  1  0  0  0  0  0  0  0  0
    0.2028    2.0067    3.6561 C   0  0  0  1  0  0  0  0  0  0  0  0
   -0.6827    2.5313    3.5072 H   0  0  0  1  0  0  0  0  0  0  0  0
    1.3533    2.6024    3.8151 N   0  0  0  1  0  0  0  0  0  0  0  0
    2.2414    1.5523    3.9883 C   0  0  0  1  0  0  0  0  0  0  0  0
    3.6152    1.4673    4.1945 C   0  0  0  1  0  0  0  0  0  0  0  0
    4.3822    2.6001    4.2667 N   0  0  0  1  0  0  0  0  0  0  0  0
    5.3421    2.5310    4.4518 H   0  0  0  1  0  0  0  0  0  0  0  0
    3.9709    3.4796    4.1334 H   0  0  0  1  0  0  0  0  0  0  0  0
    4.1933    0.2682    4.3234 N   0  0  0  1  0  0  0  0  0  0  0  0
    3.4125   -0.8200    4.2329 C   0  0  0  1  0  0  0  0  0  0  0  0
    3.9000   -1.7331    4.3343 H   0  0  0  1  0  0  0  0  0  0  0  0
    2.1023   -0.8880    4.0315 N   0  0  0  1  0  0  0  0  0  0  0  0
    1.5643    0.3273    3.9199 C   0  0  0  1  0  0  0  0  0  0  0  0
  1  2  1  0  0  0  0
  1  3  1  0  0  0  0
  1  4  2  0  0  0  0
  1  8  1  0  0  0  0
  5  6  1  0  0  0  0
  5  7  2  0  0  0  0
  5  8  1  0  0  0  0
  5 12  1  0  0  0  0
  9 10  2  0  0  0  0
  9 11  1  0  0  0  0
  9 12  1  0  0  0  0
  9 13  1  0  0  0  0
 13 14  1  0  0  0  0
 14 15  1  0  0  0  0
 14 16  1  0  0  0  0
 14 17  1  0  0  0  0
 17 18  1  0  0  0  0
 17 19  1  0  0  0  0
 17 20  1  0  0  0  0
 19 28  1  0  0  0  0
 20 21  1  0  0  0  0
 20 22  1  0  0  0  0
 20 24  1  0  0  0  0
 22 23  1  0  0  0  0
 24 25  1  0  0  0  0
 24 26  1  0  0  0  0
 24 28  1  0  0  0  0
 26 27  1  0  0  0  0
 28 29  1  0  0  0  0
 28 30  1  0  0  0  0
 30 31  1  0  0  0  0
 30 43  1  0  0  0  0
 31 32  1  0  0  0  0
 31 33  2  0  0  0  0
 33 34  1  0  0  0  0
 34 35  1  0  0  0  0
 34 43  2  0  0  0  0
 35 36  1  0  0  0  0
 35 39  2  0  0  0  0
 36 37  1  0  0  0  0
 36 38  1  0  0  0  0
 39 40  1  0  0  0  0
 40 41  1  0  0  0  0
 40 42  2  0  0  0  0
 42 43  1  0  0  0  0
M  BCL ATM P_TeTeTeTePi O_Te2Te2TeTe O_Te2Te2Te2Te O_Tr2Tr2TrPi P_TeTeTeTePi O_Te2Te2TeTe O_Tr2Tr2TrPi O_Tr2TrTrPi2 P_TeTeTeTePi O_Tr2Tr2TrPi O_Te2Te2Te2Te O_Tr2TrTrPi2 O_Tr2TrTrPi2 C_TeTeTeTe H_S H_S C_TeTeTeTe H_S O_Te2Te2TeTe C_TeTeTeTe H_S O_Te2Te2TeTe H_S C_TeTeTeTe H_S O_Te2Te2TeTe H_S C_TeTeTeTe H_S N_TrTrTrPi2 C_TrTrTrPi H_S N_Tr2TrTrPi C_TrTrTrPi C_TrTrTrPi N_TrTrTrPi2 H_S H_S N_Tr2TrTrPi C_TrTrTrPi H_S N_Tr2TrTrPi C_TrTrTrPi
M  BCL BND ConjugatedSingleBond ConjugatedSingleBond ConjugatedDoubleBond ConjugatedSingleBond ConjugatedSingleBond ConjugatedDoubleBond ConjugatedSingleBond ConjugatedSingleBond ConjugatedDoubleBond ConjugatedSingleBond ConjugatedSingleBond ConjugatedSingleBond NonConjugatedSingleBond NonConjugatedSingleBond NonConjugatedSingleBond NonConjugatedSingleBond NonConjugatedSingleBond NonConjugatedSingleBondInRing NonConjugatedSingleBondInRing NonConjugatedSingleBondInRing NonConjugatedSingleBond NonConjugatedSingleBond NonConjugatedSingleBondInRing NonConjugatedSingleBond NonConjugatedSingleBond NonConjugatedSingleBond NonConjugatedSingleBondInRing NonConjugatedSingleBond NonConjugatedSingleBond NonConjugatedSingleBond AromaticSingleBond AromaticSingleBond NonConjugatedSingleBond AromaticDoubleBond AromaticSingleBond AromaticSingleBond AromaticDoubleBond ConjugatedSingleBond AromaticDoubleBond NonConjugatedSingleBond NonConjugatedSingleBond AromaticSingleBond NonConjugatedSingleBond AromaticDoubleBond AromaticSingleBond
M  BCL CHI   1   S   5   S   9   S  17   R  20   S  24   R  28   S
M  BCL DBI - - - - - - -
M  END
> <ConfClashScore>
0 

> <ConfOneFourInteractionScore>
-0.985774 

> <ConfScore>
0.0326249 

> <ConfScorePBest>
0.0102575 

> <ConfTolerance>
1.46349 

$$$$
ATP.****
  PyMOL2.5          3D                             0

 43 45  0  0  0  0  0  0  0  0999 V2000
    1.6382   -3.0560   -0.4406 P   0  0  0  1  0  0  0  0  0  0  0  0
    1.9818   -1.8041    0.5615 O   0  0  0  0  0  0  0  0  0  0  0  0
    2.0048   -4.4306    0.3343 O   0  5  0  1  0  0  0  0  0  0  0  0
    2.2081   -2.9764   -1.8042 O   0  0  0  1  0  0  0  0  0  0  0  0
   -1.0471   -3.7461   -1.2441 P   0  0  0  1  0  0  0  0  0  0  0  0
   -0.4602   -4.9788   -1.8258 O   0  0  0  0  0  0  0  0  0  0  0  0
   -2.3546   -3.8128   -0.5520 O   0  0  0  1  0  0  0  0  0  0  0  0
    0.0363   -2.9971   -0.3245 O   0  0  0  1  0  0  0  0  0  0  0  0
   -1.4046   -1.0167   -2.1130 P   0  0  0  1  0  0  0  0  0  0  0  0
   -2.7728   -0.6663   -2.5554 O   0  0  0  1  0  0  0  0  0  0  0  0
   -0.4614   -0.2072   -3.1521 O   0  5  0  1  0  0  0  0  0  0  0  0
   -1.0353   -2.5644   -2.3334 O   0  0  0  1  0  0  0  0  0  0  0  0
   -0.9815   -0.6774   -0.6395 O   0  0  0  1  0  0  0  0  0  0  0  0
   -1.6307    0.3429    0.1552 C   0  0  0  1  0  0  0  0  0  0  0  0
   -2.5719    0.6020   -0.2828 H   0  0  0  1  0  0  0  0  0  0  0  0
   -1.0101    1.2129    0.2087 H   0  0  0  1  0  0  0  0  0  0  0  0
   -1.8456   -0.2217    1.5395 C   0  0  0  1  0  0  0  0  0  0  0  0
   -2.3505   -1.1623    1.4673 H   0  0  0  1  0  0  0  0  0  0  0  0
   -0.5852   -0.3725    2.2287 O   0  0  0  1  0  0  0  0  0  0  0  0
   -2.6546    0.7645    2.4095 C   0  0  0  1  0  0  0  0  0  0  0  0
   -2.5465    1.7660    2.0486 H   0  0  0  1  0  0  0  0  0  0  0  0
   -4.0381    0.4098    2.4245 O   0  0  0  1  0  0  0  0  0  0  0  0
   -4.1295   -0.5310    2.2569 H   0  0  0  1  0  0  0  0  0  0  0  0
   -2.0355    0.6193    3.8193 C   0  0  0  1  0  0  0  0  0  0  0  0
   -1.6253    1.5497    4.1523 H   0  0  0  1  0  0  0  0  0  0  0  0
   -3.0114    0.1652    4.7582 O   0  0  0  1  0  0  0  0  0  0  0  0
   -3.7389   -0.2496    4.2889 H   0  0  0  1  0  0  0  0  0  0  0  0
   -0.9229   -0.4351    3.6307 C   0  0  0  1  0  0  0  0  0  0  0  0
   -1.2808   -1.4100    3.8883 H   0  0  0  1  0  0  0  0  0  0  0  0
    0.2503   -0.1057    4.4619 N   0  0  0  1  0  0  0  0  0  0  0  0
    0.9603    1.0551    4.4987 C   0  0  0  1  0  0  0  0  0  0  0  0
    0.6574    1.9121    3.9933 H   0  0  0  1  0  0  0  0  0  0  0  0
    2.0500    1.0116    5.2160 N   0  0  0  1  0  0  0  0  0  0  0  0
    2.0641   -0.2849    5.7065 C   0  0  0  1  0  0  0  0  0  0  0  0
    2.9335   -1.0049    6.5206 C   0  0  0  1  0  0  0  0  0  0  0  0
    4.0793   -0.4701    7.0477 N   0  0  0  1  0  0  0  0  0  0  0  0
    4.6417   -1.0074    7.6439 H   0  0  0  1  0  0  0  0  0  0  0  0
    4.3366    0.4498    6.8286 H   0  0  0  1  0  0  0  0  0  0  0  0
    2.6608   -2.2801    6.8174 N   0  0  0  1  0  0  0  0  0  0  0  0
    1.5491   -2.8236    6.2971 C   0  0  0  1  0  0  0  0  0  0  0  0
    1.3746   -3.8177    6.5478 H   0  0  0  1  0  0  0  0  0  0  0  0
    0.6424   -2.2635    5.5058 N   0  0  0  1  0  0  0  0  0  0  0  0
    0.9457   -0.9913    5.2441 C   0  0  0  1  0  0  0  0  0  0  0  0
  1  2  1  0  0  0  0
  1  3  1  0  0  0  0
  1  4  2  0  0  0  0
  1  8  1  0  0  0  0
  5  6  1  0  0  0  0
  5  7  2  0  0  0  0
  5  8  1  0  0  0  0
  5 12  1  0  0  0  0
  9 10  2  0  0  0  0
  9 11  1  0  0  0  0
  9 12  1  0  0  0  0
  9 13  1  0  0  0  0
 13 14  1  0  0  0  0
 14 15  1  0  0  0  0
 14 16  1  0  0  0  0
 14 17  1  0  0  0  0
 17 18  1  0  0  0  0
 17 19  1  0  0  0  0
 17 20  1  0  0  0  0
 19 28  1  0  0  0  0
 20 21  1  0  0  0  0
 20 22  1  0  0  0  0
 20 24  1  0  0  0  0
 22 23  1  0  0  0  0
 24 25  1  0  0  0  0
 24 26  1  0  0  0  0
 24 28  1  0  0  0  0
 26 27  1  0  0  0  0
 28 29  1  0  0  0  0
 28 30  1  0  0  0  0
 30 31  1  0  0  0  0
 30 43  1  0  0  0  0
 31 32  1  0  0  0  0
 31 33  2  0  0  0  0
 33 34  1  0  0  0  0
 34 35  1  0  0  0  0
 34 43  2  0  0  0  0
 35 36  1  0  0  0  0
 35 39  2  0  0  0  0
 36 37  1  0  0  0  0
 36 38  1  0  0  0  0
 39 40  1  0  0  0  0
 40 41  1  0  0  0  0
 40 42  2  0  0  0  0
 42 43  1  0  0  0  0
M  BCL ATM P_TeTeTeTePi O_Te2Te2TeTe O_Te2Te2Te2Te O_Tr2Tr2TrPi P_TeTeTeTePi O_Te2Te2TeTe O_Tr2Tr2TrPi O_Tr2TrTrPi2 P_TeTeTeTePi O_Tr2Tr2TrPi O_Te2Te2Te2Te O_Tr2TrTrPi2 O_Tr2TrTrPi2 C_TeTeTeTe H_S H_S C_TeTeTeTe H_S O_Te2Te2TeTe C_TeTeTeTe H_S O_Te2Te2TeTe H_S C_TeTeTeTe H_S O_Te2Te2TeTe H_S C_TeTeTeTe H_S N_TrTrTrPi2 C_TrTrTrPi H_S N_Tr2TrTrPi C_TrTrTrPi C_TrTrTrPi N_TrTrTrPi2 H_S H_S N_Tr2TrTrPi C_TrTrTrPi H_S N_Tr2TrTrPi C_TrTrTrPi
M  BCL BND ConjugatedSingleBond ConjugatedSingleBond ConjugatedDoubleBond ConjugatedSingleBond ConjugatedSingleBond ConjugatedDoubleBond ConjugatedSingleBond ConjugatedSingleBond ConjugatedDoubleBond ConjugatedSingleBond ConjugatedSingleBond ConjugatedSingleBond NonConjugatedSingleBond NonConjugatedSingleBond NonConjugatedSingleBond NonConjugatedSingleBond NonConjugatedSingleBond NonConjugatedSingleBondInRing NonConjugatedSingleBondInRing NonConjugatedSingleBondInRing NonConjugatedSingleBond NonConjugatedSingleBond NonConjugatedSingleBondInRing NonConjugatedSingleBond NonConjugatedSingleBond NonConjugatedSingleBond NonConjugatedSingleBondInRing NonConjugatedSingleBond NonConjugatedSingleBond NonConjugatedSingleBond AromaticSingleBond AromaticSingleBond NonConjugatedSingleBond AromaticDoubleBond AromaticSingleBond AromaticSingleBond AromaticDoubleBond ConjugatedSingleBond AromaticDoubleBond NonConjugatedSingleBond NonConjugatedSingleBond AromaticSingleBond NonConjugatedSingleBond AromaticDoubleBond AromaticSingleBond
M  BCL CHI   1   S   5   S   9   S  17   R  20   S  24   R  28   S
M  BCL DBI - - - - - - -
M  END
> <ConfClashScore>
0 

> <ConfOneFourInteractionScore>
-0.981204 

> <ConfScore>
0.0334428 

> <ConfScorePBest>
0.0101545 

> <ConfTolerance>
1.37644 

$$$$
ATP.****
  PyMOL2.5          3D                             0

 43 45  0  0  0  0  0  0  0  0999 V2000
    3.0101    4.9733   -3.2355 P   0  0  0  1  0  0  0  0  0  0  0  0
    4.0644    4.3923   -4.3493 O   0  0  0  0  0  0  0  0  0  0  0  0
    1.6828    5.5420   -3.9697 O   0  5  0  1  0  0  0  0  0  0  0  0
    3.7380    5.9646   -2.4121 O   0  0  0  1  0  0  0  0  0  0  0  0
    1.4684    3.8231   -1.1080 P   0  0  0  1  0  0  0  0  0  0  0  0
    2.1285    4.7042   -0.0944 O   0  0  0  0  0  0  0  0  0  0  0  0
    0.1042    4.1187   -1.5795 O   0  0  0  1  0  0  0  0  0  0  0  0
    2.5444    3.7278   -2.3142 O   0  0  0  1  0  0  0  0  0  0  0  0
    0.4739    1.0474   -0.8129 P   0  0  0  1  0  0  0  0  0  0  0  0
    1.2809   -0.1891   -0.7111 O   0  0  0  1  0  0  0  0  0  0  0  0
   -0.2074    1.3020   -2.2604 O   0  5  0  1  0  0  0  0  0  0  0  0
    1.3868    2.3369   -0.5227 O   0  0  0  1  0  0  0  0  0  0  0  0
   -0.6639    1.0386    0.2741 O   0  0  0  1  0  0  0  0  0  0  0  0
   -1.7236    0.0495    0.2331 C   0  0  0  1  0  0  0  0  0  0  0  0
   -1.4209   -0.7843   -0.3654 H   0  0  0  1  0  0  0  0  0  0  0  0
   -2.6105    0.4825   -0.1801 H   0  0  0  1  0  0  0  0  0  0  0  0
   -1.9840   -0.4023    1.6501 C   0  0  0  1  0  0  0  0  0  0  0  0
   -2.6643   -1.2282    1.6423 H   0  0  0  1  0  0  0  0  0  0  0  0
   -0.7857   -0.7520    2.2879 O   0  0  0  1  0  0  0  0  0  0  0  0
   -2.5401    0.7525    2.4957 C   0  0  0  1  0  0  0  0  0  0  0  0
   -2.1180    1.6887    2.1952 H   0  0  0  1  0  0  0  0  0  0  0  0
   -3.9638    0.8197    2.4027 O   0  0  0  1  0  0  0  0  0  0  0  0
   -4.2701    0.2085    1.7287 H   0  0  0  1  0  0  0  0  0  0  0  0
   -2.1038    0.3822    3.8889 C   0  0  0  1  0  0  0  0  0  0  0  0
   -1.9950    1.2530    4.5011 H   0  0  0  1  0  0  0  0  0  0  0  0
   -3.0364   -0.5152    4.4969 O   0  0  0  1  0  0  0  0  0  0  0  0
   -3.9170   -0.3411    4.1567 H   0  0  0  1  0  0  0  0  0  0  0  0
   -0.7524   -0.3013    3.6609 C   0  0  0  1  0  0  0  0  0  0  0  0
   -0.6343   -1.1313    4.3258 H   0  0  0  1  0  0  0  0  0  0  0  0
    0.3435    0.6468    3.8637 N   0  0  0  1  0  0  0  0  0  0  0  0
    0.4470    1.9038    3.3519 C   0  0  0  1  0  0  0  0  0  0  0  0
   -0.2868    2.3230    2.7458 H   0  0  0  1  0  0  0  0  0  0  0  0
    1.5367    2.5436    3.6791 N   0  0  0  1  0  0  0  0  0  0  0  0
    2.2137    1.6409    4.4844 C   0  0  0  1  0  0  0  0  0  0  0  0
    3.4316    1.6647    5.1575 C   0  0  0  1  0  0  0  0  0  0  0  0
    4.3309    2.7254    5.1690 N   0  0  0  1  0  0  0  0  0  0  0  0
    5.2183    2.6111    5.5687 H   0  0  0  1  0  0  0  0  0  0  0  0
    4.0772    3.5871    4.7772 H   0  0  0  1  0  0  0  0  0  0  0  0
    3.8166    0.5999    5.8694 N   0  0  0  1  0  0  0  0  0  0  0  0
    3.0045   -0.4687    5.8927 C   0  0  0  1  0  0  0  0  0  0  0  0
    3.3410   -1.2773    6.4535 H   0  0  0  1  0  0  0  0  0  0  0  0
    1.8298   -0.6327    5.2967 N   0  0  0  1  0  0  0  0  0  0  0  0
    1.4787    0.4543    4.6081 C   0  0  0  1  0  0  0  0  0  0  0  0
  1  2  1  0  0  0  0
  1  3  1  0  0  0  0
  1  4  2  0  0  0  0
  1  8  1  0  0  0  0
  5  6  1  0  0  0  0
  5  7  2  0  0  0  0
  5  8  1  0  0  0  0
  5 12  1  0  0  0  0
  9 10  2  0  0  0  0
  9 11  1  0  0  0  0
  9 12  1  0  0  0  0
  9 13  1  0  0  0  0
 13 14  1  0  0  0  0
 14 15  1  0  0  0  0
 14 16  1  0  0  0  0
 14 17  1  0  0  0  0
 17 18  1  0  0  0  0
 17 19  1  0  0  0  0
 17 20  1  0  0  0  0
 19 28  1  0  0  0  0
 20 21  1  0  0  0  0
 20 22  1  0  0  0  0
 20 24  1  0  0  0  0
 22 23  1  0  0  0  0
 24 25  1  0  0  0  0
 24 26  1  0  0  0  0
 24 28  1  0  0  0  0
 26 27  1  0  0  0  0
 28 29  1  0  0  0  0
 28 30  1  0  0  0  0
 30 31  1  0  0  0  0
 30 43  1  0  0  0  0
 31 32  1  0  0  0  0
 31 33  2  0  0  0  0
 33 34  1  0  0  0  0
 34 35  1  0  0  0  0
 34 43  2  0  0  0  0
 35 36  1  0  0  0  0
 35 39  2  0  0  0  0
 36 37  1  0  0  0  0
 36 38  1  0  0  0  0
 39 40  1  0  0  0  0
 40 41  1  0  0  0  0
 40 42  2  0  0  0  0
 42 43  1  0  0  0  0
M  BCL ATM P_TeTeTeTePi O_Te2Te2TeTe O_Te2Te2Te2Te O_Tr2Tr2TrPi P_TeTeTeTePi O_Te2Te2TeTe O_Tr2Tr2TrPi O_Tr2TrTrPi2 P_TeTeTeTePi O_Tr2Tr2TrPi O_Te2Te2Te2Te O_Tr2TrTrPi2 O_Tr2TrTrPi2 C_TeTeTeTe H_S H_S C_TeTeTeTe H_S O_Te2Te2TeTe C_TeTeTeTe H_S O_Te2Te2TeTe H_S C_TeTeTeTe H_S O_Te2Te2TeTe H_S C_TeTeTeTe H_S N_TrTrTrPi2 C_TrTrTrPi H_S N_Tr2TrTrPi C_TrTrTrPi C_TrTrTrPi N_TrTrTrPi2 H_S H_S N_Tr2TrTrPi C_TrTrTrPi H_S N_Tr2TrTrPi C_TrTrTrPi
M  BCL BND ConjugatedSingleBond ConjugatedSingleBond ConjugatedDoubleBond ConjugatedSingleBond ConjugatedSingleBond ConjugatedDoubleBond ConjugatedSingleBond ConjugatedSingleBond ConjugatedDoubleBond ConjugatedSingleBond ConjugatedSingleBond ConjugatedSingleBond NonConjugatedSingleBond NonConjugatedSingleBond NonConjugatedSingleBond NonConjugatedSingleBond NonConjugatedSingleBond NonConjugatedSingleBondInRing NonConjugatedSingleBondInRing NonConjugatedSingleBondInRing NonConjugatedSingleBond NonConjugatedSingleBond NonConjugatedSingleBondInRing NonConjugatedSingleBond NonConjugatedSingleBond NonConjugatedSingleBond NonConjugatedSingleBondInRing NonConjugatedSingleBond NonConjugatedSingleBond NonConjugatedSingleBond AromaticSingleBond AromaticSingleBond NonConjugatedSingleBond AromaticDoubleBond AromaticSingleBond AromaticSingleBond AromaticDoubleBond ConjugatedSingleBond AromaticDoubleBond NonConjugatedSingleBond NonConjugatedSingleBond AromaticSingleBond NonConjugatedSingleBond AromaticDoubleBond AromaticSingleBond
M  BCL CHI   1   S   5   S   9   S  17   R  20   S  24   R  28   S
M  BCL DBI - - - - - - -
M  END
> <ConfClashScore>
0 

> <ConfOneFourInteractionScore>
-0.991453 

> <ConfScore>
0.0338854 

> <ConfScorePBest>
0.0100515 

> <ConfTolerance>
1.34454 

$$$$
ATP.****
  PyMOL2.5          3D                             0

 43 45  0  0  0  0  0  0  0  0999 V2000
    1.0722    6.7386    2.3681 P   0  0  0  1  0  0  0  0  0  0  0  0
    0.9638    8.3319    2.7412 O   0  0  0  0  0  0  0  0  0  0  0  0
    2.5778    6.5236    1.8103 O   0  5  0  1  0  0  0  0  0  0  0  0
    0.1391    6.3992    1.2706 O   0  0  0  1  0  0  0  0  0  0  0  0
    0.4496    4.3214    3.7022 P   0  0  0  1  0  0  0  0  0  0  0  0
    1.1569    3.7166    4.8560 O   0  0  0  0  0  0  0  0  0  0  0  0
   -0.9849    4.1449    3.5715 O   0  0  0  1  0  0  0  0  0  0  0  0
    0.8519    5.8870    3.7258 O   0  0  0  1  0  0  0  0  0  0  0  0
    0.3176    3.2255    0.9810 P   0  0  0  1  0  0  0  0  0  0  0  0
    1.2784    3.0843   -0.1358 O   0  0  0  1  0  0  0  0  0  0  0  0
   -0.9455    4.1926    0.6745 O   0  5  0  1  0  0  0  0  0  0  0  0
    1.0289    3.7799    2.3050 O   0  0  0  1  0  0  0  0  0  0  0  0
   -0.3931    1.9211    1.5002 O   0  0  0  1  0  0  0  0  0  0  0  0
   -1.0199    1.0001    0.5767 C   0  0  0  1  0  0  0  0  0  0  0  0
   -0.2898    0.6117   -0.1024 H   0  0  0  1  0  0  0  0  0  0  0  0
   -1.7881    1.5021    0.0264 H   0  0  0  1  0  0  0  0  0  0  0  0
   -1.6245   -0.1356    1.3943 C   0  0  0  1  0  0  0  0  0  0  0  0
   -2.0017   -0.8890    0.7348 H   0  0  0  1  0  0  0  0  0  0  0  0
   -0.6353   -0.6957    2.2761 O   0  0  0  1  0  0  0  0  0  0  0  0
   -2.7604    0.4017    2.2996 C   0  0  0  1  0  0  0  0  0  0  0  0
   -3.1185    1.3469    1.9486 H   0  0  0  1  0  0  0  0  0  0  0  0
   -3.8459   -0.5242    2.3670 O   0  0  0  1  0  0  0  0  0  0  0  0
   -4.3256   -0.3964    3.1887 H   0  0  0  1  0  0  0  0  0  0  0  0
   -2.0773    0.5424    3.6485 C   0  0  0  1  0  0  0  0  0  0  0  0
   -1.6120    1.5009    3.7475 H   0  0  0  1  0  0  0  0  0  0  0  0
   -3.0040    0.3496    4.7182 O   0  0  0  1  0  0  0  0  0  0  0  0
   -3.7476    0.9470    4.6095 H   0  0  0  1  0  0  0  0  0  0  0  0
   -1.0297   -0.5816    3.6130 C   0  0  0  1  0  0  0  0  0  0  0  0
   -1.4584   -1.5007    3.9541 H   0  0  0  1  0  0  0  0  0  0  0  0
    0.1157   -0.2358    4.4532 N   0  0  0  1  0  0  0  0  0  0  0  0
    1.3000    0.2505    3.9909 C   0  0  0  1  0  0  0  0  0  0  0  0
    1.4777    0.4223    2.9807 H   0  0  0  1  0  0  0  0  0  0  0  0
    2.1958    0.4849    4.9109 N   0  0  0  1  0  0  0  0  0  0  0  0
    1.5524    0.1337    6.0874 C   0  0  0  1  0  0  0  0  0  0  0  0
    1.9212    0.1234    7.4294 C   0  0  0  1  0  0  0  0  0  0  0  0
    3.1576    0.5128    7.9332 N   0  0  0  1  0  0  0  0  0  0  0  0
    3.3770    0.3487    8.8741 H   0  0  0  1  0  0  0  0  0  0  0  0
    3.8094    0.9513    7.3473 H   0  0  0  1  0  0  0  0  0  0  0  0
    1.0470   -0.2878    8.3541 N   0  0  0  1  0  0  0  0  0  0  0  0
   -0.1638   -0.6929    7.9396 C   0  0  0  1  0  0  0  0  0  0  0  0
   -0.8130   -1.0089    8.6881 H   0  0  0  1  0  0  0  0  0  0  0  0
   -0.6444   -0.7446    6.7034 N   0  0  0  1  0  0  0  0  0  0  0  0
    0.2535   -0.3162    5.8150 C   0  0  0  1  0  0  0  0  0  0  0  0
  1  2  1  0  0  0  0
  1  3  1  0  0  0  0
  1  4  2  0  0  0  0
  1  8  1  0  0  0  0
  5  6  1  0  0  0  0
  5  7  2  0  0  0  0
  5  8  1  0  0  0  0
  5 12  1  0  0  0  0
  9 10  2  0  0  0  0
  9 11  1  0  0  0  0
  9 12  1  0  0  0  0
  9 13  1  0  0  0  0
 13 14  1  0  0  0  0
 14 15  1  0  0  0  0
 14 16  1  0  0  0  0
 14 17  1  0  0  0  0
 17 18  1  0  0  0  0
 17 19  1  0  0  0  0
 17 20  1  0  0  0  0
 19 28  1  0  0  0  0
 20 21  1  0  0  0  0
 20 22  1  0  0  0  0
 20 24  1  0  0  0  0
 22 23  1  0  0  0  0
 24 25  1  0  0  0  0
 24 26  1  0  0  0  0
 24 28  1  0  0  0  0
 26 27  1  0  0  0  0
 28 29  1  0  0  0  0
 28 30  1  0  0  0  0
 30 31  1  0  0  0  0
 30 43  1  0  0  0  0
 31 32  1  0  0  0  0
 31 33  2  0  0  0  0
 33 34  1  0  0  0  0
 34 35  1  0  0  0  0
 34 43  2  0  0  0  0
 35 36  1  0  0  0  0
 35 39  2  0  0  0  0
 36 37  1  0  0  0  0
 36 38  1  0  0  0  0
 39 40  1  0  0  0  0
 40 41  1  0  0  0  0
 40 42  2  0  0  0  0
 42 43  1  0  0  0  0
M  BCL ATM P_TeTeTeTePi O_Te2Te2TeTe O_Te2Te2Te2Te O_Tr2Tr2TrPi P_TeTeTeTePi O_Te2Te2TeTe O_Tr2Tr2TrPi O_Tr2TrTrPi2 P_TeTeTeTePi O_Tr2Tr2TrPi O_Te2Te2Te2Te O_Tr2TrTrPi2 O_Tr2TrTrPi2 C_TeTeTeTe H_S H_S C_TeTeTeTe H_S O_Te2Te2TeTe C_TeTeTeTe H_S O_Te2Te2TeTe H_S C_TeTeTeTe H_S O_Te2Te2TeTe H_S C_TeTeTeTe H_S N_TrTrTrPi2 C_TrTrTrPi H_S N_Tr2TrTrPi C_TrTrTrPi C_TrTrTrPi N_TrTrTrPi2 H_S H_S N_Tr2TrTrPi C_TrTrTrPi H_S N_Tr2TrTrPi C_TrTrTrPi
M  BCL BND ConjugatedSingleBond ConjugatedSingleBond ConjugatedDoubleBond ConjugatedSingleBond ConjugatedSingleBond ConjugatedDoubleBond ConjugatedSingleBond ConjugatedSingleBond ConjugatedDoubleBond ConjugatedSingleBond ConjugatedSingleBond ConjugatedSingleBond NonConjugatedSingleBond NonConjugatedSingleBond NonConjugatedSingleBond NonConjugatedSingleBond NonConjugatedSingleBond NonConjugatedSingleBondInRing NonConjugatedSingleBondInRing NonConjugatedSingleBondInRing NonConjugatedSingleBond NonConjugatedSingleBond NonConjugatedSingleBondInRing NonConjugatedSingleBond NonConjugatedSingleBond NonConjugatedSingleBond NonConjugatedSingleBondInRing NonConjugatedSingleBond NonConjugatedSingleBond NonConjugatedSingleBond AromaticSingleBond AromaticSingleBond NonConjugatedSingleBond AromaticDoubleBond AromaticSingleBond AromaticSingleBond AromaticDoubleBond ConjugatedSingleBond AromaticDoubleBond NonConjugatedSingleBond NonConjugatedSingleBond AromaticSingleBond NonConjugatedSingleBond AromaticDoubleBond AromaticSingleBond
M  BCL CHI   1   S   5   S   9   S  17   R  20   S  24   R  28   S
M  BCL DBI - - - - - - -
M  END
> <ConfClashScore>
0 

> <ConfOneFourInteractionScore>
-0.988217 

> <ConfScore>
0.0355705 

> <ConfScorePBest>
0.0099485 

> <ConfTolerance>
1.43719 

$$$$
ATP.****
  PyMOL2.5          3D                             0

 43 45  0  0  0  0  0  0  0  0999 V2000
   -0.8847   -4.9484   -2.9250 P   0  0  0  1  0  0  0  0  0  0  0  0
   -1.3188   -4.5667   -1.3902 O   0  0  0  0  0  0  0  0  0  0  0  0
   -1.9088   -6.1307   -3.3466 O   0  5  0  1  0  0  0  0  0  0  0  0
    0.4847   -5.5089   -2.8947 O   0  0  0  1  0  0  0  0  0  0  0  0
   -1.2402   -2.1446   -4.0008 P   0  0  0  1  0  0  0  0  0  0  0  0
   -0.7336   -1.7170   -5.3277 O   0  0  0  0  0  0  0  0  0  0  0  0
   -2.5851   -1.7305   -3.5392 O   0  0  0  1  0  0  0  0  0  0  0  0
   -1.1914   -3.7443   -3.9364 O   0  0  0  1  0  0  0  0  0  0  0  0
   -0.1695   -0.3561   -2.0047 P   0  0  0  1  0  0  0  0  0  0  0  0
   -0.9200    0.7737   -2.5970 O   0  0  0  1  0  0  0  0  0  0  0  0
    1.3864   -0.0186   -1.7050 O   0  5  0  1  0  0  0  0  0  0  0  0
   -0.1876   -1.7113   -2.8670 O   0  0  0  1  0  0  0  0  0  0  0  0
   -0.7148   -0.6511   -0.5584 O   0  0  0  1  0  0  0  0  0  0  0  0
   -1.5505    0.3095    0.1296 C   0  0  0  1  0  0  0  0  0  0  0  0
   -2.4721    0.4356   -0.3993 H   0  0  0  1  0  0  0  0  0  0  0  0
   -1.0453    1.2504    0.1962 H   0  0  0  1  0  0  0  0  0  0  0  0
   -1.8221   -0.2283    1.5162 C   0  0  0  1  0  0  0  0  0  0  0  0
   -2.3418   -1.1607    1.4422 H   0  0  0  1  0  0  0  0  0  0  0  0
   -0.5884   -0.3904    2.2496 O   0  0  0  1  0  0  0  0  0  0  0  0
   -2.6410    0.7867    2.3425 C   0  0  0  1  0  0  0  0  0  0  0  0
   -2.5023    1.7799    1.9693 H   0  0  0  1  0  0  0  0  0  0  0  0
   -4.0306    0.4575    2.3167 O   0  0  0  1  0  0  0  0  0  0  0  0
   -4.1521   -0.4440    2.6233 H   0  0  0  1  0  0  0  0  0  0  0  0
   -2.0720    0.6540    3.7745 C   0  0  0  1  0  0  0  0  0  0  0  0
   -1.6558    1.5823    4.1060 H   0  0  0  1  0  0  0  0  0  0  0  0
   -3.0870    0.2335    4.6872 O   0  0  0  1  0  0  0  0  0  0  0  0
   -3.5385   -0.5358    4.3323 H   0  0  0  1  0  0  0  0  0  0  0  0
   -0.9736   -0.4234    3.6403 C   0  0  0  1  0  0  0  0  0  0  0  0
   -1.3581   -1.3872    3.9015 H   0  0  0  1  0  0  0  0  0  0  0  0
    0.1687   -0.1038    4.4987 N   0  0  0  1  0  0  0  0  0  0  0  0
    0.5685   -0.8451    5.5681 C   0  0  0  1  0  0  0  0  0  0  0  0
    0.0831   -1.7186    5.8558 H   0  0  0  1  0  0  0  0  0  0  0  0
    1.6072   -0.3769    6.2051 N   0  0  0  1  0  0  0  0  0  0  0  0
    1.9336    0.7687    5.4962 C   0  0  0  1  0  0  0  0  0  0  0  0
    2.9158    1.7456    5.6296 C   0  0  0  1  0  0  0  0  0  0  0  0
    3.8951    1.7809    6.6164 N   0  0  0  1  0  0  0  0  0  0  0  0
    4.5892    2.4724    6.5934 H   0  0  0  1  0  0  0  0  0  0  0  0
    3.8912    1.1143    7.3348 H   0  0  0  1  0  0  0  0  0  0  0  0
    2.9652    2.7595    4.7589 N   0  0  0  1  0  0  0  0  0  0  0  0
    2.0412    2.7992    3.7859 C   0  0  0  1  0  0  0  0  0  0  0  0
    2.1109    3.6049    3.1320 H   0  0  0  1  0  0  0  0  0  0  0  0
    1.0506    1.9489    3.5458 N   0  0  0  1  0  0  0  0  0  0  0  0
    1.0441    0.9490    4.4284 C   0  0  0  1  0  0  0  0  0  0  0  0
  1  2  1  0  0  0  0
  1  3  1  0  0  0  0
  1  4  2  0  0  0  0
  1  8  1  0  0  0  0
  5  6  1  0  0  0  0
  5  7  2  0  0  0  0
  5  8  1  0  0  0  0
  5 12  1  0  0  0  0
  9 10  2  0  0  0  0
  9 11  1  0  0  0  0
  9 12  1  0  0  0  0
  9 13  1  0  0  0  0
 13 14  1  0  0  0  0
 14 15  1  0  0  0  0
 14 16  1  0  0  0  0
 14 17  1  0  0  0  0
 17 18  1  0  0  0  0
 17 19  1  0  0  0  0
 17 20  1  0  0  0  0
 19 28  1  0  0  0  0
 20 21  1  0  0  0  0
 20 22  1  0  0  0  0
 20 24  1  0  0  0  0
 22 23  1  0  0  0  0
 24 25  1  0  0  0  0
 24 26  1  0  0  0  0
 24 28  1  0  0  0  0
 26 27  1  0  0  0  0
 28 29  1  0  0  0  0
 28 30  1  0  0  0  0
 30 31  1  0  0  0  0
 30 43  1  0  0  0  0
 31 32  1  0  0  0  0
 31 33  2  0  0  0  0
 33 34  1  0  0  0  0
 34 35  1  0  0  0  0
 34 43  2  0  0  0  0
 35 36  1  0  0  0  0
 35 39  2  0  0  0  0
 36 37  1  0  0  0  0
 36 38  1  0  0  0  0
 39 40  1  0  0  0  0
 40 41  1  0  0  0  0
 40 42  2  0  0  0  0
 42 43  1  0  0  0  0
M  BCL ATM P_TeTeTeTePi O_Te2Te2TeTe O_Te2Te2Te2Te O_Tr2Tr2TrPi P_TeTeTeTePi O_Te2Te2TeTe O_Tr2Tr2TrPi O_Tr2TrTrPi2 P_TeTeTeTePi O_Tr2Tr2TrPi O_Te2Te2Te2Te O_Tr2TrTrPi2 O_Tr2TrTrPi2 C_TeTeTeTe H_S H_S C_TeTeTeTe H_S O_Te2Te2TeTe C_TeTeTeTe H_S O_Te2Te2TeTe H_S C_TeTeTeTe H_S O_Te2Te2TeTe H_S C_TeTeTeTe H_S N_TrTrTrPi2 C_TrTrTrPi H_S N_Tr2TrTrPi C_TrTrTrPi C_TrTrTrPi N_TrTrTrPi2 H_S H_S N_Tr2TrTrPi C_TrTrTrPi H_S N_Tr2TrTrPi C_TrTrTrPi
M  BCL BND ConjugatedSingleBond ConjugatedSingleBond ConjugatedDoubleBond ConjugatedSingleBond ConjugatedSingleBond ConjugatedDoubleBond ConjugatedSingleBond ConjugatedSingleBond ConjugatedDoubleBond ConjugatedSingleBond ConjugatedSingleBond ConjugatedSingleBond NonConjugatedSingleBond NonConjugatedSingleBond NonConjugatedSingleBond NonConjugatedSingleBond NonConjugatedSingleBond NonConjugatedSingleBondInRing NonConjugatedSingleBondInRing NonConjugatedSingleBondInRing NonConjugatedSingleBond NonConjugatedSingleBond NonConjugatedSingleBondInRing NonConjugatedSingleBond NonConjugatedSingleBond NonConjugatedSingleBond NonConjugatedSingleBondInRing NonConjugatedSingleBond NonConjugatedSingleBond NonConjugatedSingleBond AromaticSingleBond AromaticSingleBond NonConjugatedSingleBond AromaticDoubleBond AromaticSingleBond AromaticSingleBond AromaticDoubleBond ConjugatedSingleBond AromaticDoubleBond NonConjugatedSingleBond NonConjugatedSingleBond AromaticSingleBond NonConjugatedSingleBond AromaticDoubleBond AromaticSingleBond
M  BCL CHI   1   S   5   S   9   S  17   R  20   S  24   R  28   S
M  BCL DBI - - - - - - -
M  END
> <ConfClashScore>
0 

> <ConfOneFourInteractionScore>
-0.981204 

> <ConfScore>
0.0371504 

> <ConfScorePBest>
0.0098455 

> <ConfTolerance>
1.31463 

$$$$
ATP.****
  PyMOL2.5          3D                             0

 43 45  0  0  0  0  0  0  0  0999 V2000
    0.8864    1.2087   -5.9852 P   0  0  0  1  0  0  0  0  0  0  0  0
   -0.1082    0.0389   -6.5611 O   0  0  0  0  0  0  0  0  0  0  0  0
    0.0547    2.5986   -6.0157 O   0  5  0  1  0  0  0  0  0  0  0  0
    2.1811    1.2348   -6.7016 O   0  0  0  1  0  0  0  0  0  0  0  0
    2.4957    0.6531   -3.6190 P   0  0  0  1  0  0  0  0  0  0  0  0
    3.0684   -0.6706   -3.9747 O   0  0  0  0  0  0  0  0  0  0  0  0
    3.3491    1.8539   -3.6669 O   0  0  0  1  0  0  0  0  0  0  0  0
    1.1301    0.9027   -4.4301 O   0  0  0  1  0  0  0  0  0  0  0  0
    0.9371    1.4648   -1.1574 P   0  0  0  1  0  0  0  0  0  0  0  0
    0.1788    2.6952   -1.4758 O   0  0  0  1  0  0  0  0  0  0  0  0
    2.0844    1.9407   -0.1174 O   0  5  0  1  0  0  0  0  0  0  0  0
    1.7226    0.5576   -2.2190 O   0  0  0  1  0  0  0  0  0  0  0  0
    0.0943    0.5363   -0.2123 O   0  0  0  1  0  0  0  0  0  0  0  0
   -0.9763    1.0283    0.6348 C   0  0  0  1  0  0  0  0  0  0  0  0
   -1.7086    1.5187    0.0281 H   0  0  0  1  0  0  0  0  0  0  0  0
   -0.5747    1.7235    1.3421 H   0  0  0  1  0  0  0  0  0  0  0  0
   -1.6292   -0.1143    1.3763 C   0  0  0  1  0  0  0  0  0  0  0  0
   -1.9998   -0.8308    0.6734 H   0  0  0  1  0  0  0  0  0  0  0  0
   -0.6724   -0.7405    2.2682 O   0  0  0  1  0  0  0  0  0  0  0  0
   -2.7767    0.4108    2.2478 C   0  0  0  1  0  0  0  0  0  0  0  0
   -3.1116    1.3677    1.9056 H   0  0  0  1  0  0  0  0  0  0  0  0
   -3.8629   -0.4945    2.2555 O   0  0  0  1  0  0  0  0  0  0  0  0
   -4.2420   -0.5327    3.1367 H   0  0  0  1  0  0  0  0  0  0  0  0
   -2.1385    0.5164    3.6389 C   0  0  0  1  0  0  0  0  0  0  0  0
   -1.6886    1.4758    3.7877 H   0  0  0  1  0  0  0  0  0  0  0  0
   -3.0948    0.2759    4.6651 O   0  0  0  1  0  0  0  0  0  0  0  0
   -3.4542    1.1121    4.9705 H   0  0  0  1  0  0  0  0  0  0  0  0
   -1.0753   -0.5983    3.5935 C   0  0  0  1  0  0  0  0  0  0  0  0
   -1.4942   -1.5168    3.9481 H   0  0  0  1  0  0  0  0  0  0  0  0
    0.0716   -0.2294    4.4276 N   0  0  0  1  0  0  0  0  0  0  0  0
    1.3013    0.1634    3.9960 C   0  0  0  1  0  0  0  0  0  0  0  0
    1.5180    0.3178    2.9906 H   0  0  0  1  0  0  0  0  0  0  0  0
    2.1880    0.3318    4.9389 N   0  0  0  1  0  0  0  0  0  0  0  0
    1.4891    0.0347    6.0986 C   0  0  0  1  0  0  0  0  0  0  0  0
    1.8208    0.0008    7.4498 C   0  0  0  1  0  0  0  0  0  0  0  0
    3.0883    0.3126    7.8659 N   0  0  0  1  0  0  0  0  0  0  0  0
    3.3044    0.3115    8.8218 H   0  0  0  1  0  0  0  0  0  0  0  0
    3.7789    0.5367    7.2077 H   0  0  0  1  0  0  0  0  0  0  0  0
    0.8938   -0.3394    8.3518 N   0  0  0  1  0  0  0  0  0  0  0  0
   -0.3332   -0.6522    7.9060 C   0  0  0  1  0  0  0  0  0  0  0  0
   -1.0240   -0.9151    8.6376 H   0  0  0  1  0  0  0  0  0  0  0  0
   -0.7838   -0.6712    6.6576 N   0  0  0  1  0  0  0  0  0  0  0  0
    0.1671   -0.3155    5.7926 C   0  0  0  1  0  0  0  0  0  0  0  0
  1  2  1  0  0  0  0
  1  3  1  0  0  0  0
  1  4  2  0  0  0  0
  1  8  1  0  0  0  0
  5  6  1  0  0  0  0
  5  7  2  0  0  0  0
  5  8  1  0  0  0  0
  5 12  1  0  0  0  0
  9 10  2  0  0  0  0
  9 11  1  0  0  0  0
  9 12  1  0  0  0  0
  9 13  1  0  0  0  0
 13 14  1  0  0  0  0
 14 15  1  0  0  0  0
 14 16  1  0  0  0  0
 14 17  1  0  0  0  0
 17 18  1  0  0  0  0
 17 19  1  0  0  0  0
 17 20  1  0  0  0  0
 19 28  1  0  0  0  0
 20 21  1  0  0  0  0
 20 22  1  0  0  0  0
 20 24  1  0  0  0  0
 22 23  1  0  0  0  0
 24 25  1  0  0  0  0
 24 26  1  0  0  0  0
 24 28  1  0  0  0  0
 26 27  1  0  0  0  0
 28 29  1  0  0  0  0
 28 30  1  0  0  0  0
 30 31  1  0  0  0  0
 30 43  1  0  0  0  0
 31 32  1  0  0  0  0
 31 33  2  0  0  0  0
 33 34  1  0  0  0  0
 34 35  1  0  0  0  0
 34 43  2  0  0  0  0
 35 36  1  0  0  0  0
 35 39  2  0  0  0  0
 36 37  1  0  0  0  0
 36 38  1  0  0  0  0
 39 40  1  0  0  0  0
 40 41  1  0  0  0  0
 40 42  2  0  0  0  0
 42 43  1  0  0  0  0
M  BCL ATM P_TeTeTeTePi O_Te2Te2TeTe O_Te2Te2Te2Te O_Tr2Tr2TrPi P_TeTeTeTePi O_Te2Te2TeTe O_Tr2Tr2TrPi O_Tr2TrTrPi2 P_TeTeTeTePi O_Tr2Tr2TrPi O_Te2Te2Te2Te O_Tr2TrTrPi2 O_Tr2TrTrPi2 C_TeTeTeTe H_S H_S C_TeTeTeTe H_S O_Te2Te2TeTe C_TeTeTeTe H_S O_Te2Te2TeTe H_S C_TeTeTeTe H_S O_Te2Te2TeTe H_S C_TeTeTeTe H_S N_TrTrTrPi2 C_TrTrTrPi H_S N_Tr2TrTrPi C_TrTrTrPi C_TrTrTrPi N_TrTrTrPi2 H_S H_S N_Tr2TrTrPi C_TrTrTrPi H_S N_Tr2TrTrPi C_TrTrTrPi
M  BCL BND ConjugatedSingleBond ConjugatedSingleBond ConjugatedDoubleBond ConjugatedSingleBond ConjugatedSingleBond ConjugatedDoubleBond ConjugatedSingleBond ConjugatedSingleBond ConjugatedDoubleBond ConjugatedSingleBond ConjugatedSingleBond ConjugatedSingleBond NonConjugatedSingleBond NonConjugatedSingleBond NonConjugatedSingleBond NonConjugatedSingleBond NonConjugatedSingleBond NonConjugatedSingleBondInRing NonConjugatedSingleBondInRing NonConjugatedSingleBondInRing NonConjugatedSingleBond NonConjugatedSingleBond NonConjugatedSingleBondInRing NonConjugatedSingleBond NonConjugatedSingleBond NonConjugatedSingleBond NonConjugatedSingleBondInRing NonConjugatedSingleBond NonConjugatedSingleBond NonConjugatedSingleBond AromaticSingleBond AromaticSingleBond NonConjugatedSingleBond AromaticDoubleBond AromaticSingleBond AromaticSingleBond AromaticDoubleBond ConjugatedSingleBond AromaticDoubleBond NonConjugatedSingleBond NonConjugatedSingleBond AromaticSingleBond NonConjugatedSingleBond AromaticDoubleBond AromaticSingleBond
M  BCL CHI   1   S   5   S   9   S  17   R  20   S  24   R  28   S
M  BCL DBI - - - - - - -
M  END
> <ConfClashScore>
0 

> <ConfOneFourInteractionScore>
-0.981204 

> <ConfScore>
0.0380264 

> <ConfScorePBest>
0.0097425 

> <ConfTolerance>
1.25137 

$$$$
ATP.****
  PyMOL2.5          3D                             0

 43 45  0  0  0  0  0  0  0  0999 V2000
   -3.6592    4.1436   -2.8857 P   0  0  0  1  0  0  0  0  0  0  0  0
   -2.7120    4.1603   -4.2244 O   0  0  0  0  0  0  0  0  0  0  0  0
   -4.5107    5.5218   -2.8898 O   0  5  0  1  0  0  0  0  0  0  0  0
   -2.9158    3.9565   -1.6197 O   0  0  0  1  0  0  0  0  0  0  0  0
   -4.6813    1.5976   -3.8708 P   0  0  0  1  0  0  0  0  0  0  0  0
   -6.0317    1.1110   -4.2446 O   0  0  0  0  0  0  0  0  0  0  0  0
   -3.6785    1.7627   -4.9237 O   0  0  0  1  0  0  0  0  0  0  0  0
   -4.7646    2.9999   -3.0887 O   0  0  0  1  0  0  0  0  0  0  0  0
   -2.5420    0.6337   -2.2215 P   0  0  0  1  0  0  0  0  0  0  0  0
   -1.9321    1.9805   -2.2886 O   0  0  0  1  0  0  0  0  0  0  0  0
   -1.8039   -0.4974   -3.1160 O   0  5  0  1  0  0  0  0  0  0  0  0
   -4.0821    0.6300   -2.7212 O   0  0  0  1  0  0  0  0  0  0  0  0
   -2.5703    0.2274   -0.7015 O   0  0  0  1  0  0  0  0  0  0  0  0
   -1.3539    0.2216    0.0897 C   0  0  0  1  0  0  0  0  0  0  0  0
   -0.9687    1.2164    0.1731 H   0  0  0  1  0  0  0  0  0  0  0  0
   -0.6218   -0.4074   -0.3721 H   0  0  0  1  0  0  0  0  0  0  0  0
   -1.7003   -0.3123    1.4596 C   0  0  0  1  0  0  0  0  0  0  0  0
   -2.1374   -1.2843    1.3640 H   0  0  0  1  0  0  0  0  0  0  0  0
   -0.5254   -0.3629    2.2980 O   0  0  0  1  0  0  0  0  0  0  0  0
   -2.6640    0.6479    2.1897 C   0  0  0  1  0  0  0  0  0  0  0  0
   -2.5718    1.6426    1.8063 H   0  0  0  1  0  0  0  0  0  0  0  0
   -4.0163    0.2083    2.0547 O   0  0  0  1  0  0  0  0  0  0  0  0
   -4.5161    0.4654    2.8330 H   0  0  0  1  0  0  0  0  0  0  0  0
   -2.2115    0.5851    3.6673 C   0  0  0  1  0  0  0  0  0  0  0  0
   -1.8991    1.5492    4.0108 H   0  0  0  1  0  0  0  0  0  0  0  0
   -3.2651    0.1003    4.5010 O   0  0  0  1  0  0  0  0  0  0  0  0
   -2.9176   -0.5596    5.1054 H   0  0  0  1  0  0  0  0  0  0  0  0
   -1.0248   -0.4032    3.6516 C   0  0  0  1  0  0  0  0  0  0  0  0
   -1.3537   -1.3901    3.9021 H   0  0  0  1  0  0  0  0  0  0  0  0
    0.0121    0.0215    4.5965 N   0  0  0  1  0  0  0  0  0  0  0  0
    1.3500    0.1735    4.3970 C   0  0  0  1  0  0  0  0  0  0  0  0
    1.8021   -0.0051    3.4776 H   0  0  0  1  0  0  0  0  0  0  0  0
    2.0228    0.5605    5.4465 N   0  0  0  1  0  0  0  0  0  0  0  0
    1.0509    0.6857    6.4270 C   0  0  0  1  0  0  0  0  0  0  0  0
    1.0694    1.0461    7.7712 C   0  0  0  1  0  0  0  0  0  0  0  0
    2.1993    1.4024    8.4994 N   0  0  0  1  0  0  0  0  0  0  0  0
    2.1095    1.7009    9.4285 H   0  0  0  1  0  0  0  0  0  0  0  0
    3.0854    1.3549    8.0835 H   0  0  0  1  0  0  0  0  0  0  0  0
   -0.0721    1.0673    8.4677 N   0  0  0  1  0  0  0  0  0  0  0  0
   -1.2032    0.7208    7.8331 C   0  0  0  1  0  0  0  0  0  0  0  0
   -2.0682    0.7460    8.4098 H   0  0  0  1  0  0  0  0  0  0  0  0
   -1.3665    0.3503    6.5690 N   0  0  0  1  0  0  0  0  0  0  0  0
   -0.2078    0.3535    5.9084 C   0  0  0  1  0  0  0  0  0  0  0  0
  1  2  1  0  0  0  0
  1  3  1  0  0  0  0
  1  4  2  0  0  0  0
  1  8  1  0  0  0  0
  5  6  1  0  0  0  0
  5  7  2  0  0  0  0
  5  8  1  0  0  0  0
  5 12  1  0  0  0  0
  9 10  2  0  0  0  0
  9 11  1  0  0  0  0
  9 12  1  0  0  0  0
  9 13  1  0  0  0  0
 13 14  1  0  0  0  0
 14 15  1  0  0  0  0
 14 16  1  0  0  0  0
 14 17  1  0  0  0  0
 17 18  1  0  0  0  0
 17 19  1  0  0  0  0
 17 20  1  0  0  0  0
 19 28  1  0  0  0  0
 20 21  1  0  0  0  0
 20 22  1  0  0  0  0
 20 24  1  0  0  0  0
 22 23  1  0  0  0  0
 24 25  1  0  0  0  0
 24 26  1  0  0  0  0
 24 28  1  0  0  0  0
 26 27  1  0  0  0  0
 28 29  1  0  0  0  0
 28 30  1  0  0  0  0
 30 31  1  0  0  0  0
 30 43  1  0  0  0  0
 31 32  1  0  0  0  0
 31 33  2  0  0  0  0
 33 34  1  0  0  0  0
 34 35  1  0  0  0  0
 34 43  2  0  0  0  0
 35 36  1  0  0  0  0
 35 39  2  0  0  0  0
 36 37  1  0  0  0  0
 36 38  1  0  0  0  0
 39 40  1  0  0  0  0
 40 41  1  0  0  0  0
 40 42  2  0  0  0  0
 42 43  1  0  0  0  0
M  BCL ATM P_TeTeTeTePi O_Te2Te2TeTe O_Te2Te2Te2Te O_Tr2Tr2TrPi P_TeTeTeTePi O_Te2Te2TeTe O_Tr2Tr2TrPi O_Tr2TrTrPi2 P_TeTeTeTePi O_Tr2Tr2TrPi O_Te2Te2Te2Te O_Tr2TrTrPi2 O_Tr2TrTrPi2 C_TeTeTeTe H_S H_S C_TeTeTeTe H_S O_Te2Te2TeTe C_TeTeTeTe H_S O_Te2Te2TeTe H_S C_TeTeTeTe H_S O_Te2Te2TeTe H_S C_TeTeTeTe H_S N_TrTrTrPi2 C_TrTrTrPi H_S N_Tr2TrTrPi C_TrTrTrPi C_TrTrTrPi N_TrTrTrPi2 H_S H_S N_Tr2TrTrPi C_TrTrTrPi H_S N_Tr2TrTrPi C_TrTrTrPi
M  BCL BND ConjugatedSingleBond ConjugatedSingleBond ConjugatedDoubleBond ConjugatedSingleBond ConjugatedSingleBond ConjugatedDoubleBond ConjugatedSingleBond ConjugatedSingleBond ConjugatedDoubleBond ConjugatedSingleBond ConjugatedSingleBond ConjugatedSingleBond NonConjugatedSingleBond NonConjugatedSingleBond NonConjugatedSingleBond NonConjugatedSingleBond NonConjugatedSingleBond NonConjugatedSingleBondInRing NonConjugatedSingleBondInRing NonConjugatedSingleBondInRing NonConjugatedSingleBond NonConjugatedSingleBond NonConjugatedSingleBondInRing NonConjugatedSingleBond NonConjugatedSingleBond NonConjugatedSingleBond NonConjugatedSingleBondInRing NonConjugatedSingleBond NonConjugatedSingleBond NonConjugatedSingleBond AromaticSingleBond AromaticSingleBond NonConjugatedSingleBond AromaticDoubleBond AromaticSingleBond AromaticSingleBond AromaticDoubleBond ConjugatedSingleBond AromaticDoubleBond NonConjugatedSingleBond NonConjugatedSingleBond AromaticSingleBond NonConjugatedSingleBond AromaticDoubleBond AromaticSingleBond
M  BCL CHI   1   S   5   S   9   S  17   R  20   S  24   R  28   S
M  BCL DBI - - - - - - -
M  END
> <ConfClashScore>
0 

> <ConfOneFourInteractionScore>
-0.981204 

> <ConfScore>
0.038489 

> <ConfScorePBest>
0.0096395 

> <ConfTolerance>
1.30691 

$$$$
ATP.****
  PyMOL2.5          3D                             0

 43 45  0  0  0  0  0  0  0  0999 V2000
   -7.0249   -0.4222   -0.0881 P   0  0  0  1  0  0  0  0  0  0  0  0
   -6.8122   -2.0170    0.2301 O   0  0  0  0  0  0  0  0  0  0  0  0
   -6.8752    0.3471    1.3297 O   0  5  0  1  0  0  0  0  0  0  0  0
   -8.3019   -0.1138   -0.7695 O   0  0  0  1  0  0  0  0  0  0  0  0
   -5.4192    1.5292   -1.5409 P   0  0  0  1  0  0  0  0  0  0  0  0
   -6.4186    2.0329   -2.5144 O   0  0  0  0  0  0  0  0  0  0  0  0
   -5.0107    2.3674   -0.3904 O   0  0  0  1  0  0  0  0  0  0  0  0
   -5.8426    0.0544   -1.0608 O   0  0  0  1  0  0  0  0  0  0  0  0
   -2.7052    0.5478   -2.0837 P   0  0  0  1  0  0  0  0  0  0  0  0
   -1.6189    1.4462   -2.5345 O   0  0  0  1  0  0  0  0  0  0  0  0
   -2.5419   -0.7848   -2.9903 O   0  5  0  1  0  0  0  0  0  0  0  0
   -4.1488    1.1410   -2.4446 O   0  0  0  1  0  0  0  0  0  0  0  0
   -2.7605    0.1933   -0.5516 O   0  0  0  1  0  0  0  0  0  0  0  0
   -1.5471   -0.0999    0.1884 C   0  0  0  1  0  0  0  0  0  0  0  0
   -0.9250    0.7705    0.2041 H   0  0  0  1  0  0  0  0  0  0  0  0
   -1.0269   -0.9022   -0.2917 H   0  0  0  1  0  0  0  0  0  0  0  0
   -1.8783   -0.5001    1.6068 C   0  0  0  1  0  0  0  0  0  0  0  0
   -2.5175   -1.3582    1.5958 H   0  0  0  1  0  0  0  0  0  0  0  0
   -0.7093   -0.7611    2.3349 O   0  0  0  1  0  0  0  0  0  0  0  0
   -2.5416    0.6625    2.3592 C   0  0  0  1  0  0  0  0  0  0  0  0
   -2.1447    1.6040    2.0415 H   0  0  0  1  0  0  0  0  0  0  0  0
   -3.9578    0.6549    2.1736 O   0  0  0  1  0  0  0  0  0  0  0  0
   -4.3830    1.0557    2.9352 H   0  0  0  1  0  0  0  0  0  0  0  0
   -2.1804    0.3772    3.7934 C   0  0  0  1  0  0  0  0  0  0  0  0
   -2.1524    1.2789    4.3687 H   0  0  0  1  0  0  0  0  0  0  0  0
   -3.1068   -0.5361    4.3831 O   0  0  0  1  0  0  0  0  0  0  0  0
   -3.8144   -0.7210    3.7612 H   0  0  0  1  0  0  0  0  0  0  0  0
   -0.7866   -0.2481    3.6840 C   0  0  0  1  0  0  0  0  0  0  0  0
   -0.6737   -1.0405    4.3942 H   0  0  0  1  0  0  0  0  0  0  0  0
    0.2484    0.7613    3.9098 N   0  0  0  1  0  0  0  0  0  0  0  0
    0.4404    1.9117    3.2081 C   0  0  0  1  0  0  0  0  0  0  0  0
   -0.1694    2.1899    2.4128 H   0  0  0  1  0  0  0  0  0  0  0  0
    1.4474    2.6394    3.6084 N   0  0  0  1  0  0  0  0  0  0  0  0
    1.9661    1.9184    4.6726 C   0  0  0  1  0  0  0  0  0  0  0  0
    3.0371    2.1057    5.5414 C   0  0  0  1  0  0  0  0  0  0  0  0
    3.9407    3.1722    5.5611 N   0  0  0  1  0  0  0  0  0  0  0  0
    4.6701    3.1844    6.2154 H   0  0  0  1  0  0  0  0  0  0  0  0
    3.8446    3.9077    4.9206 H   0  0  0  1  0  0  0  0  0  0  0  0
    3.2870    1.1979    6.4912 N   0  0  0  1  0  0  0  0  0  0  0  0
    2.4891    0.1204    6.5575 C   0  0  0  1  0  0  0  0  0  0  0  0
    2.7186   -0.5638    7.3064 H   0  0  0  1  0  0  0  0  0  0  0  0
    1.4468   -0.1897    5.7964 N   0  0  0  1  0  0  0  0  0  0  0  0
    1.2257    0.7453    4.8713 C   0  0  0  1  0  0  0  0  0  0  0  0
  1  2  1  0  0  0  0
  1  3  1  0  0  0  0
  1  4  2  0  0  0  0
  1  8  1  0  0  0  0
  5  6  1  0  0  0  0
  5  7  2  0  0  0  0
  5  8  1  0  0  0  0
  5 12  1  0  0  0  0
  9 10  2  0  0  0  0
  9 11  1  0  0  0  0
  9 12  1  0  0  0  0
  9 13  1  0  0  0  0
 13 14  1  0  0  0  0
 14 15  1  0  0  0  0
 14 16  1  0  0  0  0
 14 17  1  0  0  0  0
 17 18  1  0  0  0  0
 17 19  1  0  0  0  0
 17 20  1  0  0  0  0
 19 28  1  0  0  0  0
 20 21  1  0  0  0  0
 20 22  1  0  0  0  0
 20 24  1  0  0  0  0
 22 23  1  0  0  0  0
 24 25  1  0  0  0  0
 24 26  1  0  0  0  0
 24 28  1  0  0  0  0
 26 27  1  0  0  0  0
 28 29  1  0  0  0  0
 28 30  1  0  0  0  0
 30 31  1  0  0  0  0
 30 43  1  0  0  0  0
 31 32  1  0  0  0  0
 31 33  2  0  0  0  0
 33 34  1  0  0  0  0
 34 35  1  0  0  0  0
 34 43  2  0  0  0  0
 35 36  1  0  0  0  0
 35 39  2  0  0  0  0
 36 37  1  0  0  0  0
 36 38  1  0  0  0  0
 39 40  1  0  0  0  0
 40 41  1  0  0  0  0
 40 42  2  0  0  0  0
 42 43  1  0  0  0  0
M  BCL ATM P_TeTeTeTePi O_Te2Te2TeTe O_Te2Te2Te2Te O_Tr2Tr2TrPi P_TeTeTeTePi O_Te2Te2TeTe O_Tr2Tr2TrPi O_Tr2TrTrPi2 P_TeTeTeTePi O_Tr2Tr2TrPi O_Te2Te2Te2Te O_Tr2TrTrPi2 O_Tr2TrTrPi2 C_TeTeTeTe H_S H_S C_TeTeTeTe H_S O_Te2Te2TeTe C_TeTeTeTe H_S O_Te2Te2TeTe H_S C_TeTeTeTe H_S O_Te2Te2TeTe H_S C_TeTeTeTe H_S N_TrTrTrPi2 C_TrTrTrPi H_S N_Tr2TrTrPi C_TrTrTrPi C_TrTrTrPi N_TrTrTrPi2 H_S H_S N_Tr2TrTrPi C_TrTrTrPi H_S N_Tr2TrTrPi C_TrTrTrPi
M  BCL BND ConjugatedSingleBond ConjugatedSingleBond ConjugatedDoubleBond ConjugatedSingleBond ConjugatedSingleBond ConjugatedDoubleBond ConjugatedSingleBond ConjugatedSingleBond ConjugatedDoubleBond ConjugatedSingleBond ConjugatedSingleBond ConjugatedSingleBond NonConjugatedSingleBond NonConjugatedSingleBond NonConjugatedSingleBond NonConjugatedSingleBond NonConjugatedSingleBond NonConjugatedSingleBondInRing NonConjugatedSingleBondInRing NonConjugatedSingleBondInRing NonConjugatedSingleBond NonConjugatedSingleBond NonConjugatedSingleBondInRing NonConjugatedSingleBond NonConjugatedSingleBond NonConjugatedSingleBond NonConjugatedSingleBondInRing NonConjugatedSingleBond NonConjugatedSingleBond NonConjugatedSingleBond AromaticSingleBond AromaticSingleBond NonConjugatedSingleBond AromaticDoubleBond AromaticSingleBond AromaticSingleBond AromaticDoubleBond ConjugatedSingleBond AromaticDoubleBond NonConjugatedSingleBond NonConjugatedSingleBond AromaticSingleBond NonConjugatedSingleBond AromaticDoubleBond AromaticSingleBond
M  BCL CHI   1   S   5   S   9   S  17   R  20   S  24   R  28   S
M  BCL DBI - - - - - - -
M  END
> <ConfClashScore>
0 

> <ConfOneFourInteractionScore>
-0.986026 

> <ConfScore>
0.03915 

> <ConfScorePBest>
0.0095365 

> <ConfTolerance>
1.39065 

$$$$
ATP.****
  PyMOL2.5          3D                             0

 43 45  0  0  0  0  0  0  0  0999 V2000
    5.1643    0.8617   -0.6306 P   0  0  0  1  0  0  0  0  0  0  0  0
    6.0319    0.2277   -1.8695 O   0  0  0  0  0  0  0  0  0  0  0  0
    5.2426    2.4742   -0.7656 O   0  5  0  1  0  0  0  0  0  0  0  0
    5.7455    0.5382    0.6915 O   0  0  0  1  0  0  0  0  0  0  0  0
    2.3697    1.3572   -1.2955 P   0  0  0  1  0  0  0  0  0  0  0  0
    2.9009    2.4382   -2.2233 O   0  0  0  0  0  0  0  0  0  0  0  0
    1.3599    0.4202   -1.8746 O   0  0  0  1  0  0  0  0  0  0  0  0
    3.6036    0.5039   -0.7173 O   0  0  0  1  0  0  0  0  0  0  0  0
    0.5177    2.9171    0.5168 P   0  0  0  1  0  0  0  0  0  0  0  0
   -0.1761    3.7740   -0.4706 O   0  0  0  1  0  0  0  0  0  0  0  0
    1.1008    3.8769    1.6844 O   0  5  0  1  0  0  0  0  0  0  0  0
    1.7979    2.1026    0.0023 O   0  0  0  1  0  0  0  0  0  0  0  0
   -0.4335    1.8590    1.1809 O   0  0  0  1  0  0  0  0  0  0  0  0
   -1.1168    0.8233    0.4284 C   0  0  0  1  0  0  0  0  0  0  0  0
   -0.4122    0.2790   -0.1649 H   0  0  0  1  0  0  0  0  0  0  0  0
   -1.8558    1.2630   -0.2083 H   0  0  0  1  0  0  0  0  0  0  0  0
   -1.7795   -0.1050    1.4221 C   0  0  0  1  0  0  0  0  0  0  0  0
   -2.3122   -0.8696    0.8963 H   0  0  0  1  0  0  0  0  0  0  0  0
   -0.7898   -0.6942    2.2912 O   0  0  0  1  0  0  0  0  0  0  0  0
   -2.7173    0.6663    2.3086 C   0  0  0  1  0  0  0  0  0  0  0  0
   -2.8577    1.6585    1.9335 H   0  0  0  1  0  0  0  0  0  0  0  0
   -3.9809    0.0062    2.3960 O   0  0  0  1  0  0  0  0  0  0  0  0
   -3.8591   -0.8717    2.7648 H   0  0  0  1  0  0  0  0  0  0  0  0
   -2.0507    0.7008    3.6447 C   0  0  0  1  0  0  0  0  0  0  0  0
   -1.4629    1.5879    3.7560 H   0  0  0  1  0  0  0  0  0  0  0  0
   -3.0134    0.6315    4.6975 O   0  0  0  1  0  0  0  0  0  0  0  0
   -3.2156   -0.2876    4.8869 H   0  0  0  1  0  0  0  0  0  0  0  0
   -1.2013   -0.4917    3.6331 C   0  0  0  1  0  0  0  0  0  0  0  0
   -1.7539   -1.3398    3.9799 H   0  0  0  1  0  0  0  0  0  0  0  0
   -0.0339   -0.2853    4.4909 N   0  0  0  1  0  0  0  0  0  0  0  0
    0.4171    0.8965    4.9934 C   0  0  0  1  0  0  0  0  0  0  0  0
   -0.0591    1.8019    4.8061 H   0  0  0  1  0  0  0  0  0  0  0  0
    1.4924    0.8080    5.7281 N   0  0  0  1  0  0  0  0  0  0  0  0
    1.7784   -0.5484    5.7228 C   0  0  0  1  0  0  0  0  0  0  0  0
    2.7801   -1.3312    6.2893 C   0  0  0  1  0  0  0  0  0  0  0  0
    3.8475   -0.9033    7.0841 N   0  0  0  1  0  0  0  0  0  0  0  0
    3.9457    0.0470    7.3024 H   0  0  0  1  0  0  0  0  0  0  0  0
    4.4976   -1.5537    7.4229 H   0  0  0  1  0  0  0  0  0  0  0  0
    2.7809   -2.6536    6.0895 N   0  0  0  1  0  0  0  0  0  0  0  0
    1.8072   -3.1755    5.3269 C   0  0  0  1  0  0  0  0  0  0  0  0
    1.8451   -4.2060    5.1921 H   0  0  0  1  0  0  0  0  0  0  0  0
    0.8026   -2.5539    4.7217 N   0  0  0  1  0  0  0  0  0  0  0  0
    0.8323   -1.2411    4.9554 C   0  0  0  1  0  0  0  0  0  0  0  0
  1  2  1  0  0  0  0
  1  3  1  0  0  0  0
  1  4  2  0  0  0  0
  1  8  1  0  0  0  0
  5  6  1  0  0  0  0
  5  7  2  0  0  0  0
  5  8  1  0  0  0  0
  5 12  1  0  0  0  0
  9 10  2  0  0  0  0
  9 11  1  0  0  0  0
  9 12  1  0  0  0  0
  9 13  1  0  0  0  0
 13 14  1  0  0  0  0
 14 15  1  0  0  0  0
 14 16  1  0  0  0  0
 14 17  1  0  0  0  0
 17 18  1  0  0  0  0
 17 19  1  0  0  0  0
 17 20  1  0  0  0  0
 19 28  1  0  0  0  0
 20 21  1  0  0  0  0
 20 22  1  0  0  0  0
 20 24  1  0  0  0  0
 22 23  1  0  0  0  0
 24 25  1  0  0  0  0
 24 26  1  0  0  0  0
 24 28  1  0  0  0  0
 26 27  1  0  0  0  0
 28 29  1  0  0  0  0
 28 30  1  0  0  0  0
 30 31  1  0  0  0  0
 30 43  1  0  0  0  0
 31 32  1  0  0  0  0
 31 33  2  0  0  0  0
 33 34  1  0  0  0  0
 34 35  1  0  0  0  0
 34 43  2  0  0  0  0
 35 36  1  0  0  0  0
 35 39  2  0  0  0  0
 36 37  1  0  0  0  0
 36 38  1  0  0  0  0
 39 40  1  0  0  0  0
 40 41  1  0  0  0  0
 40 42  2  0  0  0  0
 42 43  1  0  0  0  0
M  BCL ATM P_TeTeTeTePi O_Te2Te2TeTe O_Te2Te2Te2Te O_Tr2Tr2TrPi P_TeTeTeTePi O_Te2Te2TeTe O_Tr2Tr2TrPi O_Tr2TrTrPi2 P_TeTeTeTePi O_Tr2Tr2TrPi O_Te2Te2Te2Te O_Tr2TrTrPi2 O_Tr2TrTrPi2 C_TeTeTeTe H_S H_S C_TeTeTeTe H_S O_Te2Te2TeTe C_TeTeTeTe H_S O_Te2Te2TeTe H_S C_TeTeTeTe H_S O_Te2Te2TeTe H_S C_TeTeTeTe H_S N_TrTrTrPi2 C_TrTrTrPi H_S N_Tr2TrTrPi C_TrTrTrPi C_TrTrTrPi N_TrTrTrPi2 H_S H_S N_Tr2TrTrPi C_TrTrTrPi H_S N_Tr2TrTrPi C_TrTrTrPi
M  BCL BND ConjugatedSingleBond ConjugatedSingleBond ConjugatedDoubleBond ConjugatedSingleBond ConjugatedSingleBond ConjugatedDoubleBond ConjugatedSingleBond ConjugatedSingleBond ConjugatedDoubleBond ConjugatedSingleBond ConjugatedSingleBond ConjugatedSingleBond NonConjugatedSingleBond NonConjugatedSingleBond NonConjugatedSingleBond NonConjugatedSingleBond NonConjugatedSingleBond NonConjugatedSingleBondInRing NonConjugatedSingleBondInRing NonConjugatedSingleBondInRing NonConjugatedSingleBond NonConjugatedSingleBond NonConjugatedSingleBondInRing NonConjugatedSingleBond NonConjugatedSingleBond NonConjugatedSingleBond NonConjugatedSingleBondInRing NonConjugatedSingleBond NonConjugatedSingleBond NonConjugatedSingleBond AromaticSingleBond AromaticSingleBond NonConjugatedSingleBond AromaticDoubleBond AromaticSingleBond AromaticSingleBond AromaticDoubleBond ConjugatedSingleBond AromaticDoubleBond NonConjugatedSingleBond NonConjugatedSingleBond AromaticSingleBond NonConjugatedSingleBond AromaticDoubleBond AromaticSingleBond
M  BCL CHI   1   S   5   S   9   S  17   R  20   S  24   R  28   S
M  BCL DBI - - - - - - -
M  END
> <ConfClashScore>
0 

> <ConfOneFourInteractionScore>
-0.991147 

> <ConfScore>
0.0418254 

> <ConfScorePBest>
0.00943349 

> <ConfTolerance>
1.34346 

$$$$
ATP.****
  PyMOL2.5          3D                             0

 43 45  0  0  0  0  0  0  0  0999 V2000
   -1.7452   -1.4806   -3.8386 P   0  0  0  1  0  0  0  0  0  0  0  0
   -2.2684   -1.5158   -5.3926 O   0  0  0  0  0  0  0  0  0  0  0  0
   -0.6477   -2.6571   -3.6499 O   0  5  0  1  0  0  0  0  0  0  0  0
   -2.8402   -1.7076   -2.8692 O   0  0  0  1  0  0  0  0  0  0  0  0
   -1.5505    1.4148   -3.2592 P   0  0  0  1  0  0  0  0  0  0  0  0
   -1.1401    2.1592   -4.5684 O   0  0  0  0  0  0  0  0  0  0  0  0
   -3.0472    1.3293   -3.1808 O   0  0  0  1  0  0  0  0  0  0  0  0
   -1.0455   -0.0914   -3.4663 O   0  0  0  1  0  0  0  0  0  0  0  0
    0.2325    1.6287   -0.8608 P   0  0  0  1  0  0  0  0  0  0  0  0
    1.1088    2.7630   -0.4918 O   0  0  0  1  0  0  0  0  0  0  0  0
    0.9432    0.2795   -1.4076 O   0  5  0  1  0  0  0  0  0  0  0  0
   -0.8473    2.0681   -1.9592 O   0  0  0  1  0  0  0  0  0  0  0  0
   -0.6044    1.0183    0.3141 O   0  0  0  1  0  0  0  0  0  0  0  0
   -1.5416   -0.0785    0.1923 C   0  0  0  1  0  0  0  0  0  0  0  0
   -1.0853   -0.9052   -0.3109 H   0  0  0  1  0  0  0  0  0  0  0  0
   -2.4116    0.2322   -0.3476 H   0  0  0  1  0  0  0  0  0  0  0  0
   -1.9081   -0.4602    1.6085 C   0  0  0  1  0  0  0  0  0  0  0  0
   -2.5892   -1.2853    1.5912 H   0  0  0  1  0  0  0  0  0  0  0  0
   -0.7616   -0.7782    2.3496 O   0  0  0  1  0  0  0  0  0  0  0  0
   -2.5206    0.7351    2.3529 C   0  0  0  1  0  0  0  0  0  0  0  0
   -2.0738    1.6552    2.0387 H   0  0  0  1  0  0  0  0  0  0  0  0
   -3.9333    0.7980    2.1517 O   0  0  0  1  0  0  0  0  0  0  0  0
   -4.3805    0.7432    2.9995 H   0  0  0  1  0  0  0  0  0  0  0  0
   -2.1898    0.4340    3.7911 C   0  0  0  1  0  0  0  0  0  0  0  0
   -2.1230    1.3339    4.3660 H   0  0  0  1  0  0  0  0  0  0  0  0
   -3.1670   -0.4311    4.3713 O   0  0  0  1  0  0  0  0  0  0  0  0
   -3.6190   -0.9155    3.6765 H   0  0  0  1  0  0  0  0  0  0  0  0
   -0.8278   -0.2603    3.6974 C   0  0  0  1  0  0  0  0  0  0  0  0
   -0.7624   -1.0564    4.4094 H   0  0  0  1  0  0  0  0  0  0  0  0
    0.2529    0.6956    3.9336 N   0  0  0  1  0  0  0  0  0  0  0  0
    0.8955    1.4546    3.0042 C   0  0  0  1  0  0  0  0  0  0  0  0
    0.6549    1.4226    1.9929 H   0  0  0  1  0  0  0  0  0  0  0  0
    1.8363    2.2255    3.4777 N   0  0  0  1  0  0  0  0  0  0  0  0
    1.8142    1.9659    4.8392 C   0  0  0  1  0  0  0  0  0  0  0  0
    2.5490    2.4276    5.9272 C   0  0  0  1  0  0  0  0  0  0  0  0
    3.5558    3.3495    5.8121 N   0  0  0  1  0  0  0  0  0  0  0  0
    4.0297    3.6600    6.6117 H   0  0  0  1  0  0  0  0  0  0  0  0
    3.8022    3.6984    4.9300 H   0  0  0  1  0  0  0  0  0  0  0  0
    2.2796    1.9659    7.1532 N   0  0  0  1  0  0  0  0  0  0  0  0
    1.3054    1.0514    7.2814 C   0  0  0  1  0  0  0  0  0  0  0  0
    1.1293    0.7145    8.2494 H   0  0  0  1  0  0  0  0  0  0  0  0
    0.5364    0.5191    6.3394 N   0  0  0  1  0  0  0  0  0  0  0  0
    0.8295    1.0140    5.1361 C   0  0  0  1  0  0  0  0  0  0  0  0
  1  2  1  0  0  0  0
  1  3  1  0  0  0  0
  1  4  2  0  0  0  0
  1  8  1  0  0  0  0
  5  6  1  0  0  0  0
  5  7  2  0  0  0  0
  5  8  1  0  0  0  0
  5 12  1  0  0  0  0
  9 10  2  0  0  0  0
  9 11  1  0  0  0  0
  9 12  1  0  0  0  0
  9 13  1  0  0  0  0
 13 14  1  0  0  0  0
 14 15  1  0  0  0  0
 14 16  1  0  0  0  0
 14 17  1  0  0  0  0
 17 18  1  0  0  0  0
 17 19  1  0  0  0  0
 17 20  1  0  0  0  0
 19 28  1  0  0  0  0
 20 21  1  0  0  0  0
 20 22  1  0  0  0  0
 20 24  1  0  0  0  0
 22 23  1  0  0  0  0
 24 25  1  0  0  0  0
 24 26  1  0  0  0  0
 24 28  1  0  0  0  0
 26 27  1  0  0  0  0
 28 29  1  0  0  0  0
 28 30  1  0  0  0  0
 30 31  1  0  0  0  0
 30 43  1  0  0  0  0
 31 32  1  0  0  0  0
 31 33  2  0  0  0  0
 33 34  1  0  0  0  0
 34 35  1  0  0  0  0
 34 43  2  0  0  0  0
 35 36  1  0  0  0  0
 35 39  2  0  0  0  0
 36 37  1  0  0  0  0
 36 38  1  0  0  0  0
 39 40  1  0  0  0  0
 40 41  1  0  0  0  0
 40 42  2  0  0  0  0
 42 43  1  0  0  0  0
M  BCL ATM P_TeTeTeTePi O_Te2Te2TeTe O_Te2Te2Te2Te O_Tr2Tr2TrPi P_TeTeTeTePi O_Te2Te2TeTe O_Tr2Tr2TrPi O_Tr2TrTrPi2 P_TeTeTeTePi O_Tr2Tr2TrPi O_Te2Te2Te2Te O_Tr2TrTrPi2 O_Tr2TrTrPi2 C_TeTeTeTe H_S H_S C_TeTeTeTe H_S O_Te2Te2TeTe C_TeTeTeTe H_S O_Te2Te2TeTe H_S C_TeTeTeTe H_S O_Te2Te2TeTe H_S C_TeTeTeTe H_S N_TrTrTrPi2 C_TrTrTrPi H_S N_Tr2TrTrPi C_TrTrTrPi C_TrTrTrPi N_TrTrTrPi2 H_S H_S N_Tr2TrTrPi C_TrTrTrPi H_S N_Tr2TrTrPi C_TrTrTrPi
M  BCL BND ConjugatedSingleBond ConjugatedSingleBond ConjugatedDoubleBond ConjugatedSingleBond ConjugatedSingleBond ConjugatedDoubleBond ConjugatedSingleBond ConjugatedSingleBond ConjugatedDoubleBond ConjugatedSingleBond ConjugatedSingleBond ConjugatedSingleBond NonConjugatedSingleBond NonConjugatedSingleBond NonConjugatedSingleBond NonConjugatedSingleBond NonConjugatedSingleBond NonConjugatedSingleBondInRing NonConjugatedSingleBondInRing NonConjugatedSingleBondInRing NonConjugatedSingleBond NonConjugatedSingleBond NonConjugatedSingleBondInRing NonConjugatedSingleBond NonConjugatedSingleBond NonConjugatedSingleBond NonConjugatedSingleBondInRing NonConjugatedSingleBond NonConjugatedSingleBond NonConjugatedSingleBond AromaticSingleBond AromaticSingleBond NonConjugatedSingleBond AromaticDoubleBond AromaticSingleBond AromaticSingleBond AromaticDoubleBond ConjugatedSingleBond AromaticDoubleBond NonConjugatedSingleBond NonConjugatedSingleBond AromaticSingleBond NonConjugatedSingleBond AromaticDoubleBond AromaticSingleBond
M  BCL CHI   1   S   5   S   9   S  17   R  20   S  24   R  28   S
M  BCL DBI - - - - - - -
M  END
> <ConfClashScore>
0 

> <ConfOneFourInteractionScore>
-0.993038 

> <ConfScore>
0.0420361 

> <ConfScorePBest>
0.00933049 

> <ConfTolerance>
1.30761 

$$$$
ATP.****
  PyMOL2.5          3D                             0

 43 45  0  0  0  0  0  0  0  0999 V2000
   -5.3081    0.8778   -5.8156 P   0  0  0  1  0  0  0  0  0  0  0  0
   -6.8580    1.0335   -5.3027 O   0  0  0  0  0  0  0  0  0  0  0  0
   -5.1231    1.9372   -7.0271 O   0  5  0  1  0  0  0  0  0  0  0  0
   -4.9720   -0.5174   -6.1772 O   0  0  0  1  0  0  0  0  0  0  0  0
   -4.7555    1.6505   -3.0597 P   0  0  0  1  0  0  0  0  0  0  0  0
   -5.7784    2.7301   -2.8297 O   0  0  0  0  0  0  0  0  0  0  0  0
   -5.0165    0.3132   -2.4637 O   0  0  0  1  0  0  0  0  0  0  0  0
   -4.4676    1.5719   -4.6396 O   0  0  0  1  0  0  0  0  0  0  0  0
   -2.0685    1.2656   -1.9970 P   0  0  0  1  0  0  0  0  0  0  0  0
   -0.8183    2.0125   -2.2607 O   0  0  0  1  0  0  0  0  0  0  0  0
   -2.0764   -0.0826   -2.8953 O   0  5  0  1  0  0  0  0  0  0  0  0
   -3.3367    2.1259   -2.4833 O   0  0  0  1  0  0  0  0  0  0  0  0
   -2.3032    0.8619   -0.4944 O   0  0  0  1  0  0  0  0  0  0  0  0
   -1.2834    0.1492    0.2525 C   0  0  0  1  0  0  0  0  0  0  0  0
   -0.4722    0.8083    0.4818 H   0  0  0  1  0  0  0  0  0  0  0  0
   -0.9207   -0.6768   -0.3228 H   0  0  0  1  0  0  0  0  0  0  0  0
   -1.9159   -0.3515    1.5295 C   0  0  0  1  0  0  0  0  0  0  0  0
   -2.6700   -1.0736    1.2953 H   0  0  0  1  0  0  0  0  0  0  0  0
   -0.9154   -0.9374    2.3826 O   0  0  0  1  0  0  0  0  0  0  0  0
   -2.5010    0.7670    2.2769 C   0  0  0  1  0  0  0  0  0  0  0  0
   -2.0087    1.6834    2.0263 H   0  0  0  1  0  0  0  0  0  0  0  0
   -3.8962    0.8823    1.9939 O   0  0  0  1  0  0  0  0  0  0  0  0
   -4.3595    0.1205    2.3498 H   0  0  0  1  0  0  0  0  0  0  0  0
   -2.2811    0.4278    3.7438 C   0  0  0  1  0  0  0  0  0  0  0  0
   -2.2059    1.3104    4.3441 H   0  0  0  1  0  0  0  0  0  0  0  0
   -3.3236   -0.4064    4.2511 O   0  0  0  1  0  0  0  0  0  0  0  0
   -3.1095   -0.6781    5.1466 H   0  0  0  1  0  0  0  0  0  0  0  0
   -0.9478   -0.3192    3.6741 C   0  0  0  1  0  0  0  0  0  0  0  0
   -0.8953   -1.0607    4.4436 H   0  0  0  1  0  0  0  0  0  0  0  0
    0.1684    0.6157    3.8197 N   0  0  0  1  0  0  0  0  0  0  0  0
    1.0311    1.0819    2.8757 C   0  0  0  1  0  0  0  0  0  0  0  0
    0.9715    0.8008    1.8761 H   0  0  0  1  0  0  0  0  0  0  0  0
    1.9389    1.9082    3.3194 N   0  0  0  1  0  0  0  0  0  0  0  0
    1.6528    2.0090    4.6720 C   0  0  0  1  0  0  0  0  0  0  0  0
    2.2220    2.7038    5.7351 C   0  0  0  1  0  0  0  0  0  0  0  0
    3.3123    3.5215    5.5954 N   0  0  0  1  0  0  0  0  0  0  0  0
    3.7467    3.8988    6.3887 H   0  0  0  1  0  0  0  0  0  0  0  0
    3.6579    3.7290    4.7021 H   0  0  0  1  0  0  0  0  0  0  0  0
    1.6994    2.5852    6.9604 N   0  0  0  1  0  0  0  0  0  0  0  0
    0.6394    1.7766    7.1170 C   0  0  0  1  0  0  0  0  0  0  0  0
    0.2651    1.7080    8.0849 H   0  0  0  1  0  0  0  0  0  0  0  0
    0.0045    1.0527    6.2034 N   0  0  0  1  0  0  0  0  0  0  0  0
    0.5494    1.2082    4.9959 C   0  0  0  1  0  0  0  0  0  0  0  0
  1  2  1  0  0  0  0
  1  3  1  0  0  0  0
  1  4  2  0  0  0  0
  1  8  1  0  0  0  0
  5  6  1  0  0  0  0
  5  7  2  0  0  0  0
  5  8  1  0  0  0  0
  5 12  1  0  0  0  0
  9 10  2  0  0  0  0
  9 11  1  0  0  0  0
  9 12  1  0  0  0  0
  9 13  1  0  0  0  0
 13 14  1  0  0  0  0
 14 15  1  0  0  0  0
 14 16  1  0  0  0  0
 14 17  1  0  0  0  0
 17 18  1  0  0  0  0
 17 19  1  0  0  0  0
 17 20  1  0  0  0  0
 19 28  1  0  0  0  0
 20 21  1  0  0  0  0
 20 22  1  0  0  0  0
 20 24  1  0  0  0  0
 22 23  1  0  0  0  0
 24 25  1  0  0  0  0
 24 26  1  0  0  0  0
 24 28  1  0  0  0  0
 26 27  1  0  0  0  0
 28 29  1  0  0  0  0
 28 30  1  0  0  0  0
 30 31  1  0  0  0  0
 30 43  1  0  0  0  0
 31 32  1  0  0  0  0
 31 33  2  0  0  0  0
 33 34  1  0  0  0  0
 34 35  1  0  0  0  0
 34 43  2  0  0  0  0
 35 36  1  0  0  0  0
 35 39  2  0  0  0  0
 36 37  1  0  0  0  0
 36 38  1  0  0  0  0
 39 40  1  0  0  0  0
 40 41  1  0  0  0  0
 40 42  2  0  0  0  0
 42 43  1  0  0  0  0
M  BCL ATM P_TeTeTeTePi O_Te2Te2TeTe O_Te2Te2Te2Te O_Tr2Tr2TrPi P_TeTeTeTePi O_Te2Te2TeTe O_Tr2Tr2TrPi O_Tr2TrTrPi2 P_TeTeTeTePi O_Tr2Tr2TrPi O_Te2Te2Te2Te O_Tr2TrTrPi2 O_Tr2TrTrPi2 C_TeTeTeTe H_S H_S C_TeTeTeTe H_S O_Te2Te2TeTe C_TeTeTeTe H_S O_Te2Te2TeTe H_S C_TeTeTeTe H_S O_Te2Te2TeTe H_S C_TeTeTeTe H_S N_TrTrTrPi2 C_TrTrTrPi H_S N_Tr2TrTrPi C_TrTrTrPi C_TrTrTrPi N_TrTrTrPi2 H_S H_S N_Tr2TrTrPi C_TrTrTrPi H_S N_Tr2TrTrPi C_TrTrTrPi
M  BCL BND ConjugatedSingleBond ConjugatedSingleBond ConjugatedDoubleBond ConjugatedSingleBond ConjugatedSingleBond ConjugatedDoubleBond ConjugatedSingleBond ConjugatedSingleBond ConjugatedDoubleBond ConjugatedSingleBond ConjugatedSingleBond ConjugatedSingleBond NonConjugatedSingleBond NonConjugatedSingleBond NonConjugatedSingleBond NonConjugatedSingleBond NonConjugatedSingleBond NonConjugatedSingleBondInRing NonConjugatedSingleBondInRing NonConjugatedSingleBondInRing NonConjugatedSingleBond NonConjugatedSingleBond NonConjugatedSingleBondInRing NonConjugatedSingleBond NonConjugatedSingleBond NonConjugatedSingleBond NonConjugatedSingleBondInRing NonConjugatedSingleBond NonConjugatedSingleBond NonConjugatedSingleBond AromaticSingleBond AromaticSingleBond NonConjugatedSingleBond AromaticDoubleBond AromaticSingleBond AromaticSingleBond AromaticDoubleBond ConjugatedSingleBond AromaticDoubleBond NonConjugatedSingleBond NonConjugatedSingleBond AromaticSingleBond NonConjugatedSingleBond AromaticDoubleBond AromaticSingleBond
M  BCL CHI   1   S   5   S   9   S  17   R  20   S  24   R  28   S
M  BCL DBI - - - - - - -
M  END
> <ConfClashScore>
0 

> <ConfOneFourInteractionScore>
-0.981204 

> <ConfScore>
0.0421309 

> <ConfScorePBest>
0.00922749 

> <ConfTolerance>
1.35478 

$$$$
ATP.****
  PyMOL2.5          3D                             0

 43 45  0  0  0  0  0  0  0  0999 V2000
    2.6084    5.5978    0.0127 P   0  0  0  1  0  0  0  0  0  0  0  0
    3.5021    4.6950    1.0499 O   0  0  0  0  0  0  0  0  0  0  0  0
    3.4404    6.9423   -0.3402 O   0  5  0  1  0  0  0  0  0  0  0  0
    1.2598    5.9517    0.5091 O   0  0  0  1  0  0  0  0  0  0  0  0
    2.3735    3.2196   -1.6939 P   0  0  0  1  0  0  0  0  0  0  0  0
    1.7837    3.2255   -3.1075 O   0  0  0  0  0  0  0  0  0  0  0  0
    3.5852    2.3893   -1.5635 O   0  0  0  1  0  0  0  0  0  0  0  0
    2.6462    4.7623   -1.3590 O   0  0  0  1  0  0  0  0  0  0  0  0
   -0.0616    1.8430   -0.9816 P   0  0  0  1  0  0  0  0  0  0  0  0
    0.1640    0.8862   -2.0879 O   0  0  0  1  0  0  0  0  0  0  0  0
   -1.2599    2.8957   -1.2650 O   0  5  0  1  0  0  0  0  0  0  0  0
    1.2848    2.6558   -0.6547 O   0  0  0  1  0  0  0  0  0  0  0  0
   -0.4509    1.0288    0.3179 O   0  0  0  1  0  0  0  0  0  0  0  0
   -1.3978   -0.0640    0.1960 C   0  0  0  1  0  0  0  0  0  0  0  0
   -0.9326   -0.8773   -0.3207 H   0  0  0  1  0  0  0  0  0  0  0  0
   -2.2510    0.2692   -0.3572 H   0  0  0  1  0  0  0  0  0  0  0  0
   -1.8426   -0.5320    1.5631 C   0  0  0  1  0  0  0  0  0  0  0  0
   -2.4867   -1.3799    1.4583 H   0  0  0  1  0  0  0  0  0  0  0  0
   -0.6935   -0.8611    2.3904 O   0  0  0  1  0  0  0  0  0  0  0  0
   -2.5531    0.5943    2.3126 C   0  0  0  1  0  0  0  0  0  0  0  0
   -2.1603    1.5520    2.0419 H   0  0  0  1  0  0  0  0  0  0  0  0
   -3.9612    0.5718    2.0740 O   0  0  0  1  0  0  0  0  0  0  0  0
   -4.3773    1.2990    2.5427 H   0  0  0  1  0  0  0  0  0  0  0  0
   -2.2325    0.2533    3.7450 C   0  0  0  1  0  0  0  0  0  0  0  0
   -2.3094    1.1150    4.3747 H   0  0  0  1  0  0  0  0  0  0  0  0
   -3.0935   -0.7748    4.2367 O   0  0  0  1  0  0  0  0  0  0  0  0
   -3.7849   -0.3834    4.7755 H   0  0  0  1  0  0  0  0  0  0  0  0
   -0.7971   -0.2312    3.6500 C   0  0  0  1  0  0  0  0  0  0  0  0
   -0.5849   -0.9272    4.4344 H   0  0  0  1  0  0  0  0  0  0  0  0
    0.1299    0.8977    3.7346 N   0  0  0  1  0  0  0  0  0  0  0  0
    0.9194    1.3331    2.7148 C   0  0  0  1  0  0  0  0  0  0  0  0
    0.9154    0.8875    1.7751 H   0  0  0  1  0  0  0  0  0  0  0  0
    1.6819    2.3520    3.0052 N   0  0  0  1  0  0  0  0  0  0  0  0
    1.3688    2.6254    4.3276 C   0  0  0  1  0  0  0  0  0  0  0  0
    1.8108    3.5639    5.2553 C   0  0  0  1  0  0  0  0  0  0  0  0
    2.7613    4.5080    4.9687 N   0  0  0  1  0  0  0  0  0  0  0  0
    3.2423    4.4757    4.1155 H   0  0  0  1  0  0  0  0  0  0  0  0
    2.9601    5.2156    5.6169 H   0  0  0  1  0  0  0  0  0  0  0  0
    1.2998    3.5659    6.4913 N   0  0  0  1  0  0  0  0  0  0  0  0
    0.3777    2.6381    6.7926 C   0  0  0  1  0  0  0  0  0  0  0  0
    0.0081    2.6702    7.7642 H   0  0  0  1  0  0  0  0  0  0  0  0
   -0.1263    1.6853    6.0180 N   0  0  0  1  0  0  0  0  0  0  0  0
    0.4007    1.7256    4.7934 C   0  0  0  1  0  0  0  0  0  0  0  0
  1  2  1  0  0  0  0
  1  3  1  0  0  0  0
  1  4  2  0  0  0  0
  1  8  1  0  0  0  0
  5  6  1  0  0  0  0
  5  7  2  0  0  0  0
  5  8  1  0  0  0  0
  5 12  1  0  0  0  0
  9 10  2  0  0  0  0
  9 11  1  0  0  0  0
  9 12  1  0  0  0  0
  9 13  1  0  0  0  0
 13 14  1  0  0  0  0
 14 15  1  0  0  0  0
 14 16  1  0  0  0  0
 14 17  1  0  0  0  0
 17 18  1  0  0  0  0
 17 19  1  0  0  0  0
 17 20  1  0  0  0  0
 19 28  1  0  0  0  0
 20 21  1  0  0  0  0
 20 22  1  0  0  0  0
 20 24  1  0  0  0  0
 22 23  1  0  0  0  0
 24 25  1  0  0  0  0
 24 26  1  0  0  0  0
 24 28  1  0  0  0  0
 26 27  1  0  0  0  0
 28 29  1  0  0  0  0
 28 30  1  0  0  0  0
 30 31  1  0  0  0  0
 30 43  1  0  0  0  0
 31 32  1  0  0  0  0
 31 33  2  0  0  0  0
 33 34  1  0  0  0  0
 34 35  1  0  0  0  0
 34 43  2  0  0  0  0
 35 36  1  0  0  0  0
 35 39  2  0  0  0  0
 36 37  1  0  0  0  0
 36 38  1  0  0  0  0
 39 40  1  0  0  0  0
 40 41  1  0  0  0  0
 40 42  2  0  0  0  0
 42 43  1  0  0  0  0
M  BCL ATM P_TeTeTeTePi O_Te2Te2TeTe O_Te2Te2Te2Te O_Tr2Tr2TrPi P_TeTeTeTePi O_Te2Te2TeTe O_Tr2Tr2TrPi O_Tr2TrTrPi2 P_TeTeTeTePi O_Tr2Tr2TrPi O_Te2Te2Te2Te O_Tr2TrTrPi2 O_Tr2TrTrPi2 C_TeTeTeTe H_S H_S C_TeTeTeTe H_S O_Te2Te2TeTe C_TeTeTeTe H_S O_Te2Te2TeTe H_S C_TeTeTeTe H_S O_Te2Te2TeTe H_S C_TeTeTeTe H_S N_TrTrTrPi2 C_TrTrTrPi H_S N_Tr2TrTrPi C_TrTrTrPi C_TrTrTrPi N_TrTrTrPi2 H_S H_S N_Tr2TrTrPi C_TrTrTrPi H_S N_Tr2TrTrPi C_TrTrTrPi
M  BCL BND ConjugatedSingleBond ConjugatedSingleBond ConjugatedDoubleBond ConjugatedSingleBond ConjugatedSingleBond ConjugatedDoubleBond ConjugatedSingleBond ConjugatedSingleBond ConjugatedDoubleBond ConjugatedSingleBond ConjugatedSingleBond ConjugatedSingleBond NonConjugatedSingleBond NonConjugatedSingleBond NonConjugatedSingleBond NonConjugatedSingleBond NonConjugatedSingleBond NonConjugatedSingleBondInRing NonConjugatedSingleBondInRing NonConjugatedSingleBondInRing NonConjugatedSingleBond NonConjugatedSingleBond NonConjugatedSingleBondInRing NonConjugatedSingleBond NonConjugatedSingleBond NonConjugatedSingleBond NonConjugatedSingleBondInRing NonConjugatedSingleBond NonConjugatedSingleBond NonConjugatedSingleBond AromaticSingleBond AromaticSingleBond NonConjugatedSingleBond AromaticDoubleBond AromaticSingleBond AromaticSingleBond AromaticDoubleBond ConjugatedSingleBond AromaticDoubleBond NonConjugatedSingleBond NonConjugatedSingleBond AromaticSingleBond NonConjugatedSingleBond AromaticDoubleBond AromaticSingleBond
M  BCL CHI   1   S   5   S   9   S  17   R  20   S  24   R  28   S
M  BCL DBI - - - - - - -
M  END
> <ConfClashScore>
0 

> <ConfOneFourInteractionScore>
-0.988217 

> <ConfScore>
0.0441901 

> <ConfScorePBest>
0.00912449 

> <ConfTolerance>
1.37459 

$$$$
ATP.****
  PyMOL2.5          3D                             0

 43 45  0  0  0  0  0  0  0  0999 V2000
    0.3869    4.5371    6.0294 P   0  0  0  1  0  0  0  0  0  0  0  0
    0.7669    6.1118    6.2856 O   0  0  0  0  0  0  0  0  0  0  0  0
   -1.1791    4.1877    6.2531 O   0  5  0  1  0  0  0  0  0  0  0  0
    1.3072    3.5843    6.6894 O   0  0  0  1  0  0  0  0  0  0  0  0
   -0.3251    4.5873    3.2031 P   0  0  0  1  0  0  0  0  0  0  0  0
   -1.5691    3.7439    3.2427 O   0  0  0  0  0  0  0  0  0  0  0  0
   -0.5411    6.0678    3.1348 O   0  0  0  1  0  0  0  0  0  0  0  0
    0.6350    4.3073    4.4620 O   0  0  0  1  0  0  0  0  0  0  0  0
    0.4015    3.1166    0.7674 P   0  0  0  1  0  0  0  0  0  0  0  0
    1.7653    2.6580    0.4209 O   0  0  0  1  0  0  0  0  0  0  0  0
   -0.5766    3.7428   -0.3621 O   0  5  0  1  0  0  0  0  0  0  0  0
    0.6277    4.1168    1.9982 O   0  0  0  1  0  0  0  0  0  0  0  0
   -0.4663    1.9507    1.3924 O   0  0  0  1  0  0  0  0  0  0  0  0
   -0.9636    0.9111    0.5173 C   0  0  0  1  0  0  0  0  0  0  0  0
   -0.1474    0.4399    0.0108 H   0  0  0  1  0  0  0  0  0  0  0  0
   -1.6358    1.3307   -0.2017 H   0  0  0  1  0  0  0  0  0  0  0  0
   -1.6912   -0.1005    1.3735 C   0  0  0  1  0  0  0  0  0  0  0  0
   -2.1385   -0.8433    0.7466 H   0  0  0  1  0  0  0  0  0  0  0  0
   -0.7933   -0.7055    2.2607 O   0  0  0  1  0  0  0  0  0  0  0  0
   -2.7762    0.6032    2.2040 C   0  0  0  1  0  0  0  0  0  0  0  0
   -2.9762    1.5839    1.8255 H   0  0  0  1  0  0  0  0  0  0  0  0
   -3.9854   -0.1569    2.2209 O   0  0  0  1  0  0  0  0  0  0  0  0
   -3.9779   -0.7542    2.9725 H   0  0  0  1  0  0  0  0  0  0  0  0
   -2.1441    0.6679    3.6008 C   0  0  0  1  0  0  0  0  0  0  0  0
   -1.5749    1.5658    3.7216 H   0  0  0  1  0  0  0  0  0  0  0  0
   -3.1414    0.5975    4.6142 O   0  0  0  1  0  0  0  0  0  0  0  0
   -2.8257    0.0501    5.3370 H   0  0  0  1  0  0  0  0  0  0  0  0
   -1.2481   -0.5488    3.6393 C   0  0  0  1  0  0  0  0  0  0  0  0
   -1.7944   -1.4117    3.9585 H   0  0  0  1  0  0  0  0  0  0  0  0
   -0.1140   -0.3290    4.5373 N   0  0  0  1  0  0  0  0  0  0  0  0
    1.1910   -0.1647    4.1868 C   0  0  0  1  0  0  0  0  0  0  0  0
    1.5097   -0.1750    3.1969 H   0  0  0  1  0  0  0  0  0  0  0  0
    2.0123    0.0069    5.1868 N   0  0  0  1  0  0  0  0  0  0  0  0
    1.1847   -0.0380    6.2979 C   0  0  0  1  0  0  0  0  0  0  0  0
    1.3959    0.0631    7.6699 C   0  0  0  1  0  0  0  0  0  0  0  0
    2.6261    0.2572    8.2885 N   0  0  0  1  0  0  0  0  0  0  0  0
    3.4280    0.4120    7.7468 H   0  0  0  1  0  0  0  0  0  0  0  0
    2.6912    0.2392    9.2662 H   0  0  0  1  0  0  0  0  0  0  0  0
    0.3583   -0.0277    8.5089 N   0  0  0  1  0  0  0  0  0  0  0  0
   -0.8603   -0.2299    7.9833 C   0  0  0  1  0  0  0  0  0  0  0  0
   -1.6397   -0.2990    8.6684 H   0  0  0  1  0  0  0  0  0  0  0  0
   -1.2047   -0.3535    6.7074 N   0  0  0  1  0  0  0  0  0  0  0  0
   -0.1444   -0.2458    5.9055 C   0  0  0  1  0  0  0  0  0  0  0  0
  1  2  1  0  0  0  0
  1  3  1  0  0  0  0
  1  4  2  0  0  0  0
  1  8  1  0  0  0  0
  5  6  1  0  0  0  0
  5  7  2  0  0  0  0
  5  8  1  0  0  0  0
  5 12  1  0  0  0  0
  9 10  2  0  0  0  0
  9 11  1  0  0  0  0
  9 12  1  0  0  0  0
  9 13  1  0  0  0  0
 13 14  1  0  0  0  0
 14 15  1  0  0  0  0
 14 16  1  0  0  0  0
 14 17  1  0  0  0  0
 17 18  1  0  0  0  0
 17 19  1  0  0  0  0
 17 20  1  0  0  0  0
 19 28  1  0  0  0  0
 20 21  1  0  0  0  0
 20 22  1  0  0  0  0
 20 24  1  0  0  0  0
 22 23  1  0  0  0  0
 24 25  1  0  0  0  0
 24 26  1  0  0  0  0
 24 28  1  0  0  0  0
 26 27  1  0  0  0  0
 28 29  1  0  0  0  0
 28 30  1  0  0  0  0
 30 31  1  0  0  0  0
 30 43  1  0  0  0  0
 31 32  1  0  0  0  0
 31 33  2  0  0  0  0
 33 34  1  0  0  0  0
 34 35  1  0  0  0  0
 34 43  2  0  0  0  0
 35 36  1  0  0  0  0
 35 39  2  0  0  0  0
 36 37  1  0  0  0  0
 36 38  1  0  0  0  0
 39 40  1  0  0  0  0
 40 41  1  0  0  0  0
 40 42  2  0  0  0  0
 42 43  1  0  0  0  0
M  BCL ATM P_TeTeTeTePi O_Te2Te2TeTe O_Te2Te2Te2Te O_Tr2Tr2TrPi P_TeTeTeTePi O_Te2Te2TeTe O_Tr2Tr2TrPi O_Tr2TrTrPi2 P_TeTeTeTePi O_Tr2Tr2TrPi O_Te2Te2Te2Te O_Tr2TrTrPi2 O_Tr2TrTrPi2 C_TeTeTeTe H_S H_S C_TeTeTeTe H_S O_Te2Te2TeTe C_TeTeTeTe H_S O_Te2Te2TeTe H_S C_TeTeTeTe H_S O_Te2Te2TeTe H_S C_TeTeTeTe H_S N_TrTrTrPi2 C_TrTrTrPi H_S N_Tr2TrTrPi C_TrTrTrPi C_TrTrTrPi N_TrTrTrPi2 H_S H_S N_Tr2TrTrPi C_TrTrTrPi H_S N_Tr2TrTrPi C_TrTrTrPi
M  BCL BND ConjugatedSingleBond ConjugatedSingleBond ConjugatedDoubleBond ConjugatedSingleBond ConjugatedSingleBond ConjugatedDoubleBond ConjugatedSingleBond ConjugatedSingleBond ConjugatedDoubleBond ConjugatedSingleBond ConjugatedSingleBond ConjugatedSingleBond NonConjugatedSingleBond NonConjugatedSingleBond NonConjugatedSingleBond NonConjugatedSingleBond NonConjugatedSingleBond NonConjugatedSingleBondInRing NonConjugatedSingleBondInRing NonConjugatedSingleBondInRing NonConjugatedSingleBond NonConjugatedSingleBond NonConjugatedSingleBondInRing NonConjugatedSingleBond NonConjugatedSingleBond NonConjugatedSingleBond NonConjugatedSingleBondInRing NonConjugatedSingleBond NonConjugatedSingleBond NonConjugatedSingleBond AromaticSingleBond AromaticSingleBond NonConjugatedSingleBond AromaticDoubleBond AromaticSingleBond AromaticSingleBond AromaticDoubleBond ConjugatedSingleBond AromaticDoubleBond NonConjugatedSingleBond NonConjugatedSingleBond AromaticSingleBond NonConjugatedSingleBond AromaticDoubleBond AromaticSingleBond
M  BCL CHI   1   S   5   S   9   S  17   R  20   S  24   R  28   S
M  BCL DBI - - - - - - -
M  END
> <ConfClashScore>
0 

> <ConfOneFourInteractionScore>
-0.992487 

> <ConfScore>
0.044818 

> <ConfScorePBest>
0.00902149 

> <ConfTolerance>
1.60788 

$$$$
ATP.****
  PyMOL2.5          3D                             0

 43 45  0  0  0  0  0  0  0  0999 V2000
    2.9722    0.4896    0.7371 P   0  0  0  1  0  0  0  0  0  0  0  0
    3.6238   -0.9311    0.2402 O   0  0  0  0  0  0  0  0  0  0  0  0
    4.2167    1.5219    0.6383 O   0  5  0  1  0  0  0  0  0  0  0  0
    2.5516    0.3230    2.1463 O   0  0  0  1  0  0  0  0  0  0  0  0
    1.8187    1.6649   -1.7503 P   0  0  0  1  0  0  0  0  0  0  0  0
    2.6591    2.9126   -1.7068 O   0  0  0  0  0  0  0  0  0  0  0  0
    2.0787    0.6948   -2.8471 O   0  0  0  1  0  0  0  0  0  0  0  0
    1.8784    0.9826   -0.3066 O   0  0  0  1  0  0  0  0  0  0  0  0
   -0.8906    2.6052   -0.9285 P   0  0  0  1  0  0  0  0  0  0  0  0
   -2.0993    2.7456   -1.7709 O   0  0  0  1  0  0  0  0  0  0  0  0
   -0.4579    4.0914   -0.4506 O   0  5  0  1  0  0  0  0  0  0  0  0
    0.2834    2.0628   -1.8670 O   0  0  0  1  0  0  0  0  0  0  0  0
   -1.1592    1.7021    0.3425 O   0  0  0  1  0  0  0  0  0  0  0  0
   -1.5733    0.3301    0.1430 C   0  0  0  1  0  0  0  0  0  0  0  0
   -0.8230   -0.2011   -0.4046 H   0  0  0  1  0  0  0  0  0  0  0  0
   -2.4964    0.3030   -0.3976 H   0  0  0  1  0  0  0  0  0  0  0  0
   -1.7565   -0.2970    1.5064 C   0  0  0  1  0  0  0  0  0  0  0  0
   -2.1254   -1.2951    1.3939 H   0  0  0  1  0  0  0  0  0  0  0  0
   -0.5118   -0.2942    2.2391 O   0  0  0  1  0  0  0  0  0  0  0  0
   -2.7221    0.5458    2.3673 C   0  0  0  1  0  0  0  0  0  0  0  0
   -2.7396    1.5622    2.0336 H   0  0  0  1  0  0  0  0  0  0  0  0
   -4.0438    0.0062    2.3221 O   0  0  0  1  0  0  0  0  0  0  0  0
   -4.4816    0.2977    1.5189 H   0  0  0  1  0  0  0  0  0  0  0  0
   -2.1377    0.4471    3.7959 C   0  0  0  1  0  0  0  0  0  0  0  0
   -1.8702    1.4151    4.1652 H   0  0  0  1  0  0  0  0  0  0  0  0
   -3.0740   -0.1610    4.6867 O   0  0  0  1  0  0  0  0  0  0  0  0
   -3.3004    0.4578    5.3850 H   0  0  0  1  0  0  0  0  0  0  0  0
   -0.8856   -0.4408    3.6255 C   0  0  0  1  0  0  0  0  0  0  0  0
   -1.1155   -1.4620    3.8473 H   0  0  0  1  0  0  0  0  0  0  0  0
    0.1927    0.0177    4.4999 N   0  0  0  1  0  0  0  0  0  0  0  0
    1.1447    0.9469    4.2116 C   0  0  0  1  0  0  0  0  0  0  0  0
    1.1844    1.4418    3.2978 H   0  0  0  1  0  0  0  0  0  0  0  0
    2.0040    1.1700    5.1685 N   0  0  0  1  0  0  0  0  0  0  0  0
    1.5853    0.3249    6.1844 C   0  0  0  1  0  0  0  0  0  0  0  0
    2.0464    0.0478    7.4680 C   0  0  0  1  0  0  0  0  0  0  0  0
    3.1526    0.6318    8.0756 N   0  0  0  1  0  0  0  0  0  0  0  0
    3.3663    0.4228    9.0089 H   0  0  0  1  0  0  0  0  0  0  0  0
    3.7184    1.2523    7.5705 H   0  0  0  1  0  0  0  0  0  0  0  0
    1.4050   -0.8503    8.2234 N   0  0  0  1  0  0  0  0  0  0  0  0
    0.3347   -1.4661    7.6968 C   0  0  0  1  0  0  0  0  0  0  0  0
   -0.1336   -2.1601    8.3137 H   0  0  0  1  0  0  0  0  0  0  0  0
   -0.2066   -1.3089    6.4950 N   0  0  0  1  0  0  0  0  0  0  0  0
    0.4553   -0.3982    5.7797 C   0  0  0  1  0  0  0  0  0  0  0  0
  1  2  1  0  0  0  0
  1  3  1  0  0  0  0
  1  4  2  0  0  0  0
  1  8  1  0  0  0  0
  5  6  1  0  0  0  0
  5  7  2  0  0  0  0
  5  8  1  0  0  0  0
  5 12  1  0  0  0  0
  9 10  2  0  0  0  0
  9 11  1  0  0  0  0
  9 12  1  0  0  0  0
  9 13  1  0  0  0  0
 13 14  1  0  0  0  0
 14 15  1  0  0  0  0
 14 16  1  0  0  0  0
 14 17  1  0  0  0  0
 17 18  1  0  0  0  0
 17 19  1  0  0  0  0
 17 20  1  0  0  0  0
 19 28  1  0  0  0  0
 20 21  1  0  0  0  0
 20 22  1  0  0  0  0
 20 24  1  0  0  0  0
 22 23  1  0  0  0  0
 24 25  1  0  0  0  0
 24 26  1  0  0  0  0
 24 28  1  0  0  0  0
 26 27  1  0  0  0  0
 28 29  1  0  0  0  0
 28 30  1  0  0  0  0
 30 31  1  0  0  0  0
 30 43  1  0  0  0  0
 31 32  1  0  0  0  0
 31 33  2  0  0  0  0
 33 34  1  0  0  0  0
 34 35  1  0  0  0  0
 34 43  2  0  0  0  0
 35 36  1  0  0  0  0
 35 39  2  0  0  0  0
 36 37  1  0  0  0  0
 36 38  1  0  0  0  0
 39 40  1  0  0  0  0
 40 41  1  0  0  0  0
 40 42  2  0  0  0  0
 42 43  1  0  0  0  0
M  BCL ATM P_TeTeTeTePi O_Te2Te2TeTe O_Te2Te2Te2Te O_Tr2Tr2TrPi P_TeTeTeTePi O_Te2Te2TeTe O_Tr2Tr2TrPi O_Tr2TrTrPi2 P_TeTeTeTePi O_Tr2Tr2TrPi O_Te2Te2Te2Te O_Tr2TrTrPi2 O_Tr2TrTrPi2 C_TeTeTeTe H_S H_S C_TeTeTeTe H_S O_Te2Te2TeTe C_TeTeTeTe H_S O_Te2Te2TeTe H_S C_TeTeTeTe H_S O_Te2Te2TeTe H_S C_TeTeTeTe H_S N_TrTrTrPi2 C_TrTrTrPi H_S N_Tr2TrTrPi C_TrTrTrPi C_TrTrTrPi N_TrTrTrPi2 H_S H_S N_Tr2TrTrPi C_TrTrTrPi H_S N_Tr2TrTrPi C_TrTrTrPi
M  BCL BND ConjugatedSingleBond ConjugatedSingleBond ConjugatedDoubleBond ConjugatedSingleBond ConjugatedSingleBond ConjugatedDoubleBond ConjugatedSingleBond ConjugatedSingleBond ConjugatedDoubleBond ConjugatedSingleBond ConjugatedSingleBond ConjugatedSingleBond NonConjugatedSingleBond NonConjugatedSingleBond NonConjugatedSingleBond NonConjugatedSingleBond NonConjugatedSingleBond NonConjugatedSingleBondInRing NonConjugatedSingleBondInRing NonConjugatedSingleBondInRing NonConjugatedSingleBond NonConjugatedSingleBond NonConjugatedSingleBondInRing NonConjugatedSingleBond NonConjugatedSingleBond NonConjugatedSingleBond NonConjugatedSingleBondInRing NonConjugatedSingleBond NonConjugatedSingleBond NonConjugatedSingleBond AromaticSingleBond AromaticSingleBond NonConjugatedSingleBond AromaticDoubleBond AromaticSingleBond AromaticSingleBond AromaticDoubleBond ConjugatedSingleBond AromaticDoubleBond NonConjugatedSingleBond NonConjugatedSingleBond AromaticSingleBond NonConjugatedSingleBond AromaticDoubleBond AromaticSingleBond
M  BCL CHI   1   S   5   S   9   S  17   R  20   S  24   R  28   S
M  BCL DBI - - - - - - -
M  END
> <ConfClashScore>
0 

> <ConfOneFourInteractionScore>
-0.987665 

> <ConfScore>
0.045623 

> <ConfScorePBest>
0.00891849 

> <ConfTolerance>
1.35994 

$$$$
ATP.****
  PyMOL2.5          3D                             0

 43 45  0  0  0  0  0  0  0  0999 V2000
   -3.6303    7.1340   -1.1483 P   0  0  0  1  0  0  0  0  0  0  0  0
   -4.4726    6.6643   -2.4748 O   0  0  0  0  0  0  0  0  0  0  0  0
   -4.5829    7.2426    0.1575 O   0  5  0  1  0  0  0  0  0  0  0  0
   -2.7994    8.3230   -1.4419 O   0  0  0  1  0  0  0  0  0  0  0  0
   -1.7921    5.3344    0.2678 P   0  0  0  1  0  0  0  0  0  0  0  0
   -0.6777    6.3035    0.4279 O   0  0  0  0  0  0  0  0  0  0  0  0
   -2.6777    5.0722    1.4127 O   0  0  0  1  0  0  0  0  0  0  0  0
   -2.7487    5.8095   -0.9261 O   0  0  0  1  0  0  0  0  0  0  0  0
   -1.8784    2.8320   -1.1685 P   0  0  0  1  0  0  0  0  0  0  0  0
   -0.8708    2.3845   -2.1559 O   0  0  0  1  0  0  0  0  0  0  0  0
   -3.2507    3.3850   -1.8284 O   0  5  0  1  0  0  0  0  0  0  0  0
   -1.1589    3.9647   -0.2854 O   0  0  0  1  0  0  0  0  0  0  0  0
   -2.2036    1.6850   -0.1415 O   0  0  0  1  0  0  0  0  0  0  0  0
   -1.1521    1.0670    0.6385 C   0  0  0  1  0  0  0  0  0  0  0  0
   -0.7211    1.7860    1.3036 H   0  0  0  1  0  0  0  0  0  0  0  0
   -0.3942    0.6825   -0.0115 H   0  0  0  1  0  0  0  0  0  0  0  0
   -1.7715   -0.0614    1.4315 C   0  0  0  1  0  0  0  0  0  0  0  0
   -2.2065   -0.7726    0.7607 H   0  0  0  1  0  0  0  0  0  0  0  0
   -0.7764   -0.6967    2.2538 O   0  0  0  1  0  0  0  0  0  0  0  0
   -2.8476    0.4909    2.3986 C   0  0  0  1  0  0  0  0  0  0  0  0
   -3.1754    1.4633    2.0955 H   0  0  0  1  0  0  0  0  0  0  0  0
   -3.9705   -0.3885    2.4750 O   0  0  0  1  0  0  0  0  0  0  0  0
   -3.9507   -0.9986    1.7341 H   0  0  0  1  0  0  0  0  0  0  0  0
   -2.1092    0.5513    3.7242 C   0  0  0  1  0  0  0  0  0  0  0  0
   -1.5978    1.4841    3.8391 H   0  0  0  1  0  0  0  0  0  0  0  0
   -3.0039    0.3594    4.8221 O   0  0  0  1  0  0  0  0  0  0  0  0
   -2.9706    1.1250    5.4002 H   0  0  0  1  0  0  0  0  0  0  0  0
   -1.1155   -0.6153    3.6082 C   0  0  0  1  0  0  0  0  0  0  0  0
   -1.5723   -1.5269    3.9328 H   0  0  0  1  0  0  0  0  0  0  0  0
    0.0749   -0.3515    4.4154 N   0  0  0  1  0  0  0  0  0  0  0  0
    0.6499   -1.1822    5.3275 C   0  0  0  1  0  0  0  0  0  0  0  0
    0.2066   -2.0731    5.6300 H   0  0  0  1  0  0  0  0  0  0  0  0
    1.7994   -0.7765    5.7941 N   0  0  0  1  0  0  0  0  0  0  0  0
    2.0142    0.4218    5.1311 C   0  0  0  1  0  0  0  0  0  0  0  0
    3.0263    1.3768    5.1562 C   0  0  0  1  0  0  0  0  0  0  0  0
    4.1728    1.3225    5.9414 N   0  0  0  1  0  0  0  0  0  0  0  0
    4.8594    2.0163    5.8546 H   0  0  0  1  0  0  0  0  0  0  0  0
    4.2940    0.5904    6.5815 H   0  0  0  1  0  0  0  0  0  0  0  0
    2.9358    2.4594    4.3761 N   0  0  0  1  0  0  0  0  0  0  0  0
    1.8479    2.5868    3.6001 C   0  0  0  1  0  0  0  0  0  0  0  0
    1.8130    3.4437    3.0117 H   0  0  0  1  0  0  0  0  0  0  0  0
    0.8107    1.7670    3.4823 N   0  0  0  1  0  0  0  0  0  0  0  0
    0.9458    0.6970    4.2671 C   0  0  0  1  0  0  0  0  0  0  0  0
  1  2  1  0  0  0  0
  1  3  1  0  0  0  0
  1  4  2  0  0  0  0
  1  8  1  0  0  0  0
  5  6  1  0  0  0  0
  5  7  2  0  0  0  0
  5  8  1  0  0  0  0
  5 12  1  0  0  0  0
  9 10  2  0  0  0  0
  9 11  1  0  0  0  0
  9 12  1  0  0  0  0
  9 13  1  0  0  0  0
 13 14  1  0  0  0  0
 14 15  1  0  0  0  0
 14 16  1  0  0  0  0
 14 17  1  0  0  0  0
 17 18  1  0  0  0  0
 17 19  1  0  0  0  0
 17 20  1  0  0  0  0
 19 28  1  0  0  0  0
 20 21  1  0  0  0  0
 20 22  1  0  0  0  0
 20 24  1  0  0  0  0
 22 23  1  0  0  0  0
 24 25  1  0  0  0  0
 24 26  1  0  0  0  0
 24 28  1  0  0  0  0
 26 27  1  0  0  0  0
 28 29  1  0  0  0  0
 28 30  1  0  0  0  0
 30 31  1  0  0  0  0
 30 43  1  0  0  0  0
 31 32  1  0  0  0  0
 31 33  2  0  0  0  0
 33 34  1  0  0  0  0
 34 35  1  0  0  0  0
 34 43  2  0  0  0  0
 35 36  1  0  0  0  0
 35 39  2  0  0  0  0
 36 37  1  0  0  0  0
 36 38  1  0  0  0  0
 39 40  1  0  0  0  0
 40 41  1  0  0  0  0
 40 42  2  0  0  0  0
 42 43  1  0  0  0  0
M  BCL ATM P_TeTeTeTePi O_Te2Te2TeTe O_Te2Te2Te2Te O_Tr2Tr2TrPi P_TeTeTeTePi O_Te2Te2TeTe O_Tr2Tr2TrPi O_Tr2TrTrPi2 P_TeTeTeTePi O_Tr2Tr2TrPi O_Te2Te2Te2Te O_Tr2TrTrPi2 O_Tr2TrTrPi2 C_TeTeTeTe H_S H_S C_TeTeTeTe H_S O_Te2Te2TeTe C_TeTeTeTe H_S O_Te2Te2TeTe H_S C_TeTeTeTe H_S O_Te2Te2TeTe H_S C_TeTeTeTe H_S N_TrTrTrPi2 C_TrTrTrPi H_S N_Tr2TrTrPi C_TrTrTrPi C_TrTrTrPi N_TrTrTrPi2 H_S H_S N_Tr2TrTrPi C_TrTrTrPi H_S N_Tr2TrTrPi C_TrTrTrPi
M  BCL BND ConjugatedSingleBond ConjugatedSingleBond ConjugatedDoubleBond ConjugatedSingleBond ConjugatedSingleBond ConjugatedDoubleBond ConjugatedSingleBond ConjugatedSingleBond ConjugatedDoubleBond ConjugatedSingleBond ConjugatedSingleBond ConjugatedSingleBond NonConjugatedSingleBond NonConjugatedSingleBond NonConjugatedSingleBond NonConjugatedSingleBond NonConjugatedSingleBond NonConjugatedSingleBondInRing NonConjugatedSingleBondInRing NonConjugatedSingleBondInRing NonConjugatedSingleBond NonConjugatedSingleBond NonConjugatedSingleBondInRing NonConjugatedSingleBond NonConjugatedSingleBond NonConjugatedSingleBond NonConjugatedSingleBondInRing NonConjugatedSingleBond NonConjugatedSingleBond NonConjugatedSingleBond AromaticSingleBond AromaticSingleBond NonConjugatedSingleBond AromaticDoubleBond AromaticSingleBond AromaticSingleBond AromaticDoubleBond ConjugatedSingleBond AromaticDoubleBond NonConjugatedSingleBond NonConjugatedSingleBond AromaticSingleBond NonConjugatedSingleBond AromaticDoubleBond AromaticSingleBond
M  BCL CHI   1   S   5   S   9   S  17   R  20   S  24   R  28   S
M  BCL DBI - - - - - - -
M  END
> <ConfClashScore>
0 

> <ConfOneFourInteractionScore>
-0.981204 

> <ConfScore>
0.0465388 

> <ConfScorePBest>
0.00881549 

> <ConfTolerance>
1.42948 

$$$$
ATP.****
  PyMOL2.5          3D                             0

 43 45  0  0  0  0  0  0  0  0999 V2000
   -6.2055    0.3921   -5.2961 P   0  0  0  1  0  0  0  0  0  0  0  0
   -6.1481   -1.0453   -6.0837 O   0  0  0  0  0  0  0  0  0  0  0  0
   -7.0030    0.1263   -3.9113 O   0  5  0  1  0  0  0  0  0  0  0  0
   -6.7391    1.4822   -6.1431 O   0  0  0  1  0  0  0  0  0  0  0  0
   -4.3477    2.1189   -3.9181 P   0  0  0  1  0  0  0  0  0  0  0  0
   -3.2258    2.8658   -4.5549 O   0  0  0  0  0  0  0  0  0  0  0  0
   -5.6058    2.8094   -3.5658 O   0  0  0  1  0  0  0  0  0  0  0  0
   -4.7362    0.8852   -4.8707 O   0  0  0  1  0  0  0  0  0  0  0  0
   -2.3673    1.3196   -1.9024 P   0  0  0  1  0  0  0  0  0  0  0  0
   -1.6392    2.6042   -1.8025 O   0  0  0  1  0  0  0  0  0  0  0  0
   -1.5014    0.2896   -2.8044 O   0  5  0  1  0  0  0  0  0  0  0  0
   -3.8119    1.3880   -2.5914 O   0  0  0  1  0  0  0  0  0  0  0  0
   -2.5547    0.5723   -0.5304 O   0  0  0  1  0  0  0  0  0  0  0  0
   -1.4072    0.1914    0.2720 C   0  0  0  1  0  0  0  0  0  0  0  0
   -0.7893    1.0459    0.4531 H   0  0  0  1  0  0  0  0  0  0  0  0
   -0.8391   -0.5587   -0.2375 H   0  0  0  1  0  0  0  0  0  0  0  0
   -1.9250   -0.3566    1.5825 C   0  0  0  1  0  0  0  0  0  0  0  0
   -2.6674   -1.1026    1.3893 H   0  0  0  1  0  0  0  0  0  0  0  0
   -0.8432   -0.9190    2.3476 O   0  0  0  1  0  0  0  0  0  0  0  0
   -2.4938    0.7252    2.3939 C   0  0  0  1  0  0  0  0  0  0  0  0
   -2.0555    1.6641    2.1269 H   0  0  0  1  0  0  0  0  0  0  0  0
   -3.9095    0.7923    2.2165 O   0  0  0  1  0  0  0  0  0  0  0  0
   -4.3114   -0.0185    2.5371 H   0  0  0  1  0  0  0  0  0  0  0  0
   -2.1535    0.3683    3.8334 C   0  0  0  1  0  0  0  0  0  0  0  0
   -2.0665    1.2422    4.4447 H   0  0  0  1  0  0  0  0  0  0  0  0
   -3.1242   -0.5141    4.3984 O   0  0  0  1  0  0  0  0  0  0  0  0
   -4.0057   -0.1867    4.2052 H   0  0  0  1  0  0  0  0  0  0  0  0
   -0.8025   -0.3259    3.6505 C   0  0  0  1  0  0  0  0  0  0  0  0
   -0.6659   -1.0786    4.3986 H   0  0  0  1  0  0  0  0  0  0  0  0
    0.2863    0.6482    3.7332 N   0  0  0  1  0  0  0  0  0  0  0  0
    0.2677    1.9885    3.4966 C   0  0  0  1  0  0  0  0  0  0  0  0
   -0.5759    2.4818    3.1408 H   0  0  0  1  0  0  0  0  0  0  0  0
    1.3884    2.6079    3.7498 N   0  0  0  1  0  0  0  0  0  0  0  0
    2.2229    1.5975    4.2019 C   0  0  0  1  0  0  0  0  0  0  0  0
    3.5465    1.5507    4.6294 C   0  0  0  1  0  0  0  0  0  0  0  0
    4.3100    2.6876    4.6644 N   0  0  0  1  0  0  0  0  0  0  0  0
    3.9228    3.5463    4.3938 H   0  0  0  1  0  0  0  0  0  0  0  0
    5.2432    2.6423    4.9600 H   0  0  0  1  0  0  0  0  0  0  0  0
    4.0793    0.3846    5.0102 N   0  0  0  1  0  0  0  0  0  0  0  0
    3.3057   -0.7108    4.9491 C   0  0  0  1  0  0  0  0  0  0  0  0
    3.7576   -1.5980    5.2495 H   0  0  0  1  0  0  0  0  0  0  0  0
    2.0418   -0.8144    4.5571 N   0  0  0  1  0  0  0  0  0  0  0  0
    1.5462    0.3704    4.1972 C   0  0  0  1  0  0  0  0  0  0  0  0
  1  2  1  0  0  0  0
  1  3  1  0  0  0  0
  1  4  2  0  0  0  0
  1  8  1  0  0  0  0
  5  6  1  0  0  0  0
  5  7  2  0  0  0  0
  5  8  1  0  0  0  0
  5 12  1  0  0  0  0
  9 10  2  0  0  0  0
  9 11  1  0  0  0  0
  9 12  1  0  0  0  0
  9 13  1  0  0  0  0
 13 14  1  0  0  0  0
 14 15  1  0  0  0  0
 14 16  1  0  0  0  0
 14 17  1  0  0  0  0
 17 18  1  0  0  0  0
 17 19  1  0  0  0  0
 17 20  1  0  0  0  0
 19 28  1  0  0  0  0
 20 21  1  0  0  0  0
 20 22  1  0  0  0  0
 20 24  1  0  0  0  0
 22 23  1  0  0  0  0
 24 25  1  0  0  0  0
 24 26  1  0  0  0  0
 24 28  1  0  0  0  0
 26 27  1  0  0  0  0
 28 29  1  0  0  0  0
 28 30  1  0  0  0  0
 30 31  1  0  0  0  0
 30 43  1  0  0  0  0
 31 32  1  0  0  0  0
 31 33  2  0  0  0  0
 33 34  1  0  0  0  0
 34 35  1  0  0  0  0
 34 43  2  0  0  0  0
 35 36  1  0  0  0  0
 35 39  2  0  0  0  0
 36 37  1  0  0  0  0
 36 38  1  0  0  0  0
 39 40  1  0  0  0  0
 40 41  1  0  0  0  0
 40 42  2  0  0  0  0
 42 43  1  0  0  0  0
M  BCL ATM P_TeTeTeTePi O_Te2Te2TeTe O_Te2Te2Te2Te O_Tr2Tr2TrPi P_TeTeTeTePi O_Te2Te2TeTe O_Tr2Tr2TrPi O_Tr2TrTrPi2 P_TeTeTeTePi O_Tr2Tr2TrPi O_Te2Te2Te2Te O_Tr2TrTrPi2 O_Tr2TrTrPi2 C_TeTeTeTe H_S H_S C_TeTeTeTe H_S O_Te2Te2TeTe C_TeTeTeTe H_S O_Te2Te2TeTe H_S C_TeTeTeTe H_S O_Te2Te2TeTe H_S C_TeTeTeTe H_S N_TrTrTrPi2 C_TrTrTrPi H_S N_Tr2TrTrPi C_TrTrTrPi C_TrTrTrPi N_TrTrTrPi2 H_S H_S N_Tr2TrTrPi C_TrTrTrPi H_S N_Tr2TrTrPi C_TrTrTrPi
M  BCL BND ConjugatedSingleBond ConjugatedSingleBond ConjugatedDoubleBond ConjugatedSingleBond ConjugatedSingleBond ConjugatedDoubleBond ConjugatedSingleBond ConjugatedSingleBond ConjugatedDoubleBond ConjugatedSingleBond ConjugatedSingleBond ConjugatedSingleBond NonConjugatedSingleBond NonConjugatedSingleBond NonConjugatedSingleBond NonConjugatedSingleBond NonConjugatedSingleBond NonConjugatedSingleBondInRing NonConjugatedSingleBondInRing NonConjugatedSingleBondInRing NonConjugatedSingleBond NonConjugatedSingleBond NonConjugatedSingleBondInRing NonConjugatedSingleBond NonConjugatedSingleBond NonConjugatedSingleBond NonConjugatedSingleBondInRing NonConjugatedSingleBond NonConjugatedSingleBond NonConjugatedSingleBond AromaticSingleBond AromaticSingleBond NonConjugatedSingleBond AromaticDoubleBond AromaticSingleBond AromaticSingleBond AromaticDoubleBond ConjugatedSingleBond AromaticDoubleBond NonConjugatedSingleBond NonConjugatedSingleBond AromaticSingleBond NonConjugatedSingleBond AromaticDoubleBond AromaticSingleBond
M  BCL CHI   1   S   5   S   9   S  17   R  20   S  24   R  28   S
M  BCL DBI - - - - - - -
M  END
> <ConfClashScore>
0 

> <ConfOneFourInteractionScore>
-0.981158 

> <ConfScore>
0.0471378 

> <ConfScorePBest>
0.00871249 

> <ConfTolerance>
1.46174 

$$$$
ATP.****
  PyMOL2.5          3D                             0

 43 45  0  0  0  0  0  0  0  0999 V2000
    2.0013   -1.6508    1.3087 P   0  0  0  1  0  0  0  0  0  0  0  0
    3.1915   -2.7553    1.5390 O   0  0  0  0  0  0  0  0  0  0  0  0
    2.1425   -0.6300    2.5587 O   0  5  0  1  0  0  0  0  0  0  0  0
    0.6782   -2.2968    1.4585 O   0  0  0  1  0  0  0  0  0  0  0  0
    1.9437   -1.2827   -1.6041 P   0  0  0  1  0  0  0  0  0  0  0  0
    3.0459   -0.7582   -2.4685 O   0  0  0  0  0  0  0  0  0  0  0  0
    1.7601   -2.7500   -1.6307 O   0  0  0  1  0  0  0  0  0  0  0  0
    2.2242   -0.8751   -0.0805 O   0  0  0  1  0  0  0  0  0  0  0  0
   -0.8957   -1.0512   -2.0700 P   0  0  0  1  0  0  0  0  0  0  0  0
   -0.9941   -2.3932   -2.6862 O   0  0  0  1  0  0  0  0  0  0  0  0
   -1.9365   -0.0849   -2.8492 O   0  5  0  1  0  0  0  0  0  0  0  0
    0.6148   -0.5044   -2.0640 O   0  0  0  1  0  0  0  0  0  0  0  0
   -1.4126   -1.1746   -0.5889 O   0  0  0  1  0  0  0  0  0  0  0  0
   -1.6368    0.0047    0.2192 C   0  0  0  1  0  0  0  0  0  0  0  0
   -2.4446    0.5691   -0.1977 H   0  0  0  1  0  0  0  0  0  0  0  0
   -0.7491    0.6020    0.2245 H   0  0  0  1  0  0  0  0  0  0  0  0
   -1.9825   -0.3859    1.6381 C   0  0  0  1  0  0  0  0  0  0  0  0
   -2.7101   -1.1703    1.6255 H   0  0  0  1  0  0  0  0  0  0  0  0
   -0.8347   -0.7845    2.3372 O   0  0  0  1  0  0  0  0  0  0  0  0
   -2.5029    0.8260    2.4244 C   0  0  0  1  0  0  0  0  0  0  0  0
   -2.0134    1.7258    2.1149 H   0  0  0  1  0  0  0  0  0  0  0  0
   -3.9150    0.9735    2.2682 O   0  0  0  1  0  0  0  0  0  0  0  0
   -4.3442    0.1282    2.4196 H   0  0  0  1  0  0  0  0  0  0  0  0
   -2.1475    0.4758    3.8456 C   0  0  0  1  0  0  0  0  0  0  0  0
   -2.0121    1.3579    4.4359 H   0  0  0  1  0  0  0  0  0  0  0  0
   -3.1553   -0.3447    4.4384 O   0  0  0  1  0  0  0  0  0  0  0  0
   -3.5792   -0.8733    3.7584 H   0  0  0  1  0  0  0  0  0  0  0  0
   -0.8311   -0.2927    3.6963 C   0  0  0  1  0  0  0  0  0  0  0  0
   -0.7905   -1.1064    4.3900 H   0  0  0  1  0  0  0  0  0  0  0  0
    0.3103    0.5956    3.9181 N   0  0  0  1  0  0  0  0  0  0  0  0
    1.2110    0.5365    4.9369 C   0  0  0  1  0  0  0  0  0  0  0  0
    1.1665   -0.1885    5.6812 H   0  0  0  1  0  0  0  0  0  0  0  0
    2.1347    1.4583    4.9094 N   0  0  0  1  0  0  0  0  0  0  0  0
    1.8302    2.1892    3.7716 C   0  0  0  1  0  0  0  0  0  0  0  0
    2.3901    3.3049    3.1563 C   0  0  0  1  0  0  0  0  0  0  0  0
    3.4944    3.9523    3.6444 N   0  0  0  1  0  0  0  0  0  0  0  0
    3.9073    3.6537    4.4815 H   0  0  0  1  0  0  0  0  0  0  0  0
    3.8714    4.7140    3.1564 H   0  0  0  1  0  0  0  0  0  0  0  0
    1.8438    3.7877    2.0351 N   0  0  0  1  0  0  0  0  0  0  0  0
    0.7526    3.1734    1.5514 C   0  0  0  1  0  0  0  0  0  0  0  0
    0.3554    3.5812    0.6811 H   0  0  0  1  0  0  0  0  0  0  0  0
    0.1120    2.1158    2.0341 N   0  0  0  1  0  0  0  0  0  0  0  0
    0.6947    1.6598    3.1438 C   0  0  0  1  0  0  0  0  0  0  0  0
  1  2  1  0  0  0  0
  1  3  1  0  0  0  0
  1  4  2  0  0  0  0
  1  8  1  0  0  0  0
  5  6  1  0  0  0  0
  5  7  2  0  0  0  0
  5  8  1  0  0  0  0
  5 12  1  0  0  0  0
  9 10  2  0  0  0  0
  9 11  1  0  0  0  0
  9 12  1  0  0  0  0
  9 13  1  0  0  0  0
 13 14  1  0  0  0  0
 14 15  1  0  0  0  0
 14 16  1  0  0  0  0
 14 17  1  0  0  0  0
 17 18  1  0  0  0  0
 17 19  1  0  0  0  0
 17 20  1  0  0  0  0
 19 28  1  0  0  0  0
 20 21  1  0  0  0  0
 20 22  1  0  0  0  0
 20 24  1  0  0  0  0
 22 23  1  0  0  0  0
 24 25  1  0  0  0  0
 24 26  1  0  0  0  0
 24 28  1  0  0  0  0
 26 27  1  0  0  0  0
 28 29  1  0  0  0  0
 28 30  1  0  0  0  0
 30 31  1  0  0  0  0
 30 43  1  0  0  0  0
 31 32  1  0  0  0  0
 31 33  2  0  0  0  0
 33 34  1  0  0  0  0
 34 35  1  0  0  0  0
 34 43  2  0  0  0  0
 35 36  1  0  0  0  0
 35 39  2  0  0  0  0
 36 37  1  0  0  0  0
 36 38  1  0  0  0  0
 39 40  1  0  0  0  0
 40 41  1  0  0  0  0
 40 42  2  0  0  0  0
 42 43  1  0  0  0  0
M  BCL ATM P_TeTeTeTePi O_Te2Te2TeTe O_Te2Te2Te2Te O_Tr2Tr2TrPi P_TeTeTeTePi O_Te2Te2TeTe O_Tr2Tr2TrPi O_Tr2TrTrPi2 P_TeTeTeTePi O_Tr2Tr2TrPi O_Te2Te2Te2Te O_Tr2TrTrPi2 O_Tr2TrTrPi2 C_TeTeTeTe H_S H_S C_TeTeTeTe H_S O_Te2Te2TeTe C_TeTeTeTe H_S O_Te2Te2TeTe H_S C_TeTeTeTe H_S O_Te2Te2TeTe H_S C_TeTeTeTe H_S N_TrTrTrPi2 C_TrTrTrPi H_S N_Tr2TrTrPi C_TrTrTrPi C_TrTrTrPi N_TrTrTrPi2 H_S H_S N_Tr2TrTrPi C_TrTrTrPi H_S N_Tr2TrTrPi C_TrTrTrPi
M  BCL BND ConjugatedSingleBond ConjugatedSingleBond ConjugatedDoubleBond ConjugatedSingleBond ConjugatedSingleBond ConjugatedDoubleBond ConjugatedSingleBond ConjugatedSingleBond ConjugatedDoubleBond ConjugatedSingleBond ConjugatedSingleBond ConjugatedSingleBond NonConjugatedSingleBond NonConjugatedSingleBond NonConjugatedSingleBond NonConjugatedSingleBond NonConjugatedSingleBond NonConjugatedSingleBondInRing NonConjugatedSingleBondInRing NonConjugatedSingleBondInRing NonConjugatedSingleBond NonConjugatedSingleBond NonConjugatedSingleBondInRing NonConjugatedSingleBond NonConjugatedSingleBond NonConjugatedSingleBond NonConjugatedSingleBondInRing NonConjugatedSingleBond NonConjugatedSingleBond NonConjugatedSingleBond AromaticSingleBond AromaticSingleBond NonConjugatedSingleBond AromaticDoubleBond AromaticSingleBond AromaticSingleBond AromaticDoubleBond ConjugatedSingleBond AromaticDoubleBond NonConjugatedSingleBond NonConjugatedSingleBond AromaticSingleBond NonConjugatedSingleBond AromaticDoubleBond AromaticSingleBond
M  BCL CHI   1   S   5   S   9   S  17   R  20   S  24   R  28   S
M  BCL DBI - - - - - - -
M  END
> <ConfClashScore>
0 

> <ConfOneFourInteractionScore>
-0.981204 

> <ConfScore>
0.0496302 

> <ConfScorePBest>
0.00860949 

> <ConfTolerance>
1.73382 

$$$$
ATP.****
  PyMOL2.5          3D                             0

 43 45  0  0  0  0  0  0  0  0999 V2000
   -3.0478    0.4287   -4.1325 P   0  0  0  1  0  0  0  0  0  0  0  0
   -2.8018   -0.3585   -5.5500 O   0  0  0  0  0  0  0  0  0  0  0  0
   -2.3965   -0.3021   -2.8417 O   0  5  0  1  0  0  0  0  0  0  0  0
   -4.4727    0.7769   -3.9351 O   0  0  0  1  0  0  0  0  0  0  0  0
   -0.7595    2.2602   -3.9514 P   0  0  0  1  0  0  0  0  0  0  0  0
    0.2202    1.2567   -4.4973 O   0  0  0  0  0  0  0  0  0  0  0  0
   -0.5149    3.6967   -4.2486 O   0  0  0  1  0  0  0  0  0  0  0  0
   -2.2315    1.7910   -4.3751 O   0  0  0  1  0  0  0  0  0  0  0  0
   -1.8386    2.7091   -1.2575 P   0  0  0  1  0  0  0  0  0  0  0  0
   -3.0218    3.2873   -1.9329 O   0  0  0  1  0  0  0  0  0  0  0  0
   -0.9752    3.8620   -0.5160 O   0  5  0  1  0  0  0  0  0  0  0  0
   -0.8157    2.1388   -2.3504 O   0  0  0  1  0  0  0  0  0  0  0  0
   -2.1591    1.5052   -0.2962 O   0  0  0  1  0  0  0  0  0  0  0  0
   -1.1618    1.0063    0.6258 C   0  0  0  1  0  0  0  0  0  0  0  0
   -0.8109    1.8023    1.2489 H   0  0  0  1  0  0  0  0  0  0  0  0
   -0.3398    0.5889    0.0827 H   0  0  0  1  0  0  0  0  0  0  0  0
   -1.8141   -0.0620    1.4738 C   0  0  0  1  0  0  0  0  0  0  0  0
   -2.3275   -0.7559    0.8414 H   0  0  0  1  0  0  0  0  0  0  0  0
   -0.8194   -0.7483    2.2566 O   0  0  0  1  0  0  0  0  0  0  0  0
   -2.7860    0.5698    2.4512 C   0  0  0  1  0  0  0  0  0  0  0  0
   -3.1080    1.5306    2.1077 H   0  0  0  1  0  0  0  0  0  0  0  0
   -3.9239   -0.2681    2.6593 O   0  0  0  1  0  0  0  0  0  0  0  0
   -3.9171   -0.9828    2.0185 H   0  0  0  1  0  0  0  0  0  0  0  0
   -1.9568    0.6914    3.7186 C   0  0  0  1  0  0  0  0  0  0  0  0
   -1.3553    1.5762    3.7074 H   0  0  0  1  0  0  0  0  0  0  0  0
   -2.7837    0.6917    4.8832 O   0  0  0  1  0  0  0  0  0  0  0  0
   -3.5997    0.2215    4.6970 H   0  0  0  1  0  0  0  0  0  0  0  0
   -1.0999   -0.5615    3.6484 C   0  0  0  1  0  0  0  0  0  0  0  0
   -1.6330   -1.4027    4.0396 H   0  0  0  1  0  0  0  0  0  0  0  0
    0.1412   -0.3766    4.4012 N   0  0  0  1  0  0  0  0  0  0  0  0
    1.3976   -0.2465    3.8939 C   0  0  0  1  0  0  0  0  0  0  0  0
    1.5925   -0.2613    2.8725 H   0  0  0  1  0  0  0  0  0  0  0  0
    2.3393   -0.1017    4.7861 N   0  0  0  1  0  0  0  0  0  0  0  0
    1.6528   -0.1287    5.9901 C   0  0  0  1  0  0  0  0  0  0  0  0
    2.0328   -0.0392    7.3260 C   0  0  0  1  0  0  0  0  0  0  0  0
    3.3345    0.1162    7.7240 N   0  0  0  1  0  0  0  0  0  0  0  0
    4.0590    0.0487    7.0675 H   0  0  0  1  0  0  0  0  0  0  0  0
    3.5410    0.2948    8.6652 H   0  0  0  1  0  0  0  0  0  0  0  0
    1.1035   -0.1052    8.2855 N   0  0  0  1  0  0  0  0  0  0  0  0
   -0.1753   -0.2717    7.9127 C   0  0  0  1  0  0  0  0  0  0  0  0
   -0.8668   -0.3224    8.6879 H   0  0  0  1  0  0  0  0  0  0  0  0
   -0.6764   -0.3804    6.6884 N   0  0  0  1  0  0  0  0  0  0  0  0
    0.2805   -0.2983    5.7629 C   0  0  0  1  0  0  0  0  0  0  0  0
  1  2  1  0  0  0  0
  1  3  1  0  0  0  0
  1  4  2  0  0  0  0
  1  8  1  0  0  0  0
  5  6  1  0  0  0  0
  5  7  2  0  0  0  0
  5  8  1  0  0  0  0
  5 12  1  0  0  0  0
  9 10  2  0  0  0  0
  9 11  1  0  0  0  0
  9 12  1  0  0  0  0
  9 13  1  0  0  0  0
 13 14  1  0  0  0  0
 14 15  1  0  0  0  0
 14 16  1  0  0  0  0
 14 17  1  0  0  0  0
 17 18  1  0  0  0  0
 17 19  1  0  0  0  0
 17 20  1  0  0  0  0
 19 28  1  0  0  0  0
 20 21  1  0  0  0  0
 20 22  1  0  0  0  0
 20 24  1  0  0  0  0
 22 23  1  0  0  0  0
 24 25  1  0  0  0  0
 24 26  1  0  0  0  0
 24 28  1  0  0  0  0
 26 27  1  0  0  0  0
 28 29  1  0  0  0  0
 28 30  1  0  0  0  0
 30 31  1  0  0  0  0
 30 43  1  0  0  0  0
 31 32  1  0  0  0  0
 31 33  2  0  0  0  0
 33 34  1  0  0  0  0
 34 35  1  0  0  0  0
 34 43  2  0  0  0  0
 35 36  1  0  0  0  0
 35 39  2  0  0  0  0
 36 37  1  0  0  0  0
 36 38  1  0  0  0  0
 39 40  1  0  0  0  0
 40 41  1  0  0  0  0
 40 42  2  0  0  0  0
 42 43  1  0  0  0  0
M  BCL ATM P_TeTeTeTePi O_Te2Te2TeTe O_Te2Te2Te2Te O_Tr2Tr2TrPi P_TeTeTeTePi O_Te2Te2TeTe O_Tr2Tr2TrPi O_Tr2TrTrPi2 P_TeTeTeTePi O_Tr2Tr2TrPi O_Te2Te2Te2Te O_Tr2TrTrPi2 O_Tr2TrTrPi2 C_TeTeTeTe H_S H_S C_TeTeTeTe H_S O_Te2Te2TeTe C_TeTeTeTe H_S O_Te2Te2TeTe H_S C_TeTeTeTe H_S O_Te2Te2TeTe H_S C_TeTeTeTe H_S N_TrTrTrPi2 C_TrTrTrPi H_S N_Tr2TrTrPi C_TrTrTrPi C_TrTrTrPi N_TrTrTrPi2 H_S H_S N_Tr2TrTrPi C_TrTrTrPi H_S N_Tr2TrTrPi C_TrTrTrPi
M  BCL BND ConjugatedSingleBond ConjugatedSingleBond ConjugatedDoubleBond ConjugatedSingleBond ConjugatedSingleBond ConjugatedDoubleBond ConjugatedSingleBond ConjugatedSingleBond ConjugatedDoubleBond ConjugatedSingleBond ConjugatedSingleBond ConjugatedSingleBond NonConjugatedSingleBond NonConjugatedSingleBond NonConjugatedSingleBond NonConjugatedSingleBond NonConjugatedSingleBond NonConjugatedSingleBondInRing NonConjugatedSingleBondInRing NonConjugatedSingleBondInRing NonConjugatedSingleBond NonConjugatedSingleBond NonConjugatedSingleBondInRing NonConjugatedSingleBond NonConjugatedSingleBond NonConjugatedSingleBond NonConjugatedSingleBondInRing NonConjugatedSingleBond NonConjugatedSingleBond NonConjugatedSingleBond AromaticSingleBond AromaticSingleBond NonConjugatedSingleBond AromaticDoubleBond AromaticSingleBond AromaticSingleBond AromaticDoubleBond ConjugatedSingleBond AromaticDoubleBond NonConjugatedSingleBond NonConjugatedSingleBond AromaticSingleBond NonConjugatedSingleBond AromaticDoubleBond AromaticSingleBond
M  BCL CHI   1   S   5   S   9   S  17   R  20   S  24   R  28   S
M  BCL DBI - - - - - - -
M  END
> <ConfClashScore>
0 

> <ConfOneFourInteractionScore>
-0.983049 

> <ConfScore>
0.0502007 

> <ConfScorePBest>
0.00850649 

> <ConfTolerance>
1.41985 

$$$$
ATP.****
  PyMOL2.5          3D                             0

 43 45  0  0  0  0  0  0  0  0999 V2000
   -7.7697    0.3110   -4.1062 P   0  0  0  1  0  0  0  0  0  0  0  0
   -8.2610    1.3765   -5.2520 O   0  0  0  0  0  0  0  0  0  0  0  0
   -7.0554   -0.9371   -4.8520 O   0  5  0  1  0  0  0  0  0  0  0  0
   -8.9047   -0.0466   -3.2263 O   0  0  0  1  0  0  0  0  0  0  0  0
   -5.0511    0.6603   -3.4075 P   0  0  0  1  0  0  0  0  0  0  0  0
   -4.8916   -0.7673   -2.9587 O   0  0  0  0  0  0  0  0  0  0  0  0
   -4.4988    1.0310   -4.7284 O   0  0  0  1  0  0  0  0  0  0  0  0
   -6.6097    1.0554   -3.2591 O   0  0  0  1  0  0  0  0  0  0  0  0
   -2.8527    1.6513   -1.7698 P   0  0  0  1  0  0  0  0  0  0  0  0
   -2.5738    3.0676   -1.4431 O   0  0  0  1  0  0  0  0  0  0  0  0
   -1.8674    1.1927   -2.9712 O   0  5  0  1  0  0  0  0  0  0  0  0
   -4.3546    1.6369   -2.3433 O   0  0  0  1  0  0  0  0  0  0  0  0
   -2.7166    0.6387   -0.5731 O   0  0  0  1  0  0  0  0  0  0  0  0
   -1.4520    0.4595    0.1070 C   0  0  0  1  0  0  0  0  0  0  0  0
   -0.9845    1.4092    0.2631 H   0  0  0  1  0  0  0  0  0  0  0  0
   -0.8085   -0.1635   -0.4784 H   0  0  0  1  0  0  0  0  0  0  0  0
   -1.7357   -0.1996    1.4376 C   0  0  0  1  0  0  0  0  0  0  0  0
   -2.1707   -1.1633    1.2733 H   0  0  0  1  0  0  0  0  0  0  0  0
   -0.5251   -0.3141    2.2170 O   0  0  0  1  0  0  0  0  0  0  0  0
   -2.6724    0.6813    2.2922 C   0  0  0  1  0  0  0  0  0  0  0  0
   -2.6028    1.7074    1.9967 H   0  0  0  1  0  0  0  0  0  0  0  0
   -4.0267    0.2425    2.1759 O   0  0  0  1  0  0  0  0  0  0  0  0
   -4.1214   -0.6180    2.5909 H   0  0  0  1  0  0  0  0  0  0  0  0
   -2.1557    0.4901    3.7374 C   0  0  0  1  0  0  0  0  0  0  0  0
   -1.8344    1.4223    4.1530 H   0  0  0  1  0  0  0  0  0  0  0  0
   -3.1695   -0.0784    4.5683 O   0  0  0  1  0  0  0  0  0  0  0  0
   -3.5444    0.6047    5.1291 H   0  0  0  1  0  0  0  0  0  0  0  0
   -0.9650   -0.4811    3.5816 C   0  0  0  1  0  0  0  0  0  0  0  0
   -1.2769   -1.4897    3.7556 H   0  0  0  1  0  0  0  0  0  0  0  0
    0.1077   -0.1338    4.5142 N   0  0  0  1  0  0  0  0  0  0  0  0
    0.8213   -0.9866    5.2993 C   0  0  0  1  0  0  0  0  0  0  0  0
    0.6611   -2.0142    5.2982 H   0  0  0  1  0  0  0  0  0  0  0  0
    1.7219   -0.4175    6.0536 N   0  0  0  1  0  0  0  0  0  0  0  0
    1.6057    0.9276    5.7392 C   0  0  0  1  0  0  0  0  0  0  0  0
    2.2455    2.0846    6.1741 C   0  0  0  1  0  0  0  0  0  0  0  0
    3.2398    2.0795    7.1165 N   0  0  0  1  0  0  0  0  0  0  0  0
    3.5812    1.2292    7.4641 H   0  0  0  1  0  0  0  0  0  0  0  0
    3.6096    2.9263    7.4431 H   0  0  0  1  0  0  0  0  0  0  0  0
    1.8920    3.2693    5.6641 N   0  0  0  1  0  0  0  0  0  0  0  0
    0.9094    3.2931    4.7499 C   0  0  0  1  0  0  0  0  0  0  0  0
    0.6610    4.2332    4.3809 H   0  0  0  1  0  0  0  0  0  0  0  0
    0.2119    2.2788    4.2533 N   0  0  0  1  0  0  0  0  0  0  0  0
    0.6028    1.1170    4.7790 C   0  0  0  1  0  0  0  0  0  0  0  0
  1  2  1  0  0  0  0
  1  3  1  0  0  0  0
  1  4  2  0  0  0  0
  1  8  1  0  0  0  0
  5  6  1  0  0  0  0
  5  7  2  0  0  0  0
  5  8  1  0  0  0  0
  5 12  1  0  0  0  0
  9 10  2  0  0  0  0
  9 11  1  0  0  0  0
  9 12  1  0  0  0  0
  9 13  1  0  0  0  0
 13 14  1  0  0  0  0
 14 15  1  0  0  0  0
 14 16  1  0  0  0  0
 14 17  1  0  0  0  0
 17 18  1  0  0  0  0
 17 19  1  0  0  0  0
 17 20  1  0  0  0  0
 19 28  1  0  0  0  0
 20 21  1  0  0  0  0
 20 22  1  0  0  0  0
 20 24  1  0  0  0  0
 22 23  1  0  0  0  0
 24 25  1  0  0  0  0
 24 26  1  0  0  0  0
 24 28  1  0  0  0  0
 26 27  1  0  0  0  0
 28 29  1  0  0  0  0
 28 30  1  0  0  0  0
 30 31  1  0  0  0  0
 30 43  1  0  0  0  0
 31 32  1  0  0  0  0
 31 33  2  0  0  0  0
 33 34  1  0  0  0  0
 34 35  1  0  0  0  0
 34 43  2  0  0  0  0
 35 36  1  0  0  0  0
 35 39  2  0  0  0  0
 36 37  1  0  0  0  0
 36 38  1  0  0  0  0
 39 40  1  0  0  0  0
 40 41  1  0  0  0  0
 40 42  2  0  0  0  0
 42 43  1  0  0  0  0
M  BCL ATM P_TeTeTeTePi O_Te2Te2TeTe O_Te2Te2Te2Te O_Tr2Tr2TrPi P_TeTeTeTePi O_Te2Te2TeTe O_Tr2Tr2TrPi O_Tr2TrTrPi2 P_TeTeTeTePi O_Tr2Tr2TrPi O_Te2Te2Te2Te O_Tr2TrTrPi2 O_Tr2TrTrPi2 C_TeTeTeTe H_S H_S C_TeTeTeTe H_S O_Te2Te2TeTe C_TeTeTeTe H_S O_Te2Te2TeTe H_S C_TeTeTeTe H_S O_Te2Te2TeTe H_S C_TeTeTeTe H_S N_TrTrTrPi2 C_TrTrTrPi H_S N_Tr2TrTrPi C_TrTrTrPi C_TrTrTrPi N_TrTrTrPi2 H_S H_S N_Tr2TrTrPi C_TrTrTrPi H_S N_Tr2TrTrPi C_TrTrTrPi
M  BCL BND ConjugatedSingleBond ConjugatedSingleBond ConjugatedDoubleBond ConjugatedSingleBond ConjugatedSingleBond ConjugatedDoubleBond ConjugatedSingleBond ConjugatedSingleBond ConjugatedDoubleBond ConjugatedSingleBond ConjugatedSingleBond ConjugatedSingleBond NonConjugatedSingleBond NonConjugatedSingleBond NonConjugatedSingleBond NonConjugatedSingleBond NonConjugatedSingleBond NonConjugatedSingleBondInRing NonConjugatedSingleBondInRing NonConjugatedSingleBondInRing NonConjugatedSingleBond NonConjugatedSingleBond NonConjugatedSingleBondInRing NonConjugatedSingleBond NonConjugatedSingleBond NonConjugatedSingleBond NonConjugatedSingleBondInRing NonConjugatedSingleBond NonConjugatedSingleBond NonConjugatedSingleBond AromaticSingleBond AromaticSingleBond NonConjugatedSingleBond AromaticDoubleBond AromaticSingleBond AromaticSingleBond AromaticDoubleBond ConjugatedSingleBond AromaticDoubleBond NonConjugatedSingleBond NonConjugatedSingleBond AromaticSingleBond NonConjugatedSingleBond AromaticDoubleBond AromaticSingleBond
M  BCL CHI   1   S   5   S   9   S  17   R  20   S  24   R  28   S
M  BCL DBI - - - - - - -
M  END
> <ConfClashScore>
0 

> <ConfOneFourInteractionScore>
-0.984135 

> <ConfScore>
0.0512149 

> <ConfScorePBest>
0.00840348 

> <ConfTolerance>
1.47774 

$$$$
ATP.****
  PyMOL2.5          3D                             0

 43 45  0  0  0  0  0  0  0  0999 V2000
    0.7723    5.8999   -1.7036 P   0  0  0  1  0  0  0  0  0  0  0  0
   -0.5648    4.9754   -1.9199 O   0  0  0  0  0  0  0  0  0  0  0  0
    0.0697    7.2216   -1.0841 O   0  5  0  1  0  0  0  0  0  0  0  0
    1.3026    6.2335   -3.0445 O   0  0  0  1  0  0  0  0  0  0  0  0
    2.5209    3.8557   -0.5258 P   0  0  0  1  0  0  0  0  0  0  0  0
    2.5530    3.3536   -1.9202 O   0  0  0  0  0  0  0  0  0  0  0  0
    3.7614    3.9808    0.2169 O   0  0  0  1  0  0  0  0  0  0  0  0
    1.7373    5.2512   -0.5949 O   0  0  0  1  0  0  0  0  0  0  0  0
    0.1853    3.2890    1.0730 P   0  0  0  1  0  0  0  0  0  0  0  0
   -0.6933    4.1201    0.2199 O   0  0  0  1  0  0  0  0  0  0  0  0
    0.5198    4.0780    2.4478 O   0  5  0  1  0  0  0  0  0  0  0  0
    1.6055    2.9281    0.4148 O   0  0  0  1  0  0  0  0  0  0  0  0
   -0.5720    2.0049    1.5766 O   0  0  0  1  0  0  0  0  0  0  0  0
   -1.1684    1.0792    0.6375 C   0  0  0  1  0  0  0  0  0  0  0  0
   -0.4187    0.6969   -0.0233 H   0  0  0  1  0  0  0  0  0  0  0  0
   -1.9268    1.5753    0.0685 H   0  0  0  1  0  0  0  0  0  0  0  0
   -1.7784   -0.0511    1.4322 C   0  0  0  1  0  0  0  0  0  0  0  0
   -2.2243   -0.7577    0.7639 H   0  0  0  1  0  0  0  0  0  0  0  0
   -0.7732   -0.6929    2.2370 O   0  0  0  1  0  0  0  0  0  0  0  0
   -2.8395    0.4982    2.4174 C   0  0  0  1  0  0  0  0  0  0  0  0
   -3.1695    1.4729    2.1242 H   0  0  0  1  0  0  0  0  0  0  0  0
   -3.9635   -0.3796    2.5049 O   0  0  0  1  0  0  0  0  0  0  0  0
   -3.8380   -1.1213    1.9086 H   0  0  0  1  0  0  0  0  0  0  0  0
   -2.0824    0.5499    3.7327 C   0  0  0  1  0  0  0  0  0  0  0  0
   -1.5674    1.4811    3.8454 H   0  0  0  1  0  0  0  0  0  0  0  0
   -2.9614    0.3541    4.8414 O   0  0  0  1  0  0  0  0  0  0  0  0
   -3.2490    1.2063    5.1769 H   0  0  0  1  0  0  0  0  0  0  0  0
   -1.0929   -0.6181    3.5964 C   0  0  0  1  0  0  0  0  0  0  0  0
   -1.5471   -1.5304    3.9226 H   0  0  0  1  0  0  0  0  0  0  0  0
    0.1101   -0.3609    4.3887 N   0  0  0  1  0  0  0  0  0  0  0  0
    0.3282   -0.7080    5.6866 C   0  0  0  1  0  0  0  0  0  0  0  0
   -0.3770   -1.2193    6.2548 H   0  0  0  1  0  0  0  0  0  0  0  0
    1.4892   -0.3507    6.1645 N   0  0  0  1  0  0  0  0  0  0  0  0
    2.1011    0.2804    5.0927 C   0  0  0  1  0  0  0  0  0  0  0  0
    3.3321    0.9026    4.9069 C   0  0  0  1  0  0  0  0  0  0  0  0
    4.3270    1.0349    5.8695 N   0  0  0  1  0  0  0  0  0  0  0  0
    4.2269    0.5978    6.7409 H   0  0  0  1  0  0  0  0  0  0  0  0
    5.1282    1.5652    5.6764 H   0  0  0  1  0  0  0  0  0  0  0  0
    3.6328    1.4356    3.7177 N   0  0  0  1  0  0  0  0  0  0  0  0
    2.7133    1.3584    2.7427 C   0  0  0  1  0  0  0  0  0  0  0  0
    2.9832    1.7879    1.8349 H   0  0  0  1  0  0  0  0  0  0  0  0
    1.5061    0.8077    2.7809 N   0  0  0  1  0  0  0  0  0  0  0  0
    1.2511    0.2792    3.9786 C   0  0  0  1  0  0  0  0  0  0  0  0
  1  2  1  0  0  0  0
  1  3  1  0  0  0  0
  1  4  2  0  0  0  0
  1  8  1  0  0  0  0
  5  6  1  0  0  0  0
  5  7  2  0  0  0  0
  5  8  1  0  0  0  0
  5 12  1  0  0  0  0
  9 10  2  0  0  0  0
  9 11  1  0  0  0  0
  9 12  1  0  0  0  0
  9 13  1  0  0  0  0
 13 14  1  0  0  0  0
 14 15  1  0  0  0  0
 14 16  1  0  0  0  0
 14 17  1  0  0  0  0
 17 18  1  0  0  0  0
 17 19  1  0  0  0  0
 17 20  1  0  0  0  0
 19 28  1  0  0  0  0
 20 21  1  0  0  0  0
 20 22  1  0  0  0  0
 20 24  1  0  0  0  0
 22 23  1  0  0  0  0
 24 25  1  0  0  0  0
 24 26  1  0  0  0  0
 24 28  1  0  0  0  0
 26 27  1  0  0  0  0
 28 29  1  0  0  0  0
 28 30  1  0  0  0  0
 30 31  1  0  0  0  0
 30 43  1  0  0  0  0
 31 32  1  0  0  0  0
 31 33  2  0  0  0  0
 33 34  1  0  0  0  0
 34 35  1  0  0  0  0
 34 43  2  0  0  0  0
 35 36  1  0  0  0  0
 35 39  2  0  0  0  0
 36 37  1  0  0  0  0
 36 38  1  0  0  0  0
 39 40  1  0  0  0  0
 40 41  1  0  0  0  0
 40 42  2  0  0  0  0
 42 43  1  0  0  0  0
M  BCL ATM P_TeTeTeTePi O_Te2Te2TeTe O_Te2Te2Te2Te O_Tr2Tr2TrPi P_TeTeTeTePi O_Te2Te2TeTe O_Tr2Tr2TrPi O_Tr2TrTrPi2 P_TeTeTeTePi O_Tr2Tr2TrPi O_Te2Te2Te2Te O_Tr2TrTrPi2 O_Tr2TrTrPi2 C_TeTeTeTe H_S H_S C_TeTeTeTe H_S O_Te2Te2TeTe C_TeTeTeTe H_S O_Te2Te2TeTe H_S C_TeTeTeTe H_S O_Te2Te2TeTe H_S C_TeTeTeTe H_S N_TrTrTrPi2 C_TrTrTrPi H_S N_Tr2TrTrPi C_TrTrTrPi C_TrTrTrPi N_TrTrTrPi2 H_S H_S N_Tr2TrTrPi C_TrTrTrPi H_S N_Tr2TrTrPi C_TrTrTrPi
M  BCL BND ConjugatedSingleBond ConjugatedSingleBond ConjugatedDoubleBond ConjugatedSingleBond ConjugatedSingleBond ConjugatedDoubleBond ConjugatedSingleBond ConjugatedSingleBond ConjugatedDoubleBond ConjugatedSingleBond ConjugatedSingleBond ConjugatedSingleBond NonConjugatedSingleBond NonConjugatedSingleBond NonConjugatedSingleBond NonConjugatedSingleBond NonConjugatedSingleBond NonConjugatedSingleBondInRing NonConjugatedSingleBondInRing NonConjugatedSingleBondInRing NonConjugatedSingleBond NonConjugatedSingleBond NonConjugatedSingleBondInRing NonConjugatedSingleBond NonConjugatedSingleBond NonConjugatedSingleBond NonConjugatedSingleBondInRing NonConjugatedSingleBond NonConjugatedSingleBond NonConjugatedSingleBond AromaticSingleBond AromaticSingleBond NonConjugatedSingleBond AromaticDoubleBond AromaticSingleBond AromaticSingleBond AromaticDoubleBond ConjugatedSingleBond AromaticDoubleBond NonConjugatedSingleBond NonConjugatedSingleBond AromaticSingleBond NonConjugatedSingleBond AromaticDoubleBond AromaticSingleBond
M  BCL CHI   1   S   5   S   9   S  17   R  20   S  24   R  28   S
M  BCL DBI - - - - - - -
M  END
> <ConfClashScore>
0 

> <ConfOneFourInteractionScore>
-0.988217 

> <ConfScore>
0.0516317 

> <ConfScorePBest>
0.00830048 

> <ConfTolerance>
1.50113 

$$$$
ATP.****
  PyMOL2.5          3D                             0

 43 45  0  0  0  0  0  0  0  0999 V2000
    3.1783    3.3314   -3.1368 P   0  0  0  1  0  0  0  0  0  0  0  0
    2.7902    4.6136   -2.1908 O   0  0  0  0  0  0  0  0  0  0  0  0
    4.5027    2.8130   -2.3613 O   0  5  0  1  0  0  0  0  0  0  0  0
    3.6669    3.7962   -4.4543 O   0  0  0  1  0  0  0  0  0  0  0  0
    1.6312    1.2884   -1.6389 P   0  0  0  1  0  0  0  0  0  0  0  0
    2.7301    0.3872   -1.2210 O   0  0  0  0  0  0  0  0  0  0  0  0
    1.0113    2.1749   -0.6367 O   0  0  0  1  0  0  0  0  0  0  0  0
    2.1075    2.1663   -2.9040 O   0  0  0  1  0  0  0  0  0  0  0  0
   -0.4197   -0.7940   -2.0905 P   0  0  0  1  0  0  0  0  0  0  0  0
    0.1581   -2.0251   -2.6746 O   0  0  0  1  0  0  0  0  0  0  0  0
   -1.8492   -0.5465   -2.8114 O   0  5  0  1  0  0  0  0  0  0  0  0
    0.4891    0.4908   -2.4121 O   0  0  0  1  0  0  0  0  0  0  0  0
   -0.8298   -0.9210   -0.5801 O   0  0  0  1  0  0  0  0  0  0  0  0
   -1.5381    0.1208    0.1402 C   0  0  0  1  0  0  0  0  0  0  0  0
   -2.4785    0.3152   -0.3316 H   0  0  0  1  0  0  0  0  0  0  0  0
   -0.9532    1.0167    0.1536 H   0  0  0  1  0  0  0  0  0  0  0  0
   -1.7620   -0.3685    1.5515 C   0  0  0  1  0  0  0  0  0  0  0  0
   -2.1864   -1.3505    1.5260 H   0  0  0  1  0  0  0  0  0  0  0  0
   -0.5222   -0.3692    2.2925 O   0  0  0  1  0  0  0  0  0  0  0  0
   -2.6819    0.6016    2.3239 C   0  0  0  1  0  0  0  0  0  0  0  0
   -2.6403    1.5830    1.8997 H   0  0  0  1  0  0  0  0  0  0  0  0
   -4.0319    0.1351    2.3152 O   0  0  0  1  0  0  0  0  0  0  0  0
   -4.6290    0.8835    2.2448 H   0  0  0  1  0  0  0  0  0  0  0  0
   -2.1100    0.6001    3.7609 C   0  0  0  1  0  0  0  0  0  0  0  0
   -1.7896    1.5811    4.0438 H   0  0  0  1  0  0  0  0  0  0  0  0
   -3.0831    0.1287    4.6942 O   0  0  0  1  0  0  0  0  0  0  0  0
   -3.2523   -0.8032    4.5375 H   0  0  0  1  0  0  0  0  0  0  0  0
   -0.9096   -0.3684    3.6830 C   0  0  0  1  0  0  0  0  0  0  0  0
   -1.1979   -1.3508    3.9939 H   0  0  0  1  0  0  0  0  0  0  0  0
    0.1893    0.1063    4.5225 N   0  0  0  1  0  0  0  0  0  0  0  0
    0.1321    0.4331    5.8426 C   0  0  0  1  0  0  0  0  0  0  0  0
   -0.7440    0.3628    6.3986 H   0  0  0  1  0  0  0  0  0  0  0  0
    1.2596    0.8415    6.3582 N   0  0  0  1  0  0  0  0  0  0  0  0
    2.1463    0.7732    5.2949 C   0  0  0  1  0  0  0  0  0  0  0  0
    3.4974    1.0679    5.1376 C   0  0  0  1  0  0  0  0  0  0  0  0
    4.2835    1.5374    6.1566 N   0  0  0  1  0  0  0  0  0  0  0  0
    5.2173    1.7793    5.9836 H   0  0  0  1  0  0  0  0  0  0  0  0
    3.9121    1.6312    7.0587 H   0  0  0  1  0  0  0  0  0  0  0  0
    4.0797    0.8936    3.9463 N   0  0  0  1  0  0  0  0  0  0  0  0
    3.3198    0.4478    2.9335 C   0  0  0  1  0  0  0  0  0  0  0  0
    3.8083    0.3293    2.0230 H   0  0  0  1  0  0  0  0  0  0  0  0
    2.0292    0.1376    2.9371 N   0  0  0  1  0  0  0  0  0  0  0  0
    1.4906    0.3146    4.1444 C   0  0  0  1  0  0  0  0  0  0  0  0
  1  2  1  0  0  0  0
  1  3  1  0  0  0  0
  1  4  2  0  0  0  0
  1  8  1  0  0  0  0
  5  6  1  0  0  0  0
  5  7  2  0  0  0  0
  5  8  1  0  0  0  0
  5 12  1  0  0  0  0
  9 10  2  0  0  0  0
  9 11  1  0  0  0  0
  9 12  1  0  0  0  0
  9 13  1  0  0  0  0
 13 14  1  0  0  0  0
 14 15  1  0  0  0  0
 14 16  1  0  0  0  0
 14 17  1  0  0  0  0
 17 18  1  0  0  0  0
 17 19  1  0  0  0  0
 17 20  1  0  0  0  0
 19 28  1  0  0  0  0
 20 21  1  0  0  0  0
 20 22  1  0  0  0  0
 20 24  1  0  0  0  0
 22 23  1  0  0  0  0
 24 25  1  0  0  0  0
 24 26  1  0  0  0  0
 24 28  1  0  0  0  0
 26 27  1  0  0  0  0
 28 29  1  0  0  0  0
 28 30  1  0  0  0  0
 30 31  1  0  0  0  0
 30 43  1  0  0  0  0
 31 32  1  0  0  0  0
 31 33  2  0  0  0  0
 33 34  1  0  0  0  0
 34 35  1  0  0  0  0
 34 43  2  0  0  0  0
 35 36  1  0  0  0  0
 35 39  2  0  0  0  0
 36 37  1  0  0  0  0
 36 38  1  0  0  0  0
 39 40  1  0  0  0  0
 40 41  1  0  0  0  0
 40 42  2  0  0  0  0
 42 43  1  0  0  0  0
M  BCL ATM P_TeTeTeTePi O_Te2Te2TeTe O_Te2Te2Te2Te O_Tr2Tr2TrPi P_TeTeTeTePi O_Te2Te2TeTe O_Tr2Tr2TrPi O_Tr2TrTrPi2 P_TeTeTeTePi O_Tr2Tr2TrPi O_Te2Te2Te2Te O_Tr2TrTrPi2 O_Tr2TrTrPi2 C_TeTeTeTe H_S H_S C_TeTeTeTe H_S O_Te2Te2TeTe C_TeTeTeTe H_S O_Te2Te2TeTe H_S C_TeTeTeTe H_S O_Te2Te2TeTe H_S C_TeTeTeTe H_S N_TrTrTrPi2 C_TrTrTrPi H_S N_Tr2TrTrPi C_TrTrTrPi C_TrTrTrPi N_TrTrTrPi2 H_S H_S N_Tr2TrTrPi C_TrTrTrPi H_S N_Tr2TrTrPi C_TrTrTrPi
M  BCL BND ConjugatedSingleBond ConjugatedSingleBond ConjugatedDoubleBond ConjugatedSingleBond ConjugatedSingleBond ConjugatedDoubleBond ConjugatedSingleBond ConjugatedSingleBond ConjugatedDoubleBond ConjugatedSingleBond ConjugatedSingleBond ConjugatedSingleBond NonConjugatedSingleBond NonConjugatedSingleBond NonConjugatedSingleBond NonConjugatedSingleBond NonConjugatedSingleBond NonConjugatedSingleBondInRing NonConjugatedSingleBondInRing NonConjugatedSingleBondInRing NonConjugatedSingleBond NonConjugatedSingleBond NonConjugatedSingleBondInRing NonConjugatedSingleBond NonConjugatedSingleBond NonConjugatedSingleBond NonConjugatedSingleBondInRing NonConjugatedSingleBond NonConjugatedSingleBond NonConjugatedSingleBond AromaticSingleBond AromaticSingleBond NonConjugatedSingleBond AromaticDoubleBond AromaticSingleBond AromaticSingleBond AromaticDoubleBond ConjugatedSingleBond AromaticDoubleBond NonConjugatedSingleBond NonConjugatedSingleBond AromaticSingleBond NonConjugatedSingleBond AromaticDoubleBond AromaticSingleBond
M  BCL CHI   1   S   5   S   9   S  17   R  20   S  24   R  28   S
M  BCL DBI - - - - - - -
M  END
> <ConfClashScore>
0 

> <ConfOneFourInteractionScore>
-0.981204 

> <ConfScore>
0.0526212 

> <ConfScorePBest>
0.00819748 

> <ConfTolerance>
1.55956 

$$$$
ATP.****
  PyMOL2.5          3D                             0

 43 45  0  0  0  0  0  0  0  0999 V2000
    1.3092   -0.8113   -5.8930 P   0  0  0  1  0  0  0  0  0  0  0  0
    2.6513   -0.0452   -6.4422 O   0  0  0  0  0  0  0  0  0  0  0  0
    0.9617   -1.8576   -7.0799 O   0  5  0  1  0  0  0  0  0  0  0  0
    0.1087    0.0087   -5.6159 O   0  0  0  1  0  0  0  0  0  0  0  0
    0.9960   -2.7310   -3.6859 P   0  0  0  1  0  0  0  0  0  0  0  0
   -0.3052   -3.0773   -4.2995 O   0  0  0  0  0  0  0  0  0  0  0  0
    1.9681   -3.8189   -3.3971 O   0  0  0  1  0  0  0  0  0  0  0  0
    1.7737   -1.6851   -4.6274 O   0  0  0  1  0  0  0  0  0  0  0  0
   -0.0111   -0.4702   -2.0563 P   0  0  0  1  0  0  0  0  0  0  0  0
   -0.6961   -0.1022   -3.3156 O   0  0  0  1  0  0  0  0  0  0  0  0
    1.3082    0.4463   -1.8470 O   0  5  0  1  0  0  0  0  0  0  0  0
    0.6888   -1.8827   -2.3652 O   0  0  0  1  0  0  0  0  0  0  0  0
   -0.7137   -0.6852   -0.6664 O   0  0  0  1  0  0  0  0  0  0  0  0
   -1.4761    0.2649    0.1146 C   0  0  0  1  0  0  0  0  0  0  0  0
   -2.4237    0.4413   -0.3499 H   0  0  0  1  0  0  0  0  0  0  0  0
   -0.9391    1.1871    0.1921 H   0  0  0  1  0  0  0  0  0  0  0  0
   -1.6792   -0.3287    1.4876 C   0  0  0  1  0  0  0  0  0  0  0  0
   -2.0422   -1.3308    1.3934 H   0  0  0  1  0  0  0  0  0  0  0  0
   -0.4469   -0.3027    2.2405 O   0  0  0  1  0  0  0  0  0  0  0  0
   -2.6623    0.5306    2.3116 C   0  0  0  1  0  0  0  0  0  0  0  0
   -2.6782    1.5385    1.9529 H   0  0  0  1  0  0  0  0  0  0  0  0
   -3.9810   -0.0156    2.2576 O   0  0  0  1  0  0  0  0  0  0  0  0
   -4.5682    0.5099    2.8059 H   0  0  0  1  0  0  0  0  0  0  0  0
   -2.1014    0.4693    3.7516 C   0  0  0  1  0  0  0  0  0  0  0  0
   -1.8439    1.4471    4.1015 H   0  0  0  1  0  0  0  0  0  0  0  0
   -3.0500   -0.1210    4.6414 O   0  0  0  1  0  0  0  0  0  0  0  0
   -3.9194    0.2510    4.4758 H   0  0  0  1  0  0  0  0  0  0  0  0
   -0.8431   -0.4171    3.6237 C   0  0  0  1  0  0  0  0  0  0  0  0
   -1.0727   -1.4336    3.8666 H   0  0  0  1  0  0  0  0  0  0  0  0
    0.2195    0.0677    4.5051 N   0  0  0  1  0  0  0  0  0  0  0  0
    0.4266    1.3529    4.9027 C   0  0  0  1  0  0  0  0  0  0  0  0
   -0.2297    2.1241    4.6657 H   0  0  0  1  0  0  0  0  0  0  0  0
    1.5109    1.5446    5.6037 N   0  0  0  1  0  0  0  0  0  0  0  0
    2.0704    0.2792    5.6887 C   0  0  0  1  0  0  0  0  0  0  0  0
    3.2227   -0.2348    6.2760 C   0  0  0  1  0  0  0  0  0  0  0  0
    4.1654    0.4981    6.9888 N   0  0  0  1  0  0  0  0  0  0  0  0
    4.0365    1.4598    7.1263 H   0  0  0  1  0  0  0  0  0  0  0  0
    4.9586    0.0529    7.3535 H   0  0  0  1  0  0  0  0  0  0  0  0
    3.4926   -1.5408    6.1746 N   0  0  0  1  0  0  0  0  0  0  0  0
    2.6331   -2.3096    5.4874 C   0  0  0  1  0  0  0  0  0  0  0  0
    2.8802   -3.3181    5.4279 H   0  0  0  1  0  0  0  0  0  0  0  0
    1.5104   -1.9566    4.8736 N   0  0  0  1  0  0  0  0  0  0  0  0
    1.2731   -0.6510    5.0083 C   0  0  0  1  0  0  0  0  0  0  0  0
  1  2  1  0  0  0  0
  1  3  1  0  0  0  0
  1  4  2  0  0  0  0
  1  8  1  0  0  0  0
  5  6  1  0  0  0  0
  5  7  2  0  0  0  0
  5  8  1  0  0  0  0
  5 12  1  0  0  0  0
  9 10  2  0  0  0  0
  9 11  1  0  0  0  0
  9 12  1  0  0  0  0
  9 13  1  0  0  0  0
 13 14  1  0  0  0  0
 14 15  1  0  0  0  0
 14 16  1  0  0  0  0
 14 17  1  0  0  0  0
 17 18  1  0  0  0  0
 17 19  1  0  0  0  0
 17 20  1  0  0  0  0
 19 28  1  0  0  0  0
 20 21  1  0  0  0  0
 20 22  1  0  0  0  0
 20 24  1  0  0  0  0
 22 23  1  0  0  0  0
 24 25  1  0  0  0  0
 24 26  1  0  0  0  0
 24 28  1  0  0  0  0
 26 27  1  0  0  0  0
 28 29  1  0  0  0  0
 28 30  1  0  0  0  0
 30 31  1  0  0  0  0
 30 43  1  0  0  0  0
 31 32  1  0  0  0  0
 31 33  2  0  0  0  0
 33 34  1  0  0  0  0
 34 35  1  0  0  0  0
 34 43  2  0  0  0  0
 35 36  1  0  0  0  0
 35 39  2  0  0  0  0
 36 37  1  0  0  0  0
 36 38  1  0  0  0  0
 39 40  1  0  0  0  0
 40 41  1  0  0  0  0
 40 42  2  0  0  0  0
 42 43  1  0  0  0  0
M  BCL ATM P_TeTeTeTePi O_Te2Te2TeTe O_Te2Te2Te2Te O_Tr2Tr2TrPi P_TeTeTeTePi O_Te2Te2TeTe O_Tr2Tr2TrPi O_Tr2TrTrPi2 P_TeTeTeTePi O_Tr2Tr2TrPi O_Te2Te2Te2Te O_Tr2TrTrPi2 O_Tr2TrTrPi2 C_TeTeTeTe H_S H_S C_TeTeTeTe H_S O_Te2Te2TeTe C_TeTeTeTe H_S O_Te2Te2TeTe H_S C_TeTeTeTe H_S O_Te2Te2TeTe H_S C_TeTeTeTe H_S N_TrTrTrPi2 C_TrTrTrPi H_S N_Tr2TrTrPi C_TrTrTrPi C_TrTrTrPi N_TrTrTrPi2 H_S H_S N_Tr2TrTrPi C_TrTrTrPi H_S N_Tr2TrTrPi C_TrTrTrPi
M  BCL BND ConjugatedSingleBond ConjugatedSingleBond ConjugatedDoubleBond ConjugatedSingleBond ConjugatedSingleBond ConjugatedDoubleBond ConjugatedSingleBond ConjugatedSingleBond ConjugatedDoubleBond ConjugatedSingleBond ConjugatedSingleBond ConjugatedSingleBond NonConjugatedSingleBond NonConjugatedSingleBond NonConjugatedSingleBond NonConjugatedSingleBond NonConjugatedSingleBond NonConjugatedSingleBondInRing NonConjugatedSingleBondInRing NonConjugatedSingleBondInRing NonConjugatedSingleBond NonConjugatedSingleBond NonConjugatedSingleBondInRing NonConjugatedSingleBond NonConjugatedSingleBond NonConjugatedSingleBond NonConjugatedSingleBondInRing NonConjugatedSingleBond NonConjugatedSingleBond NonConjugatedSingleBond AromaticSingleBond AromaticSingleBond NonConjugatedSingleBond AromaticDoubleBond AromaticSingleBond AromaticSingleBond AromaticDoubleBond ConjugatedSingleBond AromaticDoubleBond NonConjugatedSingleBond NonConjugatedSingleBond AromaticSingleBond NonConjugatedSingleBond AromaticDoubleBond AromaticSingleBond
M  BCL CHI   1   S   5   S   9   S  17   R  20   S  24   R  28   S
M  BCL DBI - - - - - - -
M  END
> <ConfClashScore>
0 

> <ConfOneFourInteractionScore>
-0.974492 

> <ConfScore>
0.0534618 

> <ConfScorePBest>
0.00809448 

> <ConfTolerance>
1.34353 

$$$$
ATP.****
  PyMOL2.5          3D                             0

 43 45  0  0  0  0  0  0  0  0999 V2000
    3.9535    0.4854   -2.5002 P   0  0  0  1  0  0  0  0  0  0  0  0
    5.5164    0.0414   -2.7234 O   0  0  0  0  0  0  0  0  0  0  0  0
    3.3903    1.0194   -3.9222 O   0  5  0  1  0  0  0  0  0  0  0  0
    3.9186    1.6604   -1.6010 O   0  0  0  1  0  0  0  0  0  0  0  0
    1.5838   -1.2508   -2.1429 P   0  0  0  1  0  0  0  0  0  0  0  0
    1.3898   -2.1011   -3.3420 O   0  0  0  0  0  0  0  0  0  0  0  0
    1.1566   -1.7329   -0.8057 O   0  0  0  1  0  0  0  0  0  0  0  0
    3.1104   -0.7830   -2.0117 O   0  0  0  1  0  0  0  0  0  0  0  0
    0.5095    1.3479   -1.3747 P   0  0  0  1  0  0  0  0  0  0  0  0
   -0.1774    2.5172   -1.9673 O   0  0  0  1  0  0  0  0  0  0  0  0
    1.8546    1.7997   -0.5931 O   0  5  0  1  0  0  0  0  0  0  0  0
    0.9188    0.1844   -2.4061 O   0  0  0  1  0  0  0  0  0  0  0  0
   -0.3242    0.4489   -0.3883 O   0  0  0  1  0  0  0  0  0  0  0  0
   -1.1229    1.0449    0.6665 C   0  0  0  1  0  0  0  0  0  0  0  0
   -1.8737    1.6780    0.2416 H   0  0  0  1  0  0  0  0  0  0  0  0
   -0.4972    1.6198    1.3168 H   0  0  0  1  0  0  0  0  0  0  0  0
   -1.7746   -0.0790    1.4397 C   0  0  0  1  0  0  0  0  0  0  0  0
   -2.2169   -0.7733    0.7561 H   0  0  0  1  0  0  0  0  0  0  0  0
   -0.7901   -0.7516    2.2653 O   0  0  0  1  0  0  0  0  0  0  0  0
   -2.8434    0.4827    2.3852 C   0  0  0  1  0  0  0  0  0  0  0  0
   -3.1601    1.4555    2.0717 H   0  0  0  1  0  0  0  0  0  0  0  0
   -3.9740   -0.3874    2.4549 O   0  0  0  1  0  0  0  0  0  0  0  0
   -4.0687   -0.8571    1.6231 H   0  0  0  1  0  0  0  0  0  0  0  0
   -2.1161    0.5491    3.7343 C   0  0  0  1  0  0  0  0  0  0  0  0
   -1.6195    1.4883    3.8617 H   0  0  0  1  0  0  0  0  0  0  0  0
   -3.0188    0.3359    4.8205 O   0  0  0  1  0  0  0  0  0  0  0  0
   -2.9059    1.0316    5.4723 H   0  0  0  1  0  0  0  0  0  0  0  0
   -1.1036   -0.6066    3.6141 C   0  0  0  1  0  0  0  0  0  0  0  0
   -1.5363   -1.5112    3.9876 H   0  0  0  1  0  0  0  0  0  0  0  0
    0.1060   -0.2922    4.3769 N   0  0  0  1  0  0  0  0  0  0  0  0
    0.3040   -0.4690    5.7120 C   0  0  0  1  0  0  0  0  0  0  0  0
   -0.4239   -0.8707    6.3368 H   0  0  0  1  0  0  0  0  0  0  0  0
    1.4762   -0.0965    6.1489 N   0  0  0  1  0  0  0  0  0  0  0  0
    2.1181    0.3594    5.0079 C   0  0  0  1  0  0  0  0  0  0  0  0
    3.3740    0.9017    4.7522 C   0  0  0  1  0  0  0  0  0  0  0  0
    4.2756    1.0751    5.7616 N   0  0  0  1  0  0  0  0  0  0  0  0
    4.0220    0.8699    6.6857 H   0  0  0  1  0  0  0  0  0  0  0  0
    5.1768    1.4047    5.5625 H   0  0  0  1  0  0  0  0  0  0  0  0
    3.7015    1.2568    3.5051 N   0  0  0  1  0  0  0  0  0  0  0  0
    2.7841    1.0849    2.5403 C   0  0  0  1  0  0  0  0  0  0  0  0
    3.0753    1.3769    1.5856 H   0  0  0  1  0  0  0  0  0  0  0  0
    1.5555    0.5925    2.6403 N   0  0  0  1  0  0  0  0  0  0  0  0
    1.2738    0.2411    3.8957 C   0  0  0  1  0  0  0  0  0  0  0  0
  1  2  1  0  0  0  0
  1  3  1  0  0  0  0
  1  4  2  0  0  0  0
  1  8  1  0  0  0  0
  5  6  1  0  0  0  0
  5  7  2  0  0  0  0
  5  8  1  0  0  0  0
  5 12  1  0  0  0  0
  9 10  2  0  0  0  0
  9 11  1  0  0  0  0
  9 12  1  0  0  0  0
  9 13  1  0  0  0  0
 13 14  1  0  0  0  0
 14 15  1  0  0  0  0
 14 16  1  0  0  0  0
 14 17  1  0  0  0  0
 17 18  1  0  0  0  0
 17 19  1  0  0  0  0
 17 20  1  0  0  0  0
 19 28  1  0  0  0  0
 20 21  1  0  0  0  0
 20 22  1  0  0  0  0
 20 24  1  0  0  0  0
 22 23  1  0  0  0  0
 24 25  1  0  0  0  0
 24 26  1  0  0  0  0
 24 28  1  0  0  0  0
 26 27  1  0  0  0  0
 28 29  1  0  0  0  0
 28 30  1  0  0  0  0
 30 31  1  0  0  0  0
 30 43  1  0  0  0  0
 31 32  1  0  0  0  0
 31 33  2  0  0  0  0
 33 34  1  0  0  0  0
 34 35  1  0  0  0  0
 34 43  2  0  0  0  0
 35 36  1  0  0  0  0
 35 39  2  0  0  0  0
 36 37  1  0  0  0  0
 36 38  1  0  0  0  0
 39 40  1  0  0  0  0
 40 41  1  0  0  0  0
 40 42  2  0  0  0  0
 42 43  1  0  0  0  0
M  BCL ATM P_TeTeTeTePi O_Te2Te2TeTe O_Te2Te2Te2Te O_Tr2Tr2TrPi P_TeTeTeTePi O_Te2Te2TeTe O_Tr2Tr2TrPi O_Tr2TrTrPi2 P_TeTeTeTePi O_Tr2Tr2TrPi O_Te2Te2Te2Te O_Tr2TrTrPi2 O_Tr2TrTrPi2 C_TeTeTeTe H_S H_S C_TeTeTeTe H_S O_Te2Te2TeTe C_TeTeTeTe H_S O_Te2Te2TeTe H_S C_TeTeTeTe H_S O_Te2Te2TeTe H_S C_TeTeTeTe H_S N_TrTrTrPi2 C_TrTrTrPi H_S N_Tr2TrTrPi C_TrTrTrPi C_TrTrTrPi N_TrTrTrPi2 H_S H_S N_Tr2TrTrPi C_TrTrTrPi H_S N_Tr2TrTrPi C_TrTrTrPi
M  BCL BND ConjugatedSingleBond ConjugatedSingleBond ConjugatedDoubleBond ConjugatedSingleBond ConjugatedSingleBond ConjugatedDoubleBond ConjugatedSingleBond ConjugatedSingleBond ConjugatedDoubleBond ConjugatedSingleBond ConjugatedSingleBond ConjugatedSingleBond NonConjugatedSingleBond NonConjugatedSingleBond NonConjugatedSingleBond NonConjugatedSingleBond NonConjugatedSingleBond NonConjugatedSingleBondInRing NonConjugatedSingleBondInRing NonConjugatedSingleBondInRing NonConjugatedSingleBond NonConjugatedSingleBond NonConjugatedSingleBondInRing NonConjugatedSingleBond NonConjugatedSingleBond NonConjugatedSingleBond NonConjugatedSingleBondInRing NonConjugatedSingleBond NonConjugatedSingleBond NonConjugatedSingleBond AromaticSingleBond AromaticSingleBond NonConjugatedSingleBond AromaticDoubleBond AromaticSingleBond AromaticSingleBond AromaticDoubleBond ConjugatedSingleBond AromaticDoubleBond NonConjugatedSingleBond NonConjugatedSingleBond AromaticSingleBond NonConjugatedSingleBond AromaticDoubleBond AromaticSingleBond
M  BCL CHI   1   S   5   S   9   S  17   R  20   S  24   R  28   S
M  BCL DBI - - - - - - -
M  END
> <ConfClashScore>
0 

> <ConfOneFourInteractionScore>
-0.974358 

> <ConfScore>
0.0562048 

> <ConfScorePBest>
0.00799148 

> <ConfTolerance>
1.49521 

$$$$
ATP.****
  PyMOL2.5          3D                             0

 43 45  0  0  0  0  0  0  0  0999 V2000
   -0.4798   -1.9388   -3.3116 P   0  0  0  1  0  0  0  0  0  0  0  0
    0.7033   -2.1825   -4.4208 O   0  0  0  0  0  0  0  0  0  0  0  0
   -0.5838   -3.1414   -2.2311 O   0  5  0  1  0  0  0  0  0  0  0  0
   -1.8169   -1.6198   -3.8601 O   0  0  0  1  0  0  0  0  0  0  0  0
    1.3247    0.2111   -2.5449 P   0  0  0  1  0  0  0  0  0  0  0  0
    2.4743   -0.7247   -2.5515 O   0  0  0  0  0  0  0  0  0  0  0  0
    1.1528    1.1978   -3.6314 O   0  0  0  1  0  0  0  0  0  0  0  0
   -0.0239   -0.6506   -2.4727 O   0  0  0  1  0  0  0  0  0  0  0  0
    0.0908    2.0064   -0.7406 P   0  0  0  1  0  0  0  0  0  0  0  0
   -0.6864    2.2751   -1.9711 O   0  0  0  1  0  0  0  0  0  0  0  0
    0.9490    3.2819   -0.2297 O   0  5  0  1  0  0  0  0  0  0  0  0
    1.3056    1.0228   -1.1456 O   0  0  0  1  0  0  0  0  0  0  0  0
   -0.6671    1.3087    0.4490 O   0  0  0  1  0  0  0  0  0  0  0  0
   -1.3637    0.0559    0.2517 C   0  0  0  1  0  0  0  0  0  0  0  0
   -0.6983   -0.6498   -0.2002 H   0  0  0  1  0  0  0  0  0  0  0  0
   -2.2036    0.2172   -0.3912 H   0  0  0  1  0  0  0  0  0  0  0  0
   -1.8472   -0.4924    1.5735 C   0  0  0  1  0  0  0  0  0  0  0  0
   -2.5026   -1.3199    1.3987 H   0  0  0  1  0  0  0  0  0  0  0  0
   -0.7281   -0.9067    2.3784 O   0  0  0  1  0  0  0  0  0  0  0  0
   -2.5435    0.5535    2.3308 C   0  0  0  1  0  0  0  0  0  0  0  0
   -2.2013    1.5226    2.0331 H   0  0  0  1  0  0  0  0  0  0  0  0
   -3.9544    0.4629    2.1277 O   0  0  0  1  0  0  0  0  0  0  0  0
   -4.3975    1.1336    2.6525 H   0  0  0  1  0  0  0  0  0  0  0  0
   -2.1972    0.2907    3.7890 C   0  0  0  1  0  0  0  0  0  0  0  0
   -2.2154    1.1919    4.3656 H   0  0  0  1  0  0  0  0  0  0  0  0
   -3.0808   -0.6673    4.3734 O   0  0  0  1  0  0  0  0  0  0  0  0
   -3.9607   -0.2901    4.4446 H   0  0  0  1  0  0  0  0  0  0  0  0
   -0.7770   -0.2626    3.6566 C   0  0  0  1  0  0  0  0  0  0  0  0
   -0.5773   -0.9671    4.4368 H   0  0  0  1  0  0  0  0  0  0  0  0
    0.2017    0.8247    3.7175 N   0  0  0  1  0  0  0  0  0  0  0  0
   -0.0098    2.1312    3.3994 C   0  0  0  1  0  0  0  0  0  0  0  0
   -0.9491    2.5007    3.1491 H   0  0  0  1  0  0  0  0  0  0  0  0
    1.0552    2.8852    3.4323 N   0  0  0  1  0  0  0  0  0  0  0  0
    2.0608    2.0104    3.8128 C   0  0  0  1  0  0  0  0  0  0  0  0
    3.4295    2.1402    4.0292 C   0  0  0  1  0  0  0  0  0  0  0  0
    4.0973    3.3212    3.8843 N   0  0  0  1  0  0  0  0  0  0  0  0
    5.0327    3.3932    4.1675 H   0  0  0  1  0  0  0  0  0  0  0  0
    3.6415    4.0976    3.4970 H   0  0  0  1  0  0  0  0  0  0  0  0
    4.1468    1.0731    4.3971 N   0  0  0  1  0  0  0  0  0  0  0  0
    3.5073   -0.0997    4.5303 C   0  0  0  1  0  0  0  0  0  0  0  0
    4.1003   -0.9057    4.8134 H   0  0  0  1  0  0  0  0  0  0  0  0
    2.2203   -0.3694    4.3494 N   0  0  0  1  0  0  0  0  0  0  0  0
    1.5404    0.7220    3.9950 C   0  0  0  1  0  0  0  0  0  0  0  0
  1  2  1  0  0  0  0
  1  3  1  0  0  0  0
  1  4  2  0  0  0  0
  1  8  1  0  0  0  0
  5  6  1  0  0  0  0
  5  7  2  0  0  0  0
  5  8  1  0  0  0  0
  5 12  1  0  0  0  0
  9 10  2  0  0  0  0
  9 11  1  0  0  0  0
  9 12  1  0  0  0  0
  9 13  1  0  0  0  0
 13 14  1  0  0  0  0
 14 15  1  0  0  0  0
 14 16  1  0  0  0  0
 14 17  1  0  0  0  0
 17 18  1  0  0  0  0
 17 19  1  0  0  0  0
 17 20  1  0  0  0  0
 19 28  1  0  0  0  0
 20 21  1  0  0  0  0
 20 22  1  0  0  0  0
 20 24  1  0  0  0  0
 22 23  1  0  0  0  0
 24 25  1  0  0  0  0
 24 26  1  0  0  0  0
 24 28  1  0  0  0  0
 26 27  1  0  0  0  0
 28 29  1  0  0  0  0
 28 30  1  0  0  0  0
 30 31  1  0  0  0  0
 30 43  1  0  0  0  0
 31 32  1  0  0  0  0
 31 33  2  0  0  0  0
 33 34  1  0  0  0  0
 34 35  1  0  0  0  0
 34 43  2  0  0  0  0
 35 36  1  0  0  0  0
 35 39  2  0  0  0  0
 36 37  1  0  0  0  0
 36 38  1  0  0  0  0
 39 40  1  0  0  0  0
 40 41  1  0  0  0  0
 40 42  2  0  0  0  0
 42 43  1  0  0  0  0
M  BCL ATM P_TeTeTeTePi O_Te2Te2TeTe O_Te2Te2Te2Te O_Tr2Tr2TrPi P_TeTeTeTePi O_Te2Te2TeTe O_Tr2Tr2TrPi O_Tr2TrTrPi2 P_TeTeTeTePi O_Tr2Tr2TrPi O_Te2Te2Te2Te O_Tr2TrTrPi2 O_Tr2TrTrPi2 C_TeTeTeTe H_S H_S C_TeTeTeTe H_S O_Te2Te2TeTe C_TeTeTeTe H_S O_Te2Te2TeTe H_S C_TeTeTeTe H_S O_Te2Te2TeTe H_S C_TeTeTeTe H_S N_TrTrTrPi2 C_TrTrTrPi H_S N_Tr2TrTrPi C_TrTrTrPi C_TrTrTrPi N_TrTrTrPi2 H_S H_S N_Tr2TrTrPi C_TrTrTrPi H_S N_Tr2TrTrPi C_TrTrTrPi
M  BCL BND ConjugatedSingleBond ConjugatedSingleBond ConjugatedDoubleBond ConjugatedSingleBond ConjugatedSingleBond ConjugatedDoubleBond ConjugatedSingleBond ConjugatedSingleBond ConjugatedDoubleBond ConjugatedSingleBond ConjugatedSingleBond ConjugatedSingleBond NonConjugatedSingleBond NonConjugatedSingleBond NonConjugatedSingleBond NonConjugatedSingleBond NonConjugatedSingleBond NonConjugatedSingleBondInRing NonConjugatedSingleBondInRing NonConjugatedSingleBondInRing NonConjugatedSingleBond NonConjugatedSingleBond NonConjugatedSingleBondInRing NonConjugatedSingleBond NonConjugatedSingleBond NonConjugatedSingleBond NonConjugatedSingleBondInRing NonConjugatedSingleBond NonConjugatedSingleBond NonConjugatedSingleBond AromaticSingleBond AromaticSingleBond NonConjugatedSingleBond AromaticDoubleBond AromaticSingleBond AromaticSingleBond AromaticDoubleBond ConjugatedSingleBond AromaticDoubleBond NonConjugatedSingleBond NonConjugatedSingleBond AromaticSingleBond NonConjugatedSingleBond AromaticDoubleBond AromaticSingleBond
M  BCL CHI   1   S   5   S   9   S  17   R  20   S  24   R  28   S
M  BCL DBI - - - - - - -
M  END
> <ConfClashScore>
0 

> <ConfOneFourInteractionScore>
-0.978592 

> <ConfScore>
0.0599484 

> <ConfScorePBest>
0.00788848 

> <ConfTolerance>
1.46905 

$$$$
ATP.****
  PyMOL2.5          3D                             0

 43 45  0  0  0  0  0  0  0  0999 V2000
   -3.3327    1.3031   -3.8721 P   0  0  0  1  0  0  0  0  0  0  0  0
   -2.7323    2.8163   -4.0701 O   0  0  0  0  0  0  0  0  0  0  0  0
   -1.9486    0.4896   -3.6560 O   0  5  0  1  0  0  0  0  0  0  0  0
   -4.0032    0.9282   -5.1371 O   0  0  0  1  0  0  0  0  0  0  0  0
   -4.7426    2.4672   -1.5741 P   0  0  0  1  0  0  0  0  0  0  0  0
   -5.6652    3.4032   -2.2545 O   0  0  0  0  0  0  0  0  0  0  0  0
   -5.1501    1.7640   -0.3480 O   0  0  0  1  0  0  0  0  0  0  0  0
   -4.2384    1.2970   -2.5450 O   0  0  0  1  0  0  0  0  0  0  0  0
   -1.9348    2.9716   -0.9156 P   0  0  0  1  0  0  0  0  0  0  0  0
   -1.3850    3.9706    0.0279 O   0  0  0  1  0  0  0  0  0  0  0  0
   -0.9971    2.6762   -2.2032 O   0  5  0  1  0  0  0  0  0  0  0  0
   -3.4323    3.3498   -1.3405 O   0  0  0  1  0  0  0  0  0  0  0  0
   -2.1119    1.5928   -0.1857 O   0  0  0  1  0  0  0  0  0  0  0  0
   -1.0628    0.9679    0.5907 C   0  0  0  1  0  0  0  0  0  0  0  0
   -0.6216    1.6969    1.2379 H   0  0  0  1  0  0  0  0  0  0  0  0
   -0.3173    0.5805   -0.0718 H   0  0  0  1  0  0  0  0  0  0  0  0
   -1.6238   -0.1610    1.4228 C   0  0  0  1  0  0  0  0  0  0  0  0
   -1.9963   -0.9292    0.7777 H   0  0  0  1  0  0  0  0  0  0  0  0
   -0.6078   -0.6908    2.2927 O   0  0  0  1  0  0  0  0  0  0  0  0
   -2.7550    0.3618    2.3423 C   0  0  0  1  0  0  0  0  0  0  0  0
   -3.1390    1.2955    1.9879 H   0  0  0  1  0  0  0  0  0  0  0  0
   -3.8193   -0.5859    2.4382 O   0  0  0  1  0  0  0  0  0  0  0  0
   -4.6185   -0.1418    2.7308 H   0  0  0  1  0  0  0  0  0  0  0  0
   -2.0517    0.5312    3.6775 C   0  0  0  1  0  0  0  0  0  0  0  0
   -1.6052    1.5002    3.7584 H   0  0  0  1  0  0  0  0  0  0  0  0
   -2.9565    0.3301    4.7664 O   0  0  0  1  0  0  0  0  0  0  0  0
   -3.7149    0.9097    4.6640 H   0  0  0  1  0  0  0  0  0  0  0  0
   -0.9814   -0.5709    3.6351 C   0  0  0  1  0  0  0  0  0  0  0  0
   -1.3845   -1.4951    3.9931 H   0  0  0  1  0  0  0  0  0  0  0  0
    0.1718   -0.1919    4.4522 N   0  0  0  1  0  0  0  0  0  0  0  0
    0.8906    0.9536    4.2980 C   0  0  0  1  0  0  0  0  0  0  0  0
    0.6617    1.6642    3.5739 H   0  0  0  1  0  0  0  0  0  0  0  0
    1.8888    1.0932    5.1275 N   0  0  0  1  0  0  0  0  0  0  0  0
    1.8258   -0.0515    5.9067 C   0  0  0  1  0  0  0  0  0  0  0  0
    2.5835   -0.5495    6.9626 C   0  0  0  1  0  0  0  0  0  0  0  0
    3.6598    0.1501    7.4410 N   0  0  0  1  0  0  0  0  0  0  0  0
    3.9632    0.9591    6.9784 H   0  0  0  1  0  0  0  0  0  0  0  0
    4.1264   -0.1583    8.2457 H   0  0  0  1  0  0  0  0  0  0  0  0
    2.2585   -1.7227    7.5165 N   0  0  0  1  0  0  0  0  0  0  0  0
    1.2064   -2.3867    7.0123 C   0  0  0  1  0  0  0  0  0  0  0  0
    0.9886   -3.2962    7.4672 H   0  0  0  1  0  0  0  0  0  0  0  0
    0.4066   -2.0393    6.0116 N   0  0  0  1  0  0  0  0  0  0  0  0
    0.7579   -0.8605    5.4959 C   0  0  0  1  0  0  0  0  0  0  0  0
  1  2  1  0  0  0  0
  1  3  1  0  0  0  0
  1  4  2  0  0  0  0
  1  8  1  0  0  0  0
  5  6  1  0  0  0  0
  5  7  2  0  0  0  0
  5  8  1  0  0  0  0
  5 12  1  0  0  0  0
  9 10  2  0  0  0  0
  9 11  1  0  0  0  0
  9 12  1  0  0  0  0
  9 13  1  0  0  0  0
 13 14  1  0  0  0  0
 14 15  1  0  0  0  0
 14 16  1  0  0  0  0
 14 17  1  0  0  0  0
 17 18  1  0  0  0  0
 17 19  1  0  0  0  0
 17 20  1  0  0  0  0
 19 28  1  0  0  0  0
 20 21  1  0  0  0  0
 20 22  1  0  0  0  0
 20 24  1  0  0  0  0
 22 23  1  0  0  0  0
 24 25  1  0  0  0  0
 24 26  1  0  0  0  0
 24 28  1  0  0  0  0
 26 27  1  0  0  0  0
 28 29  1  0  0  0  0
 28 30  1  0  0  0  0
 30 31  1  0  0  0  0
 30 43  1  0  0  0  0
 31 32  1  0  0  0  0
 31 33  2  0  0  0  0
 33 34  1  0  0  0  0
 34 35  1  0  0  0  0
 34 43  2  0  0  0  0
 35 36  1  0  0  0  0
 35 39  2  0  0  0  0
 36 37  1  0  0  0  0
 36 38  1  0  0  0  0
 39 40  1  0  0  0  0
 40 41  1  0  0  0  0
 40 42  2  0  0  0  0
 42 43  1  0  0  0  0
M  BCL ATM P_TeTeTeTePi O_Te2Te2TeTe O_Te2Te2Te2Te O_Tr2Tr2TrPi P_TeTeTeTePi O_Te2Te2TeTe O_Tr2Tr2TrPi O_Tr2TrTrPi2 P_TeTeTeTePi O_Tr2Tr2TrPi O_Te2Te2Te2Te O_Tr2TrTrPi2 O_Tr2TrTrPi2 C_TeTeTeTe H_S H_S C_TeTeTeTe H_S O_Te2Te2TeTe C_TeTeTeTe H_S O_Te2Te2TeTe H_S C_TeTeTeTe H_S O_Te2Te2TeTe H_S C_TeTeTeTe H_S N_TrTrTrPi2 C_TrTrTrPi H_S N_Tr2TrTrPi C_TrTrTrPi C_TrTrTrPi N_TrTrTrPi2 H_S H_S N_Tr2TrTrPi C_TrTrTrPi H_S N_Tr2TrTrPi C_TrTrTrPi
M  BCL BND ConjugatedSingleBond ConjugatedSingleBond ConjugatedDoubleBond ConjugatedSingleBond ConjugatedSingleBond ConjugatedDoubleBond ConjugatedSingleBond ConjugatedSingleBond ConjugatedDoubleBond ConjugatedSingleBond ConjugatedSingleBond ConjugatedSingleBond NonConjugatedSingleBond NonConjugatedSingleBond NonConjugatedSingleBond NonConjugatedSingleBond NonConjugatedSingleBond NonConjugatedSingleBondInRing NonConjugatedSingleBondInRing NonConjugatedSingleBondInRing NonConjugatedSingleBond NonConjugatedSingleBond NonConjugatedSingleBondInRing NonConjugatedSingleBond NonConjugatedSingleBond NonConjugatedSingleBond NonConjugatedSingleBondInRing NonConjugatedSingleBond NonConjugatedSingleBond NonConjugatedSingleBond AromaticSingleBond AromaticSingleBond NonConjugatedSingleBond AromaticDoubleBond AromaticSingleBond AromaticSingleBond AromaticDoubleBond ConjugatedSingleBond AromaticDoubleBond NonConjugatedSingleBond NonConjugatedSingleBond AromaticSingleBond NonConjugatedSingleBond AromaticDoubleBond AromaticSingleBond
M  BCL CHI   1   S   5   S   9   S  17   R  20   S  24   R  28   S
M  BCL DBI - - - - - - -
M  END
> <ConfClashScore>
0 

> <ConfOneFourInteractionScore>
-0.981204 

> <ConfScore>
0.060107 

> <ConfScorePBest>
0.00778548 

> <ConfTolerance>
1.47064 

$$$$
ATP.****
  PyMOL2.5          3D                             0

 43 45  0  0  0  0  0  0  0  0999 V2000
    2.5776    3.0931   -3.3254 P   0  0  0  1  0  0  0  0  0  0  0  0
    3.2213    1.7195   -2.7021 O   0  0  0  0  0  0  0  0  0  0  0  0
    3.5431    3.1563   -4.6247 O   0  5  0  1  0  0  0  0  0  0  0  0
    2.8901    4.2293   -2.4301 O   0  0  0  1  0  0  0  0  0  0  0  0
    0.0144    1.6256   -3.7450 P   0  0  0  1  0  0  0  0  0  0  0  0
   -1.1491    1.9718   -4.5975 O   0  0  0  0  0  0  0  0  0  0  0  0
    0.8420    0.4257   -4.0063 O   0  0  0  1  0  0  0  0  0  0  0  0
    1.0652    2.8294   -3.7400 O   0  0  0  1  0  0  0  0  0  0  0  0
    0.2769    1.7995   -0.8470 P   0  0  0  1  0  0  0  0  0  0  0  0
    0.9308    3.1181   -0.6914 O   0  0  0  1  0  0  0  0  0  0  0  0
    1.3355    0.5757   -0.7704 O   0  5  0  1  0  0  0  0  0  0  0  0
   -0.5200    1.6307   -2.2331 O   0  0  0  1  0  0  0  0  0  0  0  0
   -0.7812    1.4705    0.2703 O   0  0  0  1  0  0  0  0  0  0  0  0
   -1.6408    0.3117    0.1598 C   0  0  0  1  0  0  0  0  0  0  0  0
   -1.1726   -0.4325   -0.4501 H   0  0  0  1  0  0  0  0  0  0  0  0
   -2.5771    0.5927   -0.2752 H   0  0  0  1  0  0  0  0  0  0  0  0
   -1.8623   -0.2295    1.5524 C   0  0  0  1  0  0  0  0  0  0  0  0
   -2.3795   -1.1644    1.4942 H   0  0  0  1  0  0  0  0  0  0  0  0
   -0.6038   -0.3865    2.2435 O   0  0  0  1  0  0  0  0  0  0  0  0
   -2.6581    0.7798    2.4079 C   0  0  0  1  0  0  0  0  0  0  0  0
   -2.5371    1.7744    2.0322 H   0  0  0  1  0  0  0  0  0  0  0  0
   -4.0461    0.4434    2.4285 O   0  0  0  1  0  0  0  0  0  0  0  0
   -4.1673   -0.4392    2.0708 H   0  0  0  1  0  0  0  0  0  0  0  0
   -2.0403    0.6475    3.8196 C   0  0  0  1  0  0  0  0  0  0  0  0
   -1.6179    1.5774    4.1387 H   0  0  0  1  0  0  0  0  0  0  0  0
   -3.0216    0.2201    4.7653 O   0  0  0  1  0  0  0  0  0  0  0  0
   -3.5435   -0.4910    4.3865 H   0  0  0  1  0  0  0  0  0  0  0  0
   -0.9416   -0.4239    3.6463 C   0  0  0  1  0  0  0  0  0  0  0  0
   -1.3120   -1.3902    3.9184 H   0  0  0  1  0  0  0  0  0  0  0  0
    0.2267   -0.1001    4.4657 N   0  0  0  1  0  0  0  0  0  0  0  0
    0.7474   -0.9131    5.4252 C   0  0  0  1  0  0  0  0  0  0  0  0
    0.3939   -1.8764    5.5941 H   0  0  0  1  0  0  0  0  0  0  0  0
    1.7240   -0.3925    6.1174 N   0  0  0  1  0  0  0  0  0  0  0  0
    1.8737    0.8713    5.5679 C   0  0  0  1  0  0  0  0  0  0  0  0
    2.7135    1.9499    5.8294 C   0  0  0  1  0  0  0  0  0  0  0  0
    3.6683    1.9327    6.8116 N   0  0  0  1  0  0  0  0  0  0  0  0
    3.8511    1.1047    7.3029 H   0  0  0  1  0  0  0  0  0  0  0  0
    4.1686    2.7485    7.0230 H   0  0  0  1  0  0  0  0  0  0  0  0
    2.6038    3.0671    5.1024 N   0  0  0  1  0  0  0  0  0  0  0  0
    1.6633    3.1054    4.1453 C   0  0  0  1  0  0  0  0  0  0  0  0
    1.6071    3.9924    3.6052 H   0  0  0  1  0  0  0  0  0  0  0  0
    0.7955    2.1640    3.7951 N   0  0  0  1  0  0  0  0  0  0  0  0
    0.9460    1.0650    4.5356 C   0  0  0  1  0  0  0  0  0  0  0  0
  1  2  1  0  0  0  0
  1  3  1  0  0  0  0
  1  4  2  0  0  0  0
  1  8  1  0  0  0  0
  5  6  1  0  0  0  0
  5  7  2  0  0  0  0
  5  8  1  0  0  0  0
  5 12  1  0  0  0  0
  9 10  2  0  0  0  0
  9 11  1  0  0  0  0
  9 12  1  0  0  0  0
  9 13  1  0  0  0  0
 13 14  1  0  0  0  0
 14 15  1  0  0  0  0
 14 16  1  0  0  0  0
 14 17  1  0  0  0  0
 17 18  1  0  0  0  0
 17 19  1  0  0  0  0
 17 20  1  0  0  0  0
 19 28  1  0  0  0  0
 20 21  1  0  0  0  0
 20 22  1  0  0  0  0
 20 24  1  0  0  0  0
 22 23  1  0  0  0  0
 24 25  1  0  0  0  0
 24 26  1  0  0  0  0
 24 28  1  0  0  0  0
 26 27  1  0  0  0  0
 28 29  1  0  0  0  0
 28 30  1  0  0  0  0
 30 31  1  0  0  0  0
 30 43  1  0  0  0  0
 31 32  1  0  0  0  0
 31 33  2  0  0  0  0
 33 34  1  0  0  0  0
 34 35  1  0  0  0  0
 34 43  2  0  0  0  0
 35 36  1  0  0  0  0
 35 39  2  0  0  0  0
 36 37  1  0  0  0  0
 36 38  1  0  0  0  0
 39 40  1  0  0  0  0
 40 41  1  0  0  0  0
 40 42  2  0  0  0  0
 42 43  1  0  0  0  0
M  BCL ATM P_TeTeTeTePi O_Te2Te2TeTe O_Te2Te2Te2Te O_Tr2Tr2TrPi P_TeTeTeTePi O_Te2Te2TeTe O_Tr2Tr2TrPi O_Tr2TrTrPi2 P_TeTeTeTePi O_Tr2Tr2TrPi O_Te2Te2Te2Te O_Tr2TrTrPi2 O_Tr2TrTrPi2 C_TeTeTeTe H_S H_S C_TeTeTeTe H_S O_Te2Te2TeTe C_TeTeTeTe H_S O_Te2Te2TeTe H_S C_TeTeTeTe H_S O_Te2Te2TeTe H_S C_TeTeTeTe H_S N_TrTrTrPi2 C_TrTrTrPi H_S N_Tr2TrTrPi C_TrTrTrPi C_TrTrTrPi N_TrTrTrPi2 H_S H_S N_Tr2TrTrPi C_TrTrTrPi H_S N_Tr2TrTrPi C_TrTrTrPi
M  BCL BND ConjugatedSingleBond ConjugatedSingleBond ConjugatedDoubleBond ConjugatedSingleBond ConjugatedSingleBond ConjugatedDoubleBond ConjugatedSingleBond ConjugatedSingleBond ConjugatedDoubleBond ConjugatedSingleBond ConjugatedSingleBond ConjugatedSingleBond NonConjugatedSingleBond NonConjugatedSingleBond NonConjugatedSingleBond NonConjugatedSingleBond NonConjugatedSingleBond NonConjugatedSingleBondInRing NonConjugatedSingleBondInRing NonConjugatedSingleBondInRing NonConjugatedSingleBond NonConjugatedSingleBond NonConjugatedSingleBondInRing NonConjugatedSingleBond NonConjugatedSingleBond NonConjugatedSingleBond NonConjugatedSingleBondInRing NonConjugatedSingleBond NonConjugatedSingleBond NonConjugatedSingleBond AromaticSingleBond AromaticSingleBond NonConjugatedSingleBond AromaticDoubleBond AromaticSingleBond AromaticSingleBond AromaticDoubleBond ConjugatedSingleBond AromaticDoubleBond NonConjugatedSingleBond NonConjugatedSingleBond AromaticSingleBond NonConjugatedSingleBond AromaticDoubleBond AromaticSingleBond
M  BCL CHI   1   S   5   S   9   S  17   R  20   S  24   R  28   S
M  BCL DBI - - - - - - -
M  END
> <ConfClashScore>
0 

> <ConfOneFourInteractionScore>
-0.986631 

> <ConfScore>
0.0618861 

> <ConfScorePBest>
0.00768248 

> <ConfTolerance>
1.50513 

$$$$
ATP.****
  PyMOL2.5          3D                             0

 43 45  0  0  0  0  0  0  0  0999 V2000
    3.1498    2.3256   -1.5139 P   0  0  0  1  0  0  0  0  0  0  0  0
    2.2915    3.6021   -0.9453 O   0  0  0  0  0  0  0  0  0  0  0  0
    2.6671    0.9985   -0.7201 O   0  5  0  1  0  0  0  0  0  0  0  0
    4.5872    2.6173   -1.3158 O   0  0  0  1  0  0  0  0  0  0  0  0
    1.1323    1.8065   -3.5120 P   0  0  0  1  0  0  0  0  0  0  0  0
    0.3544    3.0995   -3.6969 O   0  0  0  0  0  0  0  0  0  0  0  0
    1.2085    0.9000   -4.6975 O   0  0  0  1  0  0  0  0  0  0  0  0
    2.6226    2.1523   -3.0222 O   0  0  0  1  0  0  0  0  0  0  0  0
   -0.0843   -0.4227   -2.0374 P   0  0  0  1  0  0  0  0  0  0  0  0
    0.9467   -1.3556   -2.5445 O   0  0  0  1  0  0  0  0  0  0  0  0
   -1.4777   -0.4266   -2.8638 O   0  5  0  1  0  0  0  0  0  0  0  0
    0.4914    1.0580   -2.2430 O   0  0  0  1  0  0  0  0  0  0  0  0
   -0.4350   -0.6279   -0.5172 O   0  0  0  1  0  0  0  0  0  0  0  0
   -1.4773    0.1566    0.1183 C   0  0  0  1  0  0  0  0  0  0  0  0
   -2.3741    0.0861   -0.4611 H   0  0  0  1  0  0  0  0  0  0  0  0
   -1.1659    1.1789    0.1715 H   0  0  0  1  0  0  0  0  0  0  0  0
   -1.7466   -0.3572    1.5202 C   0  0  0  1  0  0  0  0  0  0  0  0
   -2.1623   -1.3417    1.4661 H   0  0  0  1  0  0  0  0  0  0  0  0
   -0.5328   -0.3599    2.3030 O   0  0  0  1  0  0  0  0  0  0  0  0
   -2.6996    0.5948    2.2746 C   0  0  0  1  0  0  0  0  0  0  0  0
   -2.6512    1.5827    1.8663 H   0  0  0  1  0  0  0  0  0  0  0  0
   -4.0449    0.1189    2.2131 O   0  0  0  1  0  0  0  0  0  0  0  0
   -4.6400    0.8580    2.0676 H   0  0  0  1  0  0  0  0  0  0  0  0
   -2.1770    0.5764    3.7302 C   0  0  0  1  0  0  0  0  0  0  0  0
   -1.8740    1.5554    4.0379 H   0  0  0  1  0  0  0  0  0  0  0  0
   -3.1776    0.0844    4.6228 O   0  0  0  1  0  0  0  0  0  0  0  0
   -2.8348   -0.6735    5.1021 H   0  0  0  1  0  0  0  0  0  0  0  0
   -0.9672   -0.3822    3.6793 C   0  0  0  1  0  0  0  0  0  0  0  0
   -1.2584   -1.3711    3.9659 H   0  0  0  1  0  0  0  0  0  0  0  0
    0.0988    0.0880    4.5626 N   0  0  0  1  0  0  0  0  0  0  0  0
    1.2011    0.8044    4.2100 C   0  0  0  1  0  0  0  0  0  0  0  0
    1.3858    1.1005    3.2302 H   0  0  0  1  0  0  0  0  0  0  0  0
    2.0090    1.0919    5.1941 N   0  0  0  1  0  0  0  0  0  0  0  0
    1.3895    0.5273    6.2982 C   0  0  0  1  0  0  0  0  0  0  0  0
    1.7034    0.4472    7.6517 C   0  0  0  1  0  0  0  0  0  0  0  0
    2.8365    0.9831    8.2541 N   0  0  0  1  0  0  0  0  0  0  0  0
    2.9952    0.8433    9.2110 H   0  0  0  1  0  0  0  0  0  0  0  0
    3.4762    1.5004    7.7217 H   0  0  0  1  0  0  0  0  0  0  0  0
    0.8762   -0.1897    8.4876 N   0  0  0  1  0  0  0  0  0  0  0  0
   -0.2325   -0.7455    7.9739 C   0  0  0  1  0  0  0  0  0  0  0  0
   -0.8474   -1.2349    8.6552 H   0  0  0  1  0  0  0  0  0  0  0  0
   -0.6500   -0.7549    6.7140 N   0  0  0  1  0  0  0  0  0  0  0  0
    0.1961   -0.1007    5.9171 C   0  0  0  1  0  0  0  0  0  0  0  0
  1  2  1  0  0  0  0
  1  3  1  0  0  0  0
  1  4  2  0  0  0  0
  1  8  1  0  0  0  0
  5  6  1  0  0  0  0
  5  7  2  0  0  0  0
  5  8  1  0  0  0  0
  5 12  1  0  0  0  0
  9 10  2  0  0  0  0
  9 11  1  0  0  0  0
  9 12  1  0  0  0  0
  9 13  1  0  0  0  0
 13 14  1  0  0  0  0
 14 15  1  0  0  0  0
 14 16  1  0  0  0  0
 14 17  1  0  0  0  0
 17 18  1  0  0  0  0
 17 19  1  0  0  0  0
 17 20  1  0  0  0  0
 19 28  1  0  0  0  0
 20 21  1  0  0  0  0
 20 22  1  0  0  0  0
 20 24  1  0  0  0  0
 22 23  1  0  0  0  0
 24 25  1  0  0  0  0
 24 26  1  0  0  0  0
 24 28  1  0  0  0  0
 26 27  1  0  0  0  0
 28 29  1  0  0  0  0
 28 30  1  0  0  0  0
 30 31  1  0  0  0  0
 30 43  1  0  0  0  0
 31 32  1  0  0  0  0
 31 33  2  0  0  0  0
 33 34  1  0  0  0  0
 34 35  1  0  0  0  0
 34 43  2  0  0  0  0
 35 36  1  0  0  0  0
 35 39  2  0  0  0  0
 36 37  1  0  0  0  0
 36 38  1  0  0  0  0
 39 40  1  0  0  0  0
 40 41  1  0  0  0  0
 40 42  2  0  0  0  0
 42 43  1  0  0  0  0
M  BCL ATM P_TeTeTeTePi O_Te2Te2TeTe O_Te2Te2Te2Te O_Tr2Tr2TrPi P_TeTeTeTePi O_Te2Te2TeTe O_Tr2Tr2TrPi O_Tr2TrTrPi2 P_TeTeTeTePi O_Tr2Tr2TrPi O_Te2Te2Te2Te O_Tr2TrTrPi2 O_Tr2TrTrPi2 C_TeTeTeTe H_S H_S C_TeTeTeTe H_S O_Te2Te2TeTe C_TeTeTeTe H_S O_Te2Te2TeTe H_S C_TeTeTeTe H_S O_Te2Te2TeTe H_S C_TeTeTeTe H_S N_TrTrTrPi2 C_TrTrTrPi H_S N_Tr2TrTrPi C_TrTrTrPi C_TrTrTrPi N_TrTrTrPi2 H_S H_S N_Tr2TrTrPi C_TrTrTrPi H_S N_Tr2TrTrPi C_TrTrTrPi
M  BCL BND ConjugatedSingleBond ConjugatedSingleBond ConjugatedDoubleBond ConjugatedSingleBond ConjugatedSingleBond ConjugatedDoubleBond ConjugatedSingleBond ConjugatedSingleBond ConjugatedDoubleBond ConjugatedSingleBond ConjugatedSingleBond ConjugatedSingleBond NonConjugatedSingleBond NonConjugatedSingleBond NonConjugatedSingleBond NonConjugatedSingleBond NonConjugatedSingleBond NonConjugatedSingleBondInRing NonConjugatedSingleBondInRing NonConjugatedSingleBondInRing NonConjugatedSingleBond NonConjugatedSingleBond NonConjugatedSingleBondInRing NonConjugatedSingleBond NonConjugatedSingleBond NonConjugatedSingleBond NonConjugatedSingleBondInRing NonConjugatedSingleBond NonConjugatedSingleBond NonConjugatedSingleBond AromaticSingleBond AromaticSingleBond NonConjugatedSingleBond AromaticDoubleBond AromaticSingleBond AromaticSingleBond AromaticDoubleBond ConjugatedSingleBond AromaticDoubleBond NonConjugatedSingleBond NonConjugatedSingleBond AromaticSingleBond NonConjugatedSingleBond AromaticDoubleBond AromaticSingleBond
M  BCL CHI   1   S   5   S   9   S  17   R  20   S  24   R  28   S
M  BCL DBI - - - - - - -
M  END
> <ConfClashScore>
0 

> <ConfOneFourInteractionScore>
-0.978227 

> <ConfScore>
0.0624707 

> <ConfScorePBest>
0.00757948 

> <ConfTolerance>
1.37653 

$$$$
ATP.****
  PyMOL2.5          3D                             0

 43 45  0  0  0  0  0  0  0  0999 V2000
   -6.3956    3.6715   -3.6598 P   0  0  0  1  0  0  0  0  0  0  0  0
   -4.8428    3.7615   -4.1798 O   0  0  0  0  0  0  0  0  0  0  0  0
   -7.3505    3.6299   -4.9678 O   0  5  0  1  0  0  0  0  0  0  0  0
   -6.6891    4.8866   -2.8675 O   0  0  0  1  0  0  0  0  0  0  0  0
   -5.8309    1.5603   -1.6983 P   0  0  0  1  0  0  0  0  0  0  0  0
   -5.2726    2.6962   -0.8057 O   0  0  0  0  0  0  0  0  0  0  0  0
   -6.6213    0.5244   -1.0261 O   0  0  0  1  0  0  0  0  0  0  0  0
   -6.6081    2.2681   -2.9071 O   0  0  0  1  0  0  0  0  0  0  0  0
   -3.0298    0.7457   -2.0350 P   0  0  0  1  0  0  0  0  0  0  0  0
   -2.2437    1.9823   -2.2429 O   0  0  0  1  0  0  0  0  0  0  0  0
   -2.5272   -0.3554   -3.1118 O   0  5  0  1  0  0  0  0  0  0  0  0
   -4.5627    0.9341   -2.4603 O   0  0  0  1  0  0  0  0  0  0  0  0
   -2.8265    0.1298   -0.6051 O   0  0  0  1  0  0  0  0  0  0  0  0
   -1.6007    0.2715    0.1507 C   0  0  0  1  0  0  0  0  0  0  0  0
   -1.3226    1.3034    0.2037 H   0  0  0  1  0  0  0  0  0  0  0  0
   -0.8170   -0.2861   -0.3181 H   0  0  0  1  0  0  0  0  0  0  0  0
   -1.8538   -0.2649    1.5398 C   0  0  0  1  0  0  0  0  0  0  0  0
   -2.3422   -1.2146    1.4724 H   0  0  0  1  0  0  0  0  0  0  0  0
   -0.6153   -0.3807    2.2739 O   0  0  0  1  0  0  0  0  0  0  0  0
   -2.7060    0.7280    2.3593 C   0  0  0  1  0  0  0  0  0  0  0  0
   -2.6006    1.7226    1.9792 H   0  0  0  1  0  0  0  0  0  0  0  0
   -4.0854    0.3520    2.3363 O   0  0  0  1  0  0  0  0  0  0  0  0
   -4.3035   -0.0140    1.4760 H   0  0  0  1  0  0  0  0  0  0  0  0
   -2.1327    0.6242    3.7920 C   0  0  0  1  0  0  0  0  0  0  0  0
   -1.7477    1.5681    4.1169 H   0  0  0  1  0  0  0  0  0  0  0  0
   -3.1353    0.1754    4.7101 O   0  0  0  1  0  0  0  0  0  0  0  0
   -2.8023   -0.5761    5.2060 H   0  0  0  1  0  0  0  0  0  0  0  0
   -0.9990   -0.4169    3.6649 C   0  0  0  1  0  0  0  0  0  0  0  0
   -1.3511   -1.3911    3.9328 H   0  0  0  1  0  0  0  0  0  0  0  0
    0.1306   -0.0539    4.5195 N   0  0  0  1  0  0  0  0  0  0  0  0
    0.4901   -0.6554    5.6864 C   0  0  0  1  0  0  0  0  0  0  0  0
    0.0545   -1.5401    6.0169 H   0  0  0  1  0  0  0  0  0  0  0  0
    1.4229   -0.0383    6.3594 N   0  0  0  1  0  0  0  0  0  0  0  0
    1.7171    1.0634    5.5711 C   0  0  0  1  0  0  0  0  0  0  0  0
    2.5981    2.1341    5.6900 C   0  0  0  1  0  0  0  0  0  0  0  0
    3.4416    2.2931    6.7578 N   0  0  0  1  0  0  0  0  0  0  0  0
    3.4823    1.6070    7.4564 H   0  0  0  1  0  0  0  0  0  0  0  0
    4.0042    3.0929    6.8230 H   0  0  0  1  0  0  0  0  0  0  0  0
    2.6433    3.0652    4.7309 N   0  0  0  1  0  0  0  0  0  0  0  0
    1.8130    2.9317    3.6846 C   0  0  0  1  0  0  0  0  0  0  0  0
    1.8756    3.6778    2.9627 H   0  0  0  1  0  0  0  0  0  0  0  0
    0.9230    1.9761    3.4468 N   0  0  0  1  0  0  0  0  0  0  0  0
    0.9182    1.0639    4.4198 C   0  0  0  1  0  0  0  0  0  0  0  0
  1  2  1  0  0  0  0
  1  3  1  0  0  0  0
  1  4  2  0  0  0  0
  1  8  1  0  0  0  0
  5  6  1  0  0  0  0
  5  7  2  0  0  0  0
  5  8  1  0  0  0  0
  5 12  1  0  0  0  0
  9 10  2  0  0  0  0
  9 11  1  0  0  0  0
  9 12  1  0  0  0  0
  9 13  1  0  0  0  0
 13 14  1  0  0  0  0
 14 15  1  0  0  0  0
 14 16  1  0  0  0  0
 14 17  1  0  0  0  0
 17 18  1  0  0  0  0
 17 19  1  0  0  0  0
 17 20  1  0  0  0  0
 19 28  1  0  0  0  0
 20 21  1  0  0  0  0
 20 22  1  0  0  0  0
 20 24  1  0  0  0  0
 22 23  1  0  0  0  0
 24 25  1  0  0  0  0
 24 26  1  0  0  0  0
 24 28  1  0  0  0  0
 26 27  1  0  0  0  0
 28 29  1  0  0  0  0
 28 30  1  0  0  0  0
 30 31  1  0  0  0  0
 30 43  1  0  0  0  0
 31 32  1  0  0  0  0
 31 33  2  0  0  0  0
 33 34  1  0  0  0  0
 34 35  1  0  0  0  0
 34 43  2  0  0  0  0
 35 36  1  0  0  0  0
 35 39  2  0  0  0  0
 36 37  1  0  0  0  0
 36 38  1  0  0  0  0
 39 40  1  0  0  0  0
 40 41  1  0  0  0  0
 40 42  2  0  0  0  0
 42 43  1  0  0  0  0
M  BCL ATM P_TeTeTeTePi O_Te2Te2TeTe O_Te2Te2Te2Te O_Tr2Tr2TrPi P_TeTeTeTePi O_Te2Te2TeTe O_Tr2Tr2TrPi O_Tr2TrTrPi2 P_TeTeTeTePi O_Tr2Tr2TrPi O_Te2Te2Te2Te O_Tr2TrTrPi2 O_Tr2TrTrPi2 C_TeTeTeTe H_S H_S C_TeTeTeTe H_S O_Te2Te2TeTe C_TeTeTeTe H_S O_Te2Te2TeTe H_S C_TeTeTeTe H_S O_Te2Te2TeTe H_S C_TeTeTeTe H_S N_TrTrTrPi2 C_TrTrTrPi H_S N_Tr2TrTrPi C_TrTrTrPi C_TrTrTrPi N_TrTrTrPi2 H_S H_S N_Tr2TrTrPi C_TrTrTrPi H_S N_Tr2TrTrPi C_TrTrTrPi
M  BCL BND ConjugatedSingleBond ConjugatedSingleBond ConjugatedDoubleBond ConjugatedSingleBond ConjugatedSingleBond ConjugatedDoubleBond ConjugatedSingleBond ConjugatedSingleBond ConjugatedDoubleBond ConjugatedSingleBond ConjugatedSingleBond ConjugatedSingleBond NonConjugatedSingleBond NonConjugatedSingleBond NonConjugatedSingleBond NonConjugatedSingleBond NonConjugatedSingleBond NonConjugatedSingleBondInRing NonConjugatedSingleBondInRing NonConjugatedSingleBondInRing NonConjugatedSingleBond NonConjugatedSingleBond NonConjugatedSingleBondInRing NonConjugatedSingleBond NonConjugatedSingleBond NonConjugatedSingleBond NonConjugatedSingleBondInRing NonConjugatedSingleBond NonConjugatedSingleBond NonConjugatedSingleBond AromaticSingleBond AromaticSingleBond NonConjugatedSingleBond AromaticDoubleBond AromaticSingleBond AromaticSingleBond AromaticDoubleBond ConjugatedSingleBond AromaticDoubleBond NonConjugatedSingleBond NonConjugatedSingleBond AromaticSingleBond NonConjugatedSingleBond AromaticDoubleBond AromaticSingleBond
M  BCL CHI   1   S   5   S   9   S  17   R  20   S  24   R  28   S
M  BCL DBI - - - - - - -
M  END
> <ConfClashScore>
0 

> <ConfOneFourInteractionScore>
-0.976202 

> <ConfScore>
0.0626039 

> <ConfScorePBest>
0.00747648 

> <ConfTolerance>
1.62626 

$$$$
ATP.****
  PyMOL2.5          3D                             0

 43 45  0  0  0  0  0  0  0  0999 V2000
    1.1002    2.9904    0.6713 P   0  0  0  1  0  0  0  0  0  0  0  0
    0.5504    1.7964    1.6520 O   0  0  0  0  0  0  0  0  0  0  0  0
    1.6487    3.9446    1.8601 O   0  5  0  1  0  0  0  0  0  0  0  0
   -0.0491    3.6475    0.0097 O   0  0  0  1  0  0  0  0  0  0  0  0
    2.5002    1.1720   -1.2033 P   0  0  0  1  0  0  0  0  0  0  0  0
    3.5293    1.5240   -2.2120 O   0  0  0  0  0  0  0  0  0  0  0  0
    2.6657   -0.0198   -0.3455 O   0  0  0  1  0  0  0  0  0  0  0  0
    2.2995    2.4324   -0.2279 O   0  0  0  1  0  0  0  0  0  0  0  0
    0.1313   -0.2440   -2.0281 P   0  0  0  1  0  0  0  0  0  0  0  0
    0.9048   -1.3824   -2.5722 O   0  0  0  1  0  0  0  0  0  0  0  0
   -1.1041    0.1356   -3.0049 O   0  5  0  1  0  0  0  0  0  0  0  0
    1.0757    1.0511   -1.9227 O   0  0  0  1  0  0  0  0  0  0  0  0
   -0.5036   -0.5045   -0.6201 O   0  0  0  1  0  0  0  0  0  0  0  0
   -1.3694    0.4124    0.0895 C   0  0  0  1  0  0  0  0  0  0  0  0
   -2.2625    0.5812   -0.4751 H   0  0  0  1  0  0  0  0  0  0  0  0
   -0.8647    1.3428    0.2462 H   0  0  0  1  0  0  0  0  0  0  0  0
   -1.7126   -0.2169    1.4190 C   0  0  0  1  0  0  0  0  0  0  0  0
   -2.1548   -1.1776    1.2559 H   0  0  0  1  0  0  0  0  0  0  0  0
   -0.5343   -0.3331    2.2462 O   0  0  0  1  0  0  0  0  0  0  0  0
   -2.6685    0.6927    2.2207 C   0  0  0  1  0  0  0  0  0  0  0  0
   -2.5730    1.7119    1.9093 H   0  0  0  1  0  0  0  0  0  0  0  0
   -4.0235    0.2702    2.0607 O   0  0  0  1  0  0  0  0  0  0  0  0
   -4.2269   -0.4067    2.7103 H   0  0  0  1  0  0  0  0  0  0  0  0
   -2.2099    0.5219    3.6879 C   0  0  0  1  0  0  0  0  0  0  0  0
   -1.8914    1.4573    4.0983 H   0  0  0  1  0  0  0  0  0  0  0  0
   -3.2630   -0.0171    4.4899 O   0  0  0  1  0  0  0  0  0  0  0  0
   -3.1502    0.2669    5.3999 H   0  0  0  1  0  0  0  0  0  0  0  0
   -1.0282   -0.4682    3.5958 C   0  0  0  1  0  0  0  0  0  0  0  0
   -1.3609   -1.4690    3.7763 H   0  0  0  1  0  0  0  0  0  0  0  0
    0.0215   -0.1150    4.5701 N   0  0  0  1  0  0  0  0  0  0  0  0
    1.0031    0.8234    4.4773 C   0  0  0  1  0  0  0  0  0  0  0  0
    1.1130    1.4373    3.6450 H   0  0  0  1  0  0  0  0  0  0  0  0
    1.7961    0.8949    5.5117 N   0  0  0  1  0  0  0  0  0  0  0  0
    1.2965   -0.0713    6.3711 C   0  0  0  1  0  0  0  0  0  0  0  0
    1.6630   -0.5310    7.6326 C   0  0  0  1  0  0  0  0  0  0  0  0
    2.7385    0.0088    8.2874 N   0  0  0  1  0  0  0  0  0  0  0  0
    2.9548   -0.2829    9.1977 H   0  0  0  1  0  0  0  0  0  0  0  0
    3.2915    0.6865    7.8456 H   0  0  0  1  0  0  0  0  0  0  0  0
    0.9589   -1.5092    8.2121 N   0  0  0  1  0  0  0  0  0  0  0  0
   -0.0796   -2.0236    7.5347 C   0  0  0  1  0  0  0  0  0  0  0  0
   -0.5988   -2.7846    8.0172 H   0  0  0  1  0  0  0  0  0  0  0  0
   -0.5334   -1.6920    6.3321 N   0  0  0  1  0  0  0  0  0  0  0  0
    0.1885   -0.7073    5.7952 C   0  0  0  1  0  0  0  0  0  0  0  0
  1  2  1  0  0  0  0
  1  3  1  0  0  0  0
  1  4  2  0  0  0  0
  1  8  1  0  0  0  0
  5  6  1  0  0  0  0
  5  7  2  0  0  0  0
  5  8  1  0  0  0  0
  5 12  1  0  0  0  0
  9 10  2  0  0  0  0
  9 11  1  0  0  0  0
  9 12  1  0  0  0  0
  9 13  1  0  0  0  0
 13 14  1  0  0  0  0
 14 15  1  0  0  0  0
 14 16  1  0  0  0  0
 14 17  1  0  0  0  0
 17 18  1  0  0  0  0
 17 19  1  0  0  0  0
 17 20  1  0  0  0  0
 19 28  1  0  0  0  0
 20 21  1  0  0  0  0
 20 22  1  0  0  0  0
 20 24  1  0  0  0  0
 22 23  1  0  0  0  0
 24 25  1  0  0  0  0
 24 26  1  0  0  0  0
 24 28  1  0  0  0  0
 26 27  1  0  0  0  0
 28 29  1  0  0  0  0
 28 30  1  0  0  0  0
 30 31  1  0  0  0  0
 30 43  1  0  0  0  0
 31 32  1  0  0  0  0
 31 33  2  0  0  0  0
 33 34  1  0  0  0  0
 34 35  1  0  0  0  0
 34 43  2  0  0  0  0
 35 36  1  0  0  0  0
 35 39  2  0  0  0  0
 36 37  1  0  0  0  0
 36 38  1  0  0  0  0
 39 40  1  0  0  0  0
 40 41  1  0  0  0  0
 40 42  2  0  0  0  0
 42 43  1  0  0  0  0
M  BCL ATM P_TeTeTeTePi O_Te2Te2TeTe O_Te2Te2Te2Te O_Tr2Tr2TrPi P_TeTeTeTePi O_Te2Te2TeTe O_Tr2Tr2TrPi O_Tr2TrTrPi2 P_TeTeTeTePi O_Tr2Tr2TrPi O_Te2Te2Te2Te O_Tr2TrTrPi2 O_Tr2TrTrPi2 C_TeTeTeTe H_S H_S C_TeTeTeTe H_S O_Te2Te2TeTe C_TeTeTeTe H_S O_Te2Te2TeTe H_S C_TeTeTeTe H_S O_Te2Te2TeTe H_S C_TeTeTeTe H_S N_TrTrTrPi2 C_TrTrTrPi H_S N_Tr2TrTrPi C_TrTrTrPi C_TrTrTrPi N_TrTrTrPi2 H_S H_S N_Tr2TrTrPi C_TrTrTrPi H_S N_Tr2TrTrPi C_TrTrTrPi
M  BCL BND ConjugatedSingleBond ConjugatedSingleBond ConjugatedDoubleBond ConjugatedSingleBond ConjugatedSingleBond ConjugatedDoubleBond ConjugatedSingleBond ConjugatedSingleBond ConjugatedDoubleBond ConjugatedSingleBond ConjugatedSingleBond ConjugatedSingleBond NonConjugatedSingleBond NonConjugatedSingleBond NonConjugatedSingleBond NonConjugatedSingleBond NonConjugatedSingleBond NonConjugatedSingleBondInRing NonConjugatedSingleBondInRing NonConjugatedSingleBondInRing NonConjugatedSingleBond NonConjugatedSingleBond NonConjugatedSingleBondInRing NonConjugatedSingleBond NonConjugatedSingleBond NonConjugatedSingleBond NonConjugatedSingleBondInRing NonConjugatedSingleBond NonConjugatedSingleBond NonConjugatedSingleBond AromaticSingleBond AromaticSingleBond NonConjugatedSingleBond AromaticDoubleBond AromaticSingleBond AromaticSingleBond AromaticDoubleBond ConjugatedSingleBond AromaticDoubleBond NonConjugatedSingleBond NonConjugatedSingleBond AromaticSingleBond NonConjugatedSingleBond AromaticDoubleBond AromaticSingleBond
M  BCL CHI   1   S   5   S   9   S  17   R  20   S  24   R  28   S
M  BCL DBI - - - - - - -
M  END
> <ConfClashScore>
0 

> <ConfOneFourInteractionScore>
-0.981204 

> <ConfScore>
0.0632857 

> <ConfScorePBest>
0.00737347 

> <ConfTolerance>
1.77674 

$$$$
ATP.****
  PyMOL2.5          3D                             0

 43 45  0  0  0  0  0  0  0  0999 V2000
    1.7507    0.6885   -4.7300 P   0  0  0  1  0  0  0  0  0  0  0  0
    0.4547   -0.2371   -5.1217 O   0  0  0  0  0  0  0  0  0  0  0  0
    1.1853    2.1702   -5.0603 O   0  5  0  1  0  0  0  0  0  0  0  0
    2.8340    0.2475   -5.6369 O   0  0  0  1  0  0  0  0  0  0  0  0
    2.5966   -0.6185   -2.1369 P   0  0  0  1  0  0  0  0  0  0  0  0
    2.7684   -1.9323   -2.9388 O   0  0  0  0  0  0  0  0  0  0  0  0
    3.7474   -0.1781   -1.3423 O   0  0  0  1  0  0  0  0  0  0  0  0
    2.0806    0.4874   -3.1751 O   0  0  0  1  0  0  0  0  0  0  0  0
   -0.2111   -1.1286   -1.7019 P   0  0  0  1  0  0  0  0  0  0  0  0
   -0.3698   -2.4094   -2.4263 O   0  0  0  1  0  0  0  0  0  0  0  0
   -0.6355    0.1400   -2.6156 O   0  5  0  1  0  0  0  0  0  0  0  0
    1.2919   -0.8274   -1.2218 O   0  0  0  1  0  0  0  0  0  0  0  0
   -1.1380   -1.1714   -0.4310 O   0  0  0  1  0  0  0  0  0  0  0  0
   -1.4103    0.0318    0.3314 C   0  0  0  1  0  0  0  0  0  0  0  0
   -2.0957    0.6552   -0.2039 H   0  0  0  1  0  0  0  0  0  0  0  0
   -0.5003    0.5676    0.5040 H   0  0  0  1  0  0  0  0  0  0  0  0
   -2.0178   -0.3877    1.6485 C   0  0  0  1  0  0  0  0  0  0  0  0
   -2.8189   -1.0740    1.4698 H   0  0  0  1  0  0  0  0  0  0  0  0
   -1.0164   -0.9875    2.5010 O   0  0  0  1  0  0  0  0  0  0  0  0
   -2.5197    0.8348    2.4226 C   0  0  0  1  0  0  0  0  0  0  0  0
   -2.0155    1.7236    2.1053 H   0  0  0  1  0  0  0  0  0  0  0  0
   -3.9288    1.0018    2.2589 O   0  0  0  1  0  0  0  0  0  0  0  0
   -4.3536    0.1410    2.2412 H   0  0  0  1  0  0  0  0  0  0  0  0
   -2.1778    0.5003    3.8508 C   0  0  0  1  0  0  0  0  0  0  0  0
   -2.0312    1.3878    4.4304 H   0  0  0  1  0  0  0  0  0  0  0  0
   -3.1986   -0.2981    4.4513 O   0  0  0  1  0  0  0  0  0  0  0  0
   -3.3213   -1.1002    3.9384 H   0  0  0  1  0  0  0  0  0  0  0  0
   -0.8690   -0.2900    3.7080 C   0  0  0  1  0  0  0  0  0  0  0  0
   -0.7453   -0.9692    4.5255 H   0  0  0  1  0  0  0  0  0  0  0  0
    0.2791    0.6151    3.6468 N   0  0  0  1  0  0  0  0  0  0  0  0
    1.1592    0.7566    2.6181 C   0  0  0  1  0  0  0  0  0  0  0  0
    1.0826    0.2088    1.7374 H   0  0  0  1  0  0  0  0  0  0  0  0
    2.1064    1.6316    2.8203 N   0  0  0  1  0  0  0  0  0  0  0  0
    1.8305    2.1218    4.0872 C   0  0  0  1  0  0  0  0  0  0  0  0
    2.4357    3.0606    4.9175 C   0  0  0  1  0  0  0  0  0  0  0  0
    3.5834    3.7982    4.6128 N   0  0  0  1  0  0  0  0  0  0  0  0
    3.9423    4.4372    5.2633 H   0  0  0  1  0  0  0  0  0  0  0  0
    4.0292    3.6762    3.7486 H   0  0  0  1  0  0  0  0  0  0  0  0
    1.9128    3.3156    6.1218 N   0  0  0  1  0  0  0  0  0  0  0  0
    0.8165    2.6334    6.4892 C   0  0  0  1  0  0  0  0  0  0  0  0
    0.4431    2.8572    7.4337 H   0  0  0  1  0  0  0  0  0  0  0  0
    0.1449    1.7119    5.8098 N   0  0  0  1  0  0  0  0  0  0  0  0
    0.6919    1.4962    4.6126 C   0  0  0  1  0  0  0  0  0  0  0  0
  1  2  1  0  0  0  0
  1  3  1  0  0  0  0
  1  4  2  0  0  0  0
  1  8  1  0  0  0  0
  5  6  1  0  0  0  0
  5  7  2  0  0  0  0
  5  8  1  0  0  0  0
  5 12  1  0  0  0  0
  9 10  2  0  0  0  0
  9 11  1  0  0  0  0
  9 12  1  0  0  0  0
  9 13  1  0  0  0  0
 13 14  1  0  0  0  0
 14 15  1  0  0  0  0
 14 16  1  0  0  0  0
 14 17  1  0  0  0  0
 17 18  1  0  0  0  0
 17 19  1  0  0  0  0
 17 20  1  0  0  0  0
 19 28  1  0  0  0  0
 20 21  1  0  0  0  0
 20 22  1  0  0  0  0
 20 24  1  0  0  0  0
 22 23  1  0  0  0  0
 24 25  1  0  0  0  0
 24 26  1  0  0  0  0
 24 28  1  0  0  0  0
 26 27  1  0  0  0  0
 28 29  1  0  0  0  0
 28 30  1  0  0  0  0
 30 31  1  0  0  0  0
 30 43  1  0  0  0  0
 31 32  1  0  0  0  0
 31 33  2  0  0  0  0
 33 34  1  0  0  0  0
 34 35  1  0  0  0  0
 34 43  2  0  0  0  0
 35 36  1  0  0  0  0
 35 39  2  0  0  0  0
 36 37  1  0  0  0  0
 36 38  1  0  0  0  0
 39 40  1  0  0  0  0
 40 41  1  0  0  0  0
 40 42  2  0  0  0  0
 42 43  1  0  0  0  0
M  BCL ATM P_TeTeTeTePi O_Te2Te2TeTe O_Te2Te2Te2Te O_Tr2Tr2TrPi P_TeTeTeTePi O_Te2Te2TeTe O_Tr2Tr2TrPi O_Tr2TrTrPi2 P_TeTeTeTePi O_Tr2Tr2TrPi O_Te2Te2Te2Te O_Tr2TrTrPi2 O_Tr2TrTrPi2 C_TeTeTeTe H_S H_S C_TeTeTeTe H_S O_Te2Te2TeTe C_TeTeTeTe H_S O_Te2Te2TeTe H_S C_TeTeTeTe H_S O_Te2Te2TeTe H_S C_TeTeTeTe H_S N_TrTrTrPi2 C_TrTrTrPi H_S N_Tr2TrTrPi C_TrTrTrPi C_TrTrTrPi N_TrTrTrPi2 H_S H_S N_Tr2TrTrPi C_TrTrTrPi H_S N_Tr2TrTrPi C_TrTrTrPi
M  BCL BND ConjugatedSingleBond ConjugatedSingleBond ConjugatedDoubleBond ConjugatedSingleBond ConjugatedSingleBond ConjugatedDoubleBond ConjugatedSingleBond ConjugatedSingleBond ConjugatedDoubleBond ConjugatedSingleBond ConjugatedSingleBond ConjugatedSingleBond NonConjugatedSingleBond NonConjugatedSingleBond NonConjugatedSingleBond NonConjugatedSingleBond NonConjugatedSingleBond NonConjugatedSingleBondInRing NonConjugatedSingleBondInRing NonConjugatedSingleBondInRing NonConjugatedSingleBond NonConjugatedSingleBond NonConjugatedSingleBondInRing NonConjugatedSingleBond NonConjugatedSingleBond NonConjugatedSingleBond NonConjugatedSingleBondInRing NonConjugatedSingleBond NonConjugatedSingleBond NonConjugatedSingleBond AromaticSingleBond AromaticSingleBond NonConjugatedSingleBond AromaticDoubleBond AromaticSingleBond AromaticSingleBond AromaticDoubleBond ConjugatedSingleBond AromaticDoubleBond NonConjugatedSingleBond NonConjugatedSingleBond AromaticSingleBond NonConjugatedSingleBond AromaticDoubleBond AromaticSingleBond
M  BCL CHI   1   S   5   S   9   S  17   R  20   S  24   R  28   S
M  BCL DBI - - - - - - -
M  END
> <ConfClashScore>
0 

> <ConfOneFourInteractionScore>
-0.981204 

> <ConfScore>
0.0633537 

> <ConfScorePBest>
0.00727047 

> <ConfTolerance>
1.42547 

$$$$
ATP.****
  PyMOL2.5          3D                             0

 43 45  0  0  0  0  0  0  0  0999 V2000
   -0.9294    4.3363   -4.1277 P   0  0  0  1  0  0  0  0  0  0  0  0
    0.6143    4.7082   -3.7173 O   0  0  0  0  0  0  0  0  0  0  0  0
   -0.9648    2.9183   -4.9101 O   0  5  0  1  0  0  0  0  0  0  0  0
   -1.5077    5.3890   -4.9924 O   0  0  0  1  0  0  0  0  0  0  0  0
   -3.2618    3.6542   -2.5177 P   0  0  0  1  0  0  0  0  0  0  0  0
   -3.9847    4.6482   -1.6492 O   0  0  0  0  0  0  0  0  0  0  0  0
   -3.9263    3.2241   -3.7732 O   0  0  0  1  0  0  0  0  0  0  0  0
   -1.7744    4.2098   -2.7708 O   0  0  0  1  0  0  0  0  0  0  0  0
   -2.8795    0.7555   -2.0361 P   0  0  0  1  0  0  0  0  0  0  0  0
   -1.6909    0.6125   -2.9063 O   0  0  0  1  0  0  0  0  0  0  0  0
   -4.2537    0.2110   -2.6990 O   0  5  0  1  0  0  0  0  0  0  0  0
   -2.9828    2.3190   -1.6825 O   0  0  0  1  0  0  0  0  0  0  0  0
   -2.6436    0.0579   -0.6493 O   0  0  0  1  0  0  0  0  0  0  0  0
   -1.4125    0.1839    0.1006 C   0  0  0  1  0  0  0  0  0  0  0  0
   -1.1006    1.2067    0.1369 H   0  0  0  1  0  0  0  0  0  0  0  0
   -0.6415   -0.4091   -0.3453 H   0  0  0  1  0  0  0  0  0  0  0  0
   -1.7286   -0.3205    1.4898 C   0  0  0  1  0  0  0  0  0  0  0  0
   -2.1862   -1.2855    1.4239 H   0  0  0  1  0  0  0  0  0  0  0  0
   -0.5306   -0.3794    2.2945 O   0  0  0  1  0  0  0  0  0  0  0  0
   -2.6524    0.6700    2.2308 C   0  0  0  1  0  0  0  0  0  0  0  0
   -2.5531    1.6561    1.8277 H   0  0  0  1  0  0  0  0  0  0  0  0
   -4.0160    0.2541    2.1428 O   0  0  0  1  0  0  0  0  0  0  0  0
   -4.4710    0.4722    2.9596 H   0  0  0  1  0  0  0  0  0  0  0  0
   -2.1579    0.6235    3.6956 C   0  0  0  1  0  0  0  0  0  0  0  0
   -1.8178    1.5870    4.0130 H   0  0  0  1  0  0  0  0  0  0  0  0
   -3.1954    0.1729    4.5677 O   0  0  0  1  0  0  0  0  0  0  0  0
   -3.1807   -0.7858    4.6147 H   0  0  0  1  0  0  0  0  0  0  0  0
   -0.9908   -0.3874    3.6625 C   0  0  0  1  0  0  0  0  0  0  0  0
   -1.3305   -1.3635    3.9396 H   0  0  0  1  0  0  0  0  0  0  0  0
    0.0785    0.0322    4.5671 N   0  0  0  1  0  0  0  0  0  0  0  0
    1.2202    0.6957    4.2368 C   0  0  0  1  0  0  0  0  0  0  0  0
    1.4379    0.9825    3.2612 H   0  0  0  1  0  0  0  0  0  0  0  0
    2.0211    0.9450    5.2369 N   0  0  0  1  0  0  0  0  0  0  0  0
    1.3539    0.4105    6.3282 C   0  0  0  1  0  0  0  0  0  0  0  0
    1.6368    0.3160    7.6876 C   0  0  0  1  0  0  0  0  0  0  0  0
    2.7847    0.8109    8.2482 N   0  0  0  1  0  0  0  0  0  0  0  0
    2.9329    0.7299    9.2136 H   0  0  0  1  0  0  0  0  0  0  0  0
    3.4575    1.2460    7.6840 H   0  0  0  1  0  0  0  0  0  0  0  0
    0.7641   -0.2810    8.5065 N   0  0  0  1  0  0  0  0  0  0  0  0
   -0.3592   -0.7840    7.9706 C   0  0  0  1  0  0  0  0  0  0  0  0
   -1.0098   -1.2436    8.6392 H   0  0  0  1  0  0  0  0  0  0  0  0
   -0.7517   -0.7739    6.7026 N   0  0  0  1  0  0  0  0  0  0  0  0
    0.1400   -0.1606    5.9231 C   0  0  0  1  0  0  0  0  0  0  0  0
  1  2  1  0  0  0  0
  1  3  1  0  0  0  0
  1  4  2  0  0  0  0
  1  8  1  0  0  0  0
  5  6  1  0  0  0  0
  5  7  2  0  0  0  0
  5  8  1  0  0  0  0
  5 12  1  0  0  0  0
  9 10  2  0  0  0  0
  9 11  1  0  0  0  0
  9 12  1  0  0  0  0
  9 13  1  0  0  0  0
 13 14  1  0  0  0  0
 14 15  1  0  0  0  0
 14 16  1  0  0  0  0
 14 17  1  0  0  0  0
 17 18  1  0  0  0  0
 17 19  1  0  0  0  0
 17 20  1  0  0  0  0
 19 28  1  0  0  0  0
 20 21  1  0  0  0  0
 20 22  1  0  0  0  0
 20 24  1  0  0  0  0
 22 23  1  0  0  0  0
 24 25  1  0  0  0  0
 24 26  1  0  0  0  0
 24 28  1  0  0  0  0
 26 27  1  0  0  0  0
 28 29  1  0  0  0  0
 28 30  1  0  0  0  0
 30 31  1  0  0  0  0
 30 43  1  0  0  0  0
 31 32  1  0  0  0  0
 31 33  2  0  0  0  0
 33 34  1  0  0  0  0
 34 35  1  0  0  0  0
 34 43  2  0  0  0  0
 35 36  1  0  0  0  0
 35 39  2  0  0  0  0
 36 37  1  0  0  0  0
 36 38  1  0  0  0  0
 39 40  1  0  0  0  0
 40 41  1  0  0  0  0
 40 42  2  0  0  0  0
 42 43  1  0  0  0  0
M  BCL ATM P_TeTeTeTePi O_Te2Te2TeTe O_Te2Te2Te2Te O_Tr2Tr2TrPi P_TeTeTeTePi O_Te2Te2TeTe O_Tr2Tr2TrPi O_Tr2TrTrPi2 P_TeTeTeTePi O_Tr2Tr2TrPi O_Te2Te2Te2Te O_Tr2TrTrPi2 O_Tr2TrTrPi2 C_TeTeTeTe H_S H_S C_TeTeTeTe H_S O_Te2Te2TeTe C_TeTeTeTe H_S O_Te2Te2TeTe H_S C_TeTeTeTe H_S O_Te2Te2TeTe H_S C_TeTeTeTe H_S N_TrTrTrPi2 C_TrTrTrPi H_S N_Tr2TrTrPi C_TrTrTrPi C_TrTrTrPi N_TrTrTrPi2 H_S H_S N_Tr2TrTrPi C_TrTrTrPi H_S N_Tr2TrTrPi C_TrTrTrPi
M  BCL BND ConjugatedSingleBond ConjugatedSingleBond ConjugatedDoubleBond ConjugatedSingleBond ConjugatedSingleBond ConjugatedDoubleBond ConjugatedSingleBond ConjugatedSingleBond ConjugatedDoubleBond ConjugatedSingleBond ConjugatedSingleBond ConjugatedSingleBond NonConjugatedSingleBond NonConjugatedSingleBond NonConjugatedSingleBond NonConjugatedSingleBond NonConjugatedSingleBond NonConjugatedSingleBondInRing NonConjugatedSingleBondInRing NonConjugatedSingleBondInRing NonConjugatedSingleBond NonConjugatedSingleBond NonConjugatedSingleBondInRing NonConjugatedSingleBond NonConjugatedSingleBond NonConjugatedSingleBond NonConjugatedSingleBondInRing NonConjugatedSingleBond NonConjugatedSingleBond NonConjugatedSingleBond AromaticSingleBond AromaticSingleBond NonConjugatedSingleBond AromaticDoubleBond AromaticSingleBond AromaticSingleBond AromaticDoubleBond ConjugatedSingleBond AromaticDoubleBond NonConjugatedSingleBond NonConjugatedSingleBond AromaticSingleBond NonConjugatedSingleBond AromaticDoubleBond AromaticSingleBond
M  BCL CHI   1   S   5   S   9   S  17   R  20   S  24   R  28   S
M  BCL DBI - - - - - - -
M  END
> <ConfClashScore>
0 

> <ConfOneFourInteractionScore>
-0.983049 

> <ConfScore>
0.0636616 

> <ConfScorePBest>
0.00716747 

> <ConfTolerance>
1.40618 

$$$$
ATP.****
  PyMOL2.5          3D                             0

 43 45  0  0  0  0  0  0  0  0999 V2000
   -3.1842    2.3893   -4.0069 P   0  0  0  1  0  0  0  0  0  0  0  0
   -4.6333    2.6929   -3.3016 O   0  0  0  0  0  0  0  0  0  0  0  0
   -2.2063    3.6425   -3.6945 O   0  5  0  1  0  0  0  0  0  0  0  0
   -3.4440    2.2091   -5.4527 O   0  0  0  1  0  0  0  0  0  0  0  0
   -1.1255    0.3708   -3.3227 P   0  0  0  1  0  0  0  0  0  0  0  0
   -1.2045   -0.9073   -2.5498 O   0  0  0  0  0  0  0  0  0  0  0  0
   -0.7127    0.2329   -4.7372 O   0  0  0  1  0  0  0  0  0  0  0  0
   -2.5655    1.0826   -3.3229 O   0  0  0  1  0  0  0  0  0  0  0  0
    0.8654    0.9834   -1.2835 P   0  0  0  1  0  0  0  0  0  0  0  0
    1.5560    2.2167   -0.8446 O   0  0  0  1  0  0  0  0  0  0  0  0
    1.7977   -0.1296   -2.0021 O   0  5  0  1  0  0  0  0  0  0  0  0
   -0.1303    1.3214   -2.4998 O   0  0  0  1  0  0  0  0  0  0  0  0
    0.0073    0.2446   -0.1957 O   0  0  0  1  0  0  0  0  0  0  0  0
   -1.0472    0.8925    0.5555 C   0  0  0  1  0  0  0  0  0  0  0  0
   -1.7896    1.2863   -0.1068 H   0  0  0  1  0  0  0  0  0  0  0  0
   -0.6469    1.6839    1.1542 H   0  0  0  1  0  0  0  0  0  0  0  0
   -1.6422   -0.1844    1.4342 C   0  0  0  1  0  0  0  0  0  0  0  0
   -2.0503   -0.9606    0.8211 H   0  0  0  1  0  0  0  0  0  0  0  0
   -0.6377   -0.7208    2.3135 O   0  0  0  1  0  0  0  0  0  0  0  0
   -2.7430    0.4141    2.3444 C   0  0  0  1  0  0  0  0  0  0  0  0
   -3.0952    1.3484    1.9597 H   0  0  0  1  0  0  0  0  0  0  0  0
   -3.8325   -0.4811    2.4835 O   0  0  0  1  0  0  0  0  0  0  0  0
   -4.5737   -0.0235    2.8871 H   0  0  0  1  0  0  0  0  0  0  0  0
   -2.0197    0.6047    3.6659 C   0  0  0  1  0  0  0  0  0  0  0  0
   -1.5361    1.5583    3.7074 H   0  0  0  1  0  0  0  0  0  0  0  0
   -2.9189    0.4779    4.7685 O   0  0  0  1  0  0  0  0  0  0  0  0
   -3.8120    0.3496    4.4406 H   0  0  0  1  0  0  0  0  0  0  0  0
   -0.9923   -0.5382    3.6540 C   0  0  0  1  0  0  0  0  0  0  0  0
   -1.4263   -1.4328    4.0492 H   0  0  0  1  0  0  0  0  0  0  0  0
    0.1820   -0.1745    4.4454 N   0  0  0  1  0  0  0  0  0  0  0  0
    1.3593    0.3744    4.0387 C   0  0  0  1  0  0  0  0  0  0  0  0
    1.5507    0.6142    3.0450 H   0  0  0  1  0  0  0  0  0  0  0  0
    2.2299    0.5773    4.9899 N   0  0  0  1  0  0  0  0  0  0  0  0
    1.5755    0.1346    6.1288 C   0  0  0  1  0  0  0  0  0  0  0  0
    1.9190    0.0515    7.4749 C   0  0  0  1  0  0  0  0  0  0  0  0
    3.1288    0.4543    7.9607 N   0  0  0  1  0  0  0  0  0  0  0  0
    3.8409    0.7209    7.3424 H   0  0  0  1  0  0  0  0  0  0  0  0
    3.2856    0.4769    8.9278 H   0  0  0  1  0  0  0  0  0  0  0  0
    1.0405   -0.4423    8.3542 N   0  0  0  1  0  0  0  0  0  0  0  0
   -0.1492   -0.8563    7.8903 C   0  0  0  1  0  0  0  0  0  0  0  0
   -0.8024   -1.2374    8.6042 H   0  0  0  1  0  0  0  0  0  0  0  0
   -0.6045   -0.8449    6.6435 N   0  0  0  1  0  0  0  0  0  0  0  0
    0.2964   -0.3356    5.8021 C   0  0  0  1  0  0  0  0  0  0  0  0
  1  2  1  0  0  0  0
  1  3  1  0  0  0  0
  1  4  2  0  0  0  0
  1  8  1  0  0  0  0
  5  6  1  0  0  0  0
  5  7  2  0  0  0  0
  5  8  1  0  0  0  0
  5 12  1  0  0  0  0
  9 10  2  0  0  0  0
  9 11  1  0  0  0  0
  9 12  1  0  0  0  0
  9 13  1  0  0  0  0
 13 14  1  0  0  0  0
 14 15  1  0  0  0  0
 14 16  1  0  0  0  0
 14 17  1  0  0  0  0
 17 18  1  0  0  0  0
 17 19  1  0  0  0  0
 17 20  1  0  0  0  0
 19 28  1  0  0  0  0
 20 21  1  0  0  0  0
 20 22  1  0  0  0  0
 20 24  1  0  0  0  0
 22 23  1  0  0  0  0
 24 25  1  0  0  0  0
 24 26  1  0  0  0  0
 24 28  1  0  0  0  0
 26 27  1  0  0  0  0
 28 29  1  0  0  0  0
 28 30  1  0  0  0  0
 30 31  1  0  0  0  0
 30 43  1  0  0  0  0
 31 32  1  0  0  0  0
 31 33  2  0  0  0  0
 33 34  1  0  0  0  0
 34 35  1  0  0  0  0
 34 43  2  0  0  0  0
 35 36  1  0  0  0  0
 35 39  2  0  0  0  0
 36 37  1  0  0  0  0
 36 38  1  0  0  0  0
 39 40  1  0  0  0  0
 40 41  1  0  0  0  0
 40 42  2  0  0  0  0
 42 43  1  0  0  0  0
M  BCL ATM P_TeTeTeTePi O_Te2Te2TeTe O_Te2Te2Te2Te O_Tr2Tr2TrPi P_TeTeTeTePi O_Te2Te2TeTe O_Tr2Tr2TrPi O_Tr2TrTrPi2 P_TeTeTeTePi O_Tr2Tr2TrPi O_Te2Te2Te2Te O_Tr2TrTrPi2 O_Tr2TrTrPi2 C_TeTeTeTe H_S H_S C_TeTeTeTe H_S O_Te2Te2TeTe C_TeTeTeTe H_S O_Te2Te2TeTe H_S C_TeTeTeTe H_S O_Te2Te2TeTe H_S C_TeTeTeTe H_S N_TrTrTrPi2 C_TrTrTrPi H_S N_Tr2TrTrPi C_TrTrTrPi C_TrTrTrPi N_TrTrTrPi2 H_S H_S N_Tr2TrTrPi C_TrTrTrPi H_S N_Tr2TrTrPi C_TrTrTrPi
M  BCL BND ConjugatedSingleBond ConjugatedSingleBond ConjugatedDoubleBond ConjugatedSingleBond ConjugatedSingleBond ConjugatedDoubleBond ConjugatedSingleBond ConjugatedSingleBond ConjugatedDoubleBond ConjugatedSingleBond ConjugatedSingleBond ConjugatedSingleBond NonConjugatedSingleBond NonConjugatedSingleBond NonConjugatedSingleBond NonConjugatedSingleBond NonConjugatedSingleBond NonConjugatedSingleBondInRing NonConjugatedSingleBondInRing NonConjugatedSingleBondInRing NonConjugatedSingleBond NonConjugatedSingleBond NonConjugatedSingleBondInRing NonConjugatedSingleBond NonConjugatedSingleBond NonConjugatedSingleBond NonConjugatedSingleBondInRing NonConjugatedSingleBond NonConjugatedSingleBond NonConjugatedSingleBond AromaticSingleBond AromaticSingleBond NonConjugatedSingleBond AromaticDoubleBond AromaticSingleBond AromaticSingleBond AromaticDoubleBond ConjugatedSingleBond AromaticDoubleBond NonConjugatedSingleBond NonConjugatedSingleBond AromaticSingleBond NonConjugatedSingleBond AromaticDoubleBond AromaticSingleBond
M  BCL CHI   1   S   5   S   9   S  17   R  20   S  24   R  28   S
M  BCL DBI - - - - - - -
M  END
> <ConfClashScore>
0 

> <ConfOneFourInteractionScore>
-0.981204 

> <ConfScore>
0.0642782 

> <ConfScorePBest>
0.00706447 

> <ConfTolerance>
1.50226 

$$$$
ATP.****
  PyMOL2.5          3D                             0

 43 45  0  0  0  0  0  0  0  0999 V2000
   -5.4573    5.8472   -1.5806 P   0  0  0  1  0  0  0  0  0  0  0  0
   -5.0977    6.9643   -2.7262 O   0  0  0  0  0  0  0  0  0  0  0  0
   -6.8729    5.2172   -2.0532 O   0  5  0  1  0  0  0  0  0  0  0  0
   -5.4962    6.4540   -0.2312 O   0  0  0  1  0  0  0  0  0  0  0  0
   -3.9548    3.5250   -0.5939 P   0  0  0  1  0  0  0  0  0  0  0  0
   -2.7364    3.8423    0.1789 O   0  0  0  0  0  0  0  0  0  0  0  0
   -5.1692    3.0512    0.0957 O   0  0  0  1  0  0  0  0  0  0  0  0
   -4.2892    4.7442   -1.5779 O   0  0  0  1  0  0  0  0  0  0  0  0
   -2.4397    1.2453   -1.7799 P   0  0  0  1  0  0  0  0  0  0  0  0
   -1.0396    1.6421   -2.0491 O   0  0  0  1  0  0  0  0  0  0  0  0
   -3.0858    0.4044   -3.0046 O   0  5  0  1  0  0  0  0  0  0  0  0
   -3.4673    2.4643   -1.6738 O   0  0  0  1  0  0  0  0  0  0  0  0
   -2.5961    0.4469   -0.4369 O   0  0  0  1  0  0  0  0  0  0  0  0
   -1.4795   -0.1670    0.2554 C   0  0  0  1  0  0  0  0  0  0  0  0
   -0.6608    0.5199    0.3075 H   0  0  0  1  0  0  0  0  0  0  0  0
   -1.1714   -1.0513   -0.2623 H   0  0  0  1  0  0  0  0  0  0  0  0
   -1.9432   -0.5221    1.6500 C   0  0  0  1  0  0  0  0  0  0  0  0
   -2.6624   -1.3126    1.5968 H   0  0  0  1  0  0  0  0  0  0  0  0
   -0.8156   -0.9109    2.4809 O   0  0  0  1  0  0  0  0  0  0  0  0
   -2.5381    0.7007    2.3470 C   0  0  0  1  0  0  0  0  0  0  0  0
   -2.0651    1.6038    2.0222 H   0  0  0  1  0  0  0  0  0  0  0  0
   -3.9461    0.7934    2.1252 O   0  0  0  1  0  0  0  0  0  0  0  0
   -4.3645    1.1995    2.8878 H   0  0  0  1  0  0  0  0  0  0  0  0
   -2.2272    0.4060    3.7918 C   0  0  0  1  0  0  0  0  0  0  0  0
   -2.2167    1.3023    4.3762 H   0  0  0  1  0  0  0  0  0  0  0  0
   -3.1693   -0.5135    4.3460 O   0  0  0  1  0  0  0  0  0  0  0  0
   -3.3759   -1.1905    3.6975 H   0  0  0  1  0  0  0  0  0  0  0  0
   -0.8427   -0.2105    3.7068 C   0  0  0  1  0  0  0  0  0  0  0  0
   -0.6817   -0.8817    4.5243 H   0  0  0  1  0  0  0  0  0  0  0  0
    0.1831    0.8328    3.7220 N   0  0  0  1  0  0  0  0  0  0  0  0
    0.6772    1.5142    2.6523 C   0  0  0  1  0  0  0  0  0  0  0  0
    0.3449    1.3473    1.6810 H   0  0  0  1  0  0  0  0  0  0  0  0
    1.5994    2.3929    2.9373 N   0  0  0  1  0  0  0  0  0  0  0  0
    1.7255    2.2961    4.3144 C   0  0  0  1  0  0  0  0  0  0  0  0
    2.5241    2.9287    5.2625 C   0  0  0  1  0  0  0  0  0  0  0  0
    3.4735    3.9099    4.9981 N   0  0  0  1  0  0  0  0  0  0  0  0
    3.5767    4.2593    4.0883 H   0  0  0  1  0  0  0  0  0  0  0  0
    4.0393    4.2519    5.7215 H   0  0  0  1  0  0  0  0  0  0  0  0
    2.4068    2.6003    6.5537 N   0  0  0  1  0  0  0  0  0  0  0  0
    1.5189    1.6488    6.8829 C   0  0  0  1  0  0  0  0  0  0  0  0
    1.4606    1.4191    7.8956 H   0  0  0  1  0  0  0  0  0  0  0  0
    0.7054    0.9616    6.0906 N   0  0  0  1  0  0  0  0  0  0  0  0
    0.8460    1.3270    4.8156 C   0  0  0  1  0  0  0  0  0  0  0  0
  1  2  1  0  0  0  0
  1  3  1  0  0  0  0
  1  4  2  0  0  0  0
  1  8  1  0  0  0  0
  5  6  1  0  0  0  0
  5  7  2  0  0  0  0
  5  8  1  0  0  0  0
  5 12  1  0  0  0  0
  9 10  2  0  0  0  0
  9 11  1  0  0  0  0
  9 12  1  0  0  0  0
  9 13  1  0  0  0  0
 13 14  1  0  0  0  0
 14 15  1  0  0  0  0
 14 16  1  0  0  0  0
 14 17  1  0  0  0  0
 17 18  1  0  0  0  0
 17 19  1  0  0  0  0
 17 20  1  0  0  0  0
 19 28  1  0  0  0  0
 20 21  1  0  0  0  0
 20 22  1  0  0  0  0
 20 24  1  0  0  0  0
 22 23  1  0  0  0  0
 24 25  1  0  0  0  0
 24 26  1  0  0  0  0
 24 28  1  0  0  0  0
 26 27  1  0  0  0  0
 28 29  1  0  0  0  0
 28 30  1  0  0  0  0
 30 31  1  0  0  0  0
 30 43  1  0  0  0  0
 31 32  1  0  0  0  0
 31 33  2  0  0  0  0
 33 34  1  0  0  0  0
 34 35  1  0  0  0  0
 34 43  2  0  0  0  0
 35 36  1  0  0  0  0
 35 39  2  0  0  0  0
 36 37  1  0  0  0  0
 36 38  1  0  0  0  0
 39 40  1  0  0  0  0
 40 41  1  0  0  0  0
 40 42  2  0  0  0  0
 42 43  1  0  0  0  0
M  BCL ATM P_TeTeTeTePi O_Te2Te2TeTe O_Te2Te2Te2Te O_Tr2Tr2TrPi P_TeTeTeTePi O_Te2Te2TeTe O_Tr2Tr2TrPi O_Tr2TrTrPi2 P_TeTeTeTePi O_Tr2Tr2TrPi O_Te2Te2Te2Te O_Tr2TrTrPi2 O_Tr2TrTrPi2 C_TeTeTeTe H_S H_S C_TeTeTeTe H_S O_Te2Te2TeTe C_TeTeTeTe H_S O_Te2Te2TeTe H_S C_TeTeTeTe H_S O_Te2Te2TeTe H_S C_TeTeTeTe H_S N_TrTrTrPi2 C_TrTrTrPi H_S N_Tr2TrTrPi C_TrTrTrPi C_TrTrTrPi N_TrTrTrPi2 H_S H_S N_Tr2TrTrPi C_TrTrTrPi H_S N_Tr2TrTrPi C_TrTrTrPi
M  BCL BND ConjugatedSingleBond ConjugatedSingleBond ConjugatedDoubleBond ConjugatedSingleBond ConjugatedSingleBond ConjugatedDoubleBond ConjugatedSingleBond ConjugatedSingleBond ConjugatedDoubleBond ConjugatedSingleBond ConjugatedSingleBond ConjugatedSingleBond NonConjugatedSingleBond NonConjugatedSingleBond NonConjugatedSingleBond NonConjugatedSingleBond NonConjugatedSingleBond NonConjugatedSingleBondInRing NonConjugatedSingleBondInRing NonConjugatedSingleBondInRing NonConjugatedSingleBond NonConjugatedSingleBond NonConjugatedSingleBondInRing NonConjugatedSingleBond NonConjugatedSingleBond NonConjugatedSingleBond NonConjugatedSingleBondInRing NonConjugatedSingleBond NonConjugatedSingleBond NonConjugatedSingleBond AromaticSingleBond AromaticSingleBond NonConjugatedSingleBond AromaticDoubleBond AromaticSingleBond AromaticSingleBond AromaticDoubleBond ConjugatedSingleBond AromaticDoubleBond NonConjugatedSingleBond NonConjugatedSingleBond AromaticSingleBond NonConjugatedSingleBond AromaticDoubleBond AromaticSingleBond
M  BCL CHI   1   S   5   S   9   S  17   R  20   S  24   R  28   S
M  BCL DBI - - - - - - -
M  END
> <ConfClashScore>
0 

> <ConfOneFourInteractionScore>
-0.986026 

> <ConfScore>
0.0644228 

> <ConfScorePBest>
0.00696147 

> <ConfTolerance>
1.66183 

$$$$
ATP.****
  PyMOL2.5          3D                             0

 43 45  0  0  0  0  0  0  0  0999 V2000
    4.3100    0.8470   -3.8611 P   0  0  0  1  0  0  0  0  0  0  0  0
    5.4021   -0.1035   -3.0908 O   0  0  0  0  0  0  0  0  0  0  0  0
    3.7448    0.0327   -5.1425 O   0  5  0  1  0  0  0  0  0  0  0  0
    5.0516    2.0958   -4.1453 O   0  0  0  1  0  0  0  0  0  0  0  0
    1.6547    1.7214   -2.7937 P   0  0  0  1  0  0  0  0  0  0  0  0
    1.8236    3.1300   -2.3173 O   0  0  0  0  0  0  0  0  0  0  0  0
    0.9446    1.5552   -4.0969 O   0  0  0  1  0  0  0  0  0  0  0  0
    3.1360    1.0968   -2.8180 O   0  0  0  1  0  0  0  0  0  0  0  0
    1.6361   -0.0191   -0.4285 P   0  0  0  1  0  0  0  0  0  0  0  0
    2.5727    0.8401    0.3296 O   0  0  0  1  0  0  0  0  0  0  0  0
    2.2386   -1.4129   -0.9930 O   0  5  0  1  0  0  0  0  0  0  0  0
    1.0042    0.7860   -1.6609 O   0  0  0  1  0  0  0  0  0  0  0  0
    0.4237   -0.4492    0.4777 O   0  0  0  1  0  0  0  0  0  0  0  0
   -0.5715    0.5188    0.8968 C   0  0  0  1  0  0  0  0  0  0  0  0
   -0.8734    1.1158    0.0617 H   0  0  0  1  0  0  0  0  0  0  0  0
   -0.1667    1.1505    1.6597 H   0  0  0  1  0  0  0  0  0  0  0  0
   -1.7559   -0.2459    1.4371 C   0  0  0  1  0  0  0  0  0  0  0  0
   -2.2750   -0.7180    0.6293 H   0  0  0  1  0  0  0  0  0  0  0  0
   -1.3280   -1.2256    2.4070 O   0  0  0  1  0  0  0  0  0  0  0  0
   -2.7019    0.6959    2.2139 C   0  0  0  1  0  0  0  0  0  0  0  0
   -2.5808    1.7085    1.8900 H   0  0  0  1  0  0  0  0  0  0  0  0
   -4.0639    0.3007    2.0439 O   0  0  0  1  0  0  0  0  0  0  0  0
   -4.2970   -0.3435    2.7164 H   0  0  0  1  0  0  0  0  0  0  0  0
   -2.2621    0.5336    3.6878 C   0  0  0  1  0  0  0  0  0  0  0  0
   -1.9279    1.4673    4.0893 H   0  0  0  1  0  0  0  0  0  0  0  0
   -3.3350    0.0288    4.4842 O   0  0  0  1  0  0  0  0  0  0  0  0
   -3.0097   -0.1847    5.3618 H   0  0  0  1  0  0  0  0  0  0  0  0
   -1.1014   -0.4826    3.6247 C   0  0  0  1  0  0  0  0  0  0  0  0
   -1.1242   -1.1339    4.4734 H   0  0  0  1  0  0  0  0  0  0  0  0
    0.1893    0.2103    3.5742 N   0  0  0  1  0  0  0  0  0  0  0  0
    0.4294    1.5205    3.8547 C   0  0  0  1  0  0  0  0  0  0  0  0
   -0.3219    2.1756    4.1514 H   0  0  0  1  0  0  0  0  0  0  0  0
    1.6735    1.8927    3.7231 N   0  0  0  1  0  0  0  0  0  0  0  0
    2.3201    0.7312    3.3301 C   0  0  0  1  0  0  0  0  0  0  0  0
    3.6369    0.4145    3.0099 C   0  0  0  1  0  0  0  0  0  0  0  0
    4.6125    1.3673    3.0557 N   0  0  0  1  0  0  0  0  0  0  0  0
    4.3738    2.3064    3.2024 H   0  0  0  1  0  0  0  0  0  0  0  0
    5.5520    1.1125    2.9419 H   0  0  0  1  0  0  0  0  0  0  0  0
    3.9503   -0.8360    2.6536 N   0  0  0  1  0  0  0  0  0  0  0  0
    2.9620   -1.7432    2.6060 C   0  0  0  1  0  0  0  0  0  0  0  0
    3.2453   -2.7024    2.3208 H   0  0  0  1  0  0  0  0  0  0  0  0
    1.6720   -1.5814    2.8737 N   0  0  0  1  0  0  0  0  0  0  0  0
    1.4048   -0.3256    3.2350 C   0  0  0  1  0  0  0  0  0  0  0  0
  1  2  1  0  0  0  0
  1  3  1  0  0  0  0
  1  4  2  0  0  0  0
  1  8  1  0  0  0  0
  5  6  1  0  0  0  0
  5  7  2  0  0  0  0
  5  8  1  0  0  0  0
  5 12  1  0  0  0  0
  9 10  2  0  0  0  0
  9 11  1  0  0  0  0
  9 12  1  0  0  0  0
  9 13  1  0  0  0  0
 13 14  1  0  0  0  0
 14 15  1  0  0  0  0
 14 16  1  0  0  0  0
 14 17  1  0  0  0  0
 17 18  1  0  0  0  0
 17 19  1  0  0  0  0
 17 20  1  0  0  0  0
 19 28  1  0  0  0  0
 20 21  1  0  0  0  0
 20 22  1  0  0  0  0
 20 24  1  0  0  0  0
 22 23  1  0  0  0  0
 24 25  1  0  0  0  0
 24 26  1  0  0  0  0
 24 28  1  0  0  0  0
 26 27  1  0  0  0  0
 28 29  1  0  0  0  0
 28 30  1  0  0  0  0
 30 31  1  0  0  0  0
 30 43  1  0  0  0  0
 31 32  1  0  0  0  0
 31 33  2  0  0  0  0
 33 34  1  0  0  0  0
 34 35  1  0  0  0  0
 34 43  2  0  0  0  0
 35 36  1  0  0  0  0
 35 39  2  0  0  0  0
 36 37  1  0  0  0  0
 36 38  1  0  0  0  0
 39 40  1  0  0  0  0
 40 41  1  0  0  0  0
 40 42  2  0  0  0  0
 42 43  1  0  0  0  0
M  BCL ATM P_TeTeTeTePi O_Te2Te2TeTe O_Te2Te2Te2Te O_Tr2Tr2TrPi P_TeTeTeTePi O_Te2Te2TeTe O_Tr2Tr2TrPi O_Tr2TrTrPi2 P_TeTeTeTePi O_Tr2Tr2TrPi O_Te2Te2Te2Te O_Tr2TrTrPi2 O_Tr2TrTrPi2 C_TeTeTeTe H_S H_S C_TeTeTeTe H_S O_Te2Te2TeTe C_TeTeTeTe H_S O_Te2Te2TeTe H_S C_TeTeTeTe H_S O_Te2Te2TeTe H_S C_TeTeTeTe H_S N_TrTrTrPi2 C_TrTrTrPi H_S N_Tr2TrTrPi C_TrTrTrPi C_TrTrTrPi N_TrTrTrPi2 H_S H_S N_Tr2TrTrPi C_TrTrTrPi H_S N_Tr2TrTrPi C_TrTrTrPi
M  BCL BND ConjugatedSingleBond ConjugatedSingleBond ConjugatedDoubleBond ConjugatedSingleBond ConjugatedSingleBond ConjugatedDoubleBond ConjugatedSingleBond ConjugatedSingleBond ConjugatedDoubleBond ConjugatedSingleBond ConjugatedSingleBond ConjugatedSingleBond NonConjugatedSingleBond NonConjugatedSingleBond NonConjugatedSingleBond NonConjugatedSingleBond NonConjugatedSingleBond NonConjugatedSingleBondInRing NonConjugatedSingleBondInRing NonConjugatedSingleBondInRing NonConjugatedSingleBond NonConjugatedSingleBond NonConjugatedSingleBondInRing NonConjugatedSingleBond NonConjugatedSingleBond NonConjugatedSingleBond NonConjugatedSingleBondInRing NonConjugatedSingleBond NonConjugatedSingleBond NonConjugatedSingleBond AromaticSingleBond AromaticSingleBond NonConjugatedSingleBond AromaticDoubleBond AromaticSingleBond AromaticSingleBond AromaticDoubleBond ConjugatedSingleBond AromaticDoubleBond NonConjugatedSingleBond NonConjugatedSingleBond AromaticSingleBond NonConjugatedSingleBond AromaticDoubleBond AromaticSingleBond
M  BCL CHI   1   S   5   S   9   S  17   R  20   S  24   R  28   S
M  BCL DBI - - - - - - -
M  END
> <ConfClashScore>
0 

> <ConfOneFourInteractionScore>
-0.981464 

> <ConfScore>
0.0668695 

> <ConfScorePBest>
0.00685847 

> <ConfTolerance>
1.74152 

$$$$
ATP.****
  PyMOL2.5          3D                             0

 43 45  0  0  0  0  0  0  0  0999 V2000
   -4.9749    3.7134   -3.8965 P   0  0  0  1  0  0  0  0  0  0  0  0
   -5.0442    5.3335   -4.1415 O   0  0  0  0  0  0  0  0  0  0  0  0
   -5.8852    3.0600   -5.0664 O   0  5  0  1  0  0  0  0  0  0  0  0
   -5.3932    3.3431   -2.5260 O   0  0  0  1  0  0  0  0  0  0  0  0
   -2.2744    3.6015   -3.0624 P   0  0  0  1  0  0  0  0  0  0  0  0
   -0.9309    3.5071   -3.7679 O   0  0  0  0  0  0  0  0  0  0  0  0
   -2.5998    4.9122   -2.4228 O   0  0  0  1  0  0  0  0  0  0  0  0
   -3.4483    3.2193   -4.1031 O   0  0  0  1  0  0  0  0  0  0  0  0
   -2.5558    0.8241   -2.1510 P   0  0  0  1  0  0  0  0  0  0  0  0
   -1.5202    0.1172   -2.9372 O   0  0  0  1  0  0  0  0  0  0  0  0
   -3.9826    0.5408   -2.8640 O   0  5  0  1  0  0  0  0  0  0  0  0
   -2.3224    2.4013   -1.9954 O   0  0  0  1  0  0  0  0  0  0  0  0
   -2.6286    0.2207   -0.6904 O   0  0  0  1  0  0  0  0  0  0  0  0
   -1.4171    0.1835    0.1076 C   0  0  0  1  0  0  0  0  0  0  0  0
   -1.0182    1.1731    0.1888 H   0  0  0  1  0  0  0  0  0  0  0  0
   -0.7007   -0.4524   -0.3690 H   0  0  0  1  0  0  0  0  0  0  0  0
   -1.7125   -0.3485    1.4900 C   0  0  0  1  0  0  0  0  0  0  0  0
   -2.1161   -1.3365    1.4138 H   0  0  0  1  0  0  0  0  0  0  0  0
   -0.5176   -0.3482    2.3013 O   0  0  0  1  0  0  0  0  0  0  0  0
   -2.6934    0.5838    2.2334 C   0  0  0  1  0  0  0  0  0  0  0  0
   -2.6461    1.5771    1.8386 H   0  0  0  1  0  0  0  0  0  0  0  0
   -4.0316    0.0944    2.1340 O   0  0  0  1  0  0  0  0  0  0  0  0
   -4.6482    0.8125    2.2945 H   0  0  0  1  0  0  0  0  0  0  0  0
   -2.2051    0.5524    3.7006 C   0  0  0  1  0  0  0  0  0  0  0  0
   -1.9201    1.5305    4.0276 H   0  0  0  1  0  0  0  0  0  0  0  0
   -3.2211    0.0385    4.5630 O   0  0  0  1  0  0  0  0  0  0  0  0
   -2.8188   -0.5079    5.2421 H   0  0  0  1  0  0  0  0  0  0  0  0
   -0.9841   -0.3926    3.6665 C   0  0  0  1  0  0  0  0  0  0  0  0
   -1.2712   -1.3881    3.9338 H   0  0  0  1  0  0  0  0  0  0  0  0
    0.0581    0.0787    4.5830 N   0  0  0  1  0  0  0  0  0  0  0  0
    1.3382    0.4544    4.3125 C   0  0  0  1  0  0  0  0  0  0  0  0
    1.7308    0.4493    3.3495 H   0  0  0  1  0  0  0  0  0  0  0  0
    2.0358    0.8215    5.3530 N   0  0  0  1  0  0  0  0  0  0  0  0
    1.1437    0.6880    6.4055 C   0  0  0  1  0  0  0  0  0  0  0  0
    1.2253    0.8966    7.7791 C   0  0  0  1  0  0  0  0  0  0  0  0
    2.3504    1.3388    8.4664 N   0  0  0  1  0  0  0  0  0  0  0  0
    3.1940    1.4780    7.9873 H   0  0  0  1  0  0  0  0  0  0  0  0
    2.2998    1.5113    9.4297 H   0  0  0  1  0  0  0  0  0  0  0  0
    0.1565    0.6663    8.5494 N   0  0  0  1  0  0  0  0  0  0  0  0
   -0.9632    0.2231    7.9561 C   0  0  0  1  0  0  0  0  0  0  0  0
   -1.7703    0.0521    8.5893 H   0  0  0  1  0  0  0  0  0  0  0  0
   -1.1793   -0.0264    6.6704 N   0  0  0  1  0  0  0  0  0  0  0  0
   -0.0940    0.2265    5.9375 C   0  0  0  1  0  0  0  0  0  0  0  0
  1  2  1  0  0  0  0
  1  3  1  0  0  0  0
  1  4  2  0  0  0  0
  1  8  1  0  0  0  0
  5  6  1  0  0  0  0
  5  7  2  0  0  0  0
  5  8  1  0  0  0  0
  5 12  1  0  0  0  0
  9 10  2  0  0  0  0
  9 11  1  0  0  0  0
  9 12  1  0  0  0  0
  9 13  1  0  0  0  0
 13 14  1  0  0  0  0
 14 15  1  0  0  0  0
 14 16  1  0  0  0  0
 14 17  1  0  0  0  0
 17 18  1  0  0  0  0
 17 19  1  0  0  0  0
 17 20  1  0  0  0  0
 19 28  1  0  0  0  0
 20 21  1  0  0  0  0
 20 22  1  0  0  0  0
 20 24  1  0  0  0  0
 22 23  1  0  0  0  0
 24 25  1  0  0  0  0
 24 26  1  0  0  0  0
 24 28  1  0  0  0  0
 26 27  1  0  0  0  0
 28 29  1  0  0  0  0
 28 30  1  0  0  0  0
 30 31  1  0  0  0  0
 30 43  1  0  0  0  0
 31 32  1  0  0  0  0
 31 33  2  0  0  0  0
 33 34  1  0  0  0  0
 34 35  1  0  0  0  0
 34 43  2  0  0  0  0
 35 36  1  0  0  0  0
 35 39  2  0  0  0  0
 36 37  1  0  0  0  0
 36 38  1  0  0  0  0
 39 40  1  0  0  0  0
 40 41  1  0  0  0  0
 40 42  2  0  0  0  0
 42 43  1  0  0  0  0
M  BCL ATM P_TeTeTeTePi O_Te2Te2TeTe O_Te2Te2Te2Te O_Tr2Tr2TrPi P_TeTeTeTePi O_Te2Te2TeTe O_Tr2Tr2TrPi O_Tr2TrTrPi2 P_TeTeTeTePi O_Tr2Tr2TrPi O_Te2Te2Te2Te O_Tr2TrTrPi2 O_Tr2TrTrPi2 C_TeTeTeTe H_S H_S C_TeTeTeTe H_S O_Te2Te2TeTe C_TeTeTeTe H_S O_Te2Te2TeTe H_S C_TeTeTeTe H_S O_Te2Te2TeTe H_S C_TeTeTeTe H_S N_TrTrTrPi2 C_TrTrTrPi H_S N_Tr2TrTrPi C_TrTrTrPi C_TrTrTrPi N_TrTrTrPi2 H_S H_S N_Tr2TrTrPi C_TrTrTrPi H_S N_Tr2TrTrPi C_TrTrTrPi
M  BCL BND ConjugatedSingleBond ConjugatedSingleBond ConjugatedDoubleBond ConjugatedSingleBond ConjugatedSingleBond ConjugatedDoubleBond ConjugatedSingleBond ConjugatedSingleBond ConjugatedDoubleBond ConjugatedSingleBond ConjugatedSingleBond ConjugatedSingleBond NonConjugatedSingleBond NonConjugatedSingleBond NonConjugatedSingleBond NonConjugatedSingleBond NonConjugatedSingleBond NonConjugatedSingleBondInRing NonConjugatedSingleBondInRing NonConjugatedSingleBondInRing NonConjugatedSingleBond NonConjugatedSingleBond NonConjugatedSingleBondInRing NonConjugatedSingleBond NonConjugatedSingleBond NonConjugatedSingleBond NonConjugatedSingleBondInRing NonConjugatedSingleBond NonConjugatedSingleBond NonConjugatedSingleBond AromaticSingleBond AromaticSingleBond NonConjugatedSingleBond AromaticDoubleBond AromaticSingleBond AromaticSingleBond AromaticDoubleBond ConjugatedSingleBond AromaticDoubleBond NonConjugatedSingleBond NonConjugatedSingleBond AromaticSingleBond NonConjugatedSingleBond AromaticDoubleBond AromaticSingleBond
M  BCL CHI   1   S   5   S   9   S  17   R  20   S  24   R  28   S
M  BCL DBI - - - - - - -
M  END
> <ConfClashScore>
0 

> <ConfOneFourInteractionScore>
-0.981204 

> <ConfScore>
0.0669045 

> <ConfScorePBest>
0.00675547 

> <ConfTolerance>
1.72376 

$$$$
ATP.****
  PyMOL2.5          3D                             0

 43 45  0  0  0  0  0  0  0  0999 V2000
    3.9839   -0.6586    1.6472 P   0  0  0  1  0  0  0  0  0  0  0  0
    3.6884    0.6588    2.5783 O   0  0  0  0  0  0  0  0  0  0  0  0
    3.0962   -1.8015    2.3753 O   0  5  0  1  0  0  0  0  0  0  0  0
    5.3907   -0.7079    1.1903 O   0  0  0  1  0  0  0  0  0  0  0  0
    3.3415   -0.2188   -1.1324 P   0  0  0  1  0  0  0  0  0  0  0  0
    4.2455    0.9245   -1.3517 O   0  0  0  0  0  0  0  0  0  0  0  0
    3.7141   -1.5863   -1.5258 O   0  0  0  1  0  0  0  0  0  0  0  0
    2.9841   -0.3445    0.4286 O   0  0  0  1  0  0  0  0  0  0  0  0
    0.9047    1.2936   -1.1538 P   0  0  0  1  0  0  0  0  0  0  0  0
    0.2084    1.8024   -2.3566 O   0  0  0  1  0  0  0  0  0  0  0  0
    1.7958    2.4124   -0.3931 O   0  5  0  1  0  0  0  0  0  0  0  0
    1.9192    0.1983   -1.7805 O   0  0  0  1  0  0  0  0  0  0  0  0
   -0.0390    0.5015   -0.1868 O   0  0  0  1  0  0  0  0  0  0  0  0
   -1.0819    1.0857    0.6287 C   0  0  0  1  0  0  0  0  0  0  0  0
   -1.7981    1.5795    0.0057 H   0  0  0  1  0  0  0  0  0  0  0  0
   -0.6576    1.7905    1.3129 H   0  0  0  1  0  0  0  0  0  0  0  0
   -1.7497   -0.0353    1.3923 C   0  0  0  1  0  0  0  0  0  0  0  0
   -2.1811   -0.7300    0.7023 H   0  0  0  1  0  0  0  0  0  0  0  0
   -0.7939   -0.7009    2.2368 O   0  0  0  1  0  0  0  0  0  0  0  0
   -2.8407    0.5329    2.3333 C   0  0  0  1  0  0  0  0  0  0  0  0
   -3.1372    1.5153    2.0304 H   0  0  0  1  0  0  0  0  0  0  0  0
   -3.9851   -0.3210    2.3685 O   0  0  0  1  0  0  0  0  0  0  0  0
   -3.7013   -1.2380    2.3564 H   0  0  0  1  0  0  0  0  0  0  0  0
   -2.1401    0.5642    3.6802 C   0  0  0  1  0  0  0  0  0  0  0  0
   -1.6110    1.4838    3.8190 H   0  0  0  1  0  0  0  0  0  0  0  0
   -3.0700    0.3831    4.7491 O   0  0  0  1  0  0  0  0  0  0  0  0
   -3.0273    1.1368    5.3422 H   0  0  0  1  0  0  0  0  0  0  0  0
   -1.1703   -0.6241    3.5815 C   0  0  0  1  0  0  0  0  0  0  0  0
   -1.6571   -1.5277    3.8838 H   0  0  0  1  0  0  0  0  0  0  0  0
    0.0016   -0.3952    4.4252 N   0  0  0  1  0  0  0  0  0  0  0  0
    0.2474    0.6823    5.2198 C   0  0  0  1  0  0  0  0  0  0  0  0
   -0.3805    1.5109    5.2483 H   0  0  0  1  0  0  0  0  0  0  0  0
    1.3305    0.5973    5.9434 N   0  0  0  1  0  0  0  0  0  0  0  0
    1.8467   -0.6454    5.6103 C   0  0  0  1  0  0  0  0  0  0  0  0
    2.9754   -1.3624    5.9962 C   0  0  0  1  0  0  0  0  0  0  0  0
    3.8884   -0.8889    6.9011 N   0  0  0  1  0  0  0  0  0  0  0  0
    4.6649   -1.4347    7.1451 H   0  0  0  1  0  0  0  0  0  0  0  0
    3.7651   -0.0043    7.3045 H   0  0  0  1  0  0  0  0  0  0  0  0
    3.2026   -2.5726    5.4741 N   0  0  0  1  0  0  0  0  0  0  0  0
    2.3248   -3.0451    4.5751 C   0  0  0  1  0  0  0  0  0  0  0  0
    2.5388   -3.9871    4.1897 H   0  0  0  1  0  0  0  0  0  0  0  0
    1.2207   -2.4725    4.1116 N   0  0  0  1  0  0  0  0  0  0  0  0
    1.0256   -1.2748    4.6650 C   0  0  0  1  0  0  0  0  0  0  0  0
  1  2  1  0  0  0  0
  1  3  1  0  0  0  0
  1  4  2  0  0  0  0
  1  8  1  0  0  0  0
  5  6  1  0  0  0  0
  5  7  2  0  0  0  0
  5  8  1  0  0  0  0
  5 12  1  0  0  0  0
  9 10  2  0  0  0  0
  9 11  1  0  0  0  0
  9 12  1  0  0  0  0
  9 13  1  0  0  0  0
 13 14  1  0  0  0  0
 14 15  1  0  0  0  0
 14 16  1  0  0  0  0
 14 17  1  0  0  0  0
 17 18  1  0  0  0  0
 17 19  1  0  0  0  0
 17 20  1  0  0  0  0
 19 28  1  0  0  0  0
 20 21  1  0  0  0  0
 20 22  1  0  0  0  0
 20 24  1  0  0  0  0
 22 23  1  0  0  0  0
 24 25  1  0  0  0  0
 24 26  1  0  0  0  0
 24 28  1  0  0  0  0
 26 27  1  0  0  0  0
 28 29  1  0  0  0  0
 28 30  1  0  0  0  0
 30 31  1  0  0  0  0
 30 43  1  0  0  0  0
 31 32  1  0  0  0  0
 31 33  2  0  0  0  0
 33 34  1  0  0  0  0
 34 35  1  0  0  0  0
 34 43  2  0  0  0  0
 35 36  1  0  0  0  0
 35 39  2  0  0  0  0
 36 37  1  0  0  0  0
 36 38  1  0  0  0  0
 39 40  1  0  0  0  0
 40 41  1  0  0  0  0
 40 42  2  0  0  0  0
 42 43  1  0  0  0  0
M  BCL ATM P_TeTeTeTePi O_Te2Te2TeTe O_Te2Te2Te2Te O_Tr2Tr2TrPi P_TeTeTeTePi O_Te2Te2TeTe O_Tr2Tr2TrPi O_Tr2TrTrPi2 P_TeTeTeTePi O_Tr2Tr2TrPi O_Te2Te2Te2Te O_Tr2TrTrPi2 O_Tr2TrTrPi2 C_TeTeTeTe H_S H_S C_TeTeTeTe H_S O_Te2Te2TeTe C_TeTeTeTe H_S O_Te2Te2TeTe H_S C_TeTeTeTe H_S O_Te2Te2TeTe H_S C_TeTeTeTe H_S N_TrTrTrPi2 C_TrTrTrPi H_S N_Tr2TrTrPi C_TrTrTrPi C_TrTrTrPi N_TrTrTrPi2 H_S H_S N_Tr2TrTrPi C_TrTrTrPi H_S N_Tr2TrTrPi C_TrTrTrPi
M  BCL BND ConjugatedSingleBond ConjugatedSingleBond ConjugatedDoubleBond ConjugatedSingleBond ConjugatedSingleBond ConjugatedDoubleBond ConjugatedSingleBond ConjugatedSingleBond ConjugatedDoubleBond ConjugatedSingleBond ConjugatedSingleBond ConjugatedSingleBond NonConjugatedSingleBond NonConjugatedSingleBond NonConjugatedSingleBond NonConjugatedSingleBond NonConjugatedSingleBond NonConjugatedSingleBondInRing NonConjugatedSingleBondInRing NonConjugatedSingleBondInRing NonConjugatedSingleBond NonConjugatedSingleBond NonConjugatedSingleBondInRing NonConjugatedSingleBond NonConjugatedSingleBond NonConjugatedSingleBond NonConjugatedSingleBondInRing NonConjugatedSingleBond NonConjugatedSingleBond NonConjugatedSingleBond AromaticSingleBond AromaticSingleBond NonConjugatedSingleBond AromaticDoubleBond AromaticSingleBond AromaticSingleBond AromaticDoubleBond ConjugatedSingleBond AromaticDoubleBond NonConjugatedSingleBond NonConjugatedSingleBond AromaticSingleBond NonConjugatedSingleBond AromaticDoubleBond AromaticSingleBond
M  BCL CHI   1   S   5   S   9   S  17   R  20   S  24   R  28   S
M  BCL DBI - - - - - - -
M  END
> <ConfClashScore>
0 

> <ConfOneFourInteractionScore>
-0.979313 

> <ConfScore>
0.0709551 

> <ConfScorePBest>
0.00665247 

> <ConfTolerance>
1.84141 

$$$$
ATP.****
  PyMOL2.5          3D                             0

 43 45  0  0  0  0  0  0  0  0999 V2000
    6.0311    0.5803   -0.1543 P   0  0  0  1  0  0  0  0  0  0  0  0
    6.1577   -0.1194   -1.6321 O   0  0  0  0  0  0  0  0  0  0  0  0
    6.7946    2.0020   -0.2967 O   0  5  0  1  0  0  0  0  0  0  0  0
    6.5835   -0.2491    0.9400 O   0  0  0  1  0  0  0  0  0  0  0  0
    3.7019    2.2833    0.2601 P   0  0  0  1  0  0  0  0  0  0  0  0
    4.0704    2.8434    1.5798 O   0  0  0  0  0  0  0  0  0  0  0  0
    3.8572    3.1306   -0.9421 O   0  0  0  1  0  0  0  0  0  0  0  0
    4.4662    0.8923    0.0030 O   0  0  0  1  0  0  0  0  0  0  0  0
    1.0021    1.2139   -0.4230 P   0  0  0  1  0  0  0  0  0  0  0  0
    1.3035   -0.1720   -0.8460 O   0  0  0  1  0  0  0  0  0  0  0  0
    0.5612    2.2955   -1.5455 O   0  5  0  1  0  0  0  0  0  0  0  0
    2.2249    1.7310    0.4660 O   0  0  0  1  0  0  0  0  0  0  0  0
   -0.2095    1.0268    0.5770 O   0  0  0  1  0  0  0  0  0  0  0  0
   -1.2566    0.0903    0.2299 C   0  0  0  1  0  0  0  0  0  0  0  0
   -0.8531   -0.7044   -0.3622 H   0  0  0  1  0  0  0  0  0  0  0  0
   -2.0255    0.5909   -0.3205 H   0  0  0  1  0  0  0  0  0  0  0  0
   -1.8225   -0.4635    1.5178 C   0  0  0  1  0  0  0  0  0  0  0  0
   -2.4838   -1.2754    1.2974 H   0  0  0  1  0  0  0  0  0  0  0  0
   -0.7573   -0.9099    2.3768 O   0  0  0  1  0  0  0  0  0  0  0  0
   -2.5380    0.5876    2.2494 C   0  0  0  1  0  0  0  0  0  0  0  0
   -2.1609    1.5528    1.9828 H   0  0  0  1  0  0  0  0  0  0  0  0
   -3.9373    0.5284    1.9690 O   0  0  0  1  0  0  0  0  0  0  0  0
   -4.4209    1.0019    2.6499 H   0  0  0  1  0  0  0  0  0  0  0  0
   -2.2768    0.3012    3.7208 C   0  0  0  1  0  0  0  0  0  0  0  0
   -2.3085    1.1959    4.3068 H   0  0  0  1  0  0  0  0  0  0  0  0
   -3.2097   -0.6451    4.2445 O   0  0  0  1  0  0  0  0  0  0  0  0
   -3.5235   -0.3455    5.1009 H   0  0  0  1  0  0  0  0  0  0  0  0
   -0.8628   -0.2796    3.6585 C   0  0  0  1  0  0  0  0  0  0  0  0
   -0.7198   -0.9969    4.4394 H   0  0  0  1  0  0  0  0  0  0  0  0
    0.1333    0.7874    3.7860 N   0  0  0  1  0  0  0  0  0  0  0  0
    1.0591    1.1169    2.8440 C   0  0  0  1  0  0  0  0  0  0  0  0
    1.1750    0.5787    1.9617 H   0  0  0  1  0  0  0  0  0  0  0  0
    1.7904    2.1592    3.1316 N   0  0  0  1  0  0  0  0  0  0  0  0
    1.3062    2.5650    4.3655 C   0  0  0  1  0  0  0  0  0  0  0  0
    1.6329    3.5920    5.2461 C   0  0  0  1  0  0  0  0  0  0  0  0
    2.6446    4.4502    4.9044 N   0  0  0  1  0  0  0  0  0  0  0  0
    2.8769    5.1948    5.4978 H   0  0  0  1  0  0  0  0  0  0  0  0
    3.1361    4.3196    4.0667 H   0  0  0  1  0  0  0  0  0  0  0  0
    0.9604    3.7192    6.3951 N   0  0  0  1  0  0  0  0  0  0  0  0
   -0.0073    2.8274    6.6600 C   0  0  0  1  0  0  0  0  0  0  0  0
   -0.5037    2.9578    7.5646 H   0  0  0  1  0  0  0  0  0  0  0  0
   -0.4163    1.8017    5.9234 N   0  0  0  1  0  0  0  0  0  0  0  0
    0.2712    1.7177    4.7836 C   0  0  0  1  0  0  0  0  0  0  0  0
  1  2  1  0  0  0  0
  1  3  1  0  0  0  0
  1  4  2  0  0  0  0
  1  8  1  0  0  0  0
  5  6  1  0  0  0  0
  5  7  2  0  0  0  0
  5  8  1  0  0  0  0
  5 12  1  0  0  0  0
  9 10  2  0  0  0  0
  9 11  1  0  0  0  0
  9 12  1  0  0  0  0
  9 13  1  0  0  0  0
 13 14  1  0  0  0  0
 14 15  1  0  0  0  0
 14 16  1  0  0  0  0
 14 17  1  0  0  0  0
 17 18  1  0  0  0  0
 17 19  1  0  0  0  0
 17 20  1  0  0  0  0
 19 28  1  0  0  0  0
 20 21  1  0  0  0  0
 20 22  1  0  0  0  0
 20 24  1  0  0  0  0
 22 23  1  0  0  0  0
 24 25  1  0  0  0  0
 24 26  1  0  0  0  0
 24 28  1  0  0  0  0
 26 27  1  0  0  0  0
 28 29  1  0  0  0  0
 28 30  1  0  0  0  0
 30 31  1  0  0  0  0
 30 43  1  0  0  0  0
 31 32  1  0  0  0  0
 31 33  2  0  0  0  0
 33 34  1  0  0  0  0
 34 35  1  0  0  0  0
 34 43  2  0  0  0  0
 35 36  1  0  0  0  0
 35 39  2  0  0  0  0
 36 37  1  0  0  0  0
 36 38  1  0  0  0  0
 39 40  1  0  0  0  0
 40 41  1  0  0  0  0
 40 42  2  0  0  0  0
 42 43  1  0  0  0  0
M  BCL ATM P_TeTeTeTePi O_Te2Te2TeTe O_Te2Te2Te2Te O_Tr2Tr2TrPi P_TeTeTeTePi O_Te2Te2TeTe O_Tr2Tr2TrPi O_Tr2TrTrPi2 P_TeTeTeTePi O_Tr2Tr2TrPi O_Te2Te2Te2Te O_Tr2TrTrPi2 O_Tr2TrTrPi2 C_TeTeTeTe H_S H_S C_TeTeTeTe H_S O_Te2Te2TeTe C_TeTeTeTe H_S O_Te2Te2TeTe H_S C_TeTeTeTe H_S O_Te2Te2TeTe H_S C_TeTeTeTe H_S N_TrTrTrPi2 C_TrTrTrPi H_S N_Tr2TrTrPi C_TrTrTrPi C_TrTrTrPi N_TrTrTrPi2 H_S H_S N_Tr2TrTrPi C_TrTrTrPi H_S N_Tr2TrTrPi C_TrTrTrPi
M  BCL BND ConjugatedSingleBond ConjugatedSingleBond ConjugatedDoubleBond ConjugatedSingleBond ConjugatedSingleBond ConjugatedDoubleBond ConjugatedSingleBond ConjugatedSingleBond ConjugatedDoubleBond ConjugatedSingleBond ConjugatedSingleBond ConjugatedSingleBond NonConjugatedSingleBond NonConjugatedSingleBond NonConjugatedSingleBond NonConjugatedSingleBond NonConjugatedSingleBond NonConjugatedSingleBondInRing NonConjugatedSingleBondInRing NonConjugatedSingleBondInRing NonConjugatedSingleBond NonConjugatedSingleBond NonConjugatedSingleBondInRing NonConjugatedSingleBond NonConjugatedSingleBond NonConjugatedSingleBond NonConjugatedSingleBondInRing NonConjugatedSingleBond NonConjugatedSingleBond NonConjugatedSingleBond AromaticSingleBond AromaticSingleBond NonConjugatedSingleBond AromaticDoubleBond AromaticSingleBond AromaticSingleBond AromaticDoubleBond ConjugatedSingleBond AromaticDoubleBond NonConjugatedSingleBond NonConjugatedSingleBond AromaticSingleBond NonConjugatedSingleBond AromaticDoubleBond AromaticSingleBond
M  BCL CHI   1   S   5   S   9   S  17   R  20   S  24   R  28   S
M  BCL DBI - - - - - - -
M  END
> <ConfClashScore>
0 

> <ConfOneFourInteractionScore>
-0.993344 

> <ConfScore>
0.0712548 

> <ConfScorePBest>
0.00654947 

> <ConfTolerance>
1.47472 

$$$$
ATP.****
  PyMOL2.5          3D                             0

 43 45  0  0  0  0  0  0  0  0999 V2000
    3.9069    4.6964   -1.3079 P   0  0  0  1  0  0  0  0  0  0  0  0
    2.3022    4.8880   -1.5871 O   0  0  0  0  0  0  0  0  0  0  0  0
    4.4822    5.9796   -0.5037 O   0  5  0  1  0  0  0  0  0  0  0  0
    4.5912    4.3733   -2.5797 O   0  0  0  1  0  0  0  0  0  0  0  0
    3.3809    1.9367   -0.6448 P   0  0  0  1  0  0  0  0  0  0  0  0
    3.2872    1.8018   -2.1971 O   0  0  0  0  0  0  0  0  0  0  0  0
    4.3759    0.9447   -0.1159 O   0  0  0  1  0  0  0  0  0  0  0  0
    4.0392    3.3805   -0.3947 O   0  0  0  1  0  0  0  0  0  0  0  0
    0.6742    0.9964   -0.5216 P   0  0  0  1  0  0  0  0  0  0  0  0
    1.1039   -0.3662   -0.9079 O   0  0  0  1  0  0  0  0  0  0  0  0
    0.2957    1.9120   -1.8033 O   0  5  0  1  0  0  0  0  0  0  0  0
    1.9213    1.8578    0.0480 O   0  0  0  1  0  0  0  0  0  0  0  0
   -0.5758    1.0777    0.4367 O   0  0  0  1  0  0  0  0  0  0  0  0
   -1.5674    0.0295    0.2829 C   0  0  0  1  0  0  0  0  0  0  0  0
   -1.1334   -0.8124   -0.2149 H   0  0  0  1  0  0  0  0  0  0  0  0
   -2.3966    0.3931   -0.2872 H   0  0  0  1  0  0  0  0  0  0  0  0
   -2.0290   -0.3714    1.6640 C   0  0  0  1  0  0  0  0  0  0  0  0
   -2.8145   -1.0934    1.5825 H   0  0  0  1  0  0  0  0  0  0  0  0
   -0.9272   -0.9134    2.4228 O   0  0  0  1  0  0  0  0  0  0  0  0
   -2.5022    0.8260    2.4201 C   0  0  0  1  0  0  0  0  0  0  0  0
   -1.9887    1.7085    2.1001 H   0  0  0  1  0  0  0  0  0  0  0  0
   -3.9097    1.0086    2.2598 O   0  0  0  1  0  0  0  0  0  0  0  0
   -4.3365    0.1527    2.1775 H   0  0  0  1  0  0  0  0  0  0  0  0
   -2.1622    0.4929    3.8434 C   0  0  0  1  0  0  0  0  0  0  0  0
   -2.0200    1.3813    4.4226 H   0  0  0  1  0  0  0  0  0  0  0  0
   -3.1832   -0.3075    4.4409 O   0  0  0  1  0  0  0  0  0  0  0  0
   -3.3068   -1.1072    3.9245 H   0  0  0  1  0  0  0  0  0  0  0  0
   -0.8727   -0.2816    3.7129 C   0  0  0  1  0  0  0  0  0  0  0  0
   -0.8000   -1.0179    4.4860 H   0  0  0  1  0  0  0  0  0  0  0  0
    0.2753    0.6224    3.7900 N   0  0  0  1  0  0  0  0  0  0  0  0
    0.2540    1.9547    4.0679 C   0  0  0  1  0  0  0  0  0  0  0  0
   -0.6270    2.4705    4.2667 H   0  0  0  1  0  0  0  0  0  0  0  0
    1.4226    2.5363    4.0661 N   0  0  0  1  0  0  0  0  0  0  0  0
    2.2987    1.5036    3.7707 C   0  0  0  1  0  0  0  0  0  0  0  0
    3.6778    1.4188    3.6037 C   0  0  0  1  0  0  0  0  0  0  0  0
    4.4641    2.5261    3.7366 N   0  0  0  1  0  0  0  0  0  0  0  0
    4.0528    3.4101    3.8355 H   0  0  0  1  0  0  0  0  0  0  0  0
    5.4400    2.4373    3.7333 H   0  0  0  1  0  0  0  0  0  0  0  0
    4.2390    0.2409    3.3100 N   0  0  0  1  0  0  0  0  0  0  0  0
    3.4328   -0.8236    3.1729 C   0  0  0  1  0  0  0  0  0  0  0  0
    3.9067   -1.7197    2.9405 H   0  0  0  1  0  0  0  0  0  0  0  0
    2.1125   -0.8870    3.2939 N   0  0  0  1  0  0  0  0  0  0  0  0
    1.5949    0.3042    3.5976 C   0  0  0  1  0  0  0  0  0  0  0  0
  1  2  1  0  0  0  0
  1  3  1  0  0  0  0
  1  4  2  0  0  0  0
  1  8  1  0  0  0  0
  5  6  1  0  0  0  0
  5  7  2  0  0  0  0
  5  8  1  0  0  0  0
  5 12  1  0  0  0  0
  9 10  2  0  0  0  0
  9 11  1  0  0  0  0
  9 12  1  0  0  0  0
  9 13  1  0  0  0  0
 13 14  1  0  0  0  0
 14 15  1  0  0  0  0
 14 16  1  0  0  0  0
 14 17  1  0  0  0  0
 17 18  1  0  0  0  0
 17 19  1  0  0  0  0
 17 20  1  0  0  0  0
 19 28  1  0  0  0  0
 20 21  1  0  0  0  0
 20 22  1  0  0  0  0
 20 24  1  0  0  0  0
 22 23  1  0  0  0  0
 24 25  1  0  0  0  0
 24 26  1  0  0  0  0
 24 28  1  0  0  0  0
 26 27  1  0  0  0  0
 28 29  1  0  0  0  0
 28 30  1  0  0  0  0
 30 31  1  0  0  0  0
 30 43  1  0  0  0  0
 31 32  1  0  0  0  0
 31 33  2  0  0  0  0
 33 34  1  0  0  0  0
 34 35  1  0  0  0  0
 34 43  2  0  0  0  0
 35 36  1  0  0  0  0
 35 39  2  0  0  0  0
 36 37  1  0  0  0  0
 36 38  1  0  0  0  0
 39 40  1  0  0  0  0
 40 41  1  0  0  0  0
 40 42  2  0  0  0  0
 42 43  1  0  0  0  0
M  BCL ATM P_TeTeTeTePi O_Te2Te2TeTe O_Te2Te2Te2Te O_Tr2Tr2TrPi P_TeTeTeTePi O_Te2Te2TeTe O_Tr2Tr2TrPi O_Tr2TrTrPi2 P_TeTeTeTePi O_Tr2Tr2TrPi O_Te2Te2Te2Te O_Tr2TrTrPi2 O_Tr2TrTrPi2 C_TeTeTeTe H_S H_S C_TeTeTeTe H_S O_Te2Te2TeTe C_TeTeTeTe H_S O_Te2Te2TeTe H_S C_TeTeTeTe H_S O_Te2Te2TeTe H_S C_TeTeTeTe H_S N_TrTrTrPi2 C_TrTrTrPi H_S N_Tr2TrTrPi C_TrTrTrPi C_TrTrTrPi N_TrTrTrPi2 H_S H_S N_Tr2TrTrPi C_TrTrTrPi H_S N_Tr2TrTrPi C_TrTrTrPi
M  BCL BND ConjugatedSingleBond ConjugatedSingleBond ConjugatedDoubleBond ConjugatedSingleBond ConjugatedSingleBond ConjugatedDoubleBond ConjugatedSingleBond ConjugatedSingleBond ConjugatedDoubleBond ConjugatedSingleBond ConjugatedSingleBond ConjugatedSingleBond NonConjugatedSingleBond NonConjugatedSingleBond NonConjugatedSingleBond NonConjugatedSingleBond NonConjugatedSingleBond NonConjugatedSingleBondInRing NonConjugatedSingleBondInRing NonConjugatedSingleBondInRing NonConjugatedSingleBond NonConjugatedSingleBond NonConjugatedSingleBondInRing NonConjugatedSingleBond NonConjugatedSingleBond NonConjugatedSingleBond NonConjugatedSingleBondInRing NonConjugatedSingleBond NonConjugatedSingleBond NonConjugatedSingleBond AromaticSingleBond AromaticSingleBond NonConjugatedSingleBond AromaticDoubleBond AromaticSingleBond AromaticSingleBond AromaticDoubleBond ConjugatedSingleBond AromaticDoubleBond NonConjugatedSingleBond NonConjugatedSingleBond AromaticSingleBond NonConjugatedSingleBond AromaticDoubleBond AromaticSingleBond
M  BCL CHI   1   S   5   S   9   S  17   R  20   S  24   R  28   S
M  BCL DBI - - - - - - -
M  END
> <ConfClashScore>
0 

> <ConfOneFourInteractionScore>
-0.980953 

> <ConfScore>
0.0733793 

> <ConfScorePBest>
0.00644647 

> <ConfTolerance>
2.01046 

$$$$
ATP.****
  PyMOL2.5          3D                             0

 43 45  0  0  0  0  0  0  0  0999 V2000
    2.4606   -4.9676   -3.3778 P   0  0  0  1  0  0  0  0  0  0  0  0
    3.9027   -4.3376   -2.9163 O   0  0  0  0  0  0  0  0  0  0  0  0
    2.1759   -6.2698   -2.4572 O   0  5  0  1  0  0  0  0  0  0  0  0
    2.5447   -5.3451   -4.8064 O   0  0  0  1  0  0  0  0  0  0  0  0
    1.4524   -2.2672   -2.6091 P   0  0  0  1  0  0  0  0  0  0  0  0
    1.9213   -2.4255   -1.1714 O   0  0  0  0  0  0  0  0  0  0  0  0
    2.4422   -1.5499   -3.4924 O   0  0  0  1  0  0  0  0  0  0  0  0
    1.4317   -3.7863   -3.1043 O   0  0  0  1  0  0  0  0  0  0  0  0
   -0.6147   -0.3088   -2.1355 P   0  0  0  1  0  0  0  0  0  0  0  0
   -1.8933    0.0903   -2.7649 O   0  0  0  1  0  0  0  0  0  0  0  0
    0.6592    0.6731   -2.3289 O   0  5  0  1  0  0  0  0  0  0  0  0
   -0.0512   -1.7057   -2.6937 O   0  0  0  1  0  0  0  0  0  0  0  0
   -0.6961   -0.4856   -0.5654 O   0  0  0  1  0  0  0  0  0  0  0  0
   -1.6640    0.3034    0.1737 C   0  0  0  1  0  0  0  0  0  0  0  0
   -2.6111    0.2775   -0.3234 H   0  0  0  1  0  0  0  0  0  0  0  0
   -1.3275    1.3164    0.2485 H   0  0  0  1  0  0  0  0  0  0  0  0
   -1.7902   -0.2995    1.5522 C   0  0  0  1  0  0  0  0  0  0  0  0
   -2.1814   -1.2923    1.4733 H   0  0  0  1  0  0  0  0  0  0  0  0
   -0.5109   -0.3085    2.2226 O   0  0  0  1  0  0  0  0  0  0  0  0
   -2.6973    0.5730    2.4465 C   0  0  0  1  0  0  0  0  0  0  0  0
   -2.7137    1.5846    2.0983 H   0  0  0  1  0  0  0  0  0  0  0  0
   -4.0297    0.0564    2.4746 O   0  0  0  1  0  0  0  0  0  0  0  0
   -4.4490    0.2049    1.6239 H   0  0  0  1  0  0  0  0  0  0  0  0
   -2.0448    0.4846    3.8459 C   0  0  0  1  0  0  0  0  0  0  0  0
   -1.7426    1.4529    4.1866 H   0  0  0  1  0  0  0  0  0  0  0  0
   -2.9463   -0.0934    4.7910 O   0  0  0  1  0  0  0  0  0  0  0  0
   -3.8123    0.3097    4.6958 H   0  0  0  1  0  0  0  0  0  0  0  0
   -0.8182   -0.4281    3.6279 C   0  0  0  1  0  0  0  0  0  0  0  0
   -1.0544   -1.4417    3.8765 H   0  0  0  1  0  0  0  0  0  0  0  0
    0.3098    0.0236    4.4410 N   0  0  0  1  0  0  0  0  0  0  0  0
    0.6631    1.3097    4.7128 C   0  0  0  1  0  0  0  0  0  0  0  0
    0.1279    2.1249    4.3515 H   0  0  0  1  0  0  0  0  0  0  0  0
    1.7243    1.4428    5.4613 N   0  0  0  1  0  0  0  0  0  0  0  0
    2.1065    0.1353    5.7179 C   0  0  0  1  0  0  0  0  0  0  0  0
    3.1480   -0.4486    6.4331 C   0  0  0  1  0  0  0  0  0  0  0  0
    4.0986    0.2800    7.0981 N   0  0  0  1  0  0  0  0  0  0  0  0
    4.8574   -0.1742    7.5204 H   0  0  0  1  0  0  0  0  0  0  0  0
    4.0199    1.2553    7.1515 H   0  0  0  1  0  0  0  0  0  0  0  0
    3.2482   -1.7811    6.4896 N   0  0  0  1  0  0  0  0  0  0  0  0
    2.3327   -2.5095    5.8314 C   0  0  0  1  0  0  0  0  0  0  0  0
    2.4474   -3.5412    5.8963 H   0  0  0  1  0  0  0  0  0  0  0  0
    1.3008   -2.0910    5.1089 N   0  0  0  1  0  0  0  0  0  0  0  0
    1.2310   -0.7592    5.0878 C   0  0  0  1  0  0  0  0  0  0  0  0
  1  2  1  0  0  0  0
  1  3  1  0  0  0  0
  1  4  2  0  0  0  0
  1  8  1  0  0  0  0
  5  6  1  0  0  0  0
  5  7  2  0  0  0  0
  5  8  1  0  0  0  0
  5 12  1  0  0  0  0
  9 10  2  0  0  0  0
  9 11  1  0  0  0  0
  9 12  1  0  0  0  0
  9 13  1  0  0  0  0
 13 14  1  0  0  0  0
 14 15  1  0  0  0  0
 14 16  1  0  0  0  0
 14 17  1  0  0  0  0
 17 18  1  0  0  0  0
 17 19  1  0  0  0  0
 17 20  1  0  0  0  0
 19 28  1  0  0  0  0
 20 21  1  0  0  0  0
 20 22  1  0  0  0  0
 20 24  1  0  0  0  0
 22 23  1  0  0  0  0
 24 25  1  0  0  0  0
 24 26  1  0  0  0  0
 24 28  1  0  0  0  0
 26 27  1  0  0  0  0
 28 29  1  0  0  0  0
 28 30  1  0  0  0  0
 30 31  1  0  0  0  0
 30 43  1  0  0  0  0
 31 32  1  0  0  0  0
 31 33  2  0  0  0  0
 33 34  1  0  0  0  0
 34 35  1  0  0  0  0
 34 43  2  0  0  0  0
 35 36  1  0  0  0  0
 35 39  2  0  0  0  0
 36 37  1  0  0  0  0
 36 38  1  0  0  0  0
 39 40  1  0  0  0  0
 40 41  1  0  0  0  0
 40 42  2  0  0  0  0
 42 43  1  0  0  0  0
M  BCL ATM P_TeTeTeTePi O_Te2Te2TeTe O_Te2Te2Te2Te O_Tr2Tr2TrPi P_TeTeTeTePi O_Te2Te2TeTe O_Tr2Tr2TrPi O_Tr2TrTrPi2 P_TeTeTeTePi O_Tr2Tr2TrPi O_Te2Te2Te2Te O_Tr2TrTrPi2 O_Tr2TrTrPi2 C_TeTeTeTe H_S H_S C_TeTeTeTe H_S O_Te2Te2TeTe C_TeTeTeTe H_S O_Te2Te2TeTe H_S C_TeTeTeTe H_S O_Te2Te2TeTe H_S C_TeTeTeTe H_S N_TrTrTrPi2 C_TrTrTrPi H_S N_Tr2TrTrPi C_TrTrTrPi C_TrTrTrPi N_TrTrTrPi2 H_S H_S N_Tr2TrTrPi C_TrTrTrPi H_S N_Tr2TrTrPi C_TrTrTrPi
M  BCL BND ConjugatedSingleBond ConjugatedSingleBond ConjugatedDoubleBond ConjugatedSingleBond ConjugatedSingleBond ConjugatedDoubleBond ConjugatedSingleBond ConjugatedSingleBond ConjugatedDoubleBond ConjugatedSingleBond ConjugatedSingleBond ConjugatedSingleBond NonConjugatedSingleBond NonConjugatedSingleBond NonConjugatedSingleBond NonConjugatedSingleBond NonConjugatedSingleBond NonConjugatedSingleBondInRing NonConjugatedSingleBondInRing NonConjugatedSingleBondInRing NonConjugatedSingleBond NonConjugatedSingleBond NonConjugatedSingleBondInRing NonConjugatedSingleBond NonConjugatedSingleBond NonConjugatedSingleBond NonConjugatedSingleBondInRing NonConjugatedSingleBond NonConjugatedSingleBond NonConjugatedSingleBond AromaticSingleBond AromaticSingleBond NonConjugatedSingleBond AromaticDoubleBond AromaticSingleBond AromaticSingleBond AromaticDoubleBond ConjugatedSingleBond AromaticDoubleBond NonConjugatedSingleBond NonConjugatedSingleBond AromaticSingleBond NonConjugatedSingleBond AromaticDoubleBond AromaticSingleBond
M  BCL CHI   1   S   5   S   9   S  17   R  20   S  24   R  28   S
M  BCL DBI - - - - - - -
M  END
> <ConfClashScore>
0 

> <ConfOneFourInteractionScore>
-0.979313 

> <ConfScore>
0.0759382 

> <ConfScorePBest>
0.00634346 

> <ConfTolerance>
1.50321 

$$$$
ATP.****
  PyMOL2.5          3D                             0

 43 45  0  0  0  0  0  0  0  0999 V2000
   -1.8960   -4.1059   -5.2035 P   0  0  0  1  0  0  0  0  0  0  0  0
   -1.2118   -5.4339   -4.5270 O   0  0  0  0  0  0  0  0  0  0  0  0
   -3.4883   -4.3500   -5.3754 O   0  5  0  1  0  0  0  0  0  0  0  0
   -1.3149   -3.6916   -6.5001 O   0  0  0  1  0  0  0  0  0  0  0  0
   -3.0093   -2.2786   -3.1922 P   0  0  0  1  0  0  0  0  0  0  0  0
   -4.2325   -1.8653   -3.9539 O   0  0  0  0  0  0  0  0  0  0  0  0
   -3.2221   -3.1436   -2.0187 O   0  0  0  1  0  0  0  0  0  0  0  0
   -1.8627   -2.9533   -4.0847 O   0  0  0  1  0  0  0  0  0  0  0  0
   -2.7904    0.4351   -2.1504 P   0  0  0  1  0  0  0  0  0  0  0  0
   -4.1593    0.6713   -2.6609 O   0  0  0  1  0  0  0  0  0  0  0  0
   -1.4366    1.2900   -2.3973 O   0  5  0  1  0  0  0  0  0  0  0  0
   -2.2333   -1.0004   -2.6131 O   0  0  0  1  0  0  0  0  0  0  0  0
   -2.7733    0.2236   -0.5912 O   0  0  0  1  0  0  0  0  0  0  0  0
   -1.5201    0.1252    0.1320 C   0  0  0  1  0  0  0  0  0  0  0  0
   -1.0579    1.0895    0.1689 H   0  0  0  1  0  0  0  0  0  0  0  0
   -0.8742   -0.5614   -0.3742 H   0  0  0  1  0  0  0  0  0  0  0  0
   -1.7619   -0.3663    1.5443 C   0  0  0  1  0  0  0  0  0  0  0  0
   -2.1883   -1.3472    1.5131 H   0  0  0  1  0  0  0  0  0  0  0  0
   -0.5306   -0.3706    2.2993 O   0  0  0  1  0  0  0  0  0  0  0  0
   -2.6882    0.6053    2.3071 C   0  0  0  1  0  0  0  0  0  0  0  0
   -2.6395    1.5870    1.8844 H   0  0  0  1  0  0  0  0  0  0  0  0
   -4.0391    0.1420    2.2827 O   0  0  0  1  0  0  0  0  0  0  0  0
   -4.6318    0.8886    2.1687 H   0  0  0  1  0  0  0  0  0  0  0  0
   -2.1326    0.6012    3.7505 C   0  0  0  1  0  0  0  0  0  0  0  0
   -1.8131    1.5811    4.0380 H   0  0  0  1  0  0  0  0  0  0  0  0
   -3.1173    0.1312    4.6723 O   0  0  0  1  0  0  0  0  0  0  0  0
   -3.0780   -0.8267    4.7225 H   0  0  0  1  0  0  0  0  0  0  0  0
   -0.9336   -0.3701    3.6853 C   0  0  0  1  0  0  0  0  0  0  0  0
   -1.2278   -1.3521    3.9919 H   0  0  0  1  0  0  0  0  0  0  0  0
    0.1568    0.1012    4.5376 N   0  0  0  1  0  0  0  0  0  0  0  0
    1.0539    1.0642    4.1905 C   0  0  0  1  0  0  0  0  0  0  0  0
    1.0233    1.5521    3.2725 H   0  0  0  1  0  0  0  0  0  0  0  0
    1.9554    1.3293    5.0964 N   0  0  0  1  0  0  0  0  0  0  0  0
    1.6273    0.4776    6.1398 C   0  0  0  1  0  0  0  0  0  0  0  0
    2.1694    0.2303    7.3976 C   0  0  0  1  0  0  0  0  0  0  0  0
    3.2719    0.8861    7.8784 N   0  0  0  1  0  0  0  0  0  0  0  0
    3.7067    1.5767    7.3357 H   0  0  0  1  0  0  0  0  0  0  0  0
    3.6257    0.6648    8.7651 H   0  0  0  1  0  0  0  0  0  0  0  0
    1.6068   -0.6854    8.1936 N   0  0  0  1  0  0  0  0  0  0  0  0
    0.5341   -1.3472    7.7316 C   0  0  0  1  0  0  0  0  0  0  0  0
    0.1285   -2.0535    8.3784 H   0  0  0  1  0  0  0  0  0  0  0  0
   -0.0786   -1.2220    6.5608 N   0  0  0  1  0  0  0  0  0  0  0  0
    0.5060   -0.2927    5.8036 C   0  0  0  1  0  0  0  0  0  0  0  0
  1  2  1  0  0  0  0
  1  3  1  0  0  0  0
  1  4  2  0  0  0  0
  1  8  1  0  0  0  0
  5  6  1  0  0  0  0
  5  7  2  0  0  0  0
  5  8  1  0  0  0  0
  5 12  1  0  0  0  0
  9 10  2  0  0  0  0
  9 11  1  0  0  0  0
  9 12  1  0  0  0  0
  9 13  1  0  0  0  0
 13 14  1  0  0  0  0
 14 15  1  0  0  0  0
 14 16  1  0  0  0  0
 14 17  1  0  0  0  0
 17 18  1  0  0  0  0
 17 19  1  0  0  0  0
 17 20  1  0  0  0  0
 19 28  1  0  0  0  0
 20 21  1  0  0  0  0
 20 22  1  0  0  0  0
 20 24  1  0  0  0  0
 22 23  1  0  0  0  0
 24 25  1  0  0  0  0
 24 26  1  0  0  0  0
 24 28  1  0  0  0  0
 26 27  1  0  0  0  0
 28 29  1  0  0  0  0
 28 30  1  0  0  0  0
 30 31  1  0  0  0  0
 30 43  1  0  0  0  0
 31 32  1  0  0  0  0
 31 33  2  0  0  0  0
 33 34  1  0  0  0  0
 34 35  1  0  0  0  0
 34 43  2  0  0  0  0
 35 36  1  0  0  0  0
 35 39  2  0  0  0  0
 36 37  1  0  0  0  0
 36 38  1  0  0  0  0
 39 40  1  0  0  0  0
 40 41  1  0  0  0  0
 40 42  2  0  0  0  0
 42 43  1  0  0  0  0
M  BCL ATM P_TeTeTeTePi O_Te2Te2TeTe O_Te2Te2Te2Te O_Tr2Tr2TrPi P_TeTeTeTePi O_Te2Te2TeTe O_Tr2Tr2TrPi O_Tr2TrTrPi2 P_TeTeTeTePi O_Tr2Tr2TrPi O_Te2Te2Te2Te O_Tr2TrTrPi2 O_Tr2TrTrPi2 C_TeTeTeTe H_S H_S C_TeTeTeTe H_S O_Te2Te2TeTe C_TeTeTeTe H_S O_Te2Te2TeTe H_S C_TeTeTeTe H_S O_Te2Te2TeTe H_S C_TeTeTeTe H_S N_TrTrTrPi2 C_TrTrTrPi H_S N_Tr2TrTrPi C_TrTrTrPi C_TrTrTrPi N_TrTrTrPi2 H_S H_S N_Tr2TrTrPi C_TrTrTrPi H_S N_Tr2TrTrPi C_TrTrTrPi
M  BCL BND ConjugatedSingleBond ConjugatedSingleBond ConjugatedDoubleBond ConjugatedSingleBond ConjugatedSingleBond ConjugatedDoubleBond ConjugatedSingleBond ConjugatedSingleBond ConjugatedDoubleBond ConjugatedSingleBond ConjugatedSingleBond ConjugatedSingleBond NonConjugatedSingleBond NonConjugatedSingleBond NonConjugatedSingleBond NonConjugatedSingleBond NonConjugatedSingleBond NonConjugatedSingleBondInRing NonConjugatedSingleBondInRing NonConjugatedSingleBondInRing NonConjugatedSingleBond NonConjugatedSingleBond NonConjugatedSingleBondInRing NonConjugatedSingleBond NonConjugatedSingleBond NonConjugatedSingleBond NonConjugatedSingleBondInRing NonConjugatedSingleBond NonConjugatedSingleBond NonConjugatedSingleBond AromaticSingleBond AromaticSingleBond NonConjugatedSingleBond AromaticDoubleBond AromaticSingleBond AromaticSingleBond AromaticDoubleBond ConjugatedSingleBond AromaticDoubleBond NonConjugatedSingleBond NonConjugatedSingleBond AromaticSingleBond NonConjugatedSingleBond AromaticDoubleBond AromaticSingleBond
M  BCL CHI   1   S   5   S   9   S  17   R  20   S  24   R  28   S
M  BCL DBI - - - - - - -
M  END
> <ConfClashScore>
0 

> <ConfOneFourInteractionScore>
-0.981204 

> <ConfScore>
0.0775283 

> <ConfScorePBest>
0.00624046 

> <ConfTolerance>
1.53363 

$$$$
ATP.****
  PyMOL2.5          3D                             0

 43 45  0  0  0  0  0  0  0  0999 V2000
   -1.1192    2.4593   -4.0386 P   0  0  0  1  0  0  0  0  0  0  0  0
   -0.4544    2.1904   -2.5637 O   0  0  0  0  0  0  0  0  0  0  0  0
   -0.3718    3.6754   -4.8049 O   0  5  0  1  0  0  0  0  0  0  0  0
   -2.5650    2.7444   -3.9018 O   0  0  0  1  0  0  0  0  0  0  0  0
   -1.3616   -0.3752   -4.4025 P   0  0  0  1  0  0  0  0  0  0  0  0
   -2.7894   -0.6574   -4.7000 O   0  0  0  0  0  0  0  0  0  0  0  0
   -0.3043   -1.3067   -4.8601 O   0  0  0  1  0  0  0  0  0  0  0  0
   -0.9454    1.1058   -4.9074 O   0  0  0  1  0  0  0  0  0  0  0  0
    0.1756   -0.4012   -1.9813 P   0  0  0  1  0  0  0  0  0  0  0  0
    1.2039    0.6580   -2.0858 O   0  0  0  1  0  0  0  0  0  0  0  0
    0.6528   -1.8808   -2.4367 O   0  5  0  1  0  0  0  0  0  0  0  0
   -1.1904   -0.1413   -2.8110 O   0  0  0  1  0  0  0  0  0  0  0  0
   -0.4747   -0.7118   -0.5862 O   0  0  0  1  0  0  0  0  0  0  0  0
   -1.3746    0.2031    0.0912 C   0  0  0  1  0  0  0  0  0  0  0  0
   -2.2743    0.2998   -0.4799 H   0  0  0  1  0  0  0  0  0  0  0  0
   -0.9034    1.1596    0.1801 H   0  0  0  1  0  0  0  0  0  0  0  0
   -1.7142   -0.3155    1.4722 C   0  0  0  1  0  0  0  0  0  0  0  0
   -2.1640   -1.2829    1.3898 H   0  0  0  1  0  0  0  0  0  0  0  0
   -0.5314   -0.3731    2.2991 O   0  0  0  1  0  0  0  0  0  0  0  0
   -2.6586    0.6629    2.2034 C   0  0  0  1  0  0  0  0  0  0  0  0
   -2.5583    1.6529    1.8101 H   0  0  0  1  0  0  0  0  0  0  0  0
   -4.0175    0.2387    2.0861 O   0  0  0  1  0  0  0  0  0  0  0  0
   -4.4946    0.4664    2.8874 H   0  0  0  1  0  0  0  0  0  0  0  0
   -2.1918    0.6077    3.6769 C   0  0  0  1  0  0  0  0  0  0  0  0
   -1.8642    1.5708    4.0085 H   0  0  0  1  0  0  0  0  0  0  0  0
   -3.2426    0.1432    4.5255 O   0  0  0  1  0  0  0  0  0  0  0  0
   -2.9924   -0.6981    4.9142 H   0  0  0  1  0  0  0  0  0  0  0  0
   -1.0174   -0.3952    3.6580 C   0  0  0  1  0  0  0  0  0  0  0  0
   -1.3558   -1.3757    3.9207 H   0  0  0  1  0  0  0  0  0  0  0  0
    0.0325    0.0244    4.5869 N   0  0  0  1  0  0  0  0  0  0  0  0
    0.2515    1.2795    5.0658 C   0  0  0  1  0  0  0  0  0  0  0  0
   -0.3451    2.0901    4.8037 H   0  0  0  1  0  0  0  0  0  0  0  0
    1.2668    1.3892    5.8789 N   0  0  0  1  0  0  0  0  0  0  0  0
    1.7619    0.0968    5.9561 C   0  0  0  1  0  0  0  0  0  0  0  0
    2.8270   -0.4957    6.6281 C   0  0  0  1  0  0  0  0  0  0  0  0
    3.6359    0.1974    7.5220 N   0  0  0  1  0  0  0  0  0  0  0  0
    3.5239    1.1643    7.6359 H   0  0  0  1  0  0  0  0  0  0  0  0
    4.3180   -0.2810    8.0380 H   0  0  0  1  0  0  0  0  0  0  0  0
    3.0513   -1.8069    6.4895 N   0  0  0  1  0  0  0  0  0  0  0  0
    2.2343   -2.5036    5.6839 C   0  0  0  1  0  0  0  0  0  0  0  0
    2.4442   -3.5186    5.5994 H   0  0  0  1  0  0  0  0  0  0  0  0
    1.1947   -2.0718    4.9805 N   0  0  0  1  0  0  0  0  0  0  0  0
    0.9993   -0.7641    5.1554 C   0  0  0  1  0  0  0  0  0  0  0  0
  1  2  1  0  0  0  0
  1  3  1  0  0  0  0
  1  4  2  0  0  0  0
  1  8  1  0  0  0  0
  5  6  1  0  0  0  0
  5  7  2  0  0  0  0
  5  8  1  0  0  0  0
  5 12  1  0  0  0  0
  9 10  2  0  0  0  0
  9 11  1  0  0  0  0
  9 12  1  0  0  0  0
  9 13  1  0  0  0  0
 13 14  1  0  0  0  0
 14 15  1  0  0  0  0
 14 16  1  0  0  0  0
 14 17  1  0  0  0  0
 17 18  1  0  0  0  0
 17 19  1  0  0  0  0
 17 20  1  0  0  0  0
 19 28  1  0  0  0  0
 20 21  1  0  0  0  0
 20 22  1  0  0  0  0
 20 24  1  0  0  0  0
 22 23  1  0  0  0  0
 24 25  1  0  0  0  0
 24 26  1  0  0  0  0
 24 28  1  0  0  0  0
 26 27  1  0  0  0  0
 28 29  1  0  0  0  0
 28 30  1  0  0  0  0
 30 31  1  0  0  0  0
 30 43  1  0  0  0  0
 31 32  1  0  0  0  0
 31 33  2  0  0  0  0
 33 34  1  0  0  0  0
 34 35  1  0  0  0  0
 34 43  2  0  0  0  0
 35 36  1  0  0  0  0
 35 39  2  0  0  0  0
 36 37  1  0  0  0  0
 36 38  1  0  0  0  0
 39 40  1  0  0  0  0
 40 41  1  0  0  0  0
 40 42  2  0  0  0  0
 42 43  1  0  0  0  0
M  BCL ATM P_TeTeTeTePi O_Te2Te2TeTe O_Te2Te2Te2Te O_Tr2Tr2TrPi P_TeTeTeTePi O_Te2Te2TeTe O_Tr2Tr2TrPi O_Tr2TrTrPi2 P_TeTeTeTePi O_Tr2Tr2TrPi O_Te2Te2Te2Te O_Tr2TrTrPi2 O_Tr2TrTrPi2 C_TeTeTeTe H_S H_S C_TeTeTeTe H_S O_Te2Te2TeTe C_TeTeTeTe H_S O_Te2Te2TeTe H_S C_TeTeTeTe H_S O_Te2Te2TeTe H_S C_TeTeTeTe H_S N_TrTrTrPi2 C_TrTrTrPi H_S N_Tr2TrTrPi C_TrTrTrPi C_TrTrTrPi N_TrTrTrPi2 H_S H_S N_Tr2TrTrPi C_TrTrTrPi H_S N_Tr2TrTrPi C_TrTrTrPi
M  BCL BND ConjugatedSingleBond ConjugatedSingleBond ConjugatedDoubleBond ConjugatedSingleBond ConjugatedSingleBond ConjugatedDoubleBond ConjugatedSingleBond ConjugatedSingleBond ConjugatedDoubleBond ConjugatedSingleBond ConjugatedSingleBond ConjugatedSingleBond NonConjugatedSingleBond NonConjugatedSingleBond NonConjugatedSingleBond NonConjugatedSingleBond NonConjugatedSingleBond NonConjugatedSingleBondInRing NonConjugatedSingleBondInRing NonConjugatedSingleBondInRing NonConjugatedSingleBond NonConjugatedSingleBond NonConjugatedSingleBondInRing NonConjugatedSingleBond NonConjugatedSingleBond NonConjugatedSingleBond NonConjugatedSingleBondInRing NonConjugatedSingleBond NonConjugatedSingleBond NonConjugatedSingleBond AromaticSingleBond AromaticSingleBond NonConjugatedSingleBond AromaticDoubleBond AromaticSingleBond AromaticSingleBond AromaticDoubleBond ConjugatedSingleBond AromaticDoubleBond NonConjugatedSingleBond NonConjugatedSingleBond AromaticSingleBond NonConjugatedSingleBond AromaticDoubleBond AromaticSingleBond
M  BCL CHI   1   S   5   S   9   S  17   R  20   S  24   R  28   S
M  BCL DBI - - - - - - -
M  END
> <ConfClashScore>
0 

> <ConfOneFourInteractionScore>
-0.974492 

> <ConfScore>
0.0779109 

> <ConfScorePBest>
0.00613746 

> <ConfTolerance>
1.67219 

$$$$
ATP.****
  PyMOL2.5          3D                             0

 43 45  0  0  0  0  0  0  0  0999 V2000
   -2.5441    3.3191   -5.5577 P   0  0  0  1  0  0  0  0  0  0  0  0
   -1.4947    4.0899   -6.5548 O   0  0  0  0  0  0  0  0  0  0  0  0
   -2.1250    1.7711   -5.7862 O   0  5  0  1  0  0  0  0  0  0  0  0
   -3.9437    3.5589   -5.9749 O   0  0  0  1  0  0  0  0  0  0  0  0
   -2.8945    3.4249   -2.5839 P   0  0  0  1  0  0  0  0  0  0  0  0
   -3.3342    4.6619   -1.8603 O   0  0  0  0  0  0  0  0  0  0  0  0
   -3.9454    2.3768   -2.7847 O   0  0  0  1  0  0  0  0  0  0  0  0
   -2.2793    3.7571   -4.0250 O   0  0  0  1  0  0  0  0  0  0  0  0
   -1.3520    2.9255   -0.2662 P   0  0  0  1  0  0  0  0  0  0  0  0
   -2.5808    3.3500    0.4410 O   0  0  0  1  0  0  0  0  0  0  0  0
   -0.2612    4.1053   -0.0600 O   0  5  0  1  0  0  0  0  0  0  0  0
   -1.6034    2.7785   -1.8544 O   0  0  0  1  0  0  0  0  0  0  0  0
   -0.7645    1.5499    0.1985 O   0  0  0  1  0  0  0  0  0  0  0  0
   -1.4457    0.2730    0.1051 C   0  0  0  1  0  0  0  0  0  0  0  0
   -0.8109   -0.4293   -0.3937 H   0  0  0  1  0  0  0  0  0  0  0  0
   -2.3501    0.3962   -0.4533 H   0  0  0  1  0  0  0  0  0  0  0  0
   -1.7789   -0.2489    1.4828 C   0  0  0  1  0  0  0  0  0  0  0  0
   -2.2903   -1.1847    1.3962 H   0  0  0  1  0  0  0  0  0  0  0  0
   -0.5801   -0.3956    2.2749 O   0  0  0  1  0  0  0  0  0  0  0  0
   -2.6402    0.7719    2.2574 C   0  0  0  1  0  0  0  0  0  0  0  0
   -2.4888    1.7612    1.8788 H   0  0  0  1  0  0  0  0  0  0  0  0
   -4.0256    0.4352    2.1709 O   0  0  0  1  0  0  0  0  0  0  0  0
   -4.2444   -0.1999    2.8568 H   0  0  0  1  0  0  0  0  0  0  0  0
   -2.1380    0.6595    3.7159 C   0  0  0  1  0  0  0  0  0  0  0  0
   -1.7420    1.5939    4.0550 H   0  0  0  1  0  0  0  0  0  0  0  0
   -3.1925    0.2449    4.5855 O   0  0  0  1  0  0  0  0  0  0  0  0
   -3.1967   -0.7129    4.6502 H   0  0  0  1  0  0  0  0  0  0  0  0
   -1.0296   -0.4137    3.6464 C   0  0  0  1  0  0  0  0  0  0  0  0
   -1.4214   -1.3762    3.9013 H   0  0  0  1  0  0  0  0  0  0  0  0
    0.0692   -0.0780    4.5525 N   0  0  0  1  0  0  0  0  0  0  0  0
    0.3990   -0.7094    5.7124 C   0  0  0  1  0  0  0  0  0  0  0  0
   -0.1259   -1.5331    6.0695 H   0  0  0  1  0  0  0  0  0  0  0  0
    1.4238   -0.2031    6.3428 N   0  0  0  1  0  0  0  0  0  0  0  0
    1.8166    0.8496    5.5309 C   0  0  0  1  0  0  0  0  0  0  0  0
    2.8228    1.8083    5.6040 C   0  0  0  1  0  0  0  0  0  0  0  0
    3.7595    1.9239    6.6253 N   0  0  0  1  0  0  0  0  0  0  0  0
    4.5023    2.5575    6.5396 H   0  0  0  1  0  0  0  0  0  0  0  0
    3.6769    1.3719    7.4308 H   0  0  0  1  0  0  0  0  0  0  0  0
    2.9418    2.7200    4.6328 N   0  0  0  1  0  0  0  0  0  0  0  0
    2.0620    2.6788    3.6197 C   0  0  0  1  0  0  0  0  0  0  0  0
    2.1853    3.4067    2.8871 H   0  0  0  1  0  0  0  0  0  0  0  0
    1.0560    1.8346    3.4267 N   0  0  0  1  0  0  0  0  0  0  0  0
    0.9799    0.9369    4.4102 C   0  0  0  1  0  0  0  0  0  0  0  0
  1  2  1  0  0  0  0
  1  3  1  0  0  0  0
  1  4  2  0  0  0  0
  1  8  1  0  0  0  0
  5  6  1  0  0  0  0
  5  7  2  0  0  0  0
  5  8  1  0  0  0  0
  5 12  1  0  0  0  0
  9 10  2  0  0  0  0
  9 11  1  0  0  0  0
  9 12  1  0  0  0  0
  9 13  1  0  0  0  0
 13 14  1  0  0  0  0
 14 15  1  0  0  0  0
 14 16  1  0  0  0  0
 14 17  1  0  0  0  0
 17 18  1  0  0  0  0
 17 19  1  0  0  0  0
 17 20  1  0  0  0  0
 19 28  1  0  0  0  0
 20 21  1  0  0  0  0
 20 22  1  0  0  0  0
 20 24  1  0  0  0  0
 22 23  1  0  0  0  0
 24 25  1  0  0  0  0
 24 26  1  0  0  0  0
 24 28  1  0  0  0  0
 26 27  1  0  0  0  0
 28 29  1  0  0  0  0
 28 30  1  0  0  0  0
 30 31  1  0  0  0  0
 30 43  1  0  0  0  0
 31 32  1  0  0  0  0
 31 33  2  0  0  0  0
 33 34  1  0  0  0  0
 34 35  1  0  0  0  0
 34 43  2  0  0  0  0
 35 36  1  0  0  0  0
 35 39  2  0  0  0  0
 36 37  1  0  0  0  0
 36 38  1  0  0  0  0
 39 40  1  0  0  0  0
 40 41  1  0  0  0  0
 40 42  2  0  0  0  0
 42 43  1  0  0  0  0
M  BCL ATM P_TeTeTeTePi O_Te2Te2TeTe O_Te2Te2Te2Te O_Tr2Tr2TrPi P_TeTeTeTePi O_Te2Te2TeTe O_Tr2Tr2TrPi O_Tr2TrTrPi2 P_TeTeTeTePi O_Tr2Tr2TrPi O_Te2Te2Te2Te O_Tr2TrTrPi2 O_Tr2TrTrPi2 C_TeTeTeTe H_S H_S C_TeTeTeTe H_S O_Te2Te2TeTe C_TeTeTeTe H_S O_Te2Te2TeTe H_S C_TeTeTeTe H_S O_Te2Te2TeTe H_S C_TeTeTeTe H_S N_TrTrTrPi2 C_TrTrTrPi H_S N_Tr2TrTrPi C_TrTrTrPi C_TrTrTrPi N_TrTrTrPi2 H_S H_S N_Tr2TrTrPi C_TrTrTrPi H_S N_Tr2TrTrPi C_TrTrTrPi
M  BCL BND ConjugatedSingleBond ConjugatedSingleBond ConjugatedDoubleBond ConjugatedSingleBond ConjugatedSingleBond ConjugatedDoubleBond ConjugatedSingleBond ConjugatedSingleBond ConjugatedDoubleBond ConjugatedSingleBond ConjugatedSingleBond ConjugatedSingleBond NonConjugatedSingleBond NonConjugatedSingleBond NonConjugatedSingleBond NonConjugatedSingleBond NonConjugatedSingleBond NonConjugatedSingleBondInRing NonConjugatedSingleBondInRing NonConjugatedSingleBondInRing NonConjugatedSingleBond NonConjugatedSingleBond NonConjugatedSingleBondInRing NonConjugatedSingleBond NonConjugatedSingleBond NonConjugatedSingleBond NonConjugatedSingleBondInRing NonConjugatedSingleBond NonConjugatedSingleBond NonConjugatedSingleBond AromaticSingleBond AromaticSingleBond NonConjugatedSingleBond AromaticDoubleBond AromaticSingleBond AromaticSingleBond AromaticDoubleBond ConjugatedSingleBond AromaticDoubleBond NonConjugatedSingleBond NonConjugatedSingleBond AromaticSingleBond NonConjugatedSingleBond AromaticDoubleBond AromaticSingleBond
M  BCL CHI   1   S   5   S   9   S  17   R  20   S  24   R  28   S
M  BCL DBI - - - - - - -
M  END
> <ConfClashScore>
0 

> <ConfOneFourInteractionScore>
-0.983395 

> <ConfScore>
0.079388 

> <ConfScorePBest>
0.00603446 

> <ConfTolerance>
1.63726 

$$$$
ATP.****
  PyMOL2.5          3D                             0

 43 45  0  0  0  0  0  0  0  0999 V2000
   -8.2849   -1.0319   -1.3218 P   0  0  0  1  0  0  0  0  0  0  0  0
   -9.1552   -0.1692   -0.2318 O   0  0  0  0  0  0  0  0  0  0  0  0
   -9.2027   -1.1895   -2.6474 O   0  5  0  1  0  0  0  0  0  0  0  0
   -8.0425   -2.4095   -0.8380 O   0  0  0  1  0  0  0  0  0  0  0  0
   -5.4517   -0.4827   -1.2639 P   0  0  0  1  0  0  0  0  0  0  0  0
   -5.2523   -0.2731    0.1889 O   0  0  0  0  0  0  0  0  0  0  0  0
   -5.1631   -1.8131   -1.8415 O   0  0  0  1  0  0  0  0  0  0  0  0
   -6.9767   -0.1578   -1.6498 O   0  0  0  1  0  0  0  0  0  0  0  0
   -3.1599    1.2233   -1.6759 P   0  0  0  1  0  0  0  0  0  0  0  0
   -3.2346    2.5394   -1.0030 O   0  0  0  1  0  0  0  0  0  0  0  0
   -2.3142    1.1862   -3.0572 O   0  5  0  1  0  0  0  0  0  0  0  0
   -4.6223    0.6609   -2.0303 O   0  0  0  1  0  0  0  0  0  0  0  0
   -2.5323    0.1171   -0.7552 O   0  0  0  1  0  0  0  0  0  0  0  0
   -1.3740    0.3492    0.0876 C   0  0  0  1  0  0  0  0  0  0  0  0
   -1.2152    1.4006    0.2071 H   0  0  0  1  0  0  0  0  0  0  0  0
   -0.5068   -0.0950   -0.3545 H   0  0  0  1  0  0  0  0  0  0  0  0
   -1.6496   -0.2863    1.4323 C   0  0  0  1  0  0  0  0  0  0  0  0
   -2.0139   -1.2821    1.2889 H   0  0  0  1  0  0  0  0  0  0  0  0
   -0.4562   -0.2933    2.2459 O   0  0  0  1  0  0  0  0  0  0  0  0
   -2.6671    0.5549    2.2331 C   0  0  0  1  0  0  0  0  0  0  0  0
   -2.6587    1.5735    1.9057 H   0  0  0  1  0  0  0  0  0  0  0  0
   -3.9849    0.0211    2.0967 O   0  0  0  1  0  0  0  0  0  0  0  0
   -4.4951    0.2219    2.8846 H   0  0  0  1  0  0  0  0  0  0  0  0
   -2.1790    0.4446    3.6965 C   0  0  0  1  0  0  0  0  0  0  0  0
   -1.9331    1.4091    4.0892 H   0  0  0  1  0  0  0  0  0  0  0  0
   -3.1746   -0.1654    4.5192 O   0  0  0  1  0  0  0  0  0  0  0  0
   -3.5666    0.4973    5.0926 H   0  0  0  1  0  0  0  0  0  0  0  0
   -0.9216   -0.4473    3.6035 C   0  0  0  1  0  0  0  0  0  0  0  0
   -1.1695   -1.4690    3.8027 H   0  0  0  1  0  0  0  0  0  0  0  0
    0.0988    0.0015    4.5513 N   0  0  0  1  0  0  0  0  0  0  0  0
    0.7590    1.1918    4.5454 C   0  0  0  1  0  0  0  0  0  0  0  0
    0.6771    1.8728    3.7636 H   0  0  0  1  0  0  0  0  0  0  0  0
    1.5027    1.4142    5.5948 N   0  0  0  1  0  0  0  0  0  0  0  0
    1.3165    0.2807    6.3708 C   0  0  0  1  0  0  0  0  0  0  0  0
    1.8110   -0.1460    7.5998 C   0  0  0  1  0  0  0  0  0  0  0  0
    2.6979    0.5596    8.4057 N   0  0  0  1  0  0  0  0  0  0  0  0
    3.0582    1.4190    8.1024 H   0  0  0  1  0  0  0  0  0  0  0  0
    2.9626    0.1973    9.2770 H   0  0  0  1  0  0  0  0  0  0  0  0
    1.4310   -1.3298    8.0925 N   0  0  0  1  0  0  0  0  0  0  0  0
    0.5859   -2.0738    7.3616 C   0  0  0  1  0  0  0  0  0  0  0  0
    0.3178   -2.9888    7.7769 H   0  0  0  1  0  0  0  0  0  0  0  0
    0.0463   -1.7994    6.1803 N   0  0  0  1  0  0  0  0  0  0  0  0
    0.4416   -0.6075    5.7309 C   0  0  0  1  0  0  0  0  0  0  0  0
  1  2  1  0  0  0  0
  1  3  1  0  0  0  0
  1  4  2  0  0  0  0
  1  8  1  0  0  0  0
  5  6  1  0  0  0  0
  5  7  2  0  0  0  0
  5  8  1  0  0  0  0
  5 12  1  0  0  0  0
  9 10  2  0  0  0  0
  9 11  1  0  0  0  0
  9 12  1  0  0  0  0
  9 13  1  0  0  0  0
 13 14  1  0  0  0  0
 14 15  1  0  0  0  0
 14 16  1  0  0  0  0
 14 17  1  0  0  0  0
 17 18  1  0  0  0  0
 17 19  1  0  0  0  0
 17 20  1  0  0  0  0
 19 28  1  0  0  0  0
 20 21  1  0  0  0  0
 20 22  1  0  0  0  0
 20 24  1  0  0  0  0
 22 23  1  0  0  0  0
 24 25  1  0  0  0  0
 24 26  1  0  0  0  0
 24 28  1  0  0  0  0
 26 27  1  0  0  0  0
 28 29  1  0  0  0  0
 28 30  1  0  0  0  0
 30 31  1  0  0  0  0
 30 43  1  0  0  0  0
 31 32  1  0  0  0  0
 31 33  2  0  0  0  0
 33 34  1  0  0  0  0
 34 35  1  0  0  0  0
 34 43  2  0  0  0  0
 35 36  1  0  0  0  0
 35 39  2  0  0  0  0
 36 37  1  0  0  0  0
 36 38  1  0  0  0  0
 39 40  1  0  0  0  0
 40 41  1  0  0  0  0
 40 42  2  0  0  0  0
 42 43  1  0  0  0  0
M  BCL ATM P_TeTeTeTePi O_Te2Te2TeTe O_Te2Te2Te2Te O_Tr2Tr2TrPi P_TeTeTeTePi O_Te2Te2TeTe O_Tr2Tr2TrPi O_Tr2TrTrPi2 P_TeTeTeTePi O_Tr2Tr2TrPi O_Te2Te2Te2Te O_Tr2TrTrPi2 O_Tr2TrTrPi2 C_TeTeTeTe H_S H_S C_TeTeTeTe H_S O_Te2Te2TeTe C_TeTeTeTe H_S O_Te2Te2TeTe H_S C_TeTeTeTe H_S O_Te2Te2TeTe H_S C_TeTeTeTe H_S N_TrTrTrPi2 C_TrTrTrPi H_S N_Tr2TrTrPi C_TrTrTrPi C_TrTrTrPi N_TrTrTrPi2 H_S H_S N_Tr2TrTrPi C_TrTrTrPi H_S N_Tr2TrTrPi C_TrTrTrPi
M  BCL BND ConjugatedSingleBond ConjugatedSingleBond ConjugatedDoubleBond ConjugatedSingleBond ConjugatedSingleBond ConjugatedDoubleBond ConjugatedSingleBond ConjugatedSingleBond ConjugatedDoubleBond ConjugatedSingleBond ConjugatedSingleBond ConjugatedSingleBond NonConjugatedSingleBond NonConjugatedSingleBond NonConjugatedSingleBond NonConjugatedSingleBond NonConjugatedSingleBond NonConjugatedSingleBondInRing NonConjugatedSingleBondInRing NonConjugatedSingleBondInRing NonConjugatedSingleBond NonConjugatedSingleBond NonConjugatedSingleBondInRing NonConjugatedSingleBond NonConjugatedSingleBond NonConjugatedSingleBond NonConjugatedSingleBondInRing NonConjugatedSingleBond NonConjugatedSingleBond NonConjugatedSingleBond AromaticSingleBond AromaticSingleBond NonConjugatedSingleBond AromaticDoubleBond AromaticSingleBond AromaticSingleBond AromaticDoubleBond ConjugatedSingleBond AromaticDoubleBond NonConjugatedSingleBond NonConjugatedSingleBond AromaticSingleBond NonConjugatedSingleBond AromaticDoubleBond AromaticSingleBond
M  BCL CHI   1   S   5   S   9   S  17   R  20   S  24   R  28   S
M  BCL DBI - - - - - - -
M  END
> <ConfClashScore>
0 

> <ConfOneFourInteractionScore>
-0.98787 

> <ConfScore>
0.0796997 

> <ConfScorePBest>
0.00593146 

> <ConfTolerance>
1.90315 

$$$$
ATP.****
  PyMOL2.5          3D                             0

 43 45  0  0  0  0  0  0  0  0999 V2000
   -5.1767    3.6210    1.9220 P   0  0  0  1  0  0  0  0  0  0  0  0
   -4.3028    4.1669    3.1979 O   0  0  0  0  0  0  0  0  0  0  0  0
   -6.2308    4.8106    1.6087 O   0  5  0  1  0  0  0  0  0  0  0  0
   -5.8732    2.3692    2.2937 O   0  0  0  1  0  0  0  0  0  0  0  0
   -3.1966    4.3725   -0.1199 P   0  0  0  1  0  0  0  0  0  0  0  0
   -3.9921    5.2497   -1.0120 O   0  0  0  0  0  0  0  0  0  0  0  0
   -2.3278    4.9890    0.8957 O   0  0  0  1  0  0  0  0  0  0  0  0
   -4.1809    3.3869    0.6832 O   0  0  0  1  0  0  0  0  0  0  0  0
   -0.8894    2.7726   -0.7904 P   0  0  0  1  0  0  0  0  0  0  0  0
   -0.0058    3.9200   -0.4853 O   0  0  0  1  0  0  0  0  0  0  0  0
   -0.5315    1.9762   -2.1550 O   0  5  0  1  0  0  0  0  0  0  0  0
   -2.3546    3.3746   -1.0571 O   0  0  0  1  0  0  0  0  0  0  0  0
   -0.9764    1.7114    0.3681 O   0  0  0  1  0  0  0  0  0  0  0  0
   -1.5884    0.4147    0.1449 C   0  0  0  1  0  0  0  0  0  0  0  0
   -0.9424   -0.1953   -0.4513 H   0  0  0  1  0  0  0  0  0  0  0  0
   -2.5267    0.5359   -0.3549 H   0  0  0  1  0  0  0  0  0  0  0  0
   -1.8038   -0.2299    1.4953 C   0  0  0  1  0  0  0  0  0  0  0  0
   -2.2280   -1.2032    1.3629 H   0  0  0  1  0  0  0  0  0  0  0  0
   -0.5594   -0.3121    2.2241 O   0  0  0  1  0  0  0  0  0  0  0  0
   -2.7191    0.6470    2.3767 C   0  0  0  1  0  0  0  0  0  0  0  0
   -2.6805    1.6697    2.0645 H   0  0  0  1  0  0  0  0  0  0  0  0
   -4.0694    0.1830    2.3241 O   0  0  0  1  0  0  0  0  0  0  0  0
   -4.2015   -0.3286    1.5226 H   0  0  0  1  0  0  0  0  0  0  0  0
   -2.1385    0.4857    3.8011 C   0  0  0  1  0  0  0  0  0  0  0  0
   -1.8167    1.4292    4.1898 H   0  0  0  1  0  0  0  0  0  0  0  0
   -3.1057   -0.0880    4.6818 O   0  0  0  1  0  0  0  0  0  0  0  0
   -3.2400    0.4942    5.4333 H   0  0  0  1  0  0  0  0  0  0  0  0
   -0.9382   -0.4669    3.6083 C   0  0  0  1  0  0  0  0  0  0  0  0
   -1.2244   -1.4782    3.8092 H   0  0  0  1  0  0  0  0  0  0  0  0
    0.1685   -0.0869    4.4911 N   0  0  0  1  0  0  0  0  0  0  0  0
    1.4673   -0.4805    4.3865 C   0  0  0  1  0  0  0  0  0  0  0  0
    1.8170   -1.0483    3.5885 H   0  0  0  1  0  0  0  0  0  0  0  0
    2.2408   -0.0917    5.3634 N   0  0  0  1  0  0  0  0  0  0  0  0
    1.3886    0.6297    6.1849 C   0  0  0  1  0  0  0  0  0  0  0  0
    1.5456    1.3067    7.3907 C   0  0  0  1  0  0  0  0  0  0  0  0
    2.7607    1.3523    8.0098 N   0  0  0  1  0  0  0  0  0  0  0  0
    2.8792    1.8952    8.8171 H   0  0  0  1  0  0  0  0  0  0  0  0
    3.5148    0.8422    7.6473 H   0  0  0  1  0  0  0  0  0  0  0  0
    0.4958    1.9191    7.9489 N   0  0  0  1  0  0  0  0  0  0  0  0
   -0.6868    1.8409    7.3185 C   0  0  0  1  0  0  0  0  0  0  0  0
   -1.4788    2.3262    7.7863 H   0  0  0  1  0  0  0  0  0  0  0  0
   -0.9818    1.2279    6.1787 N   0  0  0  1  0  0  0  0  0  0  0  0
    0.0932    0.6409    5.6506 C   0  0  0  1  0  0  0  0  0  0  0  0
  1  2  1  0  0  0  0
  1  3  1  0  0  0  0
  1  4  2  0  0  0  0
  1  8  1  0  0  0  0
  5  6  1  0  0  0  0
  5  7  2  0  0  0  0
  5  8  1  0  0  0  0
  5 12  1  0  0  0  0
  9 10  2  0  0  0  0
  9 11  1  0  0  0  0
  9 12  1  0  0  0  0
  9 13  1  0  0  0  0
 13 14  1  0  0  0  0
 14 15  1  0  0  0  0
 14 16  1  0  0  0  0
 14 17  1  0  0  0  0
 17 18  1  0  0  0  0
 17 19  1  0  0  0  0
 17 20  1  0  0  0  0
 19 28  1  0  0  0  0
 20 21  1  0  0  0  0
 20 22  1  0  0  0  0
 20 24  1  0  0  0  0
 22 23  1  0  0  0  0
 24 25  1  0  0  0  0
 24 26  1  0  0  0  0
 24 28  1  0  0  0  0
 26 27  1  0  0  0  0
 28 29  1  0  0  0  0
 28 30  1  0  0  0  0
 30 31  1  0  0  0  0
 30 43  1  0  0  0  0
 31 32  1  0  0  0  0
 31 33  2  0  0  0  0
 33 34  1  0  0  0  0
 34 35  1  0  0  0  0
 34 43  2  0  0  0  0
 35 36  1  0  0  0  0
 35 39  2  0  0  0  0
 36 37  1  0  0  0  0
 36 38  1  0  0  0  0
 39 40  1  0  0  0  0
 40 41  1  0  0  0  0
 40 42  2  0  0  0  0
 42 43  1  0  0  0  0
M  BCL ATM P_TeTeTeTePi O_Te2Te2TeTe O_Te2Te2Te2Te O_Tr2Tr2TrPi P_TeTeTeTePi O_Te2Te2TeTe O_Tr2Tr2TrPi O_Tr2TrTrPi2 P_TeTeTeTePi O_Tr2Tr2TrPi O_Te2Te2Te2Te O_Tr2TrTrPi2 O_Tr2TrTrPi2 C_TeTeTeTe H_S H_S C_TeTeTeTe H_S O_Te2Te2TeTe C_TeTeTeTe H_S O_Te2Te2TeTe H_S C_TeTeTeTe H_S O_Te2Te2TeTe H_S C_TeTeTeTe H_S N_TrTrTrPi2 C_TrTrTrPi H_S N_Tr2TrTrPi C_TrTrTrPi C_TrTrTrPi N_TrTrTrPi2 H_S H_S N_Tr2TrTrPi C_TrTrTrPi H_S N_Tr2TrTrPi C_TrTrTrPi
M  BCL BND ConjugatedSingleBond ConjugatedSingleBond ConjugatedDoubleBond ConjugatedSingleBond ConjugatedSingleBond ConjugatedDoubleBond ConjugatedSingleBond ConjugatedSingleBond ConjugatedDoubleBond ConjugatedSingleBond ConjugatedSingleBond ConjugatedSingleBond NonConjugatedSingleBond NonConjugatedSingleBond NonConjugatedSingleBond NonConjugatedSingleBond NonConjugatedSingleBond NonConjugatedSingleBondInRing NonConjugatedSingleBondInRing NonConjugatedSingleBondInRing NonConjugatedSingleBond NonConjugatedSingleBond NonConjugatedSingleBondInRing NonConjugatedSingleBond NonConjugatedSingleBond NonConjugatedSingleBond NonConjugatedSingleBondInRing NonConjugatedSingleBond NonConjugatedSingleBond NonConjugatedSingleBond AromaticSingleBond AromaticSingleBond NonConjugatedSingleBond AromaticDoubleBond AromaticSingleBond AromaticSingleBond AromaticDoubleBond ConjugatedSingleBond AromaticDoubleBond NonConjugatedSingleBond NonConjugatedSingleBond AromaticSingleBond NonConjugatedSingleBond AromaticDoubleBond AromaticSingleBond
M  BCL CHI   1   S   5   S   9   S  17   R  20   S  24   R  28   S
M  BCL DBI - - - - - - -
M  END
> <ConfClashScore>
0 

> <ConfOneFourInteractionScore>
-0.986326 

> <ConfScore>
0.081739 

> <ConfScorePBest>
0.00582846 

> <ConfTolerance>
1.82932 

$$$$
ATP.****
  PyMOL2.5          3D                             0

 43 45  0  0  0  0  0  0  0  0999 V2000
    0.1047    1.2209   -5.7109 P   0  0  0  1  0  0  0  0  0  0  0  0
   -0.2496    2.5051   -4.7544 O   0  0  0  0  0  0  0  0  0  0  0  0
    1.6979    0.9331   -5.7693 O   0  5  0  1  0  0  0  0  0  0  0  0
   -0.5229    1.1887   -7.0509 O   0  0  0  1  0  0  0  0  0  0  0  0
   -1.9606   -0.5258   -4.5008 P   0  0  0  1  0  0  0  0  0  0  0  0
   -2.9251    0.4157   -5.2283 O   0  0  0  0  0  0  0  0  0  0  0  0
   -2.2258   -1.9540   -4.7550 O   0  0  0  1  0  0  0  0  0  0  0  0
   -0.4993   -0.0733   -4.9910 O   0  0  0  1  0  0  0  0  0  0  0  0
   -2.9077    0.7930   -2.0798 P   0  0  0  1  0  0  0  0  0  0  0  0
   -4.3409    0.7970   -2.4491 O   0  0  0  1  0  0  0  0  0  0  0  0
   -2.1380    2.2001   -2.3081 O   0  5  0  1  0  0  0  0  0  0  0  0
   -2.0637   -0.2885   -2.9183 O   0  0  0  1  0  0  0  0  0  0  0  0
   -2.8317    0.3412   -0.5744 O   0  0  0  1  0  0  0  0  0  0  0  0
   -1.5651    0.3218    0.1335 C   0  0  0  1  0  0  0  0  0  0  0  0
   -1.1705    1.3141    0.2016 H   0  0  0  1  0  0  0  0  0  0  0  0
   -0.8685   -0.3049   -0.3832 H   0  0  0  1  0  0  0  0  0  0  0  0
   -1.8218   -0.2264    1.5188 C   0  0  0  1  0  0  0  0  0  0  0  0
   -2.3349   -1.1623    1.4431 H   0  0  0  1  0  0  0  0  0  0  0  0
   -0.5813   -0.3833    2.2417 O   0  0  0  1  0  0  0  0  0  0  0  0
   -2.6422    0.7773    2.3575 C   0  0  0  1  0  0  0  0  0  0  0  0
   -2.5140    1.7737    1.9893 H   0  0  0  1  0  0  0  0  0  0  0  0
   -4.0294    0.4374    2.3404 O   0  0  0  1  0  0  0  0  0  0  0  0
   -4.1392   -0.4752    2.6173 H   0  0  0  1  0  0  0  0  0  0  0  0
   -2.0611    0.6403    3.7842 C   0  0  0  1  0  0  0  0  0  0  0  0
   -1.6495    1.5698    4.1182 H   0  0  0  1  0  0  0  0  0  0  0  0
   -3.0657    0.2064    4.7022 O   0  0  0  1  0  0  0  0  0  0  0  0
   -3.6470   -0.4220    4.2677 H   0  0  0  1  0  0  0  0  0  0  0  0
   -0.9555   -0.4277    3.6351 C   0  0  0  1  0  0  0  0  0  0  0  0
   -1.3305   -1.3960    3.8933 H   0  0  0  1  0  0  0  0  0  0  0  0
    0.1921   -0.1041    4.4875 N   0  0  0  1  0  0  0  0  0  0  0  0
    1.4941   -0.3134    4.1502 C   0  0  0  1  0  0  0  0  0  0  0  0
    1.7763   -0.7222    3.2365 H   0  0  0  1  0  0  0  0  0  0  0  0
    2.3618    0.0377    5.0600 N   0  0  0  1  0  0  0  0  0  0  0  0
    1.5731    0.5309    6.0877 C   0  0  0  1  0  0  0  0  0  0  0  0
    1.8394    1.0573    7.3483 C   0  0  0  1  0  0  0  0  0  0  0  0
    3.1075    1.1965    7.8475 N   0  0  0  1  0  0  0  0  0  0  0  0
    3.2438    1.5790    8.7394 H   0  0  0  1  0  0  0  0  0  0  0  0
    3.8785    0.9136    7.3126 H   0  0  0  1  0  0  0  0  0  0  0  0
    0.8279    1.4531    8.1286 N   0  0  0  1  0  0  0  0  0  0  0  0
   -0.4218    1.3102    7.6600 C   0  0  0  1  0  0  0  0  0  0  0  0
   -1.1802    1.6257    8.2979 H   0  0  0  1  0  0  0  0  0  0  0  0
   -0.8204    0.8207    6.4923 N   0  0  0  1  0  0  0  0  0  0  0  0
    0.2176    0.4489    5.7418 C   0  0  0  1  0  0  0  0  0  0  0  0
  1  2  1  0  0  0  0
  1  3  1  0  0  0  0
  1  4  2  0  0  0  0
  1  8  1  0  0  0  0
  5  6  1  0  0  0  0
  5  7  2  0  0  0  0
  5  8  1  0  0  0  0
  5 12  1  0  0  0  0
  9 10  2  0  0  0  0
  9 11  1  0  0  0  0
  9 12  1  0  0  0  0
  9 13  1  0  0  0  0
 13 14  1  0  0  0  0
 14 15  1  0  0  0  0
 14 16  1  0  0  0  0
 14 17  1  0  0  0  0
 17 18  1  0  0  0  0
 17 19  1  0  0  0  0
 17 20  1  0  0  0  0
 19 28  1  0  0  0  0
 20 21  1  0  0  0  0
 20 22  1  0  0  0  0
 20 24  1  0  0  0  0
 22 23  1  0  0  0  0
 24 25  1  0  0  0  0
 24 26  1  0  0  0  0
 24 28  1  0  0  0  0
 26 27  1  0  0  0  0
 28 29  1  0  0  0  0
 28 30  1  0  0  0  0
 30 31  1  0  0  0  0
 30 43  1  0  0  0  0
 31 32  1  0  0  0  0
 31 33  2  0  0  0  0
 33 34  1  0  0  0  0
 34 35  1  0  0  0  0
 34 43  2  0  0  0  0
 35 36  1  0  0  0  0
 35 39  2  0  0  0  0
 36 37  1  0  0  0  0
 36 38  1  0  0  0  0
 39 40  1  0  0  0  0
 40 41  1  0  0  0  0
 40 42  2  0  0  0  0
 42 43  1  0  0  0  0
M  BCL ATM P_TeTeTeTePi O_Te2Te2TeTe O_Te2Te2Te2Te O_Tr2Tr2TrPi P_TeTeTeTePi O_Te2Te2TeTe O_Tr2Tr2TrPi O_Tr2TrTrPi2 P_TeTeTeTePi O_Tr2Tr2TrPi O_Te2Te2Te2Te O_Tr2TrTrPi2 O_Tr2TrTrPi2 C_TeTeTeTe H_S H_S C_TeTeTeTe H_S O_Te2Te2TeTe C_TeTeTeTe H_S O_Te2Te2TeTe H_S C_TeTeTeTe H_S O_Te2Te2TeTe H_S C_TeTeTeTe H_S N_TrTrTrPi2 C_TrTrTrPi H_S N_Tr2TrTrPi C_TrTrTrPi C_TrTrTrPi N_TrTrTrPi2 H_S H_S N_Tr2TrTrPi C_TrTrTrPi H_S N_Tr2TrTrPi C_TrTrTrPi
M  BCL BND ConjugatedSingleBond ConjugatedSingleBond ConjugatedDoubleBond ConjugatedSingleBond ConjugatedSingleBond ConjugatedDoubleBond ConjugatedSingleBond ConjugatedSingleBond ConjugatedDoubleBond ConjugatedSingleBond ConjugatedSingleBond ConjugatedSingleBond NonConjugatedSingleBond NonConjugatedSingleBond NonConjugatedSingleBond NonConjugatedSingleBond NonConjugatedSingleBond NonConjugatedSingleBondInRing NonConjugatedSingleBondInRing NonConjugatedSingleBondInRing NonConjugatedSingleBond NonConjugatedSingleBond NonConjugatedSingleBondInRing NonConjugatedSingleBond NonConjugatedSingleBond NonConjugatedSingleBond NonConjugatedSingleBondInRing NonConjugatedSingleBond NonConjugatedSingleBond NonConjugatedSingleBond AromaticSingleBond AromaticSingleBond NonConjugatedSingleBond AromaticDoubleBond AromaticSingleBond AromaticSingleBond AromaticDoubleBond ConjugatedSingleBond AromaticDoubleBond NonConjugatedSingleBond NonConjugatedSingleBond AromaticSingleBond NonConjugatedSingleBond AromaticDoubleBond AromaticSingleBond
M  BCL CHI   1   S   5   S   9   S  17   R  20   S  24   R  28   S
M  BCL DBI - - - - - - -
M  END
> <ConfClashScore>
0 

> <ConfOneFourInteractionScore>
-0.978708 

> <ConfScore>
0.0892508 

> <ConfScorePBest>
0.00572546 

> <ConfTolerance>
1.84023 

$$$$
ATP.****
  PyMOL2.5          3D                             0

 43 45  0  0  0  0  0  0  0  0999 V2000
    1.6352    7.6510   -0.0162 P   0  0  0  1  0  0  0  0  0  0  0  0
    3.2690    7.7901    0.0161 O   0  0  0  0  0  0  0  0  0  0  0  0
    1.2186    7.8966   -1.5623 O   0  5  0  1  0  0  0  0  0  0  0  0
    1.0622    8.6023    0.9622 O   0  0  0  1  0  0  0  0  0  0  0  0
    0.8860    4.8192   -0.4641 P   0  0  0  1  0  0  0  0  0  0  0  0
   -0.4524    5.0136   -1.0649 O   0  0  0  0  0  0  0  0  0  0  0  0
    2.0316    4.5199   -1.3500 O   0  0  0  1  0  0  0  0  0  0  0  0
    1.3007    6.1332    0.3616 O   0  0  0  1  0  0  0  0  0  0  0  0
   -0.3398    3.4645    1.8350 P   0  0  0  1  0  0  0  0  0  0  0  0
   -1.6007    4.1375    1.4511 O   0  0  0  1  0  0  0  0  0  0  0  0
    0.4222    3.9853    3.1664 O   0  5  0  1  0  0  0  0  0  0  0  0
    0.7402    3.6952    0.6745 O   0  0  0  1  0  0  0  0  0  0  0  0
   -0.5033    1.9081    1.9988 O   0  0  0  1  0  0  0  0  0  0  0  0
   -0.8850    1.0780    0.8726 C   0  0  0  1  0  0  0  0  0  0  0  0
   -0.0123    0.6620    0.4142 H   0  0  0  1  0  0  0  0  0  0  0  0
   -1.4216    1.6623    0.1546 H   0  0  0  1  0  0  0  0  0  0  0  0
   -1.7711   -0.0336    1.3996 C   0  0  0  1  0  0  0  0  0  0  0  0
   -2.2287   -0.5451    0.5787 H   0  0  0  1  0  0  0  0  0  0  0  0
   -1.0015   -0.9619    2.2229 O   0  0  0  1  0  0  0  0  0  0  0  0
   -2.8196    0.5172    2.3386 C   0  0  0  1  0  0  0  0  0  0  0  0
   -3.1141    1.5036    2.0466 H   0  0  0  1  0  0  0  0  0  0  0  0
   -3.9677   -0.3317    2.3762 O   0  0  0  1  0  0  0  0  0  0  0  0
   -3.7023   -1.2186    2.6301 H   0  0  0  1  0  0  0  0  0  0  0  0
   -2.1079    0.5374    3.6980 C   0  0  0  1  0  0  0  0  0  0  0  0
   -1.5961    1.4644    3.8516 H   0  0  0  1  0  0  0  0  0  0  0  0
   -3.0314    0.3201    4.7658 O   0  0  0  1  0  0  0  0  0  0  0  0
   -3.5166    1.1301    4.9396 H   0  0  0  1  0  0  0  0  0  0  0  0
   -1.1155   -0.6299    3.5780 C   0  0  0  1  0  0  0  0  0  0  0  0
   -1.4775   -1.4726    4.1292 H   0  0  0  1  0  0  0  0  0  0  0  0
    0.1901   -0.2278    4.1023 N   0  0  0  1  0  0  0  0  0  0  0  0
    1.1702    0.4438    3.4381 C   0  0  0  1  0  0  0  0  0  0  0  0
    1.0665    0.7512    2.4500 H   0  0  0  1  0  0  0  0  0  0  0  0
    2.2499    0.6731    4.1348 N   0  0  0  1  0  0  0  0  0  0  0  0
    1.9632    0.1152    5.3710 C   0  0  0  1  0  0  0  0  0  0  0  0
    2.6649   -0.0073    6.5666 C   0  0  0  1  0  0  0  0  0  0  0  0
    3.9496    0.4468    6.8447 N   0  0  0  1  0  0  0  0  0  0  0  0
    4.3362    0.3085    7.7346 H   0  0  0  1  0  0  0  0  0  0  0  0
    4.4682    0.9051    6.1509 H   0  0  0  1  0  0  0  0  0  0  0  0
    2.0962   -0.6222    7.6092 N   0  0  0  1  0  0  0  0  0  0  0  0
    0.8577   -1.1152    7.4502 C   0  0  0  1  0  0  0  0  0  0  0  0
    0.4522   -1.5895    8.2822 H   0  0  0  1  0  0  0  0  0  0  0  0
    0.0809   -1.0792    6.3745 N   0  0  0  1  0  0  0  0  0  0  0  0
    0.6804   -0.4487    5.3634 C   0  0  0  1  0  0  0  0  0  0  0  0
  1  2  1  0  0  0  0
  1  3  1  0  0  0  0
  1  4  2  0  0  0  0
  1  8  1  0  0  0  0
  5  6  1  0  0  0  0
  5  7  2  0  0  0  0
  5  8  1  0  0  0  0
  5 12  1  0  0  0  0
  9 10  2  0  0  0  0
  9 11  1  0  0  0  0
  9 12  1  0  0  0  0
  9 13  1  0  0  0  0
 13 14  1  0  0  0  0
 14 15  1  0  0  0  0
 14 16  1  0  0  0  0
 14 17  1  0  0  0  0
 17 18  1  0  0  0  0
 17 19  1  0  0  0  0
 17 20  1  0  0  0  0
 19 28  1  0  0  0  0
 20 21  1  0  0  0  0
 20 22  1  0  0  0  0
 20 24  1  0  0  0  0
 22 23  1  0  0  0  0
 24 25  1  0  0  0  0
 24 26  1  0  0  0  0
 24 28  1  0  0  0  0
 26 27  1  0  0  0  0
 28 29  1  0  0  0  0
 28 30  1  0  0  0  0
 30 31  1  0  0  0  0
 30 43  1  0  0  0  0
 31 32  1  0  0  0  0
 31 33  2  0  0  0  0
 33 34  1  0  0  0  0
 34 35  1  0  0  0  0
 34 43  2  0  0  0  0
 35 36  1  0  0  0  0
 35 39  2  0  0  0  0
 36 37  1  0  0  0  0
 36 38  1  0  0  0  0
 39 40  1  0  0  0  0
 40 41  1  0  0  0  0
 40 42  2  0  0  0  0
 42 43  1  0  0  0  0
M  BCL ATM P_TeTeTeTePi O_Te2Te2TeTe O_Te2Te2Te2Te O_Tr2Tr2TrPi P_TeTeTeTePi O_Te2Te2TeTe O_Tr2Tr2TrPi O_Tr2TrTrPi2 P_TeTeTeTePi O_Tr2Tr2TrPi O_Te2Te2Te2Te O_Tr2TrTrPi2 O_Tr2TrTrPi2 C_TeTeTeTe H_S H_S C_TeTeTeTe H_S O_Te2Te2TeTe C_TeTeTeTe H_S O_Te2Te2TeTe H_S C_TeTeTeTe H_S O_Te2Te2TeTe H_S C_TeTeTeTe H_S N_TrTrTrPi2 C_TrTrTrPi H_S N_Tr2TrTrPi C_TrTrTrPi C_TrTrTrPi N_TrTrTrPi2 H_S H_S N_Tr2TrTrPi C_TrTrTrPi H_S N_Tr2TrTrPi C_TrTrTrPi
M  BCL BND ConjugatedSingleBond ConjugatedSingleBond ConjugatedDoubleBond ConjugatedSingleBond ConjugatedSingleBond ConjugatedDoubleBond ConjugatedSingleBond ConjugatedSingleBond ConjugatedDoubleBond ConjugatedSingleBond ConjugatedSingleBond ConjugatedSingleBond NonConjugatedSingleBond NonConjugatedSingleBond NonConjugatedSingleBond NonConjugatedSingleBond NonConjugatedSingleBond NonConjugatedSingleBondInRing NonConjugatedSingleBondInRing NonConjugatedSingleBondInRing NonConjugatedSingleBond NonConjugatedSingleBond NonConjugatedSingleBondInRing NonConjugatedSingleBond NonConjugatedSingleBond NonConjugatedSingleBond NonConjugatedSingleBondInRing NonConjugatedSingleBond NonConjugatedSingleBond NonConjugatedSingleBond AromaticSingleBond AromaticSingleBond NonConjugatedSingleBond AromaticDoubleBond AromaticSingleBond AromaticSingleBond AromaticDoubleBond ConjugatedSingleBond AromaticDoubleBond NonConjugatedSingleBond NonConjugatedSingleBond AromaticSingleBond NonConjugatedSingleBond AromaticDoubleBond AromaticSingleBond
M  BCL CHI   1   S   5   S   9   S  17   R  20   S  24   R  28   S
M  BCL DBI - - - - - - -
M  END
> <ConfClashScore>
0 

> <ConfOneFourInteractionScore>
-0.985305 

> <ConfScore>
0.0898881 

> <ConfScorePBest>
0.00562246 

> <ConfTolerance>
1.70118 

$$$$
ATP.****
  PyMOL2.5          3D                             0

 43 45  0  0  0  0  0  0  0  0999 V2000
    1.4002   -5.2049   -0.2646 P   0  0  0  1  0  0  0  0  0  0  0  0
    1.7612   -6.8028   -0.3434 O   0  0  0  0  0  0  0  0  0  0  0  0
    2.6488   -4.4577    0.4476 O   0  5  0  1  0  0  0  0  0  0  0  0
    0.3101   -5.0269    0.7204 O   0  0  0  1  0  0  0  0  0  0  0  0
    0.8283   -3.2770   -2.5231 P   0  0  0  1  0  0  0  0  0  0  0  0
    1.9776   -2.3913   -2.2149 O   0  0  0  0  0  0  0  0  0  0  0  0
    0.4588   -3.5567   -3.9223 O   0  0  0  1  0  0  0  0  0  0  0  0
    1.1579   -4.6363   -1.7427 O   0  0  0  1  0  0  0  0  0  0  0  0
   -1.2198   -1.2981   -1.8302 P   0  0  0  1  0  0  0  0  0  0  0  0
   -2.6834   -1.3894   -2.0302 O   0  0  0  1  0  0  0  0  0  0  0  0
   -0.6585   -0.6477   -3.2036 O   0  5  0  1  0  0  0  0  0  0  0  0
   -0.5134   -2.7359   -1.8386 O   0  0  0  1  0  0  0  0  0  0  0  0
   -0.7321   -0.4627   -0.5891 O   0  0  0  1  0  0  0  0  0  0  0  0
   -1.6599    0.3469    0.1710 C   0  0  0  1  0  0  0  0  0  0  0  0
   -2.6115    0.3666   -0.3178 H   0  0  0  1  0  0  0  0  0  0  0  0
   -1.2838    1.3446    0.2610 H   0  0  0  1  0  0  0  0  0  0  0  0
   -1.7975   -0.2761    1.5391 C   0  0  0  1  0  0  0  0  0  0  0  0
   -2.1946   -1.2650    1.4430 H   0  0  0  1  0  0  0  0  0  0  0  0
   -0.5220   -0.3036    2.2163 O   0  0  0  1  0  0  0  0  0  0  0  0
   -2.7040    0.5885    2.4417 C   0  0  0  1  0  0  0  0  0  0  0  0
   -2.7120    1.6055    2.1090 H   0  0  0  1  0  0  0  0  0  0  0  0
   -4.0389    0.0806    2.4546 O   0  0  0  1  0  0  0  0  0  0  0  0
   -4.3639    0.0106    1.5541 H   0  0  0  1  0  0  0  0  0  0  0  0
   -2.0598    0.4747    3.8431 C   0  0  0  1  0  0  0  0  0  0  0  0
   -1.7534    1.4357    4.2002 H   0  0  0  1  0  0  0  0  0  0  0  0
   -2.9702   -0.1119    4.7744 O   0  0  0  1  0  0  0  0  0  0  0  0
   -3.7392    0.4546    4.8708 H   0  0  0  1  0  0  0  0  0  0  0  0
   -0.8378   -0.4426    3.6179 C   0  0  0  1  0  0  0  0  0  0  0  0
   -1.0820   -1.4582    3.8496 H   0  0  0  1  0  0  0  0  0  0  0  0
    0.2901   -0.0100    4.4451 N   0  0  0  1  0  0  0  0  0  0  0  0
    1.0931   -0.8015    5.2078 C   0  0  0  1  0  0  0  0  0  0  0  0
    1.0194   -1.8389    5.2066 H   0  0  0  1  0  0  0  0  0  0  0  0
    1.9624   -0.1605    5.9406 N   0  0  0  1  0  0  0  0  0  0  0  0
    1.7258    1.1708    5.6350 C   0  0  0  1  0  0  0  0  0  0  0  0
    2.2778    2.3764    6.0578 C   0  0  0  1  0  0  0  0  0  0  0  0
    3.3072    2.5166    6.9822 N   0  0  0  1  0  0  0  0  0  0  0  0
    3.6972    3.3996    7.1512 H   0  0  0  1  0  0  0  0  0  0  0  0
    3.6427    1.7323    7.4648 H   0  0  0  1  0  0  0  0  0  0  0  0
    1.8131    3.5284    5.5622 N   0  0  0  1  0  0  0  0  0  0  0  0
    0.8082    3.4715    4.6740 C   0  0  0  1  0  0  0  0  0  0  0  0
    0.4724    4.3882    4.3155 H   0  0  0  1  0  0  0  0  0  0  0  0
    0.1851    2.4034    4.1916 N   0  0  0  1  0  0  0  0  0  0  0  0
    0.6856    1.2774    4.7021 C   0  0  0  1  0  0  0  0  0  0  0  0
  1  2  1  0  0  0  0
  1  3  1  0  0  0  0
  1  4  2  0  0  0  0
  1  8  1  0  0  0  0
  5  6  1  0  0  0  0
  5  7  2  0  0  0  0
  5  8  1  0  0  0  0
  5 12  1  0  0  0  0
  9 10  2  0  0  0  0
  9 11  1  0  0  0  0
  9 12  1  0  0  0  0
  9 13  1  0  0  0  0
 13 14  1  0  0  0  0
 14 15  1  0  0  0  0
 14 16  1  0  0  0  0
 14 17  1  0  0  0  0
 17 18  1  0  0  0  0
 17 19  1  0  0  0  0
 17 20  1  0  0  0  0
 19 28  1  0  0  0  0
 20 21  1  0  0  0  0
 20 22  1  0  0  0  0
 20 24  1  0  0  0  0
 22 23  1  0  0  0  0
 24 25  1  0  0  0  0
 24 26  1  0  0  0  0
 24 28  1  0  0  0  0
 26 27  1  0  0  0  0
 28 29  1  0  0  0  0
 28 30  1  0  0  0  0
 30 31  1  0  0  0  0
 30 43  1  0  0  0  0
 31 32  1  0  0  0  0
 31 33  2  0  0  0  0
 33 34  1  0  0  0  0
 34 35  1  0  0  0  0
 34 43  2  0  0  0  0
 35 36  1  0  0  0  0
 35 39  2  0  0  0  0
 36 37  1  0  0  0  0
 36 38  1  0  0  0  0
 39 40  1  0  0  0  0
 40 41  1  0  0  0  0
 40 42  2  0  0  0  0
 42 43  1  0  0  0  0
M  BCL ATM P_TeTeTeTePi O_Te2Te2TeTe O_Te2Te2Te2Te O_Tr2Tr2TrPi P_TeTeTeTePi O_Te2Te2TeTe O_Tr2Tr2TrPi O_Tr2TrTrPi2 P_TeTeTeTePi O_Tr2Tr2TrPi O_Te2Te2Te2Te O_Tr2TrTrPi2 O_Tr2TrTrPi2 C_TeTeTeTe H_S H_S C_TeTeTeTe H_S O_Te2Te2TeTe C_TeTeTeTe H_S O_Te2Te2TeTe H_S C_TeTeTeTe H_S O_Te2Te2TeTe H_S C_TeTeTeTe H_S N_TrTrTrPi2 C_TrTrTrPi H_S N_Tr2TrTrPi C_TrTrTrPi C_TrTrTrPi N_TrTrTrPi2 H_S H_S N_Tr2TrTrPi C_TrTrTrPi H_S N_Tr2TrTrPi C_TrTrTrPi
M  BCL BND ConjugatedSingleBond ConjugatedSingleBond ConjugatedDoubleBond ConjugatedSingleBond ConjugatedSingleBond ConjugatedDoubleBond ConjugatedSingleBond ConjugatedSingleBond ConjugatedDoubleBond ConjugatedSingleBond ConjugatedSingleBond ConjugatedSingleBond NonConjugatedSingleBond NonConjugatedSingleBond NonConjugatedSingleBond NonConjugatedSingleBond NonConjugatedSingleBond NonConjugatedSingleBondInRing NonConjugatedSingleBondInRing NonConjugatedSingleBondInRing NonConjugatedSingleBond NonConjugatedSingleBond NonConjugatedSingleBondInRing NonConjugatedSingleBond NonConjugatedSingleBond NonConjugatedSingleBond NonConjugatedSingleBondInRing NonConjugatedSingleBond NonConjugatedSingleBond NonConjugatedSingleBond AromaticSingleBond AromaticSingleBond NonConjugatedSingleBond AromaticDoubleBond AromaticSingleBond AromaticSingleBond AromaticDoubleBond ConjugatedSingleBond AromaticDoubleBond NonConjugatedSingleBond NonConjugatedSingleBond AromaticSingleBond NonConjugatedSingleBond AromaticDoubleBond AromaticSingleBond
M  BCL CHI   1   S   5   S   9   S  17   R  20   S  24   R  28   S
M  BCL DBI - - - - - - -
M  END
> <ConfClashScore>
0 

> <ConfOneFourInteractionScore>
-0.974492 

> <ConfScore>
0.0921754 

> <ConfScorePBest>
0.00551946 

> <ConfTolerance>
1.75616 

$$$$
ATP.****
  PyMOL2.5          3D                             0

 43 45  0  0  0  0  0  0  0  0999 V2000
    2.4036   -3.6077    1.0622 P   0  0  0  1  0  0  0  0  0  0  0  0
    3.2212   -3.9315   -0.3221 O   0  0  0  0  0  0  0  0  0  0  0  0
    3.5249   -3.2637    2.1797 O   0  5  0  1  0  0  0  0  0  0  0  0
    1.4828   -4.6686    1.5281 O   0  0  0  1  0  0  0  0  0  0  0  0
    2.3354   -0.7428    0.9466 P   0  0  0  1  0  0  0  0  0  0  0  0
    1.9197   -0.1566    2.2592 O   0  0  0  0  0  0  0  0  0  0  0  0
    3.7888   -0.7727    0.6326 O   0  0  0  1  0  0  0  0  0  0  0  0
    1.6447   -2.2011    0.8124 O   0  0  0  1  0  0  0  0  0  0  0  0
    0.6931    1.3326   -0.4301 P   0  0  0  1  0  0  0  0  0  0  0  0
    0.4277    1.6050   -1.8604 O   0  0  0  1  0  0  0  0  0  0  0  0
    1.3825    2.5972    0.3114 O   0  5  0  1  0  0  0  0  0  0  0  0
    1.6441    0.0630   -0.2374 O   0  0  0  1  0  0  0  0  0  0  0  0
   -0.6456    1.1401    0.3742 O   0  0  0  1  0  0  0  0  0  0  0  0
   -1.4396   -0.0647    0.2198 C   0  0  0  1  0  0  0  0  0  0  0  0
   -0.8523   -0.8317   -0.2404 H   0  0  0  1  0  0  0  0  0  0  0  0
   -2.2979    0.1396   -0.3856 H   0  0  0  1  0  0  0  0  0  0  0  0
   -1.8750   -0.5066    1.5969 C   0  0  0  1  0  0  0  0  0  0  0  0
   -2.5547   -1.3284    1.5100 H   0  0  0  1  0  0  0  0  0  0  0  0
   -0.7238   -0.8775    2.4033 O   0  0  0  1  0  0  0  0  0  0  0  0
   -2.5245    0.6513    2.3534 C   0  0  0  1  0  0  0  0  0  0  0  0
   -2.0989    1.5910    2.0692 H   0  0  0  1  0  0  0  0  0  0  0  0
   -3.9375    0.6844    2.1428 O   0  0  0  1  0  0  0  0  0  0  0  0
   -4.3719    1.0115    2.9340 H   0  0  0  1  0  0  0  0  0  0  0  0
   -2.1893    0.3052    3.7813 C   0  0  0  1  0  0  0  0  0  0  0  0
   -2.2188    1.1726    4.4071 H   0  0  0  1  0  0  0  0  0  0  0  0
   -3.0810   -0.6848    4.2961 O   0  0  0  1  0  0  0  0  0  0  0  0
   -3.9726   -0.5032    3.9899 H   0  0  0  1  0  0  0  0  0  0  0  0
   -0.7768   -0.2374    3.6608 C   0  0  0  1  0  0  0  0  0  0  0  0
   -0.5771   -0.9373    4.4451 H   0  0  0  1  0  0  0  0  0  0  0  0
    0.1965    0.8536    3.7203 N   0  0  0  1  0  0  0  0  0  0  0  0
    0.2144    1.9805    2.9570 C   0  0  0  1  0  0  0  0  0  0  0  0
   -0.5050    2.1762    2.2319 H   0  0  0  1  0  0  0  0  0  0  0  0
    1.2024    2.7971    3.2038 N   0  0  0  1  0  0  0  0  0  0  0  0
    1.8979    2.1663    4.2236 C   0  0  0  1  0  0  0  0  0  0  0  0
    3.0466    2.4712    4.9478 C   0  0  0  1  0  0  0  0  0  0  0  0
    3.8296    3.6088    4.7846 N   0  0  0  1  0  0  0  0  0  0  0  0
    3.6029    4.2646    4.0926 H   0  0  0  1  0  0  0  0  0  0  0  0
    4.6081    3.7548    5.3617 H   0  0  0  1  0  0  0  0  0  0  0  0
    3.4768    1.6295    5.8939 N   0  0  0  1  0  0  0  0  0  0  0  0
    2.7781    0.5016    6.0979 C   0  0  0  1  0  0  0  0  0  0  0  0
    3.1470   -0.1282    6.8388 H   0  0  0  1  0  0  0  0  0  0  0  0
    1.6800    0.0816    5.4817 N   0  0  0  1  0  0  0  0  0  0  0  0
    1.2792    0.9535    4.5555 C   0  0  0  1  0  0  0  0  0  0  0  0
  1  2  1  0  0  0  0
  1  3  1  0  0  0  0
  1  4  2  0  0  0  0
  1  8  1  0  0  0  0
  5  6  1  0  0  0  0
  5  7  2  0  0  0  0
  5  8  1  0  0  0  0
  5 12  1  0  0  0  0
  9 10  2  0  0  0  0
  9 11  1  0  0  0  0
  9 12  1  0  0  0  0
  9 13  1  0  0  0  0
 13 14  1  0  0  0  0
 14 15  1  0  0  0  0
 14 16  1  0  0  0  0
 14 17  1  0  0  0  0
 17 18  1  0  0  0  0
 17 19  1  0  0  0  0
 17 20  1  0  0  0  0
 19 28  1  0  0  0  0
 20 21  1  0  0  0  0
 20 22  1  0  0  0  0
 20 24  1  0  0  0  0
 22 23  1  0  0  0  0
 24 25  1  0  0  0  0
 24 26  1  0  0  0  0
 24 28  1  0  0  0  0
 26 27  1  0  0  0  0
 28 29  1  0  0  0  0
 28 30  1  0  0  0  0
 30 31  1  0  0  0  0
 30 43  1  0  0  0  0
 31 32  1  0  0  0  0
 31 33  2  0  0  0  0
 33 34  1  0  0  0  0
 34 35  1  0  0  0  0
 34 43  2  0  0  0  0
 35 36  1  0  0  0  0
 35 39  2  0  0  0  0
 36 37  1  0  0  0  0
 36 38  1  0  0  0  0
 39 40  1  0  0  0  0
 40 41  1  0  0  0  0
 40 42  2  0  0  0  0
 42 43  1  0  0  0  0
M  BCL ATM P_TeTeTeTePi O_Te2Te2TeTe O_Te2Te2Te2Te O_Tr2Tr2TrPi P_TeTeTeTePi O_Te2Te2TeTe O_Tr2Tr2TrPi O_Tr2TrTrPi2 P_TeTeTeTePi O_Tr2Tr2TrPi O_Te2Te2Te2Te O_Tr2TrTrPi2 O_Tr2TrTrPi2 C_TeTeTeTe H_S H_S C_TeTeTeTe H_S O_Te2Te2TeTe C_TeTeTeTe H_S O_Te2Te2TeTe H_S C_TeTeTeTe H_S O_Te2Te2TeTe H_S C_TeTeTeTe H_S N_TrTrTrPi2 C_TrTrTrPi H_S N_Tr2TrTrPi C_TrTrTrPi C_TrTrTrPi N_TrTrTrPi2 H_S H_S N_Tr2TrTrPi C_TrTrTrPi H_S N_Tr2TrTrPi C_TrTrTrPi
M  BCL BND ConjugatedSingleBond ConjugatedSingleBond ConjugatedDoubleBond ConjugatedSingleBond ConjugatedSingleBond ConjugatedDoubleBond ConjugatedSingleBond ConjugatedSingleBond ConjugatedDoubleBond ConjugatedSingleBond ConjugatedSingleBond ConjugatedSingleBond NonConjugatedSingleBond NonConjugatedSingleBond NonConjugatedSingleBond NonConjugatedSingleBond NonConjugatedSingleBond NonConjugatedSingleBondInRing NonConjugatedSingleBondInRing NonConjugatedSingleBondInRing NonConjugatedSingleBond NonConjugatedSingleBond NonConjugatedSingleBondInRing NonConjugatedSingleBond NonConjugatedSingleBond NonConjugatedSingleBond NonConjugatedSingleBondInRing NonConjugatedSingleBond NonConjugatedSingleBond NonConjugatedSingleBond AromaticSingleBond AromaticSingleBond NonConjugatedSingleBond AromaticDoubleBond AromaticSingleBond AromaticSingleBond AromaticDoubleBond ConjugatedSingleBond AromaticDoubleBond NonConjugatedSingleBond NonConjugatedSingleBond AromaticSingleBond NonConjugatedSingleBond AromaticDoubleBond AromaticSingleBond
M  BCL CHI   1   S   5   S   9   S  17   R  20   S  24   R  28   S
M  BCL DBI - - - - - - -
M  END
> <ConfClashScore>
0 

> <ConfOneFourInteractionScore>
-0.983413 

> <ConfScore>
0.0967469 

> <ConfScorePBest>
0.00541646 

> <ConfTolerance>
2.15401 

$$$$
ATP.****
  PyMOL2.5          3D                             0

 43 45  0  0  0  0  0  0  0  0999 V2000
   -0.8589    4.2632   -2.2615 P   0  0  0  1  0  0  0  0  0  0  0  0
   -2.3561    4.2874   -1.5925 O   0  0  0  0  0  0  0  0  0  0  0  0
   -0.5124    5.7985   -2.6450 O   0  5  0  1  0  0  0  0  0  0  0  0
   -0.8274    3.2903   -3.3764 O   0  0  0  1  0  0  0  0  0  0  0  0
    1.6933    3.2717   -1.2002 P   0  0  0  1  0  0  0  0  0  0  0  0
    2.2469    3.8172   -2.4614 O   0  0  0  0  0  0  0  0  0  0  0  0
    2.3847    3.5439    0.0736 O   0  0  0  1  0  0  0  0  0  0  0  0
    0.1714    3.7671   -1.1330 O   0  0  0  1  0  0  0  0  0  0  0  0
    1.4800    0.5191   -0.3576 P   0  0  0  1  0  0  0  0  0  0  0  0
    2.2125    1.0626    0.8079 O   0  0  0  1  0  0  0  0  0  0  0  0
    2.2579   -0.7463   -1.0042 O   0  5  0  1  0  0  0  0  0  0  0  0
    1.5545    1.6907   -1.4540 O   0  0  0  1  0  0  0  0  0  0  0  0
   -0.0339    0.1537   -0.1322 O   0  0  0  1  0  0  0  0  0  0  0  0
   -0.8446    0.8978    0.8077 C   0  0  0  1  0  0  0  0  0  0  0  0
   -1.3749    1.6741    0.2968 H   0  0  0  1  0  0  0  0  0  0  0  0
   -0.2226    1.3284    1.5644 H   0  0  0  1  0  0  0  0  0  0  0  0
   -1.8241   -0.0683    1.4346 C   0  0  0  1  0  0  0  0  0  0  0  0
   -2.3505   -0.5930    0.6648 H   0  0  0  1  0  0  0  0  0  0  0  0
   -1.1342   -1.0032    2.3188 O   0  0  0  1  0  0  0  0  0  0  0  0
   -2.7889    0.6606    2.3416 C   0  0  0  1  0  0  0  0  0  0  0  0
   -2.9881    1.6459    1.9750 H   0  0  0  1  0  0  0  0  0  0  0  0
   -4.0177   -0.0602    2.4652 O   0  0  0  1  0  0  0  0  0  0  0  0
   -3.8492   -1.0001    2.3665 H   0  0  0  1  0  0  0  0  0  0  0  0
   -2.0474    0.7144    3.6840 C   0  0  0  1  0  0  0  0  0  0  0  0
   -1.4403    1.5927    3.7542 H   0  0  0  1  0  0  0  0  0  0  0  0
   -2.9631    0.6790    4.7796 O   0  0  0  1  0  0  0  0  0  0  0  0
   -3.2690   -0.2212    4.9125 H   0  0  0  1  0  0  0  0  0  0  0  0
   -1.1821   -0.5551    3.6440 C   0  0  0  1  0  0  0  0  0  0  0  0
   -1.6152   -1.3096    4.2671 H   0  0  0  1  0  0  0  0  0  0  0  0
    0.1695   -0.2500    4.1143 N   0  0  0  1  0  0  0  0  0  0  0  0
    1.2262    0.1644    3.3631 C   0  0  0  1  0  0  0  0  0  0  0  0
    1.1577    0.3142    2.3362 H   0  0  0  1  0  0  0  0  0  0  0  0
    2.3321    0.3595    4.0285 N   0  0  0  1  0  0  0  0  0  0  0  0
    1.9818    0.0584    5.3355 C   0  0  0  1  0  0  0  0  0  0  0  0
    2.6694    0.0435    6.5455 C   0  0  0  1  0  0  0  0  0  0  0  0
    3.9949    0.3852    6.6000 N   0  0  0  1  0  0  0  0  0  0  0  0
    4.4660    0.3852    7.4593 H   0  0  0  1  0  0  0  0  0  0  0  0
    4.4720    0.6296    5.7796 H   0  0  0  1  0  0  0  0  0  0  0  0
    2.0306   -0.3077    7.6668 N   0  0  0  1  0  0  0  0  0  0  0  0
    0.7359   -0.6498    7.5728 C   0  0  0  1  0  0  0  0  0  0  0  0
    0.2763   -0.9205    8.4656 H   0  0  0  1  0  0  0  0  0  0  0  0
   -0.0368   -0.6894    6.4942 N   0  0  0  1  0  0  0  0  0  0  0  0
    0.6347   -0.3219    5.4020 C   0  0  0  1  0  0  0  0  0  0  0  0
  1  2  1  0  0  0  0
  1  3  1  0  0  0  0
  1  4  2  0  0  0  0
  1  8  1  0  0  0  0
  5  6  1  0  0  0  0
  5  7  2  0  0  0  0
  5  8  1  0  0  0  0
  5 12  1  0  0  0  0
  9 10  2  0  0  0  0
  9 11  1  0  0  0  0
  9 12  1  0  0  0  0
  9 13  1  0  0  0  0
 13 14  1  0  0  0  0
 14 15  1  0  0  0  0
 14 16  1  0  0  0  0
 14 17  1  0  0  0  0
 17 18  1  0  0  0  0
 17 19  1  0  0  0  0
 17 20  1  0  0  0  0
 19 28  1  0  0  0  0
 20 21  1  0  0  0  0
 20 22  1  0  0  0  0
 20 24  1  0  0  0  0
 22 23  1  0  0  0  0
 24 25  1  0  0  0  0
 24 26  1  0  0  0  0
 24 28  1  0  0  0  0
 26 27  1  0  0  0  0
 28 29  1  0  0  0  0
 28 30  1  0  0  0  0
 30 31  1  0  0  0  0
 30 43  1  0  0  0  0
 31 32  1  0  0  0  0
 31 33  2  0  0  0  0
 33 34  1  0  0  0  0
 34 35  1  0  0  0  0
 34 43  2  0  0  0  0
 35 36  1  0  0  0  0
 35 39  2  0  0  0  0
 36 37  1  0  0  0  0
 36 38  1  0  0  0  0
 39 40  1  0  0  0  0
 40 41  1  0  0  0  0
 40 42  2  0  0  0  0
 42 43  1  0  0  0  0
M  BCL ATM P_TeTeTeTePi O_Te2Te2TeTe O_Te2Te2Te2Te O_Tr2Tr2TrPi P_TeTeTeTePi O_Te2Te2TeTe O_Tr2Tr2TrPi O_Tr2TrTrPi2 P_TeTeTeTePi O_Tr2Tr2TrPi O_Te2Te2Te2Te O_Tr2TrTrPi2 O_Tr2TrTrPi2 C_TeTeTeTe H_S H_S C_TeTeTeTe H_S O_Te2Te2TeTe C_TeTeTeTe H_S O_Te2Te2TeTe H_S C_TeTeTeTe H_S O_Te2Te2TeTe H_S C_TeTeTeTe H_S N_TrTrTrPi2 C_TrTrTrPi H_S N_Tr2TrTrPi C_TrTrTrPi C_TrTrTrPi N_TrTrTrPi2 H_S H_S N_Tr2TrTrPi C_TrTrTrPi H_S N_Tr2TrTrPi C_TrTrTrPi
M  BCL BND ConjugatedSingleBond ConjugatedSingleBond ConjugatedDoubleBond ConjugatedSingleBond ConjugatedSingleBond ConjugatedDoubleBond ConjugatedSingleBond ConjugatedSingleBond ConjugatedDoubleBond ConjugatedSingleBond ConjugatedSingleBond ConjugatedSingleBond NonConjugatedSingleBond NonConjugatedSingleBond NonConjugatedSingleBond NonConjugatedSingleBond NonConjugatedSingleBond NonConjugatedSingleBondInRing NonConjugatedSingleBondInRing NonConjugatedSingleBondInRing NonConjugatedSingleBond NonConjugatedSingleBond NonConjugatedSingleBondInRing NonConjugatedSingleBond NonConjugatedSingleBond NonConjugatedSingleBond NonConjugatedSingleBondInRing NonConjugatedSingleBond NonConjugatedSingleBond NonConjugatedSingleBond AromaticSingleBond AromaticSingleBond NonConjugatedSingleBond AromaticDoubleBond AromaticSingleBond AromaticSingleBond AromaticDoubleBond ConjugatedSingleBond AromaticDoubleBond NonConjugatedSingleBond NonConjugatedSingleBond AromaticSingleBond NonConjugatedSingleBond AromaticDoubleBond AromaticSingleBond
M  BCL CHI   1   S   5   S   9   S  17   R  20   S  24   R  28   S
M  BCL DBI - - - - - - -
M  END
> <ConfClashScore>
0 

> <ConfOneFourInteractionScore>
-0.981204 

> <ConfScore>
0.111863 

> <ConfScorePBest>
0.00531345 

> <ConfTolerance>
1.89049 

$$$$
ATP.****
  PyMOL2.5          3D                             0

 43 45  0  0  0  0  0  0  0  0999 V2000
   -2.5178   -3.4766   -4.6747 P   0  0  0  1  0  0  0  0  0  0  0  0
   -3.2716   -2.9533   -3.3155 O   0  0  0  0  0  0  0  0  0  0  0  0
   -2.8329   -2.4368   -5.8763 O   0  5  0  1  0  0  0  0  0  0  0  0
   -3.0165   -4.8375   -4.9745 O   0  0  0  1  0  0  0  0  0  0  0  0
    0.0058   -3.7250   -3.1858 P   0  0  0  1  0  0  0  0  0  0  0  0
   -0.6782   -4.6970   -2.3042 O   0  0  0  0  0  0  0  0  0  0  0  0
    1.3307   -4.0731   -3.7431 O   0  0  0  1  0  0  0  0  0  0  0  0
   -0.9292   -3.3946   -4.4495 O   0  0  0  1  0  0  0  0  0  0  0  0
   -1.2056   -1.5607   -1.7457 P   0  0  0  1  0  0  0  0  0  0  0  0
   -2.2642   -2.4899   -1.2915 O   0  0  0  1  0  0  0  0  0  0  0  0
   -1.6781   -0.5460   -2.9169 O   0  5  0  1  0  0  0  0  0  0  0  0
    0.0720   -2.3177   -2.3909 O   0  0  0  1  0  0  0  0  0  0  0  0
   -0.6357   -0.6562   -0.5795 O   0  0  0  1  0  0  0  0  0  0  0  0
   -1.5486    0.2085    0.1365 C   0  0  0  1  0  0  0  0  0  0  0  0
   -2.4947    0.2327   -0.3627 H   0  0  0  1  0  0  0  0  0  0  0  0
   -1.1470    1.1989    0.1888 H   0  0  0  1  0  0  0  0  0  0  0  0
   -1.7158   -0.3536    1.5300 C   0  0  0  1  0  0  0  0  0  0  0  0
   -2.0861   -1.3557    1.4688 H   0  0  0  1  0  0  0  0  0  0  0  0
   -0.4626   -0.3172    2.2470 O   0  0  0  1  0  0  0  0  0  0  0  0
   -2.6712    0.5294    2.3615 C   0  0  0  1  0  0  0  0  0  0  0  0
   -2.6925    1.5290    1.9805 H   0  0  0  1  0  0  0  0  0  0  0  0
   -3.9934   -0.0108    2.3572 O   0  0  0  1  0  0  0  0  0  0  0  0
   -4.6311    0.7021    2.4391 H   0  0  0  1  0  0  0  0  0  0  0  0
   -2.0700    0.4977    3.7862 C   0  0  0  1  0  0  0  0  0  0  0  0
   -1.7981    1.4818    4.1063 H   0  0  0  1  0  0  0  0  0  0  0  0
   -2.9959   -0.0672    4.7156 O   0  0  0  1  0  0  0  0  0  0  0  0
   -3.8846   -0.0111    4.3568 H   0  0  0  1  0  0  0  0  0  0  0  0
   -0.8201   -0.3981    3.6432 C   0  0  0  1  0  0  0  0  0  0  0  0
   -1.0475   -1.4076    3.9154 H   0  0  0  1  0  0  0  0  0  0  0  0
    0.2726    0.1023    4.4855 N   0  0  0  1  0  0  0  0  0  0  0  0
    0.8476    1.3351    4.4378 C   0  0  0  1  0  0  0  0  0  0  0  0
    0.5407    2.0698    3.7688 H   0  0  0  1  0  0  0  0  0  0  0  0
    1.8135    1.5256    5.2950 N   0  0  0  1  0  0  0  0  0  0  0  0
    1.8832    0.3216    5.9784 C   0  0  0  1  0  0  0  0  0  0  0  0
    2.6860   -0.1661    7.0053 C   0  0  0  1  0  0  0  0  0  0  0  0
    3.7053    0.5353    7.6402 N   0  0  0  1  0  0  0  0  0  0  0  0
    3.9181    1.4502    7.3610 H   0  0  0  1  0  0  0  0  0  0  0  0
    4.2108    0.1146    8.3668 H   0  0  0  1  0  0  0  0  0  0  0  0
    2.5014   -1.4114    7.4568 N   0  0  0  1  0  0  0  0  0  0  0  0
    1.5430   -2.1541    6.8806 C   0  0  0  1  0  0  0  0  0  0  0  0
    1.4335   -3.1175    7.2567 H   0  0  0  1  0  0  0  0  0  0  0  0
    0.7162   -1.8249    5.8957 N   0  0  0  1  0  0  0  0  0  0  0  0
    0.9259   -0.5740    5.4833 C   0  0  0  1  0  0  0  0  0  0  0  0
  1  2  1  0  0  0  0
  1  3  1  0  0  0  0
  1  4  2  0  0  0  0
  1  8  1  0  0  0  0
  5  6  1  0  0  0  0
  5  7  2  0  0  0  0
  5  8  1  0  0  0  0
  5 12  1  0  0  0  0
  9 10  2  0  0  0  0
  9 11  1  0  0  0  0
  9 12  1  0  0  0  0
  9 13  1  0  0  0  0
 13 14  1  0  0  0  0
 14 15  1  0  0  0  0
 14 16  1  0  0  0  0
 14 17  1  0  0  0  0
 17 18  1  0  0  0  0
 17 19  1  0  0  0  0
 17 20  1  0  0  0  0
 19 28  1  0  0  0  0
 20 21  1  0  0  0  0
 20 22  1  0  0  0  0
 20 24  1  0  0  0  0
 22 23  1  0  0  0  0
 24 25  1  0  0  0  0
 24 26  1  0  0  0  0
 24 28  1  0  0  0  0
 26 27  1  0  0  0  0
 28 29  1  0  0  0  0
 28 30  1  0  0  0  0
 30 31  1  0  0  0  0
 30 43  1  0  0  0  0
 31 32  1  0  0  0  0
 31 33  2  0  0  0  0
 33 34  1  0  0  0  0
 34 35  1  0  0  0  0
 34 43  2  0  0  0  0
 35 36  1  0  0  0  0
 35 39  2  0  0  0  0
 36 37  1  0  0  0  0
 36 38  1  0  0  0  0
 39 40  1  0  0  0  0
 40 41  1  0  0  0  0
 40 42  2  0  0  0  0
 42 43  1  0  0  0  0
M  BCL ATM P_TeTeTeTePi O_Te2Te2TeTe O_Te2Te2Te2Te O_Tr2Tr2TrPi P_TeTeTeTePi O_Te2Te2TeTe O_Tr2Tr2TrPi O_Tr2TrTrPi2 P_TeTeTeTePi O_Tr2Tr2TrPi O_Te2Te2Te2Te O_Tr2TrTrPi2 O_Tr2TrTrPi2 C_TeTeTeTe H_S H_S C_TeTeTeTe H_S O_Te2Te2TeTe C_TeTeTeTe H_S O_Te2Te2TeTe H_S C_TeTeTeTe H_S O_Te2Te2TeTe H_S C_TeTeTeTe H_S N_TrTrTrPi2 C_TrTrTrPi H_S N_Tr2TrTrPi C_TrTrTrPi C_TrTrTrPi N_TrTrTrPi2 H_S H_S N_Tr2TrTrPi C_TrTrTrPi H_S N_Tr2TrTrPi C_TrTrTrPi
M  BCL BND ConjugatedSingleBond ConjugatedSingleBond ConjugatedDoubleBond ConjugatedSingleBond ConjugatedSingleBond ConjugatedDoubleBond ConjugatedSingleBond ConjugatedSingleBond ConjugatedDoubleBond ConjugatedSingleBond ConjugatedSingleBond ConjugatedSingleBond NonConjugatedSingleBond NonConjugatedSingleBond NonConjugatedSingleBond NonConjugatedSingleBond NonConjugatedSingleBond NonConjugatedSingleBondInRing NonConjugatedSingleBondInRing NonConjugatedSingleBondInRing NonConjugatedSingleBond NonConjugatedSingleBond NonConjugatedSingleBondInRing NonConjugatedSingleBond NonConjugatedSingleBond NonConjugatedSingleBond NonConjugatedSingleBondInRing NonConjugatedSingleBond NonConjugatedSingleBond NonConjugatedSingleBond AromaticSingleBond AromaticSingleBond NonConjugatedSingleBond AromaticDoubleBond AromaticSingleBond AromaticSingleBond AromaticDoubleBond ConjugatedSingleBond AromaticDoubleBond NonConjugatedSingleBond NonConjugatedSingleBond AromaticSingleBond NonConjugatedSingleBond AromaticDoubleBond AromaticSingleBond
M  BCL CHI   1   S   5   S   9   S  17   R  20   S  24   R  28   S
M  BCL DBI - - - - - - -
M  END
> <ConfClashScore>
0 

> <ConfOneFourInteractionScore>
-0.981204 

> <ConfScore>
0.124993 

> <ConfScorePBest>
0.00521045 

> <ConfTolerance>
2.01136 

$$$$
ATP.****
  PyMOL2.5          3D                             0

 43 45  0  0  0  0  0  0  0  0999 V2000
   -1.9090   -2.8192   -3.1440 P   0  0  0  1  0  0  0  0  0  0  0  0
   -1.1067   -3.8406   -4.1453 O   0  0  0  0  0  0  0  0  0  0  0  0
   -2.8871   -3.7457   -2.2443 O   0  5  0  1  0  0  0  0  0  0  0  0
   -2.7417   -1.9519   -4.0070 O   0  0  0  1  0  0  0  0  0  0  0  0
    0.7180   -1.8430   -2.3420 P   0  0  0  1  0  0  0  0  0  0  0  0
    1.2175   -2.3964   -1.0167 O   0  0  0  0  0  0  0  0  0  0  0  0
    1.1410   -2.6608   -3.5365 O   0  0  0  1  0  0  0  0  0  0  0  0
   -0.8696   -2.0502   -2.1955 O   0  0  0  1  0  0  0  0  0  0  0  0
    0.4364    0.9646   -1.6103 P   0  0  0  1  0  0  0  0  0  0  0  0
   -0.7148    1.4242   -2.4190 O   0  0  0  1  0  0  0  0  0  0  0  0
    1.6259    2.0575   -1.4875 O   0  5  0  1  0  0  0  0  0  0  0  0
    0.9933   -0.2692   -2.4779 O   0  0  0  1  0  0  0  0  0  0  0  0
    0.0121    0.3589   -0.2213 O   0  0  0  1  0  0  0  0  0  0  0  0
   -0.9792    1.0160    0.6028 C   0  0  0  1  0  0  0  0  0  0  0  0
   -1.6629    1.5609   -0.0142 H   0  0  0  1  0  0  0  0  0  0  0  0
   -0.4997    1.6876    1.2840 H   0  0  0  1  0  0  0  0  0  0  0  0
   -1.7195   -0.0536    1.3705 C   0  0  0  1  0  0  0  0  0  0  0  0
   -2.1517   -0.7515    0.6841 H   0  0  0  1  0  0  0  0  0  0  0  0
   -0.8241   -0.7302    2.2707 O   0  0  0  1  0  0  0  0  0  0  0  0
   -2.8221    0.5847    2.2510 C   0  0  0  1  0  0  0  0  0  0  0  0
   -3.0672    1.5684    1.9087 H   0  0  0  1  0  0  0  0  0  0  0  0
   -4.0003   -0.2226    2.2655 O   0  0  0  1  0  0  0  0  0  0  0  0
   -3.7955   -1.0819    2.6413 H   0  0  0  1  0  0  0  0  0  0  0  0
   -2.1729    0.6292    3.6231 C   0  0  0  1  0  0  0  0  0  0  0  0
   -1.6131    1.5313    3.7563 H   0  0  0  1  0  0  0  0  0  0  0  0
   -3.1495    0.5167    4.6593 O   0  0  0  1  0  0  0  0  0  0  0  0
   -2.7187    0.5841    5.5145 H   0  0  0  1  0  0  0  0  0  0  0  0
   -1.2484   -0.5983    3.5968 C   0  0  0  1  0  0  0  0  0  0  0  0
   -1.7822   -1.4728    3.9053 H   0  0  0  1  0  0  0  0  0  0  0  0
   -0.1005   -0.3898    4.4799 N   0  0  0  1  0  0  0  0  0  0  0  0
   -0.0500   -0.5986    5.8240 C   0  0  0  1  0  0  0  0  0  0  0  0
   -0.8650   -0.9496    6.3664 H   0  0  0  1  0  0  0  0  0  0  0  0
    1.0984   -0.3249    6.3810 N   0  0  0  1  0  0  0  0  0  0  0  0
    1.8833    0.0934    5.3178 C   0  0  0  1  0  0  0  0  0  0  0  0
    3.1964    0.5386    5.1973 C   0  0  0  1  0  0  0  0  0  0  0  0
    4.0042    0.6277    6.2933 N   0  0  0  1  0  0  0  0  0  0  0  0
    3.6552    0.3962    7.1793 H   0  0  0  1  0  0  0  0  0  0  0  0
    4.9334    0.9231    6.1945 H   0  0  0  1  0  0  0  0  0  0  0  0
    3.6722    0.8826    3.9956 N   0  0  0  1  0  0  0  0  0  0  0  0
    2.8445    0.7955    2.9424 C   0  0  0  1  0  0  0  0  0  0  0  0
    3.2505    1.0758    2.0269 H   0  0  0  1  0  0  0  0  0  0  0  0
    1.5778    0.4001    2.9118 N   0  0  0  1  0  0  0  0  0  0  0  0
    1.1468    0.0560    4.1262 C   0  0  0  1  0  0  0  0  0  0  0  0
  1  2  1  0  0  0  0
  1  3  1  0  0  0  0
  1  4  2  0  0  0  0
  1  8  1  0  0  0  0
  5  6  1  0  0  0  0
  5  7  2  0  0  0  0
  5  8  1  0  0  0  0
  5 12  1  0  0  0  0
  9 10  2  0  0  0  0
  9 11  1  0  0  0  0
  9 12  1  0  0  0  0
  9 13  1  0  0  0  0
 13 14  1  0  0  0  0
 14 15  1  0  0  0  0
 14 16  1  0  0  0  0
 14 17  1  0  0  0  0
 17 18  1  0  0  0  0
 17 19  1  0  0  0  0
 17 20  1  0  0  0  0
 19 28  1  0  0  0  0
 20 21  1  0  0  0  0
 20 22  1  0  0  0  0
 20 24  1  0  0  0  0
 22 23  1  0  0  0  0
 24 25  1  0  0  0  0
 24 26  1  0  0  0  0
 24 28  1  0  0  0  0
 26 27  1  0  0  0  0
 28 29  1  0  0  0  0
 28 30  1  0  0  0  0
 30 31  1  0  0  0  0
 30 43  1  0  0  0  0
 31 32  1  0  0  0  0
 31 33  2  0  0  0  0
 33 34  1  0  0  0  0
 34 35  1  0  0  0  0
 34 43  2  0  0  0  0
 35 36  1  0  0  0  0
 35 39  2  0  0  0  0
 36 37  1  0  0  0  0
 36 38  1  0  0  0  0
 39 40  1  0  0  0  0
 40 41  1  0  0  0  0
 40 42  2  0  0  0  0
 42 43  1  0  0  0  0
M  BCL ATM P_TeTeTeTePi O_Te2Te2TeTe O_Te2Te2Te2Te O_Tr2Tr2TrPi P_TeTeTeTePi O_Te2Te2TeTe O_Tr2Tr2TrPi O_Tr2TrTrPi2 P_TeTeTeTePi O_Tr2Tr2TrPi O_Te2Te2Te2Te O_Tr2TrTrPi2 O_Tr2TrTrPi2 C_TeTeTeTe H_S H_S C_TeTeTeTe H_S O_Te2Te2TeTe C_TeTeTeTe H_S O_Te2Te2TeTe H_S C_TeTeTeTe H_S O_Te2Te2TeTe H_S C_TeTeTeTe H_S N_TrTrTrPi2 C_TrTrTrPi H_S N_Tr2TrTrPi C_TrTrTrPi C_TrTrTrPi N_TrTrTrPi2 H_S H_S N_Tr2TrTrPi C_TrTrTrPi H_S N_Tr2TrTrPi C_TrTrTrPi
M  BCL BND ConjugatedSingleBond ConjugatedSingleBond ConjugatedDoubleBond ConjugatedSingleBond ConjugatedSingleBond ConjugatedDoubleBond ConjugatedSingleBond ConjugatedSingleBond ConjugatedDoubleBond ConjugatedSingleBond ConjugatedSingleBond ConjugatedSingleBond NonConjugatedSingleBond NonConjugatedSingleBond NonConjugatedSingleBond NonConjugatedSingleBond NonConjugatedSingleBond NonConjugatedSingleBondInRing NonConjugatedSingleBondInRing NonConjugatedSingleBondInRing NonConjugatedSingleBond NonConjugatedSingleBond NonConjugatedSingleBondInRing NonConjugatedSingleBond NonConjugatedSingleBond NonConjugatedSingleBond NonConjugatedSingleBondInRing NonConjugatedSingleBond NonConjugatedSingleBond NonConjugatedSingleBond AromaticSingleBond AromaticSingleBond NonConjugatedSingleBond AromaticDoubleBond AromaticSingleBond AromaticSingleBond AromaticDoubleBond ConjugatedSingleBond AromaticDoubleBond NonConjugatedSingleBond NonConjugatedSingleBond AromaticSingleBond NonConjugatedSingleBond AromaticDoubleBond AromaticSingleBond
M  BCL CHI   1   S   5   S   9   S  17   R  20   S  24   R  28   S
M  BCL DBI - - - - - - -
M  END
> <ConfClashScore>
0 

> <ConfOneFourInteractionScore>
-0.986026 

> <ConfScore>
0.128997 

> <ConfScorePBest>
0.00510745 

> <ConfTolerance>
2.07374 

$$$$
ATP.****
  PyMOL2.5          3D                             0

 43 45  0  0  0  0  0  0  0  0999 V2000
   -1.9473    6.6202    1.1711 P   0  0  0  1  0  0  0  0  0  0  0  0
   -2.8924    5.8433    0.0789 O   0  0  0  0  0  0  0  0  0  0  0  0
   -2.3902    8.1727    1.3052 O   0  5  0  1  0  0  0  0  0  0  0  0
   -0.4773    6.5660    1.0083 O   0  0  0  1  0  0  0  0  0  0  0  0
   -2.3253    4.5218    3.0351 P   0  0  0  1  0  0  0  0  0  0  0  0
   -2.0910    4.4043    4.4890 O   0  0  0  0  0  0  0  0  0  0  0  0
   -3.4455    3.7688    2.4307 O   0  0  0  1  0  0  0  0  0  0  0  0
   -2.4630    6.0761    2.6047 O   0  0  0  1  0  0  0  0  0  0  0  0
   -0.6018    3.4618    0.9763 P   0  0  0  1  0  0  0  0  0  0  0  0
    0.6293    3.9872    0.3449 O   0  0  0  1  0  0  0  0  0  0  0  0
   -1.9147    3.7593    0.0750 O   0  5  0  1  0  0  0  0  0  0  0  0
   -0.8969    4.1949    2.3749 O   0  0  0  1  0  0  0  0  0  0  0  0
   -0.5119    1.9385    1.3464 O   0  0  0  1  0  0  0  0  0  0  0  0
   -1.1556    0.8941    0.5714 C   0  0  0  1  0  0  0  0  0  0  0  0
   -0.4277    0.4187   -0.0523 H   0  0  0  1  0  0  0  0  0  0  0  0
   -1.9198    1.3284   -0.0388 H   0  0  0  1  0  0  0  0  0  0  0  0
   -1.7765   -0.1378    1.4884 C   0  0  0  1  0  0  0  0  0  0  0  0
   -2.2748   -0.8821    0.9031 H   0  0  0  1  0  0  0  0  0  0  0  0
   -0.7647   -0.7461    2.3106 O   0  0  0  1  0  0  0  0  0  0  0  0
   -2.7763    0.5393    2.4580 C   0  0  0  1  0  0  0  0  0  0  0  0
   -3.0812    1.4968    2.0904 H   0  0  0  1  0  0  0  0  0  0  0  0
   -3.9275   -0.2805    2.6650 O   0  0  0  1  0  0  0  0  0  0  0  0
   -4.3309   -0.4862    1.8185 H   0  0  0  1  0  0  0  0  0  0  0  0
   -1.9660    0.6766    3.7350 C   0  0  0  1  0  0  0  0  0  0  0  0
   -1.4126    1.5923    3.7445 H   0  0  0  1  0  0  0  0  0  0  0  0
   -2.8068    0.6156    4.8880 O   0  0  0  1  0  0  0  0  0  0  0  0
   -3.5582    0.0462    4.7070 H   0  0  0  1  0  0  0  0  0  0  0  0
   -1.0270   -0.5383    3.6685 C   0  0  0  1  0  0  0  0  0  0  0  0
   -1.5014   -1.3989    4.0918 H   0  0  0  1  0  0  0  0  0  0  0  0
    0.2144   -0.2613    4.3895 N   0  0  0  1  0  0  0  0  0  0  0  0
    0.7674   -1.0035    5.3876 C   0  0  0  1  0  0  0  0  0  0  0  0
    0.3343   -1.8822    5.7367 H   0  0  0  1  0  0  0  0  0  0  0  0
    1.8823   -0.5293    5.8734 N   0  0  0  1  0  0  0  0  0  0  0  0
    2.0962    0.6218    5.1313 C   0  0  0  1  0  0  0  0  0  0  0  0
    3.0800    1.6062    5.1293 C   0  0  0  1  0  0  0  0  0  0  0  0
    4.2129    1.5439    5.9334 N   0  0  0  1  0  0  0  0  0  0  0  0
    4.3559    0.7716    6.5195 H   0  0  0  1  0  0  0  0  0  0  0  0
    4.8682    2.2722    5.9140 H   0  0  0  1  0  0  0  0  0  0  0  0
    2.9977    2.6240    4.2656 N   0  0  0  1  0  0  0  0  0  0  0  0
    1.9449    2.6599    3.4336 C   0  0  0  1  0  0  0  0  0  0  0  0
    1.9150    3.4688    2.7806 H   0  0  0  1  0  0  0  0  0  0  0  0
    0.9367    1.8025    3.3319 N   0  0  0  1  0  0  0  0  0  0  0  0
    1.0630    0.7990    4.2013 C   0  0  0  1  0  0  0  0  0  0  0  0
  1  2  1  0  0  0  0
  1  3  1  0  0  0  0
  1  4  2  0  0  0  0
  1  8  1  0  0  0  0
  5  6  1  0  0  0  0
  5  7  2  0  0  0  0
  5  8  1  0  0  0  0
  5 12  1  0  0  0  0
  9 10  2  0  0  0  0
  9 11  1  0  0  0  0
  9 12  1  0  0  0  0
  9 13  1  0  0  0  0
 13 14  1  0  0  0  0
 14 15  1  0  0  0  0
 14 16  1  0  0  0  0
 14 17  1  0  0  0  0
 17 18  1  0  0  0  0
 17 19  1  0  0  0  0
 17 20  1  0  0  0  0
 19 28  1  0  0  0  0
 20 21  1  0  0  0  0
 20 22  1  0  0  0  0
 20 24  1  0  0  0  0
 22 23  1  0  0  0  0
 24 25  1  0  0  0  0
 24 26  1  0  0  0  0
 24 28  1  0  0  0  0
 26 27  1  0  0  0  0
 28 29  1  0  0  0  0
 28 30  1  0  0  0  0
 30 31  1  0  0  0  0
 30 43  1  0  0  0  0
 31 32  1  0  0  0  0
 31 33  2  0  0  0  0
 33 34  1  0  0  0  0
 34 35  1  0  0  0  0
 34 43  2  0  0  0  0
 35 36  1  0  0  0  0
 35 39  2  0  0  0  0
 36 37  1  0  0  0  0
 36 38  1  0  0  0  0
 39 40  1  0  0  0  0
 40 41  1  0  0  0  0
 40 42  2  0  0  0  0
 42 43  1  0  0  0  0
M  BCL ATM P_TeTeTeTePi O_Te2Te2TeTe O_Te2Te2Te2Te O_Tr2Tr2TrPi P_TeTeTeTePi O_Te2Te2TeTe O_Tr2Tr2TrPi O_Tr2TrTrPi2 P_TeTeTeTePi O_Tr2Tr2TrPi O_Te2Te2Te2Te O_Tr2TrTrPi2 O_Tr2TrTrPi2 C_TeTeTeTe H_S H_S C_TeTeTeTe H_S O_Te2Te2TeTe C_TeTeTeTe H_S O_Te2Te2TeTe H_S C_TeTeTeTe H_S O_Te2Te2TeTe H_S C_TeTeTeTe H_S N_TrTrTrPi2 C_TrTrTrPi H_S N_Tr2TrTrPi C_TrTrTrPi C_TrTrTrPi N_TrTrTrPi2 H_S H_S N_Tr2TrTrPi C_TrTrTrPi H_S N_Tr2TrTrPi C_TrTrTrPi
M  BCL BND ConjugatedSingleBond ConjugatedSingleBond ConjugatedDoubleBond ConjugatedSingleBond ConjugatedSingleBond ConjugatedDoubleBond ConjugatedSingleBond ConjugatedSingleBond ConjugatedDoubleBond ConjugatedSingleBond ConjugatedSingleBond ConjugatedSingleBond NonConjugatedSingleBond NonConjugatedSingleBond NonConjugatedSingleBond NonConjugatedSingleBond NonConjugatedSingleBond NonConjugatedSingleBondInRing NonConjugatedSingleBondInRing NonConjugatedSingleBondInRing NonConjugatedSingleBond NonConjugatedSingleBond NonConjugatedSingleBondInRing NonConjugatedSingleBond NonConjugatedSingleBond NonConjugatedSingleBond NonConjugatedSingleBondInRing NonConjugatedSingleBond NonConjugatedSingleBond NonConjugatedSingleBond AromaticSingleBond AromaticSingleBond NonConjugatedSingleBond AromaticDoubleBond AromaticSingleBond AromaticSingleBond AromaticDoubleBond ConjugatedSingleBond AromaticDoubleBond NonConjugatedSingleBond NonConjugatedSingleBond AromaticSingleBond NonConjugatedSingleBond AromaticDoubleBond AromaticSingleBond
M  BCL CHI   1   S   5   S   9   S  17   R  20   S  24   R  28   S
M  BCL DBI - - - - - - -
M  END
> <ConfClashScore>
0 

> <ConfOneFourInteractionScore>
-0.988217 

> <ConfScore>
0.137724 

> <ConfScorePBest>
0.00500445 

> <ConfTolerance>
2.35163 

$$$$
ATP.****
  PyMOL2.5          3D                             0

 43 45  0  0  0  0  0  0  0  0999 V2000
    1.1825    3.2604   -1.3455 P   0  0  0  1  0  0  0  0  0  0  0  0
    2.6586    3.1323   -2.0486 O   0  0  0  0  0  0  0  0  0  0  0  0
    0.5836    1.7720   -1.1207 O   0  5  0  1  0  0  0  0  0  0  0  0
    0.3250    4.0741   -2.2360 O   0  0  0  1  0  0  0  0  0  0  0  0
    0.1588    4.4498    1.0552 P   0  0  0  1  0  0  0  0  0  0  0  0
   -0.0825    3.5812    2.2287 O   0  0  0  0  0  0  0  0  0  0  0  0
    0.4399    5.8686    1.2782 O   0  0  0  1  0  0  0  0  0  0  0  0
    1.3644    3.8754    0.1396 O   0  0  0  1  0  0  0  0  0  0  0  0
   -1.7744    2.9149   -0.4052 P   0  0  0  1  0  0  0  0  0  0  0  0
   -1.6590    2.5926   -1.8451 O   0  0  0  1  0  0  0  0  0  0  0  0
   -3.3345    2.9541    0.0293 O   0  5  0  1  0  0  0  0  0  0  0  0
   -1.0971    4.3152    0.0445 O   0  0  0  1  0  0  0  0  0  0  0  0
   -1.1261    1.7426    0.4204 O   0  0  0  1  0  0  0  0  0  0  0  0
   -1.4091    0.3613    0.0952 C   0  0  0  1  0  0  0  0  0  0  0  0
   -0.5717   -0.0966   -0.3885 H   0  0  0  1  0  0  0  0  0  0  0  0
   -2.2706    0.2858   -0.5348 H   0  0  0  1  0  0  0  0  0  0  0  0
   -1.6678   -0.2731    1.4413 C   0  0  0  1  0  0  0  0  0  0  0  0
   -2.0480   -1.2636    1.3022 H   0  0  0  1  0  0  0  0  0  0  0  0
   -0.4597   -0.2984    2.2325 O   0  0  0  1  0  0  0  0  0  0  0  0
   -2.6588    0.5794    2.2629 C   0  0  0  1  0  0  0  0  0  0  0  0
   -2.6427    1.5988    1.9380 H   0  0  0  1  0  0  0  0  0  0  0  0
   -3.9859    0.0637    2.1497 O   0  0  0  1  0  0  0  0  0  0  0  0
   -4.3981    0.0466    3.0166 H   0  0  0  1  0  0  0  0  0  0  0  0
   -2.1452    0.4586    3.7167 C   0  0  0  1  0  0  0  0  0  0  0  0
   -1.8790    1.4186    4.1071 H   0  0  0  1  0  0  0  0  0  0  0  0
   -3.1334   -0.1402    4.5563 O   0  0  0  1  0  0  0  0  0  0  0  0
   -3.7978    0.5136    4.7858 H   0  0  0  1  0  0  0  0  0  0  0  0
   -0.9019   -0.4498    3.5981 C   0  0  0  1  0  0  0  0  0  0  0  0
   -1.1597   -1.4686    3.7994 H   0  0  0  1  0  0  0  0  0  0  0  0
    0.1420   -0.0174    4.5279 N   0  0  0  1  0  0  0  0  0  0  0  0
    1.1729    0.8325    4.2675 C   0  0  0  1  0  0  0  0  0  0  0  0
    1.3102    1.2764    3.3370 H   0  0  0  1  0  0  0  0  0  0  0  0
    1.9762    1.0483    5.2734 N   0  0  0  1  0  0  0  0  0  0  0  0
    1.4306    0.2851    6.2940 C   0  0  0  1  0  0  0  0  0  0  0  0
    1.7806    0.0449    7.6194 C   0  0  0  1  0  0  0  0  0  0  0  0
    2.8423    0.6859    8.2486 N   0  0  0  1  0  0  0  0  0  0  0  0
    3.4070    1.3084    7.7446 H   0  0  0  1  0  0  0  0  0  0  0  0
    3.0257    0.5151    9.1960 H   0  0  0  1  0  0  0  0  0  0  0  0
    1.0281   -0.7701    8.3665 N   0  0  0  1  0  0  0  0  0  0  0  0
   -0.0420   -1.3417    7.7920 C   0  0  0  1  0  0  0  0  0  0  0  0
   -0.5986   -1.9716    8.4044 H   0  0  0  1  0  0  0  0  0  0  0  0
   -0.4856   -1.2116    6.5477 N   0  0  0  1  0  0  0  0  0  0  0  0
    0.2852   -0.3834    5.8414 C   0  0  0  1  0  0  0  0  0  0  0  0
  1  2  1  0  0  0  0
  1  3  1  0  0  0  0
  1  4  2  0  0  0  0
  1  8  1  0  0  0  0
  5  6  1  0  0  0  0
  5  7  2  0  0  0  0
  5  8  1  0  0  0  0
  5 12  1  0  0  0  0
  9 10  2  0  0  0  0
  9 11  1  0  0  0  0
  9 12  1  0  0  0  0
  9 13  1  0  0  0  0
 13 14  1  0  0  0  0
 14 15  1  0  0  0  0
 14 16  1  0  0  0  0
 14 17  1  0  0  0  0
 17 18  1  0  0  0  0
 17 19  1  0  0  0  0
 17 20  1  0  0  0  0
 19 28  1  0  0  0  0
 20 21  1  0  0  0  0
 20 22  1  0  0  0  0
 20 24  1  0  0  0  0
 22 23  1  0  0  0  0
 24 25  1  0  0  0  0
 24 26  1  0  0  0  0
 24 28  1  0  0  0  0
 26 27  1  0  0  0  0
 28 29  1  0  0  0  0
 28 30  1  0  0  0  0
 30 31  1  0  0  0  0
 30 43  1  0  0  0  0
 31 32  1  0  0  0  0
 31 33  2  0  0  0  0
 33 34  1  0  0  0  0
 34 35  1  0  0  0  0
 34 43  2  0  0  0  0
 35 36  1  0  0  0  0
 35 39  2  0  0  0  0
 36 37  1  0  0  0  0
 36 38  1  0  0  0  0
 39 40  1  0  0  0  0
 40 41  1  0  0  0  0
 40 42  2  0  0  0  0
 42 43  1  0  0  0  0
M  BCL ATM P_TeTeTeTePi O_Te2Te2TeTe O_Te2Te2Te2Te O_Tr2Tr2TrPi P_TeTeTeTePi O_Te2Te2TeTe O_Tr2Tr2TrPi O_Tr2TrTrPi2 P_TeTeTeTePi O_Tr2Tr2TrPi O_Te2Te2Te2Te O_Tr2TrTrPi2 O_Tr2TrTrPi2 C_TeTeTeTe H_S H_S C_TeTeTeTe H_S O_Te2Te2TeTe C_TeTeTeTe H_S O_Te2Te2TeTe H_S C_TeTeTeTe H_S O_Te2Te2TeTe H_S C_TeTeTeTe H_S N_TrTrTrPi2 C_TrTrTrPi H_S N_Tr2TrTrPi C_TrTrTrPi C_TrTrTrPi N_TrTrTrPi2 H_S H_S N_Tr2TrTrPi C_TrTrTrPi H_S N_Tr2TrTrPi C_TrTrTrPi
M  BCL BND ConjugatedSingleBond ConjugatedSingleBond ConjugatedDoubleBond ConjugatedSingleBond ConjugatedSingleBond ConjugatedDoubleBond ConjugatedSingleBond ConjugatedSingleBond ConjugatedDoubleBond ConjugatedSingleBond ConjugatedSingleBond ConjugatedSingleBond NonConjugatedSingleBond NonConjugatedSingleBond NonConjugatedSingleBond NonConjugatedSingleBond NonConjugatedSingleBond NonConjugatedSingleBondInRing NonConjugatedSingleBondInRing NonConjugatedSingleBondInRing NonConjugatedSingleBond NonConjugatedSingleBond NonConjugatedSingleBondInRing NonConjugatedSingleBond NonConjugatedSingleBond NonConjugatedSingleBond NonConjugatedSingleBondInRing NonConjugatedSingleBond NonConjugatedSingleBond NonConjugatedSingleBond AromaticSingleBond AromaticSingleBond NonConjugatedSingleBond AromaticDoubleBond AromaticSingleBond AromaticSingleBond AromaticDoubleBond ConjugatedSingleBond AromaticDoubleBond NonConjugatedSingleBond NonConjugatedSingleBond AromaticSingleBond NonConjugatedSingleBond AromaticDoubleBond AromaticSingleBond
M  BCL CHI   1   S   5   S   9   S  17   R  20   S  24   R  28   S
M  BCL DBI - - - - - - -
M  END
> <ConfClashScore>
0 

> <ConfOneFourInteractionScore>
-0.985305 

> <ConfScore>
0.156361 

> <ConfScorePBest>
0.00490145 

> <ConfTolerance>
3.24115 

$$$$
