# created with PyMOL 2.4.0
@<TRIPOS>MOLECULE
ATP.****
43 45 1                 
SMALL
USER_CHARGES
@<TRIPOS>ATOM
1	   P	1.200	-0.226	-6.850	 P	1	UNK0	0.000	
2	   O	1.740	1.140	-6.672	O.2	1	UNK0	0.000	
3	   O	2.123	-1.036	-7.891	O.2	1	UNK0	0.000	
4	   O	-0.302	-0.139	-7.421	O.2	1	UNK0	0.000	
5	   P	0.255	-0.130	-4.446	 P	1	UNK0	0.000	
6	   O	0.810	1.234	-4.304	O.2	1	UNK0	0.000	
7	   O	-1.231	-0.044	-5.057	O.2	1	UNK0	0.000	
8	   O	1.192	-0.990	-5.433	O.3	1	UNK0	0.000	
9	   P	-0.745	0.068	-2.071	 P	1	UNK0	0.000	
10	   O	-2.097	0.143	-2.669	O.2	1	UNK0	0.000	
11	   O	-0.125	1.549	-1.957	O.2	1	UNK0	0.000	
12	   O	0.203	-0.840	-3.002	O.3	1	UNK0	0.000	
13	   O	-0.844	-0.587	-0.604	O.3	1	UNK0	0.000	
14	   C	-1.694	0.260	0.170	C.3	1	UNK0	0.000	
15	   H	-2.677	0.313	-0.297	 H	1	UNK0	0.000	
16	   H	-1.262	1.259	0.221	 H	1	UNK0	0.000	
17	   C	-1.831	-0.309	1.584	C.3	1	UNK0	0.000	
18	   H	-2.279	-1.297	1.483	 H	1	UNK0	0.000	
19	   O	-0.542	-0.355	2.234	O.3	1	UNK0	0.000	
20	   C	-2.683	0.630	2.465	C.3	1	UNK0	0.000	
21	   H	-2.726	1.647	2.075	 H	1	UNK0	0.000	
22	   O	-4.033	0.165	2.534	O.3	1	UNK0	0.000	
23	   H	-4.395	0.191	1.645	 H	1	UNK0	0.000	
24	   C	-2.011	0.555	3.856	C.3	1	UNK0	0.000	
25	   H	-1.690	1.529	4.224	 H	1	UNK0	0.000	
26	   O	-2.926	0.043	4.827	O.3	1	UNK0	0.000	
27	   H	-3.768	-0.095	4.388	 H	1	UNK0	0.000	
28	   C	-0.830	-0.418	3.647	C.3	1	UNK0	0.000	
29	   H	-1.069	-1.430	3.973	 H	1	UNK0	0.000	
30	   N	0.332	0.015	4.425	N.pl3	1	UNK0	0.000	
31	   C	1.302	0.879	4.012	C.2	1	UNK0	0.000	
32	   H	1.334	1.358	3.045	 H	1	UNK0	0.000	
33	   N	2.184	1.042	4.955	N.2	1	UNK0	0.000	
34	   C	1.833	0.300	6.033	C.2	1	UNK0	0.000	
35	   C	2.391	0.077	7.303	C.2	1	UNK0	0.000	
36	   N	3.564	0.706	7.681	N.pl3	1	UNK0	0.000	
37	   H	3.953	0.541	8.599	 H	1	UNK0	0.000	
38	   H	4.032	1.330	7.039	 H	1	UNK0	0.000	
39	   N	1.763	-0.747	8.135	N.2	1	UNK0	0.000	
40	   C	0.644	-1.352	7.783	C.2	1	UNK0	0.000	
41	   H	0.167	-2.014	8.490	 H	1	UNK0	0.000	
42	   N	0.088	-1.178	6.602	N.2	1	UNK0	0.000	
43	   C	0.644	-0.371	5.704	C.2	1	UNK0	0.000	
@<TRIPOS>BOND
1 1 2 ar
2 1 3 ar
3 1 4 ar
4 1 8 1
5 5 6 ar
6 5 7 ar
7 5 8 1
8 5 12 1
9 9 10 ar
10 9 11 ar
11 9 12 1
12 9 13 1
13 13 14 1
14 14 15 1
15 14 16 1
16 14 17 1
17 17 18 1
18 17 19 1
19 17 20 1
20 19 28 1
21 20 21 1
22 20 22 1
23 20 24 1
24 22 23 1
25 24 25 1
26 24 26 1
27 24 28 1
28 26 27 1
29 28 29 1
30 28 30 1
31 30 31 1
32 30 43 1
33 31 32 1
34 31 33 2
35 33 34 1
36 34 35 ar
37 34 43 ar
38 35 36 1
39 35 39 ar
40 36 37 1
41 36 38 1
42 39 40 ar
43 40 41 1
44 40 42 ar
45 42 43 ar
@<TRIPOS>SUBSTRUCTURE
1	UNK0	1	GROUP	1 ****	UNK
