# created with PyMOL 2.5.2
@<TRIPOS>MOLECULE
GLC
24 24 1                 
SMALL
USER_CHARGES
@<TRIPOS>ATOM
1	  C1	-0.567	1.572	-0.245	C.3	1	GLC0	0.000	
2	  C2	-1.578	0.465	-0.554	C.3	1	GLC0	0.000	
3	  C3	-1.179	-0.806	0.203	C.3	1	GLC0	0.000	
4	  C4	0.249	-1.195	-0.192	C.3	1	GLC0	0.000	
5	  C5	1.189	-0.024	0.102	C.3	1	GLC0	0.000	
6	  C6	2.607	-0.383	-0.345	C.3	1	GLC0	0.000	
7	  O1	-0.600	1.871	1.151	O.3	1	GLC0	0.000	
8	  O2	-2.881	0.879	-0.139	O.3	1	GLC0	0.000	
9	  O3	-2.075	-1.866	-0.137	O.3	1	GLC0	0.000	
10	  O4	0.658	-2.338	0.562	O.3	1	GLC0	0.000	
11	  O5	0.744	1.133	-0.608	O.3	1	GLC0	0.000	
12	  O6	3.506	0.661	0.035	O.3	1	GLC0	0.000	
13	  H1	-0.822	2.466	-0.815	 H	1	GLC0	0.000	
14	  H2	-1.583	0.264	-1.626	 H	1	GLC0	0.000	
15	  H3	-1.223	-0.619	1.276	 H	1	GLC0	0.000	
16	  H4	0.281	-1.429	-1.257	 H	1	GLC0	0.000	
17	  H5	1.187	0.184	1.173	 H	1	GLC0	0.000	
18	 H61	2.913	-1.315	0.129	 H	1	GLC0	0.000	
19	 H62	2.627	-0.503	-1.428	 H	1	GLC0	0.000	
20	 HO1	0.017	2.566	1.420	 H	1	GLC0	0.000	
21	 HO2	-3.197	1.682	-0.576	 H	1	GLC0	0.000	
22	 HO3	-3.000	-1.684	0.080	 H	1	GLC0	0.000	
23	 HO4	0.102	-3.118	0.427	 H	1	GLC0	0.000	
24	 HO6	4.425	0.501	-0.218	 H	1	GLC0	0.000	
@<TRIPOS>BOND
1 1 2 1
2 1 7 1
3 1 11 1
4 1 13 1
5 2 3 1
6 2 8 1
7 2 14 1
8 3 4 1
9 3 9 1
10 3 15 1
11 4 5 1
12 4 10 1
13 4 16 1
14 5 6 1
15 5 11 1
16 5 17 1
17 6 12 1
18 6 18 1
19 6 19 1
20 7 20 1
21 8 21 1
22 9 22 1
23 10 23 1
24 12 24 1
@<TRIPOS>SUBSTRUCTURE
1	GLC0	1	GROUP	1 ****	GLC
