# created with PyMOL 2.4.0
@<TRIPOS>MOLECULE
GLC.****
24 24 1                 
SMALL
USER_CHARGES
@<TRIPOS>ATOM
1	   C	-0.567	1.572	-0.245	C.3	1	UNK0	0.000	
2	   H	-0.822	2.467	-0.813	 H	1	UNK0	0.000	
3	   C	-1.578	0.465	-0.554	C.3	1	UNK0	0.000	
4	   H	-1.588	0.266	-1.626	 H	1	UNK0	0.000	
5	   C	-1.179	-0.806	0.203	C.3	1	UNK0	0.000	
6	   H	-1.228	-0.626	1.277	 H	1	UNK0	0.000	
7	   C	0.249	-1.195	-0.192	C.3	1	UNK0	0.000	
8	   H	0.283	-1.434	-1.255	 H	1	UNK0	0.000	
9	   C	1.189	-0.024	0.102	C.3	1	UNK0	0.000	
10	   H	1.188	0.183	1.172	 H	1	UNK0	0.000	
11	   C	2.607	-0.383	-0.345	C.3	1	UNK0	0.000	
12	   H	2.627	-0.503	-1.428	 H	1	UNK0	0.000	
13	   H	2.912	-1.316	0.130	 H	1	UNK0	0.000	
14	   O	-0.600	1.871	1.151	O.3	1	UNK0	0.000	
15	   H	-0.373	1.068	1.625	 H	1	UNK0	0.000	
16	   O	-2.881	0.879	-0.139	O.3	1	UNK0	0.000	
17	   H	-2.845	1.048	0.805	 H	1	UNK0	0.000	
18	   O	-2.075	-1.866	-0.137	O.3	1	UNK0	0.000	
19	   H	-2.959	-1.592	0.119	 H	1	UNK0	0.000	
20	   O	0.658	-2.338	0.562	O.3	1	UNK0	0.000	
21	   H	0.050	-3.053	0.358	 H	1	UNK0	0.000	
22	   O	0.744	1.133	-0.608	O.3	1	UNK0	0.000	
23	   O	3.506	0.661	0.035	O.3	1	UNK0	0.000	
24	   H	3.214	1.467	-0.396	 H	1	UNK0	0.000	
@<TRIPOS>BOND
1 1 2 1
2 1 3 1
3 1 14 1
4 1 22 1
5 3 4 1
6 3 5 1
7 3 16 1
8 5 6 1
9 5 7 1
10 5 18 1
11 7 8 1
12 7 9 1
13 7 20 1
14 9 10 1
15 9 11 1
16 9 22 1
17 11 12 1
18 11 13 1
19 11 23 1
20 14 15 1
21 16 17 1
22 18 19 1
23 20 21 1
24 23 24 1
@<TRIPOS>SUBSTRUCTURE
1	UNK0	1	GROUP	1 ****	UNK
