GLC.****
     RDKit          3D

 24 24  0  0  0  0  0  0  0  0999 V2000
   -0.5670    1.5720   -0.2450 C   0  0  1  0  0  0  0  0  0  0  0  0
   -0.8220    2.4670   -0.8130 H   0  0  0  0  0  0  0  0  0  0  0  0
   -1.5780    0.4650   -0.5540 C   0  0  1  0  0  0  0  0  0  0  0  0
   -1.5880    0.2660   -1.6260 H   0  0  0  0  0  0  0  0  0  0  0  0
   -1.1790   -0.8060    0.2030 C   0  0  2  0  0  0  0  0  0  0  0  0
   -1.2280   -0.6260    1.2770 H   0  0  0  0  0  0  0  0  0  0  0  0
    0.2490   -1.1950   -0.1920 C   0  0  1  0  0  0  0  0  0  0  0  0
    0.2830   -1.4340   -1.2550 H   0  0  0  0  0  0  0  0  0  0  0  0
    1.1890   -0.0240    0.1020 C   0  0  1  0  0  0  0  0  0  0  0  0
    1.1880    0.1830    1.1720 H   0  0  0  0  0  0  0  0  0  0  0  0
    2.6070   -0.3830   -0.3450 C   0  0  0  0  0  0  0  0  0  0  0  0
    2.6270   -0.5030   -1.4280 H   0  0  0  0  0  0  0  0  0  0  0  0
    2.9120   -1.3160    0.1300 H   0  0  0  0  0  0  0  0  0  0  0  0
   -0.6000    1.8710    1.1510 O   0  0  0  0  0  0  0  0  0  0  0  0
   -0.3730    1.0680    1.6250 H   0  0  0  0  0  0  0  0  0  0  0  0
   -2.8810    0.8790   -0.1390 O   0  0  0  0  0  0  0  0  0  0  0  0
   -2.8450    1.0480    0.8050 H   0  0  0  0  0  0  0  0  0  0  0  0
   -2.0750   -1.8660   -0.1370 O   0  0  0  0  0  0  0  0  0  0  0  0
   -2.9590   -1.5920    0.1190 H   0  0  0  0  0  0  0  0  0  0  0  0
    0.6580   -2.3380    0.5620 O   0  0  0  0  0  0  0  0  0  0  0  0
    0.0500   -3.0530    0.3580 H   0  0  0  0  0  0  0  0  0  0  0  0
    0.7440    1.1330   -0.6080 O   0  0  0  0  0  0  0  0  0  0  0  0
    3.5060    0.6610    0.0350 O   0  0  0  0  0  0  0  0  0  0  0  0
    3.2140    1.4670   -0.3960 H   0  0  0  0  0  0  0  0  0  0  0  0
  1  2  1  6
  1  3  1  0
  1 14  1  0
  1 22  1  0
  3  4  1  6
  3  5  1  0
  3 16  1  0
  5  6  1  1
  5  7  1  0
  5 18  1  0
  7  8  1  6
  7  9  1  0
  7 20  1  0
  9 10  1  1
  9 11  1  0
  9 22  1  0
 11 12  1  0
 11 13  1  0
 11 23  1  0
 14 15  1  0
 16 17  1  0
 18 19  1  0
 20 21  1  0
 23 24  1  0
M  END
