# created with PyMOL 2.5.2
@<TRIPOS>MOLECULE
GLN
20 19 1                 
SMALL
USER_CHARGES
@<TRIPOS>ATOM
1	   N	1.858	-0.148	1.125	N.3	1	GLN0	0.000	
2	  CA	0.517	0.451	1.112	C.3	1	GLN0	0.000	
3	   C	-0.236	0.022	2.344	C.2	1	GLN0	0.000	
4	   O	-0.005	-1.049	2.851	O.co2	1	GLN0	0.000	
5	  CB	-0.236	-0.013	-0.135	C.3	1	GLN0	0.000	
6	  CG	0.529	0.421	-1.385	C.3	1	GLN0	0.000	
7	  CD	-0.213	-0.036	-2.614	C.2	1	GLN0	0.000	
8	 OE1	-1.252	-0.650	-2.500	O.2	1	GLN0	0.000	
9	 NE2	0.277	0.236	-3.839	N.pl3	1	GLN0	0.000	
10	 OXT	-1.165	0.831	2.878	O.3	1	GLN0	0.000	
11	   H	1.729	-1.148	1.137	 H	1	GLN0	0.000	
12	  H2	2.286	0.078	0.240	 H	1	GLN0	0.000	
13	  HA	0.605	1.537	1.099	 H	1	GLN0	0.000	
14	 HB2	-0.324	-1.100	-0.122	 H	1	GLN0	0.000	
15	 HB3	-1.231	0.431	-0.144	 H	1	GLN0	0.000	
16	 HG2	0.617	1.508	-1.398	 H	1	GLN0	0.000	
17	 HG3	1.524	-0.023	-1.375	 H	1	GLN0	0.000	
18	HE21	-0.200	-0.058	-4.630	 H	1	GLN0	0.000	
19	HE22	1.109	0.727	-3.930	 H	1	GLN0	0.000	
20	 HXT	-1.649	0.556	3.669	 H	1	GLN0	0.000	
@<TRIPOS>BOND
1 1 2 1
2 1 11 1
3 1 12 1
4 2 3 1
5 2 5 1
6 2 13 1
7 3 4 2
8 3 10 1
9 5 6 1
10 5 14 1
11 5 15 1
12 6 7 1
13 6 16 1
14 6 17 1
15 7 8 2
16 7 9 1
17 9 18 1
18 9 19 1
19 10 20 1
@<TRIPOS>SUBSTRUCTURE
1	GLN0	1	GROUP	1 ****	GLN
