# created with PyMOL 2.4.0
@<TRIPOS>MOLECULE
GLN.****
20 19 1                 
SMALL
USER_CHARGES
@<TRIPOS>ATOM
1	   N	1.858	-0.148	1.125	N.4	1	UNK0	0.000	
2	   H	1.777	-1.155	1.136	 H	1	UNK0	0.000	
3	   H	2.356	0.159	1.949	 H	1	UNK0	0.000	
4	   H	2.363	0.140	0.299	 H	1	UNK0	0.000	
5	   C	0.517	0.451	1.112	C.3	1	UNK0	0.000	
6	   H	0.604	1.538	1.100	 H	1	UNK0	0.000	
7	   C	-0.236	0.022	2.344	C.2	1	UNK0	0.000	
8	   O	-0.005	-1.049	2.851	O.co2	1	UNK0	0.000	
9	   C	-0.236	-0.013	-0.135	C.3	1	UNK0	0.000	
10	   H	-1.231	0.433	-0.145	 H	1	UNK0	0.000	
11	   H	-0.324	-1.099	-0.122	 H	1	UNK0	0.000	
12	   C	0.529	0.421	-1.385	C.3	1	UNK0	0.000	
13	   H	1.524	-0.025	-1.375	 H	1	UNK0	0.000	
14	   H	0.618	1.507	-1.398	 H	1	UNK0	0.000	
15	   C	-0.213	-0.036	-2.614	C.2	1	UNK0	0.000	
16	   O	-1.252	-0.650	-2.500	O.2	1	UNK0	0.000	
17	   N	0.277	0.236	-3.839	N.pl3	1	UNK0	0.000	
18	   H	1.143	0.748	-3.934	 H	1	UNK0	0.000	
19	   H	-0.221	-0.072	-4.662	 H	1	UNK0	0.000	
20	   O	-1.165	0.831	2.878	O.co2	1	UNK0	0.000	
@<TRIPOS>BOND
1 1 2 1
2 1 3 1
3 1 4 1
4 1 5 1
5 5 6 1
6 5 7 1
7 5 9 1
8 7 8 ar
9 7 20 ar
10 9 10 1
11 9 11 1
12 9 12 1
13 12 13 1
14 12 14 1
15 12 15 1
16 15 16 2
17 15 17 1
18 17 18 1
19 17 19 1
@<TRIPOS>SUBSTRUCTURE
1	UNK0	1	GROUP	1 ****	UNK
