GLN.****
  PyMOL2.4          3D                             0

 20 19  0  0  1  0  0  0  0  0999 V2000
    1.8580   -0.1480    1.1250 N   0  3  0  0  0  0  0  0  0  0  0  0
    1.7770   -1.1550    1.1360 H   0  0  0  0  0  0  0  0  0  0  0  0
    2.3560    0.1590    1.9490 H   0  0  0  0  0  0  0  0  0  0  0  0
    2.3630    0.1400    0.2990 H   0  0  0  0  0  0  0  0  0  0  0  0
    0.5170    0.4510    1.1120 C   0  0  2  0  0  0  0  0  0  0  0  0
    0.6040    1.5380    1.1000 H   0  0  0  0  0  0  0  0  0  0  0  0
   -0.2360    0.0220    2.3440 C   0  0  0  0  0  0  0  0  0  0  0  0
   -0.0050   -1.0490    2.8510 O   0  5  0  0  0  0  0  0  0  0  0  0
   -0.2360   -0.0130   -0.1350 C   0  0  0  0  0  0  0  0  0  0  0  0
   -1.2310    0.4330   -0.1450 H   0  0  0  0  0  0  0  0  0  0  0  0
   -0.3240   -1.0990   -0.1220 H   0  0  0  0  0  0  0  0  0  0  0  0
    0.5290    0.4210   -1.3850 C   0  0  0  0  0  0  0  0  0  0  0  0
    1.5240   -0.0250   -1.3750 H   0  0  0  0  0  0  0  0  0  0  0  0
    0.6180    1.5070   -1.3980 H   0  0  0  0  0  0  0  0  0  0  0  0
   -0.2130   -0.0360   -2.6140 C   0  0  0  0  0  0  0  0  0  0  0  0
   -1.2520   -0.6500   -2.5000 O   0  0  0  0  0  0  0  0  0  0  0  0
    0.2770    0.2360   -3.8390 N   0  0  0  0  0  0  0  0  0  0  0  0
    1.1430    0.7480   -3.9340 H   0  0  0  0  0  0  0  0  0  0  0  0
   -0.2210   -0.0720   -4.6620 H   0  0  0  0  0  0  0  0  0  0  0  0
   -1.1650    0.8310    2.8780 O   0  0  0  0  0  0  0  0  0  0  0  0
  1  2  1  0  0  0  0
  1  3  1  0  0  0  0
  1  4  1  0  0  0  0
  1  5  1  0  0  0  0
  5  6  1  6  0  0  0
  5  7  1  0  0  0  0
  5  9  1  0  0  0  0
  7  8  1  0  0  0  0
  7 20  2  0  0  0  0
  9 10  1  0  0  0  0
  9 11  1  0  0  0  0
  9 12  1  0  0  0  0
 12 13  1  0  0  0  0
 12 14  1  0  0  0  0
 12 15  1  0  0  0  0
 15 16  2  0  0  0  0
 15 17  1  0  0  0  0
 17 18  1  0  0  0  0
 17 19  1  0  0  0  0
M  END
$$$$
