GLN.****
  PyMOL2.4          3D                             0

 20 19  0  0  0  0  0  0  0  0999 V2000
    1.8697   -0.1335    1.1480 N   0  3  0  1  0  0  0  0  0  0  0  0
    2.2562   -0.1966    2.1222 H   0  0  0  1  0  0  0  0  0  0  0  0
    2.5138    0.4441    0.5529 H   0  0  0  1  0  0  0  0  0  0  0  0
    1.7875   -1.0980    0.7412 H   0  0  0  1  0  0  0  0  0  0  0  0
    0.5243    0.5049    1.1871 C   0  0  0  1  0  0  0  0  0  0  0  0
    0.6688    1.5147    1.5099 H   0  0  0  1  0  0  0  0  0  0  0  0
   -0.2850   -0.1669    2.2425 C   0  0  0  1  0  0  0  0  0  0  0  0
   -1.3434    0.5959    2.6265 O   0  5  0  1  0  0  0  0  0  0  0  0
   -0.1201    0.5771   -0.1839 C   0  0  0  1  0  0  0  0  0  0  0  0
   -1.1303    0.9099   -0.0669 H   0  0  0  1  0  0  0  0  0  0  0  0
   -0.1144   -0.4029   -0.6134 H   0  0  0  1  0  0  0  0  0  0  0  0
    0.5923    1.5245   -1.1353 C   0  0  0  1  0  0  0  0  0  0  0  0
    1.5560    1.1127   -1.3512 H   0  0  0  1  0  0  0  0  0  0  0  0
    0.7089    2.4651   -0.6387 H   0  0  0  1  0  0  0  0  0  0  0  0
   -0.1148    1.7757   -2.4529 C   0  0  0  1  0  0  0  0  0  0  0  0
   -1.2379    1.3234   -2.6712 O   0  0  0  1  0  0  0  0  0  0  0  0
    0.5622    2.5139   -3.3467 N   0  0  0  1  0  0  0  0  0  0  0  0
    1.4336    2.8941   -3.1086 H   0  0  0  1  0  0  0  0  0  0  0  0
    0.1852    2.6727   -4.2372 H   0  0  0  1  0  0  0  0  0  0  0  0
   -0.0388   -1.2656    2.7123 O   0  0  0  1  0  0  0  0  0  0  0  0
  1  2  1  0  0  0  0
  1  3  1  0  0  0  0
  1  4  1  0  0  0  0
  1  5  1  0  0  0  0
  5  6  1  0  0  0  0
  5  7  1  0  0  0  0
  5  9  1  0  0  0  0
  7  8  1  0  0  0  0
  7 20  2  0  0  0  0
  9 10  1  0  0  0  0
  9 11  1  0  0  0  0
  9 12  1  0  0  0  0
 12 13  1  0  0  0  0
 12 14  1  0  0  0  0
 12 15  1  0  0  0  0
 15 16  2  0  0  0  0
 15 17  1  0  0  0  0
 17 18  1  0  0  0  0
 17 19  1  0  0  0  0
M  END
> <ConfClashScore>
0 

> <ConfOneFourInteractionScore>
-0.999576 

> <ConfScore>
-0.21476 

> <ConfScorePBest>
0.0150985 

> <ConfTolerance>
0.25 

$$$$
GLN.****
  PyMOL2.4          3D                             0

 20 19  0  0  0  0  0  0  0  0999 V2000
    1.8838   -0.0800    1.1634 N   0  3  0  1  0  0  0  0  0  0  0  0
    2.3313   -0.0861    0.2136 H   0  0  0  1  0  0  0  0  0  0  0  0
    2.0151   -1.0173    1.6181 H   0  0  0  1  0  0  0  0  0  0  0  0
    2.3309    0.6627    1.7559 H   0  0  0  1  0  0  0  0  0  0  0  0
    0.4280    0.2050    1.0253 C   0  0  0  1  0  0  0  0  0  0  0  0
    0.2898    1.1625    0.5682 H   0  0  0  1  0  0  0  0  0  0  0  0
   -0.1766    0.2201    2.3871 C   0  0  0  1  0  0  0  0  0  0  0  0
   -1.4082    0.7969    2.3841 O   0  5  0  1  0  0  0  0  0  0  0  0
   -0.2185   -0.8612    0.1544 C   0  0  0  1  0  0  0  0  0  0  0  0
   -0.0233   -1.8249    0.5765 H   0  0  0  1  0  0  0  0  0  0  0  0
    0.1989   -0.8111   -0.8295 H   0  0  0  1  0  0  0  0  0  0  0  0
   -1.7213   -0.6493    0.0697 C   0  0  0  1  0  0  0  0  0  0  0  0
   -1.9164    0.3313   -0.3113 H   0  0  0  1  0  0  0  0  0  0  0  0
   -2.1445   -0.7431    1.0480 H   0  0  0  1  0  0  0  0  0  0  0  0
   -2.3625   -1.6822   -0.8543 C   0  0  0  1  0  0  0  0  0  0  0  0
   -1.7063   -2.6163   -1.3128 O   0  0  0  1  0  0  0  0  0  0  0  0
   -3.6321   -1.4417   -1.1745 N   0  0  0  1  0  0  0  0  0  0  0  0
   -4.1100   -0.6953   -0.7563 H   0  0  0  1  0  0  0  0  0  0  0  0
   -4.0888   -2.0110   -1.8285 H   0  0  0  1  0  0  0  0  0  0  0  0
    0.3574   -0.2266    3.3889 O   0  0  0  1  0  0  0  0  0  0  0  0
  1  2  1  0  0  0  0
  1  3  1  0  0  0  0
  1  4  1  0  0  0  0
  1  5  1  0  0  0  0
  5  6  1  0  0  0  0
  5  7  1  0  0  0  0
  5  9  1  0  0  0  0
  7  8  1  0  0  0  0
  7 20  2  0  0  0  0
  9 10  1  0  0  0  0
  9 11  1  0  0  0  0
  9 12  1  0  0  0  0
 12 13  1  0  0  0  0
 12 14  1  0  0  0  0
 12 15  1  0  0  0  0
 15 16  2  0  0  0  0
 15 17  1  0  0  0  0
 17 18  1  0  0  0  0
 17 19  1  0  0  0  0
M  END
> <ConfClashScore>
0 

> <ConfOneFourInteractionScore>
-0.999576 

> <ConfScore>
-0.211029 

> <ConfScorePBest>
0.0149955 

> <ConfTolerance>
0.25 

$$$$
GLN.****
  PyMOL2.4          3D                             0

 20 19  0  0  0  0  0  0  0  0999 V2000
    1.8633   -0.2033    1.1019 N   0  3  0  1  0  0  0  0  0  0  0  0
    1.7728   -1.2397    0.9604 H   0  0  0  1  0  0  0  0  0  0  0  0
    2.3603   -0.0160    2.0076 H   0  0  0  1  0  0  0  0  0  0  0  0
    2.4121    0.2115    0.3086 H   0  0  0  1  0  0  0  0  0  0  0  0
    0.4972    0.4180    1.1435 C   0  0  0  1  0  0  0  0  0  0  0  0
    0.6168    1.4813    1.1372 H   0  0  0  1  0  0  0  0  0  0  0  0
   -0.2600    0.0484    2.3723 C   0  0  0  1  0  0  0  0  0  0  0  0
   -0.8855    1.1245    2.9204 O   0  5  0  1  0  0  0  0  0  0  0  0
   -0.2247    0.0286   -0.1322 C   0  0  0  1  0  0  0  0  0  0  0  0
   -1.1443    0.5733   -0.1814 H   0  0  0  1  0  0  0  0  0  0  0  0
   -0.4323   -1.0205   -0.0978 H   0  0  0  1  0  0  0  0  0  0  0  0
    0.5761    0.3204   -1.3908 C   0  0  0  1  0  0  0  0  0  0  0  0
    1.4302   -0.3242   -1.3954 H   0  0  0  1  0  0  0  0  0  0  0  0
    0.8983    1.3398   -1.3481 H   0  0  0  1  0  0  0  0  0  0  0  0
   -0.1686    0.1195   -2.6962 C   0  0  0  1  0  0  0  0  0  0  0  0
   -1.2339   -0.4906   -2.7349 O   0  0  0  1  0  0  0  0  0  0  0  0
    0.4113    0.6475   -3.7857 N   0  0  0  1  0  0  0  0  0  0  0  0
   -0.0205    0.5610   -4.6612 H   0  0  0  1  0  0  0  0  0  0  0  0
    1.2663    1.1195   -3.7055 H   0  0  0  1  0  0  0  0  0  0  0  0
   -0.3193   -1.0772    2.8392 O   0  0  0  1  0  0  0  0  0  0  0  0
  1  2  1  0  0  0  0
  1  3  1  0  0  0  0
  1  4  1  0  0  0  0
  1  5  1  0  0  0  0
  5  6  1  0  0  0  0
  5  7  1  0  0  0  0
  5  9  1  0  0  0  0
  7  8  1  0  0  0  0
  7 20  2  0  0  0  0
  9 10  1  0  0  0  0
  9 11  1  0  0  0  0
  9 12  1  0  0  0  0
 12 13  1  0  0  0  0
 12 14  1  0  0  0  0
 12 15  1  0  0  0  0
 15 16  2  0  0  0  0
 15 17  1  0  0  0  0
 17 18  1  0  0  0  0
 17 19  1  0  0  0  0
M  END
> <ConfClashScore>
0 

> <ConfOneFourInteractionScore>
-0.999576 

> <ConfScore>
-0.210949 

> <ConfScorePBest>
0.0148925 

> <ConfTolerance>
0.25 

$$$$
GLN.****
  PyMOL2.4          3D                             0

 20 19  0  0  0  0  0  0  0  0999 V2000
    1.8521   -0.1557    1.1510 N   0  3  0  1  0  0  0  0  0  0  0  0
    2.3396   -0.0363    0.2288 H   0  0  0  1  0  0  0  0  0  0  0  0
    1.8865   -1.1656    1.4366 H   0  0  0  1  0  0  0  0  0  0  0  0
    2.3312    0.4307    1.8784 H   0  0  0  1  0  0  0  0  0  0  0  0
    0.4319    0.2755    1.0223 C   0  0  0  1  0  0  0  0  0  0  0  0
    0.4007    1.2865    0.6733 H   0  0  0  1  0  0  0  0  0  0  0  0
   -0.1757    0.2181    2.3816 C   0  0  0  1  0  0  0  0  0  0  0  0
   -1.0716    1.1940    2.6891 O   0  5  0  1  0  0  0  0  0  0  0  0
   -0.3186   -0.5868    0.0657 C   0  0  0  1  0  0  0  0  0  0  0  0
   -0.2489   -1.5938    0.4206 H   0  0  0  1  0  0  0  0  0  0  0  0
    0.1674   -0.5084   -0.8843 H   0  0  0  1  0  0  0  0  0  0  0  0
   -1.7950   -0.2823   -0.1521 C   0  0  0  1  0  0  0  0  0  0  0  0
   -1.8984    0.7584   -0.3779 H   0  0  0  1  0  0  0  0  0  0  0  0
   -2.3256   -0.5065    0.7497 H   0  0  0  1  0  0  0  0  0  0  0  0
   -2.4091   -1.0886   -1.2893 C   0  0  0  1  0  0  0  0  0  0  0  0
   -1.7168   -1.7011   -2.0854 O   0  0  0  1  0  0  0  0  0  0  0  0
   -3.7507   -1.0499   -1.3149 N   0  0  0  1  0  0  0  0  0  0  0  0
   -4.2404   -1.5041   -2.0321 H   0  0  0  1  0  0  0  0  0  0  0  0
   -4.2405   -0.5676   -0.6164 H   0  0  0  1  0  0  0  0  0  0  0  0
    0.1569   -0.6844    3.1321 O   0  0  0  1  0  0  0  0  0  0  0  0
  1  2  1  0  0  0  0
  1  3  1  0  0  0  0
  1  4  1  0  0  0  0
  1  5  1  0  0  0  0
  5  6  1  0  0  0  0
  5  7  1  0  0  0  0
  5  9  1  0  0  0  0
  7  8  1  0  0  0  0
  7 20  2  0  0  0  0
  9 10  1  0  0  0  0
  9 11  1  0  0  0  0
  9 12  1  0  0  0  0
 12 13  1  0  0  0  0
 12 14  1  0  0  0  0
 12 15  1  0  0  0  0
 15 16  2  0  0  0  0
 15 17  1  0  0  0  0
 17 18  1  0  0  0  0
 17 19  1  0  0  0  0
M  END
> <ConfClashScore>
0 

> <ConfOneFourInteractionScore>
-0.999576 

> <ConfScore>
-0.201875 

> <ConfScorePBest>
0.0147895 

> <ConfTolerance>
0.25 

$$$$
GLN.****
  PyMOL2.4          3D                             0

 20 19  0  0  0  0  0  0  0  0999 V2000
    1.8997   -0.0685    1.1720 N   0  3  0  1  0  0  0  0  0  0  0  0
    1.9390   -1.0926    1.4006 H   0  0  0  1  0  0  0  0  0  0  0  0
    2.3970    0.4760    1.9195 H   0  0  0  1  0  0  0  0  0  0  0  0
    2.3651    0.1013    0.2462 H   0  0  0  1  0  0  0  0  0  0  0  0
    0.4780    0.3709    1.1006 C   0  0  0  1  0  0  0  0  0  0  0  0
    0.4538    1.4362    1.0035 H   0  0  0  1  0  0  0  0  0  0  0  0
   -0.2437   -0.0005    2.3502 C   0  0  0  1  0  0  0  0  0  0  0  0
   -1.5715    0.2815    2.2668 O   0  5  0  1  0  0  0  0  0  0  0  0
   -0.1650   -0.2312   -0.1339 C   0  0  0  1  0  0  0  0  0  0  0  0
   -0.2968   -1.2804    0.0297 H   0  0  0  1  0  0  0  0  0  0  0  0
    0.4901   -0.0790   -0.9661 H   0  0  0  1  0  0  0  0  0  0  0  0
   -1.5170    0.3782   -0.4672 C   0  0  0  1  0  0  0  0  0  0  0  0
   -1.3888    1.4297   -0.6181 H   0  0  0  1  0  0  0  0  0  0  0  0
   -2.1775    0.2138    0.3584 H   0  0  0  1  0  0  0  0  0  0  0  0
   -2.1451   -0.2152   -1.7132 C   0  0  0  1  0  0  0  0  0  0  0  0
   -1.6899   -1.2295   -2.2352 O   0  0  0  1  0  0  0  0  0  0  0  0
   -3.2148    0.4375   -2.1945 N   0  0  0  1  0  0  0  0  0  0  0  0
   -3.6274    0.1492   -3.0354 H   0  0  0  1  0  0  0  0  0  0  0  0
   -3.5833    1.2024   -1.7050 H   0  0  0  1  0  0  0  0  0  0  0  0
    0.2807   -0.4971    3.3334 O   0  0  0  1  0  0  0  0  0  0  0  0
  1  2  1  0  0  0  0
  1  3  1  0  0  0  0
  1  4  1  0  0  0  0
  1  5  1  0  0  0  0
  5  6  1  0  0  0  0
  5  7  1  0  0  0  0
  5  9  1  0  0  0  0
  7  8  1  0  0  0  0
  7 20  2  0  0  0  0
  9 10  1  0  0  0  0
  9 11  1  0  0  0  0
  9 12  1  0  0  0  0
 12 13  1  0  0  0  0
 12 14  1  0  0  0  0
 12 15  1  0  0  0  0
 15 16  2  0  0  0  0
 15 17  1  0  0  0  0
 17 18  1  0  0  0  0
 17 19  1  0  0  0  0
M  END
> <ConfClashScore>
0 

> <ConfOneFourInteractionScore>
-0.999576 

> <ConfScore>
-0.161833 

> <ConfScorePBest>
0.0146865 

> <ConfTolerance>
0.25 

$$$$
GLN.****
  PyMOL2.4          3D                             0

 20 19  0  0  0  0  0  0  0  0999 V2000
    1.8812   -0.0926    1.1754 N   0  3  0  1  0  0  0  0  0  0  0  0
    1.9003   -1.1392    1.2579 H   0  0  0  1  0  0  0  0  0  0  0  0
    2.3202    0.3335    2.0287 H   0  0  0  1  0  0  0  0  0  0  0  0
    2.4176    0.2008    0.3217 H   0  0  0  1  0  0  0  0  0  0  0  0
    0.4692    0.3718    1.0587 C   0  0  0  1  0  0  0  0  0  0  0  0
    0.4640    1.4379    0.9684 H   0  0  0  1  0  0  0  0  0  0  0  0
   -0.2042    0.0074    2.3369 C   0  0  0  1  0  0  0  0  0  0  0  0
   -1.4626    0.5185    2.4059 O   0  5  0  1  0  0  0  0  0  0  0  0
   -0.2533   -0.1963   -0.1149 C   0  0  0  1  0  0  0  0  0  0  0  0
    0.3021    0.0677   -0.9905 H   0  0  0  1  0  0  0  0  0  0  0  0
   -1.2177    0.2658   -0.1508 H   0  0  0  1  0  0  0  0  0  0  0  0
   -0.4689   -1.7005   -0.1502 C   0  0  0  1  0  0  0  0  0  0  0  0
   -0.9426   -1.9876    0.7653 H   0  0  0  1  0  0  0  0  0  0  0  0
    0.4902   -2.1699   -0.2186 H   0  0  0  1  0  0  0  0  0  0  0  0
   -1.3141   -2.2040   -1.2877 C   0  0  0  1  0  0  0  0  0  0  0  0
   -2.0161   -1.4983   -1.9883 O   0  0  0  1  0  0  0  0  0  0  0  0
   -1.2275   -3.5547   -1.4759 N   0  0  0  1  0  0  0  0  0  0  0  0
   -1.7534   -3.9859   -2.1815 H   0  0  0  1  0  0  0  0  0  0  0  0
   -0.6395   -4.0922   -0.9052 H   0  0  0  1  0  0  0  0  0  0  0  0
    0.3006   -0.6658    3.2203 O   0  0  0  1  0  0  0  0  0  0  0  0
  1  2  1  0  0  0  0
  1  3  1  0  0  0  0
  1  4  1  0  0  0  0
  1  5  1  0  0  0  0
  5  6  1  0  0  0  0
  5  7  1  0  0  0  0
  5  9  1  0  0  0  0
  7  8  1  0  0  0  0
  7 20  2  0  0  0  0
  9 10  1  0  0  0  0
  9 11  1  0  0  0  0
  9 12  1  0  0  0  0
 12 13  1  0  0  0  0
 12 14  1  0  0  0  0
 12 15  1  0  0  0  0
 15 16  2  0  0  0  0
 15 17  1  0  0  0  0
 17 18  1  0  0  0  0
 17 19  1  0  0  0  0
M  END
> <ConfClashScore>
0 

> <ConfOneFourInteractionScore>
-0.996705 

> <ConfScore>
-0.149302 

> <ConfScorePBest>
0.0145835 

> <ConfTolerance>
0.25 

$$$$
GLN.****
  PyMOL2.4          3D                             0

 20 19  0  0  0  0  0  0  0  0999 V2000
    1.8877   -0.0986    1.1627 N   0  3  0  1  0  0  0  0  0  0  0  0
    2.3134   -0.0426    2.1209 H   0  0  0  1  0  0  0  0  0  0  0  0
    2.4909    0.4245    0.4809 H   0  0  0  1  0  0  0  0  0  0  0  0
    1.8180   -1.1043    0.8692 H   0  0  0  1  0  0  0  0  0  0  0  0
    0.5266    0.5067    1.1871 C   0  0  0  1  0  0  0  0  0  0  0  0
    0.6197    1.5440    1.4324 H   0  0  0  1  0  0  0  0  0  0  0  0
   -0.2933   -0.1470    2.2457 C   0  0  0  1  0  0  0  0  0  0  0  0
   -1.5131    0.4093    2.4742 O   0  5  0  1  0  0  0  0  0  0  0  0
   -0.1304    0.4024   -0.1758 C   0  0  0  1  0  0  0  0  0  0  0  0
    0.5200    0.8455   -0.9007 H   0  0  0  1  0  0  0  0  0  0  0  0
   -1.0547    0.9407   -0.1489 H   0  0  0  1  0  0  0  0  0  0  0  0
   -0.4191   -1.0320   -0.5988 C   0  0  0  1  0  0  0  0  0  0  0  0
   -1.1881   -1.4157    0.0386 H   0  0  0  1  0  0  0  0  0  0  0  0
    0.4757   -1.6027   -0.4624 H   0  0  0  1  0  0  0  0  0  0  0  0
   -0.8714   -1.2075   -2.0354 C   0  0  0  1  0  0  0  0  0  0  0  0
   -0.9199   -0.2612   -2.8039 O   0  0  0  1  0  0  0  0  0  0  0  0
   -1.2082   -2.4570   -2.3922 N   0  0  0  1  0  0  0  0  0  0  0  0
   -1.6174   -2.6233   -3.2670 H   0  0  0  1  0  0  0  0  0  0  0  0
   -1.0449   -3.2029   -1.7779 H   0  0  0  1  0  0  0  0  0  0  0  0
    0.1135   -1.1183    2.8616 O   0  0  0  1  0  0  0  0  0  0  0  0
  1  2  1  0  0  0  0
  1  3  1  0  0  0  0
  1  4  1  0  0  0  0
  1  5  1  0  0  0  0
  5  6  1  0  0  0  0
  5  7  1  0  0  0  0
  5  9  1  0  0  0  0
  7  8  1  0  0  0  0
  7 20  2  0  0  0  0
  9 10  1  0  0  0  0
  9 11  1  0  0  0  0
  9 12  1  0  0  0  0
 12 13  1  0  0  0  0
 12 14  1  0  0  0  0
 12 15  1  0  0  0  0
 15 16  2  0  0  0  0
 15 17  1  0  0  0  0
 17 18  1  0  0  0  0
 17 19  1  0  0  0  0
M  END
> <ConfClashScore>
0 

> <ConfOneFourInteractionScore>
-0.996705 

> <ConfScore>
-0.148307 

> <ConfScorePBest>
0.0144805 

> <ConfTolerance>
0.25 

$$$$
GLN.****
  PyMOL2.4          3D                             0

 20 19  0  0  0  0  0  0  0  0999 V2000
    1.8984   -0.0829    1.1704 N   0  3  0  1  0  0  0  0  0  0  0  0
    1.8960   -1.1219    1.3220 H   0  0  0  1  0  0  0  0  0  0  0  0
    2.3901    0.3862    1.9708 H   0  0  0  1  0  0  0  0  0  0  0  0
    2.3979    0.1386    0.2738 H   0  0  0  1  0  0  0  0  0  0  0  0
    0.4952    0.4114    1.0918 C   0  0  0  1  0  0  0  0  0  0  0  0
    0.4736    1.4757    0.9832 H   0  0  0  1  0  0  0  0  0  0  0  0
   -0.2220    0.0062    2.3334 C   0  0  0  1  0  0  0  0  0  0  0  0
   -1.5120    0.4363    2.3138 O   0  5  0  1  0  0  0  0  0  0  0  0
   -0.2207   -0.2483   -0.0711 C   0  0  0  1  0  0  0  0  0  0  0  0
   -1.1910    0.1925   -0.1662 H   0  0  0  1  0  0  0  0  0  0  0  0
   -0.3218   -1.2922    0.1409 H   0  0  0  1  0  0  0  0  0  0  0  0
    0.5106   -0.0939   -1.3947 C   0  0  0  1  0  0  0  0  0  0  0  0
    1.3605   -0.7440   -1.3920 H   0  0  0  1  0  0  0  0  0  0  0  0
    0.8373    0.9208   -1.4869 H   0  0  0  1  0  0  0  0  0  0  0  0
   -0.3469   -0.4313   -2.5850 C   0  0  0  1  0  0  0  0  0  0  0  0
   -1.5574   -0.5440   -2.5409 O   0  0  0  1  0  0  0  0  0  0  0  0
    0.3214   -0.6149   -3.7764 N   0  0  0  1  0  0  0  0  0  0  0  0
    1.3009   -0.5939   -3.7971 H   0  0  0  1  0  0  0  0  0  0  0  0
   -0.1830   -0.7666   -4.6028 H   0  0  0  1  0  0  0  0  0  0  0  0
    0.2366   -0.6254    3.2710 O   0  0  0  1  0  0  0  0  0  0  0  0
  1  2  1  0  0  0  0
  1  3  1  0  0  0  0
  1  4  1  0  0  0  0
  1  5  1  0  0  0  0
  5  6  1  0  0  0  0
  5  7  1  0  0  0  0
  5  9  1  0  0  0  0
  7  8  1  0  0  0  0
  7 20  2  0  0  0  0
  9 10  1  0  0  0  0
  9 11  1  0  0  0  0
  9 12  1  0  0  0  0
 12 13  1  0  0  0  0
 12 14  1  0  0  0  0
 12 15  1  0  0  0  0
 15 16  2  0  0  0  0
 15 17  1  0  0  0  0
 17 18  1  0  0  0  0
 17 19  1  0  0  0  0
M  END
> <ConfClashScore>
0 

> <ConfOneFourInteractionScore>
-0.999576 

> <ConfScore>
-0.146448 

> <ConfScorePBest>
0.0143775 

> <ConfTolerance>
0.25 

$$$$
GLN.****
  PyMOL2.4          3D                             0

 20 19  0  0  0  0  0  0  0  0999 V2000
    1.8497   -0.1570    1.1525 N   0  3  0  1  0  0  0  0  0  0  0  0
    2.3438   -0.0118    0.2375 H   0  0  0  1  0  0  0  0  0  0  0  0
    1.8785   -1.1751    1.4078 H   0  0  0  1  0  0  0  0  0  0  0  0
    2.3259    0.4056    1.9003 H   0  0  0  1  0  0  0  0  0  0  0  0
    0.4319    0.2833    1.0274 C   0  0  0  1  0  0  0  0  0  0  0  0
    0.4065    1.2974    0.6871 H   0  0  0  1  0  0  0  0  0  0  0  0
   -0.1761    0.2179    2.3861 C   0  0  0  1  0  0  0  0  0  0  0  0
   -1.0593    1.2013    2.7059 O   0  5  0  1  0  0  0  0  0  0  0  0
   -0.3325   -0.5768    0.0518 C   0  0  0  1  0  0  0  0  0  0  0  0
    0.1349   -0.4837   -0.9062 H   0  0  0  1  0  0  0  0  0  0  0  0
   -1.3341   -0.2041   -0.0016 H   0  0  0  1  0  0  0  0  0  0  0  0
   -0.4011   -2.0554    0.3975 C   0  0  0  1  0  0  0  0  0  0  0  0
   -0.7495   -2.1540    1.4044 H   0  0  0  1  0  0  0  0  0  0  0  0
    0.5821   -2.4698    0.3175 H   0  0  0  1  0  0  0  0  0  0  0  0
   -1.3375   -2.8427   -0.5210 C   0  0  0  1  0  0  0  0  0  0  0  0
   -1.9621   -2.2735   -1.4151 O   0  0  0  1  0  0  0  0  0  0  0  0
   -1.3371   -4.1588   -0.3206 N   0  0  0  1  0  0  0  0  0  0  0  0
   -0.8225   -4.5415    0.4204 H   0  0  0  1  0  0  0  0  0  0  0  0
   -1.8514   -4.7449   -0.9142 H   0  0  0  1  0  0  0  0  0  0  0  0
    0.1646   -0.7089    3.1026 O   0  0  0  1  0  0  0  0  0  0  0  0
  1  2  1  0  0  0  0
  1  3  1  0  0  0  0
  1  4  1  0  0  0  0
  1  5  1  0  0  0  0
  5  6  1  0  0  0  0
  5  7  1  0  0  0  0
  5  9  1  0  0  0  0
  7  8  1  0  0  0  0
  7 20  2  0  0  0  0
  9 10  1  0  0  0  0
  9 11  1  0  0  0  0
  9 12  1  0  0  0  0
 12 13  1  0  0  0  0
 12 14  1  0  0  0  0
 12 15  1  0  0  0  0
 15 16  2  0  0  0  0
 15 17  1  0  0  0  0
 17 18  1  0  0  0  0
 17 19  1  0  0  0  0
M  END
> <ConfClashScore>
0 

> <ConfOneFourInteractionScore>
-0.996705 

> <ConfScore>
-0.129019 

> <ConfScorePBest>
0.0142745 

> <ConfTolerance>
0.25 

$$$$
GLN.****
  PyMOL2.4          3D                             0

 20 19  0  0  0  0  0  0  0  0999 V2000
    1.8782   -0.1191    1.1575 N   0  3  0  1  0  0  0  0  0  0  0  0
    1.8655   -1.1496    1.3587 H   0  0  0  1  0  0  0  0  0  0  0  0
    2.4018    0.3794    1.9189 H   0  0  0  1  0  0  0  0  0  0  0  0
    2.3523    0.0516    0.2363 H   0  0  0  1  0  0  0  0  0  0  0  0
    0.4806    0.3933    1.0988 C   0  0  0  1  0  0  0  0  0  0  0  0
    0.5248    1.4624    1.0942 H   0  0  0  1  0  0  0  0  0  0  0  0
   -0.2324   -0.0164    2.3414 C   0  0  0  1  0  0  0  0  0  0  0  0
   -1.3783    0.6936    2.5211 O   0  5  0  1  0  0  0  0  0  0  0  0
   -0.2136   -0.0384   -0.1786 C   0  0  0  1  0  0  0  0  0  0  0  0
   -0.2061   -1.1068   -0.2381 H   0  0  0  1  0  0  0  0  0  0  0  0
    0.3101    0.3697   -1.0177 H   0  0  0  1  0  0  0  0  0  0  0  0
   -1.6521    0.4520   -0.2023 C   0  0  0  1  0  0  0  0  0  0  0  0
   -1.6624    1.4898    0.0577 H   0  0  0  1  0  0  0  0  0  0  0  0
   -2.2130   -0.1029    0.5204 H   0  0  0  1  0  0  0  0  0  0  0  0
   -2.3166    0.2864   -1.5630 C   0  0  0  1  0  0  0  0  0  0  0  0
   -1.6741    0.3702   -2.6089 O   0  0  0  1  0  0  0  0  0  0  0  0
   -3.6405    0.0465   -1.4935 N   0  0  0  1  0  0  0  0  0  0  0  0
   -4.0819   -0.0166   -0.6208 H   0  0  0  1  0  0  0  0  0  0  0  0
   -4.1621   -0.0649   -2.3156 H   0  0  0  1  0  0  0  0  0  0  0  0
    0.1541   -0.8808    3.1107 O   0  0  0  1  0  0  0  0  0  0  0  0
  1  2  1  0  0  0  0
  1  3  1  0  0  0  0
  1  4  1  0  0  0  0
  1  5  1  0  0  0  0
  5  6  1  0  0  0  0
  5  7  1  0  0  0  0
  5  9  1  0  0  0  0
  7  8  1  0  0  0  0
  7 20  2  0  0  0  0
  9 10  1  0  0  0  0
  9 11  1  0  0  0  0
  9 12  1  0  0  0  0
 12 13  1  0  0  0  0
 12 14  1  0  0  0  0
 12 15  1  0  0  0  0
 15 16  2  0  0  0  0
 15 17  1  0  0  0  0
 17 18  1  0  0  0  0
 17 19  1  0  0  0  0
M  END
> <ConfClashScore>
0 

> <ConfOneFourInteractionScore>
-0.999576 

> <ConfScore>
-0.115574 

> <ConfScorePBest>
0.0141715 

> <ConfTolerance>
0.279759 

$$$$
GLN.****
  PyMOL2.4          3D                             0

 20 19  0  0  0  0  0  0  0  0999 V2000
    1.8449   -0.1870    1.0892 N   0  3  0  1  0  0  0  0  0  0  0  0
    2.2503   -0.4197    2.0295 H   0  0  0  1  0  0  0  0  0  0  0  0
    2.5232    0.4095    0.5538 H   0  0  0  1  0  0  0  0  0  0  0  0
    1.6627   -1.0740    0.5577 H   0  0  0  1  0  0  0  0  0  0  0  0
    0.5658    0.5554    1.2691 C   0  0  0  1  0  0  0  0  0  0  0  0
    0.7989    1.5099    1.6928 H   0  0  0  1  0  0  0  0  0  0  0  0
   -0.3204   -0.1582    2.2312 C   0  0  0  1  0  0  0  0  0  0  0  0
   -1.0264    0.7102    3.0039 O   0  5  0  1  0  0  0  0  0  0  0  0
   -0.0558    0.8014   -0.0922 C   0  0  0  1  0  0  0  0  0  0  0  0
    0.5884    1.4512   -0.6468 H   0  0  0  1  0  0  0  0  0  0  0  0
   -1.0050    1.2745    0.0489 H   0  0  0  1  0  0  0  0  0  0  0  0
   -0.2662   -0.4706   -0.8972 C   0  0  0  1  0  0  0  0  0  0  0  0
   -1.0933   -0.9984   -0.4703 H   0  0  0  1  0  0  0  0  0  0  0  0
    0.6192   -1.0653   -0.8122 H   0  0  0  1  0  0  0  0  0  0  0  0
   -0.5541   -0.2655   -2.3789 C   0  0  0  1  0  0  0  0  0  0  0  0
   -0.4935    0.8476   -2.8995 O   0  0  0  1  0  0  0  0  0  0  0  0
   -0.8700   -1.3968   -3.0289 N   0  0  0  1  0  0  0  0  0  0  0  0
   -0.9353   -2.2422   -2.5376 H   0  0  0  1  0  0  0  0  0  0  0  0
   -1.0354   -1.3772   -3.9946 H   0  0  0  1  0  0  0  0  0  0  0  0
   -0.4103   -1.3714    2.3239 O   0  0  0  1  0  0  0  0  0  0  0  0
  1  2  1  0  0  0  0
  1  3  1  0  0  0  0
  1  4  1  0  0  0  0
  1  5  1  0  0  0  0
  5  6  1  0  0  0  0
  5  7  1  0  0  0  0
  5  9  1  0  0  0  0
  7  8  1  0  0  0  0
  7 20  2  0  0  0  0
  9 10  1  0  0  0  0
  9 11  1  0  0  0  0
  9 12  1  0  0  0  0
 12 13  1  0  0  0  0
 12 14  1  0  0  0  0
 12 15  1  0  0  0  0
 15 16  2  0  0  0  0
 15 17  1  0  0  0  0
 17 18  1  0  0  0  0
 17 19  1  0  0  0  0
M  END
> <ConfClashScore>
0 

> <ConfOneFourInteractionScore>
-0.931193 

> <ConfScore>
-0.10695 

> <ConfScorePBest>
0.0140685 

> <ConfTolerance>
0.374603 

$$$$
GLN.****
  PyMOL2.4          3D                             0

 20 19  0  0  0  0  0  0  0  0999 V2000
    1.8681   -0.1615    1.1299 N   0  3  0  1  0  0  0  0  0  0  0  0
    1.8199   -1.2102    1.1499 H   0  0  0  1  0  0  0  0  0  0  0  0
    2.3788    0.1814    1.9808 H   0  0  0  1  0  0  0  0  0  0  0  0
    2.3783    0.1487    0.2662 H   0  0  0  1  0  0  0  0  0  0  0  0
    0.4842    0.4012    1.1195 C   0  0  0  1  0  0  0  0  0  0  0  0
    0.5661    1.4680    1.1109 H   0  0  0  1  0  0  0  0  0  0  0  0
   -0.2444    0.0167    2.3610 C   0  0  0  1  0  0  0  0  0  0  0  0
   -1.1612    0.9558    2.7174 O   0  5  0  1  0  0  0  0  0  0  0  0
   -0.2055   -0.0129   -0.1661 C   0  0  0  1  0  0  0  0  0  0  0  0
   -1.1889    0.4082   -0.1880 H   0  0  0  1  0  0  0  0  0  0  0  0
   -0.2732   -1.0802   -0.1999 H   0  0  0  1  0  0  0  0  0  0  0  0
    0.5730    0.4757   -1.3767 C   0  0  0  1  0  0  0  0  0  0  0  0
    1.5031   -0.0515   -1.4189 H   0  0  0  1  0  0  0  0  0  0  0  0
    0.7608    1.5227   -1.2610 H   0  0  0  1  0  0  0  0  0  0  0  0
   -0.1642    0.2592   -2.6839 C   0  0  0  1  0  0  0  0  0  0  0  0
   -1.3518    0.5174   -2.7913 O   0  0  0  1  0  0  0  0  0  0  0  0
    0.5722   -0.2281   -3.6950 N   0  0  0  1  0  0  0  0  0  0  0  0
    0.1516   -0.4211   -4.5589 H   0  0  0  1  0  0  0  0  0  0  0  0
    1.5303   -0.3910   -3.5692 H   0  0  0  1  0  0  0  0  0  0  0  0
   -0.0513   -1.0111    2.9893 O   0  0  0  1  0  0  0  0  0  0  0  0
  1  2  1  0  0  0  0
  1  3  1  0  0  0  0
  1  4  1  0  0  0  0
  1  5  1  0  0  0  0
  5  6  1  0  0  0  0
  5  7  1  0  0  0  0
  5  9  1  0  0  0  0
  7  8  1  0  0  0  0
  7 20  2  0  0  0  0
  9 10  1  0  0  0  0
  9 11  1  0  0  0  0
  9 12  1  0  0  0  0
 12 13  1  0  0  0  0
 12 14  1  0  0  0  0
 12 15  1  0  0  0  0
 15 16  2  0  0  0  0
 15 17  1  0  0  0  0
 17 18  1  0  0  0  0
 17 19  1  0  0  0  0
M  END
> <ConfClashScore>
0 

> <ConfOneFourInteractionScore>
-1 

> <ConfScore>
-0.102064 

> <ConfScorePBest>
0.0139655 

> <ConfTolerance>
0.25 

$$$$
GLN.****
  PyMOL2.4          3D                             0

 20 19  0  0  0  0  0  0  0  0999 V2000
    1.8501   -0.1608    1.1105 N   0  3  0  1  0  0  0  0  0  0  0  0
    2.3683   -0.1662    2.0237 H   0  0  0  1  0  0  0  0  0  0  0  0
    2.4384    0.3068    0.3772 H   0  0  0  1  0  0  0  0  0  0  0  0
    1.6457   -1.1485    0.8186 H   0  0  0  1  0  0  0  0  0  0  0  0
    0.5701    0.5847    1.2694 C   0  0  0  1  0  0  0  0  0  0  0  0
    0.7667    1.5650    1.6505 H   0  0  0  1  0  0  0  0  0  0  0  0
   -0.3047   -0.1485    2.2272 C   0  0  0  1  0  0  0  0  0  0  0  0
   -1.1665    0.6035    2.9630 O   0  5  0  1  0  0  0  0  0  0  0  0
   -0.1552    0.7012   -0.0574 C   0  0  0  1  0  0  0  0  0  0  0  0
   -1.1227    1.1220    0.1206 H   0  0  0  1  0  0  0  0  0  0  0  0
   -0.2629   -0.2792   -0.4724 H   0  0  0  1  0  0  0  0  0  0  0  0
    0.5719    1.5745   -1.0669 C   0  0  0  1  0  0  0  0  0  0  0  0
    1.5621    1.1952   -1.2102 H   0  0  0  1  0  0  0  0  0  0  0  0
    0.6236    2.5754   -0.6920 H   0  0  0  1  0  0  0  0  0  0  0  0
   -0.1633    1.5790   -2.4099 C   0  0  0  1  0  0  0  0  0  0  0  0
   -1.3643    1.3123   -2.4070 O   0  0  0  1  0  0  0  0  0  0  0  0
    0.5682    1.8749   -3.4824 N   0  0  0  1  0  0  0  0  0  0  0  0
    0.1451    1.9279   -4.3647 H   0  0  0  1  0  0  0  0  0  0  0  0
    1.5298    2.0397   -3.3894 H   0  0  0  1  0  0  0  0  0  0  0  0
   -0.1800   -1.3611    2.2763 O   0  0  0  1  0  0  0  0  0  0  0  0
  1  2  1  0  0  0  0
  1  3  1  0  0  0  0
  1  4  1  0  0  0  0
  1  5  1  0  0  0  0
  5  6  1  0  0  0  0
  5  7  1  0  0  0  0
  5  9  1  0  0  0  0
  7  8  1  0  0  0  0
  7 20  2  0  0  0  0
  9 10  1  0  0  0  0
  9 11  1  0  0  0  0
  9 12  1  0  0  0  0
 12 13  1  0  0  0  0
 12 14  1  0  0  0  0
 12 15  1  0  0  0  0
 15 16  2  0  0  0  0
 15 17  1  0  0  0  0
 17 18  1  0  0  0  0
 17 19  1  0  0  0  0
M  END
> <ConfClashScore>
0 

> <ConfOneFourInteractionScore>
-0.999576 

> <ConfScore>
-0.102064 

> <ConfScorePBest>
0.0138625 

> <ConfTolerance>
0.35758 

$$$$
GLN.****
  PyMOL2.4          3D                             0

 20 19  0  0  0  0  0  0  0  0999 V2000
    1.8736   -0.0713    1.1700 N   0  3  0  1  0  0  0  0  0  0  0  0
    2.3261   -0.0534    0.2227 H   0  0  0  1  0  0  0  0  0  0  0  0
    2.0321   -1.0088    1.6156 H   0  0  0  1  0  0  0  0  0  0  0  0
    2.2941    0.6787    1.7727 H   0  0  0  1  0  0  0  0  0  0  0  0
    0.4104    0.1691    1.0269 C   0  0  0  1  0  0  0  0  0  0  0  0
    0.2762    1.1342    0.5848 H   0  0  0  1  0  0  0  0  0  0  0  0
   -0.1770    0.2177    2.3954 C   0  0  0  1  0  0  0  0  0  0  0  0
   -1.4269    0.7535    2.4094 O   0  5  0  1  0  0  0  0  0  0  0  0
   -0.1980   -0.8571    0.0835 C   0  0  0  1  0  0  0  0  0  0  0  0
   -1.2430   -0.6494   -0.0155 H   0  0  0  1  0  0  0  0  0  0  0  0
   -0.0660   -1.8297    0.5094 H   0  0  0  1  0  0  0  0  0  0  0  0
    0.4284   -0.8483   -1.3014 C   0  0  0  1  0  0  0  0  0  0  0  0
    1.4628   -1.1059   -1.2090 H   0  0  0  1  0  0  0  0  0  0  0  0
    0.3407    0.1373   -1.7086 H   0  0  0  1  0  0  0  0  0  0  0  0
   -0.2288   -1.8254   -2.2567 C   0  0  0  1  0  0  0  0  0  0  0  0
   -0.6669   -2.8950   -1.8663 O   0  0  0  1  0  0  0  0  0  0  0  0
   -0.2920   -1.4327   -3.5440 N   0  0  0  1  0  0  0  0  0  0  0  0
   -0.7028   -2.0170   -4.2149 H   0  0  0  1  0  0  0  0  0  0  0  0
    0.0729   -0.5627   -3.8093 H   0  0  0  1  0  0  0  0  0  0  0  0
    0.4225   -0.1867    3.3780 O   0  0  0  1  0  0  0  0  0  0  0  0
  1  2  1  0  0  0  0
  1  3  1  0  0  0  0
  1  4  1  0  0  0  0
  1  5  1  0  0  0  0
  5  6  1  0  0  0  0
  5  7  1  0  0  0  0
  5  9  1  0  0  0  0
  7  8  1  0  0  0  0
  7 20  2  0  0  0  0
  9 10  1  0  0  0  0
  9 11  1  0  0  0  0
  9 12  1  0  0  0  0
 12 13  1  0  0  0  0
 12 14  1  0  0  0  0
 12 15  1  0  0  0  0
 15 16  2  0  0  0  0
 15 17  1  0  0  0  0
 17 18  1  0  0  0  0
 17 19  1  0  0  0  0
M  END
> <ConfClashScore>
0 

> <ConfOneFourInteractionScore>
-1 

> <ConfScore>
-0.100211 

> <ConfScorePBest>
0.0137595 

> <ConfTolerance>
0.25 

$$$$
GLN.****
  PyMOL2.4          3D                             0

 20 19  0  0  0  0  0  0  0  0999 V2000
    1.8761   -0.1409    1.1423 N   0  3  0  1  0  0  0  0  0  0  0  0
    1.8423   -1.1889    1.1959 H   0  0  0  1  0  0  0  0  0  0  0  0
    2.3757    0.2365    1.9852 H   0  0  0  1  0  0  0  0  0  0  0  0
    2.3883    0.1485    0.2725 H   0  0  0  1  0  0  0  0  0  0  0  0
    0.4881    0.4004    1.1042 C   0  0  0  1  0  0  0  0  0  0  0  0
    0.5401    1.4686    1.0718 H   0  0  0  1  0  0  0  0  0  0  0  0
   -0.2358    0.0102    2.3466 C   0  0  0  1  0  0  0  0  0  0  0  0
   -1.2721    0.8507    2.6100 O   0  5  0  1  0  0  0  0  0  0  0  0
   -0.2252   -0.0655   -0.1190 C   0  0  0  1  0  0  0  0  0  0  0  0
   -0.3901   -1.1172   -0.0117 H   0  0  0  1  0  0  0  0  0  0  0  0
    0.4215    0.1114   -0.9530 H   0  0  0  1  0  0  0  0  0  0  0  0
   -1.5660    0.5740   -0.4404 C   0  0  0  1  0  0  0  0  0  0  0  0
   -1.4274    1.6346   -0.4697 H   0  0  0  1  0  0  0  0  0  0  0  0
   -2.2477    0.3244    0.3457 H   0  0  0  1  0  0  0  0  0  0  0  0
   -2.1911    0.1475   -1.7544 C   0  0  0  1  0  0  0  0  0  0  0  0
   -2.0791   -0.9949   -2.1676 O   0  0  0  1  0  0  0  0  0  0  0  0
   -2.8641    1.1017   -2.4169 N   0  0  0  1  0  0  0  0  0  0  0  0
   -2.8994    2.0138   -2.0603 H   0  0  0  1  0  0  0  0  0  0  0  0
   -3.3200    0.8861   -3.2572 H   0  0  0  1  0  0  0  0  0  0  0  0
    0.0555   -0.9435    3.0496 O   0  0  0  1  0  0  0  0  0  0  0  0
  1  2  1  0  0  0  0
  1  3  1  0  0  0  0
  1  4  1  0  0  0  0
  1  5  1  0  0  0  0
  5  6  1  0  0  0  0
  5  7  1  0  0  0  0
  5  9  1  0  0  0  0
  7  8  1  0  0  0  0
  7 20  2  0  0  0  0
  9 10  1  0  0  0  0
  9 11  1  0  0  0  0
  9 12  1  0  0  0  0
 12 13  1  0  0  0  0
 12 14  1  0  0  0  0
 12 15  1  0  0  0  0
 15 16  2  0  0  0  0
 15 17  1  0  0  0  0
 17 18  1  0  0  0  0
 17 19  1  0  0  0  0
M  END
> <ConfClashScore>
0 

> <ConfOneFourInteractionScore>
-1 

> <ConfScore>
-0.0957628 

> <ConfScorePBest>
0.0136565 

> <ConfTolerance>
0.25 

$$$$
GLN.****
  PyMOL2.4          3D                             0

 20 19  0  0  0  0  0  0  0  0999 V2000
    1.8450   -0.1732    1.1335 N   0  3  0  1  0  0  0  0  0  0  0  0
    1.7745   -1.2208    1.1307 H   0  0  0  1  0  0  0  0  0  0  0  0
    2.3419    0.1415    2.0033 H   0  0  0  1  0  0  0  0  0  0  0  0
    2.3824    0.1434    0.2888 H   0  0  0  1  0  0  0  0  0  0  0  0
    0.4776    0.4174    1.1019 C   0  0  0  1  0  0  0  0  0  0  0  0
    0.5777    1.4825    1.1191 H   0  0  0  1  0  0  0  0  0  0  0  0
   -0.2201    0.0125    2.3546 C   0  0  0  1  0  0  0  0  0  0  0  0
   -1.0431    0.9940    2.8116 O   0  5  0  1  0  0  0  0  0  0  0  0
   -0.2239    0.0426   -0.1957 C   0  0  0  1  0  0  0  0  0  0  0  0
   -1.1999    0.4810   -0.1925 H   0  0  0  1  0  0  0  0  0  0  0  0
   -0.3112   -1.0230   -0.2386 H   0  0  0  1  0  0  0  0  0  0  0  0
    0.5132    0.5162   -1.4378 C   0  0  0  1  0  0  0  0  0  0  0  0
    1.5478    0.2626   -1.3372 H   0  0  0  1  0  0  0  0  0  0  0  0
    0.4113    1.5789   -1.5098 H   0  0  0  1  0  0  0  0  0  0  0  0
   -0.0107   -0.1025   -2.7061 C   0  0  0  1  0  0  0  0  0  0  0  0
   -0.2940   -1.2987   -2.7545 O   0  0  0  1  0  0  0  0  0  0  0  0
   -0.1589    0.6893   -3.7801 N   0  0  0  1  0  0  0  0  0  0  0  0
   -0.0277    1.6569   -3.6973 H   0  0  0  1  0  0  0  0  0  0  0  0
   -0.3983    0.2996   -4.6468 H   0  0  0  1  0  0  0  0  0  0  0  0
   -0.0789   -1.0639    2.9112 O   0  0  0  1  0  0  0  0  0  0  0  0
  1  2  1  0  0  0  0
  1  3  1  0  0  0  0
  1  4  1  0  0  0  0
  1  5  1  0  0  0  0
  5  6  1  0  0  0  0
  5  7  1  0  0  0  0
  5  9  1  0  0  0  0
  7  8  1  0  0  0  0
  7 20  2  0  0  0  0
  9 10  1  0  0  0  0
  9 11  1  0  0  0  0
  9 12  1  0  0  0  0
 12 13  1  0  0  0  0
 12 14  1  0  0  0  0
 12 15  1  0  0  0  0
 15 16  2  0  0  0  0
 15 17  1  0  0  0  0
 17 18  1  0  0  0  0
 17 19  1  0  0  0  0
M  END
> <ConfClashScore>
0 

> <ConfOneFourInteractionScore>
-1 

> <ConfScore>
-0.095404 

> <ConfScorePBest>
0.0135535 

> <ConfTolerance>
0.25 

$$$$
GLN.****
  PyMOL2.4          3D                             0

 20 19  0  0  0  0  0  0  0  0999 V2000
    1.8435   -0.1793    1.1330 N   0  3  0  1  0  0  0  0  0  0  0  0
    2.4436    0.3028    0.4188 H   0  0  0  1  0  0  0  0  0  0  0  0
    1.8325   -1.2115    0.9411 H   0  0  0  1  0  0  0  0  0  0  0  0
    2.2334   -0.0052    2.0922 H   0  0  0  1  0  0  0  0  0  0  0  0
    0.4547    0.3544    1.0574 C   0  0  0  1  0  0  0  0  0  0  0  0
    0.4816    1.3974    0.8202 H   0  0  0  1  0  0  0  0  0  0  0  0
   -0.1897    0.1711    2.3883 C   0  0  0  1  0  0  0  0  0  0  0  0
   -0.9419    1.2067    2.8479 O   0  5  0  1  0  0  0  0  0  0  0  0
   -0.3134   -0.3816   -0.0235 C   0  0  0  1  0  0  0  0  0  0  0  0
   -0.5237   -1.3715    0.3240 H   0  0  0  1  0  0  0  0  0  0  0  0
    0.2990   -0.4332   -0.8995 H   0  0  0  1  0  0  0  0  0  0  0  0
   -1.6266    0.2889   -0.3924 C   0  0  0  1  0  0  0  0  0  0  0  0
   -1.4226    1.2470   -0.8230 H   0  0  0  1  0  0  0  0  0  0  0  0
   -2.2175    0.4129    0.4910 H   0  0  0  1  0  0  0  0  0  0  0  0
   -2.3932   -0.5472   -1.3870 C   0  0  0  1  0  0  0  0  0  0  0  0
   -2.0055   -1.6688   -1.7115 O   0  0  0  1  0  0  0  0  0  0  0  0
   -3.5084    0.0124   -1.8825 N   0  0  0  1  0  0  0  0  0  0  0  0
   -3.7969    0.8937   -1.5654 H   0  0  0  1  0  0  0  0  0  0  0  0
   -4.0340   -0.4604   -2.5611 H   0  0  0  1  0  0  0  0  0  0  0  0
   -0.0113   -0.8788    2.9836 O   0  0  0  1  0  0  0  0  0  0  0  0
  1  2  1  0  0  0  0
  1  3  1  0  0  0  0
  1  4  1  0  0  0  0
  1  5  1  0  0  0  0
  5  6  1  0  0  0  0
  5  7  1  0  0  0  0
  5  9  1  0  0  0  0
  7  8  1  0  0  0  0
  7 20  2  0  0  0  0
  9 10  1  0  0  0  0
  9 11  1  0  0  0  0
  9 12  1  0  0  0  0
 12 13  1  0  0  0  0
 12 14  1  0  0  0  0
 12 15  1  0  0  0  0
 15 16  2  0  0  0  0
 15 17  1  0  0  0  0
 17 18  1  0  0  0  0
 17 19  1  0  0  0  0
M  END
> <ConfClashScore>
0 

> <ConfOneFourInteractionScore>
-0.999576 

> <ConfScore>
-0.0735055 

> <ConfScorePBest>
0.0134505 

> <ConfTolerance>
0.277935 

$$$$
GLN.****
  PyMOL2.4          3D                             0

 20 19  0  0  0  0  0  0  0  0999 V2000
    1.9033    0.0003    1.1586 N   0  3  0  1  0  0  0  0  0  0  0  0
    2.3521    0.1691    0.2244 H   0  0  0  1  0  0  0  0  0  0  0  0
    2.1237   -0.9742    1.4814 H   0  0  0  1  0  0  0  0  0  0  0  0
    2.2746    0.6926    1.8552 H   0  0  0  1  0  0  0  0  0  0  0  0
    0.4272    0.1611    1.0375 C   0  0  0  1  0  0  0  0  0  0  0  0
    0.2074    1.0670    0.5123 H   0  0  0  1  0  0  0  0  0  0  0  0
   -0.2008    0.2172    2.3876 C   0  0  0  1  0  0  0  0  0  0  0  0
   -1.5531    0.0906    2.3188 O   0  5  0  1  0  0  0  0  0  0  0  0
   -0.1133   -1.0068    0.2502 C   0  0  0  1  0  0  0  0  0  0  0  0
   -1.1788   -0.9153    0.2147 H   0  0  0  1  0  0  0  0  0  0  0  0
    0.1511   -1.9045    0.7689 H   0  0  0  1  0  0  0  0  0  0  0  0
    0.3944   -1.1243   -1.1777 C   0  0  0  1  0  0  0  0  0  0  0  0
    1.4182   -1.4341   -1.1507 H   0  0  0  1  0  0  0  0  0  0  0  0
    0.3240   -0.1640   -1.6443 H   0  0  0  1  0  0  0  0  0  0  0  0
   -0.3938   -2.1270   -2.0106 C   0  0  0  1  0  0  0  0  0  0  0  0
   -0.9554   -3.0907   -1.4964 O   0  0  0  1  0  0  0  0  0  0  0  0
   -0.4044   -1.8477   -3.3236 N   0  0  0  1  0  0  0  0  0  0  0  0
    0.0585   -1.0517   -3.6589 H   0  0  0  1  0  0  0  0  0  0  0  0
   -0.8751   -2.4398   -3.9467 H   0  0  0  1  0  0  0  0  0  0  0  0
    0.4119    0.3590    3.4330 O   0  0  0  1  0  0  0  0  0  0  0  0
  1  2  1  0  0  0  0
  1  3  1  0  0  0  0
  1  4  1  0  0  0  0
  1  5  1  0  0  0  0
  5  6  1  0  0  0  0
  5  7  1  0  0  0  0
  5  9  1  0  0  0  0
  7  8  1  0  0  0  0
  7 20  2  0  0  0  0
  9 10  1  0  0  0  0
  9 11  1  0  0  0  0
  9 12  1  0  0  0  0
 12 13  1  0  0  0  0
 12 14  1  0  0  0  0
 12 15  1  0  0  0  0
 15 16  2  0  0  0  0
 15 17  1  0  0  0  0
 17 18  1  0  0  0  0
 17 19  1  0  0  0  0
M  END
> <ConfClashScore>
0 

> <ConfOneFourInteractionScore>
-0.991306 

> <ConfScore>
-0.0610338 

> <ConfScorePBest>
0.0133475 

> <ConfTolerance>
0.25 

$$$$
GLN.****
  PyMOL2.4          3D                             0

 20 19  0  0  0  0  0  0  0  0999 V2000
    1.8254   -0.2629    1.1099 N   0  3  0  1  0  0  0  0  0  0  0  0
    2.2889   -0.1559    0.1739 H   0  0  0  1  0  0  0  0  0  0  0  0
    1.7473   -1.2828    1.3470 H   0  0  0  1  0  0  0  0  0  0  0  0
    2.3991    0.2242    1.8421 H   0  0  0  1  0  0  0  0  0  0  0  0
    0.4644    0.3412    1.0629 C   0  0  0  1  0  0  0  0  0  0  0  0
    0.5619    1.3830    0.8394 H   0  0  0  1  0  0  0  0  0  0  0  0
   -0.1866    0.2135    2.3971 C   0  0  0  1  0  0  0  0  0  0  0  0
   -0.3691    1.4337    2.9693 O   0  5  0  1  0  0  0  0  0  0  0  0
   -0.3682   -0.2990   -0.0311 C   0  0  0  1  0  0  0  0  0  0  0  0
   -0.4182   -1.3519    0.1527 H   0  0  0  1  0  0  0  0  0  0  0  0
    0.1128   -0.1229   -0.9706 H   0  0  0  1  0  0  0  0  0  0  0  0
   -1.7885    0.2459   -0.1062 C   0  0  0  1  0  0  0  0  0  0  0  0
   -1.7447    1.2694   -0.4151 H   0  0  0  1  0  0  0  0  0  0  0  0
   -2.2284    0.1852    0.8673 H   0  0  0  1  0  0  0  0  0  0  0  0
   -2.6661   -0.5152   -1.0807 C   0  0  0  1  0  0  0  0  0  0  0  0
   -2.2399   -1.4773   -1.6981 O   0  0  0  1  0  0  0  0  0  0  0  0
   -3.9271   -0.0593   -1.2119 N   0  0  0  1  0  0  0  0  0  0  0  0
   -4.5362   -0.4807   -1.8537 H   0  0  0  1  0  0  0  0  0  0  0  0
   -4.2352    0.6937   -0.6656 H   0  0  0  1  0  0  0  0  0  0  0  0
   -0.5300   -0.8191    2.9486 O   0  0  0  1  0  0  0  0  0  0  0  0
  1  2  1  0  0  0  0
  1  3  1  0  0  0  0
  1  4  1  0  0  0  0
  1  5  1  0  0  0  0
  5  6  1  0  0  0  0
  5  7  1  0  0  0  0
  5  9  1  0  0  0  0
  7  8  1  0  0  0  0
  7 20  2  0  0  0  0
  9 10  1  0  0  0  0
  9 11  1  0  0  0  0
  9 12  1  0  0  0  0
 12 13  1  0  0  0  0
 12 14  1  0  0  0  0
 12 15  1  0  0  0  0
 15 16  2  0  0  0  0
 15 17  1  0  0  0  0
 17 18  1  0  0  0  0
 17 19  1  0  0  0  0
M  END
> <ConfClashScore>
0 

> <ConfOneFourInteractionScore>
-0.999576 

> <ConfScore>
-0.0552649 

> <ConfScorePBest>
0.0132445 

> <ConfTolerance>
0.301434 

$$$$
GLN.****
  PyMOL2.4          3D                             0

 20 19  0  0  0  0  0  0  0  0999 V2000
    1.8929    0.0090    1.1628 N   0  3  0  1  0  0  0  0  0  0  0  0
    2.3116   -0.1837    0.2194 H   0  0  0  1  0  0  0  0  0  0  0  0
    2.1025   -0.7919    1.8087 H   0  0  0  1  0  0  0  0  0  0  0  0
    2.3044    0.8920    1.5544 H   0  0  0  1  0  0  0  0  0  0  0  0
    0.4174    0.1658    1.0294 C   0  0  0  1  0  0  0  0  0  0  0  0
    0.2174    1.0854    0.5203 H   0  0  0  1  0  0  0  0  0  0  0  0
   -0.2025    0.2421    2.3822 C   0  0  0  1  0  0  0  0  0  0  0  0
   -1.3238   -0.5233    2.4632 O   0  5  0  1  0  0  0  0  0  0  0  0
   -0.1732   -0.9730    0.2008 C   0  0  0  1  0  0  0  0  0  0  0  0
   -1.2361   -0.8639    0.1426 H   0  0  0  1  0  0  0  0  0  0  0  0
    0.0651   -1.9119    0.6553 H   0  0  0  1  0  0  0  0  0  0  0  0
    0.4261   -0.9116   -1.1947 C   0  0  0  1  0  0  0  0  0  0  0  0
    1.4925   -0.8996   -1.1071 H   0  0  0  1  0  0  0  0  0  0  0  0
    0.0964   -0.0102   -1.6676 H   0  0  0  1  0  0  0  0  0  0  0  0
    0.0266   -2.0872   -2.0650 C   0  0  0  1  0  0  0  0  0  0  0  0
   -0.6904   -2.9881   -1.6314 O   0  0  0  1  0  0  0  0  0  0  0  0
    0.5039   -2.0728   -3.3197 N   0  0  0  1  0  0  0  0  0  0  0  0
    1.1059   -1.3547   -3.6067 H   0  0  0  1  0  0  0  0  0  0  0  0
    0.2503   -2.7803   -3.9485 H   0  0  0  1  0  0  0  0  0  0  0  0
    0.2864    0.8538    3.3177 O   0  0  0  1  0  0  0  0  0  0  0  0
  1  2  1  0  0  0  0
  1  3  1  0  0  0  0
  1  4  1  0  0  0  0
  1  5  1  0  0  0  0
  5  6  1  0  0  0  0
  5  7  1  0  0  0  0
  5  9  1  0  0  0  0
  7  8  1  0  0  0  0
  7 20  2  0  0  0  0
  9 10  1  0  0  0  0
  9 11  1  0  0  0  0
  9 12  1  0  0  0  0
 12 13  1  0  0  0  0
 12 14  1  0  0  0  0
 12 15  1  0  0  0  0
 15 16  2  0  0  0  0
 15 17  1  0  0  0  0
 17 18  1  0  0  0  0
 17 19  1  0  0  0  0
M  END
> <ConfClashScore>
0 

> <ConfOneFourInteractionScore>
-0.999576 

> <ConfScore>
-0.0372858 

> <ConfScorePBest>
0.0131415 

> <ConfTolerance>
0.25 

$$$$
GLN.****
  PyMOL2.4          3D                             0

 20 19  0  0  0  0  0  0  0  0999 V2000
    1.9021   -0.0719    1.1876 N   0  3  0  1  0  0  0  0  0  0  0  0
    2.3198    0.0726    2.1401 H   0  0  0  1  0  0  0  0  0  0  0  0
    2.4854    0.4266    0.4707 H   0  0  0  1  0  0  0  0  0  0  0  0
    1.8786   -1.0984    0.9681 H   0  0  0  1  0  0  0  0  0  0  0  0
    0.5156    0.4724    1.1648 C   0  0  0  1  0  0  0  0  0  0  0  0
    0.5612    1.5275    1.3371 H   0  0  0  1  0  0  0  0  0  0  0  0
   -0.2815   -0.1413    2.2639 C   0  0  0  1  0  0  0  0  0  0  0  0
   -1.5852    0.2429    2.2148 O   0  5  0  1  0  0  0  0  0  0  0  0
   -0.1313    0.2424   -0.1979 C   0  0  0  1  0  0  0  0  0  0  0  0
    0.5473    0.5309   -0.9732 H   0  0  0  1  0  0  0  0  0  0  0  0
   -1.0280    0.8211   -0.2745 H   0  0  0  1  0  0  0  0  0  0  0  0
   -0.4615   -1.2355   -0.3286 C   0  0  0  1  0  0  0  0  0  0  0  0
   -1.2894   -1.4575    0.3118 H   0  0  0  1  0  0  0  0  0  0  0  0
    0.3912   -1.8036   -0.0200 H   0  0  0  1  0  0  0  0  0  0  0  0
   -0.8225   -1.6381   -1.7370 C   0  0  0  1  0  0  0  0  0  0  0  0
   -0.4181   -0.9904   -2.7017 O   0  0  0  1  0  0  0  0  0  0  0  0
   -1.5966   -2.7219   -1.9049 N   0  0  0  1  0  0  0  0  0  0  0  0
   -1.9400   -2.9457   -2.7950 H   0  0  0  1  0  0  0  0  0  0  0  0
   -1.8182   -3.2894   -1.1372 H   0  0  0  1  0  0  0  0  0  0  0  0
    0.1684   -0.8967    3.1097 O   0  0  0  1  0  0  0  0  0  0  0  0
  1  2  1  0  0  0  0
  1  3  1  0  0  0  0
  1  4  1  0  0  0  0
  1  5  1  0  0  0  0
  5  6  1  0  0  0  0
  5  7  1  0  0  0  0
  5  9  1  0  0  0  0
  7  8  1  0  0  0  0
  7 20  2  0  0  0  0
  9 10  1  0  0  0  0
  9 11  1  0  0  0  0
  9 12  1  0  0  0  0
 12 13  1  0  0  0  0
 12 14  1  0  0  0  0
 12 15  1  0  0  0  0
 15 16  2  0  0  0  0
 15 17  1  0  0  0  0
 17 18  1  0  0  0  0
 17 19  1  0  0  0  0
M  END
> <ConfClashScore>
0 

> <ConfOneFourInteractionScore>
-0.996705 

> <ConfScore>
-0.0144272 

> <ConfScorePBest>
0.0130385 

> <ConfTolerance>
0.259323 

$$$$
GLN.****
  PyMOL2.4          3D                             0

 20 19  0  0  0  0  0  0  0  0999 V2000
    1.8574   -0.1353    1.1651 N   0  3  0  1  0  0  0  0  0  0  0  0
    2.3856    0.1155    0.2929 H   0  0  0  1  0  0  0  0  0  0  0  0
    1.9151   -1.1717    1.3230 H   0  0  0  1  0  0  0  0  0  0  0  0
    2.2773    0.3681    1.9853 H   0  0  0  1  0  0  0  0  0  0  0  0
    0.4304    0.2652    1.0146 C   0  0  0  1  0  0  0  0  0  0  0  0
    0.3722    1.2716    0.6558 H   0  0  0  1  0  0  0  0  0  0  0  0
   -0.1597    0.1954    2.3810 C   0  0  0  1  0  0  0  0  0  0  0  0
   -1.1598    1.1025    2.5439 O   0  5  0  1  0  0  0  0  0  0  0  0
   -0.2867   -0.6594    0.0428 C   0  0  0  1  0  0  0  0  0  0  0  0
    0.0412   -0.4289   -0.9493 H   0  0  0  1  0  0  0  0  0  0  0  0
   -1.3392   -0.4834    0.1210 H   0  0  0  1  0  0  0  0  0  0  0  0
   -0.0234   -2.1328    0.3073 C   0  0  0  1  0  0  0  0  0  0  0  0
   -0.1388   -2.3055    1.3569 H   0  0  0  1  0  0  0  0  0  0  0  0
    0.9850   -2.3449    0.0192 H   0  0  0  1  0  0  0  0  0  0  0  0
   -0.9328   -3.0978   -0.4283 C   0  0  0  1  0  0  0  0  0  0  0  0
   -2.0789   -2.7938   -0.7153 O   0  0  0  1  0  0  0  0  0  0  0  0
   -0.3939   -4.2886   -0.7345 N   0  0  0  1  0  0  0  0  0  0  0  0
   -0.9274   -4.9607   -1.2078 H   0  0  0  1  0  0  0  0  0  0  0  0
    0.5331   -4.4857   -0.4848 H   0  0  0  1  0  0  0  0  0  0  0  0
    0.2011   -0.5760    3.2546 O   0  0  0  1  0  0  0  0  0  0  0  0
  1  2  1  0  0  0  0
  1  3  1  0  0  0  0
  1  4  1  0  0  0  0
  1  5  1  0  0  0  0
  5  6  1  0  0  0  0
  5  7  1  0  0  0  0
  5  9  1  0  0  0  0
  7  8  1  0  0  0  0
  7 20  2  0  0  0  0
  9 10  1  0  0  0  0
  9 11  1  0  0  0  0
  9 12  1  0  0  0  0
 12 13  1  0  0  0  0
 12 14  1  0  0  0  0
 12 15  1  0  0  0  0
 15 16  2  0  0  0  0
 15 17  1  0  0  0  0
 17 18  1  0  0  0  0
 17 19  1  0  0  0  0
M  END
> <ConfClashScore>
0 

> <ConfOneFourInteractionScore>
-0.931616 

> <ConfScore>
-0.00508702 

> <ConfScorePBest>
0.0129355 

> <ConfTolerance>
0.25 

$$$$
GLN.****
  PyMOL2.4          3D                             0

 20 19  0  0  0  0  0  0  0  0999 V2000
    1.8746   -0.1248    1.1526 N   0  3  0  1  0  0  0  0  0  0  0  0
    1.8623   -1.1746    1.1646 H   0  0  0  1  0  0  0  0  0  0  0  0
    2.3315    0.2296    2.0291 H   0  0  0  1  0  0  0  0  0  0  0  0
    2.4146    0.2091    0.3163 H   0  0  0  1  0  0  0  0  0  0  0  0
    0.4779    0.3882    1.0787 C   0  0  0  1  0  0  0  0  0  0  0  0
    0.5180    1.4563    1.0295 H   0  0  0  1  0  0  0  0  0  0  0  0
   -0.2235    0.0217    2.3411 C   0  0  0  1  0  0  0  0  0  0  0  0
   -1.3313    0.7541    2.6341 O   0  5  0  1  0  0  0  0  0  0  0  0
   -0.2701   -0.1042   -0.1453 C   0  0  0  1  0  0  0  0  0  0  0  0
   -0.1775   -1.1690   -0.1939 H   0  0  0  1  0  0  0  0  0  0  0  0
    0.1759    0.3331   -1.0141 H   0  0  0  1  0  0  0  0  0  0  0  0
   -1.7480    0.2510   -0.1316 C   0  0  0  1  0  0  0  0  0  0  0  0
   -1.8425    1.3163   -0.1647 H   0  0  0  1  0  0  0  0  0  0  0  0
   -2.1784   -0.1178    0.7759 H   0  0  0  1  0  0  0  0  0  0  0  0
   -2.5187   -0.3437   -1.3134 C   0  0  0  1  0  0  0  0  0  0  0  0
   -2.3087    0.1220   -2.4213 O   0  0  0  1  0  0  0  0  0  0  0  0
   -3.3645   -1.3320   -1.0294 N   0  0  0  1  0  0  0  0  0  0  0  0
   -3.9056   -1.7335   -1.7409 H   0  0  0  1  0  0  0  0  0  0  0  0
   -3.4459   -1.6579   -0.1087 H   0  0  0  1  0  0  0  0  0  0  0  0
    0.1790   -0.8794    3.0584 O   0  0  0  1  0  0  0  0  0  0  0  0
  1  2  1  0  0  0  0
  1  3  1  0  0  0  0
  1  4  1  0  0  0  0
  1  5  1  0  0  0  0
  5  6  1  0  0  0  0
  5  7  1  0  0  0  0
  5  9  1  0  0  0  0
  7  8  1  0  0  0  0
  7 20  2  0  0  0  0
  9 10  1  0  0  0  0
  9 11  1  0  0  0  0
  9 12  1  0  0  0  0
 12 13  1  0  0  0  0
 12 14  1  0  0  0  0
 12 15  1  0  0  0  0
 15 16  2  0  0  0  0
 15 17  1  0  0  0  0
 17 18  1  0  0  0  0
 17 19  1  0  0  0  0
M  END
> <ConfClashScore>
0 

> <ConfOneFourInteractionScore>
-1 

> <ConfScore>
-0.00497958 

> <ConfScorePBest>
0.0128325 

> <ConfTolerance>
0.25 

$$$$
GLN.****
  PyMOL2.4          3D                             0

 20 19  0  0  0  0  0  0  0  0999 V2000
    1.8609   -0.1671    1.1138 N   0  3  0  1  0  0  0  0  0  0  0  0
    2.2211   -0.4216    2.0666 H   0  0  0  1  0  0  0  0  0  0  0  0
    2.5567    0.4535    0.6310 H   0  0  0  1  0  0  0  0  0  0  0  0
    1.7191   -1.0407    0.5487 H   0  0  0  1  0  0  0  0  0  0  0  0
    0.5635    0.5527    1.2485 C   0  0  0  1  0  0  0  0  0  0  0  0
    0.7564    1.5334    1.6307 H   0  0  0  1  0  0  0  0  0  0  0  0
   -0.3063   -0.1612    2.2252 C   0  0  0  1  0  0  0  0  0  0  0  0
   -1.1617    0.6897    2.8526 O   0  5  0  1  0  0  0  0  0  0  0  0
   -0.1111    0.6981   -0.1020 C   0  0  0  1  0  0  0  0  0  0  0  0
   -0.3771   -0.2764   -0.4550 H   0  0  0  1  0  0  0  0  0  0  0  0
    0.5830    1.1470   -0.7814 H   0  0  0  1  0  0  0  0  0  0  0  0
   -1.3662    1.5544   -0.0595 C   0  0  0  1  0  0  0  0  0  0  0  0
   -1.0907    2.5486    0.2246 H   0  0  0  1  0  0  0  0  0  0  0  0
   -2.0327    1.1459    0.6711 H   0  0  0  1  0  0  0  0  0  0  0  0
   -2.0829    1.6152   -1.3803 C   0  0  0  1  0  0  0  0  0  0  0  0
   -2.6929    0.6382   -1.8128 O   0  0  0  1  0  0  0  0  0  0  0  0
   -2.0367    2.7654   -2.0711 N   0  0  0  1  0  0  0  0  0  0  0  0
   -2.5181    2.8463   -2.9209 H   0  0  0  1  0  0  0  0  0  0  0  0
   -1.5215    3.5241   -1.7256 H   0  0  0  1  0  0  0  0  0  0  0  0
   -0.2656   -1.3608    2.4439 O   0  0  0  1  0  0  0  0  0  0  0  0
  1  2  1  0  0  0  0
  1  3  1  0  0  0  0
  1  4  1  0  0  0  0
  1  5  1  0  0  0  0
  5  6  1  0  0  0  0
  5  7  1  0  0  0  0
  5  9  1  0  0  0  0
  7  8  1  0  0  0  0
  7 20  2  0  0  0  0
  9 10  1  0  0  0  0
  9 11  1  0  0  0  0
  9 12  1  0  0  0  0
 12 13  1  0  0  0  0
 12 14  1  0  0  0  0
 12 15  1  0  0  0  0
 15 16  2  0  0  0  0
 15 17  1  0  0  0  0
 17 18  1  0  0  0  0
 17 19  1  0  0  0  0
M  END
> <ConfClashScore>
0 

> <ConfOneFourInteractionScore>
-1 

> <ConfScore>
-0.00387383 

> <ConfScorePBest>
0.0127295 

> <ConfTolerance>
0.25 

$$$$
GLN.****
  PyMOL2.4          3D                             0

 20 19  0  0  0  0  0  0  0  0999 V2000
    1.7911   -0.2308    1.1019 N   0  3  0  1  0  0  0  0  0  0  0  0
    2.1582   -0.4769    2.0543 H   0  0  0  1  0  0  0  0  0  0  0  0
    2.5233    0.3038    0.5722 H   0  0  0  1  0  0  0  0  0  0  0  0
    1.5536   -1.1106    0.5804 H   0  0  0  1  0  0  0  0  0  0  0  0
    0.5681    0.6085    1.2419 C   0  0  0  1  0  0  0  0  0  0  0  0
    0.8725    1.5274    1.6979 H   0  0  0  1  0  0  0  0  0  0  0  0
   -0.3530   -0.0588    2.2044 C   0  0  0  1  0  0  0  0  0  0  0  0
    0.3275   -0.7894    3.1278 O   0  5  0  1  0  0  0  0  0  0  0  0
   -0.0389    0.9714   -0.0993 C   0  0  0  1  0  0  0  0  0  0  0  0
   -0.3160    0.0631   -0.5923 H   0  0  0  1  0  0  0  0  0  0  0  0
    0.7094    1.4759   -0.6741 H   0  0  0  1  0  0  0  0  0  0  0  0
   -1.2666    1.8659   -0.0413 C   0  0  0  1  0  0  0  0  0  0  0  0
   -1.0191    2.7485    0.5106 H   0  0  0  1  0  0  0  0  0  0  0  0
   -2.0493    1.3377    0.4620 H   0  0  0  1  0  0  0  0  0  0  0  0
   -1.7665    2.2781   -1.4122 C   0  0  0  1  0  0  0  0  0  0  0  0
   -1.2655    1.8224   -2.4368 O   0  0  0  1  0  0  0  0  0  0  0  0
   -2.7777    3.1609   -1.4230 N   0  0  0  1  0  0  0  0  0  0  0  0
   -3.1682    3.4691   -0.5787 H   0  0  0  1  0  0  0  0  0  0  0  0
   -3.1254    3.4972   -2.2753 H   0  0  0  1  0  0  0  0  0  0  0  0
   -1.5694    0.0315    2.1777 O   0  0  0  1  0  0  0  0  0  0  0  0
  1  2  1  0  0  0  0
  1  3  1  0  0  0  0
  1  4  1  0  0  0  0
  1  5  1  0  0  0  0
  5  6  1  0  0  0  0
  5  7  1  0  0  0  0
  5  9  1  0  0  0  0
  7  8  1  0  0  0  0
  7 20  2  0  0  0  0
  9 10  1  0  0  0  0
  9 11  1  0  0  0  0
  9 12  1  0  0  0  0
 12 13  1  0  0  0  0
 12 14  1  0  0  0  0
 12 15  1  0  0  0  0
 15 16  2  0  0  0  0
 15 17  1  0  0  0  0
 17 18  1  0  0  0  0
 17 19  1  0  0  0  0
M  END
> <ConfClashScore>
0 

> <ConfOneFourInteractionScore>
-0.999576 

> <ConfScore>
-0.00345205 

> <ConfScorePBest>
0.0126265 

> <ConfTolerance>
0.260819 

$$$$
GLN.****
  PyMOL2.4          3D                             0

 20 19  0  0  0  0  0  0  0  0999 V2000
    1.9128    0.0245    1.1557 N   0  3  0  1  0  0  0  0  0  0  0  0
    2.3555    0.1879    0.2177 H   0  0  0  1  0  0  0  0  0  0  0  0
    2.1585   -0.9382    1.4954 H   0  0  0  1  0  0  0  0  0  0  0  0
    2.2674    0.7385    1.8390 H   0  0  0  1  0  0  0  0  0  0  0  0
    0.4316    0.1455    1.0349 C   0  0  0  1  0  0  0  0  0  0  0  0
    0.2123    1.0618    0.5279 H   0  0  0  1  0  0  0  0  0  0  0  0
   -0.2176    0.1989    2.3750 C   0  0  0  1  0  0  0  0  0  0  0  0
   -1.4110   -0.4451    2.4780 O   0  5  0  1  0  0  0  0  0  0  0  0
   -0.1737   -0.9834    0.2229 C   0  0  0  1  0  0  0  0  0  0  0  0
    0.2934   -0.9973   -0.7396 H   0  0  0  1  0  0  0  0  0  0  0  0
   -1.2210   -0.7957    0.1091 H   0  0  0  1  0  0  0  0  0  0  0  0
    0.0040   -2.3498    0.8646 C   0  0  0  1  0  0  0  0  0  0  0  0
   -0.3828   -2.3108    1.8615 H   0  0  0  1  0  0  0  0  0  0  0  0
    1.0489   -2.5782    0.8956 H   0  0  0  1  0  0  0  0  0  0  0  0
   -0.7046   -3.4484    0.1184 C   0  0  0  1  0  0  0  0  0  0  0  0
   -1.4552   -3.1903   -0.8217 O   0  0  0  1  0  0  0  0  0  0  0  0
   -0.4929   -4.7151    0.5092 N   0  0  0  1  0  0  0  0  0  0  0  0
    0.1028   -4.9018    1.2646 H   0  0  0  1  0  0  0  0  0  0  0  0
   -0.9341   -5.4532    0.0390 H   0  0  0  1  0  0  0  0  0  0  0  0
    0.2973    0.7856    3.3125 O   0  0  0  1  0  0  0  0  0  0  0  0
  1  2  1  0  0  0  0
  1  3  1  0  0  0  0
  1  4  1  0  0  0  0
  1  5  1  0  0  0  0
  5  6  1  0  0  0  0
  5  7  1  0  0  0  0
  5  9  1  0  0  0  0
  7  8  1  0  0  0  0
  7 20  2  0  0  0  0
  9 10  1  0  0  0  0
  9 11  1  0  0  0  0
  9 12  1  0  0  0  0
 12 13  1  0  0  0  0
 12 14  1  0  0  0  0
 12 15  1  0  0  0  0
 15 16  2  0  0  0  0
 15 17  1  0  0  0  0
 17 18  1  0  0  0  0
 17 19  1  0  0  0  0
M  END
> <ConfClashScore>
0 

> <ConfOneFourInteractionScore>
-0.996705 

> <ConfScore>
-0.00306476 

> <ConfScorePBest>
0.0125235 

> <ConfTolerance>
0.25 

$$$$
GLN.****
  PyMOL2.4          3D                             0

 20 19  0  0  0  0  0  0  0  0999 V2000
    1.9012   -0.0148    1.2212 N   0  3  0  1  0  0  0  0  0  0  0  0
    2.2728    0.1733    2.1851 H   0  0  0  1  0  0  0  0  0  0  0  0
    2.4891    0.4927    0.5145 H   0  0  0  1  0  0  0  0  0  0  0  0
    1.9343   -1.0464    1.0287 H   0  0  0  1  0  0  0  0  0  0  0  0
    0.4831    0.4655    1.1288 C   0  0  0  1  0  0  0  0  0  0  0  0
    0.4589    1.5317    1.2156 H   0  0  0  1  0  0  0  0  0  0  0  0
   -0.2885   -0.1364    2.2524 C   0  0  0  1  0  0  0  0  0  0  0  0
   -1.6137   -0.3505    2.0343 O   0  5  0  1  0  0  0  0  0  0  0  0
   -0.1030    0.0611   -0.2102 C   0  0  0  1  0  0  0  0  0  0  0  0
    0.4173    0.5893   -0.9817 H   0  0  0  1  0  0  0  0  0  0  0  0
   -1.1372    0.3353   -0.2246 H   0  0  0  1  0  0  0  0  0  0  0  0
    0.0044   -1.4291   -0.4897 C   0  0  0  1  0  0  0  0  0  0  0  0
   -0.6526   -1.9393    0.1833 H   0  0  0  1  0  0  0  0  0  0  0  0
    1.0138   -1.7287   -0.2994 H   0  0  0  1  0  0  0  0  0  0  0  0
   -0.3482   -1.8494   -1.8901 C   0  0  0  1  0  0  0  0  0  0  0  0
   -0.5409   -1.0121   -2.7706 O   0  0  0  1  0  0  0  0  0  0  0  0
   -0.4458   -3.1630   -2.1490 N   0  0  0  1  0  0  0  0  0  0  0  0
   -0.2213   -3.8173   -1.4548 H   0  0  0  1  0  0  0  0  0  0  0  0
   -0.7416   -3.4677   -3.0322 H   0  0  0  1  0  0  0  0  0  0  0  0
    0.2989   -0.4001    3.2886 O   0  0  0  1  0  0  0  0  0  0  0  0
  1  2  1  0  0  0  0
  1  3  1  0  0  0  0
  1  4  1  0  0  0  0
  1  5  1  0  0  0  0
  5  6  1  0  0  0  0
  5  7  1  0  0  0  0
  5  9  1  0  0  0  0
  7  8  1  0  0  0  0
  7 20  2  0  0  0  0
  9 10  1  0  0  0  0
  9 11  1  0  0  0  0
  9 12  1  0  0  0  0
 12 13  1  0  0  0  0
 12 14  1  0  0  0  0
 12 15  1  0  0  0  0
 15 16  2  0  0  0  0
 15 17  1  0  0  0  0
 17 18  1  0  0  0  0
 17 19  1  0  0  0  0
M  END
> <ConfClashScore>
0 

> <ConfOneFourInteractionScore>
-0.931193 

> <ConfScore>
-0.00306476 

> <ConfScorePBest>
0.0124205 

> <ConfTolerance>
0.323218 

$$$$
GLN.****
  PyMOL2.4          3D                             0

 20 19  0  0  0  0  0  0  0  0999 V2000
    1.8613   -0.1288    1.1590 N   0  3  0  1  0  0  0  0  0  0  0  0
    2.3106   -0.1584    0.2104 H   0  0  0  1  0  0  0  0  0  0  0  0
    1.9306   -1.0752    1.6085 H   0  0  0  1  0  0  0  0  0  0  0  0
    2.3533    0.5802    1.7570 H   0  0  0  1  0  0  0  0  0  0  0  0
    0.4273    0.2500    1.0185 C   0  0  0  1  0  0  0  0  0  0  0  0
    0.3624    1.2462    0.6333 H   0  0  0  1  0  0  0  0  0  0  0  0
   -0.1759    0.2226    2.3806 C   0  0  0  1  0  0  0  0  0  0  0  0
   -1.2096    1.0773    2.6055 O   0  5  0  1  0  0  0  0  0  0  0  0
   -0.3082   -0.6873    0.0802 C   0  0  0  1  0  0  0  0  0  0  0  0
   -1.3272   -0.3682    0.0118 H   0  0  0  1  0  0  0  0  0  0  0  0
   -0.2700   -1.6754    0.4890 H   0  0  0  1  0  0  0  0  0  0  0  0
    0.2808   -0.7222   -1.3206 C   0  0  0  1  0  0  0  0  0  0  0  0
    1.2969   -1.0509   -1.2547 H   0  0  0  1  0  0  0  0  0  0  0  0
    0.2511    0.2670   -1.7274 H   0  0  0  1  0  0  0  0  0  0  0  0
   -0.4673   -1.6515   -2.2566 C   0  0  0  1  0  0  0  0  0  0  0  0
   -1.5876   -1.3669   -2.6780 O   0  0  0  1  0  0  0  0  0  0  0  0
    0.1708   -2.7860   -2.5850 N   0  0  0  1  0  0  0  0  0  0  0  0
   -0.2934   -3.4773   -3.1017 H   0  0  0  1  0  0  0  0  0  0  0  0
    1.1009   -2.9228   -2.3082 H   0  0  0  1  0  0  0  0  0  0  0  0
    0.2813   -0.5507    3.2060 O   0  0  0  1  0  0  0  0  0  0  0  0
  1  2  1  0  0  0  0
  1  3  1  0  0  0  0
  1  4  1  0  0  0  0
  1  5  1  0  0  0  0
  5  6  1  0  0  0  0
  5  7  1  0  0  0  0
  5  9  1  0  0  0  0
  7  8  1  0  0  0  0
  7 20  2  0  0  0  0
  9 10  1  0  0  0  0
  9 11  1  0  0  0  0
  9 12  1  0  0  0  0
 12 13  1  0  0  0  0
 12 14  1  0  0  0  0
 12 15  1  0  0  0  0
 15 16  2  0  0  0  0
 15 17  1  0  0  0  0
 17 18  1  0  0  0  0
 17 19  1  0  0  0  0
M  END
> <ConfClashScore>
0 

> <ConfOneFourInteractionScore>
-1 

> <ConfScore>
0.0114897 

> <ConfScorePBest>
0.0123175 

> <ConfTolerance>
0.25 

$$$$
GLN.****
  PyMOL2.4          3D                             0

 20 19  0  0  0  0  0  0  0  0999 V2000
    1.8295   -0.1814    1.1258 N   0  3  0  1  0  0  0  0  0  0  0  0
    1.7232   -1.2251    1.0822 H   0  0  0  1  0  0  0  0  0  0  0  0
    2.3286    0.0826    2.0111 H   0  0  0  1  0  0  0  0  0  0  0  0
    2.3853    0.1485    0.2983 H   0  0  0  1  0  0  0  0  0  0  0  0
    0.4855    0.4559    1.1059 C   0  0  0  1  0  0  0  0  0  0  0  0
    0.6100    1.5180    1.1438 H   0  0  0  1  0  0  0  0  0  0  0  0
   -0.2147    0.0252    2.3486 C   0  0  0  1  0  0  0  0  0  0  0  0
   -0.9248    0.9791    3.0085 O   0  5  0  1  0  0  0  0  0  0  0  0
   -0.2742    0.1115   -0.1665 C   0  0  0  1  0  0  0  0  0  0  0  0
   -1.1947    0.6570   -0.1703 H   0  0  0  1  0  0  0  0  0  0  0  0
   -0.4812   -0.9383   -0.1644 H   0  0  0  1  0  0  0  0  0  0  0  0
    0.4914    0.4492   -1.4355 C   0  0  0  1  0  0  0  0  0  0  0  0
    1.3049   -0.2385   -1.5357 H   0  0  0  1  0  0  0  0  0  0  0  0
    0.8739    1.4446   -1.3477 H   0  0  0  1  0  0  0  0  0  0  0  0
   -0.3717    0.3689   -2.6950 C   0  0  0  1  0  0  0  0  0  0  0  0
   -0.6313   -0.7201   -3.2001 O   0  0  0  1  0  0  0  0  0  0  0  0
   -0.7432    1.5300   -3.2571 N   0  0  0  1  0  0  0  0  0  0  0  0
   -0.5473    2.3776   -2.8059 H   0  0  0  1  0  0  0  0  0  0  0  0
   -1.2102    1.5300   -4.1186 H   0  0  0  1  0  0  0  0  0  0  0  0
   -0.1153   -1.1384    2.7013 O   0  0  0  1  0  0  0  0  0  0  0  0
  1  2  1  0  0  0  0
  1  3  1  0  0  0  0
  1  4  1  0  0  0  0
  1  5  1  0  0  0  0
  5  6  1  0  0  0  0
  5  7  1  0  0  0  0
  5  9  1  0  0  0  0
  7  8  1  0  0  0  0
  7 20  2  0  0  0  0
  9 10  1  0  0  0  0
  9 11  1  0  0  0  0
  9 12  1  0  0  0  0
 12 13  1  0  0  0  0
 12 14  1  0  0  0  0
 12 15  1  0  0  0  0
 15 16  2  0  0  0  0
 15 17  1  0  0  0  0
 17 18  1  0  0  0  0
 17 19  1  0  0  0  0
M  END
> <ConfClashScore>
0 

> <ConfOneFourInteractionScore>
-0.991729 

> <ConfScore>
0.0154911 

> <ConfScorePBest>
0.0122145 

> <ConfTolerance>
0.25 

$$$$
GLN.****
  PyMOL2.4          3D                             0

 20 19  0  0  0  0  0  0  0  0999 V2000
    1.8870   -0.1215    1.1545 N   0  3  0  1  0  0  0  0  0  0  0  0
    2.2955   -0.2484    0.1956 H   0  0  0  1  0  0  0  0  0  0  0  0
    2.0016   -1.0089    1.7039 H   0  0  0  1  0  0  0  0  0  0  0  0
    2.3847    0.6617    1.6459 H   0  0  0  1  0  0  0  0  0  0  0  0
    0.4384    0.2067    1.0384 C   0  0  0  1  0  0  0  0  0  0  0  0
    0.3439    1.1856    0.6170 H   0  0  0  1  0  0  0  0  0  0  0  0
   -0.1810    0.2251    2.3934 C   0  0  0  1  0  0  0  0  0  0  0  0
   -1.2617    1.0502    2.4243 O   0  5  0  1  0  0  0  0  0  0  0  0
   -0.2647   -0.7791    0.1096 C   0  0  0  1  0  0  0  0  0  0  0  0
   -1.3040   -0.5274    0.0718 H   0  0  0  1  0  0  0  0  0  0  0  0
   -0.1502   -1.7643    0.5110 H   0  0  0  1  0  0  0  0  0  0  0  0
    0.2854   -0.7691   -1.3074 C   0  0  0  1  0  0  0  0  0  0  0  0
    1.2381   -1.2562   -1.3063 H   0  0  0  1  0  0  0  0  0  0  0  0
    0.4042    0.2474   -1.6194 H   0  0  0  1  0  0  0  0  0  0  0  0
   -0.6105   -1.4711   -2.2926 C   0  0  0  1  0  0  0  0  0  0  0  0
   -0.3441   -2.6040   -2.6917 O   0  0  0  1  0  0  0  0  0  0  0  0
   -1.7061   -0.8246   -2.7213 N   0  0  0  1  0  0  0  0  0  0  0  0
   -2.3288   -1.2688   -3.3340 H   0  0  0  1  0  0  0  0  0  0  0  0
   -1.8831    0.0915   -2.4217 H   0  0  0  1  0  0  0  0  0  0  0  0
    0.1892   -0.3954    3.3764 O   0  0  0  1  0  0  0  0  0  0  0  0
  1  2  1  0  0  0  0
  1  3  1  0  0  0  0
  1  4  1  0  0  0  0
  1  5  1  0  0  0  0
  5  6  1  0  0  0  0
  5  7  1  0  0  0  0
  5  9  1  0  0  0  0
  7  8  1  0  0  0  0
  7 20  2  0  0  0  0
  9 10  1  0  0  0  0
  9 11  1  0  0  0  0
  9 12  1  0  0  0  0
 12 13  1  0  0  0  0
 12 14  1  0  0  0  0
 12 15  1  0  0  0  0
 15 16  2  0  0  0  0
 15 17  1  0  0  0  0
 17 18  1  0  0  0  0
 17 19  1  0  0  0  0
M  END
> <ConfClashScore>
0 

> <ConfOneFourInteractionScore>
-0.974514 

> <ConfScore>
0.0232234 

> <ConfScorePBest>
0.0121115 

> <ConfTolerance>
0.25 

$$$$
GLN.****
  PyMOL2.4          3D                             0

 20 19  0  0  0  0  0  0  0  0999 V2000
    1.8566   -0.1927    1.0714 N   0  3  0  1  0  0  0  0  0  0  0  0
    2.2730   -0.4553    1.9988 H   0  0  0  1  0  0  0  0  0  0  0  0
    2.5307    0.4168    0.5453 H   0  0  0  1  0  0  0  0  0  0  0  0
    1.6635   -1.0625    0.5158 H   0  0  0  1  0  0  0  0  0  0  0  0
    0.5736    0.5551    1.2918 C   0  0  0  1  0  0  0  0  0  0  0  0
    0.8141    1.5065    1.7184 H   0  0  0  1  0  0  0  0  0  0  0  0
   -0.3435   -0.1505    2.2305 C   0  0  0  1  0  0  0  0  0  0  0  0
   -1.0325    0.7232    3.0124 O   0  5  0  1  0  0  0  0  0  0  0  0
   -0.0331    0.7973   -0.0241 C   0  0  0  1  0  0  0  0  0  0  0  0
   -0.1494   -0.1581   -0.4917 H   0  0  0  1  0  0  0  0  0  0  0  0
    0.6643    1.3858   -0.5828 H   0  0  0  1  0  0  0  0  0  0  0  0
   -1.3852    1.5042   -0.1204 C   0  0  0  1  0  0  0  0  0  0  0  0
   -1.3496    2.4255    0.4225 H   0  0  0  1  0  0  0  0  0  0  0  0
   -2.1495    0.8774    0.2894 H   0  0  0  1  0  0  0  0  0  0  0  0
   -1.6823    1.7833   -1.5809 C   0  0  0  1  0  0  0  0  0  0  0  0
   -1.2200    2.7675   -2.1564 O   0  0  0  1  0  0  0  0  0  0  0  0
   -2.4787    0.8671   -2.1541 N   0  0  0  1  0  0  0  0  0  0  0  0
   -2.6452    0.8978   -3.1194 H   0  0  0  1  0  0  0  0  0  0  0  0
   -2.8936    0.1677   -1.6073 H   0  0  0  1  0  0  0  0  0  0  0  0
   -0.4695   -1.3620    2.2987 O   0  0  0  1  0  0  0  0  0  0  0  0
  1  2  1  0  0  0  0
  1  3  1  0  0  0  0
  1  4  1  0  0  0  0
  1  5  1  0  0  0  0
  5  6  1  0  0  0  0
  5  7  1  0  0  0  0
  5  9  1  0  0  0  0
  7  8  1  0  0  0  0
  7 20  2  0  0  0  0
  9 10  1  0  0  0  0
  9 11  1  0  0  0  0
  9 12  1  0  0  0  0
 12 13  1  0  0  0  0
 12 14  1  0  0  0  0
 12 15  1  0  0  0  0
 15 16  2  0  0  0  0
 15 17  1  0  0  0  0
 17 18  1  0  0  0  0
 17 19  1  0  0  0  0
M  END
> <ConfClashScore>
0 

> <ConfOneFourInteractionScore>
-1 

> <ConfScore>
0.0241514 

> <ConfScorePBest>
0.0120085 

> <ConfTolerance>
0.318242 

$$$$
GLN.****
  PyMOL2.4          3D                             0

 20 19  0  0  0  0  0  0  0  0999 V2000
    1.9001   -0.0628    1.1708 N   0  3  0  1  0  0  0  0  0  0  0  0
    1.9660   -1.1094    1.2237 H   0  0  0  1  0  0  0  0  0  0  0  0
    2.3328    0.3587    2.0296 H   0  0  0  1  0  0  0  0  0  0  0  0
    2.4104    0.2771    0.3184 H   0  0  0  1  0  0  0  0  0  0  0  0
    0.4688    0.3417    1.0866 C   0  0  0  1  0  0  0  0  0  0  0  0
    0.4214    1.3981    0.9233 H   0  0  0  1  0  0  0  0  0  0  0  0
   -0.2335    0.0354    2.3645 C   0  0  0  1  0  0  0  0  0  0  0  0
   -1.5730    0.2490    2.2660 O   0  5  0  1  0  0  0  0  0  0  0  0
   -0.1745   -0.3529   -0.1046 C   0  0  0  1  0  0  0  0  0  0  0  0
   -1.2020   -0.0585   -0.1547 H   0  0  0  1  0  0  0  0  0  0  0  0
   -0.1130   -1.4105    0.0456 H   0  0  0  1  0  0  0  0  0  0  0  0
    0.4889   -0.0149   -1.4297 C   0  0  0  1  0  0  0  0  0  0  0  0
    1.5444   -0.1579   -1.3284 H   0  0  0  1  0  0  0  0  0  0  0  0
    0.2878    1.0106   -1.6594 H   0  0  0  1  0  0  0  0  0  0  0  0
   -0.0064   -0.8727   -2.5778 C   0  0  0  1  0  0  0  0  0  0  0  0
    0.1546   -2.0820   -2.5798 O   0  0  0  1  0  0  0  0  0  0  0  0
   -0.6215   -0.2176   -3.5700 N   0  0  0  1  0  0  0  0  0  0  0  0
   -0.9689   -0.7115   -4.3419 H   0  0  0  1  0  0  0  0  0  0  0  0
   -0.7245    0.7559   -3.5245 H   0  0  0  1  0  0  0  0  0  0  0  0
    0.3145   -0.3589    3.3807 O   0  0  0  1  0  0  0  0  0  0  0  0
  1  2  1  0  0  0  0
  1  3  1  0  0  0  0
  1  4  1  0  0  0  0
  1  5  1  0  0  0  0
  5  6  1  0  0  0  0
  5  7  1  0  0  0  0
  5  9  1  0  0  0  0
  7  8  1  0  0  0  0
  7 20  2  0  0  0  0
  9 10  1  0  0  0  0
  9 11  1  0  0  0  0
  9 12  1  0  0  0  0
 12 13  1  0  0  0  0
 12 14  1  0  0  0  0
 12 15  1  0  0  0  0
 15 16  2  0  0  0  0
 15 17  1  0  0  0  0
 17 18  1  0  0  0  0
 17 19  1  0  0  0  0
M  END
> <ConfClashScore>
0 

> <ConfOneFourInteractionScore>
-1 

> <ConfScore>
0.0273964 

> <ConfScorePBest>
0.0119055 

> <ConfTolerance>
0.305275 

$$$$
GLN.****
  PyMOL2.4          3D                             0

 20 19  0  0  0  0  0  0  0  0999 V2000
    1.8972   -0.0258    1.1654 N   0  3  0  1  0  0  0  0  0  0  0  0
    2.3170   -0.1854    0.2163 H   0  0  0  1  0  0  0  0  0  0  0  0
    2.0955   -0.8542    1.7793 H   0  0  0  1  0  0  0  0  0  0  0  0
    2.3175    0.8361    1.5933 H   0  0  0  1  0  0  0  0  0  0  0  0
    0.4241    0.1532    1.0340 C   0  0  0  1  0  0  0  0  0  0  0  0
    0.2370    1.0820    0.5367 H   0  0  0  1  0  0  0  0  0  0  0  0
   -0.1949    0.2208    2.3876 C   0  0  0  1  0  0  0  0  0  0  0  0
   -1.5505    0.3188    2.3386 O   0  5  0  1  0  0  0  0  0  0  0  0
   -0.1780   -0.9588    0.1967 C   0  0  0  1  0  0  0  0  0  0  0  0
   -0.1322   -1.8687    0.7577 H   0  0  0  1  0  0  0  0  0  0  0  0
    0.4004   -1.0611   -0.6977 H   0  0  0  1  0  0  0  0  0  0  0  0
   -1.6253   -0.7044   -0.1918 C   0  0  0  1  0  0  0  0  0  0  0  0
   -1.6763    0.2192   -0.7296 H   0  0  0  1  0  0  0  0  0  0  0  0
   -2.2097   -0.6304    0.7015 H   0  0  0  1  0  0  0  0  0  0  0  0
   -2.2045   -1.7938   -1.0543 C   0  0  0  1  0  0  0  0  0  0  0  0
   -2.1311   -2.9739   -0.7144 O   0  0  0  1  0  0  0  0  0  0  0  0
   -2.8020   -1.4388   -2.2028 N   0  0  0  1  0  0  0  0  0  0  0  0
   -3.2116   -2.1220   -2.7736 H   0  0  0  1  0  0  0  0  0  0  0  0
   -2.8286   -0.4964   -2.4705 H   0  0  0  1  0  0  0  0  0  0  0  0
    0.4682    0.1894    3.4112 O   0  0  0  1  0  0  0  0  0  0  0  0
  1  2  1  0  0  0  0
  1  3  1  0  0  0  0
  1  4  1  0  0  0  0
  1  5  1  0  0  0  0
  5  6  1  0  0  0  0
  5  7  1  0  0  0  0
  5  9  1  0  0  0  0
  7  8  1  0  0  0  0
  7 20  2  0  0  0  0
  9 10  1  0  0  0  0
  9 11  1  0  0  0  0
  9 12  1  0  0  0  0
 12 13  1  0  0  0  0
 12 14  1  0  0  0  0
 12 15  1  0  0  0  0
 15 16  2  0  0  0  0
 15 17  1  0  0  0  0
 17 18  1  0  0  0  0
 17 19  1  0  0  0  0
M  END
> <ConfClashScore>
0 

> <ConfOneFourInteractionScore>
-1 

> <ConfScore>
0.03165 

> <ConfScorePBest>
0.0118025 

> <ConfTolerance>
0.25 

$$$$
GLN.****
  PyMOL2.4          3D                             0

 20 19  0  0  0  0  0  0  0  0999 V2000
    1.8951   -0.0701    1.1890 N   0  3  0  1  0  0  0  0  0  0  0  0
    2.3431    0.1997    2.0995 H   0  0  0  1  0  0  0  0  0  0  0  0
    2.4476    0.3357    0.3936 H   0  0  0  1  0  0  0  0  0  0  0  0
    1.8766   -1.1165    1.1048 H   0  0  0  1  0  0  0  0  0  0  0  0
    0.5021    0.4561    1.1449 C   0  0  0  1  0  0  0  0  0  0  0  0
    0.5464    1.5119    1.3130 H   0  0  0  1  0  0  0  0  0  0  0  0
   -0.2712   -0.1408    2.2700 C   0  0  0  1  0  0  0  0  0  0  0  0
   -1.5731    0.2519    2.2496 O   0  5  0  1  0  0  0  0  0  0  0  0
   -0.1283    0.2388   -0.2173 C   0  0  0  1  0  0  0  0  0  0  0  0
   -1.1599    0.5174   -0.1621 H   0  0  0  1  0  0  0  0  0  0  0  0
   -0.0514   -0.7993   -0.4650 H   0  0  0  1  0  0  0  0  0  0  0  0
    0.5309    1.0480   -1.3223 C   0  0  0  1  0  0  0  0  0  0  0  0
    1.5191    0.6604   -1.4571 H   0  0  0  1  0  0  0  0  0  0  0  0
    0.5879    2.0622   -0.9860 H   0  0  0  1  0  0  0  0  0  0  0  0
   -0.1419    1.0578   -2.6811 C   0  0  0  1  0  0  0  0  0  0  0  0
   -1.2460    1.5528   -2.8374 O   0  0  0  1  0  0  0  0  0  0  0  0
    0.5537    0.4923   -3.6804 N   0  0  0  1  0  0  0  0  0  0  0  0
    0.1669    0.4419   -4.5794 H   0  0  0  1  0  0  0  0  0  0  0  0
    1.4483    0.1300   -3.5108 H   0  0  0  1  0  0  0  0  0  0  0  0
    0.1948   -0.8907    3.1119 O   0  0  0  1  0  0  0  0  0  0  0  0
  1  2  1  0  0  0  0
  1  3  1  0  0  0  0
  1  4  1  0  0  0  0
  1  5  1  0  0  0  0
  5  6  1  0  0  0  0
  5  7  1  0  0  0  0
  5  9  1  0  0  0  0
  7  8  1  0  0  0  0
  7 20  2  0  0  0  0
  9 10  1  0  0  0  0
  9 11  1  0  0  0  0
  9 12  1  0  0  0  0
 12 13  1  0  0  0  0
 12 14  1  0  0  0  0
 12 15  1  0  0  0  0
 15 16  2  0  0  0  0
 15 17  1  0  0  0  0
 17 18  1  0  0  0  0
 17 19  1  0  0  0  0
M  END
> <ConfClashScore>
0 

> <ConfOneFourInteractionScore>
-1 

> <ConfScore>
0.0323059 

> <ConfScorePBest>
0.0116995 

> <ConfTolerance>
0.25 

$$$$
GLN.****
  PyMOL2.4          3D                             0

 20 19  0  0  0  0  0  0  0  0999 V2000
    1.8991   -0.0660    1.1697 N   0  3  0  1  0  0  0  0  0  0  0  0
    1.9662   -1.1085    1.2761 H   0  0  0  1  0  0  0  0  0  0  0  0
    2.3467    0.3996    1.9975 H   0  0  0  1  0  0  0  0  0  0  0  0
    2.3942    0.2285    0.2918 H   0  0  0  1  0  0  0  0  0  0  0  0
    0.4624    0.3356    1.0893 C   0  0  0  1  0  0  0  0  0  0  0  0
    0.4275    1.3962    0.9525 H   0  0  0  1  0  0  0  0  0  0  0  0
   -0.2382    0.0243    2.3669 C   0  0  0  1  0  0  0  0  0  0  0  0
   -1.5745    0.2612    2.2784 O   0  5  0  1  0  0  0  0  0  0  0  0
   -0.1588   -0.3026   -0.1382 C   0  0  0  1  0  0  0  0  0  0  0  0
    0.2037    0.1946   -1.0136 H   0  0  0  1  0  0  0  0  0  0  0  0
   -1.2228   -0.2023   -0.0853 H   0  0  0  1  0  0  0  0  0  0  0  0
    0.1994   -1.7776   -0.2183 C   0  0  0  1  0  0  0  0  0  0  0  0
   -0.0165   -2.2426    0.7209 H   0  0  0  1  0  0  0  0  0  0  0  0
    1.2432   -1.8739   -0.4330 H   0  0  0  1  0  0  0  0  0  0  0  0
   -0.6017   -2.4692   -1.3139 C   0  0  0  1  0  0  0  0  0  0  0  0
   -1.6994   -2.0467   -1.6745 O   0  0  0  1  0  0  0  0  0  0  0  0
    0.0045   -3.5535   -1.8228 N   0  0  0  1  0  0  0  0  0  0  0  0
    0.8724   -3.8407   -1.4697 H   0  0  0  1  0  0  0  0  0  0  0  0
   -0.4208   -4.0577   -2.5476 H   0  0  0  1  0  0  0  0  0  0  0  0
    0.3083   -0.3922    3.3750 O   0  0  0  1  0  0  0  0  0  0  0  0
  1  2  1  0  0  0  0
  1  3  1  0  0  0  0
  1  4  1  0  0  0  0
  1  5  1  0  0  0  0
  5  6  1  0  0  0  0
  5  7  1  0  0  0  0
  5  9  1  0  0  0  0
  7  8  1  0  0  0  0
  7 20  2  0  0  0  0
  9 10  1  0  0  0  0
  9 11  1  0  0  0  0
  9 12  1  0  0  0  0
 12 13  1  0  0  0  0
 12 14  1  0  0  0  0
 12 15  1  0  0  0  0
 15 16  2  0  0  0  0
 15 17  1  0  0  0  0
 17 18  1  0  0  0  0
 17 19  1  0  0  0  0
M  END
> <ConfClashScore>
0 

> <ConfOneFourInteractionScore>
-0.931193 

> <ConfScore>
0.0405221 

> <ConfScorePBest>
0.0115965 

> <ConfTolerance>
0.274444 

$$$$
GLN.****
  PyMOL2.4          3D                             0

 20 19  0  0  0  0  0  0  0  0999 V2000
    1.8904   -0.0189    1.1965 N   0  3  0  1  0  0  0  0  0  0  0  0
    1.9858   -1.0609    1.2831 H   0  0  0  1  0  0  0  0  0  0  0  0
    2.2786    0.4406    2.0571 H   0  0  0  1  0  0  0  0  0  0  0  0
    2.4208    0.3120    0.3529 H   0  0  0  1  0  0  0  0  0  0  0  0
    0.4519    0.3382    1.0496 C   0  0  0  1  0  0  0  0  0  0  0  0
    0.3674    1.3870    0.8557 H   0  0  0  1  0  0  0  0  0  0  0  0
   -0.2166    0.0352    2.3463 C   0  0  0  1  0  0  0  0  0  0  0  0
   -1.4855   -0.4269    2.1851 O   0  5  0  1  0  0  0  0  0  0  0  0
   -0.1991   -0.4248   -0.0880 C   0  0  0  1  0  0  0  0  0  0  0  0
   -0.3181   -1.4449    0.2120 H   0  0  0  1  0  0  0  0  0  0  0  0
    0.4446   -0.3761   -0.9413 H   0  0  0  1  0  0  0  0  0  0  0  0
   -1.5612    0.1243   -0.4799 C   0  0  0  1  0  0  0  0  0  0  0  0
   -1.4371    1.1651   -0.6949 H   0  0  0  1  0  0  0  0  0  0  0  0
   -2.2081    0.0087    0.3645 H   0  0  0  1  0  0  0  0  0  0  0  0
   -2.2493   -0.5009   -1.6629 C   0  0  0  1  0  0  0  0  0  0  0  0
   -2.1545   -1.7077   -1.8828 O   0  0  0  1  0  0  0  0  0  0  0  0
   -2.9679    0.2965   -2.4691 N   0  0  0  1  0  0  0  0  0  0  0  0
   -3.4993   -0.0916   -3.1953 H   0  0  0  1  0  0  0  0  0  0  0  0
   -2.9610    1.2667   -2.3314 H   0  0  0  1  0  0  0  0  0  0  0  0
    0.3394    0.1945    3.4205 O   0  0  0  1  0  0  0  0  0  0  0  0
  1  2  1  0  0  0  0
  1  3  1  0  0  0  0
  1  4  1  0  0  0  0
  1  5  1  0  0  0  0
  5  6  1  0  0  0  0
  5  7  1  0  0  0  0
  5  9  1  0  0  0  0
  7  8  1  0  0  0  0
  7 20  2  0  0  0  0
  9 10  1  0  0  0  0
  9 11  1  0  0  0  0
  9 12  1  0  0  0  0
 12 13  1  0  0  0  0
 12 14  1  0  0  0  0
 12 15  1  0  0  0  0
 15 16  2  0  0  0  0
 15 17  1  0  0  0  0
 17 18  1  0  0  0  0
 17 19  1  0  0  0  0
M  END
> <ConfClashScore>
0 

> <ConfOneFourInteractionScore>
-1 

> <ConfScore>
0.0413773 

> <ConfScorePBest>
0.0114935 

> <ConfTolerance>
0.323756 

$$$$
GLN.****
  PyMOL2.4          3D                             0

 20 19  0  0  0  0  0  0  0  0999 V2000
    1.8327   -0.2255    1.0906 N   0  3  0  1  0  0  0  0  0  0  0  0
    1.6936   -1.2434    0.8738 H   0  0  0  1  0  0  0  0  0  0  0  0
    2.3087   -0.1280    2.0214 H   0  0  0  1  0  0  0  0  0  0  0  0
    2.4279    0.2127    0.3449 H   0  0  0  1  0  0  0  0  0  0  0  0
    0.5100    0.4586    1.1355 C   0  0  0  1  0  0  0  0  0  0  0  0
    0.6552    1.5186    1.1501 H   0  0  0  1  0  0  0  0  0  0  0  0
   -0.2418    0.0542    2.3567 C   0  0  0  1  0  0  0  0  0  0  0  0
   -0.6263    1.1326    3.0908 O   0  5  0  1  0  0  0  0  0  0  0  0
   -0.2386    0.0949   -0.0750 C   0  0  0  1  0  0  0  0  0  0  0  0
   -0.3418   -0.9701   -0.0667 H   0  0  0  1  0  0  0  0  0  0  0  0
    0.3620    0.3890   -0.9103 H   0  0  0  1  0  0  0  0  0  0  0  0
   -1.6294    0.6703   -0.3082 C   0  0  0  1  0  0  0  0  0  0  0  0
   -1.5678    1.7377   -0.2658 H   0  0  0  1  0  0  0  0  0  0  0  0
   -2.2777    0.3189    0.4671 H   0  0  0  1  0  0  0  0  0  0  0  0
   -2.2151    0.2766   -1.6378 C   0  0  0  1  0  0  0  0  0  0  0  0
   -1.5209    0.2607   -2.6533 O   0  0  0  1  0  0  0  0  0  0  0  0
   -3.5198   -0.0569   -1.6813 N   0  0  0  1  0  0  0  0  0  0  0  0
   -3.9140   -0.3850   -2.5164 H   0  0  0  1  0  0  0  0  0  0  0  0
   -4.0745    0.0285   -0.8780 H   0  0  0  1  0  0  0  0  0  0  0  0
   -0.4884   -1.0987    2.6702 O   0  0  0  1  0  0  0  0  0  0  0  0
  1  2  1  0  0  0  0
  1  3  1  0  0  0  0
  1  4  1  0  0  0  0
  1  5  1  0  0  0  0
  5  6  1  0  0  0  0
  5  7  1  0  0  0  0
  5  9  1  0  0  0  0
  7  8  1  0  0  0  0
  7 20  2  0  0  0  0
  9 10  1  0  0  0  0
  9 11  1  0  0  0  0
  9 12  1  0  0  0  0
 12 13  1  0  0  0  0
 12 14  1  0  0  0  0
 12 15  1  0  0  0  0
 15 16  2  0  0  0  0
 15 17  1  0  0  0  0
 17 18  1  0  0  0  0
 17 19  1  0  0  0  0
M  END
> <ConfClashScore>
0 

> <ConfOneFourInteractionScore>
-1 

> <ConfScore>
0.0448783 

> <ConfScorePBest>
0.0113905 

> <ConfTolerance>
0.404123 

$$$$
GLN.****
  PyMOL2.4          3D                             0

 20 19  0  0  0  0  0  0  0  0999 V2000
    1.8460   -0.1626    1.1270 N   0  3  0  1  0  0  0  0  0  0  0  0
    2.2792   -0.2341    2.0808 H   0  0  0  1  0  0  0  0  0  0  0  0
    2.4934    0.3608    0.4872 H   0  0  0  1  0  0  0  0  0  0  0  0
    1.6795   -1.1265    0.7454 H   0  0  0  1  0  0  0  0  0  0  0  0
    0.5489    0.5639    1.2232 C   0  0  0  1  0  0  0  0  0  0  0  0
    0.7348    1.5481    1.5995 H   0  0  0  1  0  0  0  0  0  0  0  0
   -0.2822   -0.1672    2.2206 C   0  0  0  1  0  0  0  0  0  0  0  0
   -1.1606    0.6608    2.8469 O   0  5  0  1  0  0  0  0  0  0  0  0
   -0.1112    0.6942   -0.1271 C   0  0  0  1  0  0  0  0  0  0  0  0
   -0.1400   -0.2771   -0.5750 H   0  0  0  1  0  0  0  0  0  0  0  0
    0.4897    1.3461   -0.7261 H   0  0  0  1  0  0  0  0  0  0  0  0
   -1.5278    1.2452   -0.1124 C   0  0  0  1  0  0  0  0  0  0  0  0
   -1.7979    1.5169   -1.1115 H   0  0  0  1  0  0  0  0  0  0  0  0
   -1.5489    2.1138    0.5121 H   0  0  0  1  0  0  0  0  0  0  0  0
   -2.5391    0.2579    0.4057 C   0  0  0  1  0  0  0  0  0  0  0  0
   -2.2407   -0.8838    0.7058 O   0  0  0  1  0  0  0  0  0  0  0  0
   -3.8592    0.6574    0.5483 N   0  0  0  1  0  0  0  0  0  0  0  0
   -4.1213    1.5735    0.3190 H   0  0  0  1  0  0  0  0  0  0  0  0
   -4.5300    0.0238    0.8783 H   0  0  0  1  0  0  0  0  0  0  0  0
   -0.1948   -1.3612    2.4555 O   0  0  0  1  0  0  0  0  0  0  0  0
  1  2  1  0  0  0  0
  1  3  1  0  0  0  0
  1  4  1  0  0  0  0
  1  5  1  0  0  0  0
  5  6  1  0  0  0  0
  5  7  1  0  0  0  0
  5  9  1  0  0  0  0
  7  8  1  0  0  0  0
  7 20  2  0  0  0  0
  9 10  1  0  0  0  0
  9 11  1  0  0  0  0
  9 12  1  0  0  0  0
 12 13  1  0  0  0  0
 12 14  1  0  0  0  0
 12 15  1  0  0  0  0
 15 16  2  0  0  0  0
 15 17  1  0  0  0  0
 17 18  1  0  0  0  0
 17 19  1  0  0  0  0
M  END
> <ConfClashScore>
0 

> <ConfOneFourInteractionScore>
-0.999576 

> <ConfScore>
0.0468291 

> <ConfScorePBest>
0.0112875 

> <ConfTolerance>
0.428365 

$$$$
GLN.****
  PyMOL2.4          3D                             0

 20 19  0  0  0  0  0  0  0  0999 V2000
    1.7755   -0.2664    1.0696 N   0  3  0  1  0  0  0  0  0  0  0  0
    1.5149   -1.2819    1.0107 H   0  0  0  1  0  0  0  0  0  0  0  0
    2.3770   -0.1082    1.9155 H   0  0  0  1  0  0  0  0  0  0  0  0
    2.3054    0.0093    0.2061 H   0  0  0  1  0  0  0  0  0  0  0  0
    0.5421    0.5570    1.1779 C   0  0  0  1  0  0  0  0  0  0  0  0
    0.8049    1.5794    1.3529 H   0  0  0  1  0  0  0  0  0  0  0  0
   -0.2571    0.0527    2.3299 C   0  0  0  1  0  0  0  0  0  0  0  0
    0.3676    0.2425    3.5229 O   0  5  0  1  0  0  0  0  0  0  0  0
   -0.2469    0.4609   -0.1137 C   0  0  0  1  0  0  0  0  0  0  0  0
   -0.5988   -0.5437   -0.2223 H   0  0  0  1  0  0  0  0  0  0  0  0
    0.4046    0.7012   -0.9279 H   0  0  0  1  0  0  0  0  0  0  0  0
   -1.4450    1.4001   -0.1607 C   0  0  0  1  0  0  0  0  0  0  0  0
   -1.1019    2.3988    0.0119 H   0  0  0  1  0  0  0  0  0  0  0  0
   -2.1288    1.1187    0.6127 H   0  0  0  1  0  0  0  0  0  0  0  0
   -2.1799    1.3636   -1.4945 C   0  0  0  1  0  0  0  0  0  0  0  0
   -1.7784    0.6773   -2.4334 O   0  0  0  1  0  0  0  0  0  0  0  0
   -3.2762    2.1376   -1.5278 N   0  0  0  1  0  0  0  0  0  0  0  0
   -3.8708    2.1118   -2.3065 H   0  0  0  1  0  0  0  0  0  0  0  0
   -3.4820    2.7284   -0.7735 H   0  0  0  1  0  0  0  0  0  0  0  0
   -1.3505   -0.4694    2.1872 O   0  0  0  1  0  0  0  0  0  0  0  0
  1  2  1  0  0  0  0
  1  3  1  0  0  0  0
  1  4  1  0  0  0  0
  1  5  1  0  0  0  0
  5  6  1  0  0  0  0
  5  7  1  0  0  0  0
  5  9  1  0  0  0  0
  7  8  1  0  0  0  0
  7 20  2  0  0  0  0
  9 10  1  0  0  0  0
  9 11  1  0  0  0  0
  9 12  1  0  0  0  0
 12 13  1  0  0  0  0
 12 14  1  0  0  0  0
 12 15  1  0  0  0  0
 15 16  2  0  0  0  0
 15 17  1  0  0  0  0
 17 18  1  0  0  0  0
 17 19  1  0  0  0  0
M  END
> <ConfClashScore>
0 

> <ConfOneFourInteractionScore>
-0.999576 

> <ConfScore>
0.0493553 

> <ConfScorePBest>
0.0111845 

> <ConfTolerance>
0.287566 

$$$$
GLN.****
  PyMOL2.4          3D                             0

 20 19  0  0  0  0  0  0  0  0999 V2000
    1.7783   -0.2724    1.0733 N   0  3  0  1  0  0  0  0  0  0  0  0
    1.5382   -1.2945    1.0600 H   0  0  0  1  0  0  0  0  0  0  0  0
    2.3844   -0.0664    1.9056 H   0  0  0  1  0  0  0  0  0  0  0  0
    2.2943   -0.0229    0.1935 H   0  0  0  1  0  0  0  0  0  0  0  0
    0.5269    0.5313    1.1596 C   0  0  0  1  0  0  0  0  0  0  0  0
    0.8031    1.5459    1.3573 H   0  0  0  1  0  0  0  0  0  0  0  0
   -0.2705    0.0526    2.3237 C   0  0  0  1  0  0  0  0  0  0  0  0
    0.4023    0.2140    3.4946 O   0  5  0  1  0  0  0  0  0  0  0  0
   -0.2344    0.5153   -0.1571 C   0  0  0  1  0  0  0  0  0  0  0  0
   -1.0617    1.1893   -0.0788 H   0  0  0  1  0  0  0  0  0  0  0  0
   -0.5969   -0.4769   -0.3273 H   0  0  0  1  0  0  0  0  0  0  0  0
    0.6137    0.9296   -1.3485 C   0  0  0  1  0  0  0  0  0  0  0  0
    1.4152    0.2289   -1.4562 H   0  0  0  1  0  0  0  0  0  0  0  0
    1.0139    1.9037   -1.1594 H   0  0  0  1  0  0  0  0  0  0  0  0
   -0.1635    0.9723   -2.6408 C   0  0  0  1  0  0  0  0  0  0  0  0
   -1.3577    0.7243   -2.6699 O   0  0  0  1  0  0  0  0  0  0  0  0
    0.5424    1.2972   -3.7355 N   0  0  0  1  0  0  0  0  0  0  0  0
    1.5169    1.3857   -3.6817 H   0  0  0  1  0  0  0  0  0  0  0  0
    0.0832    1.4458   -4.5884 H   0  0  0  1  0  0  0  0  0  0  0  0
   -1.3898   -0.4268    2.2486 O   0  0  0  1  0  0  0  0  0  0  0  0
  1  2  1  0  0  0  0
  1  3  1  0  0  0  0
  1  4  1  0  0  0  0
  1  5  1  0  0  0  0
  5  6  1  0  0  0  0
  5  7  1  0  0  0  0
  5  9  1  0  0  0  0
  7  8  1  0  0  0  0
  7 20  2  0  0  0  0
  9 10  1  0  0  0  0
  9 11  1  0  0  0  0
  9 12  1  0  0  0  0
 12 13  1  0  0  0  0
 12 14  1  0  0  0  0
 12 15  1  0  0  0  0
 15 16  2  0  0  0  0
 15 17  1  0  0  0  0
 17 18  1  0  0  0  0
 17 19  1  0  0  0  0
M  END
> <ConfClashScore>
0 

> <ConfOneFourInteractionScore>
-0.999576 

> <ConfScore>
0.0562122 

> <ConfScorePBest>
0.0110815 

> <ConfTolerance>
0.25 

$$$$
GLN.****
  PyMOL2.4          3D                             0

 20 19  0  0  0  0  0  0  0  0999 V2000
    1.8790   -0.0826    1.1578 N   0  3  0  1  0  0  0  0  0  0  0  0
    2.3559    0.1135    0.2431 H   0  0  0  1  0  0  0  0  0  0  0  0
    2.0078   -1.0937    1.4097 H   0  0  0  1  0  0  0  0  0  0  0  0
    2.2982    0.5216    1.9073 H   0  0  0  1  0  0  0  0  0  0  0  0
    0.4248    0.2168    1.0347 C   0  0  0  1  0  0  0  0  0  0  0  0
    0.2911    1.1827    0.5941 H   0  0  0  1  0  0  0  0  0  0  0  0
   -0.1834    0.2104    2.3948 C   0  0  0  1  0  0  0  0  0  0  0  0
   -1.3913    0.8352    2.4086 O   0  5  0  1  0  0  0  0  0  0  0  0
   -0.1781   -0.8377    0.1266 C   0  0  0  1  0  0  0  0  0  0  0  0
   -0.1479   -1.7795    0.6336 H   0  0  0  1  0  0  0  0  0  0  0  0
    0.4097   -0.8934   -0.7657 H   0  0  0  1  0  0  0  0  0  0  0  0
   -1.6182   -0.5458   -0.2625 C   0  0  0  1  0  0  0  0  0  0  0  0
   -2.1828   -0.3691    0.6291 H   0  0  0  1  0  0  0  0  0  0  0  0
   -2.0131   -1.3999   -0.7719 H   0  0  0  1  0  0  0  0  0  0  0  0
   -1.7556    0.6625   -1.1681 C   0  0  0  1  0  0  0  0  0  0  0  0
   -0.7923    1.3860   -1.4179 O   0  0  0  1  0  0  0  0  0  0  0  0
   -2.9824    0.8805   -1.6676 N   0  0  0  1  0  0  0  0  0  0  0  0
   -3.7214    0.2822   -1.4305 H   0  0  0  1  0  0  0  0  0  0  0  0
   -3.1389    1.6380   -2.2694 H   0  0  0  1  0  0  0  0  0  0  0  0
    0.3291   -0.2903    3.3823 O   0  0  0  1  0  0  0  0  0  0  0  0
  1  2  1  0  0  0  0
  1  3  1  0  0  0  0
  1  4  1  0  0  0  0
  1  5  1  0  0  0  0
  5  6  1  0  0  0  0
  5  7  1  0  0  0  0
  5  9  1  0  0  0  0
  7  8  1  0  0  0  0
  7 20  2  0  0  0  0
  9 10  1  0  0  0  0
  9 11  1  0  0  0  0
  9 12  1  0  0  0  0
 12 13  1  0  0  0  0
 12 14  1  0  0  0  0
 12 15  1  0  0  0  0
 15 16  2  0  0  0  0
 15 17  1  0  0  0  0
 17 18  1  0  0  0  0
 17 19  1  0  0  0  0
M  END
> <ConfClashScore>
0 

> <ConfOneFourInteractionScore>
-0.999576 

> <ConfScore>
0.0603584 

> <ConfScorePBest>
0.0109785 

> <ConfTolerance>
0.317965 

$$$$
GLN.****
  PyMOL2.4          3D                             0

 20 19  0  0  0  0  0  0  0  0999 V2000
    1.8773   -0.0790    1.1648 N   0  3  0  1  0  0  0  0  0  0  0  0
    2.3238   -0.0830    0.2145 H   0  0  0  1  0  0  0  0  0  0  0  0
    2.0245   -1.0115    1.6245 H   0  0  0  1  0  0  0  0  0  0  0  0
    2.3128    0.6742    1.7527 H   0  0  0  1  0  0  0  0  0  0  0  0
    0.4169    0.1812    1.0270 C   0  0  0  1  0  0  0  0  0  0  0  0
    0.2977    1.1537    0.5969 H   0  0  0  1  0  0  0  0  0  0  0  0
   -0.1933    0.2187    2.3859 C   0  0  0  1  0  0  0  0  0  0  0  0
   -1.4134    0.8106    2.4888 O   0  5  0  1  0  0  0  0  0  0  0  0
   -0.2360   -0.8144    0.0876 C   0  0  0  1  0  0  0  0  0  0  0  0
   -1.2967   -0.7066    0.1784 H   0  0  0  1  0  0  0  0  0  0  0  0
    0.0509   -1.7974    0.3980 H   0  0  0  1  0  0  0  0  0  0  0  0
    0.1267   -0.6625   -1.3838 C   0  0  0  1  0  0  0  0  0  0  0  0
   -0.3245   -1.4642   -1.9303 H   0  0  0  1  0  0  0  0  0  0  0  0
    1.1908   -0.7192   -1.4799 H   0  0  0  1  0  0  0  0  0  0  0  0
   -0.3390    0.6415   -1.9743 C   0  0  0  1  0  0  0  0  0  0  0  0
   -0.8169    1.5333   -1.2926 O   0  0  0  1  0  0  0  0  0  0  0  0
   -0.2230    0.8417   -3.3415 N   0  0  0  1  0  0  0  0  0  0  0  0
    0.1392    0.1318   -3.9117 H   0  0  0  1  0  0  0  0  0  0  0  0
   -0.5032    1.6932   -3.7375 H   0  0  0  1  0  0  0  0  0  0  0  0
    0.4228   -0.2745    3.3162 O   0  0  0  1  0  0  0  0  0  0  0  0
  1  2  1  0  0  0  0
  1  3  1  0  0  0  0
  1  4  1  0  0  0  0
  1  5  1  0  0  0  0
  5  6  1  0  0  0  0
  5  7  1  0  0  0  0
  5  9  1  0  0  0  0
  7  8  1  0  0  0  0
  7 20  2  0  0  0  0
  9 10  1  0  0  0  0
  9 11  1  0  0  0  0
  9 12  1  0  0  0  0
 12 13  1  0  0  0  0
 12 14  1  0  0  0  0
 12 15  1  0  0  0  0
 15 16  2  0  0  0  0
 15 17  1  0  0  0  0
 17 18  1  0  0  0  0
 17 19  1  0  0  0  0
M  END
> <ConfClashScore>
0 

> <ConfOneFourInteractionScore>
-0.999576 

> <ConfScore>
0.0666999 

> <ConfScorePBest>
0.0108755 

> <ConfTolerance>
0.272533 

$$$$
GLN.****
  PyMOL2.4          3D                             0

 20 19  0  0  0  0  0  0  0  0999 V2000
    1.8935   -0.0942    1.1655 N   0  3  0  1  0  0  0  0  0  0  0  0
    1.9005   -1.1421    1.2313 H   0  0  0  1  0  0  0  0  0  0  0  0
    2.3575    0.3126    2.0151 H   0  0  0  1  0  0  0  0  0  0  0  0
    2.4142    0.2056    0.3045 H   0  0  0  1  0  0  0  0  0  0  0  0
    0.4867    0.3900    1.0886 C   0  0  0  1  0  0  0  0  0  0  0  0
    0.4755    1.4542    0.9787 H   0  0  0  1  0  0  0  0  0  0  0  0
   -0.2255    0.0180    2.3433 C   0  0  0  1  0  0  0  0  0  0  0  0
   -1.4759    0.5510    2.3888 O   0  5  0  1  0  0  0  0  0  0  0  0
   -0.2378   -0.2407   -0.0850 C   0  0  0  1  0  0  0  0  0  0  0  0
   -1.2689    0.0414   -0.0384 H   0  0  0  1  0  0  0  0  0  0  0  0
   -0.1544   -1.3043   -0.0033 H   0  0  0  1  0  0  0  0  0  0  0  0
    0.3174    0.1840   -1.4347 C   0  0  0  1  0  0  0  0  0  0  0  0
    1.3320   -0.1483   -1.5054 H   0  0  0  1  0  0  0  0  0  0  0  0
    0.2863    1.2518   -1.4951 H   0  0  0  1  0  0  0  0  0  0  0  0
   -0.4548   -0.3842   -2.5952 C   0  0  0  1  0  0  0  0  0  0  0  0
   -1.3816    0.2444   -3.1048 O   0  0  0  1  0  0  0  0  0  0  0  0
   -0.1003   -1.6009   -3.0582 N   0  0  0  1  0  0  0  0  0  0  0  0
    0.6770   -2.0620   -2.6792 H   0  0  0  1  0  0  0  0  0  0  0  0
   -0.6201   -2.0235   -3.7735 H   0  0  0  1  0  0  0  0  0  0  0  0
    0.2443   -0.6783    3.2281 O   0  0  0  1  0  0  0  0  0  0  0  0
  1  2  1  0  0  0  0
  1  3  1  0  0  0  0
  1  4  1  0  0  0  0
  1  5  1  0  0  0  0
  5  6  1  0  0  0  0
  5  7  1  0  0  0  0
  5  9  1  0  0  0  0
  7  8  1  0  0  0  0
  7 20  2  0  0  0  0
  9 10  1  0  0  0  0
  9 11  1  0  0  0  0
  9 12  1  0  0  0  0
 12 13  1  0  0  0  0
 12 14  1  0  0  0  0
 12 15  1  0  0  0  0
 15 16  2  0  0  0  0
 15 17  1  0  0  0  0
 17 18  1  0  0  0  0
 17 19  1  0  0  0  0
M  END
> <ConfClashScore>
0 

> <ConfOneFourInteractionScore>
-1 

> <ConfScore>
0.068684 

> <ConfScorePBest>
0.0107725 

> <ConfTolerance>
0.29318 

$$$$
GLN.****
  PyMOL2.4          3D                             0

 20 19  0  0  0  0  0  0  0  0999 V2000
    1.8938   -0.0777    1.1626 N   0  3  0  1  0  0  0  0  0  0  0  0
    2.3438   -0.0163    0.2159 H   0  0  0  1  0  0  0  0  0  0  0  0
    2.0453   -1.0376    1.5603 H   0  0  0  1  0  0  0  0  0  0  0  0
    2.3224    0.6376    1.8006 H   0  0  0  1  0  0  0  0  0  0  0  0
    0.4323    0.1822    1.0363 C   0  0  0  1  0  0  0  0  0  0  0  0
    0.2951    1.1405    0.5804 H   0  0  0  1  0  0  0  0  0  0  0  0
   -0.1882    0.2214    2.3904 C   0  0  0  1  0  0  0  0  0  0  0  0
   -1.4154    0.8070    2.3645 O   0  5  0  1  0  0  0  0  0  0  0  0
   -0.2268   -0.8665    0.1430 C   0  0  0  1  0  0  0  0  0  0  0  0
   -0.0300   -1.8401    0.5410 H   0  0  0  1  0  0  0  0  0  0  0  0
    0.1821   -0.7944   -0.8431 H   0  0  0  1  0  0  0  0  0  0  0  0
   -1.7298   -0.6498    0.0764 C   0  0  0  1  0  0  0  0  0  0  0  0
   -2.1251   -0.6982    1.0695 H   0  0  0  1  0  0  0  0  0  0  0  0
   -2.1602   -1.4287   -0.5177 H   0  0  0  1  0  0  0  0  0  0  0  0
   -2.1109    0.6866   -0.5302 C   0  0  0  1  0  0  0  0  0  0  0  0
   -1.7430    1.0025   -1.6586 O   0  0  0  1  0  0  0  0  0  0  0  0
   -2.8684    1.4867    0.2453 N   0  0  0  1  0  0  0  0  0  0  0  0
   -3.0580    2.4058   -0.0369 H   0  0  0  1  0  0  0  0  0  0  0  0
   -3.2298    1.1494    1.0914 H   0  0  0  1  0  0  0  0  0  0  0  0
    0.3306   -0.2146    3.4049 O   0  0  0  1  0  0  0  0  0  0  0  0
  1  2  1  0  0  0  0
  1  3  1  0  0  0  0
  1  4  1  0  0  0  0
  1  5  1  0  0  0  0
  5  6  1  0  0  0  0
  5  7  1  0  0  0  0
  5  9  1  0  0  0  0
  7  8  1  0  0  0  0
  7 20  2  0  0  0  0
  9 10  1  0  0  0  0
  9 11  1  0  0  0  0
  9 12  1  0  0  0  0
 12 13  1  0  0  0  0
 12 14  1  0  0  0  0
 12 15  1  0  0  0  0
 15 16  2  0  0  0  0
 15 17  1  0  0  0  0
 17 18  1  0  0  0  0
 17 19  1  0  0  0  0
M  END
> <ConfClashScore>
0 

> <ConfOneFourInteractionScore>
-1 

> <ConfScore>
0.0711463 

> <ConfScorePBest>
0.0106695 

> <ConfTolerance>
0.34446 

$$$$
GLN.****
  PyMOL2.4          3D                             0

 20 19  0  0  0  0  0  0  0  0999 V2000
    1.8484   -0.1696    1.1349 N   0  3  0  1  0  0  0  0  0  0  0  0
    1.7846   -1.2174    1.1089 H   0  0  0  1  0  0  0  0  0  0  0  0
    2.3362    0.1293    2.0153 H   0  0  0  1  0  0  0  0  0  0  0  0
    2.3905    0.1686    0.3017 H   0  0  0  1  0  0  0  0  0  0  0  0
    0.4776    0.4129    1.1048 C   0  0  0  1  0  0  0  0  0  0  0  0
    0.5717    1.4788    1.1014 H   0  0  0  1  0  0  0  0  0  0  0  0
   -0.2067    0.0273    2.3710 C   0  0  0  1  0  0  0  0  0  0  0  0
   -1.0757    0.9887    2.7836 O   0  5  0  1  0  0  0  0  0  0  0  0
   -0.2347    0.0101   -0.1815 C   0  0  0  1  0  0  0  0  0  0  0  0
   -1.1331    0.5850   -0.2662 H   0  0  0  1  0  0  0  0  0  0  0  0
   -0.4803   -1.0297   -0.1219 H   0  0  0  1  0  0  0  0  0  0  0  0
    0.6038    0.2373   -1.4325 C   0  0  0  1  0  0  0  0  0  0  0  0
    0.0606   -0.1505   -2.2689 H   0  0  0  1  0  0  0  0  0  0  0  0
    1.5195   -0.3045   -1.3191 H   0  0  0  1  0  0  0  0  0  0  0  0
    0.9498    1.6835   -1.7293 C   0  0  0  1  0  0  0  0  0  0  0  0
    0.3818    2.6078   -1.1490 O   0  0  0  1  0  0  0  0  0  0  0  0
    1.9032    1.8770   -2.6542 N   0  0  0  1  0  0  0  0  0  0  0  0
    2.1021    2.7829   -2.9709 H   0  0  0  1  0  0  0  0  0  0  0  0
    2.4005    1.1125   -3.0128 H   0  0  0  1  0  0  0  0  0  0  0  0
   -0.0590   -1.0527    2.9189 O   0  0  0  1  0  0  0  0  0  0  0  0
  1  2  1  0  0  0  0
  1  3  1  0  0  0  0
  1  4  1  0  0  0  0
  1  5  1  0  0  0  0
  5  6  1  0  0  0  0
  5  7  1  0  0  0  0
  5  9  1  0  0  0  0
  7  8  1  0  0  0  0
  7 20  2  0  0  0  0
  9 10  1  0  0  0  0
  9 11  1  0  0  0  0
  9 12  1  0  0  0  0
 12 13  1  0  0  0  0
 12 14  1  0  0  0  0
 12 15  1  0  0  0  0
 15 16  2  0  0  0  0
 15 17  1  0  0  0  0
 17 18  1  0  0  0  0
 17 19  1  0  0  0  0
M  END
> <ConfClashScore>
0 

> <ConfOneFourInteractionScore>
-0.999576 

> <ConfScore>
0.0715064 

> <ConfScorePBest>
0.0105665 

> <ConfTolerance>
0.366751 

$$$$
GLN.****
  PyMOL2.4          3D                             0

 20 19  0  0  0  0  0  0  0  0999 V2000
    1.8819   -0.0175    1.1725 N   0  3  0  1  0  0  0  0  0  0  0  0
    2.3407   -0.0006    0.2282 H   0  0  0  1  0  0  0  0  0  0  0  0
    2.0732   -0.9391    1.6378 H   0  0  0  1  0  0  0  0  0  0  0  0
    2.2680    0.7602    1.7629 H   0  0  0  1  0  0  0  0  0  0  0  0
    0.4115    0.1627    1.0143 C   0  0  0  1  0  0  0  0  0  0  0  0
    0.2191    1.0921    0.5203 H   0  0  0  1  0  0  0  0  0  0  0  0
   -0.1689    0.2149    2.3856 C   0  0  0  1  0  0  0  0  0  0  0  0
   -1.5285    0.2321    2.3560 O   0  5  0  1  0  0  0  0  0  0  0  0
   -0.1483   -0.9687    0.1658 C   0  0  0  1  0  0  0  0  0  0  0  0
   -1.2133   -0.9896    0.2675 H   0  0  0  1  0  0  0  0  0  0  0  0
    0.2612   -1.8972    0.5049 H   0  0  0  1  0  0  0  0  0  0  0  0
    0.2095   -0.7711   -1.3014 C   0  0  0  1  0  0  0  0  0  0  0  0
    1.2733   -0.6926   -1.3849 H   0  0  0  1  0  0  0  0  0  0  0  0
   -0.2436    0.1359   -1.6433 H   0  0  0  1  0  0  0  0  0  0  0  0
   -0.2576   -1.8999   -2.1788 C   0  0  0  1  0  0  0  0  0  0  0  0
    0.4743   -2.7745   -2.6122 O   0  0  0  1  0  0  0  0  0  0  0  0
   -1.6091   -1.9075   -2.4886 N   0  0  0  1  0  0  0  0  0  0  0  0
   -2.1974   -1.2092   -2.1326 H   0  0  0  1  0  0  0  0  0  0  0  0
   -1.9760   -2.6111   -3.0636 H   0  0  0  1  0  0  0  0  0  0  0  0
    0.4844    0.2396    3.4156 O   0  0  0  1  0  0  0  0  0  0  0  0
  1  2  1  0  0  0  0
  1  3  1  0  0  0  0
  1  4  1  0  0  0  0
  1  5  1  0  0  0  0
  5  6  1  0  0  0  0
  5  7  1  0  0  0  0
  5  9  1  0  0  0  0
  7  8  1  0  0  0  0
  7 20  2  0  0  0  0
  9 10  1  0  0  0  0
  9 11  1  0  0  0  0
  9 12  1  0  0  0  0
 12 13  1  0  0  0  0
 12 14  1  0  0  0  0
 12 15  1  0  0  0  0
 15 16  2  0  0  0  0
 15 17  1  0  0  0  0
 17 18  1  0  0  0  0
 17 19  1  0  0  0  0
M  END
> <ConfClashScore>
0 

> <ConfOneFourInteractionScore>
-0.974514 

> <ConfScore>
0.0748167 

> <ConfScorePBest>
0.0104635 

> <ConfTolerance>
0.25 

$$$$
GLN.****
  PyMOL2.4          3D                             0

 20 19  0  0  0  0  0  0  0  0999 V2000
    1.7849   -0.2684    1.0932 N   0  3  0  1  0  0  0  0  0  0  0  0
    2.2481   -0.1655    0.1566 H   0  0  0  1  0  0  0  0  0  0  0  0
    1.6504   -1.2876    1.3068 H   0  0  0  1  0  0  0  0  0  0  0  0
    2.3898    0.1677    1.8324 H   0  0  0  1  0  0  0  0  0  0  0  0
    0.4602    0.4129    1.0704 C   0  0  0  1  0  0  0  0  0  0  0  0
    0.6171    1.4564    0.8933 H   0  0  0  1  0  0  0  0  0  0  0  0
   -0.2026    0.2636    2.3965 C   0  0  0  1  0  0  0  0  0  0  0  0
    0.6664   -0.1739    3.3467 O   0  5  0  1  0  0  0  0  0  0  0  0
   -0.4023   -0.1306   -0.0523 C   0  0  0  1  0  0  0  0  0  0  0  0
   -1.2863    0.4683   -0.1214 H   0  0  0  1  0  0  0  0  0  0  0  0
   -0.6715   -1.1388    0.1843 H   0  0  0  1  0  0  0  0  0  0  0  0
    0.2924   -0.1220   -1.4042 C   0  0  0  1  0  0  0  0  0  0  0  0
    1.2578   -0.5700   -1.2939 H   0  0  0  1  0  0  0  0  0  0  0  0
    0.4042    0.8932   -1.7232 H   0  0  0  1  0  0  0  0  0  0  0  0
   -0.4675   -0.8759   -2.4626 C   0  0  0  1  0  0  0  0  0  0  0  0
   -1.3137   -1.7076   -2.1893 O   0  0  0  1  0  0  0  0  0  0  0  0
   -0.1983   -0.6179   -3.7981 N   0  0  0  1  0  0  0  0  0  0  0  0
   -0.7700   -1.0007   -4.4960 H   0  0  0  1  0  0  0  0  0  0  0  0
    0.5636   -0.0528   -4.0441 H   0  0  0  1  0  0  0  0  0  0  0  0
   -1.3790    0.5013    2.6154 O   0  0  0  1  0  0  0  0  0  0  0  0
  1  2  1  0  0  0  0
  1  3  1  0  0  0  0
  1  4  1  0  0  0  0
  1  5  1  0  0  0  0
  5  6  1  0  0  0  0
  5  7  1  0  0  0  0
  5  9  1  0  0  0  0
  7  8  1  0  0  0  0
  7 20  2  0  0  0  0
  9 10  1  0  0  0  0
  9 11  1  0  0  0  0
  9 12  1  0  0  0  0
 12 13  1  0  0  0  0
 12 14  1  0  0  0  0
 12 15  1  0  0  0  0
 15 16  2  0  0  0  0
 15 17  1  0  0  0  0
 17 18  1  0  0  0  0
 17 19  1  0  0  0  0
M  END
> <ConfClashScore>
0 

> <ConfOneFourInteractionScore>
-0.999576 

> <ConfScore>
0.0759076 

> <ConfScorePBest>
0.0103605 

> <ConfTolerance>
0.465435 

$$$$
GLN.****
  PyMOL2.4          3D                             0

 20 19  0  0  0  0  0  0  0  0999 V2000
    1.8718   -0.0410    1.1901 N   0  3  0  1  0  0  0  0  0  0  0  0
    1.9246   -1.0850    1.2887 H   0  0  0  1  0  0  0  0  0  0  0  0
    2.2862    0.4121    2.0419 H   0  0  0  1  0  0  0  0  0  0  0  0
    2.4081    0.2575    0.3383 H   0  0  0  1  0  0  0  0  0  0  0  0
    0.4478    0.3740    1.0506 C   0  0  0  1  0  0  0  0  0  0  0  0
    0.3906    1.4338    0.9148 H   0  0  0  1  0  0  0  0  0  0  0  0
   -0.2126    0.0064    2.3347 C   0  0  0  1  0  0  0  0  0  0  0  0
   -1.5721    0.0387    2.3508 O   0  5  0  1  0  0  0  0  0  0  0  0
   -0.2001   -0.3225   -0.1362 C   0  0  0  1  0  0  0  0  0  0  0  0
   -1.2370   -0.0609   -0.1734 H   0  0  0  1  0  0  0  0  0  0  0  0
   -0.1029   -1.3815   -0.0175 H   0  0  0  1  0  0  0  0  0  0  0  0
    0.4665    0.0964   -1.4364 C   0  0  0  1  0  0  0  0  0  0  0  0
   -0.0709   -0.3419   -2.2513 H   0  0  0  1  0  0  0  0  0  0  0  0
    1.4729   -0.2670   -1.4357 H   0  0  0  1  0  0  0  0  0  0  0  0
    0.4963    1.5999   -1.6311 C   0  0  0  1  0  0  0  0  0  0  0  0
   -0.1103    2.3475   -0.8818 O   0  0  0  1  0  0  0  0  0  0  0  0
    1.2257    2.0392   -2.6690 N   0  0  0  1  0  0  0  0  0  0  0  0
    1.6765    1.3981   -3.2573 H   0  0  0  1  0  0  0  0  0  0  0  0
    1.3073    3.0010   -2.8383 H   0  0  0  1  0  0  0  0  0  0  0  0
    0.4887   -0.2982    3.2855 O   0  0  0  1  0  0  0  0  0  0  0  0
  1  2  1  0  0  0  0
  1  3  1  0  0  0  0
  1  4  1  0  0  0  0
  1  5  1  0  0  0  0
  5  6  1  0  0  0  0
  5  7  1  0  0  0  0
  5  9  1  0  0  0  0
  7  8  1  0  0  0  0
  7 20  2  0  0  0  0
  9 10  1  0  0  0  0
  9 11  1  0  0  0  0
  9 12  1  0  0  0  0
 12 13  1  0  0  0  0
 12 14  1  0  0  0  0
 12 15  1  0  0  0  0
 15 16  2  0  0  0  0
 15 17  1  0  0  0  0
 17 18  1  0  0  0  0
 17 19  1  0  0  0  0
M  END
> <ConfClashScore>
0 

> <ConfOneFourInteractionScore>
-0.999576 

> <ConfScore>
0.0787596 

> <ConfScorePBest>
0.0102575 

> <ConfTolerance>
0.426797 

$$$$
GLN.****
  PyMOL2.4          3D                             0

 20 19  0  0  0  0  0  0  0  0999 V2000
    1.8857    0.0188    1.1761 N   0  3  0  1  0  0  0  0  0  0  0  0
    2.3618    0.2464    0.2683 H   0  0  0  1  0  0  0  0  0  0  0  0
    2.1230   -0.9643    1.4585 H   0  0  0  1  0  0  0  0  0  0  0  0
    2.2121    0.6853    1.9189 H   0  0  0  1  0  0  0  0  0  0  0  0
    0.4107    0.1449    1.0094 C   0  0  0  1  0  0  0  0  0  0  0  0
    0.1999    1.0702    0.5151 H   0  0  0  1  0  0  0  0  0  0  0  0
   -0.1747    0.2039    2.3783 C   0  0  0  1  0  0  0  0  0  0  0  0
   -1.4356   -0.3048    2.4085 O   0  5  0  1  0  0  0  0  0  0  0  0
   -0.1466   -0.9754    0.1667 C   0  0  0  1  0  0  0  0  0  0  0  0
   -0.0436   -1.8860    0.7192 H   0  0  0  1  0  0  0  0  0  0  0  0
    0.4346   -1.0339   -0.7298 H   0  0  0  1  0  0  0  0  0  0  0  0
   -1.6066   -0.8314   -0.2305 C   0  0  0  1  0  0  0  0  0  0  0  0
   -1.7352    0.1355   -0.6705 H   0  0  0  1  0  0  0  0  0  0  0  0
   -2.1988   -0.9011    0.6579 H   0  0  0  1  0  0  0  0  0  0  0  0
   -2.1215   -1.8737   -1.2236 C   0  0  0  1  0  0  0  0  0  0  0  0
   -1.3905   -2.2908   -2.1210 O   0  0  0  1  0  0  0  0  0  0  0  0
   -3.4116   -2.2305   -1.1219 N   0  0  0  1  0  0  0  0  0  0  0  0
   -3.8001   -2.8543   -1.7703 H   0  0  0  1  0  0  0  0  0  0  0  0
   -3.9650   -1.8673   -0.3993 H   0  0  0  1  0  0  0  0  0  0  0  0
    0.3967    0.6510    3.3592 O   0  0  0  1  0  0  0  0  0  0  0  0
  1  2  1  0  0  0  0
  1  3  1  0  0  0  0
  1  4  1  0  0  0  0
  1  5  1  0  0  0  0
  5  6  1  0  0  0  0
  5  7  1  0  0  0  0
  5  9  1  0  0  0  0
  7  8  1  0  0  0  0
  7 20  2  0  0  0  0
  9 10  1  0  0  0  0
  9 11  1  0  0  0  0
  9 12  1  0  0  0  0
 12 13  1  0  0  0  0
 12 14  1  0  0  0  0
 12 15  1  0  0  0  0
 15 16  2  0  0  0  0
 15 17  1  0  0  0  0
 17 18  1  0  0  0  0
 17 19  1  0  0  0  0
M  END
> <ConfClashScore>
0 

> <ConfOneFourInteractionScore>
-1 

> <ConfScore>
0.0798954 

> <ConfScorePBest>
0.0101545 

> <ConfTolerance>
0.376451 

$$$$
GLN.****
  PyMOL2.4          3D                             0

 20 19  0  0  0  0  0  0  0  0999 V2000
    1.8639   -0.0729    1.1428 N   0  3  0  1  0  0  0  0  0  0  0  0
    2.3322    0.0889    0.2171 H   0  0  0  1  0  0  0  0  0  0  0  0
    1.9677   -1.0815    1.4158 H   0  0  0  1  0  0  0  0  0  0  0  0
    2.3115    0.5354    1.8722 H   0  0  0  1  0  0  0  0  0  0  0  0
    0.4171    0.2653    1.0341 C   0  0  0  1  0  0  0  0  0  0  0  0
    0.3278    1.2564    0.6408 H   0  0  0  1  0  0  0  0  0  0  0  0
   -0.2044    0.2476    2.3882 C   0  0  0  1  0  0  0  0  0  0  0  0
   -0.3643   -1.0209    2.8517 O   0  5  0  1  0  0  0  0  0  0  0  0
   -0.2848   -0.6840    0.0822 C   0  0  0  1  0  0  0  0  0  0  0  0
   -1.2952   -0.3545   -0.0419 H   0  0  0  1  0  0  0  0  0  0  0  0
   -0.2789   -1.6631    0.5138 H   0  0  0  1  0  0  0  0  0  0  0  0
    0.3699   -0.7572   -1.2876 C   0  0  0  1  0  0  0  0  0  0  0  0
    1.3501   -1.1743   -1.1861 H   0  0  0  1  0  0  0  0  0  0  0  0
    0.4421    0.2295   -1.6951 H   0  0  0  1  0  0  0  0  0  0  0  0
   -0.4447   -1.6248   -2.2272 C   0  0  0  1  0  0  0  0  0  0  0  0
   -1.5195   -2.1065   -1.8791 O   0  0  0  1  0  0  0  0  0  0  0  0
    0.0874   -1.8244   -3.4487 N   0  0  0  1  0  0  0  0  0  0  0  0
    0.8957   -1.3392   -3.7164 H   0  0  0  1  0  0  0  0  0  0  0  0
   -0.3338   -2.4549   -4.0696 H   0  0  0  1  0  0  0  0  0  0  0  0
   -0.5337    1.2417    3.0141 O   0  0  0  1  0  0  0  0  0  0  0  0
  1  2  1  0  0  0  0
  1  3  1  0  0  0  0
  1  4  1  0  0  0  0
  1  5  1  0  0  0  0
  5  6  1  0  0  0  0
  5  7  1  0  0  0  0
  5  9  1  0  0  0  0
  7  8  1  0  0  0  0
  7 20  2  0  0  0  0
  9 10  1  0  0  0  0
  9 11  1  0  0  0  0
  9 12  1  0  0  0  0
 12 13  1  0  0  0  0
 12 14  1  0  0  0  0
 12 15  1  0  0  0  0
 15 16  2  0  0  0  0
 15 17  1  0  0  0  0
 17 18  1  0  0  0  0
 17 19  1  0  0  0  0
M  END
> <ConfClashScore>
0 

> <ConfOneFourInteractionScore>
-0.999576 

> <ConfScore>
0.0908661 

> <ConfScorePBest>
0.0100515 

> <ConfTolerance>
0.383741 

$$$$
GLN.****
  PyMOL2.4          3D                             0

 20 19  0  0  0  0  0  0  0  0999 V2000
    1.8601   -0.1614    1.1471 N   0  3  0  1  0  0  0  0  0  0  0  0
    2.3158   -0.1075    0.2027 H   0  0  0  1  0  0  0  0  0  0  0  0
    1.9172   -1.1461    1.5072 H   0  0  0  1  0  0  0  0  0  0  0  0
    2.3548    0.4840    1.8115 H   0  0  0  1  0  0  0  0  0  0  0  0
    0.4309    0.2435    1.0336 C   0  0  0  1  0  0  0  0  0  0  0  0
    0.4048    1.2550    0.6857 H   0  0  0  1  0  0  0  0  0  0  0  0
   -0.1815    0.2250    2.3918 C   0  0  0  1  0  0  0  0  0  0  0  0
   -1.0495    1.2367    2.6610 O   0  5  0  1  0  0  0  0  0  0  0  0
   -0.3054   -0.6064    0.0160 C   0  0  0  1  0  0  0  0  0  0  0  0
    0.1140   -0.4182   -0.9502 H   0  0  0  1  0  0  0  0  0  0  0  0
   -1.3369   -0.3219    0.0192 H   0  0  0  1  0  0  0  0  0  0  0  0
   -0.2158   -2.0973    0.2982 C   0  0  0  1  0  0  0  0  0  0  0  0
   -0.7808   -2.3113    1.1813 H   0  0  0  1  0  0  0  0  0  0  0  0
    0.8107   -2.3521    0.4604 H   0  0  0  1  0  0  0  0  0  0  0  0
   -0.7513   -2.9497   -0.8357 C   0  0  0  1  0  0  0  0  0  0  0  0
   -1.9355   -2.9021   -1.1660 O   0  0  0  1  0  0  0  0  0  0  0  0
    0.1450   -3.7449   -1.4410 N   0  0  0  1  0  0  0  0  0  0  0  0
    1.0882   -3.7095   -1.1775 H   0  0  0  1  0  0  0  0  0  0  0  0
   -0.1440   -4.3609   -2.1464 H   0  0  0  1  0  0  0  0  0  0  0  0
    0.0859   -0.6467    3.2024 O   0  0  0  1  0  0  0  0  0  0  0  0
  1  2  1  0  0  0  0
  1  3  1  0  0  0  0
  1  4  1  0  0  0  0
  1  5  1  0  0  0  0
  5  6  1  0  0  0  0
  5  7  1  0  0  0  0
  5  9  1  0  0  0  0
  7  8  1  0  0  0  0
  7 20  2  0  0  0  0
  9 10  1  0  0  0  0
  9 11  1  0  0  0  0
  9 12  1  0  0  0  0
 12 13  1  0  0  0  0
 12 14  1  0  0  0  0
 12 15  1  0  0  0  0
 15 16  2  0  0  0  0
 15 17  1  0  0  0  0
 17 18  1  0  0  0  0
 17 19  1  0  0  0  0
M  END
> <ConfClashScore>
0 

> <ConfOneFourInteractionScore>
-0.923345 

> <ConfScore>
0.0964704 

> <ConfScorePBest>
0.0099485 

> <ConfTolerance>
0.367267 

$$$$
GLN.****
  PyMOL2.4          3D                             0

 20 19  0  0  0  0  0  0  0  0999 V2000
    1.8660   -0.1647    1.1236 N   0  3  0  1  0  0  0  0  0  0  0  0
    1.7655   -1.2059    1.2145 H   0  0  0  1  0  0  0  0  0  0  0  0
    2.4266    0.2043    1.9311 H   0  0  0  1  0  0  0  0  0  0  0  0
    2.3568    0.0620    0.2235 H   0  0  0  1  0  0  0  0  0  0  0  0
    0.5158    0.4678    1.1261 C   0  0  0  1  0  0  0  0  0  0  0  0
    0.6148    1.5325    1.1650 H   0  0  0  1  0  0  0  0  0  0  0  0
   -0.2386    0.0003    2.3230 C   0  0  0  1  0  0  0  0  0  0  0  0
   -1.0906    0.9106    2.8662 O   0  5  0  1  0  0  0  0  0  0  0  0
   -0.2626    0.0838   -0.1176 C   0  0  0  1  0  0  0  0  0  0  0  0
    0.2280    0.5072   -0.9690 H   0  0  0  1  0  0  0  0  0  0  0  0
   -1.2505    0.4870   -0.0375 H   0  0  0  1  0  0  0  0  0  0  0  0
   -0.3703   -1.4186   -0.3211 C   0  0  0  1  0  0  0  0  0  0  0  0
   -0.8104   -1.8501    0.5535 H   0  0  0  1  0  0  0  0  0  0  0  0
    0.6140   -1.8151   -0.4584 H   0  0  0  1  0  0  0  0  0  0  0  0
   -1.2244   -1.8006   -1.5366 C   0  0  0  1  0  0  0  0  0  0  0  0
   -0.9189   -1.3882   -2.6542 O   0  0  0  1  0  0  0  0  0  0  0  0
   -2.2329   -2.6520   -1.3209 N   0  0  0  1  0  0  0  0  0  0  0  0
   -2.7362   -3.0174   -2.0782 H   0  0  0  1  0  0  0  0  0  0  0  0
   -2.4687   -2.9104   -0.4055 H   0  0  0  1  0  0  0  0  0  0  0  0
   -0.1207   -1.1148    2.8037 O   0  0  0  1  0  0  0  0  0  0  0  0
  1  2  1  0  0  0  0
  1  3  1  0  0  0  0
  1  4  1  0  0  0  0
  1  5  1  0  0  0  0
  5  6  1  0  0  0  0
  5  7  1  0  0  0  0
  5  9  1  0  0  0  0
  7  8  1  0  0  0  0
  7 20  2  0  0  0  0
  9 10  1  0  0  0  0
  9 11  1  0  0  0  0
  9 12  1  0  0  0  0
 12 13  1  0  0  0  0
 12 14  1  0  0  0  0
 12 15  1  0  0  0  0
 15 16  2  0  0  0  0
 15 17  1  0  0  0  0
 17 18  1  0  0  0  0
 17 19  1  0  0  0  0
M  END
> <ConfClashScore>
0 

> <ConfOneFourInteractionScore>
-0.931616 

> <ConfScore>
0.0975762 

> <ConfScorePBest>
0.0098455 

> <ConfTolerance>
0.293448 

$$$$
GLN.****
  PyMOL2.4          3D                             0

 20 19  0  0  0  0  0  0  0  0999 V2000
    1.8913   -0.0529    1.1738 N   0  3  0  1  0  0  0  0  0  0  0  0
    1.9720   -1.0998    1.1648 H   0  0  0  1  0  0  0  0  0  0  0  0
    2.2908    0.3210    2.0700 H   0  0  0  1  0  0  0  0  0  0  0  0
    2.4219    0.3458    0.3602 H   0  0  0  1  0  0  0  0  0  0  0  0
    0.4570    0.3361    1.0695 C   0  0  0  1  0  0  0  0  0  0  0  0
    0.4016    1.3913    0.9014 H   0  0  0  1  0  0  0  0  0  0  0  0
   -0.2382    0.0349    2.3525 C   0  0  0  1  0  0  0  0  0  0  0  0
   -1.5895    0.1881    2.3628 O   0  5  0  1  0  0  0  0  0  0  0  0
   -0.2034   -0.3622   -0.1037 C   0  0  0  1  0  0  0  0  0  0  0  0
   -0.3124   -1.3992    0.1363 H   0  0  0  1  0  0  0  0  0  0  0  0
    0.4295   -0.2584   -0.9602 H   0  0  0  1  0  0  0  0  0  0  0  0
   -1.5736    0.1999   -0.4459 C   0  0  0  1  0  0  0  0  0  0  0  0
   -2.1668    0.1884    0.4445 H   0  0  0  1  0  0  0  0  0  0  0  0
   -2.0185   -0.4391   -1.1799 H   0  0  0  1  0  0  0  0  0  0  0  0
   -1.5779    1.6142   -0.9926 C   0  0  0  1  0  0  0  0  0  0  0  0
   -0.9103    1.9191   -1.9800 O   0  0  0  1  0  0  0  0  0  0  0  0
   -2.3492    2.4923   -0.3322 N   0  0  0  1  0  0  0  0  0  0  0  0
   -2.4045    3.4221   -0.6371 H   0  0  0  1  0  0  0  0  0  0  0  0
   -2.8569    2.2037    0.4548 H   0  0  0  1  0  0  0  0  0  0  0  0
    0.4296   -0.3263    3.3075 O   0  0  0  1  0  0  0  0  0  0  0  0
  1  2  1  0  0  0  0
  1  3  1  0  0  0  0
  1  4  1  0  0  0  0
  1  5  1  0  0  0  0
  5  6  1  0  0  0  0
  5  7  1  0  0  0  0
  5  9  1  0  0  0  0
  7  8  1  0  0  0  0
  7 20  2  0  0  0  0
  9 10  1  0  0  0  0
  9 11  1  0  0  0  0
  9 12  1  0  0  0  0
 12 13  1  0  0  0  0
 12 14  1  0  0  0  0
 12 15  1  0  0  0  0
 15 16  2  0  0  0  0
 15 17  1  0  0  0  0
 17 18  1  0  0  0  0
 17 19  1  0  0  0  0
M  END
> <ConfClashScore>
0 

> <ConfOneFourInteractionScore>
-0.991729 

> <ConfScore>
0.0994024 

> <ConfScorePBest>
0.0097425 

> <ConfTolerance>
0.441532 

$$$$
GLN.****
  PyMOL2.4          3D                             0

 20 19  0  0  0  0  0  0  0  0999 V2000
    1.8979   -0.0767    1.1714 N   0  3  0  1  0  0  0  0  0  0  0  0
    1.9359   -1.1260    1.1857 H   0  0  0  1  0  0  0  0  0  0  0  0
    2.3251    0.3007    2.0532 H   0  0  0  1  0  0  0  0  0  0  0  0
    2.4325    0.2813    0.3417 H   0  0  0  1  0  0  0  0  0  0  0  0
    0.4793    0.3683    1.0773 C   0  0  0  1  0  0  0  0  0  0  0  0
    0.4411    1.4262    0.9211 H   0  0  0  1  0  0  0  0  0  0  0  0
   -0.2213    0.0339    2.3492 C   0  0  0  1  0  0  0  0  0  0  0  0
   -1.5287    0.4068    2.3162 O   0  5  0  1  0  0  0  0  0  0  0  0
   -0.2313   -0.3310   -0.0655 C   0  0  0  1  0  0  0  0  0  0  0  0
    0.3288   -0.1695   -0.9628 H   0  0  0  1  0  0  0  0  0  0  0  0
   -1.2063    0.0968   -0.1712 H   0  0  0  1  0  0  0  0  0  0  0  0
   -0.3824   -1.8287    0.1453 C   0  0  0  1  0  0  0  0  0  0  0  0
   -1.0173   -1.9912    0.9912 H   0  0  0  1  0  0  0  0  0  0  0  0
    0.5842   -2.2446    0.3390 H   0  0  0  1  0  0  0  0  0  0  0  0
   -0.9825   -2.5395   -1.0521 C   0  0  0  1  0  0  0  0  0  0  0  0
   -0.2871   -2.8745   -2.0102 O   0  0  0  1  0  0  0  0  0  0  0  0
   -2.3033   -2.7718   -0.9909 N   0  0  0  1  0  0  0  0  0  0  0  0
   -2.8366   -2.3805   -0.2678 H   0  0  0  1  0  0  0  0  0  0  0  0
   -2.7341   -3.3327   -1.6692 H   0  0  0  1  0  0  0  0  0  0  0  0
    0.3025   -0.5076    3.3088 O   0  0  0  1  0  0  0  0  0  0  0  0
  1  2  1  0  0  0  0
  1  3  1  0  0  0  0
  1  4  1  0  0  0  0
  1  5  1  0  0  0  0
  5  6  1  0  0  0  0
  5  7  1  0  0  0  0
  5  9  1  0  0  0  0
  7  8  1  0  0  0  0
  7 20  2  0  0  0  0
  9 10  1  0  0  0  0
  9 11  1  0  0  0  0
  9 12  1  0  0  0  0
 12 13  1  0  0  0  0
 12 14  1  0  0  0  0
 12 15  1  0  0  0  0
 15 16  2  0  0  0  0
 15 17  1  0  0  0  0
 17 18  1  0  0  0  0
 17 19  1  0  0  0  0
M  END
> <ConfClashScore>
0 

> <ConfOneFourInteractionScore>
-0.997128 

> <ConfScore>
0.10241 

> <ConfScorePBest>
0.0096395 

> <ConfTolerance>
0.25 

$$$$
GLN.****
  PyMOL2.4          3D                             0

 20 19  0  0  0  0  0  0  0  0999 V2000
    1.7767   -0.3194    1.0721 N   0  3  0  1  0  0  0  0  0  0  0  0
    2.1925   -0.2889    0.1084 H   0  0  0  1  0  0  0  0  0  0  0  0
    1.6085   -1.3182    1.3490 H   0  0  0  1  0  0  0  0  0  0  0  0
    2.4397    0.1263    1.7534 H   0  0  0  1  0  0  0  0  0  0  0  0
    0.4845    0.4220    1.0799 C   0  0  0  1  0  0  0  0  0  0  0  0
    0.6895    1.4638    0.9473 H   0  0  0  1  0  0  0  0  0  0  0  0
   -0.1959    0.2447    2.4208 C   0  0  0  1  0  0  0  0  0  0  0  0
    0.4485    0.8794    3.3831 O   0  5  0  1  0  0  0  0  0  0  0  0
   -0.3968   -0.0315   -0.0574 C   0  0  0  1  0  0  0  0  0  0  0  0
    0.1587    0.0713   -0.9661 H   0  0  0  1  0  0  0  0  0  0  0  0
   -1.2525    0.6102   -0.0874 H   0  0  0  1  0  0  0  0  0  0  0  0
   -0.8905   -1.4664    0.0295 C   0  0  0  1  0  0  0  0  0  0  0  0
   -1.2688   -1.6372    1.0157 H   0  0  0  1  0  0  0  0  0  0  0  0
   -0.0655   -2.1223   -0.1551 H   0  0  0  1  0  0  0  0  0  0  0  0
   -1.9801   -1.7762   -0.9619 C   0  0  0  1  0  0  0  0  0  0  0  0
   -2.4097   -0.9084   -1.7174 O   0  0  0  1  0  0  0  0  0  0  0  0
   -2.4664   -3.0270   -0.9948 N   0  0  0  1  0  0  0  0  0  0  0  0
   -2.1302   -3.7002   -0.3669 H   0  0  0  1  0  0  0  0  0  0  0  0
   -3.1576   -3.2670   -1.6467 H   0  0  0  1  0  0  0  0  0  0  0  0
   -1.2141   -0.4023    2.6026 O   0  0  0  1  0  0  0  0  0  0  0  0
  1  2  1  0  0  0  0
  1  3  1  0  0  0  0
  1  4  1  0  0  0  0
  1  5  1  0  0  0  0
  5  6  1  0  0  0  0
  5  7  1  0  0  0  0
  5  9  1  0  0  0  0
  7  8  1  0  0  0  0
  7 20  2  0  0  0  0
  9 10  1  0  0  0  0
  9 11  1  0  0  0  0
  9 12  1  0  0  0  0
 12 13  1  0  0  0  0
 12 14  1  0  0  0  0
 12 15  1  0  0  0  0
 15 16  2  0  0  0  0
 15 17  1  0  0  0  0
 17 18  1  0  0  0  0
 17 19  1  0  0  0  0
M  END
> <ConfClashScore>
0 

> <ConfOneFourInteractionScore>
-0.996705 

> <ConfScore>
0.105011 

> <ConfScorePBest>
0.0095365 

> <ConfTolerance>
0.301075 

$$$$
GLN.****
  PyMOL2.4          3D                             0

 20 19  0  0  0  0  0  0  0  0999 V2000
    1.8925   -0.0193    1.1757 N   0  3  0  1  0  0  0  0  0  0  0  0
    2.3677    0.1143    0.2489 H   0  0  0  1  0  0  0  0  0  0  0  0
    2.0881   -0.9871    1.5327 H   0  0  0  1  0  0  0  0  0  0  0  0
    2.2576    0.6876    1.8610 H   0  0  0  1  0  0  0  0  0  0  0  0
    0.4229    0.1616    1.0116 C   0  0  0  1  0  0  0  0  0  0  0  0
    0.2354    1.0936    0.5206 H   0  0  0  1  0  0  0  0  0  0  0  0
   -0.1747    0.2099    2.3756 C   0  0  0  1  0  0  0  0  0  0  0  0
   -1.5313    0.2930    2.3277 O   0  5  0  1  0  0  0  0  0  0  0  0
   -0.1889   -0.9570    0.1903 C   0  0  0  1  0  0  0  0  0  0  0  0
    0.3376   -1.0226   -0.7389 H   0  0  0  1  0  0  0  0  0  0  0  0
   -1.2151   -0.7185    0.0034 H   0  0  0  1  0  0  0  0  0  0  0  0
   -0.1262   -2.3119    0.8764 C   0  0  0  1  0  0  0  0  0  0  0  0
   -0.4623   -2.1873    1.8845 H   0  0  0  1  0  0  0  0  0  0  0  0
    0.8940   -2.6345    0.8773 H   0  0  0  1  0  0  0  0  0  0  0  0
   -0.9615   -3.4037    0.2364 C   0  0  0  1  0  0  0  0  0  0  0  0
   -2.1656   -3.5047    0.4676 O   0  0  0  1  0  0  0  0  0  0  0  0
   -0.2993   -4.2403   -0.5894 N   0  0  0  1  0  0  0  0  0  0  0  0
   -0.7725   -4.9861   -1.0138 H   0  0  0  1  0  0  0  0  0  0  0  0
    0.6549   -4.1021   -0.7648 H   0  0  0  1  0  0  0  0  0  0  0  0
    0.4636    0.1794    3.4149 O   0  0  0  1  0  0  0  0  0  0  0  0
  1  2  1  0  0  0  0
  1  3  1  0  0  0  0
  1  4  1  0  0  0  0
  1  5  1  0  0  0  0
  5  6  1  0  0  0  0
  5  7  1  0  0  0  0
  5  9  1  0  0  0  0
  7  8  1  0  0  0  0
  7 20  2  0  0  0  0
  9 10  1  0  0  0  0
  9 11  1  0  0  0  0
  9 12  1  0  0  0  0
 12 13  1  0  0  0  0
 12 14  1  0  0  0  0
 12 15  1  0  0  0  0
 15 16  2  0  0  0  0
 15 17  1  0  0  0  0
 17 18  1  0  0  0  0
 17 19  1  0  0  0  0
M  END
> <ConfClashScore>
0 

> <ConfOneFourInteractionScore>
-0.997128 

> <ConfScore>
0.105487 

> <ConfScorePBest>
0.00943349 

> <ConfTolerance>
0.42236 

$$$$
GLN.****
  PyMOL2.4          3D                             0

 20 19  0  0  0  0  0  0  0  0999 V2000
    1.8486   -0.1768    1.1072 N   0  3  0  1  0  0  0  0  0  0  0  0
    2.2335   -0.4362    2.0491 H   0  0  0  1  0  0  0  0  0  0  0  0
    2.5513    0.4083    0.5912 H   0  0  0  1  0  0  0  0  0  0  0  0
    1.6488   -1.0496    0.5586 H   0  0  0  1  0  0  0  0  0  0  0  0
    0.5888    0.5991    1.2813 C   0  0  0  1  0  0  0  0  0  0  0  0
    0.7934    1.5666    1.6900 H   0  0  0  1  0  0  0  0  0  0  0  0
   -0.3163   -0.1609    2.1886 C   0  0  0  1  0  0  0  0  0  0  0  0
   -1.0588    0.6709    2.9674 O   0  5  0  1  0  0  0  0  0  0  0  0
   -0.1270    0.7319   -0.0547 C   0  0  0  1  0  0  0  0  0  0  0  0
    0.5866    0.6359   -0.8461 H   0  0  0  1  0  0  0  0  0  0  0  0
   -0.5932    1.6935   -0.1088 H   0  0  0  1  0  0  0  0  0  0  0  0
   -1.1881   -0.3458   -0.2068 C   0  0  0  1  0  0  0  0  0  0  0  0
   -1.9103   -0.2251    0.5733 H   0  0  0  1  0  0  0  0  0  0  0  0
   -0.7178   -1.3023   -0.1134 H   0  0  0  1  0  0  0  0  0  0  0  0
   -1.9053   -0.2888   -1.5416 C   0  0  0  1  0  0  0  0  0  0  0  0
   -1.6724    0.6053   -2.3539 O   0  0  0  1  0  0  0  0  0  0  0  0
   -2.7994   -1.2710   -1.7679 N   0  0  0  1  0  0  0  0  0  0  0  0
   -3.2978   -1.2950   -2.6113 H   0  0  0  1  0  0  0  0  0  0  0  0
   -2.9514   -1.9613   -1.0891 H   0  0  0  1  0  0  0  0  0  0  0  0
   -0.3293   -1.3774    2.2804 O   0  0  0  1  0  0  0  0  0  0  0  0
  1  2  1  0  0  0  0
  1  3  1  0  0  0  0
  1  4  1  0  0  0  0
  1  5  1  0  0  0  0
  5  6  1  0  0  0  0
  5  7  1  0  0  0  0
  5  9  1  0  0  0  0
  7  8  1  0  0  0  0
  7 20  2  0  0  0  0
  9 10  1  0  0  0  0
  9 11  1  0  0  0  0
  9 12  1  0  0  0  0
 12 13  1  0  0  0  0
 12 14  1  0  0  0  0
 12 15  1  0  0  0  0
 15 16  2  0  0  0  0
 15 17  1  0  0  0  0
 17 18  1  0  0  0  0
 17 19  1  0  0  0  0
M  END
> <ConfClashScore>
0 

> <ConfOneFourInteractionScore>
-0.988691 

> <ConfScore>
0.115737 

> <ConfScorePBest>
0.00933049 

> <ConfTolerance>
0.55889 

$$$$
GLN.****
  PyMOL2.4          3D                             0

 20 19  0  0  0  0  0  0  0  0999 V2000
    1.8751   -0.0737    1.1781 N   0  3  0  1  0  0  0  0  0  0  0  0
    1.9245   -1.1217    1.2200 H   0  0  0  1  0  0  0  0  0  0  0  0
    2.2887    0.3312    2.0542 H   0  0  0  1  0  0  0  0  0  0  0  0
    2.4145    0.2689    0.3450 H   0  0  0  1  0  0  0  0  0  0  0  0
    0.4528    0.3526    1.0579 C   0  0  0  1  0  0  0  0  0  0  0  0
    0.4233    1.4146    0.9309 H   0  0  0  1  0  0  0  0  0  0  0  0
   -0.2082    0.0193    2.3510 C   0  0  0  1  0  0  0  0  0  0  0  0
   -1.5221    0.3700    2.3724 O   0  5  0  1  0  0  0  0  0  0  0  0
   -0.2057   -0.2746   -0.1231 C   0  0  0  1  0  0  0  0  0  0  0  0
   -1.2536   -0.0707   -0.0505 H   0  0  0  1  0  0  0  0  0  0  0  0
   -0.0418   -1.3299   -0.0575 H   0  0  0  1  0  0  0  0  0  0  0  0
    0.2489    0.1706   -1.5035 C   0  0  0  1  0  0  0  0  0  0  0  0
    0.0296    1.2131   -1.6029 H   0  0  0  1  0  0  0  0  0  0  0  0
   -0.3096   -0.3827   -2.2293 H   0  0  0  1  0  0  0  0  0  0  0  0
    1.7112   -0.0258   -1.7951 C   0  0  0  1  0  0  0  0  0  0  0  0
    2.2185   -1.1459   -1.7514 O   0  0  0  1  0  0  0  0  0  0  0  0
    2.4467    1.0597   -2.1048 N   0  0  0  1  0  0  0  0  0  0  0  0
    3.3977    0.9620   -2.3204 H   0  0  0  1  0  0  0  0  0  0  0  0
    2.0307    1.9470   -2.1143 H   0  0  0  1  0  0  0  0  0  0  0  0
    0.3901   -0.5107    3.2726 O   0  0  0  1  0  0  0  0  0  0  0  0
  1  2  1  0  0  0  0
  1  3  1  0  0  0  0
  1  4  1  0  0  0  0
  1  5  1  0  0  0  0
  5  6  1  0  0  0  0
  5  7  1  0  0  0  0
  5  9  1  0  0  0  0
  7  8  1  0  0  0  0
  7 20  2  0  0  0  0
  9 10  1  0  0  0  0
  9 11  1  0  0  0  0
  9 12  1  0  0  0  0
 12 13  1  0  0  0  0
 12 14  1  0  0  0  0
 12 15  1  0  0  0  0
 15 16  2  0  0  0  0
 15 17  1  0  0  0  0
 17 18  1  0  0  0  0
 17 19  1  0  0  0  0
M  END
> <ConfClashScore>
0 

> <ConfOneFourInteractionScore>
-1 

> <ConfScore>
0.119769 

> <ConfScorePBest>
0.00922749 

> <ConfTolerance>
0.32525 

$$$$
GLN.****
  PyMOL2.4          3D                             0

 20 19  0  0  0  0  0  0  0  0999 V2000
    1.7964   -0.2347    1.0862 N   0  3  0  1  0  0  0  0  0  0  0  0
    2.3221   -0.3099    1.9920 H   0  0  0  1  0  0  0  0  0  0  0  0
    2.4177    0.1931    0.3557 H   0  0  0  1  0  0  0  0  0  0  0  0
    1.4971   -1.1918    0.7750 H   0  0  0  1  0  0  0  0  0  0  0  0
    0.5938    0.6232    1.2790 C   0  0  0  1  0  0  0  0  0  0  0  0
    0.9009    1.5435    1.7302 H   0  0  0  1  0  0  0  0  0  0  0  0
   -0.3587   -0.0507    2.2056 C   0  0  0  1  0  0  0  0  0  0  0  0
    0.2914   -0.7600    3.1668 O   0  5  0  1  0  0  0  0  0  0  0  0
   -0.0535    0.9455   -0.0541 C   0  0  0  1  0  0  0  0  0  0  0  0
   -0.8277    1.6657    0.1099 H   0  0  0  1  0  0  0  0  0  0  0  0
   -0.4793    0.0474   -0.4504 H   0  0  0  1  0  0  0  0  0  0  0  0
    0.9202    1.5090   -1.0762 C   0  0  0  1  0  0  0  0  0  0  0  0
    1.6867    0.7835   -1.2525 H   0  0  0  1  0  0  0  0  0  0  0  0
    1.3570    2.3998   -0.6755 H   0  0  0  1  0  0  0  0  0  0  0  0
    0.2623    1.8473   -2.3998 C   0  0  0  1  0  0  0  0  0  0  0  0
   -0.9260    2.1600   -2.4606 O   0  0  0  1  0  0  0  0  0  0  0  0
    1.0571    1.7816   -3.4797 N   0  0  0  1  0  0  0  0  0  0  0  0
    2.0080    1.5685   -3.3761 H   0  0  0  1  0  0  0  0  0  0  0  0
    0.6863    1.9468   -4.3717 H   0  0  0  1  0  0  0  0  0  0  0  0
   -1.5740    0.0177    2.1227 O   0  0  0  1  0  0  0  0  0  0  0  0
  1  2  1  0  0  0  0
  1  3  1  0  0  0  0
  1  4  1  0  0  0  0
  1  5  1  0  0  0  0
  5  6  1  0  0  0  0
  5  7  1  0  0  0  0
  5  9  1  0  0  0  0
  7  8  1  0  0  0  0
  7 20  2  0  0  0  0
  9 10  1  0  0  0  0
  9 11  1  0  0  0  0
  9 12  1  0  0  0  0
 12 13  1  0  0  0  0
 12 14  1  0  0  0  0
 12 15  1  0  0  0  0
 15 16  2  0  0  0  0
 15 17  1  0  0  0  0
 17 18  1  0  0  0  0
 17 19  1  0  0  0  0
M  END
> <ConfClashScore>
0 

> <ConfOneFourInteractionScore>
-0.999576 

> <ConfScore>
0.119816 

> <ConfScorePBest>
0.00912449 

> <ConfTolerance>
0.394881 

$$$$
GLN.****
  PyMOL2.4          3D                             0

 20 19  0  0  0  0  0  0  0  0999 V2000
    1.8814   -0.0454    1.1700 N   0  3  0  1  0  0  0  0  0  0  0  0
    2.3229   -0.1021    0.2190 H   0  0  0  1  0  0  0  0  0  0  0  0
    2.0673   -0.9352    1.6955 H   0  0  0  1  0  0  0  0  0  0  0  0
    2.2902    0.7652    1.6976 H   0  0  0  1  0  0  0  0  0  0  0  0
    0.4117    0.1474    1.0252 C   0  0  0  1  0  0  0  0  0  0  0  0
    0.2482    1.0950    0.5558 H   0  0  0  1  0  0  0  0  0  0  0  0
   -0.1731    0.2191    2.3938 C   0  0  0  1  0  0  0  0  0  0  0  0
   -1.4991    0.5191    2.3590 O   0  5  0  1  0  0  0  0  0  0  0  0
   -0.1670   -0.9206    0.1172 C   0  0  0  1  0  0  0  0  0  0  0  0
    0.2301   -0.7959   -0.8685 H   0  0  0  1  0  0  0  0  0  0  0  0
   -1.2316   -0.8180    0.0891 H   0  0  0  1  0  0  0  0  0  0  0  0
    0.1867   -2.3089    0.6250 C   0  0  0  1  0  0  0  0  0  0  0  0
   -0.4121   -2.4949    1.4920 H   0  0  0  1  0  0  0  0  0  0  0  0
    1.2204   -2.2952    0.9011 H   0  0  0  1  0  0  0  0  0  0  0  0
   -0.0141   -3.4748   -0.3236 C   0  0  0  1  0  0  0  0  0  0  0  0
    0.9405   -4.0203   -0.8757 O   0  0  0  1  0  0  0  0  0  0  0  0
   -1.2860   -3.8602   -0.5128 N   0  0  0  1  0  0  0  0  0  0  0  0
   -1.4827   -4.6482   -1.0613 H   0  0  0  1  0  0  0  0  0  0  0  0
   -2.0177   -3.3537   -0.1025 H   0  0  0  1  0  0  0  0  0  0  0  0
    0.4504    0.0335    3.4259 O   0  0  0  1  0  0  0  0  0  0  0  0
  1  2  1  0  0  0  0
  1  3  1  0  0  0  0
  1  4  1  0  0  0  0
  1  5  1  0  0  0  0
  5  6  1  0  0  0  0
  5  7  1  0  0  0  0
  5  9  1  0  0  0  0
  7  8  1  0  0  0  0
  7 20  2  0  0  0  0
  9 10  1  0  0  0  0
  9 11  1  0  0  0  0
  9 12  1  0  0  0  0
 12 13  1  0  0  0  0
 12 14  1  0  0  0  0
 12 15  1  0  0  0  0
 15 16  2  0  0  0  0
 15 17  1  0  0  0  0
 17 18  1  0  0  0  0
 17 19  1  0  0  0  0
M  END
> <ConfClashScore>
0 

> <ConfOneFourInteractionScore>
-0.89349 

> <ConfScore>
0.121463 

> <ConfScorePBest>
0.00902149 

> <ConfTolerance>
0.406684 

$$$$
GLN.****
  PyMOL2.4          3D                             0

 20 19  0  0  0  0  0  0  0  0999 V2000
    1.8298   -0.1632    1.1244 N   0  3  0  1  0  0  0  0  0  0  0  0
    2.3100   -0.0095    0.2033 H   0  0  0  1  0  0  0  0  0  0  0  0
    1.8206   -1.1893    1.3471 H   0  0  0  1  0  0  0  0  0  0  0  0
    2.3455    0.3545    1.8783 H   0  0  0  1  0  0  0  0  0  0  0  0
    0.4298    0.3400    1.0454 C   0  0  0  1  0  0  0  0  0  0  0  0
    0.4541    1.3678    0.7490 H   0  0  0  1  0  0  0  0  0  0  0  0
   -0.2070    0.2622    2.3902 C   0  0  0  1  0  0  0  0  0  0  0  0
    0.2125   -0.8305    3.0828 O   0  5  0  1  0  0  0  0  0  0  0  0
   -0.3549   -0.4284    0.0111 C   0  0  0  1  0  0  0  0  0  0  0  0
   -0.5042   -1.4212    0.3812 H   0  0  0  1  0  0  0  0  0  0  0  0
    0.2286   -0.4652   -0.8850 H   0  0  0  1  0  0  0  0  0  0  0  0
   -1.7161    0.1498   -0.3401 C   0  0  0  1  0  0  0  0  0  0  0  0
   -1.5656    1.1348   -0.7302 H   0  0  0  1  0  0  0  0  0  0  0  0
   -2.2929    0.2061    0.5594 H   0  0  0  1  0  0  0  0  0  0  0  0
   -2.5144   -0.6399   -1.3591 C   0  0  0  1  0  0  0  0  0  0  0  0
   -3.3283   -1.4938   -1.0097 O   0  0  0  1  0  0  0  0  0  0  0  0
   -2.2711   -0.3426   -2.6524 N   0  0  0  1  0  0  0  0  0  0  0  0
   -1.6249    0.3579   -2.8809 H   0  0  0  1  0  0  0  0  0  0  0  0
   -2.7404   -0.8271   -3.3632 H   0  0  0  1  0  0  0  0  0  0  0  0
   -1.0073    1.0725    2.8275 O   0  0  0  1  0  0  0  0  0  0  0  0
  1  2  1  0  0  0  0
  1  3  1  0  0  0  0
  1  4  1  0  0  0  0
  1  5  1  0  0  0  0
  5  6  1  0  0  0  0
  5  7  1  0  0  0  0
  5  9  1  0  0  0  0
  7  8  1  0  0  0  0
  7 20  2  0  0  0  0
  9 10  1  0  0  0  0
  9 11  1  0  0  0  0
  9 12  1  0  0  0  0
 12 13  1  0  0  0  0
 12 14  1  0  0  0  0
 12 15  1  0  0  0  0
 15 16  2  0  0  0  0
 15 17  1  0  0  0  0
 17 18  1  0  0  0  0
 17 19  1  0  0  0  0
M  END
> <ConfClashScore>
0 

> <ConfOneFourInteractionScore>
-0.974514 

> <ConfScore>
0.132482 

> <ConfScorePBest>
0.00891849 

> <ConfTolerance>
0.345328 

$$$$
GLN.****
  PyMOL2.4          3D                             0

 20 19  0  0  0  0  0  0  0  0999 V2000
    1.8134   -0.2254    1.0445 N   0  3  0  1  0  0  0  0  0  0  0  0
    2.2205   -0.5719    1.9482 H   0  0  0  1  0  0  0  0  0  0  0  0
    2.5267    0.3572    0.5402 H   0  0  0  1  0  0  0  0  0  0  0  0
    1.5433   -1.0446    0.4457 H   0  0  0  1  0  0  0  0  0  0  0  0
    0.6071    0.6019    1.3271 C   0  0  0  1  0  0  0  0  0  0  0  0
    0.9133    1.4881    1.8426 H   0  0  0  1  0  0  0  0  0  0  0  0
   -0.3404   -0.1437    2.2026 C   0  0  0  1  0  0  0  0  0  0  0  0
   -0.5782    0.5193    3.3659 O   0  5  0  1  0  0  0  0  0  0  0  0
   -0.0256    1.0125    0.0206 C   0  0  0  1  0  0  0  0  0  0  0  0
   -0.3329    0.1240   -0.4904 H   0  0  0  1  0  0  0  0  0  0  0  0
    0.7164    1.5199   -0.5598 H   0  0  0  1  0  0  0  0  0  0  0  0
   -1.2342    1.9268    0.1379 C   0  0  0  1  0  0  0  0  0  0  0  0
   -0.9079    2.8773    0.5052 H   0  0  0  1  0  0  0  0  0  0  0  0
   -1.9233    1.4931    0.8321 H   0  0  0  1  0  0  0  0  0  0  0  0
   -1.9435    2.1376   -1.1730 C   0  0  0  1  0  0  0  0  0  0  0  0
   -2.3456    1.2398   -1.8899 O   0  0  0  1  0  0  0  0  0  0  0  0
   -2.1036    3.4543   -1.5015 N   0  0  0  1  0  0  0  0  0  0  0  0
   -2.5116    3.6995   -2.3582 H   0  0  0  1  0  0  0  0  0  0  0  0
   -1.8105    4.1534   -0.8805 H   0  0  0  1  0  0  0  0  0  0  0  0
   -0.8471   -1.2174    1.9215 O   0  0  0  1  0  0  0  0  0  0  0  0
  1  2  1  0  0  0  0
  1  3  1  0  0  0  0
  1  4  1  0  0  0  0
  1  5  1  0  0  0  0
  5  6  1  0  0  0  0
  5  7  1  0  0  0  0
  5  9  1  0  0  0  0
  7  8  1  0  0  0  0
  7 20  2  0  0  0  0
  9 10  1  0  0  0  0
  9 11  1  0  0  0  0
  9 12  1  0  0  0  0
 12 13  1  0  0  0  0
 12 14  1  0  0  0  0
 12 15  1  0  0  0  0
 15 16  2  0  0  0  0
 15 17  1  0  0  0  0
 17 18  1  0  0  0  0
 17 19  1  0  0  0  0
M  END
> <ConfClashScore>
0 

> <ConfOneFourInteractionScore>
-1 

> <ConfScore>
0.138218 

> <ConfScorePBest>
0.00881549 

> <ConfTolerance>
0.474247 

$$$$
GLN.****
  PyMOL2.4          3D                             0

 20 19  0  0  0  0  0  0  0  0999 V2000
    1.8935   -0.0164    1.1675 N   0  3  0  1  0  0  0  0  0  0  0  0
    2.3625    0.2154    0.2571 H   0  0  0  1  0  0  0  0  0  0  0  0
    2.1001   -1.0135    1.4235 H   0  0  0  1  0  0  0  0  0  0  0  0
    2.2554    0.6208    1.9195 H   0  0  0  1  0  0  0  0  0  0  0  0
    0.4214    0.1656    1.0290 C   0  0  0  1  0  0  0  0  0  0  0  0
    0.2379    1.1078    0.5562 H   0  0  0  1  0  0  0  0  0  0  0  0
   -0.2088    0.1954    2.3788 C   0  0  0  1  0  0  0  0  0  0  0  0
   -1.5604    0.3413    2.4162 O   0  5  0  1  0  0  0  0  0  0  0  0
   -0.1767   -0.9297    0.1509 C   0  0  0  1  0  0  0  0  0  0  0  0
    0.2241   -1.8714    0.4631 H   0  0  0  1  0  0  0  0  0  0  0  0
    0.1033   -0.7412   -0.8644 H   0  0  0  1  0  0  0  0  0  0  0  0
   -1.6931   -1.0022    0.2272 C   0  0  0  1  0  0  0  0  0  0  0  0
   -2.0940   -0.0502   -0.0515 H   0  0  0  1  0  0  0  0  0  0  0  0
   -1.9730   -1.2265    1.2353 H   0  0  0  1  0  0  0  0  0  0  0  0
   -2.2837   -2.0602   -0.6845 C   0  0  0  1  0  0  0  0  0  0  0  0
   -2.5899   -1.8019   -1.8477 O   0  0  0  1  0  0  0  0  0  0  0  0
   -2.4446   -3.2762   -0.1390 N   0  0  0  1  0  0  0  0  0  0  0  0
   -2.1627   -3.4399    0.7852 H   0  0  0  1  0  0  0  0  0  0  0  0
   -2.8440   -4.0003   -0.6650 H   0  0  0  1  0  0  0  0  0  0  0  0
    0.5082    0.0893    3.3602 O   0  0  0  1  0  0  0  0  0  0  0  0
  1  2  1  0  0  0  0
  1  3  1  0  0  0  0
  1  4  1  0  0  0  0
  1  5  1  0  0  0  0
  5  6  1  0  0  0  0
  5  7  1  0  0  0  0
  5  9  1  0  0  0  0
  7  8  1  0  0  0  0
  7 20  2  0  0  0  0
  9 10  1  0  0  0  0
  9 11  1  0  0  0  0
  9 12  1  0  0  0  0
 12 13  1  0  0  0  0
 12 14  1  0  0  0  0
 12 15  1  0  0  0  0
 15 16  2  0  0  0  0
 15 17  1  0  0  0  0
 17 18  1  0  0  0  0
 17 19  1  0  0  0  0
M  END
> <ConfClashScore>
0 

> <ConfOneFourInteractionScore>
-0.997128 

> <ConfScore>
0.140991 

> <ConfScorePBest>
0.00871249 

> <ConfTolerance>
0.460214 

$$$$
GLN.****
  PyMOL2.4          3D                             0

 20 19  0  0  0  0  0  0  0  0999 V2000
    1.8448   -0.1520    1.1730 N   0  3  0  1  0  0  0  0  0  0  0  0
    2.2206   -0.2214    2.1510 H   0  0  0  1  0  0  0  0  0  0  0  0
    2.5256    0.3766    0.5734 H   0  0  0  1  0  0  0  0  0  0  0  0
    1.7083   -1.1166    0.7815 H   0  0  0  1  0  0  0  0  0  0  0  0
    0.5392    0.5653    1.1917 C   0  0  0  1  0  0  0  0  0  0  0  0
    0.7160    1.5875    1.4542 H   0  0  0  1  0  0  0  0  0  0  0  0
   -0.3457   -0.0323    2.2309 C   0  0  0  1  0  0  0  0  0  0  0  0
    0.0069   -1.3148    2.5148 O   0  5  0  1  0  0  0  0  0  0  0  0
   -0.1074    0.5366   -0.1798 C   0  0  0  1  0  0  0  0  0  0  0  0
   -0.9608    1.1820   -0.1662 H   0  0  0  1  0  0  0  0  0  0  0  0
   -0.4207   -0.4655   -0.3862 H   0  0  0  1  0  0  0  0  0  0  0  0
    0.8220    0.9900   -1.2938 C   0  0  0  1  0  0  0  0  0  0  0  0
    1.7207    0.4103   -1.2587 H   0  0  0  1  0  0  0  0  0  0  0  0
    1.0585    2.0242   -1.1542 H   0  0  0  1  0  0  0  0  0  0  0  0
    0.1692    0.8094   -2.6418 C   0  0  0  1  0  0  0  0  0  0  0  0
   -0.3237    1.7616   -3.2451 O   0  0  0  1  0  0  0  0  0  0  0  0
    0.1660   -0.4429   -3.1252 N   0  0  0  1  0  0  0  0  0  0  0  0
    0.5879   -1.1659   -2.6155 H   0  0  0  1  0  0  0  0  0  0  0  0
   -0.2581   -0.6342   -3.9876 H   0  0  0  1  0  0  0  0  0  0  0  0
   -1.2752    0.5471    2.7683 O   0  0  0  1  0  0  0  0  0  0  0  0
  1  2  1  0  0  0  0
  1  3  1  0  0  0  0
  1  4  1  0  0  0  0
  1  5  1  0  0  0  0
  5  6  1  0  0  0  0
  5  7  1  0  0  0  0
  5  9  1  0  0  0  0
  7  8  1  0  0  0  0
  7 20  2  0  0  0  0
  9 10  1  0  0  0  0
  9 11  1  0  0  0  0
  9 12  1  0  0  0  0
 12 13  1  0  0  0  0
 12 14  1  0  0  0  0
 12 15  1  0  0  0  0
 15 16  2  0  0  0  0
 15 17  1  0  0  0  0
 17 18  1  0  0  0  0
 17 19  1  0  0  0  0
M  END
> <ConfClashScore>
0 

> <ConfOneFourInteractionScore>
-0.974514 

> <ConfScore>
0.150164 

> <ConfScorePBest>
0.00860949 

> <ConfTolerance>
0.44217 

$$$$
GLN.****
  PyMOL2.4          3D                             0

 20 19  0  0  0  0  0  0  0  0999 V2000
    1.7751   -0.2956    1.0579 N   0  3  0  1  0  0  0  0  0  0  0  0
    2.2408   -0.1380    0.1301 H   0  0  0  1  0  0  0  0  0  0  0  0
    1.5871   -1.3208    1.1853 H   0  0  0  1  0  0  0  0  0  0  0  0
    2.4042    0.0436    1.8271 H   0  0  0  1  0  0  0  0  0  0  0  0
    0.4884    0.4541    1.1022 C   0  0  0  1  0  0  0  0  0  0  0  0
    0.6787    1.4992    0.9745 H   0  0  0  1  0  0  0  0  0  0  0  0
   -0.1914    0.2406    2.4108 C   0  0  0  1  0  0  0  0  0  0  0  0
    0.6194    0.2367    3.5027 O   0  5  0  1  0  0  0  0  0  0  0  0
   -0.3707   -0.0246   -0.0179 C   0  0  0  1  0  0  0  0  0  0  0  0
    0.0555    0.3438   -0.9276 H   0  0  0  1  0  0  0  0  0  0  0  0
   -1.3423    0.4019    0.1197 H   0  0  0  1  0  0  0  0  0  0  0  0
   -0.5523   -1.5285   -0.1768 C   0  0  0  1  0  0  0  0  0  0  0  0
   -1.0299   -1.9086    0.7020 H   0  0  0  1  0  0  0  0  0  0  0  0
    0.4126   -1.9788   -0.2821 H   0  0  0  1  0  0  0  0  0  0  0  0
   -1.3929   -1.9011   -1.3825 C   0  0  0  1  0  0  0  0  0  0  0  0
   -2.3350   -1.1983   -1.7459 O   0  0  0  1  0  0  0  0  0  0  0  0
   -1.0400   -3.0330   -2.0122 N   0  0  0  1  0  0  0  0  0  0  0  0
   -1.5682   -3.3564   -2.7716 H   0  0  0  1  0  0  0  0  0  0  0  0
   -0.2541   -3.5359   -1.7124 H   0  0  0  1  0  0  0  0  0  0  0  0
   -1.3985    0.0808    2.4862 O   0  0  0  1  0  0  0  0  0  0  0  0
  1  2  1  0  0  0  0
  1  3  1  0  0  0  0
  1  4  1  0  0  0  0
  1  5  1  0  0  0  0
  5  6  1  0  0  0  0
  5  7  1  0  0  0  0
  5  9  1  0  0  0  0
  7  8  1  0  0  0  0
  7 20  2  0  0  0  0
  9 10  1  0  0  0  0
  9 11  1  0  0  0  0
  9 12  1  0  0  0  0
 12 13  1  0  0  0  0
 12 14  1  0  0  0  0
 12 15  1  0  0  0  0
 15 16  2  0  0  0  0
 15 17  1  0  0  0  0
 17 18  1  0  0  0  0
 17 19  1  0  0  0  0
M  END
> <ConfClashScore>
0 

> <ConfOneFourInteractionScore>
-0.931616 

> <ConfScore>
0.155402 

> <ConfScorePBest>
0.00850649 

> <ConfTolerance>
0.601642 

$$$$
GLN.****
  PyMOL2.4          3D                             0

 20 19  0  0  0  0  0  0  0  0999 V2000
    1.8738   -0.0930    1.1717 N   0  3  0  1  0  0  0  0  0  0  0  0
    2.3519    0.0017    0.2417 H   0  0  0  1  0  0  0  0  0  0  0  0
    1.9998   -1.0712    1.5318 H   0  0  0  1  0  0  0  0  0  0  0  0
    2.2941    0.5876    1.8519 H   0  0  0  1  0  0  0  0  0  0  0  0
    0.4205    0.1950    1.0155 C   0  0  0  1  0  0  0  0  0  0  0  0
    0.3086    1.1711    0.5915 H   0  0  0  1  0  0  0  0  0  0  0  0
   -0.1657    0.2118    2.3852 C   0  0  0  1  0  0  0  0  0  0  0  0
   -1.3450    0.8883    2.4193 O   0  5  0  1  0  0  0  0  0  0  0  0
   -0.2453   -0.8023    0.0869 C   0  0  0  1  0  0  0  0  0  0  0  0
   -1.3018   -0.6349    0.1106 H   0  0  0  1  0  0  0  0  0  0  0  0
   -0.0320   -1.7895    0.4402 H   0  0  0  1  0  0  0  0  0  0  0  0
    0.2277   -0.6932   -1.3535 C   0  0  0  1  0  0  0  0  0  0  0  0
   -0.3046   -1.4110   -1.9420 H   0  0  0  1  0  0  0  0  0  0  0  0
    1.2748   -0.9111   -1.3855 H   0  0  0  1  0  0  0  0  0  0  0  0
    0.0042    0.6725   -1.9458 C   0  0  0  1  0  0  0  0  0  0  0  0
   -1.1105    1.1469   -2.0905 O   0  0  0  1  0  0  0  0  0  0  0  0
    1.1007    1.4225   -2.3428 N   0  0  0  1  0  0  0  0  0  0  0  0
    0.9690    2.2923   -2.7747 H   0  0  0  1  0  0  0  0  0  0  0  0
    2.0074    1.0829   -2.1915 H   0  0  0  1  0  0  0  0  0  0  0  0
    0.3402   -0.3131    3.3635 O   0  0  0  1  0  0  0  0  0  0  0  0
  1  2  1  0  0  0  0
  1  3  1  0  0  0  0
  1  4  1  0  0  0  0
  1  5  1  0  0  0  0
  5  6  1  0  0  0  0
  5  7  1  0  0  0  0
  5  9  1  0  0  0  0
  7  8  1  0  0  0  0
  7 20  2  0  0  0  0
  9 10  1  0  0  0  0
  9 11  1  0  0  0  0
  9 12  1  0  0  0  0
 12 13  1  0  0  0  0
 12 14  1  0  0  0  0
 12 15  1  0  0  0  0
 15 16  2  0  0  0  0
 15 17  1  0  0  0  0
 17 18  1  0  0  0  0
 17 19  1  0  0  0  0
M  END
> <ConfClashScore>
0 

> <ConfOneFourInteractionScore>
-1 

> <ConfScore>
0.155641 

> <ConfScorePBest>
0.00840348 

> <ConfTolerance>
0.25 

$$$$
GLN.****
  PyMOL2.4          3D                             0

 20 19  0  0  0  0  0  0  0  0999 V2000
    1.8858   -0.0904    1.1584 N   0  3  0  1  0  0  0  0  0  0  0  0
    2.3298   -0.0034    2.1059 H   0  0  0  1  0  0  0  0  0  0  0  0
    2.4729    0.4147    0.4494 H   0  0  0  1  0  0  0  0  0  0  0  0
    1.8158   -1.1049    0.8968 H   0  0  0  1  0  0  0  0  0  0  0  0
    0.5223    0.5089    1.1911 C   0  0  0  1  0  0  0  0  0  0  0  0
    0.6118    1.5491    1.4252 H   0  0  0  1  0  0  0  0  0  0  0  0
   -0.3039   -0.1378    2.2492 C   0  0  0  1  0  0  0  0  0  0  0  0
   -1.5478    0.3451    2.5119 O   0  5  0  1  0  0  0  0  0  0  0  0
   -0.1083    0.3843   -0.1880 C   0  0  0  1  0  0  0  0  0  0  0  0
   -0.9740   -0.2397   -0.1101 H   0  0  0  1  0  0  0  0  0  0  0  0
    0.6021   -0.0710   -0.8460 H   0  0  0  1  0  0  0  0  0  0  0  0
   -0.5282    1.7192   -0.7814 C   0  0  0  1  0  0  0  0  0  0  0  0
    0.3441    2.3264   -0.9050 H   0  0  0  1  0  0  0  0  0  0  0  0
   -1.2026    2.1969   -0.1018 H   0  0  0  1  0  0  0  0  0  0  0  0
   -1.2151    1.5817   -2.1262 C   0  0  0  1  0  0  0  0  0  0  0  0
   -1.3923    0.4793   -2.6428 O   0  0  0  1  0  0  0  0  0  0  0  0
   -1.6079    2.7297   -2.7005 N   0  0  0  1  0  0  0  0  0  0  0  0
   -1.3911    3.5876   -2.2793 H   0  0  0  1  0  0  0  0  0  0  0  0
   -2.1116    2.7099   -3.5410 H   0  0  0  1  0  0  0  0  0  0  0  0
    0.1545   -1.0897    2.8592 O   0  0  0  1  0  0  0  0  0  0  0  0
  1  2  1  0  0  0  0
  1  3  1  0  0  0  0
  1  4  1  0  0  0  0
  1  5  1  0  0  0  0
  5  6  1  0  0  0  0
  5  7  1  0  0  0  0
  5  9  1  0  0  0  0
  7  8  1  0  0  0  0
  7 20  2  0  0  0  0
  9 10  1  0  0  0  0
  9 11  1  0  0  0  0
  9 12  1  0  0  0  0
 12 13  1  0  0  0  0
 12 14  1  0  0  0  0
 12 15  1  0  0  0  0
 15 16  2  0  0  0  0
 15 17  1  0  0  0  0
 17 18  1  0  0  0  0
 17 19  1  0  0  0  0
M  END
> <ConfClashScore>
0 

> <ConfOneFourInteractionScore>
-0.968968 

> <ConfScore>
0.160556 

> <ConfScorePBest>
0.00830048 

> <ConfTolerance>
0.579464 

$$$$
GLN.****
  PyMOL2.4          3D                             0

 20 19  0  0  0  0  0  0  0  0999 V2000
    1.8702   -0.1337    1.1430 N   0  3  0  1  0  0  0  0  0  0  0  0
    2.2509   -0.3116    0.1808 H   0  0  0  1  0  0  0  0  0  0  0  0
    1.9675   -1.0030    1.7239 H   0  0  0  1  0  0  0  0  0  0  0  0
    2.4062    0.6496    1.5919 H   0  0  0  1  0  0  0  0  0  0  0  0
    0.4302    0.2409    1.0471 C   0  0  0  1  0  0  0  0  0  0  0  0
    0.3606    1.2320    0.6500 H   0  0  0  1  0  0  0  0  0  0  0  0
   -0.1993    0.2338    2.3976 C   0  0  0  1  0  0  0  0  0  0  0  0
   -1.2153    1.1149    2.5999 O   0  5  0  1  0  0  0  0  0  0  0  0
   -0.2606   -0.6992    0.0906 C   0  0  0  1  0  0  0  0  0  0  0  0
   -1.3164   -0.5670    0.2034 H   0  0  0  1  0  0  0  0  0  0  0  0
    0.0052   -1.6995    0.3619 H   0  0  0  1  0  0  0  0  0  0  0  0
    0.0810   -0.5059   -1.3779 C   0  0  0  1  0  0  0  0  0  0  0  0
   -0.2720   -1.3677   -1.9048 H   0  0  0  1  0  0  0  0  0  0  0  0
    1.1469   -0.4523   -1.4543 H   0  0  0  1  0  0  0  0  0  0  0  0
   -0.4914    0.7275   -2.0816 C   0  0  0  1  0  0  0  0  0  0  0  0
   -1.7047    0.8202   -2.1695 O   0  0  0  1  0  0  0  0  0  0  0  0
    0.3944    1.6071   -2.5448 N   0  0  0  1  0  0  0  0  0  0  0  0
    1.3423    1.5164   -2.3131 H   0  0  0  1  0  0  0  0  0  0  0  0
    0.0985    2.3452   -3.1176 H   0  0  0  1  0  0  0  0  0  0  0  0
    0.2225   -0.5476    3.2342 O   0  0  0  1  0  0  0  0  0  0  0  0
  1  2  1  0  0  0  0
  1  3  1  0  0  0  0
  1  4  1  0  0  0  0
  1  5  1  0  0  0  0
  5  6  1  0  0  0  0
  5  7  1  0  0  0  0
  5  9  1  0  0  0  0
  7  8  1  0  0  0  0
  7 20  2  0  0  0  0
  9 10  1  0  0  0  0
  9 11  1  0  0  0  0
  9 12  1  0  0  0  0
 12 13  1  0  0  0  0
 12 14  1  0  0  0  0
 12 15  1  0  0  0  0
 15 16  2  0  0  0  0
 15 17  1  0  0  0  0
 17 18  1  0  0  0  0
 17 19  1  0  0  0  0
M  END
> <ConfClashScore>
0 

> <ConfOneFourInteractionScore>
-0.991729 

> <ConfScore>
0.163073 

> <ConfScorePBest>
0.00819748 

> <ConfTolerance>
0.25 

$$$$
GLN.****
  PyMOL2.4          3D                             0

 20 19  0  0  0  0  0  0  0  0999 V2000
    1.8951   -0.0783    1.1759 N   0  3  0  1  0  0  0  0  0  0  0  0
    2.3572    0.1428    2.0925 H   0  0  0  1  0  0  0  0  0  0  0  0
    2.4514    0.3455    0.3927 H   0  0  0  1  0  0  0  0  0  0  0  0
    1.8490   -1.1196    1.0496 H   0  0  0  1  0  0  0  0  0  0  0  0
    0.5146    0.4849    1.1659 C   0  0  0  1  0  0  0  0  0  0  0  0
    0.5745    1.5360    1.3568 H   0  0  0  1  0  0  0  0  0  0  0  0
   -0.2883   -0.1380    2.2556 C   0  0  0  1  0  0  0  0  0  0  0  0
   -1.5730    0.2953    2.3629 O   0  5  0  1  0  0  0  0  0  0  0  0
   -0.1339    0.2890   -0.1910 C   0  0  0  1  0  0  0  0  0  0  0  0
    0.4409    0.8189   -0.9214 H   0  0  0  1  0  0  0  0  0  0  0  0
   -1.1245    0.6920   -0.1549 H   0  0  0  1  0  0  0  0  0  0  0  0
   -0.2219   -1.1689   -0.6119 C   0  0  0  1  0  0  0  0  0  0  0  0
    0.7593   -1.5941   -0.5740 H   0  0  0  1  0  0  0  0  0  0  0  0
   -0.5912   -1.2120   -1.6152 H   0  0  0  1  0  0  0  0  0  0  0  0
   -1.1430   -1.9936    0.2802 C   0  0  0  1  0  0  0  0  0  0  0  0
   -2.0917   -1.4208    0.8146 O   0  0  0  1  0  0  0  0  0  0  0  0
   -0.8744   -3.2883    0.4349 N   0  0  0  1  0  0  0  0  0  0  0  0
   -1.4430   -3.8413    1.0105 H   0  0  0  1  0  0  0  0  0  0  0  0
   -0.1081   -3.6883   -0.0267 H   0  0  0  1  0  0  0  0  0  0  0  0
    0.1865   -0.9816    2.9981 O   0  0  0  1  0  0  0  0  0  0  0  0
  1  2  1  0  0  0  0
  1  3  1  0  0  0  0
  1  4  1  0  0  0  0
  1  5  1  0  0  0  0
  5  6  1  0  0  0  0
  5  7  1  0  0  0  0
  5  9  1  0  0  0  0
  7  8  1  0  0  0  0
  7 20  2  0  0  0  0
  9 10  1  0  0  0  0
  9 11  1  0  0  0  0
  9 12  1  0  0  0  0
 12 13  1  0  0  0  0
 12 14  1  0  0  0  0
 12 15  1  0  0  0  0
 15 16  2  0  0  0  0
 15 17  1  0  0  0  0
 17 18  1  0  0  0  0
 17 19  1  0  0  0  0
M  END
> <ConfClashScore>
0 

> <ConfOneFourInteractionScore>
-0.931193 

> <ConfScore>
0.1791 

> <ConfScorePBest>
0.00809448 

> <ConfTolerance>
0.423018 

$$$$
GLN.****
  PyMOL2.4          3D                             0

 20 19  0  0  0  0  0  0  0  0999 V2000
    1.8121   -0.2216    1.0437 N   0  3  0  1  0  0  0  0  0  0  0  0
    2.3492   -0.3921    1.9297 H   0  0  0  1  0  0  0  0  0  0  0  0
    2.4296    0.2666    0.3488 H   0  0  0  1  0  0  0  0  0  0  0  0
    1.4938   -1.1395    0.6456 H   0  0  0  1  0  0  0  0  0  0  0  0
    0.6256    0.6301    1.3376 C   0  0  0  1  0  0  0  0  0  0  0  0
    0.9342    1.5164    1.8515 H   0  0  0  1  0  0  0  0  0  0  0  0
   -0.3203   -0.1334    2.1993 C   0  0  0  1  0  0  0  0  0  0  0  0
   -0.5631    0.4014    3.4259 O   0  5  0  1  0  0  0  0  0  0  0  0
   -0.0902    1.0186    0.0582 C   0  0  0  1  0  0  0  0  0  0  0  0
   -0.9864    1.5428    0.3168 H   0  0  0  1  0  0  0  0  0  0  0  0
   -0.3402    0.1254   -0.4753 H   0  0  0  1  0  0  0  0  0  0  0  0
    0.7421    1.9067   -0.8521 C   0  0  0  1  0  0  0  0  0  0  0  0
    1.6702    1.4136   -1.0533 H   0  0  0  1  0  0  0  0  0  0  0  0
    0.9309    2.8307   -0.3467 H   0  0  0  1  0  0  0  0  0  0  0  0
    0.0602    2.2092   -2.1722 C   0  0  0  1  0  0  0  0  0  0  0  0
   -0.3446    1.3140   -2.8955 O   0  0  0  1  0  0  0  0  0  0  0  0
   -0.0629    3.5100   -2.4804 N   0  0  0  1  0  0  0  0  0  0  0  0
    0.1924    4.1946   -1.8273 H   0  0  0  1  0  0  0  0  0  0  0  0
   -0.4081    3.7749   -3.3585 H   0  0  0  1  0  0  0  0  0  0  0  0
   -0.8379   -1.1705    1.8186 O   0  0  0  1  0  0  0  0  0  0  0  0
  1  2  1  0  0  0  0
  1  3  1  0  0  0  0
  1  4  1  0  0  0  0
  1  5  1  0  0  0  0
  5  6  1  0  0  0  0
  5  7  1  0  0  0  0
  5  9  1  0  0  0  0
  7  8  1  0  0  0  0
  7 20  2  0  0  0  0
  9 10  1  0  0  0  0
  9 11  1  0  0  0  0
  9 12  1  0  0  0  0
 12 13  1  0  0  0  0
 12 14  1  0  0  0  0
 12 15  1  0  0  0  0
 15 16  2  0  0  0  0
 15 17  1  0  0  0  0
 17 18  1  0  0  0  0
 17 19  1  0  0  0  0
M  END
> <ConfClashScore>
0 

> <ConfOneFourInteractionScore>
-1 

> <ConfScore>
0.183615 

> <ConfScorePBest>
0.00799148 

> <ConfTolerance>
0.351452 

$$$$
GLN.****
  PyMOL2.4          3D                             0

 20 19  0  0  0  0  0  0  0  0999 V2000
    1.8858   -0.0855    1.1707 N   0  3  0  1  0  0  0  0  0  0  0  0
    1.8900   -1.1212    1.3437 H   0  0  0  1  0  0  0  0  0  0  0  0
    2.3808    0.4025    1.9576 H   0  0  0  1  0  0  0  0  0  0  0  0
    2.3779    0.1199    0.2661 H   0  0  0  1  0  0  0  0  0  0  0  0
    0.4796    0.3999    1.0920 C   0  0  0  1  0  0  0  0  0  0  0  0
    0.4704    1.4667    1.0106 H   0  0  0  1  0  0  0  0  0  0  0  0
   -0.2245   -0.0023    2.3420 C   0  0  0  1  0  0  0  0  0  0  0  0
   -1.5036    0.4590    2.3696 O   0  5  0  1  0  0  0  0  0  0  0  0
   -0.1976   -0.1992   -0.1311 C   0  0  0  1  0  0  0  0  0  0  0  0
   -1.2544   -0.0493   -0.0558 H   0  0  0  1  0  0  0  0  0  0  0  0
    0.0125   -1.2477   -0.1701 H   0  0  0  1  0  0  0  0  0  0  0  0
    0.3097    0.4585   -1.4041 C   0  0  0  1  0  0  0  0  0  0  0  0
   -0.0012   -0.1327   -2.2400 H   0  0  0  1  0  0  0  0  0  0  0  0
    1.3785    0.4915   -1.3677 H   0  0  0  1  0  0  0  0  0  0  0  0
   -0.2082    1.8631   -1.5903 C   0  0  0  1  0  0  0  0  0  0  0  0
   -1.3134    2.0952   -2.0453 O   0  0  0  1  0  0  0  0  0  0  0  0
    0.5992    2.9320   -1.2322 N   0  0  0  1  0  0  0  0  0  0  0  0
    1.4610    2.7701   -0.7947 H   0  0  0  1  0  0  0  0  0  0  0  0
    0.3080    3.8494   -1.4166 H   0  0  0  1  0  0  0  0  0  0  0  0
    0.2742   -0.6638    3.2377 O   0  0  0  1  0  0  0  0  0  0  0  0
  1  2  1  0  0  0  0
  1  3  1  0  0  0  0
  1  4  1  0  0  0  0
  1  5  1  0  0  0  0
  5  6  1  0  0  0  0
  5  7  1  0  0  0  0
  5  9  1  0  0  0  0
  7  8  1  0  0  0  0
  7 20  2  0  0  0  0
  9 10  1  0  0  0  0
  9 11  1  0  0  0  0
  9 12  1  0  0  0  0
 12 13  1  0  0  0  0
 12 14  1  0  0  0  0
 12 15  1  0  0  0  0
 15 16  2  0  0  0  0
 15 17  1  0  0  0  0
 17 18  1  0  0  0  0
 17 19  1  0  0  0  0
M  END
> <ConfClashScore>
0 

> <ConfOneFourInteractionScore>
-1 

> <ConfScore>
0.186511 

> <ConfScorePBest>
0.00788848 

> <ConfTolerance>
0.25 

$$$$
GLN.****
  PyMOL2.4          3D                             0

 20 19  0  0  0  0  0  0  0  0999 V2000
    1.9009   -0.0331    1.1657 N   0  3  0  1  0  0  0  0  0  0  0  0
    2.3516    0.0559    0.2216 H   0  0  0  1  0  0  0  0  0  0  0  0
    2.0980   -0.9866    1.5589 H   0  0  0  1  0  0  0  0  0  0  0  0
    2.2904    0.6989    1.8098 H   0  0  0  1  0  0  0  0  0  0  0  0
    0.4289    0.1545    1.0338 C   0  0  0  1  0  0  0  0  0  0  0  0
    0.2478    1.0871    0.5413 H   0  0  0  1  0  0  0  0  0  0  0  0
   -0.1911    0.2191    2.3871 C   0  0  0  1  0  0  0  0  0  0  0  0
   -1.5289    0.4535    2.3168 O   0  5  0  1  0  0  0  0  0  0  0  0
   -0.1804   -0.9538    0.1878 C   0  0  0  1  0  0  0  0  0  0  0  0
   -1.2294   -0.7673    0.0889 H   0  0  0  1  0  0  0  0  0  0  0  0
   -0.0292   -1.8862    0.6904 H   0  0  0  1  0  0  0  0  0  0  0  0
    0.4260   -1.0524   -1.2058 C   0  0  0  1  0  0  0  0  0  0  0  0
   -0.1221   -1.7816   -1.7649 H   0  0  0  1  0  0  0  0  0  0  0  0
    1.4449   -1.3657   -1.1125 H   0  0  0  1  0  0  0  0  0  0  0  0
    0.3927    0.2516   -1.9570 C   0  0  0  1  0  0  0  0  0  0  0  0
   -0.5915    0.5716   -2.6223 O   0  0  0  1  0  0  0  0  0  0  0  0
    1.4711    1.0555   -1.8786 N   0  0  0  1  0  0  0  0  0  0  0  0
    2.2491    0.7815   -1.3494 H   0  0  0  1  0  0  0  0  0  0  0  0
    1.4775    1.9143   -2.3507 H   0  0  0  1  0  0  0  0  0  0  0  0
    0.4159    0.0804    3.4363 O   0  0  0  1  0  0  0  0  0  0  0  0
  1  2  1  0  0  0  0
  1  3  1  0  0  0  0
  1  4  1  0  0  0  0
  1  5  1  0  0  0  0
  5  6  1  0  0  0  0
  5  7  1  0  0  0  0
  5  9  1  0  0  0  0
  7  8  1  0  0  0  0
  7 20  2  0  0  0  0
  9 10  1  0  0  0  0
  9 11  1  0  0  0  0
  9 12  1  0  0  0  0
 12 13  1  0  0  0  0
 12 14  1  0  0  0  0
 12 15  1  0  0  0  0
 15 16  2  0  0  0  0
 15 17  1  0  0  0  0
 17 18  1  0  0  0  0
 17 19  1  0  0  0  0
M  END
> <ConfClashScore>
0 

> <ConfOneFourInteractionScore>
-1 

> <ConfScore>
0.186511 

> <ConfScorePBest>
0.00778548 

> <ConfTolerance>
0.379949 

$$$$
GLN.****
  PyMOL2.4          3D                             0

 20 19  0  0  0  0  0  0  0  0999 V2000
    1.8133   -0.2419    1.0968 N   0  3  0  1  0  0  0  0  0  0  0  0
    1.6346   -1.2652    0.9440 H   0  0  0  1  0  0  0  0  0  0  0  0
    2.3222   -0.1075    2.0053 H   0  0  0  1  0  0  0  0  0  0  0  0
    2.3977    0.1326    0.3089 H   0  0  0  1  0  0  0  0  0  0  0  0
    0.5154    0.4881    1.1423 C   0  0  0  1  0  0  0  0  0  0  0  0
    0.6967    1.5399    1.2192 H   0  0  0  1  0  0  0  0  0  0  0  0
   -0.2356    0.0320    2.3457 C   0  0  0  1  0  0  0  0  0  0  0  0
   -0.4174    1.0968    3.1720 O   0  5  0  1  0  0  0  0  0  0  0  0
   -0.2714    0.2072   -0.1297 C   0  0  0  1  0  0  0  0  0  0  0  0
   -1.2133    0.7106   -0.0642 H   0  0  0  1  0  0  0  0  0  0  0  0
   -0.4346   -0.8479   -0.2017 H   0  0  0  1  0  0  0  0  0  0  0  0
    0.4369    0.6724   -1.3916 C   0  0  0  1  0  0  0  0  0  0  0  0
    1.4315    0.2782   -1.3762 H   0  0  0  1  0  0  0  0  0  0  0  0
    0.4761    1.7415   -1.3730 H   0  0  0  1  0  0  0  0  0  0  0  0
   -0.2079    0.2542   -2.6843 C   0  0  0  1  0  0  0  0  0  0  0  0
   -1.2757    0.7474   -3.0453 O   0  0  0  1  0  0  0  0  0  0  0  0
    0.4158   -0.6713   -3.4303 N   0  0  0  1  0  0  0  0  0  0  0  0
    0.0025   -0.9930   -4.2586 H   0  0  0  1  0  0  0  0  0  0  0  0
    1.2845   -1.0252   -3.1466 H   0  0  0  1  0  0  0  0  0  0  0  0
   -0.6225   -1.1060    2.5545 O   0  0  0  1  0  0  0  0  0  0  0  0
  1  2  1  0  0  0  0
  1  3  1  0  0  0  0
  1  4  1  0  0  0  0
  1  5  1  0  0  0  0
  5  6  1  0  0  0  0
  5  7  1  0  0  0  0
  5  9  1  0  0  0  0
  7  8  1  0  0  0  0
  7 20  2  0  0  0  0
  9 10  1  0  0  0  0
  9 11  1  0  0  0  0
  9 12  1  0  0  0  0
 12 13  1  0  0  0  0
 12 14  1  0  0  0  0
 12 15  1  0  0  0  0
 15 16  2  0  0  0  0
 15 17  1  0  0  0  0
 17 18  1  0  0  0  0
 17 19  1  0  0  0  0
M  END
> <ConfClashScore>
0 

> <ConfOneFourInteractionScore>
-1 

> <ConfScore>
0.188525 

> <ConfScorePBest>
0.00768248 

> <ConfTolerance>
0.634736 

$$$$
GLN.****
  PyMOL2.4          3D                             0

 20 19  0  0  0  0  0  0  0  0999 V2000
    1.7963   -0.2063    1.1302 N   0  3  0  1  0  0  0  0  0  0  0  0
    2.3208   -0.0222    0.2394 H   0  0  0  1  0  0  0  0  0  0  0  0
    1.7246   -1.2421    1.2863 H   0  0  0  1  0  0  0  0  0  0  0  0
    2.3073    0.2348    1.9345 H   0  0  0  1  0  0  0  0  0  0  0  0
    0.4288    0.3765    1.0316 C   0  0  0  1  0  0  0  0  0  0  0  0
    0.5160    1.4154    0.7906 H   0  0  0  1  0  0  0  0  0  0  0  0
   -0.1876    0.2618    2.3833 C   0  0  0  1  0  0  0  0  0  0  0  0
    0.4540   -0.6585    3.1521 O   0  5  0  1  0  0  0  0  0  0  0  0
   -0.3781   -0.2915   -0.0540 C   0  0  0  1  0  0  0  0  0  0  0  0
   -1.3652    0.1208   -0.0320 H   0  0  0  1  0  0  0  0  0  0  0  0
   -0.4230   -1.3378    0.1653 H   0  0  0  1  0  0  0  0  0  0  0  0
    0.1647   -0.1318   -1.4648 C   0  0  0  1  0  0  0  0  0  0  0  0
    0.4002    0.9014   -1.6129 H   0  0  0  1  0  0  0  0  0  0  0  0
   -0.6039   -0.4246   -2.1493 H   0  0  0  1  0  0  0  0  0  0  0  0
    1.4114   -0.9480   -1.7811 C   0  0  0  1  0  0  0  0  0  0  0  0
    1.9719   -1.6159   -0.9278 O   0  0  0  1  0  0  0  0  0  0  0  0
    1.8090   -0.8521   -3.0597 N   0  0  0  1  0  0  0  0  0  0  0  0
    2.6603   -1.2490   -3.3392 H   0  0  0  1  0  0  0  0  0  0  0  0
    1.2480   -0.3852   -3.7136 H   0  0  0  1  0  0  0  0  0  0  0  0
   -1.1492    0.9082    2.7650 O   0  0  0  1  0  0  0  0  0  0  0  0
  1  2  1  0  0  0  0
  1  3  1  0  0  0  0
  1  4  1  0  0  0  0
  1  5  1  0  0  0  0
  5  6  1  0  0  0  0
  5  7  1  0  0  0  0
  5  9  1  0  0  0  0
  7  8  1  0  0  0  0
  7 20  2  0  0  0  0
  9 10  1  0  0  0  0
  9 11  1  0  0  0  0
  9 12  1  0  0  0  0
 12 13  1  0  0  0  0
 12 14  1  0  0  0  0
 12 15  1  0  0  0  0
 15 16  2  0  0  0  0
 15 17  1  0  0  0  0
 17 18  1  0  0  0  0
 17 19  1  0  0  0  0
M  END
> <ConfClashScore>
0 

> <ConfOneFourInteractionScore>
-0.999576 

> <ConfScore>
0.188981 

> <ConfScorePBest>
0.00757948 

> <ConfTolerance>
0.331854 

$$$$
GLN.****
  PyMOL2.4          3D                             0

 20 19  0  0  0  0  0  0  0  0999 V2000
    1.8803   -0.1315    1.1532 N   0  3  0  1  0  0  0  0  0  0  0  0
    2.2721   -0.3164    0.1968 H   0  0  0  1  0  0  0  0  0  0  0  0
    1.9866   -0.9910    1.7469 H   0  0  0  1  0  0  0  0  0  0  0  0
    2.3997    0.6665    1.5957 H   0  0  0  1  0  0  0  0  0  0  0  0
    0.4365    0.2180    1.0402 C   0  0  0  1  0  0  0  0  0  0  0  0
    0.3563    1.2039    0.6321 H   0  0  0  1  0  0  0  0  0  0  0  0
   -0.1841    0.2272    2.3947 C   0  0  0  1  0  0  0  0  0  0  0  0
   -1.2215    1.1037    2.4667 O   0  5  0  1  0  0  0  0  0  0  0  0
   -0.2767   -0.7425    0.1009 C   0  0  0  1  0  0  0  0  0  0  0  0
   -0.1684   -1.7354    0.4847 H   0  0  0  1  0  0  0  0  0  0  0  0
    0.1843   -0.6797   -0.8626 H   0  0  0  1  0  0  0  0  0  0  0  0
   -1.7592   -0.4446   -0.0537 C   0  0  0  1  0  0  0  0  0  0  0  0
   -2.2662   -0.6521    0.8654 H   0  0  0  1  0  0  0  0  0  0  0  0
   -2.1694   -1.0523   -0.8330 H   0  0  0  1  0  0  0  0  0  0  0  0
   -1.9238    1.0192   -0.4080 C   0  0  0  1  0  0  0  0  0  0  0  0
   -1.5316    1.9022    0.3313 O   0  0  0  1  0  0  0  0  0  0  0  0
   -2.5322    1.2246   -1.5924 N   0  0  0  1  0  0  0  0  0  0  0  0
   -2.7051    2.1380   -1.9026 H   0  0  0  1  0  0  0  0  0  0  0  0
   -2.8019    0.4606   -2.1438 H   0  0  0  1  0  0  0  0  0  0  0  0
    0.1839   -0.4620    3.3318 O   0  0  0  1  0  0  0  0  0  0  0  0
  1  2  1  0  0  0  0
  1  3  1  0  0  0  0
  1  4  1  0  0  0  0
  1  5  1  0  0  0  0
  5  6  1  0  0  0  0
  5  7  1  0  0  0  0
  5  9  1  0  0  0  0
  7  8  1  0  0  0  0
  7 20  2  0  0  0  0
  9 10  1  0  0  0  0
  9 11  1  0  0  0  0
  9 12  1  0  0  0  0
 12 13  1  0  0  0  0
 12 14  1  0  0  0  0
 12 15  1  0  0  0  0
 15 16  2  0  0  0  0
 15 17  1  0  0  0  0
 17 18  1  0  0  0  0
 17 19  1  0  0  0  0
M  END
> <ConfClashScore>
0 

> <ConfOneFourInteractionScore>
-1 

> <ConfScore>
0.204424 

> <ConfScorePBest>
0.00747648 

> <ConfTolerance>
0.561293 

$$$$
GLN.****
  PyMOL2.4          3D                             0

 20 19  0  0  0  0  0  0  0  0999 V2000
    1.8752    0.0133    1.1656 N   0  3  0  1  0  0  0  0  0  0  0  0
    2.3309   -0.0322    0.2208 H   0  0  0  1  0  0  0  0  0  0  0  0
    2.0798   -0.8698    1.6955 H   0  0  0  1  0  0  0  0  0  0  0  0
    2.2530    0.8364    1.6969 H   0  0  0  1  0  0  0  0  0  0  0  0
    0.4022    0.1629    1.0005 C   0  0  0  1  0  0  0  0  0  0  0  0
    0.2036    1.1078    0.5393 H   0  0  0  1  0  0  0  0  0  0  0  0
   -0.1859    0.1798    2.3695 C   0  0  0  1  0  0  0  0  0  0  0  0
   -1.3274   -0.5181    2.6134 O   0  5  0  1  0  0  0  0  0  0  0  0
   -0.1693   -0.9255    0.1123 C   0  0  0  1  0  0  0  0  0  0  0  0
   -0.0315   -1.8681    0.5996 H   0  0  0  1  0  0  0  0  0  0  0  0
    0.3643   -0.9214   -0.8151 H   0  0  0  1  0  0  0  0  0  0  0  0
   -1.6497   -0.7473   -0.1825 C   0  0  0  1  0  0  0  0  0  0  0  0
   -2.1654   -0.6701    0.7519 H   0  0  0  1  0  0  0  0  0  0  0  0
   -1.9888   -1.6161   -0.7069 H   0  0  0  1  0  0  0  0  0  0  0  0
   -2.0048    0.4696   -1.0146 C   0  0  0  1  0  0  0  0  0  0  0  0
   -1.1614    1.3163   -1.2977 O   0  0  0  1  0  0  0  0  0  0  0  0
   -3.2846    0.5514   -1.4115 N   0  0  0  1  0  0  0  0  0  0  0  0
   -3.5845    1.3177   -1.9437 H   0  0  0  1  0  0  0  0  0  0  0  0
   -3.9189   -0.1552   -1.1691 H   0  0  0  1  0  0  0  0  0  0  0  0
    0.3708    0.8213    3.2452 O   0  0  0  1  0  0  0  0  0  0  0  0
  1  2  1  0  0  0  0
  1  3  1  0  0  0  0
  1  4  1  0  0  0  0
  1  5  1  0  0  0  0
  5  6  1  0  0  0  0
  5  7  1  0  0  0  0
  5  9  1  0  0  0  0
  7  8  1  0  0  0  0
  7 20  2  0  0  0  0
  9 10  1  0  0  0  0
  9 11  1  0  0  0  0
  9 12  1  0  0  0  0
 12 13  1  0  0  0  0
 12 14  1  0  0  0  0
 12 15  1  0  0  0  0
 15 16  2  0  0  0  0
 15 17  1  0  0  0  0
 17 18  1  0  0  0  0
 17 19  1  0  0  0  0
M  END
> <ConfClashScore>
0 

> <ConfOneFourInteractionScore>
-0.999576 

> <ConfScore>
0.210095 

> <ConfScorePBest>
0.00737347 

> <ConfTolerance>
0.651175 

$$$$
GLN.****
  PyMOL2.4          3D                             0

 20 19  0  0  0  0  0  0  0  0999 V2000
    1.8126   -0.2230    1.0520 N   0  3  0  1  0  0  0  0  0  0  0  0
    2.2056   -0.5764    1.9593 H   0  0  0  1  0  0  0  0  0  0  0  0
    2.5348    0.3608    0.5618 H   0  0  0  1  0  0  0  0  0  0  0  0
    1.5489   -1.0375    0.4442 H   0  0  0  1  0  0  0  0  0  0  0  0
    0.6047    0.6059    1.3225 C   0  0  0  1  0  0  0  0  0  0  0  0
    0.9085    1.4917    1.8402 H   0  0  0  1  0  0  0  0  0  0  0  0
   -0.3318   -0.1465    2.2040 C   0  0  0  1  0  0  0  0  0  0  0  0
   -0.5659    0.4901    3.3828 O   0  5  0  1  0  0  0  0  0  0  0  0
   -0.0645    1.0266    0.0157 C   0  0  0  1  0  0  0  0  0  0  0  0
   -0.2760    0.1543   -0.5668 H   0  0  0  1  0  0  0  0  0  0  0  0
    0.5986    1.6668   -0.5277 H   0  0  0  1  0  0  0  0  0  0  0  0
   -1.3618    1.7697    0.2896 C   0  0  0  1  0  0  0  0  0  0  0  0
   -1.9940    1.1435    0.8839 H   0  0  0  1  0  0  0  0  0  0  0  0
   -1.8401    1.9757   -0.6451 H   0  0  0  1  0  0  0  0  0  0  0  0
   -1.1524    3.0797    1.0238 C   0  0  0  1  0  0  0  0  0  0  0  0
   -0.5942    4.0330    0.4821 O   0  0  0  1  0  0  0  0  0  0  0  0
   -1.6138    3.1220    2.2889 N   0  0  0  1  0  0  0  0  0  0  0  0
   -2.0905    2.3516    2.6626 H   0  0  0  1  0  0  0  0  0  0  0  0
   -1.4728    3.9231    2.8354 H   0  0  0  1  0  0  0  0  0  0  0  0
   -0.8199   -1.2156    1.8766 O   0  0  0  1  0  0  0  0  0  0  0  0
  1  2  1  0  0  0  0
  1  3  1  0  0  0  0
  1  4  1  0  0  0  0
  1  5  1  0  0  0  0
  5  6  1  0  0  0  0
  5  7  1  0  0  0  0
  5  9  1  0  0  0  0
  7  8  1  0  0  0  0
  7 20  2  0  0  0  0
  9 10  1  0  0  0  0
  9 11  1  0  0  0  0
  9 12  1  0  0  0  0
 12 13  1  0  0  0  0
 12 14  1  0  0  0  0
 12 15  1  0  0  0  0
 15 16  2  0  0  0  0
 15 17  1  0  0  0  0
 17 18  1  0  0  0  0
 17 19  1  0  0  0  0
M  END
> <ConfClashScore>
0 

> <ConfOneFourInteractionScore>
-0.991729 

> <ConfScore>
0.210785 

> <ConfScorePBest>
0.00727047 

> <ConfTolerance>
0.774296 

$$$$
GLN.****
  PyMOL2.4          3D                             0

 20 19  0  0  0  0  0  0  0  0999 V2000
    1.8723   -0.1074    1.1744 N   0  3  0  1  0  0  0  0  0  0  0  0
    2.2405   -0.1786    2.1551 H   0  0  0  1  0  0  0  0  0  0  0  0
    2.5328    0.4659    0.5935 H   0  0  0  1  0  0  0  0  0  0  0  0
    1.7873   -1.0693    0.7621 H   0  0  0  1  0  0  0  0  0  0  0  0
    0.5330    0.5449    1.1922 C   0  0  0  1  0  0  0  0  0  0  0  0
    0.6451    1.5876    1.4047 H   0  0  0  1  0  0  0  0  0  0  0  0
   -0.3314   -0.0738    2.2363 C   0  0  0  1  0  0  0  0  0  0  0  0
   -0.3115   -1.4232    2.4047 O   0  5  0  1  0  0  0  0  0  0  0  0
   -0.0944    0.3845   -0.1841 C   0  0  0  1  0  0  0  0  0  0  0  0
   -0.3733   -0.6387   -0.3254 H   0  0  0  1  0  0  0  0  0  0  0  0
    0.6191    0.6666   -0.9299 H   0  0  0  1  0  0  0  0  0  0  0  0
   -1.3290    1.2608   -0.3187 C   0  0  0  1  0  0  0  0  0  0  0  0
   -1.6301    1.2342   -1.3452 H   0  0  0  1  0  0  0  0  0  0  0  0
   -1.0441    2.2581   -0.0559 H   0  0  0  1  0  0  0  0  0  0  0  0
   -2.5402    0.8994    0.5189 C   0  0  0  1  0  0  0  0  0  0  0  0
   -3.1310   -0.1554    0.3555 O   0  0  0  1  0  0  0  0  0  0  0  0
   -2.9073    1.8084    1.4360 N   0  0  0  1  0  0  0  0  0  0  0  0
   -2.4357    2.6655    1.4925 H   0  0  0  1  0  0  0  0  0  0  0  0
   -3.6470    1.6148    2.0490 H   0  0  0  1  0  0  0  0  0  0  0  0
   -1.0409    0.6455    2.9202 O   0  0  0  1  0  0  0  0  0  0  0  0
  1  2  1  0  0  0  0
  1  3  1  0  0  0  0
  1  4  1  0  0  0  0
  1  5  1  0  0  0  0
  5  6  1  0  0  0  0
  5  7  1  0  0  0  0
  5  9  1  0  0  0  0
  7  8  1  0  0  0  0
  7 20  2  0  0  0  0
  9 10  1  0  0  0  0
  9 11  1  0  0  0  0
  9 12  1  0  0  0  0
 12 13  1  0  0  0  0
 12 14  1  0  0  0  0
 12 15  1  0  0  0  0
 15 16  2  0  0  0  0
 15 17  1  0  0  0  0
 17 18  1  0  0  0  0
 17 19  1  0  0  0  0
M  END
> <ConfClashScore>
0 

> <ConfOneFourInteractionScore>
-0.991729 

> <ConfScore>
0.218867 

> <ConfScorePBest>
0.00716747 

> <ConfTolerance>
0.59314 

$$$$
GLN.****
  PyMOL2.4          3D                             0

 20 19  0  0  0  0  0  0  0  0999 V2000
    1.8548   -0.1684    1.1097 N   0  3  0  1  0  0  0  0  0  0  0  0
    2.2759   -0.3281    2.0582 H   0  0  0  1  0  0  0  0  0  0  0  0
    2.5141    0.4036    0.5261 H   0  0  0  1  0  0  0  0  0  0  0  0
    1.6852   -1.0932    0.6422 H   0  0  0  1  0  0  0  0  0  0  0  0
    0.5626    0.5585    1.2552 C   0  0  0  1  0  0  0  0  0  0  0  0
    0.7633    1.5334    1.6478 H   0  0  0  1  0  0  0  0  0  0  0  0
   -0.3095   -0.1599    2.2265 C   0  0  0  1  0  0  0  0  0  0  0  0
   -1.1469    0.6770    2.8959 O   0  5  0  1  0  0  0  0  0  0  0  0
   -0.1108    0.7215   -0.0850 C   0  0  0  1  0  0  0  0  0  0  0  0
   -1.1304    0.9949    0.0896 H   0  0  0  1  0  0  0  0  0  0  0  0
   -0.0751   -0.2218   -0.5886 H   0  0  0  1  0  0  0  0  0  0  0  0
    0.5032    1.7658   -1.0030 C   0  0  0  1  0  0  0  0  0  0  0  0
    0.4572    2.7115   -0.5046 H   0  0  0  1  0  0  0  0  0  0  0  0
   -0.0828    1.8046   -1.8974 H   0  0  0  1  0  0  0  0  0  0  0  0
    1.9380    1.5170   -1.3972 C   0  0  0  1  0  0  0  0  0  0  0  0
    2.3822    0.3721   -1.4726 O   0  0  0  1  0  0  0  0  0  0  0  0
    2.7132    2.5804   -1.6624 N   0  0  0  1  0  0  0  0  0  0  0  0
    3.6372    2.4506   -1.9621 H   0  0  0  1  0  0  0  0  0  0  0  0
    2.3551    3.4864   -1.5563 H   0  0  0  1  0  0  0  0  0  0  0  0
   -0.2556   -1.3686    2.3825 O   0  0  0  1  0  0  0  0  0  0  0  0
  1  2  1  0  0  0  0
  1  3  1  0  0  0  0
  1  4  1  0  0  0  0
  1  5  1  0  0  0  0
  5  6  1  0  0  0  0
  5  7  1  0  0  0  0
  5  9  1  0  0  0  0
  7  8  1  0  0  0  0
  7 20  2  0  0  0  0
  9 10  1  0  0  0  0
  9 11  1  0  0  0  0
  9 12  1  0  0  0  0
 12 13  1  0  0  0  0
 12 14  1  0  0  0  0
 12 15  1  0  0  0  0
 15 16  2  0  0  0  0
 15 17  1  0  0  0  0
 17 18  1  0  0  0  0
 17 19  1  0  0  0  0
M  END
> <ConfClashScore>
0 

> <ConfOneFourInteractionScore>
-0.999576 

> <ConfScore>
0.221292 

> <ConfScorePBest>
0.00706447 

> <ConfTolerance>
0.62729 

$$$$
GLN.****
  PyMOL2.4          3D                             0

 20 19  0  0  0  0  0  0  0  0999 V2000
    1.8581   -0.1733    1.1098 N   0  3  0  1  0  0  0  0  0  0  0  0
    2.4219   -0.0461    1.9864 H   0  0  0  1  0  0  0  0  0  0  0  0
    2.3913    0.2130    0.2919 H   0  0  0  1  0  0  0  0  0  0  0  0
    1.6747   -1.1959    0.9572 H   0  0  0  1  0  0  0  0  0  0  0  0
    0.5619    0.5488    1.2429 C   0  0  0  1  0  0  0  0  0  0  0  0
    0.7578    1.5358    1.6066 H   0  0  0  1  0  0  0  0  0  0  0  0
   -0.2998   -0.1483    2.2388 C   0  0  0  1  0  0  0  0  0  0  0  0
   -1.1358    0.7166    2.8733 O   0  5  0  1  0  0  0  0  0  0  0  0
   -0.1287    0.6719   -0.1137 C   0  0  0  1  0  0  0  0  0  0  0  0
   -0.9735    1.3218   -0.0196 H   0  0  0  1  0  0  0  0  0  0  0  0
   -0.4564   -0.2964   -0.4297 H   0  0  0  1  0  0  0  0  0  0  0  0
    0.8236    1.2397   -1.1535 C   0  0  0  1  0  0  0  0  0  0  0  0
    0.3261    1.2512   -2.1007 H   0  0  0  1  0  0  0  0  0  0  0  0
    1.6839    0.6059   -1.2095 H   0  0  0  1  0  0  0  0  0  0  0  0
    1.2791    2.6385   -0.8345 C   0  0  0  1  0  0  0  0  0  0  0  0
    1.9154    2.9037    0.1691 O   0  0  0  1  0  0  0  0  0  0  0  0
    0.9655    3.6658   -1.7115 N   0  0  0  1  0  0  0  0  0  0  0  0
    0.4965    3.4689   -2.5491 H   0  0  0  1  0  0  0  0  0  0  0  0
    1.2129    4.5887   -1.4936 H   0  0  0  1  0  0  0  0  0  0  0  0
   -0.2685   -1.3465    2.4660 O   0  0  0  1  0  0  0  0  0  0  0  0
  1  2  1  0  0  0  0
  1  3  1  0  0  0  0
  1  4  1  0  0  0  0
  1  5  1  0  0  0  0
  5  6  1  0  0  0  0
  5  7  1  0  0  0  0
  5  9  1  0  0  0  0
  7  8  1  0  0  0  0
  7 20  2  0  0  0  0
  9 10  1  0  0  0  0
  9 11  1  0  0  0  0
  9 12  1  0  0  0  0
 12 13  1  0  0  0  0
 12 14  1  0  0  0  0
 12 15  1  0  0  0  0
 15 16  2  0  0  0  0
 15 17  1  0  0  0  0
 17 18  1  0  0  0  0
 17 19  1  0  0  0  0
M  END
> <ConfClashScore>
0 

> <ConfOneFourInteractionScore>
-1 

> <ConfScore>
0.221463 

> <ConfScorePBest>
0.00696147 

> <ConfTolerance>
0.485409 

$$$$
GLN.****
  PyMOL2.4          3D                             0

 20 19  0  0  0  0  0  0  0  0999 V2000
    1.7764   -0.2298    1.1015 N   0  3  0  1  0  0  0  0  0  0  0  0
    2.2226   -0.4049    2.0357 H   0  0  0  1  0  0  0  0  0  0  0  0
    2.4672    0.2418    0.4668 H   0  0  0  1  0  0  0  0  0  0  0  0
    1.4794   -1.1439    0.6789 H   0  0  0  1  0  0  0  0  0  0  0  0
    0.5887    0.6435    1.2756 C   0  0  0  1  0  0  0  0  0  0  0  0
    0.8897    1.5685    1.7213 H   0  0  0  1  0  0  0  0  0  0  0  0
   -0.3360   -0.0627    2.2063 C   0  0  0  1  0  0  0  0  0  0  0  0
    0.3237   -0.7947    3.1436 O   0  5  0  1  0  0  0  0  0  0  0  0
   -0.0297    0.9331   -0.0835 C   0  0  0  1  0  0  0  0  0  0  0  0
   -0.3823    0.0177   -0.5107 H   0  0  0  1  0  0  0  0  0  0  0  0
    0.7132    1.3627   -0.7226 H   0  0  0  1  0  0  0  0  0  0  0  0
   -1.1934    1.9019    0.0495 C   0  0  0  1  0  0  0  0  0  0  0  0
   -0.8092    2.8582    0.3371 H   0  0  0  1  0  0  0  0  0  0  0  0
   -1.8535    1.5389    0.8094 H   0  0  0  1  0  0  0  0  0  0  0  0
   -1.9806    2.0647   -1.2362 C   0  0  0  1  0  0  0  0  0  0  0  0
   -3.0132    1.4443   -1.4292 O   0  0  0  1  0  0  0  0  0  0  0  0
   -1.4672    2.9255   -2.1293 N   0  0  0  1  0  0  0  0  0  0  0  0
   -0.5699    3.2955   -1.9935 H   0  0  0  1  0  0  0  0  0  0  0  0
   -1.9897    3.1840   -2.9170 H   0  0  0  1  0  0  0  0  0  0  0  0
   -1.5492    0.0252    2.1129 O   0  0  0  1  0  0  0  0  0  0  0  0
  1  2  1  0  0  0  0
  1  3  1  0  0  0  0
  1  4  1  0  0  0  0
  1  5  1  0  0  0  0
  5  6  1  0  0  0  0
  5  7  1  0  0  0  0
  5  9  1  0  0  0  0
  7  8  1  0  0  0  0
  7 20  2  0  0  0  0
  9 10  1  0  0  0  0
  9 11  1  0  0  0  0
  9 12  1  0  0  0  0
 12 13  1  0  0  0  0
 12 14  1  0  0  0  0
 12 15  1  0  0  0  0
 15 16  2  0  0  0  0
 15 17  1  0  0  0  0
 17 18  1  0  0  0  0
 17 19  1  0  0  0  0
M  END
> <ConfClashScore>
0 

> <ConfOneFourInteractionScore>
-0.974514 

> <ConfScore>
0.226409 

> <ConfScorePBest>
0.00685847 

> <ConfTolerance>
0.650272 

$$$$
GLN.****
  PyMOL2.4          3D                             0

 20 19  0  0  0  0  0  0  0  0999 V2000
    1.8808   -0.0750    1.1728 N   0  3  0  1  0  0  0  0  0  0  0  0
    1.9112   -1.1058    1.3705 H   0  0  0  1  0  0  0  0  0  0  0  0
    2.3629    0.4441    1.9478 H   0  0  0  1  0  0  0  0  0  0  0  0
    2.3677    0.1213    0.2635 H   0  0  0  1  0  0  0  0  0  0  0  0
    0.4626    0.3725    1.0830 C   0  0  0  1  0  0  0  0  0  0  0  0
    0.4598    1.4411    1.0279 H   0  0  0  1  0  0  0  0  0  0  0  0
   -0.2408   -0.0100    2.3396 C   0  0  0  1  0  0  0  0  0  0  0  0
   -1.5419    0.3707    2.4485 O   0  5  0  1  0  0  0  0  0  0  0  0
   -0.2059   -0.1504   -0.1824 C   0  0  0  1  0  0  0  0  0  0  0  0
    0.4003    0.1182   -1.0222 H   0  0  0  1  0  0  0  0  0  0  0  0
   -1.1671    0.3107   -0.2736 H   0  0  0  1  0  0  0  0  0  0  0  0
   -0.3927   -1.6589   -0.1858 C   0  0  0  1  0  0  0  0  0  0  0  0
   -0.9091   -1.9255   -1.0842 H   0  0  0  1  0  0  0  0  0  0  0  0
   -0.9923   -1.9192    0.6614 H   0  0  0  1  0  0  0  0  0  0  0  0
    0.8913   -2.4760   -0.1216 C   0  0  0  1  0  0  0  0  0  0  0  0
    1.6831   -2.5078   -1.0626 O   0  0  0  1  0  0  0  0  0  0  0  0
    1.0547   -3.1340    1.0371 N   0  0  0  1  0  0  0  0  0  0  0  0
    0.3828   -3.0525    1.7458 H   0  0  0  1  0  0  0  0  0  0  0  0
    1.8460   -3.6957    1.1742 H   0  0  0  1  0  0  0  0  0  0  0  0
    0.3765   -0.6327    3.1878 O   0  0  0  1  0  0  0  0  0  0  0  0
  1  2  1  0  0  0  0
  1  3  1  0  0  0  0
  1  4  1  0  0  0  0
  1  5  1  0  0  0  0
  5  6  1  0  0  0  0
  5  7  1  0  0  0  0
  5  9  1  0  0  0  0
  7  8  1  0  0  0  0
  7 20  2  0  0  0  0
  9 10  1  0  0  0  0
  9 11  1  0  0  0  0
  9 12  1  0  0  0  0
 12 13  1  0  0  0  0
 12 14  1  0  0  0  0
 12 15  1  0  0  0  0
 15 16  2  0  0  0  0
 15 17  1  0  0  0  0
 17 18  1  0  0  0  0
 17 19  1  0  0  0  0
M  END
> <ConfClashScore>
9.69272e-05 

> <ConfOneFourInteractionScore>
-0.988858 

> <ConfScore>
0.227545 

> <ConfScorePBest>
0.00675547 

> <ConfTolerance>
0.656152 

$$$$
GLN.****
  PyMOL2.4          3D                             0

 20 19  0  0  0  0  0  0  0  0999 V2000
    1.7667   -0.3169    1.0753 N   0  3  0  1  0  0  0  0  0  0  0  0
    2.3078   -0.0828    0.2064 H   0  0  0  1  0  0  0  0  0  0  0  0
    1.5535   -1.3450    1.0881 H   0  0  0  1  0  0  0  0  0  0  0  0
    2.3370   -0.0667    1.9206 H   0  0  0  1  0  0  0  0  0  0  0  0
    0.4922    0.4544    1.0904 C   0  0  0  1  0  0  0  0  0  0  0  0
    0.7027    1.4989    0.9926 H   0  0  0  1  0  0  0  0  0  0  0  0
   -0.1854    0.2121    2.3951 C   0  0  0  1  0  0  0  0  0  0  0  0
    0.3234    0.9999    3.3800 O   0  5  0  1  0  0  0  0  0  0  0  0
   -0.3781    0.0133   -0.0602 C   0  0  0  1  0  0  0  0  0  0  0  0
   -1.3027    0.5483    0.0019 H   0  0  0  1  0  0  0  0  0  0  0  0
   -0.5638   -1.0347    0.0499 H   0  0  0  1  0  0  0  0  0  0  0  0
    0.2045    0.2431   -1.4486 C   0  0  0  1  0  0  0  0  0  0  0  0
    1.2226   -0.0860   -1.4379 H   0  0  0  1  0  0  0  0  0  0  0  0
    0.1707    1.2932   -1.6511 H   0  0  0  1  0  0  0  0  0  0  0  0
   -0.5015   -0.4686   -2.5698 C   0  0  0  1  0  0  0  0  0  0  0  0
   -1.2554   -1.4046   -2.3751 O   0  0  0  1  0  0  0  0  0  0  0  0
   -0.2898   -0.0479   -3.8740 N   0  0  0  1  0  0  0  0  0  0  0  0
    0.1982    0.7841   -4.0474 H   0  0  0  1  0  0  0  0  0  0  0  0
   -0.6283   -0.5826   -4.6223 H   0  0  0  1  0  0  0  0  0  0  0  0
   -1.0867   -0.5911    2.5708 O   0  0  0  1  0  0  0  0  0  0  0  0
  1  2  1  0  0  0  0
  1  3  1  0  0  0  0
  1  4  1  0  0  0  0
  1  5  1  0  0  0  0
  5  6  1  0  0  0  0
  5  7  1  0  0  0  0
  5  9  1  0  0  0  0
  7  8  1  0  0  0  0
  7 20  2  0  0  0  0
  9 10  1  0  0  0  0
  9 11  1  0  0  0  0
  9 12  1  0  0  0  0
 12 13  1  0  0  0  0
 12 14  1  0  0  0  0
 12 15  1  0  0  0  0
 15 16  2  0  0  0  0
 15 17  1  0  0  0  0
 17 18  1  0  0  0  0
 17 19  1  0  0  0  0
M  END
> <ConfClashScore>
0 

> <ConfOneFourInteractionScore>
-0.999576 

> <ConfScore>
0.229713 

> <ConfScorePBest>
0.00665247 

> <ConfTolerance>
0.660012 

$$$$
GLN.****
  PyMOL2.4          3D                             0

 20 19  0  0  0  0  0  0  0  0999 V2000
    1.8870   -0.0280    1.1928 N   0  3  0  1  0  0  0  0  0  0  0  0
    1.9919   -1.0721    1.2294 H   0  0  0  1  0  0  0  0  0  0  0  0
    2.2597    0.3922    2.0799 H   0  0  0  1  0  0  0  0  0  0  0  0
    2.4246    0.3490    0.3734 H   0  0  0  1  0  0  0  0  0  0  0  0
    0.4465    0.3221    1.0447 C   0  0  0  1  0  0  0  0  0  0  0  0
    0.3684    1.3711    0.8487 H   0  0  0  1  0  0  0  0  0  0  0  0
   -0.2020    0.0447    2.3572 C   0  0  0  1  0  0  0  0  0  0  0  0
   -1.5211   -0.2537    2.2133 O   0  5  0  1  0  0  0  0  0  0  0  0
   -0.1911   -0.4272   -0.1151 C   0  0  0  1  0  0  0  0  0  0  0  0
    0.4036   -0.2674   -0.9902 H   0  0  0  1  0  0  0  0  0  0  0  0
   -1.1734   -0.0338   -0.2741 H   0  0  0  1  0  0  0  0  0  0  0  0
   -0.3043   -1.9240    0.1239 C   0  0  0  1  0  0  0  0  0  0  0  0
   -0.7958   -2.0618    1.0643 H   0  0  0  1  0  0  0  0  0  0  0  0
    0.6900   -2.3153    0.1798 H   0  0  0  1  0  0  0  0  0  0  0  0
   -1.0572   -2.7436   -0.9060 C   0  0  0  1  0  0  0  0  0  0  0  0
   -0.4656   -3.3324   -1.8098 O   0  0  0  1  0  0  0  0  0  0  0  0
   -2.3914   -2.7786   -0.7614 N   0  0  0  1  0  0  0  0  0  0  0  0
   -2.9395   -3.2891   -1.3934 H   0  0  0  1  0  0  0  0  0  0  0  0
   -2.8172   -2.2937   -0.0239 H   0  0  0  1  0  0  0  0  0  0  0  0
    0.3691    0.0778    3.4347 O   0  0  0  1  0  0  0  0  0  0  0  0
  1  2  1  0  0  0  0
  1  3  1  0  0  0  0
  1  4  1  0  0  0  0
  1  5  1  0  0  0  0
  5  6  1  0  0  0  0
  5  7  1  0  0  0  0
  5  9  1  0  0  0  0
  7  8  1  0  0  0  0
  7 20  2  0  0  0  0
  9 10  1  0  0  0  0
  9 11  1  0  0  0  0
  9 12  1  0  0  0  0
 12 13  1  0  0  0  0
 12 14  1  0  0  0  0
 12 15  1  0  0  0  0
 15 16  2  0  0  0  0
 15 17  1  0  0  0  0
 17 18  1  0  0  0  0
 17 19  1  0  0  0  0
M  END
> <ConfClashScore>
0 

> <ConfOneFourInteractionScore>
-0.971642 

> <ConfScore>
0.239443 

> <ConfScorePBest>
0.00654947 

> <ConfTolerance>
0.560107 

$$$$
GLN.****
  PyMOL2.4          3D                             0

 20 19  0  0  0  0  0  0  0  0999 V2000
    1.8569   -0.1486    1.1556 N   0  3  0  1  0  0  0  0  0  0  0  0
    2.3905    0.1271    0.2944 H   0  0  0  1  0  0  0  0  0  0  0  0
    1.8901   -1.1920    1.2686 H   0  0  0  1  0  0  0  0  0  0  0  0
    2.2890    0.3089    1.9962 H   0  0  0  1  0  0  0  0  0  0  0  0
    0.4397    0.2916    1.0247 C   0  0  0  1  0  0  0  0  0  0  0  0
    0.3927    1.3027    0.6777 H   0  0  0  1  0  0  0  0  0  0  0  0
   -0.1664    0.1934    2.3823 C   0  0  0  1  0  0  0  0  0  0  0  0
   -1.1033    1.1580    2.5858 O   0  5  0  1  0  0  0  0  0  0  0  0
   -0.2888   -0.6206    0.0565 C   0  0  0  1  0  0  0  0  0  0  0  0
   -0.2194   -1.6249    0.4191 H   0  0  0  1  0  0  0  0  0  0  0  0
    0.1885   -0.5519   -0.8987 H   0  0  0  1  0  0  0  0  0  0  0  0
   -1.7580   -0.2697   -0.1125 C   0  0  0  1  0  0  0  0  0  0  0  0
   -1.8162    0.6919   -0.5781 H   0  0  0  1  0  0  0  0  0  0  0  0
   -2.2002   -0.2227    0.8607 H   0  0  0  1  0  0  0  0  0  0  0  0
   -2.5747   -1.2528   -0.9554 C   0  0  0  1  0  0  0  0  0  0  0  0
   -3.7885   -1.3042   -0.7609 O   0  0  0  1  0  0  0  0  0  0  0  0
   -1.8943   -1.9794   -1.8397 N   0  0  0  1  0  0  0  0  0  0  0  0
   -0.9298   -1.8431   -1.9474 H   0  0  0  1  0  0  0  0  0  0  0  0
   -2.3580   -2.6504   -2.3830 H   0  0  0  1  0  0  0  0  0  0  0  0
    0.1325   -0.6445    3.2172 O   0  0  0  1  0  0  0  0  0  0  0  0
  1  2  1  0  0  0  0
  1  3  1  0  0  0  0
  1  4  1  0  0  0  0
  1  5  1  0  0  0  0
  5  6  1  0  0  0  0
  5  7  1  0  0  0  0
  5  9  1  0  0  0  0
  7  8  1  0  0  0  0
  7 20  2  0  0  0  0
  9 10  1  0  0  0  0
  9 11  1  0  0  0  0
  9 12  1  0  0  0  0
 12 13  1  0  0  0  0
 12 14  1  0  0  0  0
 12 15  1  0  0  0  0
 15 16  2  0  0  0  0
 15 17  1  0  0  0  0
 17 18  1  0  0  0  0
 17 19  1  0  0  0  0
M  END
> <ConfClashScore>
0 

> <ConfOneFourInteractionScore>
-0.945489 

> <ConfScore>
0.241527 

> <ConfScorePBest>
0.00644647 

> <ConfTolerance>
0.785516 

$$$$
GLN.****
  PyMOL2.4          3D                             0

 20 19  0  0  0  0  0  0  0  0999 V2000
    1.7883   -0.2452    1.0415 N   0  3  0  1  0  0  0  0  0  0  0  0
    2.1115   -0.7055    1.9281 H   0  0  0  1  0  0  0  0  0  0  0  0
    2.5671    0.3374    0.6459 H   0  0  0  1  0  0  0  0  0  0  0  0
    1.5130   -0.9815    0.3453 H   0  0  0  1  0  0  0  0  0  0  0  0
    0.6153    0.6260    1.3324 C   0  0  0  1  0  0  0  0  0  0  0  0
    0.9557    1.4920    1.8606 H   0  0  0  1  0  0  0  0  0  0  0  0
   -0.3635   -0.0923    2.1962 C   0  0  0  1  0  0  0  0  0  0  0  0
    0.0878   -0.2147    3.4733 O   0  5  0  1  0  0  0  0  0  0  0  0
   -0.0022    1.0821    0.0194 C   0  0  0  1  0  0  0  0  0  0  0  0
   -0.4780    0.2419   -0.4417 H   0  0  0  1  0  0  0  0  0  0  0  0
    0.7795    1.4429   -0.6160 H   0  0  0  1  0  0  0  0  0  0  0  0
   -1.0330    2.1861    0.1897 C   0  0  0  1  0  0  0  0  0  0  0  0
   -0.5701    3.0096    0.6922 H   0  0  0  1  0  0  0  0  0  0  0  0
   -1.8385    1.8110    0.7857 H   0  0  0  1  0  0  0  0  0  0  0  0
   -1.6006    2.6834   -1.1361 C   0  0  0  1  0  0  0  0  0  0  0  0
   -0.8653    3.1409   -2.0100 O   0  0  0  1  0  0  0  0  0  0  0  0
   -2.9187    2.5101   -1.3219 N   0  0  0  1  0  0  0  0  0  0  0  0
   -3.3371    2.7959   -2.1608 H   0  0  0  1  0  0  0  0  0  0  0  0
   -3.4627    2.0979   -0.6186 H   0  0  0  1  0  0  0  0  0  0  0  0
   -1.4401   -0.5223    1.8163 O   0  0  0  1  0  0  0  0  0  0  0  0
  1  2  1  0  0  0  0
  1  3  1  0  0  0  0
  1  4  1  0  0  0  0
  1  5  1  0  0  0  0
  5  6  1  0  0  0  0
  5  7  1  0  0  0  0
  5  9  1  0  0  0  0
  7  8  1  0  0  0  0
  7 20  2  0  0  0  0
  9 10  1  0  0  0  0
  9 11  1  0  0  0  0
  9 12  1  0  0  0  0
 12 13  1  0  0  0  0
 12 14  1  0  0  0  0
 12 15  1  0  0  0  0
 15 16  2  0  0  0  0
 15 17  1  0  0  0  0
 17 18  1  0  0  0  0
 17 19  1  0  0  0  0
M  END
> <ConfClashScore>
0 

> <ConfOneFourInteractionScore>
-1 

> <ConfScore>
0.241732 

> <ConfScorePBest>
0.00634346 

> <ConfTolerance>
0.664608 

$$$$
GLN.****
  PyMOL2.4          3D                             0

 20 19  0  0  0  0  0  0  0  0999 V2000
    1.8176   -0.2728    1.0975 N   0  3  0  1  0  0  0  0  0  0  0  0
    2.3019   -0.0947    0.1830 H   0  0  0  1  0  0  0  0  0  0  0  0
    1.7151   -1.3075    1.2432 H   0  0  0  1  0  0  0  0  0  0  0  0
    2.3857    0.1368    1.8797 H   0  0  0  1  0  0  0  0  0  0  0  0
    0.4697    0.3616    1.0782 C   0  0  0  1  0  0  0  0  0  0  0  0
    0.5872    1.4067    0.8811 H   0  0  0  1  0  0  0  0  0  0  0  0
   -0.1949    0.2092    2.4030 C   0  0  0  1  0  0  0  0  0  0  0  0
   -0.2760    1.4038    3.0481 O   0  5  0  1  0  0  0  0  0  0  0  0
   -0.3470   -0.2451   -0.0465 C   0  0  0  1  0  0  0  0  0  0  0  0
   -1.3717    0.0397    0.0708 H   0  0  0  1  0  0  0  0  0  0  0  0
   -0.2655   -1.3111   -0.0038 H   0  0  0  1  0  0  0  0  0  0  0  0
    0.1534    0.2393   -1.3976 C   0  0  0  1  0  0  0  0  0  0  0  0
    1.1898   -0.0147   -1.4761 H   0  0  0  1  0  0  0  0  0  0  0  0
    0.0429    1.3031   -1.4284 H   0  0  0  1  0  0  0  0  0  0  0  0
   -0.5661   -0.3431   -2.6074 C   0  0  0  1  0  0  0  0  0  0  0  0
   -0.1120   -1.3044   -3.2266 O   0  0  0  1  0  0  0  0  0  0  0  0
   -1.7109    0.2891   -2.9103 N   0  0  0  1  0  0  0  0  0  0  0  0
   -2.2524   -0.0143   -3.6686 H   0  0  0  1  0  0  0  0  0  0  0  0
   -2.0052    1.0541   -2.3731 H   0  0  0  1  0  0  0  0  0  0  0  0
   -0.6263   -0.8220    2.8917 O   0  0  0  1  0  0  0  0  0  0  0  0
  1  2  1  0  0  0  0
  1  3  1  0  0  0  0
  1  4  1  0  0  0  0
  1  5  1  0  0  0  0
  5  6  1  0  0  0  0
  5  7  1  0  0  0  0
  5  9  1  0  0  0  0
  7  8  1  0  0  0  0
  7 20  2  0  0  0  0
  9 10  1  0  0  0  0
  9 11  1  0  0  0  0
  9 12  1  0  0  0  0
 12 13  1  0  0  0  0
 12 14  1  0  0  0  0
 12 15  1  0  0  0  0
 15 16  2  0  0  0  0
 15 17  1  0  0  0  0
 17 18  1  0  0  0  0
 17 19  1  0  0  0  0
M  END
> <ConfClashScore>
0 

> <ConfOneFourInteractionScore>
-0.974514 

> <ConfScore>
0.251736 

> <ConfScorePBest>
0.00624046 

> <ConfTolerance>
0.463795 

$$$$
GLN.****
  PyMOL2.4          3D                             0

 20 19  0  0  0  0  0  0  0  0999 V2000
    1.8428   -0.1942    1.0820 N   0  3  0  1  0  0  0  0  0  0  0  0
    2.3703   -0.2445    1.9884 H   0  0  0  1  0  0  0  0  0  0  0  0
    2.4328    0.2891    0.3603 H   0  0  0  1  0  0  0  0  0  0  0  0
    1.6154   -1.1659    0.7553 H   0  0  0  1  0  0  0  0  0  0  0  0
    0.5799    0.5699    1.2833 C   0  0  0  1  0  0  0  0  0  0  0  0
    0.8206    1.5209    1.7104 H   0  0  0  1  0  0  0  0  0  0  0  0
   -0.3186   -0.1515    2.2280 C   0  0  0  1  0  0  0  0  0  0  0  0
   -0.9814    0.7081    3.0473 O   0  5  0  1  0  0  0  0  0  0  0  0
   -0.0769    0.8075   -0.0668 C   0  0  0  1  0  0  0  0  0  0  0  0
   -1.0489    1.2282    0.0851 H   0  0  0  1  0  0  0  0  0  0  0  0
   -0.1682   -0.1259   -0.5817 H   0  0  0  1  0  0  0  0  0  0  0  0
    0.7533    1.7623   -0.9091 C   0  0  0  1  0  0  0  0  0  0  0  0
    1.7049    1.3108   -1.0977 H   0  0  0  1  0  0  0  0  0  0  0  0
    0.8912    2.6698   -0.3592 H   0  0  0  1  0  0  0  0  0  0  0  0
    0.1109    2.0950   -2.2292 C   0  0  0  1  0  0  0  0  0  0  0  0
    0.6063    2.8852   -3.0157 O   0  0  0  1  0  0  0  0  0  0  0  0
   -1.0868    1.4844   -2.5687 N   0  0  0  1  0  0  0  0  0  0  0  0
   -1.4640    1.6095   -3.4645 H   0  0  0  1  0  0  0  0  0  0  0  0
   -1.5562    0.9277   -1.9128 H   0  0  0  1  0  0  0  0  0  0  0  0
   -0.4519   -1.3634    2.2709 O   0  0  0  1  0  0  0  0  0  0  0  0
  1  2  1  0  0  0  0
  1  3  1  0  0  0  0
  1  4  1  0  0  0  0
  1  5  1  0  0  0  0
  5  6  1  0  0  0  0
  5  7  1  0  0  0  0
  5  9  1  0  0  0  0
  7  8  1  0  0  0  0
  7 20  2  0  0  0  0
  9 10  1  0  0  0  0
  9 11  1  0  0  0  0
  9 12  1  0  0  0  0
 12 13  1  0  0  0  0
 12 14  1  0  0  0  0
 12 15  1  0  0  0  0
 15 16  2  0  0  0  0
 15 17  1  0  0  0  0
 17 18  1  0  0  0  0
 17 19  1  0  0  0  0
M  END
> <ConfClashScore>
0 

> <ConfOneFourInteractionScore>
-0.945489 

> <ConfScore>
0.271868 

> <ConfScorePBest>
0.00613746 

> <ConfTolerance>
0.795846 

$$$$
GLN.****
  PyMOL2.4          3D                             0

 20 19  0  0  0  0  0  0  0  0999 V2000
    1.8639   -0.1647    1.1103 N   0  3  0  1  0  0  0  0  0  0  0  0
    2.4099   -0.0720    2.0024 H   0  0  0  1  0  0  0  0  0  0  0  0
    2.4096    0.2607    0.3205 H   0  0  0  1  0  0  0  0  0  0  0  0
    1.6915   -1.1809    0.9098 H   0  0  0  1  0  0  0  0  0  0  0  0
    0.5508    0.5467    1.2506 C   0  0  0  1  0  0  0  0  0  0  0  0
    0.7384    1.5397    1.6023 H   0  0  0  1  0  0  0  0  0  0  0  0
   -0.3116   -0.1468    2.2483 C   0  0  0  1  0  0  0  0  0  0  0  0
   -1.2090    0.6897    2.8352 O   0  5  0  1  0  0  0  0  0  0  0  0
   -0.1093    0.6408   -0.1115 C   0  0  0  1  0  0  0  0  0  0  0  0
   -1.0425    1.1528   -0.0016 H   0  0  0  1  0  0  0  0  0  0  0  0
   -0.2863   -0.3510   -0.4719 H   0  0  0  1  0  0  0  0  0  0  0  0
    0.7301    1.3840   -1.1379 C   0  0  0  1  0  0  0  0  0  0  0  0
    0.2096    1.3772   -2.0728 H   0  0  0  1  0  0  0  0  0  0  0  0
    1.6651    0.8751   -1.2460 H   0  0  0  1  0  0  0  0  0  0  0  0
    1.0074    2.8301   -0.7478 C   0  0  0  1  0  0  0  0  0  0  0  0
    2.1419    3.2994   -0.7804 O   0  0  0  1  0  0  0  0  0  0  0  0
   -0.0899    3.5089   -0.3774 N   0  0  0  1  0  0  0  0  0  0  0  0
   -0.9671    3.0726   -0.4004 H   0  0  0  1  0  0  0  0  0  0  0  0
   -0.0138    4.4409   -0.0841 H   0  0  0  1  0  0  0  0  0  0  0  0
   -0.2013   -1.3373    2.4912 O   0  0  0  1  0  0  0  0  0  0  0  0
  1  2  1  0  0  0  0
  1  3  1  0  0  0  0
  1  4  1  0  0  0  0
  1  5  1  0  0  0  0
  5  6  1  0  0  0  0
  5  7  1  0  0  0  0
  5  9  1  0  0  0  0
  7  8  1  0  0  0  0
  7 20  2  0  0  0  0
  9 10  1  0  0  0  0
  9 11  1  0  0  0  0
  9 12  1  0  0  0  0
 12 13  1  0  0  0  0
 12 14  1  0  0  0  0
 12 15  1  0  0  0  0
 15 16  2  0  0  0  0
 15 17  1  0  0  0  0
 17 18  1  0  0  0  0
 17 19  1  0  0  0  0
M  END
> <ConfClashScore>
0 

> <ConfOneFourInteractionScore>
-0.974514 

> <ConfScore>
0.274738 

> <ConfScorePBest>
0.00603446 

> <ConfTolerance>
0.846617 

$$$$
GLN.****
  PyMOL2.4          3D                             0

 20 19  0  0  0  0  0  0  0  0999 V2000
    1.8603   -0.1769    1.1205 N   0  3  0  1  0  0  0  0  0  0  0  0
    1.7780   -1.2203    1.2053 H   0  0  0  1  0  0  0  0  0  0  0  0
    2.4187    0.1966    1.9274 H   0  0  0  1  0  0  0  0  0  0  0  0
    2.3424    0.0638    0.2193 H   0  0  0  1  0  0  0  0  0  0  0  0
    0.4840    0.4392    1.1340 C   0  0  0  1  0  0  0  0  0  0  0  0
    0.5958    1.5024    1.1785 H   0  0  0  1  0  0  0  0  0  0  0  0
   -0.2505   -0.0004    2.3536 C   0  0  0  1  0  0  0  0  0  0  0  0
   -1.0618    0.9803    2.8328 O   0  5  0  1  0  0  0  0  0  0  0  0
   -0.1881    0.0928   -0.1806 C   0  0  0  1  0  0  0  0  0  0  0  0
   -0.3428   -0.9654   -0.2141 H   0  0  0  1  0  0  0  0  0  0  0  0
    0.4602    0.3845   -0.9803 H   0  0  0  1  0  0  0  0  0  0  0  0
   -1.5293    0.7822   -0.3717 C   0  0  0  1  0  0  0  0  0  0  0  0
   -1.3376    1.7399   -0.8087 H   0  0  0  1  0  0  0  0  0  0  0  0
   -1.9633    0.9124    0.5976 H   0  0  0  1  0  0  0  0  0  0  0  0
   -2.5586    0.0852   -1.2399 C   0  0  0  1  0  0  0  0  0  0  0  0
   -2.2232   -0.7293   -2.0988 O   0  0  0  1  0  0  0  0  0  0  0  0
   -3.8450    0.4178   -1.0054 N   0  0  0  1  0  0  0  0  0  0  0  0
   -4.0722    0.9886   -0.2419 H   0  0  0  1  0  0  0  0  0  0  0  0
   -4.5522    0.0886   -1.5986 H   0  0  0  1  0  0  0  0  0  0  0  0
   -0.1456   -1.1015    2.8683 O   0  0  0  1  0  0  0  0  0  0  0  0
  1  2  1  0  0  0  0
  1  3  1  0  0  0  0
  1  4  1  0  0  0  0
  1  5  1  0  0  0  0
  5  6  1  0  0  0  0
  5  7  1  0  0  0  0
  5  9  1  0  0  0  0
  7  8  1  0  0  0  0
  7 20  2  0  0  0  0
  9 10  1  0  0  0  0
  9 11  1  0  0  0  0
  9 12  1  0  0  0  0
 12 13  1  0  0  0  0
 12 14  1  0  0  0  0
 12 15  1  0  0  0  0
 15 16  2  0  0  0  0
 15 17  1  0  0  0  0
 17 18  1  0  0  0  0
 17 19  1  0  0  0  0
M  END
> <ConfClashScore>
0 

> <ConfOneFourInteractionScore>
-0.991306 

> <ConfScore>
0.27507 

> <ConfScorePBest>
0.00593146 

> <ConfTolerance>
0.880946 

$$$$
GLN.****
  PyMOL2.4          3D                             0

 20 19  0  0  0  0  0  0  0  0999 V2000
    1.8088   -0.2426    1.0959 N   0  3  0  1  0  0  0  0  0  0  0  0
    1.6461   -1.2315    0.7827 H   0  0  0  1  0  0  0  0  0  0  0  0
    2.2302   -0.2451    2.0576 H   0  0  0  1  0  0  0  0  0  0  0  0
    2.4642    0.2327    0.4273 H   0  0  0  1  0  0  0  0  0  0  0  0
    0.5118    0.4898    1.1243 C   0  0  0  1  0  0  0  0  0  0  0  0
    0.6793    1.5464    1.1447 H   0  0  0  1  0  0  0  0  0  0  0  0
   -0.1930    0.0647    2.3664 C   0  0  0  1  0  0  0  0  0  0  0  0
   -0.3936    1.1112    3.2115 O   0  5  0  1  0  0  0  0  0  0  0  0
   -0.3149    0.1176   -0.1085 C   0  0  0  1  0  0  0  0  0  0  0  0
    0.1487    0.5310   -0.9798 H   0  0  0  1  0  0  0  0  0  0  0  0
   -1.3011    0.5193   -0.0041 H   0  0  0  1  0  0  0  0  0  0  0  0
   -0.4053   -1.3921   -0.2608 C   0  0  0  1  0  0  0  0  0  0  0  0
   -0.6457   -1.8066    0.6959 H   0  0  0  1  0  0  0  0  0  0  0  0
    0.5529   -1.7501   -0.5747 H   0  0  0  1  0  0  0  0  0  0  0  0
   -1.4376   -1.8843   -1.2565 C   0  0  0  1  0  0  0  0  0  0  0  0
   -2.3407   -1.1501   -1.6554 O   0  0  0  1  0  0  0  0  0  0  0  0
   -1.2960   -3.1559   -1.6628 N   0  0  0  1  0  0  0  0  0  0  0  0
   -1.9084   -3.5277   -2.3315 H   0  0  0  1  0  0  0  0  0  0  0  0
   -0.5803   -3.7124   -1.2908 H   0  0  0  1  0  0  0  0  0  0  0  0
   -0.6058   -1.0673    2.5571 O   0  0  0  1  0  0  0  0  0  0  0  0
  1  2  1  0  0  0  0
  1  3  1  0  0  0  0
  1  4  1  0  0  0  0
  1  5  1  0  0  0  0
  5  6  1  0  0  0  0
  5  7  1  0  0  0  0
  5  9  1  0  0  0  0
  7  8  1  0  0  0  0
  7 20  2  0  0  0  0
  9 10  1  0  0  0  0
  9 11  1  0  0  0  0
  9 12  1  0  0  0  0
 12 13  1  0  0  0  0
 12 14  1  0  0  0  0
 12 15  1  0  0  0  0
 15 16  2  0  0  0  0
 15 17  1  0  0  0  0
 17 18  1  0  0  0  0
 17 19  1  0  0  0  0
M  END
> <ConfClashScore>
0 

> <ConfOneFourInteractionScore>
-0.931193 

> <ConfScore>
0.2761 

> <ConfScorePBest>
0.00582846 

> <ConfTolerance>
0.982069 

$$$$
GLN.****
  PyMOL2.4          3D                             0

 20 19  0  0  0  0  0  0  0  0999 V2000
    1.8860   -0.1090    1.1652 N   0  3  0  1  0  0  0  0  0  0  0  0
    2.3022   -0.0466    2.1271 H   0  0  0  1  0  0  0  0  0  0  0  0
    2.4977    0.4068    0.4853 H   0  0  0  1  0  0  0  0  0  0  0  0
    1.8161   -1.1169    0.8790 H   0  0  0  1  0  0  0  0  0  0  0  0
    0.5244    0.5015    1.1710 C   0  0  0  1  0  0  0  0  0  0  0  0
    0.6236    1.5344    1.4320 H   0  0  0  1  0  0  0  0  0  0  0  0
   -0.2806   -0.1583    2.2371 C   0  0  0  1  0  0  0  0  0  0  0  0
   -1.4622    0.4823    2.4442 O   0  5  0  1  0  0  0  0  0  0  0  0
   -0.1408    0.4330   -0.1371 C   0  0  0  1  0  0  0  0  0  0  0  0
    0.4860    0.9536   -0.8306 H   0  0  0  1  0  0  0  0  0  0  0  0
   -1.0717    0.9513   -0.0383 H   0  0  0  1  0  0  0  0  0  0  0  0
   -0.4542   -0.9190   -0.7569 C   0  0  0  1  0  0  0  0  0  0  0  0
    0.4573   -1.4768   -0.8104 H   0  0  0  1  0  0  0  0  0  0  0  0
   -0.8283   -0.7503   -1.7451 H   0  0  0  1  0  0  0  0  0  0  0  0
   -1.4721   -1.7570   -0.0081 C   0  0  0  1  0  0  0  0  0  0  0  0
   -2.6701   -1.5897   -0.1674 O   0  0  0  1  0  0  0  0  0  0  0  0
   -0.9657   -2.6823    0.8301 N   0  0  0  1  0  0  0  0  0  0  0  0
   -1.5662   -3.2925    1.3070 H   0  0  0  1  0  0  0  0  0  0  0  0
    0.0033   -2.7451    0.9629 H   0  0  0  1  0  0  0  0  0  0  0  0
    0.0666   -1.1512    2.8552 O   0  0  0  1  0  0  0  0  0  0  0  0
  1  2  1  0  0  0  0
  1  3  1  0  0  0  0
  1  4  1  0  0  0  0
  1  5  1  0  0  0  0
  5  6  1  0  0  0  0
  5  7  1  0  0  0  0
  5  9  1  0  0  0  0
  7  8  1  0  0  0  0
  7 20  2  0  0  0  0
  9 10  1  0  0  0  0
  9 11  1  0  0  0  0
  9 12  1  0  0  0  0
 12 13  1  0  0  0  0
 12 14  1  0  0  0  0
 12 15  1  0  0  0  0
 15 16  2  0  0  0  0
 15 17  1  0  0  0  0
 17 18  1  0  0  0  0
 17 19  1  0  0  0  0
M  END
> <ConfClashScore>
0 

> <ConfOneFourInteractionScore>
-0.997128 

> <ConfScore>
0.296876 

> <ConfScorePBest>
0.00572546 

> <ConfTolerance>
0.898921 

$$$$
GLN.****
  PyMOL2.4          3D                             0

 20 19  0  0  0  0  0  0  0  0999 V2000
    1.8985   -0.0743    1.1726 N   0  3  0  1  0  0  0  0  0  0  0  0
    1.9475   -1.1164    1.2917 H   0  0  0  1  0  0  0  0  0  0  0  0
    2.3605    0.3934    1.9912 H   0  0  0  1  0  0  0  0  0  0  0  0
    2.3923    0.2001    0.2875 H   0  0  0  1  0  0  0  0  0  0  0  0
    0.4727    0.3511    1.0977 C   0  0  0  1  0  0  0  0  0  0  0  0
    0.4395    1.4120    0.9620 H   0  0  0  1  0  0  0  0  0  0  0  0
   -0.2351    0.0209    2.3666 C   0  0  0  1  0  0  0  0  0  0  0  0
   -1.5468    0.3530    2.2298 O   0  5  0  1  0  0  0  0  0  0  0  0
   -0.1727   -0.2981   -0.1014 C   0  0  0  1  0  0  0  0  0  0  0  0
    0.2922    0.0973   -0.9803 H   0  0  0  1  0  0  0  0  0  0  0  0
   -1.2105   -0.0378   -0.0984 H   0  0  0  1  0  0  0  0  0  0  0  0
   -0.0700   -1.8166   -0.1593 C   0  0  0  1  0  0  0  0  0  0  0  0
    0.9626   -2.0737   -0.2713 H   0  0  0  1  0  0  0  0  0  0  0  0
   -0.6165   -2.1520   -1.0159 H   0  0  0  1  0  0  0  0  0  0  0  0
   -0.6015   -2.5450    1.0444 C   0  0  0  1  0  0  0  0  0  0  0  0
    0.1596   -2.9630    1.9160 O   0  0  0  1  0  0  0  0  0  0  0  0
   -1.9286   -2.7246    1.1384 N   0  0  0  1  0  0  0  0  0  0  0  0
   -2.3054   -3.2003    1.9079 H   0  0  0  1  0  0  0  0  0  0  0  0
   -2.5205   -2.3800    0.4374 H   0  0  0  1  0  0  0  0  0  0  0  0
    0.2766   -0.4657    3.3614 O   0  0  0  1  0  0  0  0  0  0  0  0
  1  2  1  0  0  0  0
  1  3  1  0  0  0  0
  1  4  1  0  0  0  0
  1  5  1  0  0  0  0
  5  6  1  0  0  0  0
  5  7  1  0  0  0  0
  5  9  1  0  0  0  0
  7  8  1  0  0  0  0
  7 20  2  0  0  0  0
  9 10  1  0  0  0  0
  9 11  1  0  0  0  0
  9 12  1  0  0  0  0
 12 13  1  0  0  0  0
 12 14  1  0  0  0  0
 12 15  1  0  0  0  0
 15 16  2  0  0  0  0
 15 17  1  0  0  0  0
 17 18  1  0  0  0  0
 17 19  1  0  0  0  0
M  END
> <ConfClashScore>
0 

> <ConfOneFourInteractionScore>
-0.90613 

> <ConfScore>
0.304963 

> <ConfScorePBest>
0.00562246 

> <ConfTolerance>
0.992249 

$$$$
GLN.****
  PyMOL2.4          3D                             0

 20 19  0  0  0  0  0  0  0  0999 V2000
    1.7976   -0.2550    1.0816 N   0  3  0  1  0  0  0  0  0  0  0  0
    1.5857   -1.2776    0.9723 H   0  0  0  1  0  0  0  0  0  0  0  0
    2.3372   -0.1025    1.9693 H   0  0  0  1  0  0  0  0  0  0  0  0
    2.3684    0.0732    0.2637 H   0  0  0  1  0  0  0  0  0  0  0  0
    0.5227    0.5138    1.1375 C   0  0  0  1  0  0  0  0  0  0  0  0
    0.7434    1.5525    1.2689 H   0  0  0  1  0  0  0  0  0  0  0  0
   -0.2365    0.0312    2.3252 C   0  0  0  1  0  0  0  0  0  0  0  0
   -0.1964    0.9285    3.3464 O   0  5  0  1  0  0  0  0  0  0  0  0
   -0.2634    0.3472   -0.0923 C   0  0  0  1  0  0  0  0  0  0  0  0
   -1.2072    0.8221    0.0771 H   0  0  0  1  0  0  0  0  0  0  0  0
   -0.4114   -0.7042   -0.2249 H   0  0  0  1  0  0  0  0  0  0  0  0
    0.2705    0.8869   -1.4127 C   0  0  0  1  0  0  0  0  0  0  0  0
   -0.5051    0.8197   -2.1467 H   0  0  0  1  0  0  0  0  0  0  0  0
    1.1018    0.2850   -1.7154 H   0  0  0  1  0  0  0  0  0  0  0  0
    0.7235    2.3197   -1.3240 C   0  0  0  1  0  0  0  0  0  0  0  0
    0.0558    3.2154   -0.8426 O   0  0  0  1  0  0  0  0  0  0  0  0
    1.9769    2.5879   -1.8311 N   0  0  0  1  0  0  0  0  0  0  0  0
    2.3377    3.4981   -1.7899 H   0  0  0  1  0  0  0  0  0  0  0  0
    2.5072    1.8683   -2.2328 H   0  0  0  1  0  0  0  0  0  0  0  0
   -0.8256   -1.0354    2.3863 O   0  0  0  1  0  0  0  0  0  0  0  0
  1  2  1  0  0  0  0
  1  3  1  0  0  0  0
  1  4  1  0  0  0  0
  1  5  1  0  0  0  0
  5  6  1  0  0  0  0
  5  7  1  0  0  0  0
  5  9  1  0  0  0  0
  7  8  1  0  0  0  0
  7 20  2  0  0  0  0
  9 10  1  0  0  0  0
  9 11  1  0  0  0  0
  9 12  1  0  0  0  0
 12 13  1  0  0  0  0
 12 14  1  0  0  0  0
 12 15  1  0  0  0  0
 15 16  2  0  0  0  0
 15 17  1  0  0  0  0
 17 18  1  0  0  0  0
 17 19  1  0  0  0  0
M  END
> <ConfClashScore>
0 

> <ConfOneFourInteractionScore>
-1 

> <ConfScore>
0.315179 

> <ConfScorePBest>
0.00551946 

> <ConfTolerance>
0.493826 

$$$$
GLN.****
  PyMOL2.4          3D                             0

 20 19  0  0  0  0  0  0  0  0999 V2000
    1.8460   -0.1613    1.1330 N   0  3  0  1  0  0  0  0  0  0  0  0
    2.3279   -0.0995    2.0639 H   0  0  0  1  0  0  0  0  0  0  0  0
    2.4480    0.2846    0.3973 H   0  0  0  1  0  0  0  0  0  0  0  0
    1.6837   -1.1696    0.8894 H   0  0  0  1  0  0  0  0  0  0  0  0
    0.5384    0.5492    1.2019 C   0  0  0  1  0  0  0  0  0  0  0  0
    0.7212    1.5367    1.5711 H   0  0  0  1  0  0  0  0  0  0  0  0
   -0.2744   -0.1655    2.2260 C   0  0  0  1  0  0  0  0  0  0  0  0
   -1.1612    0.6667    2.8348 O   0  5  0  1  0  0  0  0  0  0  0  0
   -0.1297    0.6852   -0.1528 C   0  0  0  1  0  0  0  0  0  0  0  0
    0.5938    1.0137   -0.8694 H   0  0  0  1  0  0  0  0  0  0  0  0
   -0.9176    1.4060   -0.0846 H   0  0  0  1  0  0  0  0  0  0  0  0
   -0.7092   -0.6456   -0.6038 C   0  0  0  1  0  0  0  0  0  0  0  0
   -1.2237   -0.4853   -1.5282 H   0  0  0  1  0  0  0  0  0  0  0  0
   -1.4054   -0.9717    0.1405 H   0  0  0  1  0  0  0  0  0  0  0  0
    0.3104   -1.7655   -0.8191 C   0  0  0  1  0  0  0  0  0  0  0  0
    0.4088   -2.6870   -0.0099 O   0  0  0  1  0  0  0  0  0  0  0  0
    0.9939   -1.6907   -1.9799 N   0  0  0  1  0  0  0  0  0  0  0  0
    1.6376   -2.3912   -2.2156 H   0  0  0  1  0  0  0  0  0  0  0  0
    0.8468   -0.9360   -2.5875 H   0  0  0  1  0  0  0  0  0  0  0  0
   -0.1669   -1.3507    2.4944 O   0  0  0  1  0  0  0  0  0  0  0  0
  1  2  1  0  0  0  0
  1  3  1  0  0  0  0
  1  4  1  0  0  0  0
  1  5  1  0  0  0  0
  5  6  1  0  0  0  0
  5  7  1  0  0  0  0
  5  9  1  0  0  0  0
  7  8  1  0  0  0  0
  7 20  2  0  0  0  0
  9 10  1  0  0  0  0
  9 11  1  0  0  0  0
  9 12  1  0  0  0  0
 12 13  1  0  0  0  0
 12 14  1  0  0  0  0
 12 15  1  0  0  0  0
 15 16  2  0  0  0  0
 15 17  1  0  0  0  0
 17 18  1  0  0  0  0
 17 19  1  0  0  0  0
M  END
> <ConfClashScore>
0 

> <ConfOneFourInteractionScore>
-0.971642 

> <ConfScore>
0.317826 

> <ConfScorePBest>
0.00541646 

> <ConfTolerance>
0.908984 

$$$$
GLN.****
  PyMOL2.4          3D                             0

 20 19  0  0  0  0  0  0  0  0999 V2000
    1.9017   -0.0510    1.1795 N   0  3  0  1  0  0  0  0  0  0  0  0
    1.9569   -1.0688    1.4319 H   0  0  0  1  0  0  0  0  0  0  0  0
    2.3900    0.5185    1.9142 H   0  0  0  1  0  0  0  0  0  0  0  0
    2.3649    0.1045    0.2502 H   0  0  0  1  0  0  0  0  0  0  0  0
    0.4693    0.3654    1.0975 C   0  0  0  1  0  0  0  0  0  0  0  0
    0.4292    1.4291    0.9882 H   0  0  0  1  0  0  0  0  0  0  0  0
   -0.2510   -0.0026    2.3489 C   0  0  0  1  0  0  0  0  0  0  0  0
   -1.6017    0.0942    2.2227 O   0  5  0  1  0  0  0  0  0  0  0  0
   -0.1610   -0.2639   -0.1354 C   0  0  0  1  0  0  0  0  0  0  0  0
   -1.2200   -0.3088    0.0104 H   0  0  0  1  0  0  0  0  0  0  0  0
    0.2267   -1.2550   -0.2462 H   0  0  0  1  0  0  0  0  0  0  0  0
    0.1170    0.5082   -1.4149 C   0  0  0  1  0  0  0  0  0  0  0  0
   -0.2061   -0.0828   -2.2463 H   0  0  0  1  0  0  0  0  0  0  0  0
    1.1707    0.6800   -1.4869 H   0  0  0  1  0  0  0  0  0  0  0  0
   -0.5891    1.8351   -1.4676 C   0  0  0  1  0  0  0  0  0  0  0  0
   -1.7944    1.9181   -1.2352 O   0  0  0  1  0  0  0  0  0  0  0  0
    0.1380    2.9287   -1.7766 N   0  0  0  1  0  0  0  0  0  0  0  0
   -0.2958    3.8057   -1.8330 H   0  0  0  1  0  0  0  0  0  0  0  0
    1.1000    2.8461   -1.9447 H   0  0  0  1  0  0  0  0  0  0  0  0
    0.3346   -0.3494    3.3614 O   0  0  0  1  0  0  0  0  0  0  0  0
  1  2  1  0  0  0  0
  1  3  1  0  0  0  0
  1  4  1  0  0  0  0
  1  5  1  0  0  0  0
  5  6  1  0  0  0  0
  5  7  1  0  0  0  0
  5  9  1  0  0  0  0
  7  8  1  0  0  0  0
  7 20  2  0  0  0  0
  9 10  1  0  0  0  0
  9 11  1  0  0  0  0
  9 12  1  0  0  0  0
 12 13  1  0  0  0  0
 12 14  1  0  0  0  0
 12 15  1  0  0  0  0
 15 16  2  0  0  0  0
 15 17  1  0  0  0  0
 17 18  1  0  0  0  0
 17 19  1  0  0  0  0
M  END
> <ConfClashScore>
0 

> <ConfOneFourInteractionScore>
-1 

> <ConfScore>
0.338108 

> <ConfScorePBest>
0.00531345 

> <ConfTolerance>
0.381675 

$$$$
GLN.****
  PyMOL2.4          3D                             0

 20 19  0  0  0  0  0  0  0  0999 V2000
    1.7808   -0.2403    1.0663 N   0  3  0  1  0  0  0  0  0  0  0  0
    2.1576   -0.5828    1.9846 H   0  0  0  1  0  0  0  0  0  0  0  0
    2.5288    0.2942    0.5589 H   0  0  0  1  0  0  0  0  0  0  0  0
    1.4798   -1.0605    0.4839 H   0  0  0  1  0  0  0  0  0  0  0  0
    0.6113    0.6519    1.3098 C   0  0  0  1  0  0  0  0  0  0  0  0
    0.9349    1.5428    1.8062 H   0  0  0  1  0  0  0  0  0  0  0  0
   -0.3553   -0.0721    2.1826 C   0  0  0  1  0  0  0  0  0  0  0  0
    0.2371   -0.5289    3.3184 O   0  5  0  1  0  0  0  0  0  0  0  0
   -0.0068    1.0127    0.0269 C   0  0  0  1  0  0  0  0  0  0  0  0
   -0.9749    1.4098    0.2506 H   0  0  0  1  0  0  0  0  0  0  0  0
   -0.1130    0.1061   -0.5313 H   0  0  0  1  0  0  0  0  0  0  0  0
    0.6798    2.0166   -0.8900 C   0  0  0  1  0  0  0  0  0  0  0  0
    0.6893    2.9701   -0.4046 H   0  0  0  1  0  0  0  0  0  0  0  0
    0.1210    2.0845   -1.7999 H   0  0  0  1  0  0  0  0  0  0  0  0
    2.1073    1.6328   -1.2278 C   0  0  0  1  0  0  0  0  0  0  0  0
    2.3647    0.5792   -1.8041 O   0  0  0  1  0  0  0  0  0  0  0  0
    3.0510    2.5128   -0.8575 N   0  0  0  1  0  0  0  0  0  0  0  0
    3.9922    2.3401   -1.0691 H   0  0  0  1  0  0  0  0  0  0  0  0
    2.7987    3.3281   -0.3757 H   0  0  0  1  0  0  0  0  0  0  0  0
   -1.5350   -0.2409    1.9215 O   0  0  0  1  0  0  0  0  0  0  0  0
  1  2  1  0  0  0  0
  1  3  1  0  0  0  0
  1  4  1  0  0  0  0
  1  5  1  0  0  0  0
  5  6  1  0  0  0  0
  5  7  1  0  0  0  0
  5  9  1  0  0  0  0
  7  8  1  0  0  0  0
  7 20  2  0  0  0  0
  9 10  1  0  0  0  0
  9 11  1  0  0  0  0
  9 12  1  0  0  0  0
 12 13  1  0  0  0  0
 12 14  1  0  0  0  0
 12 15  1  0  0  0  0
 15 16  2  0  0  0  0
 15 17  1  0  0  0  0
 17 18  1  0  0  0  0
 17 19  1  0  0  0  0
M  END
> <ConfClashScore>
0 

> <ConfOneFourInteractionScore>
-1 

> <ConfScore>
0.362794 

> <ConfScorePBest>
0.00521045 

> <ConfTolerance>
0.981997 

$$$$
GLN.****
  PyMOL2.4          3D                             0

 20 19  0  0  0  0  0  0  0  0999 V2000
    1.9044   -0.0570    1.1893 N   0  3  0  1  0  0  0  0  0  0  0  0
    2.3011    0.0542    2.1551 H   0  0  0  1  0  0  0  0  0  0  0  0
    2.4857    0.4902    0.5072 H   0  0  0  1  0  0  0  0  0  0  0  0
    1.9137   -1.0724    0.9221 H   0  0  0  1  0  0  0  0  0  0  0  0
    0.5036    0.4496    1.1657 C   0  0  0  1  0  0  0  0  0  0  0  0
    0.5352    1.5082    1.3183 H   0  0  0  1  0  0  0  0  0  0  0  0
   -0.2974   -0.1400    2.2752 C   0  0  0  1  0  0  0  0  0  0  0  0
   -1.6267    0.1216    2.1570 O   0  5  0  1  0  0  0  0  0  0  0  0
   -0.0987    0.2044   -0.2092 C   0  0  0  1  0  0  0  0  0  0  0  0
   -1.0291    0.7294   -0.2706 H   0  0  0  1  0  0  0  0  0  0  0  0
   -0.2730   -0.8454   -0.3210 H   0  0  0  1  0  0  0  0  0  0  0  0
    0.7929    0.6690   -1.3492 C   0  0  0  1  0  0  0  0  0  0  0  0
    1.2551    1.5875   -1.0534 H   0  0  0  1  0  0  0  0  0  0  0  0
    0.1729    0.8403   -2.2043 H   0  0  0  1  0  0  0  0  0  0  0  0
    1.8803   -0.2900   -1.7491 C   0  0  0  1  0  0  0  0  0  0  0  0
    3.0231   -0.1667   -1.3105 O   0  0  0  1  0  0  0  0  0  0  0  0
    1.5663   -1.2821   -2.5972 N   0  0  0  1  0  0  0  0  0  0  0  0
    2.2526   -1.9235   -2.8766 H   0  0  0  1  0  0  0  0  0  0  0  0
    0.6509   -1.3650   -2.9370 H   0  0  0  1  0  0  0  0  0  0  0  0
    0.2122   -0.7829    3.1783 O   0  0  0  1  0  0  0  0  0  0  0  0
  1  2  1  0  0  0  0
  1  3  1  0  0  0  0
  1  4  1  0  0  0  0
  1  5  1  0  0  0  0
  5  6  1  0  0  0  0
  5  7  1  0  0  0  0
  5  9  1  0  0  0  0
  7  8  1  0  0  0  0
  7 20  2  0  0  0  0
  9 10  1  0  0  0  0
  9 11  1  0  0  0  0
  9 12  1  0  0  0  0
 12 13  1  0  0  0  0
 12 14  1  0  0  0  0
 12 15  1  0  0  0  0
 15 16  2  0  0  0  0
 15 17  1  0  0  0  0
 17 18  1  0  0  0  0
 17 19  1  0  0  0  0
M  END
> <ConfClashScore>
0 

> <ConfOneFourInteractionScore>
-0.961874 

> <ConfScore>
0.383923 

> <ConfScorePBest>
0.00510745 

> <ConfTolerance>
0.959561 

$$$$
GLN.****
  PyMOL2.4          3D                             0

 20 19  0  0  0  0  0  0  0  0999 V2000
    1.7711   -0.3017    1.0754 N   0  3  0  1  0  0  0  0  0  0  0  0
    2.3162   -0.0364    0.2181 H   0  0  0  1  0  0  0  0  0  0  0  0
    1.5762   -1.3334    1.0605 H   0  0  0  1  0  0  0  0  0  0  0  0
    2.3288   -0.0627    1.9324 H   0  0  0  1  0  0  0  0  0  0  0  0
    0.4830    0.4464    1.0970 C   0  0  0  1  0  0  0  0  0  0  0  0
    0.6941    1.4908    0.9991 H   0  0  0  1  0  0  0  0  0  0  0  0
   -0.1982    0.2331    2.4049 C   0  0  0  1  0  0  0  0  0  0  0  0
    0.6700    0.2250    3.4516 O   0  5  0  1  0  0  0  0  0  0  0  0
   -0.4024    0.0299   -0.0756 C   0  0  0  1  0  0  0  0  0  0  0  0
   -1.2847    0.6352   -0.0815 H   0  0  0  1  0  0  0  0  0  0  0  0
   -0.6754   -0.9984    0.0389 H   0  0  0  1  0  0  0  0  0  0  0  0
    0.3321    0.2066   -1.3946 C   0  0  0  1  0  0  0  0  0  0  0  0
    1.2258   -0.3812   -1.3682 H   0  0  0  1  0  0  0  0  0  0  0  0
    0.5873    1.2397   -1.5065 H   0  0  0  1  0  0  0  0  0  0  0  0
   -0.4909   -0.2200   -2.5946 C   0  0  0  1  0  0  0  0  0  0  0  0
   -0.1226   -1.1364   -3.3282 O   0  0  0  1  0  0  0  0  0  0  0  0
   -1.6294    0.4631   -2.7935 N   0  0  0  1  0  0  0  0  0  0  0  0
   -2.1954    0.2574   -3.5666 H   0  0  0  1  0  0  0  0  0  0  0  0
   -1.8943    1.1673   -2.1656 H   0  0  0  1  0  0  0  0  0  0  0  0
   -1.4058    0.0849    2.4956 O   0  0  0  1  0  0  0  0  0  0  0  0
  1  2  1  0  0  0  0
  1  3  1  0  0  0  0
  1  4  1  0  0  0  0
  1  5  1  0  0  0  0
  5  6  1  0  0  0  0
  5  7  1  0  0  0  0
  5  9  1  0  0  0  0
  7  8  1  0  0  0  0
  7 20  2  0  0  0  0
  9 10  1  0  0  0  0
  9 11  1  0  0  0  0
  9 12  1  0  0  0  0
 12 13  1  0  0  0  0
 12 14  1  0  0  0  0
 12 15  1  0  0  0  0
 15 16  2  0  0  0  0
 15 17  1  0  0  0  0
 17 18  1  0  0  0  0
 17 19  1  0  0  0  0
M  END
> <ConfClashScore>
0 

> <ConfOneFourInteractionScore>
-0.974514 

> <ConfScore>
0.388236 

> <ConfScorePBest>
0.00500445 

> <ConfTolerance>
1.20006 

$$$$
GLN.****
  PyMOL2.4          3D                             0

 20 19  0  0  0  0  0  0  0  0999 V2000
    1.8351   -0.2221    1.1442 N   0  3  0  1  0  0  0  0  0  0  0  0
    2.3522   -0.0546    0.2458 H   0  0  0  1  0  0  0  0  0  0  0  0
    1.7976   -1.2531    1.3392 H   0  0  0  1  0  0  0  0  0  0  0  0
    2.3323    0.2654    1.9301 H   0  0  0  1  0  0  0  0  0  0  0  0
    0.4491    0.3115    1.0270 C   0  0  0  1  0  0  0  0  0  0  0  0
    0.5000    1.3469    0.7619 H   0  0  0  1  0  0  0  0  0  0  0  0
   -0.1623    0.2052    2.3817 C   0  0  0  1  0  0  0  0  0  0  0  0
   -0.6725    1.3952    2.7979 O   0  5  0  1  0  0  0  0  0  0  0  0
   -0.3924   -0.4009   -0.0144 C   0  0  0  1  0  0  0  0  0  0  0  0
   -0.6054   -1.3882    0.3390 H   0  0  0  1  0  0  0  0  0  0  0  0
    0.1704   -0.4603   -0.9225 H   0  0  0  1  0  0  0  0  0  0  0  0
   -1.7086    0.3003   -0.3080 C   0  0  0  1  0  0  0  0  0  0  0  0
   -2.2628    0.3801    0.6038 H   0  0  0  1  0  0  0  0  0  0  0  0
   -2.2595   -0.2898   -1.0103 H   0  0  0  1  0  0  0  0  0  0  0  0
   -1.5252    1.6906   -0.8847 C   0  0  0  1  0  0  0  0  0  0  0  0
   -2.0339    2.6754   -0.3508 O   0  0  0  1  0  0  0  0  0  0  0  0
   -0.7811    1.7661   -1.9995 N   0  0  0  1  0  0  0  0  0  0  0  0
   -0.3782    0.9557   -2.3755 H   0  0  0  1  0  0  0  0  0  0  0  0
   -0.6408    2.6316   -2.4372 H   0  0  0  1  0  0  0  0  0  0  0  0
   -0.2060   -0.8174    3.0455 O   0  0  0  1  0  0  0  0  0  0  0  0
  1  2  1  0  0  0  0
  1  3  1  0  0  0  0
  1  4  1  0  0  0  0
  1  5  1  0  0  0  0
  5  6  1  0  0  0  0
  5  7  1  0  0  0  0
  5  9  1  0  0  0  0
  7  8  1  0  0  0  0
  7 20  2  0  0  0  0
  9 10  1  0  0  0  0
  9 11  1  0  0  0  0
  9 12  1  0  0  0  0
 12 13  1  0  0  0  0
 12 14  1  0  0  0  0
 12 15  1  0  0  0  0
 15 16  2  0  0  0  0
 15 17  1  0  0  0  0
 17 18  1  0  0  0  0
 17 19  1  0  0  0  0
M  END
> <ConfClashScore>
0 

> <ConfOneFourInteractionScore>
-0.974514 

> <ConfScore>
0.398864 

> <ConfScorePBest>
0.00490145 

> <ConfTolerance>
1.34907 

$$$$
