# created with PyMOL 2.5.2
@<TRIPOS>MOLECULE
ChEBI.****
43 45 1                 
SMALL
USER_CHARGES
@<TRIPOS>ATOM
1	   N	2.035	1.220	0.583	N.pl3	1	UNK0	0.000	
2	   C	2.375	-0.066	0.759	C.3	1	UNK0	0.000	
3	   H	2.592	-0.112	-0.309	 H	1	UNK0	0.000	
4	   C	1.304	1.319	0.730	C.2	1	UNK0	0.000	
5	   C	2.396	1.837	0.814	C.2	1	UNK0	0.000	
6	   H	3.460	2.011	0.745	 H	1	UNK0	0.000	
7	   C	2.544	-0.645	1.186	C.3	1	UNK0	0.000	
8	   H	3.070	-0.062	1.942	 H	1	UNK0	0.000	
9	   O	1.613	0.001	0.740	O.3	1	UNK0	0.000	
10	   C	1.222	1.991	1.048	C.2	1	UNK0	0.000	
11	   N	0.699	0.878	0.614	N.2	1	UNK0	0.000	
12	   N	1.900	2.304	1.096	N.2	1	UNK0	0.000	
13	   C	1.891	-0.946	1.440	C.3	1	UNK0	0.000	
14	   H	1.966	-0.359	2.356	 H	1	UNK0	0.000	
15	   O	3.112	-1.069	0.941	O.3	1	UNK0	0.000	
16	   H	3.349	-1.674	1.648	 H	1	UNK0	0.000	
17	   C	1.319	-0.543	1.162	C.3	1	UNK0	0.000	
18	   H	1.226	-1.097	0.228	 H	1	UNK0	0.000	
19	   C	0.536	2.235	1.255	C.2	1	UNK0	0.000	
20	   C	0.026	1.146	0.829	C.2	1	UNK0	0.000	
21	   H	-0.844	0.527	0.668	 H	1	UNK0	0.000	
22	   O	1.961	-1.688	1.494	O.3	1	UNK0	0.000	
23	   C	0.694	-0.369	1.532	C.3	1	UNK0	0.000	
24	   H	0.056	-0.382	0.649	 H	1	UNK0	0.000	
25	   H	0.997	0.656	1.747	 H	1	UNK0	0.000	
26	   N	-0.070	1.795	1.139	N.2	1	UNK0	0.000	
27	   N	0.453	2.908	1.573	N.pl3	1	UNK0	0.000	
28	   H	-0.464	3.229	1.847	 H	1	UNK0	0.000	
29	   H	1.260	3.495	1.728	 H	1	UNK0	0.000	
30	   P	2.447	-2.257	1.518	P.3	1	UNK0	0.000	
31	   O	0.313	-0.821	1.997	O.3	1	UNK0	0.000	
32	   O	2.736	-2.873	1.200	O.co2	1	UNK0	0.000	
33	   O	2.808	-1.631	1.714	O.co2	1	UNK0	0.000	
34	   O	1.970	-2.506	2.044	O.co2	1	UNK0	0.000	
35	   P	-0.221	-0.721	2.511	P.3	1	UNK0	0.000	
36	   O	-0.755	-0.998	2.962	O.3	1	UNK0	0.000	
37	   O	0.290	-0.710	3.058	O.co2	1	UNK0	0.000	
38	   O	-0.315	-0.010	2.285	O.co2	1	UNK0	0.000	
39	   S	-1.340	-0.660	3.282	S.3	1	UNK0	0.000	
40	   O	-1.117	-0.908	3.952	O.3	1	UNK0	0.000	
41	   H	-1.328	-1.843	4.000	 H	1	UNK0	0.000	
42	   O	-1.835	-0.828	2.741	O.2	1	UNK0	0.000	
43	   O	-1.251	0.079	3.178	O.2	1	UNK0	0.000	
@<TRIPOS>BOND
1 1 2 1
2 1 4 1
3 1 5 1
4 2 3 1
5 2 7 1
6 2 9 1
7 5 6 1
8 5 12 2
9 7 8 1
10 7 13 1
11 7 15 1
12 9 17 1
13 10 12 1
14 13 14 1
15 13 17 1
16 13 22 1
17 15 16 1
18 17 18 1
19 17 23 1
20 19 27 1
21 20 21 1
22 22 30 1
23 23 24 1
24 23 25 1
25 23 31 1
26 27 28 1
27 27 29 1
28 31 35 1
29 35 36 1
30 36 39 1
31 39 40 1
32 39 42 2
33 39 43 2
34 40 41 1
35 19 26 2
36 11 20 2
37 4 10 2
38 30 34 2
39 35 38 2
40 35 37 1
41 20 26 1
42 10 19 1
43 4 11 1
44 30 33 1
45 30 32 1
@<TRIPOS>SUBSTRUCTURE
1	UNK0	1	GROUP	1 ****	UNK
