# created with PyMOL 2.5.2
@<TRIPOS>MOLECULE
7NA
25 26 1                 
SMALL
USER_CHARGES
@<TRIPOS>ATOM
1	 C1B	2.353	2.924	0.043	C.3	1	L010	0.000	
2	 O1C	-2.398	-2.182	1.120	O.3	1	L010	0.000	
3	 O1D	-2.367	-2.090	-1.099	O.co2	1	L010	0.000	
4	 O1E	-3.733	0.780	-0.011	O.3	1	L010	0.000	
5	 C1F	-1.833	2.213	0.017	C.2	1	L010	0.000	
6	 C1G	-0.489	2.412	0.025	C.2	1	L010	0.000	
7	 C1H	2.632	0.455	0.006	C.2	1	L010	0.000	
8	 C1I	0.773	-1.081	-0.023	C.2	1	L010	0.000	
9	 O1J	2.993	-1.901	-0.027	O.3	1	L010	0.000	
10	 C1K	-2.132	-1.545	-0.038	C.2	1	L010	0.000	
11	 C1L	1.793	1.525	0.020	C.2	1	L010	0.000	
12	 C1M	2.132	-0.850	-0.014	C.2	1	L010	0.000	
13	 C1N	-2.386	0.932	-0.003	C.2	1	L010	0.000	
14	 C1O	-1.559	-0.194	-0.018	C.2	1	L010	0.000	
15	 C1P	0.402	1.324	0.012	C.2	1	L010	0.000	
16	 C1Q	-0.109	0.004	-0.010	C.2	1	L010	0.000	
17	 H1B	2.492	3.277	-0.979	 H	1	L010	0.000	
18	H1BA	1.661	3.584	0.564	 H	1	L010	0.000	
19	H1BB	3.313	2.922	0.560	 H	1	L010	0.000	
20	HO1C	-2.775	-3.071	1.056	 H	1	L010	0.000	
21	HO1E	-4.120	0.748	-0.896	 H	1	L010	0.000	
22	 H1F	-2.491	3.069	0.033	 H	1	L010	0.000	
23	 H1G	-0.100	3.419	0.041	 H	1	L010	0.000	
24	 H1H	3.700	0.615	0.013	 H	1	L010	0.000	
25	 H1I	0.392	-2.092	-0.039	 H	1	L010	0.000	
@<TRIPOS>BOND
1 1 11 1
2 1 17 1
3 1 18 1
4 1 19 1
5 2 10 1
6 2 20 1
7 3 10 2
8 4 13 1
9 4 21 1
10 5 13 2
11 5 6 1
12 5 22 1
13 6 15 2
14 6 23 1
15 7 11 2
16 7 12 1
17 7 24 1
18 8 16 1
19 8 12 2
20 8 25 1
21 9 12 1
22 10 14 1
23 11 15 1
24 13 14 1
25 14 16 2
26 15 16 1
@<TRIPOS>SUBSTRUCTURE
1	L010	1	GROUP	1 ****	L01
