# created with PyMOL 2.4.0
@<TRIPOS>MOLECULE
7NA.****
25 26 1                 
SMALL
USER_CHARGES
@<TRIPOS>ATOM
1	   C	0.402	1.324	0.012	C.2	1	UNK0	0.000	
2	   C	2.353	2.924	0.043	C.3	1	UNK0	0.000	
3	   C	-1.833	2.213	0.017	C.2	1	UNK0	0.000	
4	   C	-0.489	2.412	0.025	C.2	1	UNK0	0.000	
5	   C	2.632	0.455	0.006	C.2	1	UNK0	0.000	
6	   C	0.773	-1.081	-0.023	C.2	1	UNK0	0.000	
7	   C	-2.132	-1.545	-0.038	C.2	1	UNK0	0.000	
8	   C	1.793	1.525	0.020	C.2	1	UNK0	0.000	
9	   C	2.132	-0.850	-0.014	C.2	1	UNK0	0.000	
10	   C	-2.386	0.932	-0.003	C.2	1	UNK0	0.000	
11	   C	-1.559	-0.194	-0.018	C.2	1	UNK0	0.000	
12	   C	-0.109	0.004	-0.010	C.2	1	UNK0	0.000	
13	   O	-2.398	-2.182	1.120	O.co2	1	UNK0	0.000	
14	   O	-2.367	-2.090	-1.099	O.co2	1	UNK0	0.000	
15	   O	-3.733	0.780	-0.011	O.3	1	UNK0	0.000	
16	   O	2.993	-1.901	-0.027	O.3	1	UNK0	0.000	
17	   H	-4.038	-0.130	-0.027	 H	1	UNK0	0.000	
18	   H	-2.491	3.069	0.026	 H	1	UNK0	0.000	
19	   H	-0.100	3.419	0.042	 H	1	UNK0	0.000	
20	   H	3.700	0.616	0.010	 H	1	UNK0	0.000	
21	   H	0.393	-2.092	-0.040	 H	1	UNK0	0.000	
22	   H	2.577	-2.766	-0.042	 H	1	UNK0	0.000	
23	   H	3.442	2.879	0.046	 H	1	UNK0	0.000	
24	   H	2.008	3.439	0.940	 H	1	UNK0	0.000	
25	   H	2.014	3.466	-0.840	 H	1	UNK0	0.000	
@<TRIPOS>BOND
1 1 4 ar
2 1 8 ar
3 1 12 ar
4 2 8 1
5 2 23 1
6 2 24 1
7 2 25 1
8 3 4 ar
9 3 10 ar
10 3 18 1
11 4 19 1
12 5 8 ar
13 5 9 ar
14 5 20 1
15 6 9 ar
16 6 12 ar
17 6 21 1
18 7 11 1
19 7 13 ar
20 7 14 ar
21 9 16 1
22 10 11 ar
23 10 15 1
24 11 12 ar
25 15 17 1
26 16 22 1
@<TRIPOS>SUBSTRUCTURE
1	UNK0	1	GROUP	1 ****	UNK
