# created with PyMOL 2.5.2
@<TRIPOS>MOLECULE
L02
61 64 1                 
SMALL
USER_CHARGES
@<TRIPOS>ATOM
1	   C	15.209	-2.433	0.000	C.3	1	UNK0	0.000	
2	   O	14.400	-1.846	0.000	O.3	1	UNK0	0.000	
3	   C	14.900	-3.383	0.000	C.3	1	UNK0	0.000	
4	   C	13.592	-2.433	0.000	C.3	1	UNK0	0.000	
5	   C	13.901	-3.383	0.000	C.3	1	UNK0	0.000	
6	   O	15.487	-4.192	0.000	O.3	1	UNK0	0.000	
7	   C	7.040	-7.326	0.000	C.3	1	UNK0	0.000	
8	   C	7.939	-7.826	0.000	C.3	1	UNK0	0.000	
9	   N	6.174	-7.826	0.000	N.pl3	1	UNK0	0.000	
10	   C	5.309	-7.326	0.000	C.2	1	UNK0	0.000	
11	   O	4.444	-7.826	0.000	O.2	1	UNK0	0.000	
12	   C	6.209	-5.828	0.000	C.3	1	UNK0	0.000	
13	   C	5.309	-6.327	0.000	C.3	1	UNK0	0.000	
14	   N	6.209	-4.829	0.000	N.pl3	1	UNK0	0.000	
15	   O	4.478	-4.829	0.000	O.2	1	UNK0	0.000	
16	   C	5.344	-4.329	0.000	C.2	1	UNK0	0.000	
17	   C	7.074	-3.330	0.000	C.3	1	UNK0	0.000	
18	   C	5.709	-1.966	0.000	C.3	1	UNK0	0.000	
19	   C	6.209	-2.831	0.000	C.3	1	UNK0	0.000	
20	   C	6.708	-1.966	0.000	C.3	1	UNK0	0.000	
21	   C	5.344	-3.330	0.000	C.3	1	UNK0	0.000	
22	   O	4.478	-2.831	0.000	O.3	1	UNK0	0.000	
23	   O	7.939	-2.831	0.000	O.3	1	UNK0	0.000	
24	   O	9.937	-2.831	0.000	O.3	1	UNK0	0.000	
25	   O	11.935	-2.831	0.000	O.3	1	UNK0	0.000	
26	   O	8.938	-1.832	0.000	O.co2	1	UNK0	0.000	
27	   O	8.938	-3.830	0.000	O.co2	1	UNK0	0.000	
28	   O	10.936	-1.832	0.000	O.co2	1	UNK0	0.000	
29	   O	10.936	-3.830	0.000	O.co2	1	UNK0	0.000	
30	   P	8.938	-2.831	0.000	P.3	1	UNK0	0.000	
31	   P	10.936	-2.831	0.000	P.3	1	UNK0	0.000	
32	   C	12.642	-2.124	0.000	C.3	1	UNK0	0.000	
33	   O	13.313	-4.192	0.000	O.3	1	UNK0	0.000	
34	   O	12.314	-5.190	0.000	O.co2	1	UNK0	0.000	
35	   O	14.313	-5.190	0.000	O.co2	1	UNK0	0.000	
36	   P	13.313	-5.190	0.000	P.3	1	UNK0	0.000	
37	   O	13.313	-6.190	0.000	O.co2	1	UNK0	0.000	
38	   N	16.159	-2.124	0.000	N.pl3	1	UNK0	0.000	
39	   C	16.901	-2.793	0.000	C.2	1	UNK0	0.000	
40	   C	16.565	-1.212	0.000	C.2	1	UNK0	0.000	
41	   C	17.766	-2.293	0.000	C.2	1	UNK0	0.000	
42	   N	16.901	-3.792	0.000	N.2	1	UNK0	0.000	
43	   N	17.559	-1.316	0.000	N.2	1	UNK0	0.000	
44	   C	18.632	-2.793	0.000	C.2	1	UNK0	0.000	
45	   C	17.767	-4.291	0.000	C.2	1	UNK0	0.000	
46	   N	18.632	-3.792	0.000	N.2	1	UNK0	0.000	
47	   N	19.497	-2.293	0.000	N.pl3	1	UNK0	0.000	
48	   S	7.947	-8.825	0.000	S.3	1	UNK0	0.000	
49	   O	8.813	-10.324	0.000	O.2	1	UNK0	0.000	
50	   C	8.813	-9.325	0.000	C.2	1	UNK0	0.000	
51	   C	9.678	-8.825	0.000	C.2	1	UNK0	0.000	
52	   C	10.543	-9.325	0.000	C.2	1	UNK0	0.000	
53	   C	11.408	-8.825	0.000	C.2	1	UNK0	0.000	
54	   C	11.408	-7.826	0.000	C.2	1	UNK0	0.000	
55	   C	12.274	-9.325	0.000	C.2	1	UNK0	0.000	
56	   C	12.274	-7.327	0.000	C.2	1	UNK0	0.000	
57	   C	13.139	-8.825	0.000	C.2	1	UNK0	0.000	
58	   C	13.139	-7.826	0.000	C.2	1	UNK0	0.000	
59	   O	14.004	-7.327	0.000	O.3	1	UNK0	0.000	
60	   O	14.004	-9.325	0.000	O.3	1	UNK0	0.000	
61	   C	14.004	-10.324	0.000	C.3	1	UNK0	0.000	
@<TRIPOS>BOND
1 1 38 1
2 1 2 1
3 1 3 1
4 3 6 1
5 2 4 1
6 4 32 1
7 3 5 1
8 4 5 1
9 5 33 1
10 7 8 1
11 8 48 1
12 7 9 1
13 9 10 1
14 10 11 2
15 12 14 1
16 10 13 1
17 12 13 1
18 14 16 1
19 15 16 2
20 16 21 1
21 17 23 1
22 17 19 1
23 18 19 1
24 19 20 1
25 19 21 1
26 21 22 1
27 23 30 1
28 24 31 1
29 24 30 1
30 26 30 2
31 27 30 1
32 25 31 1
33 28 31 2
34 29 31 1
35 25 32 1
36 33 36 1
37 34 36 1
38 35 36 1
39 36 37 2
40 38 39 1
41 38 40 1
42 39 41 2
43 39 42 1
44 40 43 2
45 41 43 1
46 41 44 1
47 42 45 2
48 44 46 2
49 45 46 1
50 44 47 1
51 48 50 1
52 49 50 2
53 50 51 1
54 51 52 2
55 52 53 1
56 53 54 1
57 53 55 2
58 54 56 2
59 55 57 1
60 57 60 1
61 56 58 1
62 57 58 2
63 58 59 1
64 60 61 1
@<TRIPOS>SUBSTRUCTURE
1	UNK0	1	GROUP	1 ****	UNK
