# created with PyMOL 2.5.2
@<TRIPOS>MOLECULE
L16.****
45 46 1                 
SMALL
USER_CHARGES
@<TRIPOS>ATOM
1	   C	0.506	0.751	-0.943	C.3	1	UNK0	0.000	
2	   H	1.327	0.575	-0.248	 H	1	UNK0	0.000	
3	   O	-0.010	0.857	-0.307	O.3	1	UNK0	0.000	
4	   C	0.910	1.397	-1.258	C.3	1	UNK0	0.000	
5	   H	1.731	1.221	-0.563	 H	1	UNK0	0.000	
6	   O	0.298	1.821	-1.610	O.3	1	UNK0	0.000	
7	   H	-0.509	1.314	-1.496	 H	1	UNK0	0.000	
8	   C	1.425	1.290	-1.893	C.3	1	UNK0	0.000	
9	   H	0.839	1.710	-2.711	 H	1	UNK0	0.000	
10	   O	2.091	1.719	-1.660	O.3	1	UNK0	0.000	
11	   H	1.990	1.927	-0.728	 H	1	UNK0	0.000	
12	   C	1.536	0.538	-2.214	C.3	1	UNK0	0.000	
13	   H	2.357	0.363	-1.519	 H	1	UNK0	0.000	
14	   O	1.419	0.457	-3.027	O.3	1	UNK0	0.000	
15	   H	1.120	1.306	-3.364	 H	1	UNK0	0.000	
16	   C	1.131	-0.108	-1.899	C.3	1	UNK0	0.000	
17	   H	0.310	0.068	-2.595	 H	1	UNK0	0.000	
18	   O	0.616	-0.001	-1.264	O.3	1	UNK0	0.000	
19	   C	1.637	-0.742	-1.749	C.3	1	UNK0	0.000	
20	   H	1.103	-1.647	-2.035	 H	1	UNK0	0.000	
21	   H	1.818	-0.751	-0.674	 H	1	UNK0	0.000	
22	   O	2.375	-0.775	-2.114	O.3	1	UNK0	0.000	
23	   H	2.459	0.003	-2.671	 H	1	UNK0	0.000	
24	   C	-0.715	0.556	0.000	C.3	1	UNK0	0.000	
25	   H	-0.715	0.556	1.090	 H	1	UNK0	0.000	
26	   C	-0.715	-0.269	0.000	C.3	1	UNK0	0.000	
27	   H	-0.715	-0.269	1.090	 H	1	UNK0	0.000	
28	   O	-0.115	-0.739	-0.318	O.3	1	UNK0	0.000	
29	   H	-0.199	-0.710	-1.273	 H	1	UNK0	0.000	
30	   C	-1.429	-0.682	0.000	C.3	1	UNK0	0.000	
31	   H	-1.346	-0.793	-1.081	 H	1	UNK0	0.000	
32	   O	-1.134	-1.332	0.414	O.3	1	UNK0	0.000	
33	   H	-0.340	-1.049	0.872	 H	1	UNK0	0.000	
34	   C	-2.143	-0.269	0.000	C.3	1	UNK0	0.000	
35	   H	-2.143	-0.269	1.090	 H	1	UNK0	0.000	
36	   O	-2.509	-0.528	-0.693	O.3	1	UNK0	0.000	
37	   H	-1.946	-1.198	-1.087	 H	1	UNK0	0.000	
38	   C	-2.143	0.556	0.000	C.3	1	UNK0	0.000	
39	   H	-2.143	0.556	-1.090	 H	1	UNK0	0.000	
40	   O	-1.429	0.969	0.000	O.3	1	UNK0	0.000	
41	   C	-2.760	0.914	0.416	C.3	1	UNK0	0.000	
42	   H	-3.114	1.742	-0.198	 H	1	UNK0	0.000	
43	   H	-2.334	1.302	1.340	 H	1	UNK0	0.000	
44	   O	-3.425	0.473	0.626	O.3	1	UNK0	0.000	
45	   H	-3.293	-0.421	0.304	 H	1	UNK0	0.000	
@<TRIPOS>BOND
1 1 2 1
2 1 3 1
3 1 4 1
4 1 18 1
5 3 24 1
6 4 5 1
7 4 6 1
8 4 8 1
9 6 7 1
10 8 9 1
11 8 10 1
12 8 12 1
13 10 11 1
14 12 13 1
15 12 14 1
16 12 16 1
17 14 15 1
18 16 17 1
19 16 18 1
20 16 19 1
21 19 20 1
22 19 21 1
23 19 22 1
24 22 23 1
25 24 25 1
26 24 26 1
27 24 40 1
28 26 27 1
29 26 28 1
30 26 30 1
31 28 29 1
32 30 31 1
33 30 32 1
34 30 34 1
35 32 33 1
36 34 35 1
37 34 36 1
38 34 38 1
39 36 37 1
40 38 39 1
41 38 40 1
42 38 41 1
43 41 42 1
44 41 43 1
45 41 44 1
46 44 45 1
@<TRIPOS>SUBSTRUCTURE
1	UNK0	1	GROUP	1 ****	UNK
