L02.****
  PyMOL2.5          3D                             0

101104  0  0  0  0  0  0  0  0999 V2000
   15.3142   -4.5846   -5.6035 C   0  0  0  1  0  0  0  0  0  0  0  0
   14.6951   -3.8560   -5.1232 H   0  0  0  1  0  0  0  0  0  0  0  0
   14.7193   -5.0378   -6.7891 O   0  0  0  1  0  0  0  0  0  0  0  0
   15.4415   -5.8462   -4.7374 C   0  0  0  1  0  0  0  0  0  0  0  0
   16.3365   -6.3848   -4.9696 H   0  0  0  1  0  0  0  0  0  0  0  0
   14.0355   -6.2977   -6.6038 C   0  0  0  1  0  0  0  0  0  0  0  0
   14.4729   -7.0564   -7.2185 H   0  0  0  1  0  0  0  0  0  0  0  0
   14.2176   -6.6357   -5.1212 C   0  0  0  1  0  0  0  0  0  0  0  0
   13.3672   -6.3272   -4.5499 H   0  0  0  1  0  0  0  0  0  0  0  0
   15.4286   -5.5197   -3.3470 O   0  0  0  1  0  0  0  0  0  0  0  0
   15.2669   -4.5795   -3.2401 H   0  0  0  1  0  0  0  0  0  0  0  0
    3.5352   -1.0522  -14.5386 C   0  0  0  1  0  0  0  0  0  0  0  0
    4.4522   -0.5273  -14.7072 H   0  0  0  1  0  0  0  0  0  0  0  0
    3.5486   -1.9767  -15.0773 H   0  0  0  1  0  0  0  0  0  0  0  0
    2.3948   -0.2101  -15.0527 C   0  0  0  1  0  0  0  0  0  0  0  0
    2.5244   -0.0684  -16.1053 H   0  0  0  1  0  0  0  0  0  0  0  0
    2.4231    0.7385  -14.5585 H   0  0  0  1  0  0  0  0  0  0  0  0
    3.4184   -1.3423  -13.1173 N   0  0  0  1  0  0  0  0  0  0  0  0
    2.9402   -0.7212  -12.5292 H   0  0  0  1  0  0  0  0  0  0  0  0
    3.9669   -2.4647  -12.6077 C   0  0  0  1  0  0  0  0  0  0  0  0
    4.6047   -3.2885  -13.2620 O   0  0  0  1  0  0  0  0  0  0  0  0
    4.4223   -3.8931  -10.5777 C   0  0  0  1  0  0  0  0  0  0  0  0
    5.4679   -3.6668  -10.5949 H   0  0  0  1  0  0  0  0  0  0  0  0
    4.2331   -4.7538  -11.1846 H   0  0  0  1  0  0  0  0  0  0  0  0
    3.6588   -2.7125  -11.1552 C   0  0  0  1  0  0  0  0  0  0  0  0
    2.6106   -2.9040  -11.0573 H   0  0  0  1  0  0  0  0  0  0  0  0
    3.9153   -1.8357  -10.5982 H   0  0  0  1  0  0  0  0  0  0  0  0
    4.0304   -4.1954   -9.1998 N   0  0  0  1  0  0  0  0  0  0  0  0
    3.3544   -3.6338   -8.7664 H   0  0  0  1  0  0  0  0  0  0  0  0
    5.4114   -5.9682   -8.9802 O   0  0  0  1  0  0  0  0  0  0  0  0
    4.5624   -5.2103   -8.5129 C   0  0  0  1  0  0  0  0  0  0  0  0
    6.1583   -6.3314   -6.1122 C   0  0  0  1  0  0  0  0  0  0  0  0
    6.5353   -6.4280   -7.1089 H   0  0  0  1  0  0  0  0  0  0  0  0
    5.7428   -7.2652   -5.7954 H   0  0  0  1  0  0  0  0  0  0  0  0
    5.7526   -3.8827   -6.3278 C   0  0  0  1  0  0  0  0  0  0  0  0
    5.1375   -3.0965   -5.9425 H   0  0  0  1  0  0  0  0  0  0  0  0
    5.8832   -3.7493   -7.3814 H   0  0  0  1  0  0  0  0  0  0  0  0
    6.7066   -3.8586   -5.8438 H   0  0  0  1  0  0  0  0  0  0  0  0
    5.0801   -5.2347   -6.0638 C   0  0  0  1  0  0  0  0  0  0  0  0
    4.4361   -5.1965   -4.6730 C   0  0  0  1  0  0  0  0  0  0  0  0
    3.8797   -6.0962   -4.5122 H   0  0  0  1  0  0  0  0  0  0  0  0
    3.7790   -4.3546   -4.6076 H   0  0  0  1  0  0  0  0  0  0  0  0
    5.2001   -5.1120   -3.9287 H   0  0  0  1  0  0  0  0  0  0  0  0
    3.9971   -5.4692   -7.1236 C   0  0  0  1  0  0  0  0  0  0  0  0
    3.6947   -6.4942   -7.0699 H   0  0  0  1  0  0  0  0  0  0  0  0
    2.8881   -4.6292   -6.8475 O   0  0  0  1  0  0  0  0  0  0  0  0
    2.6023   -4.7635   -5.9409 H   0  0  0  1  0  0  0  0  0  0  0  0
    7.2254   -5.9381   -5.2176 O   0  0  0  1  0  0  0  0  0  0  0  0
    9.6480   -6.2079   -5.8783 O   0  0  0  1  0  0  0  0  0  0  0  0
   12.0075   -5.2121   -6.0030 O   0  0  0  1  0  0  0  0  0  0  0  0
    8.8033   -6.6932   -3.5398 O   0  0  0  0  0  0  0  0  0  0  0  0
    8.2869   -8.2210   -5.5511 O   0  0  0  1  0  0  0  0  0  0  0  0
   10.2624   -4.2855   -7.4746 O   0  0  0  0  0  0  0  0  0  0  0  0
   10.0179   -3.9571   -4.9565 O   0  0  0  1  0  0  0  0  0  0  0  0
    8.4709   -6.8720   -4.9880 P   0  0  0  1  0  0  0  0  0  0  0  0
   10.4409   -4.8125   -6.0898 P   0  0  0  1  0  0  0  0  0  0  0  0
   12.5860   -6.1612   -6.9361 C   0  0  0  1  0  0  0  0  0  0  0  0
   12.0993   -7.1092   -6.8402 H   0  0  0  1  0  0  0  0  0  0  0  0
   12.4740   -5.8019   -7.9377 H   0  0  0  1  0  0  0  0  0  0  0  0
   14.4377   -8.0677   -4.9334 O   0  0  0  1  0  0  0  0  0  0  0  0
   12.0887   -8.3568   -3.9023 O   0  0  0  1  0  0  0  0  0  0  0  0
   13.9161  -10.1776   -3.6535 O   0  5  0  1  0  0  0  0  0  0  0  0
   13.1883   -9.0721   -4.5876 P   0  0  0  1  0  0  0  0  0  0  0  0
   12.8160   -9.8143   -5.9786 O   0  5  0  1  0  0  0  0  0  0  0  0
   16.6299   -4.0061   -5.8725 N   0  0  0  1  0  0  0  0  0  0  0  0
   17.6530   -3.8248   -4.9779 C   0  0  0  1  0  0  0  0  0  0  0  0
   17.1541   -3.7181   -7.0953 C   0  0  0  1  0  0  0  0  0  0  0  0
   16.5927   -3.7654   -7.9695 H   0  0  0  1  0  0  0  0  0  0  0  0
   18.7583   -3.4354   -5.7463 C   0  0  0  1  0  0  0  0  0  0  0  0
   17.6217   -3.9945   -3.6553 N   0  0  0  1  0  0  0  0  0  0  0  0
   18.4143   -3.3781   -7.0880 N   0  0  0  1  0  0  0  0  0  0  0  0
   19.9328   -3.2082   -5.0351 C   0  0  0  1  0  0  0  0  0  0  0  0
   18.8027   -3.7367   -3.1069 C   0  0  0  1  0  0  0  0  0  0  0  0
   18.8520   -3.8443   -2.0737 H   0  0  0  1  0  0  0  0  0  0  0  0
   19.9421   -3.3558   -3.7059 N   0  0  0  1  0  0  0  0  0  0  0  0
   21.0759   -2.8360   -5.6804 N   0  0  0  1  0  0  0  0  0  0  0  0
   21.0791   -2.7405   -6.6558 H   0  0  0  1  0  0  0  0  0  0  0  0
   21.8938   -2.6643   -5.1686 H   0  0  0  1  0  0  0  0  0  0  0  0
    0.7727   -0.9578  -14.7689 S   0  0  0  1  0  0  0  0  0  0  0  0
    0.1643    1.0970  -16.1618 O   0  0  0  1  0  0  0  0  0  0  0  0
   -0.2565    0.2097  -15.6247 C   0  0  0  1  0  0  0  0  0  0  0  0
   -1.6626   -0.1661  -15.5131 C   0  0  0  1  0  0  0  0  0  0  0  0
   -1.8699   -0.9883  -14.9109 H   0  0  0  1  0  0  0  0  0  0  0  0
   -2.7123    0.4175  -16.0899 C   0  0  0  1  0  0  0  0  0  0  0  0
   -2.5711    1.2447  -16.7043 H   0  0  0  1  0  0  0  0  0  0  0  0
   -4.0795   -0.1049  -15.8612 C   0  0  0  1  0  0  0  0  0  0  0  0
   -5.1334    0.3832  -16.6178 C   0  0  0  1  0  0  0  0  0  0  0  0
   -4.9607    1.1084  -17.3430 H   0  0  0  1  0  0  0  0  0  0  0  0
   -4.3082   -1.0725  -14.9012 C   0  0  0  1  0  0  0  0  0  0  0  0
   -3.5169   -1.4416  -14.3362 H   0  0  0  1  0  0  0  0  0  0  0  0
   -6.4137   -0.0937  -16.4087 C   0  0  0  1  0  0  0  0  0  0  0  0
   -7.2049    0.2755  -16.9736 H   0  0  0  1  0  0  0  0  0  0  0  0
   -5.5922   -1.5509  -14.6912 C   0  0  0  1  0  0  0  0  0  0  0  0
   -6.6429   -1.0641  -15.4457 C   0  0  0  1  0  0  0  0  0  0  0  0
   -7.8790   -1.5662  -15.2077 O   0  0  0  1  0  0  0  0  0  0  0  0
   -8.0162   -2.3488  -15.7466 H   0  0  0  1  0  0  0  0  0  0  0  0
   -5.9377   -2.4907  -13.7794 O   0  0  0  1  0  0  0  0  0  0  0  0
   -4.8721   -3.1274  -13.0572 C   0  0  0  1  0  0  0  0  0  0  0  0
   -3.9337   -2.8623  -13.4978 H   0  0  0  1  0  0  0  0  0  0  0  0
   -4.9980   -4.1891  -13.0987 H   0  0  0  1  0  0  0  0  0  0  0  0
   -4.8905   -2.8051  -12.0371 H   0  0  0  1  0  0  0  0  0  0  0  0
  1  2  1  0  0  0  0
  1  3  1  0  0  0  0
  1  4  1  0  0  0  0
  1 65  1  0  0  0  0
  3  6  1  0  0  0  0
  4  5  1  0  0  0  0
  4  8  1  0  0  0  0
  4 10  1  0  0  0  0
  6  7  1  0  0  0  0
  6  8  1  0  0  0  0
  6 57  1  0  0  0  0
  8  9  1  0  0  0  0
  8 60  1  0  0  0  0
 10 11  1  0  0  0  0
 12 13  1  0  0  0  0
 12 14  1  0  0  0  0
 12 15  1  0  0  0  0
 12 18  1  0  0  0  0
 15 16  1  0  0  0  0
 15 17  1  0  0  0  0
 15 79  1  0  0  0  0
 18 19  1  0  0  0  0
 18 20  1  0  0  0  0
 20 21  2  0  0  0  0
 20 25  1  0  0  0  0
 22 23  1  0  0  0  0
 22 24  1  0  0  0  0
 22 25  1  0  0  0  0
 22 28  1  0  0  0  0
 25 26  1  0  0  0  0
 25 27  1  0  0  0  0
 28 29  1  0  0  0  0
 28 31  1  0  0  0  0
 30 31  2  0  0  0  0
 31 44  1  0  0  0  0
 32 33  1  0  0  0  0
 32 34  1  0  0  0  0
 32 39  1  0  0  0  0
 32 48  1  0  0  0  0
 35 36  1  0  0  0  0
 35 37  1  0  0  0  0
 35 38  1  0  0  0  0
 35 39  1  0  0  0  0
 39 40  1  0  0  0  0
 39 44  1  0  0  0  0
 40 41  1  0  0  0  0
 40 42  1  0  0  0  0
 40 43  1  0  0  0  0
 44 45  1  0  0  0  0
 44 46  1  0  0  0  0
 46 47  1  0  0  0  0
 48 55  1  0  0  0  0
 49 55  1  0  0  0  0
 49 56  1  0  0  0  0
 50 56  1  0  0  0  0
 50 57  1  0  0  0  0
 51 55  1  0  0  0  0
 52 55  2  0  0  0  0
 53 56  1  0  0  0  0
 54 56  2  0  0  0  0
 57 58  1  0  0  0  0
 57 59  1  0  0  0  0
 60 63  1  0  0  0  0
 61 63  2  0  0  0  0
 62 63  1  0  0  0  0
 63 64  1  0  0  0  0
 65 66  1  0  0  0  0
 65 67  1  0  0  0  0
 66 69  2  0  0  0  0
 66 70  1  0  0  0  0
 67 68  1  0  0  0  0
 67 71  2  0  0  0  0
 69 71  1  0  0  0  0
 69 72  1  0  0  0  0
 70 73  2  0  0  0  0
 72 75  2  0  0  0  0
 72 76  1  0  0  0  0
 73 74  1  0  0  0  0
 73 75  1  0  0  0  0
 76 77  1  0  0  0  0
 76 78  1  0  0  0  0
 79 81  1  0  0  0  0
 80 81  2  0  0  0  0
 81 82  1  0  0  0  0
 82 83  1  0  0  0  0
 82 84  2  0  0  0  0
 84 85  1  0  0  0  0
 84 86  1  0  0  0  0
 86 87  1  0  0  0  0
 86 89  2  0  0  0  0
 87 88  1  0  0  0  0
 87 91  2  0  0  0  0
 89 90  1  0  0  0  0
 89 93  1  0  0  0  0
 91 92  1  0  0  0  0
 91 94  1  0  0  0  0
 93 94  2  0  0  0  0
 93 97  1  0  0  0  0
 94 95  1  0  0  0  0
 95 96  1  0  0  0  0
 97 98  1  0  0  0  0
 98 99  1  0  0  0  0
 98100  1  0  0  0  0
 98101  1  0  0  0  0
M  BCL ATM C_TeTeTeTe H_S O_Te2Te2TeTe C_TeTeTeTe H_S C_TeTeTeTe H_S C_TeTeTeTe H_S O_Te2Te2TeTe H_S C_TeTeTeTe H_S H_S C_TeTeTeTe H_S H_S N_TrTrTrPi2 H_S C_TrTrTrPi O_Tr2Tr2TrPi C_TeTeTeTe H_S H_S C_TeTeTeTe H_S H_S N_TrTrTrPi2 H_S O_Tr2Tr2TrPi C_TrTrTrPi C_TeTeTeTe H_S H_S C_TeTeTeTe H_S H_S H_S C_TeTeTeTe C_TeTeTeTe H_S H_S H_S C_TeTeTeTe H_S O_Te2Te2TeTe H_S O_Tr2TrTrPi2 O_Tr2TrTrPi2 O_Tr2TrTrPi2 O_Te2Te2TeTe O_Tr2Tr2TrPi O_Te2Te2TeTe O_Tr2Tr2TrPi P_TeTeTeTePi P_TeTeTeTePi C_TeTeTeTe H_S H_S O_Tr2TrTrPi2 O_Tr2Tr2TrPi O_Te2Te2Te2Te P_TeTeTeTePi O_Te2Te2Te2Te N_TrTrTrPi2 C_TrTrTrPi C_TrTrTrPi H_S C_TrTrTrPi N_Tr2TrTrPi N_Tr2TrTrPi C_TrTrTrPi C_TrTrTrPi H_S N_Tr2TrTrPi N_TrTrTrPi2 H_S H_S S_Te2Te2TeTe O_Tr2Tr2TrPi C_TrTrTrPi C_TrTrTrPi H_S C_TrTrTrPi H_S C_TrTrTrPi C_TrTrTrPi H_S C_TrTrTrPi H_S C_TrTrTrPi H_S C_TrTrTrPi C_TrTrTrPi O_Te2Te2TeTe H_S O_Tr2TrTrPi2 C_TeTeTeTe H_S H_S H_S
M  BCL BND NonConjugatedSingleBond NonConjugatedSingleBondInRing NonConjugatedSingleBondInRing NonConjugatedSingleBond NonConjugatedSingleBondInRing NonConjugatedSingleBond NonConjugatedSingleBondInRing NonConjugatedSingleBond NonConjugatedSingleBond NonConjugatedSingleBondInRing NonConjugatedSingleBond NonConjugatedSingleBond NonConjugatedSingleBond NonConjugatedSingleBond NonConjugatedSingleBond NonConjugatedSingleBond NonConjugatedSingleBond NonConjugatedSingleBond NonConjugatedSingleBond NonConjugatedSingleBond NonConjugatedSingleBond NonConjugatedSingleBond AmideSingleBond ConjugatedDoubleBond NonConjugatedSingleBond NonConjugatedSingleBond NonConjugatedSingleBond NonConjugatedSingleBond NonConjugatedSingleBond NonConjugatedSingleBond NonConjugatedSingleBond NonConjugatedSingleBond AmideSingleBond ConjugatedDoubleBond NonConjugatedSingleBond NonConjugatedSingleBond NonConjugatedSingleBond NonConjugatedSingleBond NonConjugatedSingleBond NonConjugatedSingleBond NonConjugatedSingleBond NonConjugatedSingleBond NonConjugatedSingleBond NonConjugatedSingleBond NonConjugatedSingleBond NonConjugatedSingleBond NonConjugatedSingleBond NonConjugatedSingleBond NonConjugatedSingleBond NonConjugatedSingleBond NonConjugatedSingleBond ConjugatedSingleBond ConjugatedSingleBond ConjugatedSingleBond ConjugatedSingleBond NonConjugatedSingleBond ConjugatedSingleBond ConjugatedDoubleBond ConjugatedSingleBond ConjugatedDoubleBond NonConjugatedSingleBond NonConjugatedSingleBond ConjugatedSingleBond ConjugatedDoubleBond ConjugatedSingleBond ConjugatedSingleBond AromaticSingleBond AromaticSingleBond AromaticDoubleBond AromaticSingleBond NonConjugatedSingleBond AromaticDoubleBond AromaticSingleBond AromaticSingleBond AromaticDoubleBond AromaticDoubleBond ConjugatedSingleBond NonConjugatedSingleBond AromaticSingleBond NonConjugatedSingleBond NonConjugatedSingleBond ConjugatedSingleBond ConjugatedDoubleBond ConjugatedSingleBond NonConjugatedSingleBond ConjugatedDoubleBond NonConjugatedSingleBond ConjugatedSingleBond AromaticSingleBond AromaticDoubleBond NonConjugatedSingleBond AromaticDoubleBond NonConjugatedSingleBond AromaticSingleBond NonConjugatedSingleBond AromaticSingleBond AromaticDoubleBond ConjugatedSingleBond ConjugatedSingleBond NonConjugatedSingleBond NonConjugatedSingleBond NonConjugatedSingleBond NonConjugatedSingleBond NonConjugatedSingleBond
M  BCL CHI   1   R   4   R   6   R   8   S  44   S  55   S  56   R
M  BCL DBI - - - - - - - - - - E - - -
M  END
> <ConfClashScore>
0 

> <ConfOneFourInteractionScore>
-0.978748 

> <ConfScore>
-0.202934 

> <ConfScorePBest>
0.0150985 

> <ConfTolerance>
0.25 

$$$$
L02.****
  PyMOL2.5          3D                             0

101104  0  0  0  0  0  0  0  0999 V2000
   15.2466   -4.4030   -5.5523 C   0  0  0  1  0  0  0  0  0  0  0  0
   14.8297   -3.6494   -4.9174 H   0  0  0  1  0  0  0  0  0  0  0  0
   14.4535   -4.5505   -6.7694 O   0  0  0  1  0  0  0  0  0  0  0  0
   15.1725   -5.7605   -4.8917 C   0  0  0  1  0  0  0  0  0  0  0  0
   16.0457   -5.9468   -4.3020 H   0  0  0  1  0  0  0  0  0  0  0  0
   14.3873   -5.8945   -7.1548 C   0  0  0  1  0  0  0  0  0  0  0  0
   14.8773   -6.0268   -8.0968 H   0  0  0  1  0  0  0  0  0  0  0  0
   15.0939   -6.7319   -6.0771 C   0  0  0  1  0  0  0  0  0  0  0  0
   14.5213   -7.6004   -5.8266 H   0  0  0  1  0  0  0  0  0  0  0  0
   14.0100   -5.8647   -4.0685 O   0  0  0  1  0  0  0  0  0  0  0  0
   13.6713   -6.7623   -4.1044 H   0  0  0  1  0  0  0  0  0  0  0  0
   18.1950   -9.2236    5.9235 C   0  0  0  1  0  0  0  0  0  0  0  0
   17.7956  -10.0883    6.4109 H   0  0  0  1  0  0  0  0  0  0  0  0
   18.8945   -9.5277    5.1731 H   0  0  0  1  0  0  0  0  0  0  0  0
   18.8992   -8.3603    6.9397 C   0  0  0  1  0  0  0  0  0  0  0  0
   19.6443   -8.9576    7.4223 H   0  0  0  1  0  0  0  0  0  0  0  0
   18.1761   -8.0401    7.6604 H   0  0  0  1  0  0  0  0  0  0  0  0
   17.1109   -8.4818    5.2970 N   0  0  0  1  0  0  0  0  0  0  0  0
   16.2076   -8.5235    5.6748 H   0  0  0  1  0  0  0  0  0  0  0  0
   17.3445   -7.7442    4.2078 C   0  0  0  1  0  0  0  0  0  0  0  0
   18.4731   -7.5557    3.7558 O   0  0  0  1  0  0  0  0  0  0  0  0
   16.3556   -6.0402    2.5321 C   0  0  0  1  0  0  0  0  0  0  0  0
   16.8979   -6.4342    1.6982 H   0  0  0  1  0  0  0  0  0  0  0  0
   16.9199   -5.2519    2.9849 H   0  0  0  1  0  0  0  0  0  0  0  0
   16.1304   -7.1451    3.5513 C   0  0  0  1  0  0  0  0  0  0  0  0
   15.5121   -6.7441    4.3271 H   0  0  0  1  0  0  0  0  0  0  0  0
   15.6111   -7.9379    3.0546 H   0  0  0  1  0  0  0  0  0  0  0  0
   15.0725   -5.5103    2.0672 N   0  0  0  1  0  0  0  0  0  0  0  0
   14.2622   -6.0436    2.2065 H   0  0  0  1  0  0  0  0  0  0  0  0
   15.9328   -3.5900    1.2541 O   0  0  0  1  0  0  0  0  0  0  0  0
   14.9678   -4.3251    1.4595 C   0  0  0  1  0  0  0  0  0  0  0  0
   11.9592   -3.8476   -0.8888 C   0  0  0  1  0  0  0  0  0  0  0  0
   11.6221   -2.8844   -0.5671 H   0  0  0  1  0  0  0  0  0  0  0  0
   11.3758   -4.6077   -0.4126 H   0  0  0  1  0  0  0  0  0  0  0  0
   14.3385   -2.9658   -1.1453 C   0  0  0  1  0  0  0  0  0  0  0  0
   14.1207   -2.0058   -0.7259 H   0  0  0  1  0  0  0  0  0  0  0  0
   14.1603   -2.9426   -2.2001 H   0  0  0  1  0  0  0  0  0  0  0  0
   15.3638   -3.2106   -0.9615 H   0  0  0  1  0  0  0  0  0  0  0  0
   13.4368   -4.0237   -0.4980 C   0  0  0  1  0  0  0  0  0  0  0  0
   13.9043   -5.4202   -0.9242 C   0  0  0  1  0  0  0  0  0  0  0  0
   14.9714   -5.4317   -1.0011 H   0  0  0  1  0  0  0  0  0  0  0  0
   13.4759   -5.6651   -1.8736 H   0  0  0  1  0  0  0  0  0  0  0  0
   13.5917   -6.1385   -0.1954 H   0  0  0  1  0  0  0  0  0  0  0  0
   13.5643   -3.9255    1.0268 C   0  0  0  1  0  0  0  0  0  0  0  0
   13.4035   -2.9061    1.3096 H   0  0  0  1  0  0  0  0  0  0  0  0
   12.5797   -4.7488    1.6284 O   0  0  0  1  0  0  0  0  0  0  0  0
   12.5342   -5.5868    1.1623 H   0  0  0  1  0  0  0  0  0  0  0  0
   11.7997   -3.9537   -2.3263 O   0  0  0  1  0  0  0  0  0  0  0  0
   10.7560   -4.6119   -4.5373 O   0  0  0  1  0  0  0  0  0  0  0  0
   12.3505   -5.8263   -6.0479 O   0  0  0  1  0  0  0  0  0  0  0  0
   11.9788   -6.2647   -3.0571 O   0  0  0  0  0  0  0  0  0  0  0  0
    9.6537   -5.3196   -2.4634 O   0  0  0  1  0  0  0  0  0  0  0  0
   10.0717   -6.6169   -5.9696 O   0  0  0  0  0  0  0  0  0  0  0  0
   10.5361   -4.2807   -6.9254 O   0  0  0  1  0  0  0  0  0  0  0  0
   11.0042   -5.1295   -3.0240 P   0  0  0  1  0  0  0  0  0  0  0  0
   10.8302   -5.3462   -5.9548 P   0  0  0  1  0  0  0  0  0  0  0  0
   12.9530   -6.3208   -7.2720 C   0  0  0  1  0  0  0  0  0  0  0  0
   12.8747   -7.3861   -7.3332 H   0  0  0  1  0  0  0  0  0  0  0  0
   12.4919   -5.8789   -8.1305 H   0  0  0  1  0  0  0  0  0  0  0  0
   16.4181   -7.1339   -6.5122 O   0  0  0  1  0  0  0  0  0  0  0  0
   15.5007   -8.5935   -8.5269 O   0  0  0  1  0  0  0  0  0  0  0  0
   16.9945   -9.5966   -6.6028 O   0  5  0  1  0  0  0  0  0  0  0  0
   16.6151   -8.3622   -7.5808 P   0  0  0  1  0  0  0  0  0  0  0  0
   18.0517   -8.0012   -8.2369 O   0  5  0  1  0  0  0  0  0  0  0  0
   16.6325   -4.0583   -5.8751 N   0  0  0  1  0  0  0  0  0  0  0  0
   17.6582   -3.8609   -4.9870 C   0  0  0  1  0  0  0  0  0  0  0  0
   17.1432   -3.7584   -7.1007 C   0  0  0  1  0  0  0  0  0  0  0  0
   16.5769   -3.8138   -7.9713 H   0  0  0  1  0  0  0  0  0  0  0  0
   18.7512   -3.4504   -5.7619 C   0  0  0  1  0  0  0  0  0  0  0  0
   17.6389   -4.0341   -3.6647 N   0  0  0  1  0  0  0  0  0  0  0  0
   18.3973   -3.3962   -7.1011 N   0  0  0  1  0  0  0  0  0  0  0  0
   19.9263   -3.2040   -5.0581 C   0  0  0  1  0  0  0  0  0  0  0  0
   18.8188   -3.7566   -3.1236 C   0  0  0  1  0  0  0  0  0  0  0  0
   18.8769   -3.8656   -2.0910 H   0  0  0  1  0  0  0  0  0  0  0  0
   19.9472   -3.3543   -3.7293 N   0  0  0  1  0  0  0  0  0  0  0  0
   21.0901   -2.8070   -5.6621 N   0  0  0  1  0  0  0  0  0  0  0  0
   21.8824   -2.6125   -5.1192 H   0  0  0  1  0  0  0  0  0  0  0  0
   21.1303   -2.7176   -6.6372 H   0  0  0  1  0  0  0  0  0  0  0  0
   19.7093   -6.8896    6.2675 S   0  0  0  1  0  0  0  0  0  0  0  0
   17.2824   -6.0197    6.7918 O   0  0  0  1  0  0  0  0  0  0  0  0
   18.3504   -5.7423    6.3150 C   0  0  0  1  0  0  0  0  0  0  0  0
   18.6500   -4.4406    5.7251 C   0  0  0  1  0  0  0  0  0  0  0  0
   19.5676   -4.3861    5.2386 H   0  0  0  1  0  0  0  0  0  0  0  0
   17.9435   -3.3111    5.7062 C   0  0  0  1  0  0  0  0  0  0  0  0
   17.0152   -3.2958    6.1747 H   0  0  0  1  0  0  0  0  0  0  0  0
   18.4258   -2.0762    5.0453 C   0  0  0  1  0  0  0  0  0  0  0  0
   17.6669   -0.9187    5.1217 C   0  0  0  1  0  0  0  0  0  0  0  0
   16.7675   -0.9203    5.6439 H   0  0  0  1  0  0  0  0  0  0  0  0
   19.6237   -2.0727    4.3559 C   0  0  0  1  0  0  0  0  0  0  0  0
   20.1950   -2.9400    4.3019 H   0  0  0  1  0  0  0  0  0  0  0  0
   18.1054    0.2374    4.5041 C   0  0  0  1  0  0  0  0  0  0  0  0
   17.5340    1.1047    4.5581 H   0  0  0  1  0  0  0  0  0  0  0  0
   20.0636   -0.9133    3.7363 C   0  0  0  1  0  0  0  0  0  0  0  0
   19.3069    0.2407    3.8126 C   0  0  0  1  0  0  0  0  0  0  0  0
   19.6756    1.4110    3.2371 O   0  0  0  1  0  0  0  0  0  0  0  0
   20.2364    1.9026    3.8415 H   0  0  0  1  0  0  0  0  0  0  0  0
   21.2132   -0.7908    3.0311 O   0  0  0  1  0  0  0  0  0  0  0  0
   22.1540   -1.8725    3.1168 C   0  0  0  1  0  0  0  0  0  0  0  0
   22.2303   -2.1999    4.1326 H   0  0  0  1  0  0  0  0  0  0  0  0
   23.1123   -1.5391    2.7768 H   0  0  0  1  0  0  0  0  0  0  0  0
   21.8205   -2.6843    2.5047 H   0  0  0  1  0  0  0  0  0  0  0  0
  1  2  1  0  0  0  0
  1  3  1  0  0  0  0
  1  4  1  0  0  0  0
  1 65  1  0  0  0  0
  3  6  1  0  0  0  0
  4  5  1  0  0  0  0
  4  8  1  0  0  0  0
  4 10  1  0  0  0  0
  6  7  1  0  0  0  0
  6  8  1  0  0  0  0
  6 57  1  0  0  0  0
  8  9  1  0  0  0  0
  8 60  1  0  0  0  0
 10 11  1  0  0  0  0
 12 13  1  0  0  0  0
 12 14  1  0  0  0  0
 12 15  1  0  0  0  0
 12 18  1  0  0  0  0
 15 16  1  0  0  0  0
 15 17  1  0  0  0  0
 15 79  1  0  0  0  0
 18 19  1  0  0  0  0
 18 20  1  0  0  0  0
 20 21  2  0  0  0  0
 20 25  1  0  0  0  0
 22 23  1  0  0  0  0
 22 24  1  0  0  0  0
 22 25  1  0  0  0  0
 22 28  1  0  0  0  0
 25 26  1  0  0  0  0
 25 27  1  0  0  0  0
 28 29  1  0  0  0  0
 28 31  1  0  0  0  0
 30 31  2  0  0  0  0
 31 44  1  0  0  0  0
 32 33  1  0  0  0  0
 32 34  1  0  0  0  0
 32 39  1  0  0  0  0
 32 48  1  0  0  0  0
 35 36  1  0  0  0  0
 35 37  1  0  0  0  0
 35 38  1  0  0  0  0
 35 39  1  0  0  0  0
 39 40  1  0  0  0  0
 39 44  1  0  0  0  0
 40 41  1  0  0  0  0
 40 42  1  0  0  0  0
 40 43  1  0  0  0  0
 44 45  1  0  0  0  0
 44 46  1  0  0  0  0
 46 47  1  0  0  0  0
 48 55  1  0  0  0  0
 49 55  1  0  0  0  0
 49 56  1  0  0  0  0
 50 56  1  0  0  0  0
 50 57  1  0  0  0  0
 51 55  1  0  0  0  0
 52 55  2  0  0  0  0
 53 56  1  0  0  0  0
 54 56  2  0  0  0  0
 57 58  1  0  0  0  0
 57 59  1  0  0  0  0
 60 63  1  0  0  0  0
 61 63  2  0  0  0  0
 62 63  1  0  0  0  0
 63 64  1  0  0  0  0
 65 66  1  0  0  0  0
 65 67  1  0  0  0  0
 66 69  2  0  0  0  0
 66 70  1  0  0  0  0
 67 68  1  0  0  0  0
 67 71  2  0  0  0  0
 69 71  1  0  0  0  0
 69 72  1  0  0  0  0
 70 73  2  0  0  0  0
 72 75  2  0  0  0  0
 72 76  1  0  0  0  0
 73 74  1  0  0  0  0
 73 75  1  0  0  0  0
 76 77  1  0  0  0  0
 76 78  1  0  0  0  0
 79 81  1  0  0  0  0
 80 81  2  0  0  0  0
 81 82  1  0  0  0  0
 82 83  1  0  0  0  0
 82 84  2  0  0  0  0
 84 85  1  0  0  0  0
 84 86  1  0  0  0  0
 86 87  1  0  0  0  0
 86 89  2  0  0  0  0
 87 88  1  0  0  0  0
 87 91  2  0  0  0  0
 89 90  1  0  0  0  0
 89 93  1  0  0  0  0
 91 92  1  0  0  0  0
 91 94  1  0  0  0  0
 93 94  2  0  0  0  0
 93 97  1  0  0  0  0
 94 95  1  0  0  0  0
 95 96  1  0  0  0  0
 97 98  1  0  0  0  0
 98 99  1  0  0  0  0
 98100  1  0  0  0  0
 98101  1  0  0  0  0
M  BCL ATM C_TeTeTeTe H_S O_Te2Te2TeTe C_TeTeTeTe H_S C_TeTeTeTe H_S C_TeTeTeTe H_S O_Te2Te2TeTe H_S C_TeTeTeTe H_S H_S C_TeTeTeTe H_S H_S N_TrTrTrPi2 H_S C_TrTrTrPi O_Tr2Tr2TrPi C_TeTeTeTe H_S H_S C_TeTeTeTe H_S H_S N_TrTrTrPi2 H_S O_Tr2Tr2TrPi C_TrTrTrPi C_TeTeTeTe H_S H_S C_TeTeTeTe H_S H_S H_S C_TeTeTeTe C_TeTeTeTe H_S H_S H_S C_TeTeTeTe H_S O_Te2Te2TeTe H_S O_Tr2TrTrPi2 O_Tr2TrTrPi2 O_Tr2TrTrPi2 O_Te2Te2TeTe O_Tr2Tr2TrPi O_Te2Te2TeTe O_Tr2Tr2TrPi P_TeTeTeTePi P_TeTeTeTePi C_TeTeTeTe H_S H_S O_Tr2TrTrPi2 O_Tr2Tr2TrPi O_Te2Te2Te2Te P_TeTeTeTePi O_Te2Te2Te2Te N_TrTrTrPi2 C_TrTrTrPi C_TrTrTrPi H_S C_TrTrTrPi N_Tr2TrTrPi N_Tr2TrTrPi C_TrTrTrPi C_TrTrTrPi H_S N_Tr2TrTrPi N_TrTrTrPi2 H_S H_S S_Te2Te2TeTe O_Tr2Tr2TrPi C_TrTrTrPi C_TrTrTrPi H_S C_TrTrTrPi H_S C_TrTrTrPi C_TrTrTrPi H_S C_TrTrTrPi H_S C_TrTrTrPi H_S C_TrTrTrPi C_TrTrTrPi O_Te2Te2TeTe H_S O_Tr2TrTrPi2 C_TeTeTeTe H_S H_S H_S
M  BCL BND NonConjugatedSingleBond NonConjugatedSingleBondInRing NonConjugatedSingleBondInRing NonConjugatedSingleBond NonConjugatedSingleBondInRing NonConjugatedSingleBond NonConjugatedSingleBondInRing NonConjugatedSingleBond NonConjugatedSingleBond NonConjugatedSingleBondInRing NonConjugatedSingleBond NonConjugatedSingleBond NonConjugatedSingleBond NonConjugatedSingleBond NonConjugatedSingleBond NonConjugatedSingleBond NonConjugatedSingleBond NonConjugatedSingleBond NonConjugatedSingleBond NonConjugatedSingleBond NonConjugatedSingleBond NonConjugatedSingleBond AmideSingleBond ConjugatedDoubleBond NonConjugatedSingleBond NonConjugatedSingleBond NonConjugatedSingleBond NonConjugatedSingleBond NonConjugatedSingleBond NonConjugatedSingleBond NonConjugatedSingleBond NonConjugatedSingleBond AmideSingleBond ConjugatedDoubleBond NonConjugatedSingleBond NonConjugatedSingleBond NonConjugatedSingleBond NonConjugatedSingleBond NonConjugatedSingleBond NonConjugatedSingleBond NonConjugatedSingleBond NonConjugatedSingleBond NonConjugatedSingleBond NonConjugatedSingleBond NonConjugatedSingleBond NonConjugatedSingleBond NonConjugatedSingleBond NonConjugatedSingleBond NonConjugatedSingleBond NonConjugatedSingleBond NonConjugatedSingleBond ConjugatedSingleBond ConjugatedSingleBond ConjugatedSingleBond ConjugatedSingleBond NonConjugatedSingleBond ConjugatedSingleBond ConjugatedDoubleBond ConjugatedSingleBond ConjugatedDoubleBond NonConjugatedSingleBond NonConjugatedSingleBond ConjugatedSingleBond ConjugatedDoubleBond ConjugatedSingleBond ConjugatedSingleBond AromaticSingleBond AromaticSingleBond AromaticDoubleBond AromaticSingleBond NonConjugatedSingleBond AromaticDoubleBond AromaticSingleBond AromaticSingleBond AromaticDoubleBond AromaticDoubleBond ConjugatedSingleBond NonConjugatedSingleBond AromaticSingleBond NonConjugatedSingleBond NonConjugatedSingleBond ConjugatedSingleBond ConjugatedDoubleBond ConjugatedSingleBond NonConjugatedSingleBond ConjugatedDoubleBond NonConjugatedSingleBond ConjugatedSingleBond AromaticSingleBond AromaticDoubleBond NonConjugatedSingleBond AromaticDoubleBond NonConjugatedSingleBond AromaticSingleBond NonConjugatedSingleBond AromaticSingleBond AromaticDoubleBond ConjugatedSingleBond ConjugatedSingleBond NonConjugatedSingleBond NonConjugatedSingleBond NonConjugatedSingleBond NonConjugatedSingleBond NonConjugatedSingleBond
M  BCL CHI   1   R   4   R   6   R   8   S  44   S  55   S  56   R
M  BCL DBI - - - - - - - - - - E - - -
M  END
> <ConfClashScore>
0 

> <ConfOneFourInteractionScore>
-0.985869 

> <ConfScore>
-0.174909 

> <ConfScorePBest>
0.0149955 

> <ConfTolerance>
2.81583 

$$$$
L02.****
  PyMOL2.5          3D                             0

101104  0  0  0  0  0  0  0  0999 V2000
   15.2539   -4.5471   -5.6218 C   0  0  0  1  0  0  0  0  0  0  0  0
   14.9557   -5.1664   -6.4418 H   0  0  0  1  0  0  0  0  0  0  0  0
   15.2070   -5.2620   -4.4169 O   0  0  0  1  0  0  0  0  0  0  0  0
   14.2573   -3.3967   -5.4185 C   0  0  0  1  0  0  0  0  0  0  0  0
   14.7192   -2.5697   -4.9207 H   0  0  0  1  0  0  0  0  0  0  0  0
   13.9922   -4.9993   -3.6790 C   0  0  0  1  0  0  0  0  0  0  0  0
   14.2167   -4.5545   -2.7321 H   0  0  0  1  0  0  0  0  0  0  0  0
   13.1965   -4.0268   -4.5546 C   0  0  0  1  0  0  0  0  0  0  0  0
   12.4762   -4.5479   -5.1501 H   0  0  0  1  0  0  0  0  0  0  0  0
   13.7139   -2.9599   -6.6651 O   0  0  0  1  0  0  0  0  0  0  0  0
   14.1877   -3.3806   -7.3862 H   0  0  0  1  0  0  0  0  0  0  0  0
    2.7831   -9.2308   -8.7514 C   0  0  0  1  0  0  0  0  0  0  0  0
    3.3651   -9.9096   -9.3392 H   0  0  0  1  0  0  0  0  0  0  0  0
    1.8443   -9.6830   -8.5085 H   0  0  0  1  0  0  0  0  0  0  0  0
    2.5244   -7.9866   -9.5644 C   0  0  0  1  0  0  0  0  0  0  0  0
    2.1463   -7.2270   -8.9125 H   0  0  0  1  0  0  0  0  0  0  0  0
    1.7919   -8.2141  -10.3104 H   0  0  0  1  0  0  0  0  0  0  0  0
    3.5039   -8.9497   -7.5085 N   0  0  0  1  0  0  0  0  0  0  0  0
    4.1954   -8.2553   -7.5095 H   0  0  0  1  0  0  0  0  0  0  0  0
    3.2516   -9.6068   -6.3729 C   0  0  0  1  0  0  0  0  0  0  0  0
    2.4117  -10.5019   -6.2893 O   0  0  0  1  0  0  0  0  0  0  0  0
    3.8805  -10.1001   -3.9735 C   0  0  0  1  0  0  0  0  0  0  0  0
    4.1087  -11.1032   -4.2677 H   0  0  0  1  0  0  0  0  0  0  0  0
    2.8604  -10.0444   -3.6554 H   0  0  0  1  0  0  0  0  0  0  0  0
    4.0673   -9.1844   -5.1762 C   0  0  0  1  0  0  0  0  0  0  0  0
    3.7758   -8.1932   -4.8981 H   0  0  0  1  0  0  0  0  0  0  0  0
    5.1016   -9.1889   -5.4503 H   0  0  0  1  0  0  0  0  0  0  0  0
    4.7433   -9.7332   -2.8491 N   0  0  0  1  0  0  0  0  0  0  0  0
    4.4839   -9.0001   -2.2527 H   0  0  0  1  0  0  0  0  0  0  0  0
    6.2652  -11.3278   -3.3337 O   0  0  0  1  0  0  0  0  0  0  0  0
    5.8931  -10.4013   -2.6326 C   0  0  0  1  0  0  0  0  0  0  0  0
    8.8164  -10.5712   -2.6209 C   0  0  0  1  0  0  0  0  0  0  0  0
    8.3085  -10.8978   -3.5042 H   0  0  0  1  0  0  0  0  0  0  0  0
    8.9088  -11.3901   -1.9385 H   0  0  0  1  0  0  0  0  0  0  0  0
    7.7510   -8.3792   -3.0557 C   0  0  0  1  0  0  0  0  0  0  0  0
    7.0764   -8.8027   -3.7702 H   0  0  0  1  0  0  0  0  0  0  0  0
    8.6594   -8.0980   -3.5464 H   0  0  0  1  0  0  0  0  0  0  0  0
    7.3030   -7.5152   -2.6110 H   0  0  0  1  0  0  0  0  0  0  0  0
    8.0581   -9.4134   -1.9661 C   0  0  0  1  0  0  0  0  0  0  0  0
    8.8765   -8.6894   -0.8753 C   0  0  0  1  0  0  0  0  0  0  0  0
    9.7192   -8.2055   -1.3232 H   0  0  0  1  0  0  0  0  0  0  0  0
    9.2169   -9.4020   -0.1533 H   0  0  0  1  0  0  0  0  0  0  0  0
    8.2607   -7.9591   -0.3935 H   0  0  0  1  0  0  0  0  0  0  0  0
    6.7149   -9.9311   -1.4491 C   0  0  0  1  0  0  0  0  0  0  0  0
    6.9095  -10.7784   -0.8253 H   0  0  0  1  0  0  0  0  0  0  0  0
    6.0937   -8.9129   -0.6737 O   0  0  0  1  0  0  0  0  0  0  0  0
    5.2728   -9.2470   -0.3048 H   0  0  0  1  0  0  0  0  0  0  0  0
   10.1214  -10.0429   -2.9552 O   0  0  0  1  0  0  0  0  0  0  0  0
   11.8159   -9.0351   -4.4003 O   0  0  0  1  0  0  0  0  0  0  0  0
   12.7182   -6.6922   -4.7572 O   0  0  0  1  0  0  0  0  0  0  0  0
   11.4884  -11.5505   -4.4784 O   0  0  0  0  0  0  0  0  0  0  0  0
    9.6819   -9.9602   -5.3961 O   0  0  0  1  0  0  0  0  0  0  0  0
   11.0537   -7.5976   -6.3107 O   0  0  0  0  0  0  0  0  0  0  0  0
   10.3577   -7.1075   -3.9425 O   0  0  0  1  0  0  0  0  0  0  0  0
   10.7473  -10.2650   -4.4087 P   0  0  0  1  0  0  0  0  0  0  0  0
   11.4210   -7.5770   -4.8610 P   0  0  0  1  0  0  0  0  0  0  0  0
   13.2242   -6.2623   -3.4669 C   0  0  0  1  0  0  0  0  0  0  0  0
   12.4092   -6.0850   -2.7966 H   0  0  0  1  0  0  0  0  0  0  0  0
   13.8658   -7.0146   -3.0580 H   0  0  0  1  0  0  0  0  0  0  0  0
   12.5259   -3.0309   -3.7470 O   0  0  0  1  0  0  0  0  0  0  0  0
   10.1362   -3.6060   -4.4401 O   0  0  0  1  0  0  0  0  0  0  0  0
   10.5549   -1.9220   -2.5651 O   0  5  0  1  0  0  0  0  0  0  0  0
   10.9858   -3.3192   -3.2626 P   0  0  0  1  0  0  0  0  0  0  0  0
   11.0762   -4.5287   -2.1887 O   0  5  0  1  0  0  0  0  0  0  0  0
   16.6100   -4.0258   -5.8669 N   0  0  0  1  0  0  0  0  0  0  0  0
   17.6431   -3.8365   -4.9857 C   0  0  0  1  0  0  0  0  0  0  0  0
   17.1169   -3.7376   -7.0968 C   0  0  0  1  0  0  0  0  0  0  0  0
   16.5449   -3.7902   -7.9638 H   0  0  0  1  0  0  0  0  0  0  0  0
   18.7363   -3.4424   -5.7689 C   0  0  0  1  0  0  0  0  0  0  0  0
   17.6295   -4.0033   -3.6624 N   0  0  0  1  0  0  0  0  0  0  0  0
   18.3751   -3.3902   -7.1062 N   0  0  0  1  0  0  0  0  0  0  0  0
   19.9183   -3.2067   -5.0730 C   0  0  0  1  0  0  0  0  0  0  0  0
   18.8158   -3.7373   -3.1296 C   0  0  0  1  0  0  0  0  0  0  0  0
   18.8787   -3.8423   -2.0968 H   0  0  0  1  0  0  0  0  0  0  0  0
   19.9452   -3.3511   -3.7437 N   0  0  0  1  0  0  0  0  0  0  0  0
   21.1321   -2.8184   -5.6403 N   0  0  0  1  0  0  0  0  0  0  0  0
   21.2008   -2.6885   -6.6092 H   0  0  0  1  0  0  0  0  0  0  0  0
   21.9160   -2.6754   -5.0699 H   0  0  0  1  0  0  0  0  0  0  0  0
    4.0050   -7.3527  -10.3874 S   0  0  0  1  0  0  0  0  0  0  0  0
    2.3921   -5.6801  -10.8149 O   0  0  0  1  0  0  0  0  0  0  0  0
    3.4954   -5.7483  -10.8863 C   0  0  0  1  0  0  0  0  0  0  0  0
    4.5879   -5.0407  -11.5482 C   0  0  0  1  0  0  0  0  0  0  0  0
    4.3109   -4.1514  -12.0108 H   0  0  0  1  0  0  0  0  0  0  0  0
    5.8805   -5.3448  -11.6582 C   0  0  0  1  0  0  0  0  0  0  0  0
    6.2013   -6.2266  -11.2099 H   0  0  0  1  0  0  0  0  0  0  0  0
    6.8997   -4.5343  -12.3643 C   0  0  0  1  0  0  0  0  0  0  0  0
    8.2235   -4.9454  -12.3598 C   0  0  0  1  0  0  0  0  0  0  0  0
    8.4947   -5.8197  -11.8662 H   0  0  0  1  0  0  0  0  0  0  0  0
    6.5385   -3.3751  -13.0247 C   0  0  0  1  0  0  0  0  0  0  0  0
    5.5447   -3.0687  -13.0315 H   0  0  0  1  0  0  0  0  0  0  0  0
    9.1831   -4.1935  -13.0111 C   0  0  0  1  0  0  0  0  0  0  0  0
   10.1769   -4.4999  -13.0042 H   0  0  0  1  0  0  0  0  0  0  0  0
    7.5007   -2.6209  -13.6780 C   0  0  0  1  0  0  0  0  0  0  0  0
    8.8206   -3.0309  -13.6734 C   0  0  0  1  0  0  0  0  0  0  0  0
    9.8134   -2.3483  -14.2939 O   0  0  0  1  0  0  0  0  0  0  0  0
    9.4967   -2.0189  -15.1382 H   0  0  0  1  0  0  0  0  0  0  0  0
    7.1476   -1.4824  -14.3206 O   0  0  0  1  0  0  0  0  0  0  0  0
    5.8076   -1.0054  -14.1219 C   0  0  0  1  0  0  0  0  0  0  0  0
    5.5771   -1.0127  -13.0771 H   0  0  0  1  0  0  0  0  0  0  0  0
    5.1222   -1.6410  -14.6426 H   0  0  0  1  0  0  0  0  0  0  0  0
    5.7252   -0.0071  -14.4981 H   0  0  0  1  0  0  0  0  0  0  0  0
  1  2  1  0  0  0  0
  1  3  1  0  0  0  0
  1  4  1  0  0  0  0
  1 65  1  0  0  0  0
  3  6  1  0  0  0  0
  4  5  1  0  0  0  0
  4  8  1  0  0  0  0
  4 10  1  0  0  0  0
  6  7  1  0  0  0  0
  6  8  1  0  0  0  0
  6 57  1  0  0  0  0
  8  9  1  0  0  0  0
  8 60  1  0  0  0  0
 10 11  1  0  0  0  0
 12 13  1  0  0  0  0
 12 14  1  0  0  0  0
 12 15  1  0  0  0  0
 12 18  1  0  0  0  0
 15 16  1  0  0  0  0
 15 17  1  0  0  0  0
 15 79  1  0  0  0  0
 18 19  1  0  0  0  0
 18 20  1  0  0  0  0
 20 21  2  0  0  0  0
 20 25  1  0  0  0  0
 22 23  1  0  0  0  0
 22 24  1  0  0  0  0
 22 25  1  0  0  0  0
 22 28  1  0  0  0  0
 25 26  1  0  0  0  0
 25 27  1  0  0  0  0
 28 29  1  0  0  0  0
 28 31  1  0  0  0  0
 30 31  2  0  0  0  0
 31 44  1  0  0  0  0
 32 33  1  0  0  0  0
 32 34  1  0  0  0  0
 32 39  1  0  0  0  0
 32 48  1  0  0  0  0
 35 36  1  0  0  0  0
 35 37  1  0  0  0  0
 35 38  1  0  0  0  0
 35 39  1  0  0  0  0
 39 40  1  0  0  0  0
 39 44  1  0  0  0  0
 40 41  1  0  0  0  0
 40 42  1  0  0  0  0
 40 43  1  0  0  0  0
 44 45  1  0  0  0  0
 44 46  1  0  0  0  0
 46 47  1  0  0  0  0
 48 55  1  0  0  0  0
 49 55  1  0  0  0  0
 49 56  1  0  0  0  0
 50 56  1  0  0  0  0
 50 57  1  0  0  0  0
 51 55  1  0  0  0  0
 52 55  2  0  0  0  0
 53 56  1  0  0  0  0
 54 56  2  0  0  0  0
 57 58  1  0  0  0  0
 57 59  1  0  0  0  0
 60 63  1  0  0  0  0
 61 63  2  0  0  0  0
 62 63  1  0  0  0  0
 63 64  1  0  0  0  0
 65 66  1  0  0  0  0
 65 67  1  0  0  0  0
 66 69  2  0  0  0  0
 66 70  1  0  0  0  0
 67 68  1  0  0  0  0
 67 71  2  0  0  0  0
 69 71  1  0  0  0  0
 69 72  1  0  0  0  0
 70 73  2  0  0  0  0
 72 75  2  0  0  0  0
 72 76  1  0  0  0  0
 73 74  1  0  0  0  0
 73 75  1  0  0  0  0
 76 77  1  0  0  0  0
 76 78  1  0  0  0  0
 79 81  1  0  0  0  0
 80 81  2  0  0  0  0
 81 82  1  0  0  0  0
 82 83  1  0  0  0  0
 82 84  2  0  0  0  0
 84 85  1  0  0  0  0
 84 86  1  0  0  0  0
 86 87  1  0  0  0  0
 86 89  2  0  0  0  0
 87 88  1  0  0  0  0
 87 91  2  0  0  0  0
 89 90  1  0  0  0  0
 89 93  1  0  0  0  0
 91 92  1  0  0  0  0
 91 94  1  0  0  0  0
 93 94  2  0  0  0  0
 93 97  1  0  0  0  0
 94 95  1  0  0  0  0
 95 96  1  0  0  0  0
 97 98  1  0  0  0  0
 98 99  1  0  0  0  0
 98100  1  0  0  0  0
 98101  1  0  0  0  0
M  BCL ATM C_TeTeTeTe H_S O_Te2Te2TeTe C_TeTeTeTe H_S C_TeTeTeTe H_S C_TeTeTeTe H_S O_Te2Te2TeTe H_S C_TeTeTeTe H_S H_S C_TeTeTeTe H_S H_S N_TrTrTrPi2 H_S C_TrTrTrPi O_Tr2Tr2TrPi C_TeTeTeTe H_S H_S C_TeTeTeTe H_S H_S N_TrTrTrPi2 H_S O_Tr2Tr2TrPi C_TrTrTrPi C_TeTeTeTe H_S H_S C_TeTeTeTe H_S H_S H_S C_TeTeTeTe C_TeTeTeTe H_S H_S H_S C_TeTeTeTe H_S O_Te2Te2TeTe H_S O_Tr2TrTrPi2 O_Tr2TrTrPi2 O_Tr2TrTrPi2 O_Te2Te2TeTe O_Tr2Tr2TrPi O_Te2Te2TeTe O_Tr2Tr2TrPi P_TeTeTeTePi P_TeTeTeTePi C_TeTeTeTe H_S H_S O_Tr2TrTrPi2 O_Tr2Tr2TrPi O_Te2Te2Te2Te P_TeTeTeTePi O_Te2Te2Te2Te N_TrTrTrPi2 C_TrTrTrPi C_TrTrTrPi H_S C_TrTrTrPi N_Tr2TrTrPi N_Tr2TrTrPi C_TrTrTrPi C_TrTrTrPi H_S N_Tr2TrTrPi N_TrTrTrPi2 H_S H_S S_Te2Te2TeTe O_Tr2Tr2TrPi C_TrTrTrPi C_TrTrTrPi H_S C_TrTrTrPi H_S C_TrTrTrPi C_TrTrTrPi H_S C_TrTrTrPi H_S C_TrTrTrPi H_S C_TrTrTrPi C_TrTrTrPi O_Te2Te2TeTe H_S O_Tr2TrTrPi2 C_TeTeTeTe H_S H_S H_S
M  BCL BND NonConjugatedSingleBond NonConjugatedSingleBondInRing NonConjugatedSingleBondInRing NonConjugatedSingleBond NonConjugatedSingleBondInRing NonConjugatedSingleBond NonConjugatedSingleBondInRing NonConjugatedSingleBond NonConjugatedSingleBond NonConjugatedSingleBondInRing NonConjugatedSingleBond NonConjugatedSingleBond NonConjugatedSingleBond NonConjugatedSingleBond NonConjugatedSingleBond NonConjugatedSingleBond NonConjugatedSingleBond NonConjugatedSingleBond NonConjugatedSingleBond NonConjugatedSingleBond NonConjugatedSingleBond NonConjugatedSingleBond AmideSingleBond ConjugatedDoubleBond NonConjugatedSingleBond NonConjugatedSingleBond NonConjugatedSingleBond NonConjugatedSingleBond NonConjugatedSingleBond NonConjugatedSingleBond NonConjugatedSingleBond NonConjugatedSingleBond AmideSingleBond ConjugatedDoubleBond NonConjugatedSingleBond NonConjugatedSingleBond NonConjugatedSingleBond NonConjugatedSingleBond NonConjugatedSingleBond NonConjugatedSingleBond NonConjugatedSingleBond NonConjugatedSingleBond NonConjugatedSingleBond NonConjugatedSingleBond NonConjugatedSingleBond NonConjugatedSingleBond NonConjugatedSingleBond NonConjugatedSingleBond NonConjugatedSingleBond NonConjugatedSingleBond NonConjugatedSingleBond ConjugatedSingleBond ConjugatedSingleBond ConjugatedSingleBond ConjugatedSingleBond NonConjugatedSingleBond ConjugatedSingleBond ConjugatedDoubleBond ConjugatedSingleBond ConjugatedDoubleBond NonConjugatedSingleBond NonConjugatedSingleBond ConjugatedSingleBond ConjugatedDoubleBond ConjugatedSingleBond ConjugatedSingleBond AromaticSingleBond AromaticSingleBond AromaticDoubleBond AromaticSingleBond NonConjugatedSingleBond AromaticDoubleBond AromaticSingleBond AromaticSingleBond AromaticDoubleBond AromaticDoubleBond ConjugatedSingleBond NonConjugatedSingleBond AromaticSingleBond NonConjugatedSingleBond NonConjugatedSingleBond ConjugatedSingleBond ConjugatedDoubleBond ConjugatedSingleBond NonConjugatedSingleBond ConjugatedDoubleBond NonConjugatedSingleBond ConjugatedSingleBond AromaticSingleBond AromaticDoubleBond NonConjugatedSingleBond AromaticDoubleBond NonConjugatedSingleBond AromaticSingleBond NonConjugatedSingleBond AromaticSingleBond AromaticDoubleBond ConjugatedSingleBond ConjugatedSingleBond NonConjugatedSingleBond NonConjugatedSingleBond NonConjugatedSingleBond NonConjugatedSingleBond NonConjugatedSingleBond
M  BCL CHI   1   R   4   R   6   R   8   S  44   S  55   S  56   R
M  BCL DBI - - - - - - - - - - E - - -
M  END
> <ConfClashScore>
0 

> <ConfOneFourInteractionScore>
-0.98316 

> <ConfScore>
-0.161765 

> <ConfScorePBest>
0.0148925 

> <ConfTolerance>
0.25 

$$$$
L02.****
  PyMOL2.5          3D                             0

101104  0  0  0  0  0  0  0  0999 V2000
   15.2744   -4.5447   -5.5638 C   0  0  0  1  0  0  0  0  0  0  0  0
   14.9070   -5.0957   -6.4043 H   0  0  0  1  0  0  0  0  0  0  0  0
   15.3313   -5.3759   -4.4390 O   0  0  0  1  0  0  0  0  0  0  0  0
   14.3215   -3.3816   -5.2458 C   0  0  0  1  0  0  0  0  0  0  0  0
   14.7353   -2.4467   -5.5615 H   0  0  0  1  0  0  0  0  0  0  0  0
   14.4029   -4.9143   -3.4110 C   0  0  0  1  0  0  0  0  0  0  0  0
   14.8223   -5.0450   -2.4353 H   0  0  0  1  0  0  0  0  0  0  0  0
   14.2064   -3.4472   -3.7170 C   0  0  0  1  0  0  0  0  0  0  0  0
   13.2430   -3.1144   -3.3914 H   0  0  0  1  0  0  0  0  0  0  0  0
   13.0495   -3.5738   -5.8664 O   0  0  0  1  0  0  0  0  0  0  0  0
   12.8820   -4.5134   -5.9696 H   0  0  0  1  0  0  0  0  0  0  0  0
   16.7251   -4.3354    0.9683 C   0  0  0  1  0  0  0  0  0  0  0  0
   17.2818   -3.4882    1.3108 H   0  0  0  1  0  0  0  0  0  0  0  0
   16.0423   -4.0287    0.2036 H   0  0  0  1  0  0  0  0  0  0  0  0
   15.9357   -4.8946    2.1250 C   0  0  0  1  0  0  0  0  0  0  0  0
   15.2834   -5.6529    1.7452 H   0  0  0  1  0  0  0  0  0  0  0  0
   15.3540   -4.1002    2.5440 H   0  0  0  1  0  0  0  0  0  0  0  0
   17.6518   -5.3053    0.4042 N   0  0  0  1  0  0  0  0  0  0  0  0
   18.5869   -5.3161    0.6975 H   0  0  0  1  0  0  0  0  0  0  0  0
   17.2173   -6.2088   -0.5417 C   0  0  0  1  0  0  0  0  0  0  0  0
   16.0791   -6.1470   -0.9667 O   0  0  0  1  0  0  0  0  0  0  0  0
   17.9786   -7.7404   -2.3994 C   0  0  0  1  0  0  0  0  0  0  0  0
   18.8025   -8.3513   -2.7043 H   0  0  0  1  0  0  0  0  0  0  0  0
   17.8878   -6.9060   -3.0630 H   0  0  0  1  0  0  0  0  0  0  0  0
   18.2256   -7.2330   -0.9847 C   0  0  0  1  0  0  0  0  0  0  0  0
   18.1843   -8.0645   -0.3126 H   0  0  0  1  0  0  0  0  0  0  0  0
   19.1993   -6.7910   -0.9467 H   0  0  0  1  0  0  0  0  0  0  0  0
   16.7474   -8.5312   -2.4465 N   0  0  0  1  0  0  0  0  0  0  0  0
   16.4306   -8.9912   -1.6412 H   0  0  0  1  0  0  0  0  0  0  0  0
   16.4112   -8.0361   -4.6105 O   0  0  0  1  0  0  0  0  0  0  0  0
   16.0491   -8.6280   -3.5946 C   0  0  0  1  0  0  0  0  0  0  0  0
   14.7440   -9.7380   -6.0718 C   0  0  0  1  0  0  0  0  0  0  0  0
   14.8166  -10.4293   -6.8853 H   0  0  0  1  0  0  0  0  0  0  0  0
   15.5604   -9.0477   -6.1158 H   0  0  0  1  0  0  0  0  0  0  0  0
   16.0488  -11.3427   -4.6667 C   0  0  0  1  0  0  0  0  0  0  0  0
   16.8251  -10.7793   -4.1925 H   0  0  0  1  0  0  0  0  0  0  0  0
   16.3551  -11.6082   -5.6569 H   0  0  0  1  0  0  0  0  0  0  0  0
   15.8573  -12.2310   -4.1018 H   0  0  0  1  0  0  0  0  0  0  0  0
   14.7719  -10.4966   -4.7366 C   0  0  0  1  0  0  0  0  0  0  0  0
   13.5373  -11.4016   -4.5859 C   0  0  0  1  0  0  0  0  0  0  0  0
   13.4324  -12.0110   -5.4591 H   0  0  0  1  0  0  0  0  0  0  0  0
   12.6635  -10.7955   -4.4671 H   0  0  0  1  0  0  0  0  0  0  0  0
   13.6572  -12.0278   -3.7266 H   0  0  0  1  0  0  0  0  0  0  0  0
   14.8046   -9.4867   -3.5993 C   0  0  0  1  0  0  0  0  0  0  0  0
   13.9497   -8.8492   -3.6863 H   0  0  0  1  0  0  0  0  0  0  0  0
   14.7360  -10.2220   -2.3712 O   0  0  0  1  0  0  0  0  0  0  0  0
   14.2877   -9.6942   -1.7063 H   0  0  0  1  0  0  0  0  0  0  0  0
   13.4887   -9.0219   -6.1441 O   0  0  0  1  0  0  0  0  0  0  0  0
   11.8195   -7.2921   -6.7803 O   0  0  0  1  0  0  0  0  0  0  0  0
   12.9284   -6.1648   -4.8337 O   0  0  0  1  0  0  0  0  0  0  0  0
   14.1835   -6.9243   -7.2158 O   0  0  0  0  0  0  0  0  0  0  0  0
   12.9182   -8.6761   -8.5759 O   0  0  0  1  0  0  0  0  0  0  0  0
   10.6044   -5.5613   -5.3776 O   0  0  0  0  0  0  0  0  0  0  0  0
   11.1445   -7.9309   -4.5249 O   0  0  0  1  0  0  0  0  0  0  0  0
   13.1467   -7.9794   -7.2964 P   0  0  0  1  0  0  0  0  0  0  0  0
   11.5046   -6.7292   -5.2946 P   0  0  0  1  0  0  0  0  0  0  0  0
   13.1223   -5.6424   -3.4983 C   0  0  0  1  0  0  0  0  0  0  0  0
   12.3205   -4.9746   -3.2613 H   0  0  0  1  0  0  0  0  0  0  0  0
   13.1299   -6.4534   -2.8004 H   0  0  0  1  0  0  0  0  0  0  0  0
   15.2308   -2.6471   -3.0876 O   0  0  0  1  0  0  0  0  0  0  0  0
   13.6897   -0.8168   -2.1633 O   0  0  0  1  0  0  0  0  0  0  0  0
   16.1755   -0.7189   -1.6124 O   0  5  0  1  0  0  0  0  0  0  0  0
   14.8688   -1.6497   -1.8371 P   0  0  0  1  0  0  0  0  0  0  0  0
   14.7172   -2.6181   -0.5473 O   0  5  0  1  0  0  0  0  0  0  0  0
   16.6077   -4.0257   -5.8654 N   0  0  0  1  0  0  0  0  0  0  0  0
   17.6432   -3.8366   -4.9869 C   0  0  0  1  0  0  0  0  0  0  0  0
   17.1113   -3.7370   -7.0966 C   0  0  0  1  0  0  0  0  0  0  0  0
   16.5370   -3.7894   -7.9620 H   0  0  0  1  0  0  0  0  0  0  0  0
   18.7343   -3.4422   -5.7729 C   0  0  0  1  0  0  0  0  0  0  0  0
   17.6333   -4.0040   -3.6637 N   0  0  0  1  0  0  0  0  0  0  0  0
   18.3695   -3.3895   -7.1092 N   0  0  0  1  0  0  0  0  0  0  0  0
   19.9181   -3.2066   -5.0802 C   0  0  0  1  0  0  0  0  0  0  0  0
   18.8210   -3.7381   -3.1340 C   0  0  0  1  0  0  0  0  0  0  0  0
   18.8867   -3.8434   -2.1014 H   0  0  0  1  0  0  0  0  0  0  0  0
   19.9487   -3.3515   -3.7510 N   0  0  0  1  0  0  0  0  0  0  0  0
   21.1266   -2.8191   -5.6489 N   0  0  0  1  0  0  0  0  0  0  0  0
   21.9044   -2.6482   -5.0777 H   0  0  0  1  0  0  0  0  0  0  0  0
   21.2004   -2.7169   -6.6207 H   0  0  0  1  0  0  0  0  0  0  0  0
   16.9279   -5.6218    3.4508 S   0  0  0  1  0  0  0  0  0  0  0  0
   17.0246   -7.5430    1.6523 O   0  0  0  1  0  0  0  0  0  0  0  0
   17.3667   -7.2314    2.7616 C   0  0  0  1  0  0  0  0  0  0  0  0
   18.1497   -8.0656    3.6741 C   0  0  0  1  0  0  0  0  0  0  0  0
   18.3553   -7.6547    4.6071 H   0  0  0  1  0  0  0  0  0  0  0  0
   18.6308   -9.2884    3.4534 C   0  0  0  1  0  0  0  0  0  0  0  0
   18.4353   -9.7160    2.5258 H   0  0  0  1  0  0  0  0  0  0  0  0
   19.4202  -10.0910    4.4162 C   0  0  0  1  0  0  0  0  0  0  0  0
   19.8408  -11.3636    4.0625 C   0  0  0  1  0  0  0  0  0  0  0  0
   19.6050  -11.7472    3.1250 H   0  0  0  1  0  0  0  0  0  0  0  0
   19.7381   -9.5792    5.6601 C   0  0  0  1  0  0  0  0  0  0  0  0
   19.4261   -8.6228    5.9240 H   0  0  0  1  0  0  0  0  0  0  0  0
   20.5733  -12.1227    4.9555 C   0  0  0  1  0  0  0  0  0  0  0  0
   20.8853  -13.0790    4.6916 H   0  0  0  1  0  0  0  0  0  0  0  0
   20.4728  -10.3403    6.5559 C   0  0  0  1  0  0  0  0  0  0  0  0
   20.8920  -11.6092    6.2030 C   0  0  0  1  0  0  0  0  0  0  0  0
   21.6121  -12.3130    7.1102 O   0  0  0  1  0  0  0  0  0  0  0  0
   22.4923  -12.4761    6.7637 H   0  0  0  1  0  0  0  0  0  0  0  0
   20.8619   -9.8079    7.7386 O   0  0  0  1  0  0  0  0  0  0  0  0
   20.4378   -8.4661    8.0255 C   0  0  0  1  0  0  0  0  0  0  0  0
   21.1405   -7.7733    7.6118 H   0  0  0  1  0  0  0  0  0  0  0  0
   20.3832   -8.3284    9.0852 H   0  0  0  1  0  0  0  0  0  0  0  0
   19.4737   -8.2970    7.5932 H   0  0  0  1  0  0  0  0  0  0  0  0
  1  2  1  0  0  0  0
  1  3  1  0  0  0  0
  1  4  1  0  0  0  0
  1 65  1  0  0  0  0
  3  6  1  0  0  0  0
  4  5  1  0  0  0  0
  4  8  1  0  0  0  0
  4 10  1  0  0  0  0
  6  7  1  0  0  0  0
  6  8  1  0  0  0  0
  6 57  1  0  0  0  0
  8  9  1  0  0  0  0
  8 60  1  0  0  0  0
 10 11  1  0  0  0  0
 12 13  1  0  0  0  0
 12 14  1  0  0  0  0
 12 15  1  0  0  0  0
 12 18  1  0  0  0  0
 15 16  1  0  0  0  0
 15 17  1  0  0  0  0
 15 79  1  0  0  0  0
 18 19  1  0  0  0  0
 18 20  1  0  0  0  0
 20 21  2  0  0  0  0
 20 25  1  0  0  0  0
 22 23  1  0  0  0  0
 22 24  1  0  0  0  0
 22 25  1  0  0  0  0
 22 28  1  0  0  0  0
 25 26  1  0  0  0  0
 25 27  1  0  0  0  0
 28 29  1  0  0  0  0
 28 31  1  0  0  0  0
 30 31  2  0  0  0  0
 31 44  1  0  0  0  0
 32 33  1  0  0  0  0
 32 34  1  0  0  0  0
 32 39  1  0  0  0  0
 32 48  1  0  0  0  0
 35 36  1  0  0  0  0
 35 37  1  0  0  0  0
 35 38  1  0  0  0  0
 35 39  1  0  0  0  0
 39 40  1  0  0  0  0
 39 44  1  0  0  0  0
 40 41  1  0  0  0  0
 40 42  1  0  0  0  0
 40 43  1  0  0  0  0
 44 45  1  0  0  0  0
 44 46  1  0  0  0  0
 46 47  1  0  0  0  0
 48 55  1  0  0  0  0
 49 55  1  0  0  0  0
 49 56  1  0  0  0  0
 50 56  1  0  0  0  0
 50 57  1  0  0  0  0
 51 55  1  0  0  0  0
 52 55  2  0  0  0  0
 53 56  1  0  0  0  0
 54 56  2  0  0  0  0
 57 58  1  0  0  0  0
 57 59  1  0  0  0  0
 60 63  1  0  0  0  0
 61 63  2  0  0  0  0
 62 63  1  0  0  0  0
 63 64  1  0  0  0  0
 65 66  1  0  0  0  0
 65 67  1  0  0  0  0
 66 69  2  0  0  0  0
 66 70  1  0  0  0  0
 67 68  1  0  0  0  0
 67 71  2  0  0  0  0
 69 71  1  0  0  0  0
 69 72  1  0  0  0  0
 70 73  2  0  0  0  0
 72 75  2  0  0  0  0
 72 76  1  0  0  0  0
 73 74  1  0  0  0  0
 73 75  1  0  0  0  0
 76 77  1  0  0  0  0
 76 78  1  0  0  0  0
 79 81  1  0  0  0  0
 80 81  2  0  0  0  0
 81 82  1  0  0  0  0
 82 83  1  0  0  0  0
 82 84  2  0  0  0  0
 84 85  1  0  0  0  0
 84 86  1  0  0  0  0
 86 87  1  0  0  0  0
 86 89  2  0  0  0  0
 87 88  1  0  0  0  0
 87 91  2  0  0  0  0
 89 90  1  0  0  0  0
 89 93  1  0  0  0  0
 91 92  1  0  0  0  0
 91 94  1  0  0  0  0
 93 94  2  0  0  0  0
 93 97  1  0  0  0  0
 94 95  1  0  0  0  0
 95 96  1  0  0  0  0
 97 98  1  0  0  0  0
 98 99  1  0  0  0  0
 98100  1  0  0  0  0
 98101  1  0  0  0  0
M  BCL ATM C_TeTeTeTe H_S O_Te2Te2TeTe C_TeTeTeTe H_S C_TeTeTeTe H_S C_TeTeTeTe H_S O_Te2Te2TeTe H_S C_TeTeTeTe H_S H_S C_TeTeTeTe H_S H_S N_TrTrTrPi2 H_S C_TrTrTrPi O_Tr2Tr2TrPi C_TeTeTeTe H_S H_S C_TeTeTeTe H_S H_S N_TrTrTrPi2 H_S O_Tr2Tr2TrPi C_TrTrTrPi C_TeTeTeTe H_S H_S C_TeTeTeTe H_S H_S H_S C_TeTeTeTe C_TeTeTeTe H_S H_S H_S C_TeTeTeTe H_S O_Te2Te2TeTe H_S O_Tr2TrTrPi2 O_Tr2TrTrPi2 O_Tr2TrTrPi2 O_Te2Te2TeTe O_Tr2Tr2TrPi O_Te2Te2TeTe O_Tr2Tr2TrPi P_TeTeTeTePi P_TeTeTeTePi C_TeTeTeTe H_S H_S O_Tr2TrTrPi2 O_Tr2Tr2TrPi O_Te2Te2Te2Te P_TeTeTeTePi O_Te2Te2Te2Te N_TrTrTrPi2 C_TrTrTrPi C_TrTrTrPi H_S C_TrTrTrPi N_Tr2TrTrPi N_Tr2TrTrPi C_TrTrTrPi C_TrTrTrPi H_S N_Tr2TrTrPi N_TrTrTrPi2 H_S H_S S_Te2Te2TeTe O_Tr2Tr2TrPi C_TrTrTrPi C_TrTrTrPi H_S C_TrTrTrPi H_S C_TrTrTrPi C_TrTrTrPi H_S C_TrTrTrPi H_S C_TrTrTrPi H_S C_TrTrTrPi C_TrTrTrPi O_Te2Te2TeTe H_S O_Tr2TrTrPi2 C_TeTeTeTe H_S H_S H_S
M  BCL BND NonConjugatedSingleBond NonConjugatedSingleBondInRing NonConjugatedSingleBondInRing NonConjugatedSingleBond NonConjugatedSingleBondInRing NonConjugatedSingleBond NonConjugatedSingleBondInRing NonConjugatedSingleBond NonConjugatedSingleBond NonConjugatedSingleBondInRing NonConjugatedSingleBond NonConjugatedSingleBond NonConjugatedSingleBond NonConjugatedSingleBond NonConjugatedSingleBond NonConjugatedSingleBond NonConjugatedSingleBond NonConjugatedSingleBond NonConjugatedSingleBond NonConjugatedSingleBond NonConjugatedSingleBond NonConjugatedSingleBond AmideSingleBond ConjugatedDoubleBond NonConjugatedSingleBond NonConjugatedSingleBond NonConjugatedSingleBond NonConjugatedSingleBond NonConjugatedSingleBond NonConjugatedSingleBond NonConjugatedSingleBond NonConjugatedSingleBond AmideSingleBond ConjugatedDoubleBond NonConjugatedSingleBond NonConjugatedSingleBond NonConjugatedSingleBond NonConjugatedSingleBond NonConjugatedSingleBond NonConjugatedSingleBond NonConjugatedSingleBond NonConjugatedSingleBond NonConjugatedSingleBond NonConjugatedSingleBond NonConjugatedSingleBond NonConjugatedSingleBond NonConjugatedSingleBond NonConjugatedSingleBond NonConjugatedSingleBond NonConjugatedSingleBond NonConjugatedSingleBond ConjugatedSingleBond ConjugatedSingleBond ConjugatedSingleBond ConjugatedSingleBond NonConjugatedSingleBond ConjugatedSingleBond ConjugatedDoubleBond ConjugatedSingleBond ConjugatedDoubleBond NonConjugatedSingleBond NonConjugatedSingleBond ConjugatedSingleBond ConjugatedDoubleBond ConjugatedSingleBond ConjugatedSingleBond AromaticSingleBond AromaticSingleBond AromaticDoubleBond AromaticSingleBond NonConjugatedSingleBond AromaticDoubleBond AromaticSingleBond AromaticSingleBond AromaticDoubleBond AromaticDoubleBond ConjugatedSingleBond NonConjugatedSingleBond AromaticSingleBond NonConjugatedSingleBond NonConjugatedSingleBond ConjugatedSingleBond ConjugatedDoubleBond ConjugatedSingleBond NonConjugatedSingleBond ConjugatedDoubleBond NonConjugatedSingleBond ConjugatedSingleBond AromaticSingleBond AromaticDoubleBond NonConjugatedSingleBond AromaticDoubleBond NonConjugatedSingleBond AromaticSingleBond NonConjugatedSingleBond AromaticSingleBond AromaticDoubleBond ConjugatedSingleBond ConjugatedSingleBond NonConjugatedSingleBond NonConjugatedSingleBond NonConjugatedSingleBond NonConjugatedSingleBond NonConjugatedSingleBond
M  BCL CHI   1   R   4   R   6   R   8   S  44   S  55   S  56   R
M  BCL DBI - - - - - - - - - - E - - -
M  END
> <ConfClashScore>
0 

> <ConfOneFourInteractionScore>
-0.983399 

> <ConfScore>
-0.160837 

> <ConfScorePBest>
0.0147895 

> <ConfTolerance>
2.92689 

$$$$
L02.****
  PyMOL2.5          3D                             0

101104  0  0  0  0  0  0  0  0999 V2000
   15.2798   -4.5367   -5.5773 C   0  0  0  1  0  0  0  0  0  0  0  0
   15.0547   -5.3401   -6.2471 H   0  0  0  1  0  0  0  0  0  0  0  0
   15.1953   -4.9816   -4.2047 O   0  0  0  1  0  0  0  0  0  0  0  0
   14.2338   -3.4247   -5.7009 C   0  0  0  1  0  0  0  0  0  0  0  0
   14.6820   -2.4609   -5.5784 H   0  0  0  1  0  0  0  0  0  0  0  0
   14.2078   -4.2905   -3.4890 C   0  0  0  1  0  0  0  0  0  0  0  0
   14.6411   -3.5011   -2.9110 H   0  0  0  1  0  0  0  0  0  0  0  0
   13.2804   -3.7242   -4.5740 C   0  0  0  1  0  0  0  0  0  0  0  0
   12.5476   -4.4456   -4.8701 H   0  0  0  1  0  0  0  0  0  0  0  0
   13.5689   -3.4846   -6.9645 O   0  0  0  1  0  0  0  0  0  0  0  0
   12.6829   -3.1254   -6.8778 H   0  0  0  1  0  0  0  0  0  0  0  0
    7.5468    6.7446    6.0415 C   0  0  0  1  0  0  0  0  0  0  0  0
    6.4769    6.7486    6.0288 H   0  0  0  1  0  0  0  0  0  0  0  0
    7.8918    6.6719    7.0517 H   0  0  0  1  0  0  0  0  0  0  0  0
    8.0420    8.0428    5.4538 C   0  0  0  1  0  0  0  0  0  0  0  0
    9.0840    8.1502    5.6720 H   0  0  0  1  0  0  0  0  0  0  0  0
    7.4997    8.8543    5.8924 H   0  0  0  1  0  0  0  0  0  0  0  0
    8.0204    5.5753    5.2988 N   0  0  0  1  0  0  0  0  0  0  0  0
    7.4338    5.2126    4.6025 H   0  0  0  1  0  0  0  0  0  0  0  0
    9.1921    4.9652    5.4987 C   0  0  0  1  0  0  0  0  0  0  0  0
   10.0154    5.3510    6.3276 O   0  0  0  1  0  0  0  0  0  0  0  0
   10.8109    3.1225    4.9047 C   0  0  0  1  0  0  0  0  0  0  0  0
   10.8748    2.8722    5.9430 H   0  0  0  1  0  0  0  0  0  0  0  0
   11.5751    3.8304    4.6603 H   0  0  0  1  0  0  0  0  0  0  0  0
    9.4558    3.7578    4.6393 C   0  0  0  1  0  0  0  0  0  0  0  0
    9.4143    4.0551    3.6123 H   0  0  0  1  0  0  0  0  0  0  0  0
    8.6951    3.0302    4.8315 H   0  0  0  1  0  0  0  0  0  0  0  0
   11.0243    1.9188    4.1221 N   0  0  0  1  0  0  0  0  0  0  0  0
   11.3534    1.9688    3.2003 H   0  0  0  1  0  0  0  0  0  0  0  0
   10.3028    0.6277    5.8345 O   0  0  0  1  0  0  0  0  0  0  0  0
   10.7574    0.7322    4.6983 C   0  0  0  1  0  0  0  0  0  0  0  0
   10.0941   -2.4028    2.5586 C   0  0  0  1  0  0  0  0  0  0  0  0
    9.1979   -2.9318    2.3097 H   0  0  0  1  0  0  0  0  0  0  0  0
   10.7600   -3.0555    3.0836 H   0  0  0  1  0  0  0  0  0  0  0  0
    9.0347   -1.6995    4.6828 C   0  0  0  1  0  0  0  0  0  0  0  0
    8.1897   -2.2878    4.3916 H   0  0  0  1  0  0  0  0  0  0  0  0
    8.7047   -0.8673    5.2688 H   0  0  0  1  0  0  0  0  0  0  0  0
    9.7050   -2.3003    5.2613 H   0  0  0  1  0  0  0  0  0  0  0  0
    9.7580   -1.1880    3.4312 C   0  0  0  1  0  0  0  0  0  0  0  0
    8.8402   -0.2390    2.6518 C   0  0  0  1  0  0  0  0  0  0  0  0
    7.9452   -0.7555    2.3742 H   0  0  0  1  0  0  0  0  0  0  0  0
    9.3438    0.1002    1.7708 H   0  0  0  1  0  0  0  0  0  0  0  0
    8.5911    0.6007    3.2665 H   0  0  0  1  0  0  0  0  0  0  0  0
   11.0536   -0.4917    3.8536 C   0  0  0  1  0  0  0  0  0  0  0  0
   11.6244   -1.1781    4.4436 H   0  0  0  1  0  0  0  0  0  0  0  0
   11.7570   -0.1882    2.6604 O   0  0  0  1  0  0  0  0  0  0  0  0
   12.5851   -0.6735    2.6442 H   0  0  0  1  0  0  0  0  0  0  0  0
   10.7297   -1.9158    1.3534 O   0  0  0  1  0  0  0  0  0  0  0  0
   10.7723   -3.6776   -0.4518 O   0  0  0  1  0  0  0  0  0  0  0  0
   12.5751   -4.4145   -1.7655 O   0  0  0  1  0  0  0  0  0  0  0  0
   12.4992   -1.9847   -0.4963 O   0  0  0  0  0  0  0  0  0  0  0  0
   12.4447   -3.6294    1.4707 O   0  0  0  1  0  0  0  0  0  0  0  0
   10.5417   -5.9459   -1.6039 O   0  0  0  0  0  0  0  0  0  0  0  0
   10.4108   -3.7900   -2.9742 O   0  0  0  1  0  0  0  0  0  0  0  0
   11.7444   -2.7989    0.4777 P   0  0  0  1  0  0  0  0  0  0  0  0
   10.9528   -4.5371   -1.8243 P   0  0  0  1  0  0  0  0  0  0  0  0
   13.4620   -5.2176   -2.5867 C   0  0  0  1  0  0  0  0  0  0  0  0
   14.1493   -5.7526   -1.9652 H   0  0  0  1  0  0  0  0  0  0  0  0
   12.8915   -5.9115   -3.1681 H   0  0  0  1  0  0  0  0  0  0  0  0
   12.6156   -2.5181   -4.1167 O   0  0  0  1  0  0  0  0  0  0  0  0
   12.3711   -1.2133   -6.3689 O   0  0  0  1  0  0  0  0  0  0  0  0
   11.3013   -0.2732   -4.2128 O   0  5  0  1  0  0  0  0  0  0  0  0
   11.7046   -1.5696   -5.0965 P   0  0  0  1  0  0  0  0  0  0  0  0
   10.3288   -2.4227   -5.1595 O   0  5  0  1  0  0  0  0  0  0  0  0
   16.6210   -4.0170   -5.8687 N   0  0  0  1  0  0  0  0  0  0  0  0
   17.6513   -3.8348   -4.9828 C   0  0  0  1  0  0  0  0  0  0  0  0
   17.1329   -3.7227   -7.0952 C   0  0  0  1  0  0  0  0  0  0  0  0
   16.5639   -3.7692   -7.9644 H   0  0  0  1  0  0  0  0  0  0  0  0
   18.7481   -3.4384   -5.7598 C   0  0  0  1  0  0  0  0  0  0  0  0
   17.6327   -4.0092   -3.6606 N   0  0  0  1  0  0  0  0  0  0  0  0
   18.3918   -3.3778   -7.0981 N   0  0  0  1  0  0  0  0  0  0  0  0
   19.9281   -3.2090   -5.0584 C   0  0  0  1  0  0  0  0  0  0  0  0
   18.8176   -3.7486   -3.1220 C   0  0  0  1  0  0  0  0  0  0  0  0
   18.8766   -3.8596   -2.0896 H   0  0  0  1  0  0  0  0  0  0  0  0
   19.9500   -3.3611   -3.7299 N   0  0  0  1  0  0  0  0  0  0  0  0
   21.0958   -2.8273   -5.6647 N   0  0  0  1  0  0  0  0  0  0  0  0
   21.8720   -2.5787   -5.1205 H   0  0  0  1  0  0  0  0  0  0  0  0
   21.1549   -2.8029   -6.6426 H   0  0  0  1  0  0  0  0  0  0  0  0
    7.8076    8.0767    3.6608 S   0  0  0  1  0  0  0  0  0  0  0  0
   10.3063    7.1679    3.7573 O   0  0  0  1  0  0  0  0  0  0  0  0
    9.3243    7.3387    3.0661 C   0  0  0  1  0  0  0  0  0  0  0  0
    9.2075    6.9804    1.6559 C   0  0  0  1  0  0  0  0  0  0  0  0
    8.3405    7.2426    1.1450 H   0  0  0  1  0  0  0  0  0  0  0  0
   10.1660    6.3310    0.9963 C   0  0  0  1  0  0  0  0  0  0  0  0
   11.0330    6.0687    1.5072 H   0  0  0  1  0  0  0  0  0  0  0  0
   10.0475    5.9674   -0.4349 C   0  0  0  1  0  0  0  0  0  0  0  0
    8.9109    6.3300   -1.1406 C   0  0  0  1  0  0  0  0  0  0  0  0
    8.1504    6.8572   -0.6660 H   0  0  0  1  0  0  0  0  0  0  0  0
   11.0606    5.2715   -1.0670 C   0  0  0  1  0  0  0  0  0  0  0  0
   11.9151    5.0029   -0.5386 H   0  0  0  1  0  0  0  0  0  0  0  0
    8.7882    5.9909   -2.4749 C   0  0  0  1  0  0  0  0  0  0  0  0
    7.9336    6.2595   -3.0032 H   0  0  0  1  0  0  0  0  0  0  0  0
   10.9377    4.9313   -2.4052 C   0  0  0  1  0  0  0  0  0  0  0  0
    9.8043    5.2929   -3.1087 C   0  0  0  1  0  0  0  0  0  0  0  0
    9.6172    4.9996   -4.4186 O   0  0  0  1  0  0  0  0  0  0  0  0
    9.1539    5.7237   -4.8460 H   0  0  0  1  0  0  0  0  0  0  0  0
   11.8560    4.2506   -3.1251 O   0  0  0  1  0  0  0  0  0  0  0  0
   13.1448    3.9799   -2.5520 C   0  0  0  1  0  0  0  0  0  0  0  0
   13.8880    3.9943   -3.3217 H   0  0  0  1  0  0  0  0  0  0  0  0
   13.1326    3.0167   -2.0863 H   0  0  0  1  0  0  0  0  0  0  0  0
   13.3740    4.7271   -1.8212 H   0  0  0  1  0  0  0  0  0  0  0  0
  1  2  1  0  0  0  0
  1  3  1  0  0  0  0
  1  4  1  0  0  0  0
  1 65  1  0  0  0  0
  3  6  1  0  0  0  0
  4  5  1  0  0  0  0
  4  8  1  0  0  0  0
  4 10  1  0  0  0  0
  6  7  1  0  0  0  0
  6  8  1  0  0  0  0
  6 57  1  0  0  0  0
  8  9  1  0  0  0  0
  8 60  1  0  0  0  0
 10 11  1  0  0  0  0
 12 13  1  0  0  0  0
 12 14  1  0  0  0  0
 12 15  1  0  0  0  0
 12 18  1  0  0  0  0
 15 16  1  0  0  0  0
 15 17  1  0  0  0  0
 15 79  1  0  0  0  0
 18 19  1  0  0  0  0
 18 20  1  0  0  0  0
 20 21  2  0  0  0  0
 20 25  1  0  0  0  0
 22 23  1  0  0  0  0
 22 24  1  0  0  0  0
 22 25  1  0  0  0  0
 22 28  1  0  0  0  0
 25 26  1  0  0  0  0
 25 27  1  0  0  0  0
 28 29  1  0  0  0  0
 28 31  1  0  0  0  0
 30 31  2  0  0  0  0
 31 44  1  0  0  0  0
 32 33  1  0  0  0  0
 32 34  1  0  0  0  0
 32 39  1  0  0  0  0
 32 48  1  0  0  0  0
 35 36  1  0  0  0  0
 35 37  1  0  0  0  0
 35 38  1  0  0  0  0
 35 39  1  0  0  0  0
 39 40  1  0  0  0  0
 39 44  1  0  0  0  0
 40 41  1  0  0  0  0
 40 42  1  0  0  0  0
 40 43  1  0  0  0  0
 44 45  1  0  0  0  0
 44 46  1  0  0  0  0
 46 47  1  0  0  0  0
 48 55  1  0  0  0  0
 49 55  1  0  0  0  0
 49 56  1  0  0  0  0
 50 56  1  0  0  0  0
 50 57  1  0  0  0  0
 51 55  1  0  0  0  0
 52 55  2  0  0  0  0
 53 56  1  0  0  0  0
 54 56  2  0  0  0  0
 57 58  1  0  0  0  0
 57 59  1  0  0  0  0
 60 63  1  0  0  0  0
 61 63  2  0  0  0  0
 62 63  1  0  0  0  0
 63 64  1  0  0  0  0
 65 66  1  0  0  0  0
 65 67  1  0  0  0  0
 66 69  2  0  0  0  0
 66 70  1  0  0  0  0
 67 68  1  0  0  0  0
 67 71  2  0  0  0  0
 69 71  1  0  0  0  0
 69 72  1  0  0  0  0
 70 73  2  0  0  0  0
 72 75  2  0  0  0  0
 72 76  1  0  0  0  0
 73 74  1  0  0  0  0
 73 75  1  0  0  0  0
 76 77  1  0  0  0  0
 76 78  1  0  0  0  0
 79 81  1  0  0  0  0
 80 81  2  0  0  0  0
 81 82  1  0  0  0  0
 82 83  1  0  0  0  0
 82 84  2  0  0  0  0
 84 85  1  0  0  0  0
 84 86  1  0  0  0  0
 86 87  1  0  0  0  0
 86 89  2  0  0  0  0
 87 88  1  0  0  0  0
 87 91  2  0  0  0  0
 89 90  1  0  0  0  0
 89 93  1  0  0  0  0
 91 92  1  0  0  0  0
 91 94  1  0  0  0  0
 93 94  2  0  0  0  0
 93 97  1  0  0  0  0
 94 95  1  0  0  0  0
 95 96  1  0  0  0  0
 97 98  1  0  0  0  0
 98 99  1  0  0  0  0
 98100  1  0  0  0  0
 98101  1  0  0  0  0
M  BCL ATM C_TeTeTeTe H_S O_Te2Te2TeTe C_TeTeTeTe H_S C_TeTeTeTe H_S C_TeTeTeTe H_S O_Te2Te2TeTe H_S C_TeTeTeTe H_S H_S C_TeTeTeTe H_S H_S N_TrTrTrPi2 H_S C_TrTrTrPi O_Tr2Tr2TrPi C_TeTeTeTe H_S H_S C_TeTeTeTe H_S H_S N_TrTrTrPi2 H_S O_Tr2Tr2TrPi C_TrTrTrPi C_TeTeTeTe H_S H_S C_TeTeTeTe H_S H_S H_S C_TeTeTeTe C_TeTeTeTe H_S H_S H_S C_TeTeTeTe H_S O_Te2Te2TeTe H_S O_Tr2TrTrPi2 O_Tr2TrTrPi2 O_Tr2TrTrPi2 O_Te2Te2TeTe O_Tr2Tr2TrPi O_Te2Te2TeTe O_Tr2Tr2TrPi P_TeTeTeTePi P_TeTeTeTePi C_TeTeTeTe H_S H_S O_Tr2TrTrPi2 O_Tr2Tr2TrPi O_Te2Te2Te2Te P_TeTeTeTePi O_Te2Te2Te2Te N_TrTrTrPi2 C_TrTrTrPi C_TrTrTrPi H_S C_TrTrTrPi N_Tr2TrTrPi N_Tr2TrTrPi C_TrTrTrPi C_TrTrTrPi H_S N_Tr2TrTrPi N_TrTrTrPi2 H_S H_S S_Te2Te2TeTe O_Tr2Tr2TrPi C_TrTrTrPi C_TrTrTrPi H_S C_TrTrTrPi H_S C_TrTrTrPi C_TrTrTrPi H_S C_TrTrTrPi H_S C_TrTrTrPi H_S C_TrTrTrPi C_TrTrTrPi O_Te2Te2TeTe H_S O_Tr2TrTrPi2 C_TeTeTeTe H_S H_S H_S
M  BCL BND NonConjugatedSingleBond NonConjugatedSingleBondInRing NonConjugatedSingleBondInRing NonConjugatedSingleBond NonConjugatedSingleBondInRing NonConjugatedSingleBond NonConjugatedSingleBondInRing NonConjugatedSingleBond NonConjugatedSingleBond NonConjugatedSingleBondInRing NonConjugatedSingleBond NonConjugatedSingleBond NonConjugatedSingleBond NonConjugatedSingleBond NonConjugatedSingleBond NonConjugatedSingleBond NonConjugatedSingleBond NonConjugatedSingleBond NonConjugatedSingleBond NonConjugatedSingleBond NonConjugatedSingleBond NonConjugatedSingleBond AmideSingleBond ConjugatedDoubleBond NonConjugatedSingleBond NonConjugatedSingleBond NonConjugatedSingleBond NonConjugatedSingleBond NonConjugatedSingleBond NonConjugatedSingleBond NonConjugatedSingleBond NonConjugatedSingleBond AmideSingleBond ConjugatedDoubleBond NonConjugatedSingleBond NonConjugatedSingleBond NonConjugatedSingleBond NonConjugatedSingleBond NonConjugatedSingleBond NonConjugatedSingleBond NonConjugatedSingleBond NonConjugatedSingleBond NonConjugatedSingleBond NonConjugatedSingleBond NonConjugatedSingleBond NonConjugatedSingleBond NonConjugatedSingleBond NonConjugatedSingleBond NonConjugatedSingleBond NonConjugatedSingleBond NonConjugatedSingleBond ConjugatedSingleBond ConjugatedSingleBond ConjugatedSingleBond ConjugatedSingleBond NonConjugatedSingleBond ConjugatedSingleBond ConjugatedDoubleBond ConjugatedSingleBond ConjugatedDoubleBond NonConjugatedSingleBond NonConjugatedSingleBond ConjugatedSingleBond ConjugatedDoubleBond ConjugatedSingleBond ConjugatedSingleBond AromaticSingleBond AromaticSingleBond AromaticDoubleBond AromaticSingleBond NonConjugatedSingleBond AromaticDoubleBond AromaticSingleBond AromaticSingleBond AromaticDoubleBond AromaticDoubleBond ConjugatedSingleBond NonConjugatedSingleBond AromaticSingleBond NonConjugatedSingleBond NonConjugatedSingleBond ConjugatedSingleBond ConjugatedDoubleBond ConjugatedSingleBond NonConjugatedSingleBond ConjugatedDoubleBond NonConjugatedSingleBond ConjugatedSingleBond AromaticSingleBond AromaticDoubleBond NonConjugatedSingleBond AromaticDoubleBond NonConjugatedSingleBond AromaticSingleBond NonConjugatedSingleBond AromaticSingleBond AromaticDoubleBond ConjugatedSingleBond ConjugatedSingleBond NonConjugatedSingleBond NonConjugatedSingleBond NonConjugatedSingleBond NonConjugatedSingleBond NonConjugatedSingleBond
M  BCL CHI   1   R   4   R   6   R   8   S  44   S  55   S  56   R
M  BCL DBI - - - - - - - - - - E - - -
M  END
> <ConfClashScore>
0 

> <ConfOneFourInteractionScore>
-0.983185 

> <ConfScore>
-0.159873 

> <ConfScorePBest>
0.0146865 

> <ConfTolerance>
0.25 

$$$$
L02.****
  PyMOL2.5          3D                             0

101104  0  0  0  0  0  0  0  0999 V2000
   15.2642   -4.4733   -5.5641 C   0  0  0  1  0  0  0  0  0  0  0  0
   14.7764   -3.7245   -4.9757 H   0  0  0  1  0  0  0  0  0  0  0  0
   14.5455   -4.7265   -6.7407 O   0  0  0  1  0  0  0  0  0  0  0  0
   15.2744   -5.8215   -4.8291 C   0  0  0  1  0  0  0  0  0  0  0  0
   16.0749   -6.4425   -5.1733 H   0  0  0  1  0  0  0  0  0  0  0  0
   13.7132   -5.9024   -6.6236 C   0  0  0  1  0  0  0  0  0  0  0  0
   14.0093   -6.6446   -7.3352 H   0  0  0  1  0  0  0  0  0  0  0  0
   13.9363   -6.4080   -5.1952 C   0  0  0  1  0  0  0  0  0  0  0  0
   13.1694   -6.0537   -4.5385 H   0  0  0  1  0  0  0  0  0  0  0  0
   15.3871   -5.6372   -3.4159 O   0  0  0  1  0  0  0  0  0  0  0  0
   15.1396   -4.7378   -3.1893 H   0  0  0  1  0  0  0  0  0  0  0  0
   10.2673    1.4893    1.8924 C   0  0  0  1  0  0  0  0  0  0  0  0
   11.1111    2.0691    2.2033 H   0  0  0  1  0  0  0  0  0  0  0  0
    9.3658    1.9791    2.1961 H   0  0  0  1  0  0  0  0  0  0  0  0
   10.3341    0.1399    2.5638 C   0  0  0  1  0  0  0  0  0  0  0  0
   10.0888    0.2524    3.5992 H   0  0  0  1  0  0  0  0  0  0  0  0
   11.3274   -0.2472    2.4721 H   0  0  0  1  0  0  0  0  0  0  0  0
   10.2784    1.3908    0.4317 N   0  0  0  1  0  0  0  0  0  0  0  0
   11.1424    1.2407   -0.0057 H   0  0  0  1  0  0  0  0  0  0  0  0
    9.1651    1.4933   -0.3746 C   0  0  0  1  0  0  0  0  0  0  0  0
    8.0582    1.5819    0.1223 O   0  0  0  1  0  0  0  0  0  0  0  0
    9.1782    0.1955   -2.6040 C   0  0  0  1  0  0  0  0  0  0  0  0
    9.4024    0.3498   -3.6389 H   0  0  0  1  0  0  0  0  0  0  0  0
    8.1474   -0.0713   -2.4978 H   0  0  0  1  0  0  0  0  0  0  0  0
    9.4237    1.4866   -1.8575 C   0  0  0  1  0  0  0  0  0  0  0  0
   10.4499    1.7514   -2.0047 H   0  0  0  1  0  0  0  0  0  0  0  0
    8.7957    2.2341   -2.2954 H   0  0  0  1  0  0  0  0  0  0  0  0
    9.9970   -0.9005   -2.1080 N   0  0  0  1  0  0  0  0  0  0  0  0
   10.9629   -0.8814   -2.2724 H   0  0  0  1  0  0  0  0  0  0  0  0
    8.2564   -2.0564   -1.2739 O   0  0  0  1  0  0  0  0  0  0  0  0
    9.4612   -1.9647   -1.4148 C   0  0  0  1  0  0  0  0  0  0  0  0
    9.9820   -4.6028   -2.6808 C   0  0  0  1  0  0  0  0  0  0  0  0
    9.7172   -5.6137   -2.9108 H   0  0  0  1  0  0  0  0  0  0  0  0
   10.9578   -4.3926   -3.0663 H   0  0  0  1  0  0  0  0  0  0  0  0
   10.9059   -5.4119   -0.5136 C   0  0  0  1  0  0  0  0  0  0  0  0
   10.8311   -5.3411    0.5514 H   0  0  0  1  0  0  0  0  0  0  0  0
   11.9125   -5.2091   -0.8145 H   0  0  0  1  0  0  0  0  0  0  0  0
   10.6317   -6.3980   -0.8254 H   0  0  0  1  0  0  0  0  0  0  0  0
    9.9635   -4.3907   -1.1619 C   0  0  0  1  0  0  0  0  0  0  0  0
    8.4992   -4.5914   -0.7156 C   0  0  0  1  0  0  0  0  0  0  0  0
    7.8780   -4.7225   -1.5769 H   0  0  0  1  0  0  0  0  0  0  0  0
    8.1725   -3.7321   -0.1681 H   0  0  0  1  0  0  0  0  0  0  0  0
    8.4322   -5.4586   -0.0924 H   0  0  0  1  0  0  0  0  0  0  0  0
   10.4638   -2.9741   -0.8631 C   0  0  0  1  0  0  0  0  0  0  0  0
   10.4807   -2.8598    0.2007 H   0  0  0  1  0  0  0  0  0  0  0  0
   11.7700   -2.7702   -1.3648 O   0  0  0  1  0  0  0  0  0  0  0  0
   11.7194   -2.4067   -2.2519 H   0  0  0  1  0  0  0  0  0  0  0  0
    9.0163   -3.6959   -3.2629 O   0  0  0  1  0  0  0  0  0  0  0  0
   10.2736   -2.6864   -5.1934 O   0  0  0  1  0  0  0  0  0  0  0  0
   11.9269   -4.5241   -5.8745 O   0  0  0  1  0  0  0  0  0  0  0  0
    9.1037   -4.7568   -5.5922 O   0  0  0  0  0  0  0  0  0  0  0  0
    7.7383   -2.6565   -5.0448 O   0  0  0  1  0  0  0  0  0  0  0  0
   10.6659   -3.0860   -7.5950 O   0  0  0  0  0  0  0  0  0  0  0  0
   12.5651   -2.2044   -6.1679 O   0  0  0  1  0  0  0  0  0  0  0  0
    8.9357   -3.4891   -4.8526 P   0  0  0  1  0  0  0  0  0  0  0  0
   11.3921   -3.0481   -6.3032 P   0  0  0  1  0  0  0  0  0  0  0  0
   12.2774   -5.5517   -6.8372 C   0  0  0  1  0  0  0  0  0  0  0  0
   11.6649   -6.4161   -6.6868 H   0  0  0  1  0  0  0  0  0  0  0  0
   12.1365   -5.1827   -7.8317 H   0  0  0  1  0  0  0  0  0  0  0  0
   13.9752   -7.8511   -5.1567 O   0  0  0  1  0  0  0  0  0  0  0  0
   11.4551   -8.1935   -5.7773 O   0  0  0  1  0  0  0  0  0  0  0  0
   12.2936   -8.8133   -3.4110 O   0  5  0  1  0  0  0  0  0  0  0  0
   12.5967   -8.7255   -4.9999 P   0  0  0  1  0  0  0  0  0  0  0  0
   13.0377  -10.2163   -5.4553 O   0  5  0  1  0  0  0  0  0  0  0  0
   16.6276   -4.0408   -5.8725 N   0  0  0  1  0  0  0  0  0  0  0  0
   17.6547   -3.8479   -4.9850 C   0  0  0  1  0  0  0  0  0  0  0  0
   17.1397   -3.7464   -7.0988 C   0  0  0  1  0  0  0  0  0  0  0  0
   16.5728   -3.8000   -7.9690 H   0  0  0  1  0  0  0  0  0  0  0  0
   18.7500   -3.4455   -5.7611 C   0  0  0  1  0  0  0  0  0  0  0  0
   17.6348   -4.0183   -3.6623 N   0  0  0  1  0  0  0  0  0  0  0  0
   18.3959   -3.3918   -7.1003 N   0  0  0  1  0  0  0  0  0  0  0  0
   19.9267   -3.2048   -5.0581 C   0  0  0  1  0  0  0  0  0  0  0  0
   18.8166   -3.7470   -3.1222 C   0  0  0  1  0  0  0  0  0  0  0  0
   18.8743   -3.8543   -2.0894 H   0  0  0  1  0  0  0  0  0  0  0  0
   19.9471   -3.3527   -3.7291 N   0  0  0  1  0  0  0  0  0  0  0  0
   21.0927   -2.8161   -5.6633 N   0  0  0  1  0  0  0  0  0  0  0  0
   21.8924   -2.6463   -5.1228 H   0  0  0  1  0  0  0  0  0  0  0  0
   21.1271   -2.7077   -6.6367 H   0  0  0  1  0  0  0  0  0  0  0  0
    9.1747   -1.0225    1.8051 S   0  0  0  1  0  0  0  0  0  0  0  0
   10.3274   -2.4841    3.6725 O   0  0  0  1  0  0  0  0  0  0  0  0
    9.5099   -2.4713    2.7816 C   0  0  0  1  0  0  0  0  0  0  0  0
    8.7122   -3.6361    2.4106 C   0  0  0  1  0  0  0  0  0  0  0  0
    8.0483   -3.5032    1.6211 H   0  0  0  1  0  0  0  0  0  0  0  0
    8.7322   -4.8490    2.9617 C   0  0  0  1  0  0  0  0  0  0  0  0
    9.3960   -4.9818    3.7512 H   0  0  0  1  0  0  0  0  0  0  0  0
    7.9209   -6.0338    2.5843 C   0  0  0  1  0  0  0  0  0  0  0  0
    8.1750   -7.2649    3.1684 C   0  0  0  1  0  0  0  0  0  0  0  0
    8.8859   -7.3454    3.9232 H   0  0  0  1  0  0  0  0  0  0  0  0
    6.9724   -5.9260    1.5848 C   0  0  0  1  0  0  0  0  0  0  0  0
    6.7788   -5.0016    1.1493 H   0  0  0  1  0  0  0  0  0  0  0  0
    7.4839   -8.3855    2.7478 C   0  0  0  1  0  0  0  0  0  0  0  0
    7.6775   -9.3099    3.1833 H   0  0  0  1  0  0  0  0  0  0  0  0
    6.2791   -7.0497    1.1628 C   0  0  0  1  0  0  0  0  0  0  0  0
    6.5326   -8.2771    1.7453 C   0  0  0  1  0  0  0  0  0  0  0  0
    5.8643   -9.3893    1.3537 O   0  0  0  1  0  0  0  0  0  0  0  0
    5.9094   -9.4705    0.3982 H   0  0  0  1  0  0  0  0  0  0  0  0
    5.3346   -7.0678    0.1925 O   0  0  0  1  0  0  0  0  0  0  0  0
    4.9264   -5.8022   -0.3497 C   0  0  0  1  0  0  0  0  0  0  0  0
    4.3175   -5.2875    0.3639 H   0  0  0  1  0  0  0  0  0  0  0  0
    4.3656   -5.9628   -1.2467 H   0  0  0  1  0  0  0  0  0  0  0  0
    5.7920   -5.2131   -0.5703 H   0  0  0  1  0  0  0  0  0  0  0  0
  1  2  1  0  0  0  0
  1  3  1  0  0  0  0
  1  4  1  0  0  0  0
  1 65  1  0  0  0  0
  3  6  1  0  0  0  0
  4  5  1  0  0  0  0
  4  8  1  0  0  0  0
  4 10  1  0  0  0  0
  6  7  1  0  0  0  0
  6  8  1  0  0  0  0
  6 57  1  0  0  0  0
  8  9  1  0  0  0  0
  8 60  1  0  0  0  0
 10 11  1  0  0  0  0
 12 13  1  0  0  0  0
 12 14  1  0  0  0  0
 12 15  1  0  0  0  0
 12 18  1  0  0  0  0
 15 16  1  0  0  0  0
 15 17  1  0  0  0  0
 15 79  1  0  0  0  0
 18 19  1  0  0  0  0
 18 20  1  0  0  0  0
 20 21  2  0  0  0  0
 20 25  1  0  0  0  0
 22 23  1  0  0  0  0
 22 24  1  0  0  0  0
 22 25  1  0  0  0  0
 22 28  1  0  0  0  0
 25 26  1  0  0  0  0
 25 27  1  0  0  0  0
 28 29  1  0  0  0  0
 28 31  1  0  0  0  0
 30 31  2  0  0  0  0
 31 44  1  0  0  0  0
 32 33  1  0  0  0  0
 32 34  1  0  0  0  0
 32 39  1  0  0  0  0
 32 48  1  0  0  0  0
 35 36  1  0  0  0  0
 35 37  1  0  0  0  0
 35 38  1  0  0  0  0
 35 39  1  0  0  0  0
 39 40  1  0  0  0  0
 39 44  1  0  0  0  0
 40 41  1  0  0  0  0
 40 42  1  0  0  0  0
 40 43  1  0  0  0  0
 44 45  1  0  0  0  0
 44 46  1  0  0  0  0
 46 47  1  0  0  0  0
 48 55  1  0  0  0  0
 49 55  1  0  0  0  0
 49 56  1  0  0  0  0
 50 56  1  0  0  0  0
 50 57  1  0  0  0  0
 51 55  1  0  0  0  0
 52 55  2  0  0  0  0
 53 56  1  0  0  0  0
 54 56  2  0  0  0  0
 57 58  1  0  0  0  0
 57 59  1  0  0  0  0
 60 63  1  0  0  0  0
 61 63  2  0  0  0  0
 62 63  1  0  0  0  0
 63 64  1  0  0  0  0
 65 66  1  0  0  0  0
 65 67  1  0  0  0  0
 66 69  2  0  0  0  0
 66 70  1  0  0  0  0
 67 68  1  0  0  0  0
 67 71  2  0  0  0  0
 69 71  1  0  0  0  0
 69 72  1  0  0  0  0
 70 73  2  0  0  0  0
 72 75  2  0  0  0  0
 72 76  1  0  0  0  0
 73 74  1  0  0  0  0
 73 75  1  0  0  0  0
 76 77  1  0  0  0  0
 76 78  1  0  0  0  0
 79 81  1  0  0  0  0
 80 81  2  0  0  0  0
 81 82  1  0  0  0  0
 82 83  1  0  0  0  0
 82 84  2  0  0  0  0
 84 85  1  0  0  0  0
 84 86  1  0  0  0  0
 86 87  1  0  0  0  0
 86 89  2  0  0  0  0
 87 88  1  0  0  0  0
 87 91  2  0  0  0  0
 89 90  1  0  0  0  0
 89 93  1  0  0  0  0
 91 92  1  0  0  0  0
 91 94  1  0  0  0  0
 93 94  2  0  0  0  0
 93 97  1  0  0  0  0
 94 95  1  0  0  0  0
 95 96  1  0  0  0  0
 97 98  1  0  0  0  0
 98 99  1  0  0  0  0
 98100  1  0  0  0  0
 98101  1  0  0  0  0
M  BCL ATM C_TeTeTeTe H_S O_Te2Te2TeTe C_TeTeTeTe H_S C_TeTeTeTe H_S C_TeTeTeTe H_S O_Te2Te2TeTe H_S C_TeTeTeTe H_S H_S C_TeTeTeTe H_S H_S N_TrTrTrPi2 H_S C_TrTrTrPi O_Tr2Tr2TrPi C_TeTeTeTe H_S H_S C_TeTeTeTe H_S H_S N_TrTrTrPi2 H_S O_Tr2Tr2TrPi C_TrTrTrPi C_TeTeTeTe H_S H_S C_TeTeTeTe H_S H_S H_S C_TeTeTeTe C_TeTeTeTe H_S H_S H_S C_TeTeTeTe H_S O_Te2Te2TeTe H_S O_Tr2TrTrPi2 O_Tr2TrTrPi2 O_Tr2TrTrPi2 O_Te2Te2TeTe O_Tr2Tr2TrPi O_Te2Te2TeTe O_Tr2Tr2TrPi P_TeTeTeTePi P_TeTeTeTePi C_TeTeTeTe H_S H_S O_Tr2TrTrPi2 O_Tr2Tr2TrPi O_Te2Te2Te2Te P_TeTeTeTePi O_Te2Te2Te2Te N_TrTrTrPi2 C_TrTrTrPi C_TrTrTrPi H_S C_TrTrTrPi N_Tr2TrTrPi N_Tr2TrTrPi C_TrTrTrPi C_TrTrTrPi H_S N_Tr2TrTrPi N_TrTrTrPi2 H_S H_S S_Te2Te2TeTe O_Tr2Tr2TrPi C_TrTrTrPi C_TrTrTrPi H_S C_TrTrTrPi H_S C_TrTrTrPi C_TrTrTrPi H_S C_TrTrTrPi H_S C_TrTrTrPi H_S C_TrTrTrPi C_TrTrTrPi O_Te2Te2TeTe H_S O_Tr2TrTrPi2 C_TeTeTeTe H_S H_S H_S
M  BCL BND NonConjugatedSingleBond NonConjugatedSingleBondInRing NonConjugatedSingleBondInRing NonConjugatedSingleBond NonConjugatedSingleBondInRing NonConjugatedSingleBond NonConjugatedSingleBondInRing NonConjugatedSingleBond NonConjugatedSingleBond NonConjugatedSingleBondInRing NonConjugatedSingleBond NonConjugatedSingleBond NonConjugatedSingleBond NonConjugatedSingleBond NonConjugatedSingleBond NonConjugatedSingleBond NonConjugatedSingleBond NonConjugatedSingleBond NonConjugatedSingleBond NonConjugatedSingleBond NonConjugatedSingleBond NonConjugatedSingleBond AmideSingleBond ConjugatedDoubleBond NonConjugatedSingleBond NonConjugatedSingleBond NonConjugatedSingleBond NonConjugatedSingleBond NonConjugatedSingleBond NonConjugatedSingleBond NonConjugatedSingleBond NonConjugatedSingleBond AmideSingleBond ConjugatedDoubleBond NonConjugatedSingleBond NonConjugatedSingleBond NonConjugatedSingleBond NonConjugatedSingleBond NonConjugatedSingleBond NonConjugatedSingleBond NonConjugatedSingleBond NonConjugatedSingleBond NonConjugatedSingleBond NonConjugatedSingleBond NonConjugatedSingleBond NonConjugatedSingleBond NonConjugatedSingleBond NonConjugatedSingleBond NonConjugatedSingleBond NonConjugatedSingleBond NonConjugatedSingleBond ConjugatedSingleBond ConjugatedSingleBond ConjugatedSingleBond ConjugatedSingleBond NonConjugatedSingleBond ConjugatedSingleBond ConjugatedDoubleBond ConjugatedSingleBond ConjugatedDoubleBond NonConjugatedSingleBond NonConjugatedSingleBond ConjugatedSingleBond ConjugatedDoubleBond ConjugatedSingleBond ConjugatedSingleBond AromaticSingleBond AromaticSingleBond AromaticDoubleBond AromaticSingleBond NonConjugatedSingleBond AromaticDoubleBond AromaticSingleBond AromaticSingleBond AromaticDoubleBond AromaticDoubleBond ConjugatedSingleBond NonConjugatedSingleBond AromaticSingleBond NonConjugatedSingleBond NonConjugatedSingleBond ConjugatedSingleBond ConjugatedDoubleBond ConjugatedSingleBond NonConjugatedSingleBond ConjugatedDoubleBond NonConjugatedSingleBond ConjugatedSingleBond AromaticSingleBond AromaticDoubleBond NonConjugatedSingleBond AromaticDoubleBond NonConjugatedSingleBond AromaticSingleBond NonConjugatedSingleBond AromaticSingleBond AromaticDoubleBond ConjugatedSingleBond ConjugatedSingleBond NonConjugatedSingleBond NonConjugatedSingleBond NonConjugatedSingleBond NonConjugatedSingleBond NonConjugatedSingleBond
M  BCL CHI   1   R   4   R   6   R   8   S  44   S  55   S  56   R
M  BCL DBI - - - - - - - - - - E - - -
M  END
> <ConfClashScore>
0 

> <ConfOneFourInteractionScore>
-0.986674 

> <ConfScore>
-0.150578 

> <ConfScorePBest>
0.0145835 

> <ConfTolerance>
2.91773 

$$$$
L02.****
  PyMOL2.5          3D                             0

101104  0  0  0  0  0  0  0  0999 V2000
   15.2438   -4.3046   -5.5566 C   0  0  0  1  0  0  0  0  0  0  0  0
   14.6430   -4.1078   -6.4199 H   0  0  0  1  0  0  0  0  0  0  0  0
   15.0401   -5.6134   -5.0978 O   0  0  0  1  0  0  0  0  0  0  0  0
   14.8109   -3.4190   -4.3792 C   0  0  0  1  0  0  0  0  0  0  0  0
   15.6105   -3.2884   -3.6804 H   0  0  0  1  0  0  0  0  0  0  0  0
   14.1107   -5.6604   -3.9919 C   0  0  0  1  0  0  0  0  0  0  0  0
   14.5880   -6.0485   -3.1164 H   0  0  0  1  0  0  0  0  0  0  0  0
   13.6809   -4.2071   -3.7704 C   0  0  0  1  0  0  0  0  0  0  0  0
   12.7567   -4.0001   -4.2683 H   0  0  0  1  0  0  0  0  0  0  0  0
   14.3614   -2.1416   -4.8337 O   0  0  0  1  0  0  0  0  0  0  0  0
   13.4095   -2.0799   -4.7260 H   0  0  0  1  0  0  0  0  0  0  0  0
    2.6870   -3.6113   -6.7521 C   0  0  0  1  0  0  0  0  0  0  0  0
    2.9253   -4.6542   -6.7697 H   0  0  0  1  0  0  0  0  0  0  0  0
    1.7448   -3.4520   -7.2337 H   0  0  0  1  0  0  0  0  0  0  0  0
    3.7531   -2.8581   -7.5132 C   0  0  0  1  0  0  0  0  0  0  0  0
    4.6500   -2.8734   -6.9298 H   0  0  0  1  0  0  0  0  0  0  0  0
    3.4227   -1.8475   -7.6338 H   0  0  0  1  0  0  0  0  0  0  0  0
    2.5803   -3.1779   -5.3578 N   0  0  0  1  0  0  0  0  0  0  0  0
    2.8761   -2.2745   -5.1194 H   0  0  0  1  0  0  0  0  0  0  0  0
    2.0938   -3.9712   -4.3991 C   0  0  0  1  0  0  0  0  0  0  0  0
    1.6648   -5.1029   -4.6197 O   0  0  0  1  0  0  0  0  0  0  0  0
    2.3921   -4.4320   -1.9304 C   0  0  0  1  0  0  0  0  0  0  0  0
    1.6277   -5.1796   -1.9718 H   0  0  0  1  0  0  0  0  0  0  0  0
    2.3631   -3.9438   -0.9788 H   0  0  0  1  0  0  0  0  0  0  0  0
    2.0988   -3.3937   -3.0054 C   0  0  0  1  0  0  0  0  0  0  0  0
    1.1382   -2.9644   -2.8112 H   0  0  0  1  0  0  0  0  0  0  0  0
    2.8476   -2.6309   -2.9555 H   0  0  0  1  0  0  0  0  0  0  0  0
    3.6792   -5.0933   -2.0606 N   0  0  0  1  0  0  0  0  0  0  0  0
    3.7634   -5.8935   -2.6201 H   0  0  0  1  0  0  0  0  0  0  0  0
    4.7509   -3.6308   -0.6911 O   0  0  0  1  0  0  0  0  0  0  0  0
    4.7590   -4.6080   -1.4125 C   0  0  0  1  0  0  0  0  0  0  0  0
    7.8293   -6.8026   -0.5551 C   0  0  0  1  0  0  0  0  0  0  0  0
    8.0224   -7.4434    0.2797 H   0  0  0  1  0  0  0  0  0  0  0  0
    8.6116   -6.0772   -0.6370 H   0  0  0  1  0  0  0  0  0  0  0  0
    6.6460   -5.0530    0.7393 C   0  0  0  1  0  0  0  0  0  0  0  0
    5.6886   -4.6504    0.9966 H   0  0  0  1  0  0  0  0  0  0  0  0
    7.2832   -4.2651    0.3955 H   0  0  0  1  0  0  0  0  0  0  0  0
    7.0817   -5.5146    1.6007 H   0  0  0  1  0  0  0  0  0  0  0  0
    6.4805   -6.0974   -0.3711 C   0  0  0  1  0  0  0  0  0  0  0  0
    5.4595   -7.1459    0.0834 C   0  0  0  1  0  0  0  0  0  0  0  0
    4.4712   -6.8033   -0.1422 H   0  0  0  1  0  0  0  0  0  0  0  0
    5.5515   -7.2990    1.1384 H   0  0  0  1  0  0  0  0  0  0  0  0
    5.6429   -8.0673   -0.4286 H   0  0  0  1  0  0  0  0  0  0  0  0
    6.0326   -5.4055   -1.6625 C   0  0  0  1  0  0  0  0  0  0  0  0
    6.8020   -4.7239   -1.9598 H   0  0  0  1  0  0  0  0  0  0  0  0
    5.8452   -6.3833   -2.6715 O   0  0  0  1  0  0  0  0  0  0  0  0
    5.8409   -7.2572   -2.2740 H   0  0  0  1  0  0  0  0  0  0  0  0
    7.7538   -7.5851   -1.7699 O   0  0  0  1  0  0  0  0  0  0  0  0
   10.1568   -7.5218   -2.6145 O   0  0  0  1  0  0  0  0  0  0  0  0
   11.8124   -5.9813   -3.5721 O   0  0  0  1  0  0  0  0  0  0  0  0
    9.4874   -9.2829   -1.0496 O   0  0  0  0  0  0  0  0  0  0  0  0
    8.4949   -9.3031   -3.3703 O   0  0  0  1  0  0  0  0  0  0  0  0
   10.0439   -6.9082   -5.0466 O   0  0  0  0  0  0  0  0  0  0  0  0
    9.4231   -5.2268   -3.2184 O   0  0  0  1  0  0  0  0  0  0  0  0
    8.9673   -8.4726   -2.2345 P   0  0  0  1  0  0  0  0  0  0  0  0
   10.2890   -6.3617   -3.6492 P   0  0  0  1  0  0  0  0  0  0  0  0
   12.9164   -6.5200   -4.3386 C   0  0  0  1  0  0  0  0  0  0  0  0
   13.0980   -7.5387   -4.0661 H   0  0  0  1  0  0  0  0  0  0  0  0
   12.7066   -6.4624   -5.3862 H   0  0  0  1  0  0  0  0  0  0  0  0
   13.5455   -3.9149   -2.3586 O   0  0  0  1  0  0  0  0  0  0  0  0
   15.2837   -2.1481   -2.0656 O   0  0  0  1  0  0  0  0  0  0  0  0
   13.5703   -2.5971   -0.1932 O   0  5  0  1  0  0  0  0  0  0  0  0
   13.8565   -2.4133   -1.7771 P   0  0  0  1  0  0  0  0  0  0  0  0
   12.7641   -1.3699   -2.3622 O   0  5  0  1  0  0  0  0  0  0  0  0
   16.6507   -4.0829   -5.8809 N   0  0  0  1  0  0  0  0  0  0  0  0
   17.6675   -3.8780   -4.9842 C   0  0  0  1  0  0  0  0  0  0  0  0
   17.1688   -3.7772   -7.1019 C   0  0  0  1  0  0  0  0  0  0  0  0
   16.6100   -3.8362   -7.9771 H   0  0  0  1  0  0  0  0  0  0  0  0
   18.7632   -3.4572   -5.7498 C   0  0  0  1  0  0  0  0  0  0  0  0
   17.6389   -4.0530   -3.6623 N   0  0  0  1  0  0  0  0  0  0  0  0
   18.4197   -3.4043   -7.0917 N   0  0  0  1  0  0  0  0  0  0  0  0
   19.9304   -3.2017   -5.0361 C   0  0  0  1  0  0  0  0  0  0  0  0
   18.8120   -3.7662   -3.1113 C   0  0  0  1  0  0  0  0  0  0  0  0
   18.8627   -3.8760   -2.0784 H   0  0  0  1  0  0  0  0  0  0  0  0
   19.9418   -3.3535   -3.7074 N   0  0  0  1  0  0  0  0  0  0  0  0
   21.0643   -2.7975   -5.6785 N   0  0  0  1  0  0  0  0  0  0  0  0
   21.8829   -2.6274   -5.1674 H   0  0  0  1  0  0  0  0  0  0  0  0
   21.0600   -2.6773   -6.6511 H   0  0  0  1  0  0  0  0  0  0  0  0
    4.1392   -3.5204   -9.1513 S   0  0  0  1  0  0  0  0  0  0  0  0
    5.6788   -5.1002   -7.7103 O   0  0  0  1  0  0  0  0  0  0  0  0
    5.2774   -4.8005   -8.8424 C   0  0  0  1  0  0  0  0  0  0  0  0
    5.8890   -5.4383  -10.0042 C   0  0  0  1  0  0  0  0  0  0  0  0
    5.5102   -5.1591  -10.9317 H   0  0  0  1  0  0  0  0  0  0  0  0
    6.8743   -6.3352  -10.0194 C   0  0  0  1  0  0  0  0  0  0  0  0
    7.2357   -6.5979   -9.0803 H   0  0  0  1  0  0  0  0  0  0  0  0
    7.5400   -7.0197  -11.1503 C   0  0  0  1  0  0  0  0  0  0  0  0
    8.4648   -8.0322  -10.9475 C   0  0  0  1  0  0  0  0  0  0  0  0
    8.7042   -8.3318   -9.9808 H   0  0  0  1  0  0  0  0  0  0  0  0
    7.2180   -6.6252  -12.4351 C   0  0  0  1  0  0  0  0  0  0  0  0
    6.5211   -5.8684  -12.5873 H   0  0  0  1  0  0  0  0  0  0  0  0
    9.0689   -8.6435  -12.0300 C   0  0  0  1  0  0  0  0  0  0  0  0
    9.7658   -9.4003  -11.8777 H   0  0  0  1  0  0  0  0  0  0  0  0
    7.8237   -7.2382  -13.5209 C   0  0  0  1  0  0  0  0  0  0  0  0
    8.7458   -8.2477  -13.3186 C   0  0  0  1  0  0  0  0  0  0  0  0
    9.3073   -8.8203  -14.4111 O   0  0  0  1  0  0  0  0  0  0  0  0
    9.5914   -9.7115  -14.1955 H   0  0  0  1  0  0  0  0  0  0  0  0
    7.4682   -6.8016  -14.7525 O   0  0  0  1  0  0  0  0  0  0  0  0
    6.2926   -5.9817  -14.8440 C   0  0  0  1  0  0  0  0  0  0  0  0
    6.3596   -5.1811  -14.1373 H   0  0  0  1  0  0  0  0  0  0  0  0
    5.4275   -6.5741  -14.6305 H   0  0  0  1  0  0  0  0  0  0  0  0
    6.2149   -5.5792  -15.8323 H   0  0  0  1  0  0  0  0  0  0  0  0
  1  2  1  0  0  0  0
  1  3  1  0  0  0  0
  1  4  1  0  0  0  0
  1 65  1  0  0  0  0
  3  6  1  0  0  0  0
  4  5  1  0  0  0  0
  4  8  1  0  0  0  0
  4 10  1  0  0  0  0
  6  7  1  0  0  0  0
  6  8  1  0  0  0  0
  6 57  1  0  0  0  0
  8  9  1  0  0  0  0
  8 60  1  0  0  0  0
 10 11  1  0  0  0  0
 12 13  1  0  0  0  0
 12 14  1  0  0  0  0
 12 15  1  0  0  0  0
 12 18  1  0  0  0  0
 15 16  1  0  0  0  0
 15 17  1  0  0  0  0
 15 79  1  0  0  0  0
 18 19  1  0  0  0  0
 18 20  1  0  0  0  0
 20 21  2  0  0  0  0
 20 25  1  0  0  0  0
 22 23  1  0  0  0  0
 22 24  1  0  0  0  0
 22 25  1  0  0  0  0
 22 28  1  0  0  0  0
 25 26  1  0  0  0  0
 25 27  1  0  0  0  0
 28 29  1  0  0  0  0
 28 31  1  0  0  0  0
 30 31  2  0  0  0  0
 31 44  1  0  0  0  0
 32 33  1  0  0  0  0
 32 34  1  0  0  0  0
 32 39  1  0  0  0  0
 32 48  1  0  0  0  0
 35 36  1  0  0  0  0
 35 37  1  0  0  0  0
 35 38  1  0  0  0  0
 35 39  1  0  0  0  0
 39 40  1  0  0  0  0
 39 44  1  0  0  0  0
 40 41  1  0  0  0  0
 40 42  1  0  0  0  0
 40 43  1  0  0  0  0
 44 45  1  0  0  0  0
 44 46  1  0  0  0  0
 46 47  1  0  0  0  0
 48 55  1  0  0  0  0
 49 55  1  0  0  0  0
 49 56  1  0  0  0  0
 50 56  1  0  0  0  0
 50 57  1  0  0  0  0
 51 55  1  0  0  0  0
 52 55  2  0  0  0  0
 53 56  1  0  0  0  0
 54 56  2  0  0  0  0
 57 58  1  0  0  0  0
 57 59  1  0  0  0  0
 60 63  1  0  0  0  0
 61 63  2  0  0  0  0
 62 63  1  0  0  0  0
 63 64  1  0  0  0  0
 65 66  1  0  0  0  0
 65 67  1  0  0  0  0
 66 69  2  0  0  0  0
 66 70  1  0  0  0  0
 67 68  1  0  0  0  0
 67 71  2  0  0  0  0
 69 71  1  0  0  0  0
 69 72  1  0  0  0  0
 70 73  2  0  0  0  0
 72 75  2  0  0  0  0
 72 76  1  0  0  0  0
 73 74  1  0  0  0  0
 73 75  1  0  0  0  0
 76 77  1  0  0  0  0
 76 78  1  0  0  0  0
 79 81  1  0  0  0  0
 80 81  2  0  0  0  0
 81 82  1  0  0  0  0
 82 83  1  0  0  0  0
 82 84  2  0  0  0  0
 84 85  1  0  0  0  0
 84 86  1  0  0  0  0
 86 87  1  0  0  0  0
 86 89  2  0  0  0  0
 87 88  1  0  0  0  0
 87 91  2  0  0  0  0
 89 90  1  0  0  0  0
 89 93  1  0  0  0  0
 91 92  1  0  0  0  0
 91 94  1  0  0  0  0
 93 94  2  0  0  0  0
 93 97  1  0  0  0  0
 94 95  1  0  0  0  0
 95 96  1  0  0  0  0
 97 98  1  0  0  0  0
 98 99  1  0  0  0  0
 98100  1  0  0  0  0
 98101  1  0  0  0  0
M  BCL ATM C_TeTeTeTe H_S O_Te2Te2TeTe C_TeTeTeTe H_S C_TeTeTeTe H_S C_TeTeTeTe H_S O_Te2Te2TeTe H_S C_TeTeTeTe H_S H_S C_TeTeTeTe H_S H_S N_TrTrTrPi2 H_S C_TrTrTrPi O_Tr2Tr2TrPi C_TeTeTeTe H_S H_S C_TeTeTeTe H_S H_S N_TrTrTrPi2 H_S O_Tr2Tr2TrPi C_TrTrTrPi C_TeTeTeTe H_S H_S C_TeTeTeTe H_S H_S H_S C_TeTeTeTe C_TeTeTeTe H_S H_S H_S C_TeTeTeTe H_S O_Te2Te2TeTe H_S O_Tr2TrTrPi2 O_Tr2TrTrPi2 O_Tr2TrTrPi2 O_Te2Te2TeTe O_Tr2Tr2TrPi O_Te2Te2TeTe O_Tr2Tr2TrPi P_TeTeTeTePi P_TeTeTeTePi C_TeTeTeTe H_S H_S O_Tr2TrTrPi2 O_Tr2Tr2TrPi O_Te2Te2Te2Te P_TeTeTeTePi O_Te2Te2Te2Te N_TrTrTrPi2 C_TrTrTrPi C_TrTrTrPi H_S C_TrTrTrPi N_Tr2TrTrPi N_Tr2TrTrPi C_TrTrTrPi C_TrTrTrPi H_S N_Tr2TrTrPi N_TrTrTrPi2 H_S H_S S_Te2Te2TeTe O_Tr2Tr2TrPi C_TrTrTrPi C_TrTrTrPi H_S C_TrTrTrPi H_S C_TrTrTrPi C_TrTrTrPi H_S C_TrTrTrPi H_S C_TrTrTrPi H_S C_TrTrTrPi C_TrTrTrPi O_Te2Te2TeTe H_S O_Tr2TrTrPi2 C_TeTeTeTe H_S H_S H_S
M  BCL BND NonConjugatedSingleBond NonConjugatedSingleBondInRing NonConjugatedSingleBondInRing NonConjugatedSingleBond NonConjugatedSingleBondInRing NonConjugatedSingleBond NonConjugatedSingleBondInRing NonConjugatedSingleBond NonConjugatedSingleBond NonConjugatedSingleBondInRing NonConjugatedSingleBond NonConjugatedSingleBond NonConjugatedSingleBond NonConjugatedSingleBond NonConjugatedSingleBond NonConjugatedSingleBond NonConjugatedSingleBond NonConjugatedSingleBond NonConjugatedSingleBond NonConjugatedSingleBond NonConjugatedSingleBond NonConjugatedSingleBond AmideSingleBond ConjugatedDoubleBond NonConjugatedSingleBond NonConjugatedSingleBond NonConjugatedSingleBond NonConjugatedSingleBond NonConjugatedSingleBond NonConjugatedSingleBond NonConjugatedSingleBond NonConjugatedSingleBond AmideSingleBond ConjugatedDoubleBond NonConjugatedSingleBond NonConjugatedSingleBond NonConjugatedSingleBond NonConjugatedSingleBond NonConjugatedSingleBond NonConjugatedSingleBond NonConjugatedSingleBond NonConjugatedSingleBond NonConjugatedSingleBond NonConjugatedSingleBond NonConjugatedSingleBond NonConjugatedSingleBond NonConjugatedSingleBond NonConjugatedSingleBond NonConjugatedSingleBond NonConjugatedSingleBond NonConjugatedSingleBond ConjugatedSingleBond ConjugatedSingleBond ConjugatedSingleBond ConjugatedSingleBond NonConjugatedSingleBond ConjugatedSingleBond ConjugatedDoubleBond ConjugatedSingleBond ConjugatedDoubleBond NonConjugatedSingleBond NonConjugatedSingleBond ConjugatedSingleBond ConjugatedDoubleBond ConjugatedSingleBond ConjugatedSingleBond AromaticSingleBond AromaticSingleBond AromaticDoubleBond AromaticSingleBond NonConjugatedSingleBond AromaticDoubleBond AromaticSingleBond AromaticSingleBond AromaticDoubleBond AromaticDoubleBond ConjugatedSingleBond NonConjugatedSingleBond AromaticSingleBond NonConjugatedSingleBond NonConjugatedSingleBond ConjugatedSingleBond ConjugatedDoubleBond ConjugatedSingleBond NonConjugatedSingleBond ConjugatedDoubleBond NonConjugatedSingleBond ConjugatedSingleBond AromaticSingleBond AromaticDoubleBond NonConjugatedSingleBond AromaticDoubleBond NonConjugatedSingleBond AromaticSingleBond NonConjugatedSingleBond AromaticSingleBond AromaticDoubleBond ConjugatedSingleBond ConjugatedSingleBond NonConjugatedSingleBond NonConjugatedSingleBond NonConjugatedSingleBond NonConjugatedSingleBond NonConjugatedSingleBond
M  BCL CHI   1   R   4   R   6   R   8   S  44   S  55   S  56   R
M  BCL DBI - - - - - - - - - - E - - -
M  END
> <ConfClashScore>
0 

> <ConfOneFourInteractionScore>
-0.97081 

> <ConfScore>
-0.145552 

> <ConfScorePBest>
0.0144805 

> <ConfTolerance>
0.898809 

$$$$
L02.****
  PyMOL2.5          3D                             0

101104  0  0  0  0  0  0  0  0999 V2000
   15.2181   -4.3768   -5.5833 C   0  0  0  1  0  0  0  0  0  0  0  0
   14.7549   -3.5241   -5.1324 H   0  0  0  1  0  0  0  0  0  0  0  0
   14.5097   -4.7678   -6.7987 O   0  0  0  1  0  0  0  0  0  0  0  0
   15.1080   -5.5851   -4.6819 C   0  0  0  1  0  0  0  0  0  0  0  0
   15.9405   -5.6395   -4.0120 H   0  0  0  1  0  0  0  0  0  0  0  0
   14.4777   -6.1616   -6.9239 C   0  0  0  1  0  0  0  0  0  0  0  0
   15.0308   -6.4613   -7.7894 H   0  0  0  1  0  0  0  0  0  0  0  0
   15.1152   -6.7654   -5.6625 C   0  0  0  1  0  0  0  0  0  0  0  0
   14.5323   -7.5810   -5.2885 H   0  0  0  1  0  0  0  0  0  0  0  0
   13.8933   -5.5527   -3.9312 O   0  0  0  1  0  0  0  0  0  0  0  0
   13.9981   -6.0704   -3.1295 H   0  0  0  1  0  0  0  0  0  0  0  0
   10.9636  -13.9789    4.1806 C   0  0  0  1  0  0  0  0  0  0  0  0
   11.6741  -14.2867    3.4421 H   0  0  0  1  0  0  0  0  0  0  0  0
   11.1750  -14.4714    5.1067 H   0  0  0  1  0  0  0  0  0  0  0  0
    9.5738  -14.3856    3.7188 C   0  0  0  1  0  0  0  0  0  0  0  0
    9.3124  -13.8523    2.8287 H   0  0  0  1  0  0  0  0  0  0  0  0
    8.8567  -14.1754    4.4846 H   0  0  0  1  0  0  0  0  0  0  0  0
   11.0891  -12.5337    4.3785 N   0  0  0  1  0  0  0  0  0  0  0  0
   10.2744  -11.9933    4.4472 H   0  0  0  1  0  0  0  0  0  0  0  0
   12.2855  -11.9209    4.4694 C   0  0  0  1  0  0  0  0  0  0  0  0
   13.3681  -12.5030    4.5228 O   0  0  0  1  0  0  0  0  0  0  0  0
   13.1518   -9.6933    3.5846 C   0  0  0  1  0  0  0  0  0  0  0  0
   14.1529   -9.9577    3.8546 H   0  0  0  1  0  0  0  0  0  0  0  0
   13.0142   -8.6398    3.7108 H   0  0  0  1  0  0  0  0  0  0  0  0
   12.1950  -10.4200    4.5017 C   0  0  0  1  0  0  0  0  0  0  0  0
   12.3901  -10.0991    5.5036 H   0  0  0  1  0  0  0  0  0  0  0  0
   11.1989  -10.1434    4.2257 H   0  0  0  1  0  0  0  0  0  0  0  0
   12.9433  -10.0263    2.1833 N   0  0  0  1  0  0  0  0  0  0  0  0
   13.3513  -10.8338    1.8067 H   0  0  0  1  0  0  0  0  0  0  0  0
   11.7270   -8.1672    1.8287 O   0  0  0  1  0  0  0  0  0  0  0  0
   12.1733   -9.2082    1.3848 C   0  0  0  1  0  0  0  0  0  0  0  0
   10.6696   -9.5081   -2.1738 C   0  0  0  1  0  0  0  0  0  0  0  0
    9.8407   -9.0396   -2.6619 H   0  0  0  1  0  0  0  0  0  0  0  0
   10.5153  -10.5665   -2.1446 H   0  0  0  1  0  0  0  0  0  0  0  0
    9.5033   -9.1667    0.0219 C   0  0  0  1  0  0  0  0  0  0  0  0
    9.2297  -10.2007   -0.0074 H   0  0  0  1  0  0  0  0  0  0  0  0
    8.7296   -8.5804   -0.4282 H   0  0  0  1  0  0  0  0  0  0  0  0
    9.6364   -8.8620    1.0390 H   0  0  0  1  0  0  0  0  0  0  0  0
   10.8132   -8.9617   -0.7483 C   0  0  0  1  0  0  0  0  0  0  0  0
   11.1445   -7.4660   -0.8075 C   0  0  0  1  0  0  0  0  0  0  0  0
   10.3254   -6.9359   -1.2467 H   0  0  0  1  0  0  0  0  0  0  0  0
   12.0232   -7.3187   -1.4000 H   0  0  0  1  0  0  0  0  0  0  0  0
   11.3160   -7.0995    0.1831 H   0  0  0  1  0  0  0  0  0  0  0  0
   11.9392   -9.6957   -0.0357 C   0  0  0  1  0  0  0  0  0  0  0  0
   11.6996  -10.7380   -0.0033 H   0  0  0  1  0  0  0  0  0  0  0  0
   13.1356   -9.4973   -0.8051 O   0  0  0  1  0  0  0  0  0  0  0  0
   13.8842   -9.8734   -0.3362 H   0  0  0  1  0  0  0  0  0  0  0  0
   11.8945   -9.2079   -2.8851 O   0  0  0  1  0  0  0  0  0  0  0  0
   11.1723   -8.6815   -5.2368 O   0  0  0  1  0  0  0  0  0  0  0  0
   12.4518   -6.5300   -5.7424 O   0  0  0  1  0  0  0  0  0  0  0  0
   13.4998   -9.4226   -4.8320 O   0  0  0  0  0  0  0  0  0  0  0  0
   11.5737  -11.0598   -4.4890 O   0  0  0  1  0  0  0  0  0  0  0  0
   10.2551   -6.8872   -6.7727 O   0  0  0  0  0  0  0  0  0  0  0  0
   10.3605   -6.5600   -4.2663 O   0  0  0  1  0  0  0  0  0  0  0  0
   12.0998   -9.6796   -4.4169 P   0  0  0  1  0  0  0  0  0  0  0  0
   11.0219   -7.1301   -5.4750 P   0  0  0  1  0  0  0  0  0  0  0  0
   13.0643   -6.6268   -7.0498 C   0  0  0  1  0  0  0  0  0  0  0  0
   13.0435   -7.6418   -7.3877 H   0  0  0  1  0  0  0  0  0  0  0  0
   12.5375   -6.0078   -7.7457 H   0  0  0  1  0  0  0  0  0  0  0  0
   16.4681   -7.2178   -5.9260 O   0  0  0  1  0  0  0  0  0  0  0  0
   15.8180   -9.8081   -5.9604 O   0  0  0  1  0  0  0  0  0  0  0  0
   18.2409   -9.1706   -6.3074 O   0  5  0  1  0  0  0  0  0  0  0  0
   16.6907   -8.7394   -6.4958 P   0  0  0  1  0  0  0  0  0  0  0  0
   16.5025   -8.6399   -8.1017 O   0  5  0  1  0  0  0  0  0  0  0  0
   16.6238   -4.0731   -5.8759 N   0  0  0  1  0  0  0  0  0  0  0  0
   17.6518   -3.8686   -4.9921 C   0  0  0  1  0  0  0  0  0  0  0  0
   17.1289   -3.7751   -7.1043 C   0  0  0  1  0  0  0  0  0  0  0  0
   16.5597   -3.8355   -7.9726 H   0  0  0  1  0  0  0  0  0  0  0  0
   18.7404   -3.4561   -5.7723 C   0  0  0  1  0  0  0  0  0  0  0  0
   17.6380   -4.0375   -3.6692 N   0  0  0  1  0  0  0  0  0  0  0  0
   18.3814   -3.4077   -7.1103 N   0  0  0  1  0  0  0  0  0  0  0  0
   19.9169   -3.2025   -5.0735 C   0  0  0  1  0  0  0  0  0  0  0  0
   18.8186   -3.7534   -3.1332 C   0  0  0  1  0  0  0  0  0  0  0  0
   18.8809   -3.8589   -2.1005 H   0  0  0  1  0  0  0  0  0  0  0  0
   19.9432   -3.3485   -3.7443 N   0  0  0  1  0  0  0  0  0  0  0  0
   21.1219   -2.7954   -5.6357 N   0  0  0  1  0  0  0  0  0  0  0  0
   21.1942   -2.6751   -6.6056 H   0  0  0  1  0  0  0  0  0  0  0  0
   21.8988   -2.6288   -5.0620 H   0  0  0  1  0  0  0  0  0  0  0  0
    9.6216  -16.1625    3.3852 S   0  0  0  1  0  0  0  0  0  0  0  0
    7.0307  -15.7034    3.0577 O   0  0  0  1  0  0  0  0  0  0  0  0
    7.8860  -16.5460    3.1122 C   0  0  0  1  0  0  0  0  0  0  0  0
    7.6939  -17.9497    2.7683 C   0  0  0  1  0  0  0  0  0  0  0  0
    8.4874  -18.5969    2.9509 H   0  0  0  1  0  0  0  0  0  0  0  0
    6.5890  -18.4745    2.2401 C   0  0  0  1  0  0  0  0  0  0  0  0
    5.8066  -17.8121    2.0646 H   0  0  0  1  0  0  0  0  0  0  0  0
    6.3406  -19.8888    1.8725 C   0  0  0  1  0  0  0  0  0  0  0  0
    5.0859  -20.4020    1.5832 C   0  0  0  1  0  0  0  0  0  0  0  0
    4.2511  -19.7825    1.6136 H   0  0  0  1  0  0  0  0  0  0  0  0
    7.4507  -20.7110    1.8269 C   0  0  0  1  0  0  0  0  0  0  0  0
    8.3926  -20.3251    2.0401 H   0  0  0  1  0  0  0  0  0  0  0  0
    4.9441  -21.7369    1.2543 C   0  0  0  1  0  0  0  0  0  0  0  0
    4.0021  -22.1228    1.0411 H   0  0  0  1  0  0  0  0  0  0  0  0
    7.3087  -22.0498    1.4970 C   0  0  0  1  0  0  0  0  0  0  0  0
    6.0575  -22.5614    1.2085 C   0  0  0  1  0  0  0  0  0  0  0  0
    6.0161  -23.8784    0.8917 O   0  0  0  1  0  0  0  0  0  0  0  0
    6.4050  -24.0117    0.0242 H   0  0  0  1  0  0  0  0  0  0  0  0
    8.3183  -22.9495    1.4253 O   0  0  0  1  0  0  0  0  0  0  0  0
    9.6390  -22.4799    1.7381 C   0  0  0  1  0  0  0  0  0  0  0  0
    9.5769  -21.6970    2.4649 H   0  0  0  1  0  0  0  0  0  0  0  0
   10.1039  -22.1058    0.8500 H   0  0  0  1  0  0  0  0  0  0  0  0
   10.2201  -23.2871    2.1326 H   0  0  0  1  0  0  0  0  0  0  0  0
  1  2  1  0  0  0  0
  1  3  1  0  0  0  0
  1  4  1  0  0  0  0
  1 65  1  0  0  0  0
  3  6  1  0  0  0  0
  4  5  1  0  0  0  0
  4  8  1  0  0  0  0
  4 10  1  0  0  0  0
  6  7  1  0  0  0  0
  6  8  1  0  0  0  0
  6 57  1  0  0  0  0
  8  9  1  0  0  0  0
  8 60  1  0  0  0  0
 10 11  1  0  0  0  0
 12 13  1  0  0  0  0
 12 14  1  0  0  0  0
 12 15  1  0  0  0  0
 12 18  1  0  0  0  0
 15 16  1  0  0  0  0
 15 17  1  0  0  0  0
 15 79  1  0  0  0  0
 18 19  1  0  0  0  0
 18 20  1  0  0  0  0
 20 21  2  0  0  0  0
 20 25  1  0  0  0  0
 22 23  1  0  0  0  0
 22 24  1  0  0  0  0
 22 25  1  0  0  0  0
 22 28  1  0  0  0  0
 25 26  1  0  0  0  0
 25 27  1  0  0  0  0
 28 29  1  0  0  0  0
 28 31  1  0  0  0  0
 30 31  2  0  0  0  0
 31 44  1  0  0  0  0
 32 33  1  0  0  0  0
 32 34  1  0  0  0  0
 32 39  1  0  0  0  0
 32 48  1  0  0  0  0
 35 36  1  0  0  0  0
 35 37  1  0  0  0  0
 35 38  1  0  0  0  0
 35 39  1  0  0  0  0
 39 40  1  0  0  0  0
 39 44  1  0  0  0  0
 40 41  1  0  0  0  0
 40 42  1  0  0  0  0
 40 43  1  0  0  0  0
 44 45  1  0  0  0  0
 44 46  1  0  0  0  0
 46 47  1  0  0  0  0
 48 55  1  0  0  0  0
 49 55  1  0  0  0  0
 49 56  1  0  0  0  0
 50 56  1  0  0  0  0
 50 57  1  0  0  0  0
 51 55  1  0  0  0  0
 52 55  2  0  0  0  0
 53 56  1  0  0  0  0
 54 56  2  0  0  0  0
 57 58  1  0  0  0  0
 57 59  1  0  0  0  0
 60 63  1  0  0  0  0
 61 63  2  0  0  0  0
 62 63  1  0  0  0  0
 63 64  1  0  0  0  0
 65 66  1  0  0  0  0
 65 67  1  0  0  0  0
 66 69  2  0  0  0  0
 66 70  1  0  0  0  0
 67 68  1  0  0  0  0
 67 71  2  0  0  0  0
 69 71  1  0  0  0  0
 69 72  1  0  0  0  0
 70 73  2  0  0  0  0
 72 75  2  0  0  0  0
 72 76  1  0  0  0  0
 73 74  1  0  0  0  0
 73 75  1  0  0  0  0
 76 77  1  0  0  0  0
 76 78  1  0  0  0  0
 79 81  1  0  0  0  0
 80 81  2  0  0  0  0
 81 82  1  0  0  0  0
 82 83  1  0  0  0  0
 82 84  2  0  0  0  0
 84 85  1  0  0  0  0
 84 86  1  0  0  0  0
 86 87  1  0  0  0  0
 86 89  2  0  0  0  0
 87 88  1  0  0  0  0
 87 91  2  0  0  0  0
 89 90  1  0  0  0  0
 89 93  1  0  0  0  0
 91 92  1  0  0  0  0
 91 94  1  0  0  0  0
 93 94  2  0  0  0  0
 93 97  1  0  0  0  0
 94 95  1  0  0  0  0
 95 96  1  0  0  0  0
 97 98  1  0  0  0  0
 98 99  1  0  0  0  0
 98100  1  0  0  0  0
 98101  1  0  0  0  0
M  BCL ATM C_TeTeTeTe H_S O_Te2Te2TeTe C_TeTeTeTe H_S C_TeTeTeTe H_S C_TeTeTeTe H_S O_Te2Te2TeTe H_S C_TeTeTeTe H_S H_S C_TeTeTeTe H_S H_S N_TrTrTrPi2 H_S C_TrTrTrPi O_Tr2Tr2TrPi C_TeTeTeTe H_S H_S C_TeTeTeTe H_S H_S N_TrTrTrPi2 H_S O_Tr2Tr2TrPi C_TrTrTrPi C_TeTeTeTe H_S H_S C_TeTeTeTe H_S H_S H_S C_TeTeTeTe C_TeTeTeTe H_S H_S H_S C_TeTeTeTe H_S O_Te2Te2TeTe H_S O_Tr2TrTrPi2 O_Tr2TrTrPi2 O_Tr2TrTrPi2 O_Te2Te2TeTe O_Tr2Tr2TrPi O_Te2Te2TeTe O_Tr2Tr2TrPi P_TeTeTeTePi P_TeTeTeTePi C_TeTeTeTe H_S H_S O_Tr2TrTrPi2 O_Tr2Tr2TrPi O_Te2Te2Te2Te P_TeTeTeTePi O_Te2Te2Te2Te N_TrTrTrPi2 C_TrTrTrPi C_TrTrTrPi H_S C_TrTrTrPi N_Tr2TrTrPi N_Tr2TrTrPi C_TrTrTrPi C_TrTrTrPi H_S N_Tr2TrTrPi N_TrTrTrPi2 H_S H_S S_Te2Te2TeTe O_Tr2Tr2TrPi C_TrTrTrPi C_TrTrTrPi H_S C_TrTrTrPi H_S C_TrTrTrPi C_TrTrTrPi H_S C_TrTrTrPi H_S C_TrTrTrPi H_S C_TrTrTrPi C_TrTrTrPi O_Te2Te2TeTe H_S O_Tr2TrTrPi2 C_TeTeTeTe H_S H_S H_S
M  BCL BND NonConjugatedSingleBond NonConjugatedSingleBondInRing NonConjugatedSingleBondInRing NonConjugatedSingleBond NonConjugatedSingleBondInRing NonConjugatedSingleBond NonConjugatedSingleBondInRing NonConjugatedSingleBond NonConjugatedSingleBond NonConjugatedSingleBondInRing NonConjugatedSingleBond NonConjugatedSingleBond NonConjugatedSingleBond NonConjugatedSingleBond NonConjugatedSingleBond NonConjugatedSingleBond NonConjugatedSingleBond NonConjugatedSingleBond NonConjugatedSingleBond NonConjugatedSingleBond NonConjugatedSingleBond NonConjugatedSingleBond AmideSingleBond ConjugatedDoubleBond NonConjugatedSingleBond NonConjugatedSingleBond NonConjugatedSingleBond NonConjugatedSingleBond NonConjugatedSingleBond NonConjugatedSingleBond NonConjugatedSingleBond NonConjugatedSingleBond AmideSingleBond ConjugatedDoubleBond NonConjugatedSingleBond NonConjugatedSingleBond NonConjugatedSingleBond NonConjugatedSingleBond NonConjugatedSingleBond NonConjugatedSingleBond NonConjugatedSingleBond NonConjugatedSingleBond NonConjugatedSingleBond NonConjugatedSingleBond NonConjugatedSingleBond NonConjugatedSingleBond NonConjugatedSingleBond NonConjugatedSingleBond NonConjugatedSingleBond NonConjugatedSingleBond NonConjugatedSingleBond ConjugatedSingleBond ConjugatedSingleBond ConjugatedSingleBond ConjugatedSingleBond NonConjugatedSingleBond ConjugatedSingleBond ConjugatedDoubleBond ConjugatedSingleBond ConjugatedDoubleBond NonConjugatedSingleBond NonConjugatedSingleBond ConjugatedSingleBond ConjugatedDoubleBond ConjugatedSingleBond ConjugatedSingleBond AromaticSingleBond AromaticSingleBond AromaticDoubleBond AromaticSingleBond NonConjugatedSingleBond AromaticDoubleBond AromaticSingleBond AromaticSingleBond AromaticDoubleBond AromaticDoubleBond ConjugatedSingleBond NonConjugatedSingleBond AromaticSingleBond NonConjugatedSingleBond NonConjugatedSingleBond ConjugatedSingleBond ConjugatedDoubleBond ConjugatedSingleBond NonConjugatedSingleBond ConjugatedDoubleBond NonConjugatedSingleBond ConjugatedSingleBond AromaticSingleBond AromaticDoubleBond NonConjugatedSingleBond AromaticDoubleBond NonConjugatedSingleBond AromaticSingleBond NonConjugatedSingleBond AromaticSingleBond AromaticDoubleBond ConjugatedSingleBond ConjugatedSingleBond NonConjugatedSingleBond NonConjugatedSingleBond NonConjugatedSingleBond NonConjugatedSingleBond NonConjugatedSingleBond
M  BCL CHI   1   R   4   R   6   R   8   S  44   S  55   S  56   R
M  BCL DBI - - - - - - - - - - E - - -
M  END
> <ConfClashScore>
0 

> <ConfOneFourInteractionScore>
-0.975328 

> <ConfScore>
-0.14478 

> <ConfScorePBest>
0.0143775 

> <ConfTolerance>
0.25 

$$$$
L02.****
  PyMOL2.5          3D                             0

101104  0  0  0  0  0  0  0  0999 V2000
   15.2780   -4.4674   -5.5882 C   0  0  0  1  0  0  0  0  0  0  0  0
   14.9620   -4.0521   -4.6541 H   0  0  0  1  0  0  0  0  0  0  0  0
   14.4207   -4.0443   -6.6106 O   0  0  0  1  0  0  0  0  0  0  0  0
   15.2177   -6.0018   -5.5239 C   0  0  0  1  0  0  0  0  0  0  0  0
   16.1974   -6.4228   -5.4353 H   0  0  0  1  0  0  0  0  0  0  0  0
   13.7014   -5.1795   -7.1814 C   0  0  0  1  0  0  0  0  0  0  0  0
   13.5855   -5.0619   -8.2386 H   0  0  0  1  0  0  0  0  0  0  0  0
   14.5764   -6.3715   -6.8681 C   0  0  0  1  0  0  0  0  0  0  0  0
   13.9911   -7.2629   -6.7802 H   0  0  0  1  0  0  0  0  0  0  0  0
   14.4091   -6.4402   -4.4294 O   0  0  0  1  0  0  0  0  0  0  0  0
   14.9304   -7.0009   -3.8503 H   0  0  0  1  0  0  0  0  0  0  0  0
    8.0037   -3.4523   -4.0778 C   0  0  0  1  0  0  0  0  0  0  0  0
    7.7532   -4.3010   -4.6794 H   0  0  0  1  0  0  0  0  0  0  0  0
    9.0176   -3.1674   -4.2666 H   0  0  0  1  0  0  0  0  0  0  0  0
    7.8505   -3.8132   -2.6180 C   0  0  0  1  0  0  0  0  0  0  0  0
    6.8302   -4.0881   -2.4499 H   0  0  0  1  0  0  0  0  0  0  0  0
    8.0877   -2.9472   -2.0360 H   0  0  0  1  0  0  0  0  0  0  0  0
    7.1232   -2.3463   -4.4181 N   0  0  0  1  0  0  0  0  0  0  0  0
    6.1736   -2.3858   -4.1789 H   0  0  0  1  0  0  0  0  0  0  0  0
    7.6095   -1.2684   -5.0607 C   0  0  0  1  0  0  0  0  0  0  0  0
    8.7854   -1.1663   -5.4001 O   0  0  0  1  0  0  0  0  0  0  0  0
    6.7373    0.5522   -6.6679 C   0  0  0  1  0  0  0  0  0  0  0  0
    7.7626    0.8062   -6.8387 H   0  0  0  1  0  0  0  0  0  0  0  0
    6.1488    1.4452   -6.6347 H   0  0  0  1  0  0  0  0  0  0  0  0
    6.6166   -0.1746   -5.3465 C   0  0  0  1  0  0  0  0  0  0  0  0
    6.7118    0.5552   -4.5698 H   0  0  0  1  0  0  0  0  0  0  0  0
    5.6403   -0.6108   -5.3090 H   0  0  0  1  0  0  0  0  0  0  0  0
    6.2622   -0.2992   -7.7599 N   0  0  0  1  0  0  0  0  0  0  0  0
    5.5460   -0.9435   -7.5801 H   0  0  0  1  0  0  0  0  0  0  0  0
    7.6108    0.5950   -9.3690 O   0  0  0  1  0  0  0  0  0  0  0  0
    6.7753   -0.2278   -9.0037 C   0  0  0  1  0  0  0  0  0  0  0  0
    8.4162   -2.4532   -9.8570 C   0  0  0  1  0  0  0  0  0  0  0  0
    8.7207   -1.7593   -9.1016 H   0  0  0  1  0  0  0  0  0  0  0  0
    8.7055   -2.0840  -10.8187 H   0  0  0  1  0  0  0  0  0  0  0  0
    6.5277   -3.2461   -8.4485 C   0  0  0  1  0  0  0  0  0  0  0  0
    7.0455   -4.1729   -8.3145 H   0  0  0  1  0  0  0  0  0  0  0  0
    5.4724   -3.4189   -8.4118 H   0  0  0  1  0  0  0  0  0  0  0  0
    6.8057   -2.5667   -7.6700 H   0  0  0  1  0  0  0  0  0  0  0  0
    6.8993   -2.6447   -9.8074 C   0  0  0  1  0  0  0  0  0  0  0  0
    6.4058   -3.6147  -10.8943 C   0  0  0  1  0  0  0  0  0  0  0  0
    6.5144   -3.1586  -11.8561 H   0  0  0  1  0  0  0  0  0  0  0  0
    5.3752   -3.8464  -10.7240 H   0  0  0  1  0  0  0  0  0  0  0  0
    6.9846   -4.5140  -10.8589 H   0  0  0  1  0  0  0  0  0  0  0  0
    6.2247   -1.2758   -9.9512 C   0  0  0  1  0  0  0  0  0  0  0  0
    6.3660   -0.9346  -10.9554 H   0  0  0  1  0  0  0  0  0  0  0  0
    4.8350   -1.5278   -9.7183 O   0  0  0  1  0  0  0  0  0  0  0  0
    4.6651   -2.4705   -9.7819 H   0  0  0  1  0  0  0  0  0  0  0  0
    9.0214   -3.7243   -9.6220 O   0  0  0  1  0  0  0  0  0  0  0  0
   10.5650   -5.6459   -9.1420 O   0  0  0  1  0  0  0  0  0  0  0  0
   11.7282   -6.5026   -7.1177 O   0  0  0  1  0  0  0  0  0  0  0  0
   11.2158   -4.0074  -10.8655 O   0  0  0  0  0  0  0  0  0  0  0  0
   11.0838   -3.2820   -8.3980 O   0  0  0  1  0  0  0  0  0  0  0  0
    9.5962   -5.3518   -6.9045 O   0  0  0  0  0  0  0  0  0  0  0  0
    9.6626   -7.6787   -7.9536 O   0  0  0  1  0  0  0  0  0  0  0  0
   10.5965   -4.0896   -9.5268 P   0  0  0  1  0  0  0  0  0  0  0  0
   10.2843   -6.3575   -7.7468 P   0  0  0  1  0  0  0  0  0  0  0  0
   12.3582   -5.3280   -6.5461 C   0  0  0  1  0  0  0  0  0  0  0  0
   11.7628   -4.4616   -6.7458 H   0  0  0  1  0  0  0  0  0  0  0  0
   12.4667   -5.4509   -5.4888 H   0  0  0  1  0  0  0  0  0  0  0  0
   15.5866   -6.5552   -7.8906 O   0  0  0  1  0  0  0  0  0  0  0  0
   15.2556   -9.1176   -8.0194 O   0  0  0  1  0  0  0  0  0  0  0  0
   17.0432   -7.8983   -9.3893 O   0  5  0  1  0  0  0  0  0  0  0  0
   15.5259   -7.9038   -8.8219 P   0  0  0  1  0  0  0  0  0  0  0  0
   14.7856   -7.3665  -10.1590 O   0  5  0  1  0  0  0  0  0  0  0  0
   16.6460   -4.0358   -5.8768 N   0  0  0  1  0  0  0  0  0  0  0  0
   17.6614   -3.8472   -4.9750 C   0  0  0  1  0  0  0  0  0  0  0  0
   17.1750   -3.7383   -7.0952 C   0  0  0  1  0  0  0  0  0  0  0  0
   16.6198   -3.7883   -7.9731 H   0  0  0  1  0  0  0  0  0  0  0  0
   18.7675   -3.4439   -5.7349 C   0  0  0  1  0  0  0  0  0  0  0  0
   17.6234   -4.0218   -3.6532 N   0  0  0  1  0  0  0  0  0  0  0  0
   18.4317   -3.3854   -7.0786 N   0  0  0  1  0  0  0  0  0  0  0  0
   19.9351   -3.2071   -5.0154 C   0  0  0  1  0  0  0  0  0  0  0  0
   18.7981   -3.7538   -3.0964 C   0  0  0  1  0  0  0  0  0  0  0  0
   18.8418   -3.8645   -2.0632 H   0  0  0  1  0  0  0  0  0  0  0  0
   19.9374   -3.3592   -3.6867 N   0  0  0  1  0  0  0  0  0  0  0  0
   21.0660   -2.8186   -5.7032 N   0  0  0  1  0  0  0  0  0  0  0  0
   21.0359   -2.7158   -6.6773 H   0  0  0  1  0  0  0  0  0  0  0  0
   21.8994   -2.6455   -5.2177 H   0  0  0  1  0  0  0  0  0  0  0  0
    8.8980   -5.1737   -2.0500 S   0  0  0  1  0  0  0  0  0  0  0  0
   10.7671   -3.3089   -2.3922 O   0  0  0  1  0  0  0  0  0  0  0  0
   10.5102   -4.4544   -2.1077 C   0  0  0  1  0  0  0  0  0  0  0  0
   11.5315   -5.4047   -1.6841 C   0  0  0  1  0  0  0  0  0  0  0  0
   11.2163   -6.3668   -1.4459 H   0  0  0  1  0  0  0  0  0  0  0  0
   12.8341   -5.1463   -1.5760 C   0  0  0  1  0  0  0  0  0  0  0  0
   13.1303   -4.1792   -1.8183 H   0  0  0  1  0  0  0  0  0  0  0  0
   13.9103   -6.0699   -1.1527 C   0  0  0  1  0  0  0  0  0  0  0  0
   15.2165   -5.6385   -0.9819 C   0  0  0  1  0  0  0  0  0  0  0  0
   15.4607   -4.6413   -1.1483 H   0  0  0  1  0  0  0  0  0  0  0  0
   13.5849   -7.3939   -0.9263 C   0  0  0  1  0  0  0  0  0  0  0  0
   12.6041   -7.7168   -1.0505 H   0  0  0  1  0  0  0  0  0  0  0  0
   16.1945   -6.5333   -0.5906 C   0  0  0  1  0  0  0  0  0  0  0  0
   17.1753   -6.2104   -0.4664 H   0  0  0  1  0  0  0  0  0  0  0  0
   14.5656   -8.2916   -0.5338 C   0  0  0  1  0  0  0  0  0  0  0  0
   15.8680   -7.8612   -0.3636 C   0  0  0  1  0  0  0  0  0  0  0  0
   16.7568   -8.8070    0.0264 O   0  0  0  1  0  0  0  0  0  0  0  0
   17.4029   -8.9461   -0.6698 H   0  0  0  1  0  0  0  0  0  0  0  0
   14.1820   -9.5748   -0.3337 O   0  0  0  1  0  0  0  0  0  0  0  0
   12.8910   -9.9590   -0.8318 C   0  0  0  1  0  0  0  0  0  0  0  0
   12.7142  -10.9903   -0.6079 H   0  0  0  1  0  0  0  0  0  0  0  0
   12.8601   -9.8140   -1.8915 H   0  0  0  1  0  0  0  0  0  0  0  0
   12.1367   -9.3591   -0.3670 H   0  0  0  1  0  0  0  0  0  0  0  0
  1  2  1  0  0  0  0
  1  3  1  0  0  0  0
  1  4  1  0  0  0  0
  1 65  1  0  0  0  0
  3  6  1  0  0  0  0
  4  5  1  0  0  0  0
  4  8  1  0  0  0  0
  4 10  1  0  0  0  0
  6  7  1  0  0  0  0
  6  8  1  0  0  0  0
  6 57  1  0  0  0  0
  8  9  1  0  0  0  0
  8 60  1  0  0  0  0
 10 11  1  0  0  0  0
 12 13  1  0  0  0  0
 12 14  1  0  0  0  0
 12 15  1  0  0  0  0
 12 18  1  0  0  0  0
 15 16  1  0  0  0  0
 15 17  1  0  0  0  0
 15 79  1  0  0  0  0
 18 19  1  0  0  0  0
 18 20  1  0  0  0  0
 20 21  2  0  0  0  0
 20 25  1  0  0  0  0
 22 23  1  0  0  0  0
 22 24  1  0  0  0  0
 22 25  1  0  0  0  0
 22 28  1  0  0  0  0
 25 26  1  0  0  0  0
 25 27  1  0  0  0  0
 28 29  1  0  0  0  0
 28 31  1  0  0  0  0
 30 31  2  0  0  0  0
 31 44  1  0  0  0  0
 32 33  1  0  0  0  0
 32 34  1  0  0  0  0
 32 39  1  0  0  0  0
 32 48  1  0  0  0  0
 35 36  1  0  0  0  0
 35 37  1  0  0  0  0
 35 38  1  0  0  0  0
 35 39  1  0  0  0  0
 39 40  1  0  0  0  0
 39 44  1  0  0  0  0
 40 41  1  0  0  0  0
 40 42  1  0  0  0  0
 40 43  1  0  0  0  0
 44 45  1  0  0  0  0
 44 46  1  0  0  0  0
 46 47  1  0  0  0  0
 48 55  1  0  0  0  0
 49 55  1  0  0  0  0
 49 56  1  0  0  0  0
 50 56  1  0  0  0  0
 50 57  1  0  0  0  0
 51 55  1  0  0  0  0
 52 55  2  0  0  0  0
 53 56  1  0  0  0  0
 54 56  2  0  0  0  0
 57 58  1  0  0  0  0
 57 59  1  0  0  0  0
 60 63  1  0  0  0  0
 61 63  2  0  0  0  0
 62 63  1  0  0  0  0
 63 64  1  0  0  0  0
 65 66  1  0  0  0  0
 65 67  1  0  0  0  0
 66 69  2  0  0  0  0
 66 70  1  0  0  0  0
 67 68  1  0  0  0  0
 67 71  2  0  0  0  0
 69 71  1  0  0  0  0
 69 72  1  0  0  0  0
 70 73  2  0  0  0  0
 72 75  2  0  0  0  0
 72 76  1  0  0  0  0
 73 74  1  0  0  0  0
 73 75  1  0  0  0  0
 76 77  1  0  0  0  0
 76 78  1  0  0  0  0
 79 81  1  0  0  0  0
 80 81  2  0  0  0  0
 81 82  1  0  0  0  0
 82 83  1  0  0  0  0
 82 84  2  0  0  0  0
 84 85  1  0  0  0  0
 84 86  1  0  0  0  0
 86 87  1  0  0  0  0
 86 89  2  0  0  0  0
 87 88  1  0  0  0  0
 87 91  2  0  0  0  0
 89 90  1  0  0  0  0
 89 93  1  0  0  0  0
 91 92  1  0  0  0  0
 91 94  1  0  0  0  0
 93 94  2  0  0  0  0
 93 97  1  0  0  0  0
 94 95  1  0  0  0  0
 95 96  1  0  0  0  0
 97 98  1  0  0  0  0
 98 99  1  0  0  0  0
 98100  1  0  0  0  0
 98101  1  0  0  0  0
M  BCL ATM C_TeTeTeTe H_S O_Te2Te2TeTe C_TeTeTeTe H_S C_TeTeTeTe H_S C_TeTeTeTe H_S O_Te2Te2TeTe H_S C_TeTeTeTe H_S H_S C_TeTeTeTe H_S H_S N_TrTrTrPi2 H_S C_TrTrTrPi O_Tr2Tr2TrPi C_TeTeTeTe H_S H_S C_TeTeTeTe H_S H_S N_TrTrTrPi2 H_S O_Tr2Tr2TrPi C_TrTrTrPi C_TeTeTeTe H_S H_S C_TeTeTeTe H_S H_S H_S C_TeTeTeTe C_TeTeTeTe H_S H_S H_S C_TeTeTeTe H_S O_Te2Te2TeTe H_S O_Tr2TrTrPi2 O_Tr2TrTrPi2 O_Tr2TrTrPi2 O_Te2Te2TeTe O_Tr2Tr2TrPi O_Te2Te2TeTe O_Tr2Tr2TrPi P_TeTeTeTePi P_TeTeTeTePi C_TeTeTeTe H_S H_S O_Tr2TrTrPi2 O_Tr2Tr2TrPi O_Te2Te2Te2Te P_TeTeTeTePi O_Te2Te2Te2Te N_TrTrTrPi2 C_TrTrTrPi C_TrTrTrPi H_S C_TrTrTrPi N_Tr2TrTrPi N_Tr2TrTrPi C_TrTrTrPi C_TrTrTrPi H_S N_Tr2TrTrPi N_TrTrTrPi2 H_S H_S S_Te2Te2TeTe O_Tr2Tr2TrPi C_TrTrTrPi C_TrTrTrPi H_S C_TrTrTrPi H_S C_TrTrTrPi C_TrTrTrPi H_S C_TrTrTrPi H_S C_TrTrTrPi H_S C_TrTrTrPi C_TrTrTrPi O_Te2Te2TeTe H_S O_Tr2TrTrPi2 C_TeTeTeTe H_S H_S H_S
M  BCL BND NonConjugatedSingleBond NonConjugatedSingleBondInRing NonConjugatedSingleBondInRing NonConjugatedSingleBond NonConjugatedSingleBondInRing NonConjugatedSingleBond NonConjugatedSingleBondInRing NonConjugatedSingleBond NonConjugatedSingleBond NonConjugatedSingleBondInRing NonConjugatedSingleBond NonConjugatedSingleBond NonConjugatedSingleBond NonConjugatedSingleBond NonConjugatedSingleBond NonConjugatedSingleBond NonConjugatedSingleBond NonConjugatedSingleBond NonConjugatedSingleBond NonConjugatedSingleBond NonConjugatedSingleBond NonConjugatedSingleBond AmideSingleBond ConjugatedDoubleBond NonConjugatedSingleBond NonConjugatedSingleBond NonConjugatedSingleBond NonConjugatedSingleBond NonConjugatedSingleBond NonConjugatedSingleBond NonConjugatedSingleBond NonConjugatedSingleBond AmideSingleBond ConjugatedDoubleBond NonConjugatedSingleBond NonConjugatedSingleBond NonConjugatedSingleBond NonConjugatedSingleBond NonConjugatedSingleBond NonConjugatedSingleBond NonConjugatedSingleBond NonConjugatedSingleBond NonConjugatedSingleBond NonConjugatedSingleBond NonConjugatedSingleBond NonConjugatedSingleBond NonConjugatedSingleBond NonConjugatedSingleBond NonConjugatedSingleBond NonConjugatedSingleBond NonConjugatedSingleBond ConjugatedSingleBond ConjugatedSingleBond ConjugatedSingleBond ConjugatedSingleBond NonConjugatedSingleBond ConjugatedSingleBond ConjugatedDoubleBond ConjugatedSingleBond ConjugatedDoubleBond NonConjugatedSingleBond NonConjugatedSingleBond ConjugatedSingleBond ConjugatedDoubleBond ConjugatedSingleBond ConjugatedSingleBond AromaticSingleBond AromaticSingleBond AromaticDoubleBond AromaticSingleBond NonConjugatedSingleBond AromaticDoubleBond AromaticSingleBond AromaticSingleBond AromaticDoubleBond AromaticDoubleBond ConjugatedSingleBond NonConjugatedSingleBond AromaticSingleBond NonConjugatedSingleBond NonConjugatedSingleBond ConjugatedSingleBond ConjugatedDoubleBond ConjugatedSingleBond NonConjugatedSingleBond ConjugatedDoubleBond NonConjugatedSingleBond ConjugatedSingleBond AromaticSingleBond AromaticDoubleBond NonConjugatedSingleBond AromaticDoubleBond NonConjugatedSingleBond AromaticSingleBond NonConjugatedSingleBond AromaticSingleBond AromaticDoubleBond ConjugatedSingleBond ConjugatedSingleBond NonConjugatedSingleBond NonConjugatedSingleBond NonConjugatedSingleBond NonConjugatedSingleBond NonConjugatedSingleBond
M  BCL CHI   1   R   4   R   6   R   8   S  44   S  55   S  56   R
M  BCL DBI - - - - - - - - - - E - - -
M  END
> <ConfClashScore>
0 

> <ConfOneFourInteractionScore>
-0.974341 

> <ConfScore>
-0.127568 

> <ConfScorePBest>
0.0142745 

> <ConfTolerance>
2.566 

$$$$
L02.****
  PyMOL2.5          3D                             0

101104  0  0  0  0  0  0  0  0999 V2000
   15.2257   -4.4920   -5.5693 C   0  0  0  1  0  0  0  0  0  0  0  0
   15.2310   -5.3687   -4.9558 H   0  0  0  1  0  0  0  0  0  0  0  0
   14.5641   -3.3828   -4.9166 O   0  0  0  1  0  0  0  0  0  0  0  0
   14.4795   -4.7448   -6.8624 C   0  0  0  1  0  0  0  0  0  0  0  0
   15.1227   -4.5908   -7.7035 H   0  0  0  1  0  0  0  0  0  0  0  0
   13.8405   -2.6737   -5.9344 C   0  0  0  1  0  0  0  0  0  0  0  0
   14.4847   -1.9913   -6.4484 H   0  0  0  1  0  0  0  0  0  0  0  0
   13.3476   -3.7384   -6.8675 C   0  0  0  1  0  0  0  0  0  0  0  0
   12.4411   -4.1772   -6.5059 H   0  0  0  1  0  0  0  0  0  0  0  0
   13.9658   -6.0772   -6.8926 O   0  0  0  1  0  0  0  0  0  0  0  0
   13.0062   -6.0509   -6.8892 H   0  0  0  1  0  0  0  0  0  0  0  0
   14.2295  -10.8105   -9.0274 C   0  0  0  1  0  0  0  0  0  0  0  0
   14.3598   -9.9367   -8.4239 H   0  0  0  1  0  0  0  0  0  0  0  0
   14.2308  -11.6794   -8.4029 H   0  0  0  1  0  0  0  0  0  0  0  0
   15.3840  -10.9076   -9.9927 C   0  0  0  1  0  0  0  0  0  0  0  0
   15.4409   -9.9868  -10.5347 H   0  0  0  1  0  0  0  0  0  0  0  0
   15.1818  -11.7097  -10.6714 H   0  0  0  1  0  0  0  0  0  0  0  0
   12.9433  -10.7234   -9.7025 N   0  0  0  1  0  0  0  0  0  0  0  0
   12.8518  -10.1786  -10.5120 H   0  0  0  1  0  0  0  0  0  0  0  0
   11.8885  -11.3836   -9.2219 C   0  0  0  1  0  0  0  0  0  0  0  0
   11.9571  -12.1448   -8.2584 O   0  0  0  1  0  0  0  0  0  0  0  0
    9.4742  -10.5573   -9.0803 C   0  0  0  1  0  0  0  0  0  0  0  0
    9.5464  -10.9838   -8.1016 H   0  0  0  1  0  0  0  0  0  0  0  0
    8.5375  -10.8294   -9.5202 H   0  0  0  1  0  0  0  0  0  0  0  0
   10.5864  -11.1426   -9.9350 C   0  0  0  1  0  0  0  0  0  0  0  0
   10.2453  -12.0789  -10.3247 H   0  0  0  1  0  0  0  0  0  0  0  0
   10.7728  -10.4660  -10.7427 H   0  0  0  1  0  0  0  0  0  0  0  0
    9.5086   -9.0999   -8.9461 N   0  0  0  1  0  0  0  0  0  0  0  0
   10.3297   -8.6220   -9.1864 H   0  0  0  1  0  0  0  0  0  0  0  0
    7.3739   -8.9129   -8.2413 O   0  0  0  1  0  0  0  0  0  0  0  0
    8.4594   -8.3986   -8.5075 C   0  0  0  1  0  0  0  0  0  0  0  0
    8.5044   -4.8424   -6.9614 C   0  0  0  1  0  0  0  0  0  0  0  0
    7.9247   -4.4532   -7.7721 H   0  0  0  1  0  0  0  0  0  0  0  0
    9.5247   -4.5404   -7.0745 H   0  0  0  1  0  0  0  0  0  0  0  0
    6.9914   -6.7870   -6.5358 C   0  0  0  1  0  0  0  0  0  0  0  0
    6.2861   -6.3457   -7.2086 H   0  0  0  1  0  0  0  0  0  0  0  0
    6.7930   -6.4500   -5.5398 H   0  0  0  1  0  0  0  0  0  0  0  0
    6.9040   -7.8527   -6.5763 H   0  0  0  1  0  0  0  0  0  0  0  0
    8.4119   -6.3754   -6.9408 C   0  0  0  1  0  0  0  0  0  0  0  0
    9.4270   -6.9784   -5.9629 C   0  0  0  1  0  0  0  0  0  0  0  0
   10.2393   -6.2956   -5.8252 H   0  0  0  1  0  0  0  0  0  0  0  0
    9.7993   -7.9000   -6.3589 H   0  0  0  1  0  0  0  0  0  0  0  0
    8.9509   -7.1603   -5.0221 H   0  0  0  1  0  0  0  0  0  0  0  0
    8.6827   -6.9053   -8.3522 C   0  0  0  1  0  0  0  0  0  0  0  0
    8.0195   -6.4010   -9.0236 H   0  0  0  1  0  0  0  0  0  0  0  0
   10.0342   -6.6343   -8.7378 O   0  0  0  1  0  0  0  0  0  0  0  0
   10.5822   -6.5581   -7.9532 H   0  0  0  1  0  0  0  0  0  0  0  0
    7.9825   -4.3538   -5.7033 O   0  0  0  1  0  0  0  0  0  0  0  0
    9.5747   -2.4949   -5.0056 O   0  0  0  1  0  0  0  0  0  0  0  0
   11.8862   -2.8715   -4.6010 O   0  0  0  1  0  0  0  0  0  0  0  0
    7.6597   -1.9549   -6.4336 O   0  0  0  0  0  0  0  0  0  0  0  0
    7.2095   -2.6917   -4.0556 O   0  0  0  1  0  0  0  0  0  0  0  0
   10.6327   -1.2950   -3.0624 O   0  0  0  0  0  0  0  0  0  0  0  0
   10.2390   -3.8036   -2.9657 O   0  0  0  1  0  0  0  0  0  0  0  0
    8.0677   -2.8485   -5.2649 P   0  0  0  1  0  0  0  0  0  0  0  0
   10.5686   -2.5990   -3.7479 P   0  0  0  1  0  0  0  0  0  0  0  0
   12.6940   -1.9246   -5.3391 C   0  0  0  1  0  0  0  0  0  0  0  0
   12.1104   -1.4747   -6.1150 H   0  0  0  1  0  0  0  0  0  0  0  0
   13.0582   -1.1646   -4.6798 H   0  0  0  1  0  0  0  0  0  0  0  0
   13.1299   -3.2051   -8.1988 O   0  0  0  1  0  0  0  0  0  0  0  0
   11.0640   -4.4905   -8.3557 O   0  0  0  1  0  0  0  0  0  0  0  0
   12.8239   -4.8665  -10.2327 O   0  5  0  1  0  0  0  0  0  0  0  0
   12.0446   -3.8388   -9.2525 P   0  0  0  1  0  0  0  0  0  0  0  0
   11.4120   -2.5998  -10.0827 O   0  5  0  1  0  0  0  0  0  0  0  0
   16.6435   -4.0428   -5.8777 N   0  0  0  1  0  0  0  0  0  0  0  0
   17.6622   -3.8462   -4.9814 C   0  0  0  1  0  0  0  0  0  0  0  0
   17.1667   -3.7520   -7.1001 C   0  0  0  1  0  0  0  0  0  0  0  0
   16.6080   -3.8088   -7.9754 H   0  0  0  1  0  0  0  0  0  0  0  0
   18.7643   -3.4454   -5.7486 C   0  0  0  1  0  0  0  0  0  0  0  0
   17.6302   -4.0124   -3.6584 N   0  0  0  1  0  0  0  0  0  0  0  0
   18.4226   -3.3963   -7.0911 N   0  0  0  1  0  0  0  0  0  0  0  0
   19.9343   -3.2014   -5.0355 C   0  0  0  1  0  0  0  0  0  0  0  0
   18.8066   -3.7382   -3.1082 C   0  0  0  1  0  0  0  0  0  0  0  0
   18.8549   -3.8422   -2.0745 H   0  0  0  1  0  0  0  0  0  0  0  0
   19.9425   -3.3450   -3.7058 N   0  0  0  1  0  0  0  0  0  0  0  0
   21.0788   -2.8154   -5.6820 N   0  0  0  1  0  0  0  0  0  0  0  0
   21.9220   -2.7477   -5.1873 H   0  0  0  1  0  0  0  0  0  0  0  0
   21.0543   -2.6070   -6.6393 H   0  0  0  1  0  0  0  0  0  0  0  0
   16.9932  -11.2098   -9.2338 S   0  0  0  1  0  0  0  0  0  0  0  0
   17.0407   -8.5767   -9.2305 O   0  0  0  1  0  0  0  0  0  0  0  0
   17.6641   -9.5609   -8.9345 C   0  0  0  1  0  0  0  0  0  0  0  0
   18.9867   -9.5715   -8.3213 C   0  0  0  1  0  0  0  0  0  0  0  0
   19.3941  -10.4988   -8.0856 H   0  0  0  1  0  0  0  0  0  0  0  0
   19.7182   -8.4947   -8.0370 C   0  0  0  1  0  0  0  0  0  0  0  0
   19.2944   -7.5766   -8.2798 H   0  0  0  1  0  0  0  0  0  0  0  0
   21.0627   -8.4481   -7.4168 C   0  0  0  1  0  0  0  0  0  0  0  0
   21.7056   -7.2289   -7.2691 C   0  0  0  1  0  0  0  0  0  0  0  0
   21.2421   -6.3546   -7.5892 H   0  0  0  1  0  0  0  0  0  0  0  0
   21.6763   -9.6093   -6.9866 C   0  0  0  1  0  0  0  0  0  0  0  0
   21.1923  -10.5236   -7.0937 H   0  0  0  1  0  0  0  0  0  0  0  0
   22.9624   -7.1751   -6.6965 C   0  0  0  1  0  0  0  0  0  0  0  0
   23.4464   -6.2609   -6.5894 H   0  0  0  1  0  0  0  0  0  0  0  0
   22.9368   -9.5556   -6.4123 C   0  0  0  1  0  0  0  0  0  0  0  0
   23.5777   -8.3400   -6.2651 C   0  0  0  1  0  0  0  0  0  0  0  0
   24.8035   -8.3840   -5.6888 O   0  0  0  1  0  0  0  0  0  0  0  0
   25.2882   -9.1418   -6.0240 H   0  0  0  1  0  0  0  0  0  0  0  0
   23.6366  -10.6230   -5.9598 O   0  0  0  1  0  0  0  0  0  0  0  0
   22.9846  -11.9018   -6.0038 C   0  0  0  1  0  0  0  0  0  0  0  0
   23.7000  -12.6594   -6.2469 H   0  0  0  1  0  0  0  0  0  0  0  0
   22.2165  -11.8847   -6.7486 H   0  0  0  1  0  0  0  0  0  0  0  0
   22.5513  -12.1140   -5.0488 H   0  0  0  1  0  0  0  0  0  0  0  0
  1  2  1  0  0  0  0
  1  3  1  0  0  0  0
  1  4  1  0  0  0  0
  1 65  1  0  0  0  0
  3  6  1  0  0  0  0
  4  5  1  0  0  0  0
  4  8  1  0  0  0  0
  4 10  1  0  0  0  0
  6  7  1  0  0  0  0
  6  8  1  0  0  0  0
  6 57  1  0  0  0  0
  8  9  1  0  0  0  0
  8 60  1  0  0  0  0
 10 11  1  0  0  0  0
 12 13  1  0  0  0  0
 12 14  1  0  0  0  0
 12 15  1  0  0  0  0
 12 18  1  0  0  0  0
 15 16  1  0  0  0  0
 15 17  1  0  0  0  0
 15 79  1  0  0  0  0
 18 19  1  0  0  0  0
 18 20  1  0  0  0  0
 20 21  2  0  0  0  0
 20 25  1  0  0  0  0
 22 23  1  0  0  0  0
 22 24  1  0  0  0  0
 22 25  1  0  0  0  0
 22 28  1  0  0  0  0
 25 26  1  0  0  0  0
 25 27  1  0  0  0  0
 28 29  1  0  0  0  0
 28 31  1  0  0  0  0
 30 31  2  0  0  0  0
 31 44  1  0  0  0  0
 32 33  1  0  0  0  0
 32 34  1  0  0  0  0
 32 39  1  0  0  0  0
 32 48  1  0  0  0  0
 35 36  1  0  0  0  0
 35 37  1  0  0  0  0
 35 38  1  0  0  0  0
 35 39  1  0  0  0  0
 39 40  1  0  0  0  0
 39 44  1  0  0  0  0
 40 41  1  0  0  0  0
 40 42  1  0  0  0  0
 40 43  1  0  0  0  0
 44 45  1  0  0  0  0
 44 46  1  0  0  0  0
 46 47  1  0  0  0  0
 48 55  1  0  0  0  0
 49 55  1  0  0  0  0
 49 56  1  0  0  0  0
 50 56  1  0  0  0  0
 50 57  1  0  0  0  0
 51 55  1  0  0  0  0
 52 55  2  0  0  0  0
 53 56  1  0  0  0  0
 54 56  2  0  0  0  0
 57 58  1  0  0  0  0
 57 59  1  0  0  0  0
 60 63  1  0  0  0  0
 61 63  2  0  0  0  0
 62 63  1  0  0  0  0
 63 64  1  0  0  0  0
 65 66  1  0  0  0  0
 65 67  1  0  0  0  0
 66 69  2  0  0  0  0
 66 70  1  0  0  0  0
 67 68  1  0  0  0  0
 67 71  2  0  0  0  0
 69 71  1  0  0  0  0
 69 72  1  0  0  0  0
 70 73  2  0  0  0  0
 72 75  2  0  0  0  0
 72 76  1  0  0  0  0
 73 74  1  0  0  0  0
 73 75  1  0  0  0  0
 76 77  1  0  0  0  0
 76 78  1  0  0  0  0
 79 81  1  0  0  0  0
 80 81  2  0  0  0  0
 81 82  1  0  0  0  0
 82 83  1  0  0  0  0
 82 84  2  0  0  0  0
 84 85  1  0  0  0  0
 84 86  1  0  0  0  0
 86 87  1  0  0  0  0
 86 89  2  0  0  0  0
 87 88  1  0  0  0  0
 87 91  2  0  0  0  0
 89 90  1  0  0  0  0
 89 93  1  0  0  0  0
 91 92  1  0  0  0  0
 91 94  1  0  0  0  0
 93 94  2  0  0  0  0
 93 97  1  0  0  0  0
 94 95  1  0  0  0  0
 95 96  1  0  0  0  0
 97 98  1  0  0  0  0
 98 99  1  0  0  0  0
 98100  1  0  0  0  0
 98101  1  0  0  0  0
M  BCL ATM C_TeTeTeTe H_S O_Te2Te2TeTe C_TeTeTeTe H_S C_TeTeTeTe H_S C_TeTeTeTe H_S O_Te2Te2TeTe H_S C_TeTeTeTe H_S H_S C_TeTeTeTe H_S H_S N_TrTrTrPi2 H_S C_TrTrTrPi O_Tr2Tr2TrPi C_TeTeTeTe H_S H_S C_TeTeTeTe H_S H_S N_TrTrTrPi2 H_S O_Tr2Tr2TrPi C_TrTrTrPi C_TeTeTeTe H_S H_S C_TeTeTeTe H_S H_S H_S C_TeTeTeTe C_TeTeTeTe H_S H_S H_S C_TeTeTeTe H_S O_Te2Te2TeTe H_S O_Tr2TrTrPi2 O_Tr2TrTrPi2 O_Tr2TrTrPi2 O_Te2Te2TeTe O_Tr2Tr2TrPi O_Te2Te2TeTe O_Tr2Tr2TrPi P_TeTeTeTePi P_TeTeTeTePi C_TeTeTeTe H_S H_S O_Tr2TrTrPi2 O_Tr2Tr2TrPi O_Te2Te2Te2Te P_TeTeTeTePi O_Te2Te2Te2Te N_TrTrTrPi2 C_TrTrTrPi C_TrTrTrPi H_S C_TrTrTrPi N_Tr2TrTrPi N_Tr2TrTrPi C_TrTrTrPi C_TrTrTrPi H_S N_Tr2TrTrPi N_TrTrTrPi2 H_S H_S S_Te2Te2TeTe O_Tr2Tr2TrPi C_TrTrTrPi C_TrTrTrPi H_S C_TrTrTrPi H_S C_TrTrTrPi C_TrTrTrPi H_S C_TrTrTrPi H_S C_TrTrTrPi H_S C_TrTrTrPi C_TrTrTrPi O_Te2Te2TeTe H_S O_Tr2TrTrPi2 C_TeTeTeTe H_S H_S H_S
M  BCL BND NonConjugatedSingleBond NonConjugatedSingleBondInRing NonConjugatedSingleBondInRing NonConjugatedSingleBond NonConjugatedSingleBondInRing NonConjugatedSingleBond NonConjugatedSingleBondInRing NonConjugatedSingleBond NonConjugatedSingleBond NonConjugatedSingleBondInRing NonConjugatedSingleBond NonConjugatedSingleBond NonConjugatedSingleBond NonConjugatedSingleBond NonConjugatedSingleBond NonConjugatedSingleBond NonConjugatedSingleBond NonConjugatedSingleBond NonConjugatedSingleBond NonConjugatedSingleBond NonConjugatedSingleBond NonConjugatedSingleBond AmideSingleBond ConjugatedDoubleBond NonConjugatedSingleBond NonConjugatedSingleBond NonConjugatedSingleBond NonConjugatedSingleBond NonConjugatedSingleBond NonConjugatedSingleBond NonConjugatedSingleBond NonConjugatedSingleBond AmideSingleBond ConjugatedDoubleBond NonConjugatedSingleBond NonConjugatedSingleBond NonConjugatedSingleBond NonConjugatedSingleBond NonConjugatedSingleBond NonConjugatedSingleBond NonConjugatedSingleBond NonConjugatedSingleBond NonConjugatedSingleBond NonConjugatedSingleBond NonConjugatedSingleBond NonConjugatedSingleBond NonConjugatedSingleBond NonConjugatedSingleBond NonConjugatedSingleBond NonConjugatedSingleBond NonConjugatedSingleBond ConjugatedSingleBond ConjugatedSingleBond ConjugatedSingleBond ConjugatedSingleBond NonConjugatedSingleBond ConjugatedSingleBond ConjugatedDoubleBond ConjugatedSingleBond ConjugatedDoubleBond NonConjugatedSingleBond NonConjugatedSingleBond ConjugatedSingleBond ConjugatedDoubleBond ConjugatedSingleBond ConjugatedSingleBond AromaticSingleBond AromaticSingleBond AromaticDoubleBond AromaticSingleBond NonConjugatedSingleBond AromaticDoubleBond AromaticSingleBond AromaticSingleBond AromaticDoubleBond AromaticDoubleBond ConjugatedSingleBond NonConjugatedSingleBond AromaticSingleBond NonConjugatedSingleBond NonConjugatedSingleBond ConjugatedSingleBond ConjugatedDoubleBond ConjugatedSingleBond NonConjugatedSingleBond ConjugatedDoubleBond NonConjugatedSingleBond ConjugatedSingleBond AromaticSingleBond AromaticDoubleBond NonConjugatedSingleBond AromaticDoubleBond NonConjugatedSingleBond AromaticSingleBond NonConjugatedSingleBond AromaticSingleBond AromaticDoubleBond ConjugatedSingleBond ConjugatedSingleBond NonConjugatedSingleBond NonConjugatedSingleBond NonConjugatedSingleBond NonConjugatedSingleBond NonConjugatedSingleBond
M  BCL CHI   1   R   4   R   6   R   8   S  44   S  55   S  56   R
M  BCL DBI - - - - - - - - - - E - - -
M  END
> <ConfClashScore>
0 

> <ConfOneFourInteractionScore>
-0.980286 

> <ConfScore>
-0.121527 

> <ConfScorePBest>
0.0141715 

> <ConfTolerance>
2.57887 

$$$$
L02.****
  PyMOL2.5          3D                             0

101104  0  0  0  0  0  0  0  0999 V2000
   15.2086   -4.3440   -5.5628 C   0  0  0  1  0  0  0  0  0  0  0  0
   14.9401   -3.8955   -4.6292 H   0  0  0  1  0  0  0  0  0  0  0  0
   14.3532   -3.8717   -6.6152 O   0  0  0  1  0  0  0  0  0  0  0  0
   14.9832   -5.8254   -5.5206 C   0  0  0  1  0  0  0  0  0  0  0  0
   15.5808   -6.3265   -6.2533 H   0  0  0  1  0  0  0  0  0  0  0  0
   13.1508   -4.6756   -6.5697 C   0  0  0  1  0  0  0  0  0  0  0  0
   12.8185   -4.8981   -7.5622 H   0  0  0  1  0  0  0  0  0  0  0  0
   13.5084   -5.9536   -5.8406 C   0  0  0  1  0  0  0  0  0  0  0  0
   12.9357   -6.0459   -4.9415 H   0  0  0  1  0  0  0  0  0  0  0  0
   15.2754   -6.3526   -4.2257 O   0  0  0  1  0  0  0  0  0  0  0  0
   14.9327   -7.2468   -4.1589 H   0  0  0  1  0  0  0  0  0  0  0  0
   23.2225   -6.4097    0.3796 C   0  0  0  1  0  0  0  0  0  0  0  0
   23.3216   -5.6692    1.1456 H   0  0  0  1  0  0  0  0  0  0  0  0
   23.4668   -7.3718    0.7791 H   0  0  0  1  0  0  0  0  0  0  0  0
   24.1666   -6.0858   -0.7507 C   0  0  0  1  0  0  0  0  0  0  0  0
   24.0363   -6.8053   -1.5319 H   0  0  0  1  0  0  0  0  0  0  0  0
   25.1727   -6.1297   -0.3890 H   0  0  0  1  0  0  0  0  0  0  0  0
   21.8485   -6.4236   -0.0999 N   0  0  0  1  0  0  0  0  0  0  0  0
   21.6825   -6.3395   -1.0621 H   0  0  0  1  0  0  0  0  0  0  0  0
   20.8056   -6.5472    0.7260 C   0  0  0  1  0  0  0  0  0  0  0  0
   20.9086   -6.6509    1.9476 O   0  0  0  1  0  0  0  0  0  0  0  0
   18.3047   -6.4882    1.0591 C   0  0  0  1  0  0  0  0  0  0  0  0
   18.3686   -5.6337    1.6998 H   0  0  0  1  0  0  0  0  0  0  0  0
   18.3682   -7.3805    1.6462 H   0  0  0  1  0  0  0  0  0  0  0  0
   19.4554   -6.4580    0.0664 C   0  0  0  1  0  0  0  0  0  0  0  0
   19.3486   -7.2851   -0.6040 H   0  0  0  1  0  0  0  0  0  0  0  0
   19.4055   -5.5424   -0.4851 H   0  0  0  1  0  0  0  0  0  0  0  0
   17.0236   -6.4662    0.3508 N   0  0  0  1  0  0  0  0  0  0  0  0
   17.0249   -6.4074   -0.6274 H   0  0  0  1  0  0  0  0  0  0  0  0
   15.7468   -6.5884    2.2145 O   0  0  0  1  0  0  0  0  0  0  0  0
   15.8546   -6.5233    0.9907 C   0  0  0  1  0  0  0  0  0  0  0  0
   14.9734   -3.9943   -0.2837 C   0  0  0  1  0  0  0  0  0  0  0  0
   15.2559   -4.1881   -1.2973 H   0  0  0  1  0  0  0  0  0  0  0  0
   15.8458   -3.9909    0.3358 H   0  0  0  1  0  0  0  0  0  0  0  0
   12.6532   -5.0202   -0.6254 C   0  0  0  1  0  0  0  0  0  0  0  0
   12.0415   -5.8515   -0.3432 H   0  0  0  1  0  0  0  0  0  0  0  0
   12.8954   -5.0927   -1.6651 H   0  0  0  1  0  0  0  0  0  0  0  0
   12.1217   -4.1092   -0.4452 H   0  0  0  1  0  0  0  0  0  0  0  0
   13.9556   -5.0307    0.2091 C   0  0  0  1  0  0  0  0  0  0  0  0
   13.6675   -4.7418    1.6842 C   0  0  0  1  0  0  0  0  0  0  0  0
   13.0399   -5.5112    2.0829 H   0  0  0  1  0  0  0  0  0  0  0  0
   13.1729   -3.7971    1.7723 H   0  0  0  1  0  0  0  0  0  0  0  0
   14.5883   -4.7150    2.2286 H   0  0  0  1  0  0  0  0  0  0  0  0
   14.6215   -6.4068    0.0975 C   0  0  0  1  0  0  0  0  0  0  0  0
   13.9122   -7.1392    0.4221 H   0  0  0  1  0  0  0  0  0  0  0  0
   14.9749   -6.6648   -1.2508 O   0  0  0  1  0  0  0  0  0  0  0  0
   15.7139   -7.2769   -1.2768 H   0  0  0  1  0  0  0  0  0  0  0  0
   14.2589   -2.7403   -0.1770 O   0  0  0  1  0  0  0  0  0  0  0  0
   12.6792   -2.9453   -2.1452 O   0  0  0  1  0  0  0  0  0  0  0  0
   12.5390   -3.7243   -4.4786 O   0  0  0  1  0  0  0  0  0  0  0  0
   12.9672   -0.7920   -0.8421 O   0  0  0  0  0  0  0  0  0  0  0  0
   14.7763   -1.6994   -2.4503 O   0  0  0  1  0  0  0  0  0  0  0  0
   10.4148   -3.3812   -3.1866 O   0  0  0  0  0  0  0  0  0  0  0  0
   11.8535   -1.4042   -3.8537 O   0  0  0  1  0  0  0  0  0  0  0  0
   13.7268   -1.9383   -1.4324 P   0  0  0  1  0  0  0  0  0  0  0  0
   11.7586   -2.7999   -3.4242 P   0  0  0  1  0  0  0  0  0  0  0  0
   12.0733   -3.9483   -5.8347 C   0  0  0  1  0  0  0  0  0  0  0  0
   11.1802   -4.5374   -5.8206 H   0  0  0  1  0  0  0  0  0  0  0  0
   11.8756   -3.0111   -6.3115 H   0  0  0  1  0  0  0  0  0  0  0  0
   13.2699   -7.1049   -6.6860 O   0  0  0  1  0  0  0  0  0  0  0  0
   13.2696   -8.4547   -4.6450 O   0  0  0  1  0  0  0  0  0  0  0  0
   12.9848   -9.7406   -6.9632 O   0  5  0  1  0  0  0  0  0  0  0  0
   12.6788   -8.4732   -6.0018 P   0  0  0  1  0  0  0  0  0  0  0  0
   11.0697   -8.2860   -6.0098 O   0  5  0  1  0  0  0  0  0  0  0  0
   16.6131   -4.0436   -5.8647 N   0  0  0  1  0  0  0  0  0  0  0  0
   17.6529   -3.8686   -4.9884 C   0  0  0  1  0  0  0  0  0  0  0  0
   17.1059   -3.7191   -7.0913 C   0  0  0  1  0  0  0  0  0  0  0  0
   16.5261   -3.7539   -7.9539 H   0  0  0  1  0  0  0  0  0  0  0  0
   18.7354   -3.4450   -5.7712 C   0  0  0  1  0  0  0  0  0  0  0  0
   17.6534   -4.0701   -3.6699 N   0  0  0  1  0  0  0  0  0  0  0  0
   18.3611   -3.3610   -7.1032 N   0  0  0  1  0  0  0  0  0  0  0  0
   19.9220   -3.2175   -5.0804 C   0  0  0  1  0  0  0  0  0  0  0  0
   18.8424   -3.8080   -3.1413 C   0  0  0  1  0  0  0  0  0  0  0  0
   18.9160   -3.9394   -2.1123 H   0  0  0  1  0  0  0  0  0  0  0  0
   19.9628   -3.3964   -3.7556 N   0  0  0  1  0  0  0  0  0  0  0  0
   21.1234   -2.8055   -5.6468 N   0  0  0  1  0  0  0  0  0  0  0  0
   21.6839   -2.1488   -5.1832 H   0  0  0  1  0  0  0  0  0  0  0  0
   21.4095   -3.1719   -6.5095 H   0  0  0  1  0  0  0  0  0  0  0  0
   23.8480   -4.4326   -1.4112 S   0  0  0  1  0  0  0  0  0  0  0  0
   25.9225   -3.8426    0.1057 O   0  0  0  1  0  0  0  0  0  0  0  0
   25.0711   -3.4024   -0.6316 C   0  0  0  1  0  0  0  0  0  0  0  0
   24.9531   -1.9872   -0.9615 C   0  0  0  1  0  0  0  0  0  0  0  0
   24.3163   -1.7327   -1.7434 H   0  0  0  1  0  0  0  0  0  0  0  0
   25.5907   -0.9927   -0.3475 C   0  0  0  1  0  0  0  0  0  0  0  0
   26.2229   -1.2667    0.4315 H   0  0  0  1  0  0  0  0  0  0  0  0
   25.5080    0.4574   -0.6405 C   0  0  0  1  0  0  0  0  0  0  0  0
   26.1458    1.3172    0.2401 C   0  0  0  1  0  0  0  0  0  0  0  0
   26.6570    0.9351    1.0612 H   0  0  0  1  0  0  0  0  0  0  0  0
   24.8330    0.9649   -1.7347 C   0  0  0  1  0  0  0  0  0  0  0  0
   24.3579    0.3196   -2.3976 H   0  0  0  1  0  0  0  0  0  0  0  0
   26.1023    2.6821    0.0270 C   0  0  0  1  0  0  0  0  0  0  0  0
   26.5775    3.3273    0.6899 H   0  0  0  1  0  0  0  0  0  0  0  0
   24.7893    2.3338   -1.9486 C   0  0  0  1  0  0  0  0  0  0  0  0
   25.4253    3.1909   -1.0704 C   0  0  0  1  0  0  0  0  0  0  0  0
   25.4295    4.5381   -1.2183 O   0  0  0  1  0  0  0  0  0  0  0  0
   24.5447    4.8391   -1.4375 H   0  0  0  1  0  0  0  0  0  0  0  0
   24.1589    2.9436   -2.9760 O   0  0  0  1  0  0  0  0  0  0  0  0
   23.4582    2.1502   -3.9466 C   0  0  0  1  0  0  0  0  0  0  0  0
   22.7294    1.5425   -3.4523 H   0  0  0  1  0  0  0  0  0  0  0  0
   24.1540    1.5229   -4.4635 H   0  0  0  1  0  0  0  0  0  0  0  0
   22.9691    2.7943   -4.6473 H   0  0  0  1  0  0  0  0  0  0  0  0
  1  2  1  0  0  0  0
  1  3  1  0  0  0  0
  1  4  1  0  0  0  0
  1 65  1  0  0  0  0
  3  6  1  0  0  0  0
  4  5  1  0  0  0  0
  4  8  1  0  0  0  0
  4 10  1  0  0  0  0
  6  7  1  0  0  0  0
  6  8  1  0  0  0  0
  6 57  1  0  0  0  0
  8  9  1  0  0  0  0
  8 60  1  0  0  0  0
 10 11  1  0  0  0  0
 12 13  1  0  0  0  0
 12 14  1  0  0  0  0
 12 15  1  0  0  0  0
 12 18  1  0  0  0  0
 15 16  1  0  0  0  0
 15 17  1  0  0  0  0
 15 79  1  0  0  0  0
 18 19  1  0  0  0  0
 18 20  1  0  0  0  0
 20 21  2  0  0  0  0
 20 25  1  0  0  0  0
 22 23  1  0  0  0  0
 22 24  1  0  0  0  0
 22 25  1  0  0  0  0
 22 28  1  0  0  0  0
 25 26  1  0  0  0  0
 25 27  1  0  0  0  0
 28 29  1  0  0  0  0
 28 31  1  0  0  0  0
 30 31  2  0  0  0  0
 31 44  1  0  0  0  0
 32 33  1  0  0  0  0
 32 34  1  0  0  0  0
 32 39  1  0  0  0  0
 32 48  1  0  0  0  0
 35 36  1  0  0  0  0
 35 37  1  0  0  0  0
 35 38  1  0  0  0  0
 35 39  1  0  0  0  0
 39 40  1  0  0  0  0
 39 44  1  0  0  0  0
 40 41  1  0  0  0  0
 40 42  1  0  0  0  0
 40 43  1  0  0  0  0
 44 45  1  0  0  0  0
 44 46  1  0  0  0  0
 46 47  1  0  0  0  0
 48 55  1  0  0  0  0
 49 55  1  0  0  0  0
 49 56  1  0  0  0  0
 50 56  1  0  0  0  0
 50 57  1  0  0  0  0
 51 55  1  0  0  0  0
 52 55  2  0  0  0  0
 53 56  1  0  0  0  0
 54 56  2  0  0  0  0
 57 58  1  0  0  0  0
 57 59  1  0  0  0  0
 60 63  1  0  0  0  0
 61 63  2  0  0  0  0
 62 63  1  0  0  0  0
 63 64  1  0  0  0  0
 65 66  1  0  0  0  0
 65 67  1  0  0  0  0
 66 69  2  0  0  0  0
 66 70  1  0  0  0  0
 67 68  1  0  0  0  0
 67 71  2  0  0  0  0
 69 71  1  0  0  0  0
 69 72  1  0  0  0  0
 70 73  2  0  0  0  0
 72 75  2  0  0  0  0
 72 76  1  0  0  0  0
 73 74  1  0  0  0  0
 73 75  1  0  0  0  0
 76 77  1  0  0  0  0
 76 78  1  0  0  0  0
 79 81  1  0  0  0  0
 80 81  2  0  0  0  0
 81 82  1  0  0  0  0
 82 83  1  0  0  0  0
 82 84  2  0  0  0  0
 84 85  1  0  0  0  0
 84 86  1  0  0  0  0
 86 87  1  0  0  0  0
 86 89  2  0  0  0  0
 87 88  1  0  0  0  0
 87 91  2  0  0  0  0
 89 90  1  0  0  0  0
 89 93  1  0  0  0  0
 91 92  1  0  0  0  0
 91 94  1  0  0  0  0
 93 94  2  0  0  0  0
 93 97  1  0  0  0  0
 94 95  1  0  0  0  0
 95 96  1  0  0  0  0
 97 98  1  0  0  0  0
 98 99  1  0  0  0  0
 98100  1  0  0  0  0
 98101  1  0  0  0  0
M  BCL ATM C_TeTeTeTe H_S O_Te2Te2TeTe C_TeTeTeTe H_S C_TeTeTeTe H_S C_TeTeTeTe H_S O_Te2Te2TeTe H_S C_TeTeTeTe H_S H_S C_TeTeTeTe H_S H_S N_TrTrTrPi2 H_S C_TrTrTrPi O_Tr2Tr2TrPi C_TeTeTeTe H_S H_S C_TeTeTeTe H_S H_S N_TrTrTrPi2 H_S O_Tr2Tr2TrPi C_TrTrTrPi C_TeTeTeTe H_S H_S C_TeTeTeTe H_S H_S H_S C_TeTeTeTe C_TeTeTeTe H_S H_S H_S C_TeTeTeTe H_S O_Te2Te2TeTe H_S O_Tr2TrTrPi2 O_Tr2TrTrPi2 O_Tr2TrTrPi2 O_Te2Te2TeTe O_Tr2Tr2TrPi O_Te2Te2TeTe O_Tr2Tr2TrPi P_TeTeTeTePi P_TeTeTeTePi C_TeTeTeTe H_S H_S O_Tr2TrTrPi2 O_Tr2Tr2TrPi O_Te2Te2Te2Te P_TeTeTeTePi O_Te2Te2Te2Te N_TrTrTrPi2 C_TrTrTrPi C_TrTrTrPi H_S C_TrTrTrPi N_Tr2TrTrPi N_Tr2TrTrPi C_TrTrTrPi C_TrTrTrPi H_S N_Tr2TrTrPi N_TrTrTrPi2 H_S H_S S_Te2Te2TeTe O_Tr2Tr2TrPi C_TrTrTrPi C_TrTrTrPi H_S C_TrTrTrPi H_S C_TrTrTrPi C_TrTrTrPi H_S C_TrTrTrPi H_S C_TrTrTrPi H_S C_TrTrTrPi C_TrTrTrPi O_Te2Te2TeTe H_S O_Tr2TrTrPi2 C_TeTeTeTe H_S H_S H_S
M  BCL BND NonConjugatedSingleBond NonConjugatedSingleBondInRing NonConjugatedSingleBondInRing NonConjugatedSingleBond NonConjugatedSingleBondInRing NonConjugatedSingleBond NonConjugatedSingleBondInRing NonConjugatedSingleBond NonConjugatedSingleBond NonConjugatedSingleBondInRing NonConjugatedSingleBond NonConjugatedSingleBond NonConjugatedSingleBond NonConjugatedSingleBond NonConjugatedSingleBond NonConjugatedSingleBond NonConjugatedSingleBond NonConjugatedSingleBond NonConjugatedSingleBond NonConjugatedSingleBond NonConjugatedSingleBond NonConjugatedSingleBond AmideSingleBond ConjugatedDoubleBond NonConjugatedSingleBond NonConjugatedSingleBond NonConjugatedSingleBond NonConjugatedSingleBond NonConjugatedSingleBond NonConjugatedSingleBond NonConjugatedSingleBond NonConjugatedSingleBond AmideSingleBond ConjugatedDoubleBond NonConjugatedSingleBond NonConjugatedSingleBond NonConjugatedSingleBond NonConjugatedSingleBond NonConjugatedSingleBond NonConjugatedSingleBond NonConjugatedSingleBond NonConjugatedSingleBond NonConjugatedSingleBond NonConjugatedSingleBond NonConjugatedSingleBond NonConjugatedSingleBond NonConjugatedSingleBond NonConjugatedSingleBond NonConjugatedSingleBond NonConjugatedSingleBond NonConjugatedSingleBond ConjugatedSingleBond ConjugatedSingleBond ConjugatedSingleBond ConjugatedSingleBond NonConjugatedSingleBond ConjugatedSingleBond ConjugatedDoubleBond ConjugatedSingleBond ConjugatedDoubleBond NonConjugatedSingleBond NonConjugatedSingleBond ConjugatedSingleBond ConjugatedDoubleBond ConjugatedSingleBond ConjugatedSingleBond AromaticSingleBond AromaticSingleBond AromaticDoubleBond AromaticSingleBond NonConjugatedSingleBond AromaticDoubleBond AromaticSingleBond AromaticSingleBond AromaticDoubleBond AromaticDoubleBond ConjugatedSingleBond NonConjugatedSingleBond AromaticSingleBond NonConjugatedSingleBond NonConjugatedSingleBond ConjugatedSingleBond ConjugatedDoubleBond ConjugatedSingleBond NonConjugatedSingleBond ConjugatedDoubleBond NonConjugatedSingleBond ConjugatedSingleBond AromaticSingleBond AromaticDoubleBond NonConjugatedSingleBond AromaticDoubleBond NonConjugatedSingleBond AromaticSingleBond NonConjugatedSingleBond AromaticSingleBond AromaticDoubleBond ConjugatedSingleBond ConjugatedSingleBond NonConjugatedSingleBond NonConjugatedSingleBond NonConjugatedSingleBond NonConjugatedSingleBond NonConjugatedSingleBond
M  BCL CHI   1   R   4   R   6   R   8   S  44   S  55   S  56   R
M  BCL DBI - - - - - - - - - - E - - -
M  END
> <ConfClashScore>
0 

> <ConfOneFourInteractionScore>
-0.978748 

> <ConfScore>
-0.115354 

> <ConfScorePBest>
0.0140685 

> <ConfTolerance>
2.86178 

$$$$
L02.****
  PyMOL2.5          3D                             0

101104  0  0  0  0  0  0  0  0999 V2000
   15.2536   -4.4823   -5.5717 C   0  0  0  1  0  0  0  0  0  0  0  0
   14.5793   -3.6522   -5.6076 H   0  0  0  1  0  0  0  0  0  0  0  0
   14.9558   -5.4363   -6.5746 O   0  0  0  1  0  0  0  0  0  0  0  0
   15.1249   -5.1990   -4.2622 C   0  0  0  1  0  0  0  0  0  0  0  0
   16.0691   -5.5962   -3.9528 H   0  0  0  1  0  0  0  0  0  0  0  0
   13.9911   -6.3307   -6.0268 C   0  0  0  1  0  0  0  0  0  0  0  0
   14.1606   -7.3214   -6.3937 H   0  0  0  1  0  0  0  0  0  0  0  0
   14.1508   -6.3015   -4.5409 C   0  0  0  1  0  0  0  0  0  0  0  0
   13.2123   -6.0988   -4.0685 H   0  0  0  1  0  0  0  0  0  0  0  0
   14.6225   -4.3226   -3.2524 O   0  0  0  1  0  0  0  0  0  0  0  0
   13.7231   -4.0661   -3.4692 H   0  0  0  1  0  0  0  0  0  0  0  0
    0.9569   -0.3359   -9.3626 C   0  0  0  1  0  0  0  0  0  0  0  0
    0.2757    0.2266   -9.9664 H   0  0  0  1  0  0  0  0  0  0  0  0
    0.6042   -1.3418   -9.2688 H   0  0  0  1  0  0  0  0  0  0  0  0
    1.0130    0.2863   -7.9901 C   0  0  0  1  0  0  0  0  0  0  0  0
    1.7278   -0.2508   -7.4023 H   0  0  0  1  0  0  0  0  0  0  0  0
    0.0460    0.2038   -7.5397 H   0  0  0  1  0  0  0  0  0  0  0  0
    2.2552   -0.3563  -10.0197 N   0  0  0  1  0  0  0  0  0  0  0  0
    2.4497    0.3589  -10.6609 H   0  0  0  1  0  0  0  0  0  0  0  0
    3.2004   -1.2750   -9.8150 C   0  0  0  1  0  0  0  0  0  0  0  0
    3.0845   -2.1838   -8.9939 O   0  0  0  1  0  0  0  0  0  0  0  0
    5.6013   -1.9837  -10.1544 C   0  0  0  1  0  0  0  0  0  0  0  0
    5.3437   -3.0169  -10.2592 H   0  0  0  1  0  0  0  0  0  0  0  0
    5.7657   -1.7595   -9.1212 H   0  0  0  1  0  0  0  0  0  0  0  0
    4.4395   -1.1375  -10.6585 C   0  0  0  1  0  0  0  0  0  0  0  0
    4.7403   -0.1107  -10.6571 H   0  0  0  1  0  0  0  0  0  0  0  0
    4.2065   -1.4400  -11.6581 H   0  0  0  1  0  0  0  0  0  0  0  0
    6.8407   -1.7321  -10.8920 N   0  0  0  1  0  0  0  0  0  0  0  0
    7.1035   -2.3282  -11.6241 H   0  0  0  1  0  0  0  0  0  0  0  0
    7.3627    0.0685   -9.6445 O   0  0  0  1  0  0  0  0  0  0  0  0
    7.6174   -0.6873  -10.5677 C   0  0  0  1  0  0  0  0  0  0  0  0
   10.3782   -1.5791   -9.7152 C   0  0  0  1  0  0  0  0  0  0  0  0
   10.5092   -2.4364  -10.3418 H   0  0  0  1  0  0  0  0  0  0  0  0
    9.5510   -1.7413   -9.0562 H   0  0  0  1  0  0  0  0  0  0  0  0
   11.3260   -0.1326  -11.5091 C   0  0  0  1  0  0  0  0  0  0  0  0
   12.1960    0.0847  -10.9252 H   0  0  0  1  0  0  0  0  0  0  0  0
   11.1310    0.6821  -12.1747 H   0  0  0  1  0  0  0  0  0  0  0  0
   11.4908   -1.0252  -12.0756 H   0  0  0  1  0  0  0  0  0  0  0  0
   10.1228   -0.3322  -10.5798 C   0  0  0  1  0  0  0  0  0  0  0  0
    9.9865    0.9043   -9.6854 C   0  0  0  1  0  0  0  0  0  0  0  0
    9.8682    1.7752  -10.2955 H   0  0  0  1  0  0  0  0  0  0  0  0
   10.8652    1.0074   -9.0835 H   0  0  0  1  0  0  0  0  0  0  0  0
    9.1309    0.7937   -9.0523 H   0  0  0  1  0  0  0  0  0  0  0  0
    8.8566   -0.4918  -11.4297 C   0  0  0  1  0  0  0  0  0  0  0  0
    8.7232    0.4315  -11.9536 H   0  0  0  1  0  0  0  0  0  0  0  0
    8.9980   -1.5190  -12.3852 O   0  0  0  1  0  0  0  0  0  0  0  0
    9.0723   -2.3650  -11.9376 H   0  0  0  1  0  0  0  0  0  0  0  0
   11.5812   -1.3420   -8.9468 O   0  0  0  1  0  0  0  0  0  0  0  0
   11.6631   -3.5603   -8.1977 O   0  0  0  1  0  0  0  0  0  0  0  0
   12.5573   -5.8062   -7.8449 O   0  0  0  1  0  0  0  0  0  0  0  0
   13.1166   -1.8696   -6.9752 O   0  0  0  0  0  0  0  0  0  0  0  0
   10.5734   -1.8428   -6.6511 O   0  0  0  1  0  0  0  0  0  0  0  0
   12.9807   -4.6765  -10.0850 O   0  0  0  0  0  0  0  0  0  0  0  0
   14.1171   -3.8127   -7.9800 O   0  0  0  1  0  0  0  0  0  0  0  0
   11.7526   -2.0959   -7.5126 P   0  0  0  1  0  0  0  0  0  0  0  0
   12.9095   -4.4443   -8.6013 P   0  0  0  1  0  0  0  0  0  0  0  0
   12.6146   -5.8892   -6.4014 C   0  0  0  1  0  0  0  0  0  0  0  0
   12.4102   -4.9303   -5.9728 H   0  0  0  1  0  0  0  0  0  0  0  0
   11.8956   -6.5987   -6.0484 H   0  0  0  1  0  0  0  0  0  0  0  0
   14.6702   -7.5692   -4.0624 O   0  0  0  1  0  0  0  0  0  0  0  0
   15.5714   -9.0924   -2.0803 O   0  0  0  1  0  0  0  0  0  0  0  0
   14.1625   -7.0184   -1.5299 O   0  5  0  1  0  0  0  0  0  0  0  0
   15.2260   -7.7245   -2.5273 P   0  0  0  1  0  0  0  0  0  0  0  0
   16.5040   -6.7417   -2.3686 O   0  5  0  1  0  0  0  0  0  0  0  0
   16.6315   -4.0450   -5.8791 N   0  0  0  1  0  0  0  0  0  0  0  0
   17.6547   -3.8475   -4.9882 C   0  0  0  1  0  0  0  0  0  0  0  0
   17.1483   -3.7546   -7.1044 C   0  0  0  1  0  0  0  0  0  0  0  0
   16.5851   -3.8122   -7.9768 H   0  0  0  1  0  0  0  0  0  0  0  0
   18.7527   -3.4469   -5.7612 C   0  0  0  1  0  0  0  0  0  0  0  0
   17.6295   -4.0130   -3.6650 N   0  0  0  1  0  0  0  0  0  0  0  0
   18.4042   -3.3986   -7.1020 N   0  0  0  1  0  0  0  0  0  0  0  0
   19.9263   -3.2022   -5.0543 C   0  0  0  1  0  0  0  0  0  0  0  0
   18.8087   -3.7382   -3.1210 C   0  0  0  1  0  0  0  0  0  0  0  0
   18.8623   -3.8416   -2.0875 H   0  0  0  1  0  0  0  0  0  0  0  0
   19.9413   -3.3450   -3.7246 N   0  0  0  1  0  0  0  0  0  0  0  0
   21.0943   -2.8144   -5.6561 N   0  0  0  1  0  0  0  0  0  0  0  0
   21.1525   -2.7755   -6.6336 H   0  0  0  1  0  0  0  0  0  0  0  0
   21.8717   -2.5759   -5.1091 H   0  0  0  1  0  0  0  0  0  0  0  0
    1.4870    2.0315   -8.0180 S   0  0  0  1  0  0  0  0  0  0  0  0
    3.8589    0.9018   -7.7937 O   0  0  0  1  0  0  0  0  0  0  0  0
    3.2506    1.9468   -7.7995 C   0  0  0  1  0  0  0  0  0  0  0  0
    3.8917    3.2470   -7.6289 C   0  0  0  1  0  0  0  0  0  0  0  0
    4.9316    3.2466   -7.6194 H   0  0  0  1  0  0  0  0  0  0  0  0
    3.3048    4.4344   -7.4841 C   0  0  0  1  0  0  0  0  0  0  0  0
    2.2650    4.4549   -7.4910 H   0  0  0  1  0  0  0  0  0  0  0  0
    4.0067    5.7283   -7.3139 C   0  0  0  1  0  0  0  0  0  0  0  0
    5.3654    5.6790   -7.0441 C   0  0  0  1  0  0  0  0  0  0  0  0
    5.8485    4.7608   -6.9734 H   0  0  0  1  0  0  0  0  0  0  0  0
    3.3658    6.9488   -7.4131 C   0  0  0  1  0  0  0  0  0  0  0  0
    2.3472    6.9859   -7.6195 H   0  0  0  1  0  0  0  0  0  0  0  0
    6.0783    6.8502   -6.8691 C   0  0  0  1  0  0  0  0  0  0  0  0
    7.0970    6.8130   -6.6627 H   0  0  0  1  0  0  0  0  0  0  0  0
    4.0806    8.1234   -7.2376 C   0  0  0  1  0  0  0  0  0  0  0  0
    5.4354    8.0742   -6.9687 C   0  0  0  1  0  0  0  0  0  0  0  0
    6.1987    9.1798   -6.7906 O   0  0  0  1  0  0  0  0  0  0  0  0
    7.0505    9.0528   -7.2147 H   0  0  0  1  0  0  0  0  0  0  0  0
    3.5633    9.3695   -7.3060 O   0  0  0  1  0  0  0  0  0  0  0  0
    2.2391    9.5578   -7.8290 C   0  0  0  1  0  0  0  0  0  0  0  0
    2.0288   10.6045   -7.9005 H   0  0  0  1  0  0  0  0  0  0  0  0
    1.5289    9.0954   -7.1759 H   0  0  0  1  0  0  0  0  0  0  0  0
    2.1731    9.1138   -8.8003 H   0  0  0  1  0  0  0  0  0  0  0  0
  1  2  1  0  0  0  0
  1  3  1  0  0  0  0
  1  4  1  0  0  0  0
  1 65  1  0  0  0  0
  3  6  1  0  0  0  0
  4  5  1  0  0  0  0
  4  8  1  0  0  0  0
  4 10  1  0  0  0  0
  6  7  1  0  0  0  0
  6  8  1  0  0  0  0
  6 57  1  0  0  0  0
  8  9  1  0  0  0  0
  8 60  1  0  0  0  0
 10 11  1  0  0  0  0
 12 13  1  0  0  0  0
 12 14  1  0  0  0  0
 12 15  1  0  0  0  0
 12 18  1  0  0  0  0
 15 16  1  0  0  0  0
 15 17  1  0  0  0  0
 15 79  1  0  0  0  0
 18 19  1  0  0  0  0
 18 20  1  0  0  0  0
 20 21  2  0  0  0  0
 20 25  1  0  0  0  0
 22 23  1  0  0  0  0
 22 24  1  0  0  0  0
 22 25  1  0  0  0  0
 22 28  1  0  0  0  0
 25 26  1  0  0  0  0
 25 27  1  0  0  0  0
 28 29  1  0  0  0  0
 28 31  1  0  0  0  0
 30 31  2  0  0  0  0
 31 44  1  0  0  0  0
 32 33  1  0  0  0  0
 32 34  1  0  0  0  0
 32 39  1  0  0  0  0
 32 48  1  0  0  0  0
 35 36  1  0  0  0  0
 35 37  1  0  0  0  0
 35 38  1  0  0  0  0
 35 39  1  0  0  0  0
 39 40  1  0  0  0  0
 39 44  1  0  0  0  0
 40 41  1  0  0  0  0
 40 42  1  0  0  0  0
 40 43  1  0  0  0  0
 44 45  1  0  0  0  0
 44 46  1  0  0  0  0
 46 47  1  0  0  0  0
 48 55  1  0  0  0  0
 49 55  1  0  0  0  0
 49 56  1  0  0  0  0
 50 56  1  0  0  0  0
 50 57  1  0  0  0  0
 51 55  1  0  0  0  0
 52 55  2  0  0  0  0
 53 56  1  0  0  0  0
 54 56  2  0  0  0  0
 57 58  1  0  0  0  0
 57 59  1  0  0  0  0
 60 63  1  0  0  0  0
 61 63  2  0  0  0  0
 62 63  1  0  0  0  0
 63 64  1  0  0  0  0
 65 66  1  0  0  0  0
 65 67  1  0  0  0  0
 66 69  2  0  0  0  0
 66 70  1  0  0  0  0
 67 68  1  0  0  0  0
 67 71  2  0  0  0  0
 69 71  1  0  0  0  0
 69 72  1  0  0  0  0
 70 73  2  0  0  0  0
 72 75  2  0  0  0  0
 72 76  1  0  0  0  0
 73 74  1  0  0  0  0
 73 75  1  0  0  0  0
 76 77  1  0  0  0  0
 76 78  1  0  0  0  0
 79 81  1  0  0  0  0
 80 81  2  0  0  0  0
 81 82  1  0  0  0  0
 82 83  1  0  0  0  0
 82 84  2  0  0  0  0
 84 85  1  0  0  0  0
 84 86  1  0  0  0  0
 86 87  1  0  0  0  0
 86 89  2  0  0  0  0
 87 88  1  0  0  0  0
 87 91  2  0  0  0  0
 89 90  1  0  0  0  0
 89 93  1  0  0  0  0
 91 92  1  0  0  0  0
 91 94  1  0  0  0  0
 93 94  2  0  0  0  0
 93 97  1  0  0  0  0
 94 95  1  0  0  0  0
 95 96  1  0  0  0  0
 97 98  1  0  0  0  0
 98 99  1  0  0  0  0
 98100  1  0  0  0  0
 98101  1  0  0  0  0
M  BCL ATM C_TeTeTeTe H_S O_Te2Te2TeTe C_TeTeTeTe H_S C_TeTeTeTe H_S C_TeTeTeTe H_S O_Te2Te2TeTe H_S C_TeTeTeTe H_S H_S C_TeTeTeTe H_S H_S N_TrTrTrPi2 H_S C_TrTrTrPi O_Tr2Tr2TrPi C_TeTeTeTe H_S H_S C_TeTeTeTe H_S H_S N_TrTrTrPi2 H_S O_Tr2Tr2TrPi C_TrTrTrPi C_TeTeTeTe H_S H_S C_TeTeTeTe H_S H_S H_S C_TeTeTeTe C_TeTeTeTe H_S H_S H_S C_TeTeTeTe H_S O_Te2Te2TeTe H_S O_Tr2TrTrPi2 O_Tr2TrTrPi2 O_Tr2TrTrPi2 O_Te2Te2TeTe O_Tr2Tr2TrPi O_Te2Te2TeTe O_Tr2Tr2TrPi P_TeTeTeTePi P_TeTeTeTePi C_TeTeTeTe H_S H_S O_Tr2TrTrPi2 O_Tr2Tr2TrPi O_Te2Te2Te2Te P_TeTeTeTePi O_Te2Te2Te2Te N_TrTrTrPi2 C_TrTrTrPi C_TrTrTrPi H_S C_TrTrTrPi N_Tr2TrTrPi N_Tr2TrTrPi C_TrTrTrPi C_TrTrTrPi H_S N_Tr2TrTrPi N_TrTrTrPi2 H_S H_S S_Te2Te2TeTe O_Tr2Tr2TrPi C_TrTrTrPi C_TrTrTrPi H_S C_TrTrTrPi H_S C_TrTrTrPi C_TrTrTrPi H_S C_TrTrTrPi H_S C_TrTrTrPi H_S C_TrTrTrPi C_TrTrTrPi O_Te2Te2TeTe H_S O_Tr2TrTrPi2 C_TeTeTeTe H_S H_S H_S
M  BCL BND NonConjugatedSingleBond NonConjugatedSingleBondInRing NonConjugatedSingleBondInRing NonConjugatedSingleBond NonConjugatedSingleBondInRing NonConjugatedSingleBond NonConjugatedSingleBondInRing NonConjugatedSingleBond NonConjugatedSingleBond NonConjugatedSingleBondInRing NonConjugatedSingleBond NonConjugatedSingleBond NonConjugatedSingleBond NonConjugatedSingleBond NonConjugatedSingleBond NonConjugatedSingleBond NonConjugatedSingleBond NonConjugatedSingleBond NonConjugatedSingleBond NonConjugatedSingleBond NonConjugatedSingleBond NonConjugatedSingleBond AmideSingleBond ConjugatedDoubleBond NonConjugatedSingleBond NonConjugatedSingleBond NonConjugatedSingleBond NonConjugatedSingleBond NonConjugatedSingleBond NonConjugatedSingleBond NonConjugatedSingleBond NonConjugatedSingleBond AmideSingleBond ConjugatedDoubleBond NonConjugatedSingleBond NonConjugatedSingleBond NonConjugatedSingleBond NonConjugatedSingleBond NonConjugatedSingleBond NonConjugatedSingleBond NonConjugatedSingleBond NonConjugatedSingleBond NonConjugatedSingleBond NonConjugatedSingleBond NonConjugatedSingleBond NonConjugatedSingleBond NonConjugatedSingleBond NonConjugatedSingleBond NonConjugatedSingleBond NonConjugatedSingleBond NonConjugatedSingleBond ConjugatedSingleBond ConjugatedSingleBond ConjugatedSingleBond ConjugatedSingleBond NonConjugatedSingleBond ConjugatedSingleBond ConjugatedDoubleBond ConjugatedSingleBond ConjugatedDoubleBond NonConjugatedSingleBond NonConjugatedSingleBond ConjugatedSingleBond ConjugatedDoubleBond ConjugatedSingleBond ConjugatedSingleBond AromaticSingleBond AromaticSingleBond AromaticDoubleBond AromaticSingleBond NonConjugatedSingleBond AromaticDoubleBond AromaticSingleBond AromaticSingleBond AromaticDoubleBond AromaticDoubleBond ConjugatedSingleBond NonConjugatedSingleBond AromaticSingleBond NonConjugatedSingleBond NonConjugatedSingleBond ConjugatedSingleBond ConjugatedDoubleBond ConjugatedSingleBond NonConjugatedSingleBond ConjugatedDoubleBond NonConjugatedSingleBond ConjugatedSingleBond AromaticSingleBond AromaticDoubleBond NonConjugatedSingleBond AromaticDoubleBond NonConjugatedSingleBond AromaticSingleBond NonConjugatedSingleBond AromaticSingleBond AromaticDoubleBond ConjugatedSingleBond ConjugatedSingleBond NonConjugatedSingleBond NonConjugatedSingleBond NonConjugatedSingleBond NonConjugatedSingleBond NonConjugatedSingleBond
M  BCL CHI   1   R   4   R   6   R   8   S  44   S  55   S  56   R
M  BCL DBI - - - - - - - - - - E - - -
M  END
> <ConfClashScore>
0 

> <ConfOneFourInteractionScore>
-0.979519 

> <ConfScore>
-0.105503 

> <ConfScorePBest>
0.0139655 

> <ConfTolerance>
0.25 

$$$$
L02.****
  PyMOL2.5          3D                             0

101104  0  0  0  0  0  0  0  0999 V2000
   15.2560   -4.4006   -5.5699 C   0  0  0  1  0  0  0  0  0  0  0  0
   15.1978   -5.4316   -5.2898 H   0  0  0  1  0  0  0  0  0  0  0  0
   14.7611   -3.5660   -4.5065 O   0  0  0  1  0  0  0  0  0  0  0  0
   14.3682   -4.1308   -6.7664 C   0  0  0  1  0  0  0  0  0  0  0  0
   14.8013   -3.3895   -7.4050 H   0  0  0  1  0  0  0  0  0  0  0  0
   13.5924   -2.8531   -4.9512 C   0  0  0  1  0  0  0  0  0  0  0  0
   13.8476   -1.8529   -5.2328 H   0  0  0  1  0  0  0  0  0  0  0  0
   13.0882   -3.6276   -6.1459 C   0  0  0  1  0  0  0  0  0  0  0  0
   12.4589   -4.4387   -5.8442 H   0  0  0  1  0  0  0  0  0  0  0  0
   14.1386   -5.3272   -7.5122 O   0  0  0  1  0  0  0  0  0  0  0  0
   14.3698   -5.1805   -8.4324 H   0  0  0  1  0  0  0  0  0  0  0  0
   23.4846    0.8123    2.3400 C   0  0  0  1  0  0  0  0  0  0  0  0
   24.1580    0.6947    3.1631 H   0  0  0  1  0  0  0  0  0  0  0  0
   23.5372   -0.0505    1.7093 H   0  0  0  1  0  0  0  0  0  0  0  0
   23.9042    2.0213    1.5411 C   0  0  0  1  0  0  0  0  0  0  0  0
   24.8035    1.7756    1.0159 H   0  0  0  1  0  0  0  0  0  0  0  0
   24.0975    2.8203    2.2260 H   0  0  0  1  0  0  0  0  0  0  0  0
   22.1218    0.9295    2.8619 N   0  0  0  1  0  0  0  0  0  0  0  0
   22.0141    1.2649    3.7764 H   0  0  0  1  0  0  0  0  0  0  0  0
   20.9720    0.6016    2.1597 C   0  0  0  1  0  0  0  0  0  0  0  0
   21.0834    0.1941    1.0178 O   0  0  0  1  0  0  0  0  0  0  0  0
   18.5088    1.0715    1.8535 C   0  0  0  1  0  0  0  0  0  0  0  0
   18.3827    0.2348    1.1986 H   0  0  0  1  0  0  0  0  0  0  0  0
   18.7797    1.9346    1.2821 H   0  0  0  1  0  0  0  0  0  0  0  0
   19.6342    0.7606    2.8315 C   0  0  0  1  0  0  0  0  0  0  0  0
   19.7013    1.5605    3.5389 H   0  0  0  1  0  0  0  0  0  0  0  0
   19.3995   -0.1496    3.3426 H   0  0  0  1  0  0  0  0  0  0  0  0
   17.2438    1.3341    2.5235 N   0  0  0  1  0  0  0  0  0  0  0  0
   17.2555    1.6201    3.4607 H   0  0  0  1  0  0  0  0  0  0  0  0
   16.0001    0.8598    0.7214 O   0  0  0  1  0  0  0  0  0  0  0  0
   16.0622    1.1983    1.9025 C   0  0  0  1  0  0  0  0  0  0  0  0
   13.5772   -0.4206    1.6714 C   0  0  0  1  0  0  0  0  0  0  0  0
   13.1622   -1.3932    1.8347 H   0  0  0  1  0  0  0  0  0  0  0  0
   14.4171   -0.4965    1.0128 H   0  0  0  1  0  0  0  0  0  0  0  0
   14.9216   -0.7939    3.7496 C   0  0  0  1  0  0  0  0  0  0  0  0
   15.9140   -0.3971    3.8006 H   0  0  0  1  0  0  0  0  0  0  0  0
   14.9375   -1.7275    3.2270 H   0  0  0  1  0  0  0  0  0  0  0  0
   14.5470   -0.9456    4.7404 H   0  0  0  1  0  0  0  0  0  0  0  0
   14.0148    0.1910    3.0067 C   0  0  0  1  0  0  0  0  0  0  0  0
   12.7627    0.5528    3.8345 C   0  0  0  1  0  0  0  0  0  0  0  0
   13.0578    1.0862    4.7139 H   0  0  0  1  0  0  0  0  0  0  0  0
   12.2505   -0.3433    4.1162 H   0  0  0  1  0  0  0  0  0  0  0  0
   12.1122    1.1665    3.2470 H   0  0  0  1  0  0  0  0  0  0  0  0
   14.7992    1.4751    2.7015 C   0  0  0  1  0  0  0  0  0  0  0  0
   14.1697    2.1074    2.1109 H   0  0  0  1  0  0  0  0  0  0  0  0
   15.1263    2.1380    3.9063 O   0  0  0  1  0  0  0  0  0  0  0  0
   15.9303    2.6480    3.7835 H   0  0  0  1  0  0  0  0  0  0  0  0
   12.5744    0.4537    1.0942 O   0  0  0  1  0  0  0  0  0  0  0  0
   13.2158    0.0514   -1.2507 O   0  0  0  1  0  0  0  0  0  0  0  0
   13.0640   -1.9845   -2.8051 O   0  0  0  1  0  0  0  0  0  0  0  0
   11.5179    1.8300   -0.7475 O   0  0  0  0  0  0  0  0  0  0  0  0
   13.9447    2.1285   -0.0557 O   0  0  0  1  0  0  0  0  0  0  0  0
   11.0618   -1.1243   -1.4498 O   0  0  0  0  0  0  0  0  0  0  0  0
   11.9845    0.0810   -3.4703 O   0  0  0  1  0  0  0  0  0  0  0  0
   12.7897    1.2412   -0.2616 P   0  0  0  1  0  0  0  0  0  0  0  0
   12.2120   -0.7048   -2.2716 P   0  0  0  1  0  0  0  0  0  0  0  0
   12.5582   -2.8194   -3.8744 C   0  0  0  1  0  0  0  0  0  0  0  0
   12.3790   -3.8093   -3.5102 H   0  0  0  1  0  0  0  0  0  0  0  0
   11.6471   -2.4091   -4.2571 H   0  0  0  1  0  0  0  0  0  0  0  0
   12.3667   -2.7710   -7.0576 O   0  0  0  1  0  0  0  0  0  0  0  0
   10.1942   -3.0900   -5.7538 O   0  0  0  1  0  0  0  0  0  0  0  0
   10.4932   -3.9135   -8.2308 O   0  5  0  1  0  0  0  0  0  0  0  0
   10.7272   -2.7785   -7.0988 P   0  0  0  1  0  0  0  0  0  0  0  0
   10.2757   -1.3593   -7.7364 O   0  5  0  1  0  0  0  0  0  0  0  0
   16.6448   -4.0562   -5.8806 N   0  0  0  1  0  0  0  0  0  0  0  0
   17.6630   -3.8600   -4.9836 C   0  0  0  1  0  0  0  0  0  0  0  0
   17.1661   -3.7557   -7.1016 C   0  0  0  1  0  0  0  0  0  0  0  0
   16.6072   -3.8101   -7.9769 H   0  0  0  1  0  0  0  0  0  0  0  0
   18.7628   -3.4494   -5.7489 C   0  0  0  1  0  0  0  0  0  0  0  0
   17.6323   -4.0341   -3.6616 N   0  0  0  1  0  0  0  0  0  0  0  0
   18.4203   -3.3940   -7.0910 N   0  0  0  1  0  0  0  0  0  0  0  0
   19.9319   -3.2040   -5.0349 C   0  0  0  1  0  0  0  0  0  0  0  0
   18.8077   -3.7576   -3.1103 C   0  0  0  1  0  0  0  0  0  0  0  0
   18.8570   -3.8674   -2.0773 H   0  0  0  1  0  0  0  0  0  0  0  0
   19.9414   -3.3554   -3.7061 N   0  0  0  1  0  0  0  0  0  0  0  0
   21.0696   -2.8103   -5.6770 N   0  0  0  1  0  0  0  0  0  0  0  0
   21.0678   -2.6940   -6.6501 H   0  0  0  1  0  0  0  0  0  0  0  0
   21.8886   -2.6438   -5.1651 H   0  0  0  1  0  0  0  0  0  0  0  0
   22.6930    2.6000    0.3349 S   0  0  0  1  0  0  0  0  0  0  0  0
   24.7235    2.4454   -1.0131 O   0  0  0  1  0  0  0  0  0  0  0  0
   23.6802    2.7149   -1.1745 C   0  0  0  1  0  0  0  0  0  0  0  0
   22.8196    3.1507   -2.2676 C   0  0  0  1  0  0  0  0  0  0  0  0
   21.8149    3.3063   -2.0488 H   0  0  0  1  0  0  0  0  0  0  0  0
   23.2098    3.3667   -3.5220 C   0  0  0  1  0  0  0  0  0  0  0  0
   24.2145    3.2111   -3.7410 H   0  0  0  1  0  0  0  0  0  0  0  0
   22.3354    3.8097   -4.6327 C   0  0  0  1  0  0  0  0  0  0  0  0
   22.8367    3.8465   -5.9245 C   0  0  0  1  0  0  0  0  0  0  0  0
   23.8193    3.5603   -6.1093 H   0  0  0  1  0  0  0  0  0  0  0  0
   21.0279    4.1850   -4.3880 C   0  0  0  1  0  0  0  0  0  0  0  0
   20.6506    4.1536   -3.4194 H   0  0  0  1  0  0  0  0  0  0  0  0
   22.0307    4.2634   -6.9671 C   0  0  0  1  0  0  0  0  0  0  0  0
   22.4081    4.2947   -7.9357 H   0  0  0  1  0  0  0  0  0  0  0  0
   20.2194    4.6031   -5.4335 C   0  0  0  1  0  0  0  0  0  0  0  0
   20.7193    4.6397   -6.7215 C   0  0  0  1  0  0  0  0  0  0  0  0
   19.9871    5.0319   -7.7923 O   0  0  0  1  0  0  0  0  0  0  0  0
   20.5666    5.4203   -8.4519 H   0  0  0  1  0  0  0  0  0  0  0  0
   18.9328    4.9884   -5.2606 O   0  0  0  1  0  0  0  0  0  0  0  0
   18.4421    5.0514   -3.9124 C   0  0  0  1  0  0  0  0  0  0  0  0
   17.8838    4.1653   -3.6936 H   0  0  0  1  0  0  0  0  0  0  0  0
   17.8095    5.9074   -3.8030 H   0  0  0  1  0  0  0  0  0  0  0  0
   19.2676    5.1286   -3.2359 H   0  0  0  1  0  0  0  0  0  0  0  0
  1  2  1  0  0  0  0
  1  3  1  0  0  0  0
  1  4  1  0  0  0  0
  1 65  1  0  0  0  0
  3  6  1  0  0  0  0
  4  5  1  0  0  0  0
  4  8  1  0  0  0  0
  4 10  1  0  0  0  0
  6  7  1  0  0  0  0
  6  8  1  0  0  0  0
  6 57  1  0  0  0  0
  8  9  1  0  0  0  0
  8 60  1  0  0  0  0
 10 11  1  0  0  0  0
 12 13  1  0  0  0  0
 12 14  1  0  0  0  0
 12 15  1  0  0  0  0
 12 18  1  0  0  0  0
 15 16  1  0  0  0  0
 15 17  1  0  0  0  0
 15 79  1  0  0  0  0
 18 19  1  0  0  0  0
 18 20  1  0  0  0  0
 20 21  2  0  0  0  0
 20 25  1  0  0  0  0
 22 23  1  0  0  0  0
 22 24  1  0  0  0  0
 22 25  1  0  0  0  0
 22 28  1  0  0  0  0
 25 26  1  0  0  0  0
 25 27  1  0  0  0  0
 28 29  1  0  0  0  0
 28 31  1  0  0  0  0
 30 31  2  0  0  0  0
 31 44  1  0  0  0  0
 32 33  1  0  0  0  0
 32 34  1  0  0  0  0
 32 39  1  0  0  0  0
 32 48  1  0  0  0  0
 35 36  1  0  0  0  0
 35 37  1  0  0  0  0
 35 38  1  0  0  0  0
 35 39  1  0  0  0  0
 39 40  1  0  0  0  0
 39 44  1  0  0  0  0
 40 41  1  0  0  0  0
 40 42  1  0  0  0  0
 40 43  1  0  0  0  0
 44 45  1  0  0  0  0
 44 46  1  0  0  0  0
 46 47  1  0  0  0  0
 48 55  1  0  0  0  0
 49 55  1  0  0  0  0
 49 56  1  0  0  0  0
 50 56  1  0  0  0  0
 50 57  1  0  0  0  0
 51 55  1  0  0  0  0
 52 55  2  0  0  0  0
 53 56  1  0  0  0  0
 54 56  2  0  0  0  0
 57 58  1  0  0  0  0
 57 59  1  0  0  0  0
 60 63  1  0  0  0  0
 61 63  2  0  0  0  0
 62 63  1  0  0  0  0
 63 64  1  0  0  0  0
 65 66  1  0  0  0  0
 65 67  1  0  0  0  0
 66 69  2  0  0  0  0
 66 70  1  0  0  0  0
 67 68  1  0  0  0  0
 67 71  2  0  0  0  0
 69 71  1  0  0  0  0
 69 72  1  0  0  0  0
 70 73  2  0  0  0  0
 72 75  2  0  0  0  0
 72 76  1  0  0  0  0
 73 74  1  0  0  0  0
 73 75  1  0  0  0  0
 76 77  1  0  0  0  0
 76 78  1  0  0  0  0
 79 81  1  0  0  0  0
 80 81  2  0  0  0  0
 81 82  1  0  0  0  0
 82 83  1  0  0  0  0
 82 84  2  0  0  0  0
 84 85  1  0  0  0  0
 84 86  1  0  0  0  0
 86 87  1  0  0  0  0
 86 89  2  0  0  0  0
 87 88  1  0  0  0  0
 87 91  2  0  0  0  0
 89 90  1  0  0  0  0
 89 93  1  0  0  0  0
 91 92  1  0  0  0  0
 91 94  1  0  0  0  0
 93 94  2  0  0  0  0
 93 97  1  0  0  0  0
 94 95  1  0  0  0  0
 95 96  1  0  0  0  0
 97 98  1  0  0  0  0
 98 99  1  0  0  0  0
 98100  1  0  0  0  0
 98101  1  0  0  0  0
M  BCL ATM C_TeTeTeTe H_S O_Te2Te2TeTe C_TeTeTeTe H_S C_TeTeTeTe H_S C_TeTeTeTe H_S O_Te2Te2TeTe H_S C_TeTeTeTe H_S H_S C_TeTeTeTe H_S H_S N_TrTrTrPi2 H_S C_TrTrTrPi O_Tr2Tr2TrPi C_TeTeTeTe H_S H_S C_TeTeTeTe H_S H_S N_TrTrTrPi2 H_S O_Tr2Tr2TrPi C_TrTrTrPi C_TeTeTeTe H_S H_S C_TeTeTeTe H_S H_S H_S C_TeTeTeTe C_TeTeTeTe H_S H_S H_S C_TeTeTeTe H_S O_Te2Te2TeTe H_S O_Tr2TrTrPi2 O_Tr2TrTrPi2 O_Tr2TrTrPi2 O_Te2Te2TeTe O_Tr2Tr2TrPi O_Te2Te2TeTe O_Tr2Tr2TrPi P_TeTeTeTePi P_TeTeTeTePi C_TeTeTeTe H_S H_S O_Tr2TrTrPi2 O_Tr2Tr2TrPi O_Te2Te2Te2Te P_TeTeTeTePi O_Te2Te2Te2Te N_TrTrTrPi2 C_TrTrTrPi C_TrTrTrPi H_S C_TrTrTrPi N_Tr2TrTrPi N_Tr2TrTrPi C_TrTrTrPi C_TrTrTrPi H_S N_Tr2TrTrPi N_TrTrTrPi2 H_S H_S S_Te2Te2TeTe O_Tr2Tr2TrPi C_TrTrTrPi C_TrTrTrPi H_S C_TrTrTrPi H_S C_TrTrTrPi C_TrTrTrPi H_S C_TrTrTrPi H_S C_TrTrTrPi H_S C_TrTrTrPi C_TrTrTrPi O_Te2Te2TeTe H_S O_Tr2TrTrPi2 C_TeTeTeTe H_S H_S H_S
M  BCL BND NonConjugatedSingleBond NonConjugatedSingleBondInRing NonConjugatedSingleBondInRing NonConjugatedSingleBond NonConjugatedSingleBondInRing NonConjugatedSingleBond NonConjugatedSingleBondInRing NonConjugatedSingleBond NonConjugatedSingleBond NonConjugatedSingleBondInRing NonConjugatedSingleBond NonConjugatedSingleBond NonConjugatedSingleBond NonConjugatedSingleBond NonConjugatedSingleBond NonConjugatedSingleBond NonConjugatedSingleBond NonConjugatedSingleBond NonConjugatedSingleBond NonConjugatedSingleBond NonConjugatedSingleBond NonConjugatedSingleBond AmideSingleBond ConjugatedDoubleBond NonConjugatedSingleBond NonConjugatedSingleBond NonConjugatedSingleBond NonConjugatedSingleBond NonConjugatedSingleBond NonConjugatedSingleBond NonConjugatedSingleBond NonConjugatedSingleBond AmideSingleBond ConjugatedDoubleBond NonConjugatedSingleBond NonConjugatedSingleBond NonConjugatedSingleBond NonConjugatedSingleBond NonConjugatedSingleBond NonConjugatedSingleBond NonConjugatedSingleBond NonConjugatedSingleBond NonConjugatedSingleBond NonConjugatedSingleBond NonConjugatedSingleBond NonConjugatedSingleBond NonConjugatedSingleBond NonConjugatedSingleBond NonConjugatedSingleBond NonConjugatedSingleBond NonConjugatedSingleBond ConjugatedSingleBond ConjugatedSingleBond ConjugatedSingleBond ConjugatedSingleBond NonConjugatedSingleBond ConjugatedSingleBond ConjugatedDoubleBond ConjugatedSingleBond ConjugatedDoubleBond NonConjugatedSingleBond NonConjugatedSingleBond ConjugatedSingleBond ConjugatedDoubleBond ConjugatedSingleBond ConjugatedSingleBond AromaticSingleBond AromaticSingleBond AromaticDoubleBond AromaticSingleBond NonConjugatedSingleBond AromaticDoubleBond AromaticSingleBond AromaticSingleBond AromaticDoubleBond AromaticDoubleBond ConjugatedSingleBond NonConjugatedSingleBond AromaticSingleBond NonConjugatedSingleBond NonConjugatedSingleBond ConjugatedSingleBond ConjugatedDoubleBond ConjugatedSingleBond NonConjugatedSingleBond ConjugatedDoubleBond NonConjugatedSingleBond ConjugatedSingleBond AromaticSingleBond AromaticDoubleBond NonConjugatedSingleBond AromaticDoubleBond NonConjugatedSingleBond AromaticSingleBond NonConjugatedSingleBond AromaticSingleBond AromaticDoubleBond ConjugatedSingleBond ConjugatedSingleBond NonConjugatedSingleBond NonConjugatedSingleBond NonConjugatedSingleBond NonConjugatedSingleBond NonConjugatedSingleBond
M  BCL CHI   1   R   4   R   6   R   8   S  44   S  55   S  56   R
M  BCL DBI - - - - - - - - - - E - - -
M  END
> <ConfClashScore>
0 

> <ConfOneFourInteractionScore>
-0.979207 

> <ConfScore>
-0.104973 

> <ConfScorePBest>
0.0138625 

> <ConfTolerance>
2.67586 

$$$$
L02.****
  PyMOL2.5          3D                             0

101104  0  0  0  0  0  0  0  0999 V2000
   15.2215   -4.3725   -5.5904 C   0  0  0  1  0  0  0  0  0  0  0  0
   14.9966   -4.1084   -4.5781 H   0  0  0  1  0  0  0  0  0  0  0  0
   14.3778   -3.6929   -6.4800 O   0  0  0  1  0  0  0  0  0  0  0  0
   14.9228   -5.8571   -5.8444 C   0  0  0  1  0  0  0  0  0  0  0  0
   15.5001   -6.2321   -6.6636 H   0  0  0  1  0  0  0  0  0  0  0  0
   13.2711   -4.5165   -6.9117 C   0  0  0  1  0  0  0  0  0  0  0  0
   13.3047   -4.6656   -7.9707 H   0  0  0  1  0  0  0  0  0  0  0  0
   13.4534   -5.8470   -6.1753 C   0  0  0  1  0  0  0  0  0  0  0  0
   12.8595   -5.8778   -5.2858 H   0  0  0  1  0  0  0  0  0  0  0  0
   15.1829   -6.6414   -4.6794 O   0  0  0  1  0  0  0  0  0  0  0  0
   14.6712   -6.2999   -3.9424 H   0  0  0  1  0  0  0  0  0  0  0  0
   15.0770   -1.6787    3.5016 C   0  0  0  1  0  0  0  0  0  0  0  0
   15.4856   -0.7177    3.7348 H   0  0  0  1  0  0  0  0  0  0  0  0
   14.0869   -1.5612    3.1132 H   0  0  0  1  0  0  0  0  0  0  0  0
   14.9887   -2.4745    4.7802 C   0  0  0  1  0  0  0  0  0  0  0  0
   14.3659   -1.9431    5.4691 H   0  0  0  1  0  0  0  0  0  0  0  0
   15.9727   -2.5708    5.1893 H   0  0  0  1  0  0  0  0  0  0  0  0
   15.9065   -2.2861    2.4593 N   0  0  0  1  0  0  0  0  0  0  0  0
   15.5074   -2.9120    1.8196 H   0  0  0  1  0  0  0  0  0  0  0  0
   17.2175   -1.9863    2.3778 C   0  0  0  1  0  0  0  0  0  0  0  0
   17.7928   -1.1621    3.0873 O   0  0  0  1  0  0  0  0  0  0  0  0
   17.5958   -2.4003   -0.1157 C   0  0  0  1  0  0  0  0  0  0  0  0
   18.1910   -3.0131   -0.7599 H   0  0  0  1  0  0  0  0  0  0  0  0
   17.8532   -1.3722   -0.2627 H   0  0  0  1  0  0  0  0  0  0  0  0
   17.9501   -2.7616    1.3175 C   0  0  0  1  0  0  0  0  0  0  0  0
   17.7339   -3.7999    1.4592 H   0  0  0  1  0  0  0  0  0  0  0  0
   18.9984   -2.5936    1.4508 H   0  0  0  1  0  0  0  0  0  0  0  0
   16.1972   -2.5673   -0.5148 N   0  0  0  1  0  0  0  0  0  0  0  0
   15.9288   -3.4399   -0.8711 H   0  0  0  1  0  0  0  0  0  0  0  0
   15.4470   -0.4911    0.0212 O   0  0  0  1  0  0  0  0  0  0  0  0
   15.2592   -1.6197   -0.4299 C   0  0  0  1  0  0  0  0  0  0  0  0
   12.1102   -1.7070   -2.5942 C   0  0  0  1  0  0  0  0  0  0  0  0
   11.3755   -1.7798   -1.8197 H   0  0  0  1  0  0  0  0  0  0  0  0
   12.2664   -2.6717   -3.0301 H   0  0  0  1  0  0  0  0  0  0  0  0
   13.1683    0.2429   -1.4956 C   0  0  0  1  0  0  0  0  0  0  0  0
   12.5759    0.1943   -0.6058 H   0  0  0  1  0  0  0  0  0  0  0  0
   12.6466    0.8065   -2.2407 H   0  0  0  1  0  0  0  0  0  0  0  0
   14.1017    0.7181   -1.2768 H   0  0  0  1  0  0  0  0  0  0  0  0
   13.4270   -1.1759   -2.0164 C   0  0  0  1  0  0  0  0  0  0  0  0
   14.4898   -1.1384   -3.1207 C   0  0  0  1  0  0  0  0  0  0  0  0
   14.0213   -1.2800   -4.0722 H   0  0  0  1  0  0  0  0  0  0  0  0
   15.2034   -1.9184   -2.9552 H   0  0  0  1  0  0  0  0  0  0  0  0
   14.9864   -0.1908   -3.1054 H   0  0  0  1  0  0  0  0  0  0  0  0
   13.8652   -2.0649   -0.8470 C   0  0  0  1  0  0  0  0  0  0  0  0
   13.1878   -1.9363   -0.0288 H   0  0  0  1  0  0  0  0  0  0  0  0
   13.9294   -3.4238   -1.2471 O   0  0  0  1  0  0  0  0  0  0  0  0
   13.3744   -3.9542   -0.6707 H   0  0  0  1  0  0  0  0  0  0  0  0
   11.6671   -0.7742   -3.6077 O   0  0  0  1  0  0  0  0  0  0  0  0
   10.0432   -2.1689   -4.8281 O   0  0  0  1  0  0  0  0  0  0  0  0
   11.8936   -3.7370   -5.1069 O   0  0  0  1  0  0  0  0  0  0  0  0
    9.2124   -0.6316   -3.0336 O   0  0  0  0  0  0  0  0  0  0  0  0
   10.1460    0.3071   -5.1968 O   0  0  0  1  0  0  0  0  0  0  0  0
   10.4443   -3.9391   -3.0274 O   0  0  0  0  0  0  0  0  0  0  0  0
    9.5917   -4.4958   -5.3687 O   0  0  0  1  0  0  0  0  0  0  0  0
   10.1797   -0.7227   -4.1458 P   0  0  0  1  0  0  0  0  0  0  0  0
   10.4195   -3.7193   -4.4962 P   0  0  0  1  0  0  0  0  0  0  0  0
   11.9860   -3.8921   -6.5426 C   0  0  0  1  0  0  0  0  0  0  0  0
   11.1827   -4.5119   -6.8824 H   0  0  0  1  0  0  0  0  0  0  0  0
   11.9157   -2.9303   -7.0062 H   0  0  0  1  0  0  0  0  0  0  0  0
   13.1051   -6.9652   -7.0285 O   0  0  0  1  0  0  0  0  0  0  0  0
   10.7076   -7.5671   -5.9922 O   0  0  0  1  0  0  0  0  0  0  0  0
   12.6593   -9.1150   -5.6529 O   0  5  0  1  0  0  0  0  0  0  0  0
   11.9416   -8.0561   -6.6470 P   0  0  0  1  0  0  0  0  0  0  0  0
   11.5169   -8.9428   -7.9346 O   0  5  0  1  0  0  0  0  0  0  0  0
   16.6372   -4.0676   -5.8762 N   0  0  0  1  0  0  0  0  0  0  0  0
   17.6607   -3.8669   -4.9863 C   0  0  0  1  0  0  0  0  0  0  0  0
   17.1491   -3.7664   -7.1010 C   0  0  0  1  0  0  0  0  0  0  0  0
   16.5844   -3.8236   -7.9725 H   0  0  0  1  0  0  0  0  0  0  0  0
   18.7538   -3.4531   -5.7595 C   0  0  0  1  0  0  0  0  0  0  0  0
   17.6396   -4.0398   -3.6640 N   0  0  0  1  0  0  0  0  0  0  0  0
   18.4020   -3.4003   -7.0993 N   0  0  0  1  0  0  0  0  0  0  0  0
   19.9268   -3.2029   -5.0536 C   0  0  0  1  0  0  0  0  0  0  0  0
   18.8177   -3.7586   -3.1210 C   0  0  0  1  0  0  0  0  0  0  0  0
   18.8744   -3.8673   -2.0882 H   0  0  0  1  0  0  0  0  0  0  0  0
   19.9459   -3.3529   -3.7248 N   0  0  0  1  0  0  0  0  0  0  0  0
   21.0904   -2.8025   -5.6557 N   0  0  0  1  0  0  0  0  0  0  0  0
   21.1178   -2.6636   -6.6255 H   0  0  0  1  0  0  0  0  0  0  0  0
   21.8955   -2.6549   -5.1167 H   0  0  0  1  0  0  0  0  0  0  0  0
   14.3007   -4.1302    4.5427 S   0  0  0  1  0  0  0  0  0  0  0  0
   16.7538   -4.6655    3.6780 O   0  0  0  1  0  0  0  0  0  0  0  0
   15.6230   -5.0564    3.8445 C   0  0  0  1  0  0  0  0  0  0  0  0
   15.2148   -6.4247    3.5475 C   0  0  0  1  0  0  0  0  0  0  0  0
   14.2363   -6.7093    3.7554 H   0  0  0  1  0  0  0  0  0  0  0  0
   16.0437   -7.3251    3.0207 C   0  0  0  1  0  0  0  0  0  0  0  0
   17.0167   -7.0166    2.8218 H   0  0  0  1  0  0  0  0  0  0  0  0
   15.6979   -8.7280    2.6940 C   0  0  0  1  0  0  0  0  0  0  0  0
   14.4936   -9.2554    3.1334 C   0  0  0  1  0  0  0  0  0  0  0  0
   13.8381   -8.6658    3.6849 H   0  0  0  1  0  0  0  0  0  0  0  0
   16.5666   -9.5101    1.9565 C   0  0  0  1  0  0  0  0  0  0  0  0
   17.4683   -9.1132    1.6235 H   0  0  0  1  0  0  0  0  0  0  0  0
   14.1639  -10.5649    2.8385 C   0  0  0  1  0  0  0  0  0  0  0  0
   13.2621  -10.9618    3.1716 H   0  0  0  1  0  0  0  0  0  0  0  0
   16.2361  -10.8234    1.6607 C   0  0  0  1  0  0  0  0  0  0  0  0
   15.0353  -11.3492    2.0988 C   0  0  0  1  0  0  0  0  0  0  0  0
   14.6434  -12.6212    1.8437 O   0  0  0  1  0  0  0  0  0  0  0  0
   13.8327  -12.8088    2.3224 H   0  0  0  1  0  0  0  0  0  0  0  0
   17.0021  -11.6793    0.9567 O   0  0  0  1  0  0  0  0  0  0  0  0
   18.2332  -11.1191    0.4438 C   0  0  0  1  0  0  0  0  0  0  0  0
   18.6189  -10.4054    1.1415 H   0  0  0  1  0  0  0  0  0  0  0  0
   18.0424  -10.6358   -0.4916 H   0  0  0  1  0  0  0  0  0  0  0  0
   18.9491  -11.9016    0.3020 H   0  0  0  1  0  0  0  0  0  0  0  0
  1  2  1  0  0  0  0
  1  3  1  0  0  0  0
  1  4  1  0  0  0  0
  1 65  1  0  0  0  0
  3  6  1  0  0  0  0
  4  5  1  0  0  0  0
  4  8  1  0  0  0  0
  4 10  1  0  0  0  0
  6  7  1  0  0  0  0
  6  8  1  0  0  0  0
  6 57  1  0  0  0  0
  8  9  1  0  0  0  0
  8 60  1  0  0  0  0
 10 11  1  0  0  0  0
 12 13  1  0  0  0  0
 12 14  1  0  0  0  0
 12 15  1  0  0  0  0
 12 18  1  0  0  0  0
 15 16  1  0  0  0  0
 15 17  1  0  0  0  0
 15 79  1  0  0  0  0
 18 19  1  0  0  0  0
 18 20  1  0  0  0  0
 20 21  2  0  0  0  0
 20 25  1  0  0  0  0
 22 23  1  0  0  0  0
 22 24  1  0  0  0  0
 22 25  1  0  0  0  0
 22 28  1  0  0  0  0
 25 26  1  0  0  0  0
 25 27  1  0  0  0  0
 28 29  1  0  0  0  0
 28 31  1  0  0  0  0
 30 31  2  0  0  0  0
 31 44  1  0  0  0  0
 32 33  1  0  0  0  0
 32 34  1  0  0  0  0
 32 39  1  0  0  0  0
 32 48  1  0  0  0  0
 35 36  1  0  0  0  0
 35 37  1  0  0  0  0
 35 38  1  0  0  0  0
 35 39  1  0  0  0  0
 39 40  1  0  0  0  0
 39 44  1  0  0  0  0
 40 41  1  0  0  0  0
 40 42  1  0  0  0  0
 40 43  1  0  0  0  0
 44 45  1  0  0  0  0
 44 46  1  0  0  0  0
 46 47  1  0  0  0  0
 48 55  1  0  0  0  0
 49 55  1  0  0  0  0
 49 56  1  0  0  0  0
 50 56  1  0  0  0  0
 50 57  1  0  0  0  0
 51 55  1  0  0  0  0
 52 55  2  0  0  0  0
 53 56  1  0  0  0  0
 54 56  2  0  0  0  0
 57 58  1  0  0  0  0
 57 59  1  0  0  0  0
 60 63  1  0  0  0  0
 61 63  2  0  0  0  0
 62 63  1  0  0  0  0
 63 64  1  0  0  0  0
 65 66  1  0  0  0  0
 65 67  1  0  0  0  0
 66 69  2  0  0  0  0
 66 70  1  0  0  0  0
 67 68  1  0  0  0  0
 67 71  2  0  0  0  0
 69 71  1  0  0  0  0
 69 72  1  0  0  0  0
 70 73  2  0  0  0  0
 72 75  2  0  0  0  0
 72 76  1  0  0  0  0
 73 74  1  0  0  0  0
 73 75  1  0  0  0  0
 76 77  1  0  0  0  0
 76 78  1  0  0  0  0
 79 81  1  0  0  0  0
 80 81  2  0  0  0  0
 81 82  1  0  0  0  0
 82 83  1  0  0  0  0
 82 84  2  0  0  0  0
 84 85  1  0  0  0  0
 84 86  1  0  0  0  0
 86 87  1  0  0  0  0
 86 89  2  0  0  0  0
 87 88  1  0  0  0  0
 87 91  2  0  0  0  0
 89 90  1  0  0  0  0
 89 93  1  0  0  0  0
 91 92  1  0  0  0  0
 91 94  1  0  0  0  0
 93 94  2  0  0  0  0
 93 97  1  0  0  0  0
 94 95  1  0  0  0  0
 95 96  1  0  0  0  0
 97 98  1  0  0  0  0
 98 99  1  0  0  0  0
 98100  1  0  0  0  0
 98101  1  0  0  0  0
M  BCL ATM C_TeTeTeTe H_S O_Te2Te2TeTe C_TeTeTeTe H_S C_TeTeTeTe H_S C_TeTeTeTe H_S O_Te2Te2TeTe H_S C_TeTeTeTe H_S H_S C_TeTeTeTe H_S H_S N_TrTrTrPi2 H_S C_TrTrTrPi O_Tr2Tr2TrPi C_TeTeTeTe H_S H_S C_TeTeTeTe H_S H_S N_TrTrTrPi2 H_S O_Tr2Tr2TrPi C_TrTrTrPi C_TeTeTeTe H_S H_S C_TeTeTeTe H_S H_S H_S C_TeTeTeTe C_TeTeTeTe H_S H_S H_S C_TeTeTeTe H_S O_Te2Te2TeTe H_S O_Tr2TrTrPi2 O_Tr2TrTrPi2 O_Tr2TrTrPi2 O_Te2Te2TeTe O_Tr2Tr2TrPi O_Te2Te2TeTe O_Tr2Tr2TrPi P_TeTeTeTePi P_TeTeTeTePi C_TeTeTeTe H_S H_S O_Tr2TrTrPi2 O_Tr2Tr2TrPi O_Te2Te2Te2Te P_TeTeTeTePi O_Te2Te2Te2Te N_TrTrTrPi2 C_TrTrTrPi C_TrTrTrPi H_S C_TrTrTrPi N_Tr2TrTrPi N_Tr2TrTrPi C_TrTrTrPi C_TrTrTrPi H_S N_Tr2TrTrPi N_TrTrTrPi2 H_S H_S S_Te2Te2TeTe O_Tr2Tr2TrPi C_TrTrTrPi C_TrTrTrPi H_S C_TrTrTrPi H_S C_TrTrTrPi C_TrTrTrPi H_S C_TrTrTrPi H_S C_TrTrTrPi H_S C_TrTrTrPi C_TrTrTrPi O_Te2Te2TeTe H_S O_Tr2TrTrPi2 C_TeTeTeTe H_S H_S H_S
M  BCL BND NonConjugatedSingleBond NonConjugatedSingleBondInRing NonConjugatedSingleBondInRing NonConjugatedSingleBond NonConjugatedSingleBondInRing NonConjugatedSingleBond NonConjugatedSingleBondInRing NonConjugatedSingleBond NonConjugatedSingleBond NonConjugatedSingleBondInRing NonConjugatedSingleBond NonConjugatedSingleBond NonConjugatedSingleBond NonConjugatedSingleBond NonConjugatedSingleBond NonConjugatedSingleBond NonConjugatedSingleBond NonConjugatedSingleBond NonConjugatedSingleBond NonConjugatedSingleBond NonConjugatedSingleBond NonConjugatedSingleBond AmideSingleBond ConjugatedDoubleBond NonConjugatedSingleBond NonConjugatedSingleBond NonConjugatedSingleBond NonConjugatedSingleBond NonConjugatedSingleBond NonConjugatedSingleBond NonConjugatedSingleBond NonConjugatedSingleBond AmideSingleBond ConjugatedDoubleBond NonConjugatedSingleBond NonConjugatedSingleBond NonConjugatedSingleBond NonConjugatedSingleBond NonConjugatedSingleBond NonConjugatedSingleBond NonConjugatedSingleBond NonConjugatedSingleBond NonConjugatedSingleBond NonConjugatedSingleBond NonConjugatedSingleBond NonConjugatedSingleBond NonConjugatedSingleBond NonConjugatedSingleBond NonConjugatedSingleBond NonConjugatedSingleBond NonConjugatedSingleBond ConjugatedSingleBond ConjugatedSingleBond ConjugatedSingleBond ConjugatedSingleBond NonConjugatedSingleBond ConjugatedSingleBond ConjugatedDoubleBond ConjugatedSingleBond ConjugatedDoubleBond NonConjugatedSingleBond NonConjugatedSingleBond ConjugatedSingleBond ConjugatedDoubleBond ConjugatedSingleBond ConjugatedSingleBond AromaticSingleBond AromaticSingleBond AromaticDoubleBond AromaticSingleBond NonConjugatedSingleBond AromaticDoubleBond AromaticSingleBond AromaticSingleBond AromaticDoubleBond AromaticDoubleBond ConjugatedSingleBond NonConjugatedSingleBond AromaticSingleBond NonConjugatedSingleBond NonConjugatedSingleBond ConjugatedSingleBond ConjugatedDoubleBond ConjugatedSingleBond NonConjugatedSingleBond ConjugatedDoubleBond NonConjugatedSingleBond ConjugatedSingleBond AromaticSingleBond AromaticDoubleBond NonConjugatedSingleBond AromaticDoubleBond NonConjugatedSingleBond AromaticSingleBond NonConjugatedSingleBond AromaticSingleBond AromaticDoubleBond ConjugatedSingleBond ConjugatedSingleBond NonConjugatedSingleBond NonConjugatedSingleBond NonConjugatedSingleBond NonConjugatedSingleBond NonConjugatedSingleBond
M  BCL CHI   1   R   4   R   6   R   8   S  44   S  55   S  56   R
M  BCL DBI - - - - - - - - - - E - - -
M  END
> <ConfClashScore>
0 

> <ConfOneFourInteractionScore>
-0.980151 

> <ConfScore>
-0.10345 

> <ConfScorePBest>
0.0137595 

> <ConfTolerance>
2.68072 

$$$$
L02.****
  PyMOL2.5          3D                             0

101104  0  0  0  0  0  0  0  0999 V2000
   15.2496   -4.3692   -5.5060 C   0  0  0  1  0  0  0  0  0  0  0  0
   14.7990   -3.5136   -5.0480 H   0  0  0  1  0  0  0  0  0  0  0  0
   14.5206   -4.7389   -6.6424 O   0  0  0  1  0  0  0  0  0  0  0  0
   15.2339   -5.5538   -4.5270 C   0  0  0  1  0  0  0  0  0  0  0  0
   16.2072   -5.7294   -4.1186 H   0  0  0  1  0  0  0  0  0  0  0  0
   13.9223   -6.0586   -6.4628 C   0  0  0  1  0  0  0  0  0  0  0  0
   13.9429   -6.6118   -7.3784 H   0  0  0  1  0  0  0  0  0  0  0  0
   14.7886   -6.7220   -5.4169 C   0  0  0  1  0  0  0  0  0  0  0  0
   14.2276   -7.4389   -4.8544 H   0  0  0  1  0  0  0  0  0  0  0  0
   14.3043   -5.3320   -3.4655 O   0  0  0  1  0  0  0  0  0  0  0  0
   13.5651   -4.8126   -3.7901 H   0  0  0  1  0  0  0  0  0  0  0  0
    8.7298  -12.7404   -2.6767 C   0  0  0  1  0  0  0  0  0  0  0  0
    8.5719  -13.3524   -1.8133 H   0  0  0  1  0  0  0  0  0  0  0  0
    8.1468  -13.1155   -3.4917 H   0  0  0  1  0  0  0  0  0  0  0  0
   10.1879  -12.8059   -3.0553 C   0  0  0  1  0  0  0  0  0  0  0  0
   10.7781  -12.4555   -2.2345 H   0  0  0  1  0  0  0  0  0  0  0  0
   10.3559  -12.1819   -3.9081 H   0  0  0  1  0  0  0  0  0  0  0  0
    8.2919  -11.3859   -2.3746 N   0  0  0  1  0  0  0  0  0  0  0  0
    8.9610  -10.7203   -2.1107 H   0  0  0  1  0  0  0  0  0  0  0  0
    7.0093  -11.0182   -2.4446 C   0  0  0  1  0  0  0  0  0  0  0  0
    6.1163  -11.7720   -2.8291 O   0  0  0  1  0  0  0  0  0  0  0  0
    5.6570   -8.8938   -2.8368 C   0  0  0  1  0  0  0  0  0  0  0  0
    5.4920   -7.9252   -2.4131 H   0  0  0  1  0  0  0  0  0  0  0  0
    4.7503   -9.4605   -2.7967 H   0  0  0  1  0  0  0  0  0  0  0  0
    6.7102   -9.6067   -2.0200 C   0  0  0  1  0  0  0  0  0  0  0  0
    7.6171   -9.0428   -2.0865 H   0  0  0  1  0  0  0  0  0  0  0  0
    6.3786   -9.6312   -1.0030 H   0  0  0  1  0  0  0  0  0  0  0  0
    6.0476   -8.7323   -4.2385 N   0  0  0  1  0  0  0  0  0  0  0  0
    6.9125   -8.3294   -4.4618 H   0  0  0  1  0  0  0  0  0  0  0  0
    4.1259   -9.7498   -5.0405 O   0  0  0  1  0  0  0  0  0  0  0  0
    5.1912   -9.1508   -5.2569 C   0  0  0  1  0  0  0  0  0  0  0  0
    6.1066   -6.4946   -5.8787 C   0  0  0  1  0  0  0  0  0  0  0  0
    5.6186   -6.7368   -4.9578 H   0  0  0  1  0  0  0  0  0  0  0  0
    5.9632   -5.4569   -6.0967 H   0  0  0  1  0  0  0  0  0  0  0  0
    6.2915   -7.0403   -8.3105 C   0  0  0  1  0  0  0  0  0  0  0  0
    5.7832   -7.4901   -9.1376 H   0  0  0  1  0  0  0  0  0  0  0  0
    7.2845   -7.4335   -8.2457 H   0  0  0  1  0  0  0  0  0  0  0  0
    6.3355   -5.9807   -8.4527 H   0  0  0  1  0  0  0  0  0  0  0  0
    5.5338   -7.3505   -7.0140 C   0  0  0  1  0  0  0  0  0  0  0  0
    4.0604   -6.9764   -7.2126 C   0  0  0  1  0  0  0  0  0  0  0  0
    3.9939   -5.9835   -7.6059 H   0  0  0  1  0  0  0  0  0  0  0  0
    3.5511   -7.0223   -6.2727 H   0  0  0  1  0  0  0  0  0  0  0  0
    3.6077   -7.6622   -7.8980 H   0  0  0  1  0  0  0  0  0  0  0  0
    5.6399   -8.8284   -6.6689 C   0  0  0  1  0  0  0  0  0  0  0  0
    5.0331   -9.3822   -7.3546 H   0  0  0  1  0  0  0  0  0  0  0  0
    7.0133   -9.2070   -6.8238 O   0  0  0  1  0  0  0  0  0  0  0  0
    7.5475   -8.7492   -6.1707 H   0  0  0  1  0  0  0  0  0  0  0  0
    7.5203   -6.7864   -5.7788 O   0  0  0  1  0  0  0  0  0  0  0  0
    9.8385   -6.7837   -4.8016 O   0  0  0  1  0  0  0  0  0  0  0  0
   11.9556   -7.2743   -5.9209 O   0  0  0  1  0  0  0  0  0  0  0  0
    8.4590   -4.7575   -4.4839 O   0  0  0  0  0  0  0  0  0  0  0  0
    7.7526   -6.8249   -3.3764 O   0  0  0  1  0  0  0  0  0  0  0  0
   10.0823   -8.9810   -6.0563 O   0  0  0  0  0  0  0  0  0  0  0  0
    9.8980   -6.7283   -7.2742 O   0  0  0  1  0  0  0  0  0  0  0  0
    8.3694   -6.2303   -4.5959 P   0  0  0  1  0  0  0  0  0  0  0  0
   10.3577   -7.5227   -6.1200 P   0  0  0  1  0  0  0  0  0  0  0  0
   12.5128   -5.9394   -5.9840 C   0  0  0  1  0  0  0  0  0  0  0  0
   11.9460   -5.3398   -6.6652 H   0  0  0  1  0  0  0  0  0  0  0  0
   12.4946   -5.4907   -5.0128 H   0  0  0  1  0  0  0  0  0  0  0  0
   15.9225   -7.3680   -6.0229 O   0  0  0  1  0  0  0  0  0  0  0  0
   14.7421   -9.3229   -7.2870 O   0  0  0  1  0  0  0  0  0  0  0  0
   16.3985   -9.8404   -5.2884 O   0  5  0  1  0  0  0  0  0  0  0  0
   15.9599   -8.9211   -6.5481 P   0  0  0  1  0  0  0  0  0  0  0  0
   17.1253   -8.9534   -7.6729 O   0  5  0  1  0  0  0  0  0  0  0  0
   16.6292   -4.0530   -5.8816 N   0  0  0  1  0  0  0  0  0  0  0  0
   17.6542   -3.8611   -4.9915 C   0  0  0  1  0  0  0  0  0  0  0  0
   17.1505   -3.7792   -7.1089 C   0  0  0  1  0  0  0  0  0  0  0  0
   16.5871   -3.8369   -7.9812 H   0  0  0  1  0  0  0  0  0  0  0  0
   18.7576   -3.4804   -5.7670 C   0  0  0  1  0  0  0  0  0  0  0  0
   17.6260   -4.0154   -3.6670 N   0  0  0  1  0  0  0  0  0  0  0  0
   18.4106   -3.4388   -7.1084 N   0  0  0  1  0  0  0  0  0  0  0  0
   19.9337   -3.2446   -5.0611 C   0  0  0  1  0  0  0  0  0  0  0  0
   18.8082   -3.7509   -3.1243 C   0  0  0  1  0  0  0  0  0  0  0  0
   18.8598   -3.8465   -2.0900 H   0  0  0  1  0  0  0  0  0  0  0  0
   19.9460   -3.3767   -3.7303 N   0  0  0  1  0  0  0  0  0  0  0  0
   21.0944   -2.7878   -5.6637 N   0  0  0  1  0  0  0  0  0  0  0  0
   21.9124   -2.6824   -5.1345 H   0  0  0  1  0  0  0  0  0  0  0  0
   21.0974   -2.5700   -6.6192 H   0  0  0  1  0  0  0  0  0  0  0  0
   10.6806  -14.4993   -3.4564 S   0  0  0  1  0  0  0  0  0  0  0  0
   12.7610  -13.2333   -4.4623 O   0  0  0  1  0  0  0  0  0  0  0  0
   12.2357  -14.3277   -4.2191 C   0  0  0  1  0  0  0  0  0  0  0  0
   12.8636  -15.5430   -4.7232 C   0  0  0  1  0  0  0  0  0  0  0  0
   12.3257  -16.4285   -4.6334 H   0  0  0  1  0  0  0  0  0  0  0  0
   14.0676  -15.6164   -5.2892 C   0  0  0  1  0  0  0  0  0  0  0  0
   14.5904  -14.7210   -5.3702 H   0  0  0  1  0  0  0  0  0  0  0  0
   14.7514  -16.8204   -5.8171 C   0  0  0  1  0  0  0  0  0  0  0  0
   14.1253  -18.0408   -5.6174 C   0  0  0  1  0  0  0  0  0  0  0  0
   13.2134  -18.0820   -5.1191 H   0  0  0  1  0  0  0  0  0  0  0  0
   15.9606  -16.7651   -6.4840 C   0  0  0  1  0  0  0  0  0  0  0  0
   16.4284  -15.8490   -6.6374 H   0  0  0  1  0  0  0  0  0  0  0  0
   14.7128  -19.2031   -6.0804 C   0  0  0  1  0  0  0  0  0  0  0  0
   14.2450  -20.1192   -5.9270 H   0  0  0  1  0  0  0  0  0  0  0  0
   16.5501  -17.9306   -6.9484 C   0  0  0  1  0  0  0  0  0  0  0  0
   15.9257  -19.1475   -6.7493 C   0  0  0  1  0  0  0  0  0  0  0  0
   16.4793  -20.3001   -7.1983 O   0  0  0  1  0  0  0  0  0  0  0  0
   16.8022  -20.8121   -6.4533 H   0  0  0  1  0  0  0  0  0  0  0  0
   17.7315  -17.7534   -7.5792 O   0  0  0  1  0  0  0  0  0  0  0  0
   18.4026  -18.8851   -8.1547 C   0  0  0  1  0  0  0  0  0  0  0  0
   17.9158  -19.1637   -9.0659 H   0  0  0  1  0  0  0  0  0  0  0  0
   18.3707  -19.7053   -7.4683 H   0  0  0  1  0  0  0  0  0  0  0  0
   19.4214  -18.6296   -8.3586 H   0  0  0  1  0  0  0  0  0  0  0  0
  1  2  1  0  0  0  0
  1  3  1  0  0  0  0
  1  4  1  0  0  0  0
  1 65  1  0  0  0  0
  3  6  1  0  0  0  0
  4  5  1  0  0  0  0
  4  8  1  0  0  0  0
  4 10  1  0  0  0  0
  6  7  1  0  0  0  0
  6  8  1  0  0  0  0
  6 57  1  0  0  0  0
  8  9  1  0  0  0  0
  8 60  1  0  0  0  0
 10 11  1  0  0  0  0
 12 13  1  0  0  0  0
 12 14  1  0  0  0  0
 12 15  1  0  0  0  0
 12 18  1  0  0  0  0
 15 16  1  0  0  0  0
 15 17  1  0  0  0  0
 15 79  1  0  0  0  0
 18 19  1  0  0  0  0
 18 20  1  0  0  0  0
 20 21  2  0  0  0  0
 20 25  1  0  0  0  0
 22 23  1  0  0  0  0
 22 24  1  0  0  0  0
 22 25  1  0  0  0  0
 22 28  1  0  0  0  0
 25 26  1  0  0  0  0
 25 27  1  0  0  0  0
 28 29  1  0  0  0  0
 28 31  1  0  0  0  0
 30 31  2  0  0  0  0
 31 44  1  0  0  0  0
 32 33  1  0  0  0  0
 32 34  1  0  0  0  0
 32 39  1  0  0  0  0
 32 48  1  0  0  0  0
 35 36  1  0  0  0  0
 35 37  1  0  0  0  0
 35 38  1  0  0  0  0
 35 39  1  0  0  0  0
 39 40  1  0  0  0  0
 39 44  1  0  0  0  0
 40 41  1  0  0  0  0
 40 42  1  0  0  0  0
 40 43  1  0  0  0  0
 44 45  1  0  0  0  0
 44 46  1  0  0  0  0
 46 47  1  0  0  0  0
 48 55  1  0  0  0  0
 49 55  1  0  0  0  0
 49 56  1  0  0  0  0
 50 56  1  0  0  0  0
 50 57  1  0  0  0  0
 51 55  1  0  0  0  0
 52 55  2  0  0  0  0
 53 56  1  0  0  0  0
 54 56  2  0  0  0  0
 57 58  1  0  0  0  0
 57 59  1  0  0  0  0
 60 63  1  0  0  0  0
 61 63  2  0  0  0  0
 62 63  1  0  0  0  0
 63 64  1  0  0  0  0
 65 66  1  0  0  0  0
 65 67  1  0  0  0  0
 66 69  2  0  0  0  0
 66 70  1  0  0  0  0
 67 68  1  0  0  0  0
 67 71  2  0  0  0  0
 69 71  1  0  0  0  0
 69 72  1  0  0  0  0
 70 73  2  0  0  0  0
 72 75  2  0  0  0  0
 72 76  1  0  0  0  0
 73 74  1  0  0  0  0
 73 75  1  0  0  0  0
 76 77  1  0  0  0  0
 76 78  1  0  0  0  0
 79 81  1  0  0  0  0
 80 81  2  0  0  0  0
 81 82  1  0  0  0  0
 82 83  1  0  0  0  0
 82 84  2  0  0  0  0
 84 85  1  0  0  0  0
 84 86  1  0  0  0  0
 86 87  1  0  0  0  0
 86 89  2  0  0  0  0
 87 88  1  0  0  0  0
 87 91  2  0  0  0  0
 89 90  1  0  0  0  0
 89 93  1  0  0  0  0
 91 92  1  0  0  0  0
 91 94  1  0  0  0  0
 93 94  2  0  0  0  0
 93 97  1  0  0  0  0
 94 95  1  0  0  0  0
 95 96  1  0  0  0  0
 97 98  1  0  0  0  0
 98 99  1  0  0  0  0
 98100  1  0  0  0  0
 98101  1  0  0  0  0
M  BCL ATM C_TeTeTeTe H_S O_Te2Te2TeTe C_TeTeTeTe H_S C_TeTeTeTe H_S C_TeTeTeTe H_S O_Te2Te2TeTe H_S C_TeTeTeTe H_S H_S C_TeTeTeTe H_S H_S N_TrTrTrPi2 H_S C_TrTrTrPi O_Tr2Tr2TrPi C_TeTeTeTe H_S H_S C_TeTeTeTe H_S H_S N_TrTrTrPi2 H_S O_Tr2Tr2TrPi C_TrTrTrPi C_TeTeTeTe H_S H_S C_TeTeTeTe H_S H_S H_S C_TeTeTeTe C_TeTeTeTe H_S H_S H_S C_TeTeTeTe H_S O_Te2Te2TeTe H_S O_Tr2TrTrPi2 O_Tr2TrTrPi2 O_Tr2TrTrPi2 O_Te2Te2TeTe O_Tr2Tr2TrPi O_Te2Te2TeTe O_Tr2Tr2TrPi P_TeTeTeTePi P_TeTeTeTePi C_TeTeTeTe H_S H_S O_Tr2TrTrPi2 O_Tr2Tr2TrPi O_Te2Te2Te2Te P_TeTeTeTePi O_Te2Te2Te2Te N_TrTrTrPi2 C_TrTrTrPi C_TrTrTrPi H_S C_TrTrTrPi N_Tr2TrTrPi N_Tr2TrTrPi C_TrTrTrPi C_TrTrTrPi H_S N_Tr2TrTrPi N_TrTrTrPi2 H_S H_S S_Te2Te2TeTe O_Tr2Tr2TrPi C_TrTrTrPi C_TrTrTrPi H_S C_TrTrTrPi H_S C_TrTrTrPi C_TrTrTrPi H_S C_TrTrTrPi H_S C_TrTrTrPi H_S C_TrTrTrPi C_TrTrTrPi O_Te2Te2TeTe H_S O_Tr2TrTrPi2 C_TeTeTeTe H_S H_S H_S
M  BCL BND NonConjugatedSingleBond NonConjugatedSingleBondInRing NonConjugatedSingleBondInRing NonConjugatedSingleBond NonConjugatedSingleBondInRing NonConjugatedSingleBond NonConjugatedSingleBondInRing NonConjugatedSingleBond NonConjugatedSingleBond NonConjugatedSingleBondInRing NonConjugatedSingleBond NonConjugatedSingleBond NonConjugatedSingleBond NonConjugatedSingleBond NonConjugatedSingleBond NonConjugatedSingleBond NonConjugatedSingleBond NonConjugatedSingleBond NonConjugatedSingleBond NonConjugatedSingleBond NonConjugatedSingleBond NonConjugatedSingleBond AmideSingleBond ConjugatedDoubleBond NonConjugatedSingleBond NonConjugatedSingleBond NonConjugatedSingleBond NonConjugatedSingleBond NonConjugatedSingleBond NonConjugatedSingleBond NonConjugatedSingleBond NonConjugatedSingleBond AmideSingleBond ConjugatedDoubleBond NonConjugatedSingleBond NonConjugatedSingleBond NonConjugatedSingleBond NonConjugatedSingleBond NonConjugatedSingleBond NonConjugatedSingleBond NonConjugatedSingleBond NonConjugatedSingleBond NonConjugatedSingleBond NonConjugatedSingleBond NonConjugatedSingleBond NonConjugatedSingleBond NonConjugatedSingleBond NonConjugatedSingleBond NonConjugatedSingleBond NonConjugatedSingleBond NonConjugatedSingleBond ConjugatedSingleBond ConjugatedSingleBond ConjugatedSingleBond ConjugatedSingleBond NonConjugatedSingleBond ConjugatedSingleBond ConjugatedDoubleBond ConjugatedSingleBond ConjugatedDoubleBond NonConjugatedSingleBond NonConjugatedSingleBond ConjugatedSingleBond ConjugatedDoubleBond ConjugatedSingleBond ConjugatedSingleBond AromaticSingleBond AromaticSingleBond AromaticDoubleBond AromaticSingleBond NonConjugatedSingleBond AromaticDoubleBond AromaticSingleBond AromaticSingleBond AromaticDoubleBond AromaticDoubleBond ConjugatedSingleBond NonConjugatedSingleBond AromaticSingleBond NonConjugatedSingleBond NonConjugatedSingleBond ConjugatedSingleBond ConjugatedDoubleBond ConjugatedSingleBond NonConjugatedSingleBond ConjugatedDoubleBond NonConjugatedSingleBond ConjugatedSingleBond AromaticSingleBond AromaticDoubleBond NonConjugatedSingleBond AromaticDoubleBond NonConjugatedSingleBond AromaticSingleBond NonConjugatedSingleBond AromaticSingleBond AromaticDoubleBond ConjugatedSingleBond ConjugatedSingleBond NonConjugatedSingleBond NonConjugatedSingleBond NonConjugatedSingleBond NonConjugatedSingleBond NonConjugatedSingleBond
M  BCL CHI   1   R   4   R   6   R   8   S  44   S  55   S  56   R
M  BCL DBI - - - - - - - - - - E - - -
M  END
> <ConfClashScore>
0 

> <ConfOneFourInteractionScore>
-0.972855 

> <ConfScore>
-0.102761 

> <ConfScorePBest>
0.0136565 

> <ConfTolerance>
2.46705 

$$$$
L02.****
  PyMOL2.5          3D                             0

101104  0  0  0  0  0  0  0  0999 V2000
   15.2439   -4.3923   -5.6000 C   0  0  0  1  0  0  0  0  0  0  0  0
   14.7726   -4.7408   -6.4952 H   0  0  0  1  0  0  0  0  0  0  0  0
   15.1563   -5.3724   -4.6044 O   0  0  0  1  0  0  0  0  0  0  0  0
   14.5267   -3.1326   -5.0893 C   0  0  0  1  0  0  0  0  0  0  0  0
   15.1039   -2.2535   -5.2867 H   0  0  0  1  0  0  0  0  0  0  0  0
   14.3397   -4.9012   -3.4895 C   0  0  0  1  0  0  0  0  0  0  0  0
   14.7368   -5.2447   -2.5572 H   0  0  0  1  0  0  0  0  0  0  0  0
   14.4161   -3.3945   -3.5813 C   0  0  0  1  0  0  0  0  0  0  0  0
   13.5344   -2.9417   -3.1783 H   0  0  0  1  0  0  0  0  0  0  0  0
   13.2352   -2.9987   -5.6846 O   0  0  0  1  0  0  0  0  0  0  0  0
   12.5591   -3.1258   -5.0151 H   0  0  0  1  0  0  0  0  0  0  0  0
    6.0608   -3.0660   -6.9928 C   0  0  0  1  0  0  0  0  0  0  0  0
    5.7846   -3.3935   -6.0123 H   0  0  0  1  0  0  0  0  0  0  0  0
    6.7811   -2.2784   -6.9166 H   0  0  0  1  0  0  0  0  0  0  0  0
    4.8334   -2.5326   -7.6877 C   0  0  0  1  0  0  0  0  0  0  0  0
    4.4994   -1.6602   -7.1659 H   0  0  0  1  0  0  0  0  0  0  0  0
    4.0709   -3.2825   -7.6542 H   0  0  0  1  0  0  0  0  0  0  0  0
    6.6643   -4.1826   -7.7047 N   0  0  0  1  0  0  0  0  0  0  0  0
    6.2627   -5.0722   -7.6167 H   0  0  0  1  0  0  0  0  0  0  0  0
    7.7514   -4.0365   -8.4774 C   0  0  0  1  0  0  0  0  0  0  0  0
    8.3659   -2.9754   -8.5752 O   0  0  0  1  0  0  0  0  0  0  0  0
    8.7958   -5.0051  -10.5922 C   0  0  0  1  0  0  0  0  0  0  0  0
    9.5548   -4.2561  -10.5031 H   0  0  0  1  0  0  0  0  0  0  0  0
    8.0339   -4.6637  -11.2613 H   0  0  0  1  0  0  0  0  0  0  0  0
    8.1866   -5.2628   -9.2316 C   0  0  0  1  0  0  0  0  0  0  0  0
    7.3293   -5.8885   -9.3670 H   0  0  0  1  0  0  0  0  0  0  0  0
    8.9129   -5.7759   -8.6365 H   0  0  0  1  0  0  0  0  0  0  0  0
    9.3895   -6.2337  -11.1226 N   0  0  0  1  0  0  0  0  0  0  0  0
    8.8933   -7.0744  -11.0362 H   0  0  0  1  0  0  0  0  0  0  0  0
   11.1804   -5.2027  -12.0049 O   0  0  0  1  0  0  0  0  0  0  0  0
   10.5960   -6.2489  -11.7264 C   0  0  0  1  0  0  0  0  0  0  0  0
   12.4211   -7.5300   -9.8614 C   0  0  0  1  0  0  0  0  0  0  0  0
   13.3077   -7.8277   -9.3415 H   0  0  0  1  0  0  0  0  0  0  0  0
   11.5806   -8.0628   -9.4683 H   0  0  0  1  0  0  0  0  0  0  0  0
   13.0476   -9.2343  -11.5939 C   0  0  0  1  0  0  0  0  0  0  0  0
   12.4193   -9.9110  -11.0535 H   0  0  0  1  0  0  0  0  0  0  0  0
   14.0561   -9.3326  -11.2502 H   0  0  0  1  0  0  0  0  0  0  0  0
   13.0023   -9.4627  -12.6383 H   0  0  0  1  0  0  0  0  0  0  0  0
   12.5677   -7.7961  -11.3644 C   0  0  0  1  0  0  0  0  0  0  0  0
   13.5853   -6.8152  -11.9581 C   0  0  0  1  0  0  0  0  0  0  0  0
   14.4078   -6.7017  -11.2832 H   0  0  0  1  0  0  0  0  0  0  0  0
   13.1170   -5.8656  -12.1122 H   0  0  0  1  0  0  0  0  0  0  0  0
   13.9415   -7.1937  -12.8934 H   0  0  0  1  0  0  0  0  0  0  0  0
   11.2130   -7.5950  -12.0527 C   0  0  0  1  0  0  0  0  0  0  0  0
   11.3533   -7.6638  -13.1112 H   0  0  0  1  0  0  0  0  0  0  0  0
   10.3777   -8.6648  -11.5982 O   0  0  0  1  0  0  0  0  0  0  0  0
   10.7357   -9.0274  -10.7846 H   0  0  0  1  0  0  0  0  0  0  0  0
   12.2176   -6.1029   -9.7363 O   0  0  0  1  0  0  0  0  0  0  0  0
   11.8410   -5.6516   -7.2587 O   0  0  0  1  0  0  0  0  0  0  0  0
   12.4686   -5.1285   -4.9814 O   0  0  0  1  0  0  0  0  0  0  0  0
   14.1846   -5.7937   -8.2215 O   0  0  0  0  0  0  0  0  0  0  0  0
   12.7120   -3.8658   -8.8264 O   0  0  0  1  0  0  0  0  0  0  0  0
   10.7914   -6.9059   -5.3585 O   0  0  0  0  0  0  0  0  0  0  0  0
   13.2624   -7.2929   -5.9316 O   0  0  0  1  0  0  0  0  0  0  0  0
   12.7146   -5.3168   -8.4410 P   0  0  0  1  0  0  0  0  0  0  0  0
   12.1412   -6.3499   -5.8756 P   0  0  0  1  0  0  0  0  0  0  0  0
   12.9454   -5.3633   -3.6312 C   0  0  0  1  0  0  0  0  0  0  0  0
   12.3257   -4.8300   -2.9409 H   0  0  0  1  0  0  0  0  0  0  0  0
   12.8980   -6.4108   -3.4180 H   0  0  0  1  0  0  0  0  0  0  0  0
   15.5824   -2.8910   -2.8809 O   0  0  0  1  0  0  0  0  0  0  0  0
   14.6503   -3.6071   -0.4977 O   0  0  0  1  0  0  0  0  0  0  0  0
   16.8832   -2.3495   -0.6472 O   0  5  0  1  0  0  0  0  0  0  0  0
   15.8471   -3.3847   -1.3395 P   0  0  0  1  0  0  0  0  0  0  0  0
   16.7463   -4.7306   -1.4051 O   0  5  0  1  0  0  0  0  0  0  0  0
   16.6527   -4.0864   -5.8752 N   0  0  0  1  0  0  0  0  0  0  0  0
   17.6663   -3.8662   -4.9787 C   0  0  0  1  0  0  0  0  0  0  0  0
   17.1751   -3.8021   -7.0996 C   0  0  0  1  0  0  0  0  0  0  0  0
   16.6195   -3.8762   -7.9755 H   0  0  0  1  0  0  0  0  0  0  0  0
   18.7649   -3.4591   -5.7475 C   0  0  0  1  0  0  0  0  0  0  0  0
   17.6330   -4.0181   -3.6540 N   0  0  0  1  0  0  0  0  0  0  0  0
   18.4261   -3.4295   -7.0914 N   0  0  0  1  0  0  0  0  0  0  0  0
   19.9296   -3.1916   -5.0343 C   0  0  0  1  0  0  0  0  0  0  0  0
   18.8042   -3.7221   -3.1040 C   0  0  0  1  0  0  0  0  0  0  0  0
   18.8512   -3.8140   -2.0691 H   0  0  0  1  0  0  0  0  0  0  0  0
   19.9363   -3.3203   -3.7031 N   0  0  0  1  0  0  0  0  0  0  0  0
   21.0659   -2.7990   -5.6796 N   0  0  0  1  0  0  0  0  0  0  0  0
   21.9424   -2.9681   -5.2752 H   0  0  0  1  0  0  0  0  0  0  0  0
   21.0055   -2.3479   -6.5475 H   0  0  0  1  0  0  0  0  0  0  0  0
    5.1290   -2.0903   -9.4163 S   0  0  0  1  0  0  0  0  0  0  0  0
    2.6697   -1.1763   -9.1882 O   0  0  0  1  0  0  0  0  0  0  0  0
    3.6034   -1.2788   -9.9382 C   0  0  0  1  0  0  0  0  0  0  0  0
    3.6430   -0.7884  -11.3125 C   0  0  0  1  0  0  0  0  0  0  0  0
    4.5475   -0.9256  -11.8072 H   0  0  0  1  0  0  0  0  0  0  0  0
    2.6892   -0.1906  -12.0254 C   0  0  0  1  0  0  0  0  0  0  0  0
    1.7721   -0.0383  -11.5593 H   0  0  0  1  0  0  0  0  0  0  0  0
    2.8233    0.2757  -13.4250 C   0  0  0  1  0  0  0  0  0  0  0  0
    1.7335    0.8482  -14.0623 C   0  0  0  1  0  0  0  0  0  0  0  0
    0.8307    0.9515  -13.5565 H   0  0  0  1  0  0  0  0  0  0  0  0
    4.0246    0.1433  -14.0955 C   0  0  0  1  0  0  0  0  0  0  0  0
    4.8434   -0.2825  -13.6161 H   0  0  0  1  0  0  0  0  0  0  0  0
    1.8466    1.2816  -15.3698 C   0  0  0  1  0  0  0  0  0  0  0  0
    1.0278    1.7074  -15.8492 H   0  0  0  1  0  0  0  0  0  0  0  0
    4.1382    0.5780  -15.4068 C   0  0  0  1  0  0  0  0  0  0  0  0
    3.0515    1.1487  -16.0421 C   0  0  0  1  0  0  0  0  0  0  0  0
    3.2127    1.5632  -17.3224 O   0  0  0  1  0  0  0  0  0  0  0  0
    2.9309    0.8684  -17.9220 H   0  0  0  1  0  0  0  0  0  0  0  0
    5.3078    0.4441  -16.0620 O   0  0  0  1  0  0  0  0  0  0  0  0
    6.3100   -0.3380  -15.3718 C   0  0  0  1  0  0  0  0  0  0  0  0
    6.0496   -1.3747  -15.4197 H   0  0  0  1  0  0  0  0  0  0  0  0
    6.3599   -0.0300  -14.3483 H   0  0  0  1  0  0  0  0  0  0  0  0
    7.2619   -0.1878  -15.8368 H   0  0  0  1  0  0  0  0  0  0  0  0
  1  2  1  0  0  0  0
  1  3  1  0  0  0  0
  1  4  1  0  0  0  0
  1 65  1  0  0  0  0
  3  6  1  0  0  0  0
  4  5  1  0  0  0  0
  4  8  1  0  0  0  0
  4 10  1  0  0  0  0
  6  7  1  0  0  0  0
  6  8  1  0  0  0  0
  6 57  1  0  0  0  0
  8  9  1  0  0  0  0
  8 60  1  0  0  0  0
 10 11  1  0  0  0  0
 12 13  1  0  0  0  0
 12 14  1  0  0  0  0
 12 15  1  0  0  0  0
 12 18  1  0  0  0  0
 15 16  1  0  0  0  0
 15 17  1  0  0  0  0
 15 79  1  0  0  0  0
 18 19  1  0  0  0  0
 18 20  1  0  0  0  0
 20 21  2  0  0  0  0
 20 25  1  0  0  0  0
 22 23  1  0  0  0  0
 22 24  1  0  0  0  0
 22 25  1  0  0  0  0
 22 28  1  0  0  0  0
 25 26  1  0  0  0  0
 25 27  1  0  0  0  0
 28 29  1  0  0  0  0
 28 31  1  0  0  0  0
 30 31  2  0  0  0  0
 31 44  1  0  0  0  0
 32 33  1  0  0  0  0
 32 34  1  0  0  0  0
 32 39  1  0  0  0  0
 32 48  1  0  0  0  0
 35 36  1  0  0  0  0
 35 37  1  0  0  0  0
 35 38  1  0  0  0  0
 35 39  1  0  0  0  0
 39 40  1  0  0  0  0
 39 44  1  0  0  0  0
 40 41  1  0  0  0  0
 40 42  1  0  0  0  0
 40 43  1  0  0  0  0
 44 45  1  0  0  0  0
 44 46  1  0  0  0  0
 46 47  1  0  0  0  0
 48 55  1  0  0  0  0
 49 55  1  0  0  0  0
 49 56  1  0  0  0  0
 50 56  1  0  0  0  0
 50 57  1  0  0  0  0
 51 55  1  0  0  0  0
 52 55  2  0  0  0  0
 53 56  1  0  0  0  0
 54 56  2  0  0  0  0
 57 58  1  0  0  0  0
 57 59  1  0  0  0  0
 60 63  1  0  0  0  0
 61 63  2  0  0  0  0
 62 63  1  0  0  0  0
 63 64  1  0  0  0  0
 65 66  1  0  0  0  0
 65 67  1  0  0  0  0
 66 69  2  0  0  0  0
 66 70  1  0  0  0  0
 67 68  1  0  0  0  0
 67 71  2  0  0  0  0
 69 71  1  0  0  0  0
 69 72  1  0  0  0  0
 70 73  2  0  0  0  0
 72 75  2  0  0  0  0
 72 76  1  0  0  0  0
 73 74  1  0  0  0  0
 73 75  1  0  0  0  0
 76 77  1  0  0  0  0
 76 78  1  0  0  0  0
 79 81  1  0  0  0  0
 80 81  2  0  0  0  0
 81 82  1  0  0  0  0
 82 83  1  0  0  0  0
 82 84  2  0  0  0  0
 84 85  1  0  0  0  0
 84 86  1  0  0  0  0
 86 87  1  0  0  0  0
 86 89  2  0  0  0  0
 87 88  1  0  0  0  0
 87 91  2  0  0  0  0
 89 90  1  0  0  0  0
 89 93  1  0  0  0  0
 91 92  1  0  0  0  0
 91 94  1  0  0  0  0
 93 94  2  0  0  0  0
 93 97  1  0  0  0  0
 94 95  1  0  0  0  0
 95 96  1  0  0  0  0
 97 98  1  0  0  0  0
 98 99  1  0  0  0  0
 98100  1  0  0  0  0
 98101  1  0  0  0  0
M  BCL ATM C_TeTeTeTe H_S O_Te2Te2TeTe C_TeTeTeTe H_S C_TeTeTeTe H_S C_TeTeTeTe H_S O_Te2Te2TeTe H_S C_TeTeTeTe H_S H_S C_TeTeTeTe H_S H_S N_TrTrTrPi2 H_S C_TrTrTrPi O_Tr2Tr2TrPi C_TeTeTeTe H_S H_S C_TeTeTeTe H_S H_S N_TrTrTrPi2 H_S O_Tr2Tr2TrPi C_TrTrTrPi C_TeTeTeTe H_S H_S C_TeTeTeTe H_S H_S H_S C_TeTeTeTe C_TeTeTeTe H_S H_S H_S C_TeTeTeTe H_S O_Te2Te2TeTe H_S O_Tr2TrTrPi2 O_Tr2TrTrPi2 O_Tr2TrTrPi2 O_Te2Te2TeTe O_Tr2Tr2TrPi O_Te2Te2TeTe O_Tr2Tr2TrPi P_TeTeTeTePi P_TeTeTeTePi C_TeTeTeTe H_S H_S O_Tr2TrTrPi2 O_Tr2Tr2TrPi O_Te2Te2Te2Te P_TeTeTeTePi O_Te2Te2Te2Te N_TrTrTrPi2 C_TrTrTrPi C_TrTrTrPi H_S C_TrTrTrPi N_Tr2TrTrPi N_Tr2TrTrPi C_TrTrTrPi C_TrTrTrPi H_S N_Tr2TrTrPi N_TrTrTrPi2 H_S H_S S_Te2Te2TeTe O_Tr2Tr2TrPi C_TrTrTrPi C_TrTrTrPi H_S C_TrTrTrPi H_S C_TrTrTrPi C_TrTrTrPi H_S C_TrTrTrPi H_S C_TrTrTrPi H_S C_TrTrTrPi C_TrTrTrPi O_Te2Te2TeTe H_S O_Tr2TrTrPi2 C_TeTeTeTe H_S H_S H_S
M  BCL BND NonConjugatedSingleBond NonConjugatedSingleBondInRing NonConjugatedSingleBondInRing NonConjugatedSingleBond NonConjugatedSingleBondInRing NonConjugatedSingleBond NonConjugatedSingleBondInRing NonConjugatedSingleBond NonConjugatedSingleBond NonConjugatedSingleBondInRing NonConjugatedSingleBond NonConjugatedSingleBond NonConjugatedSingleBond NonConjugatedSingleBond NonConjugatedSingleBond NonConjugatedSingleBond NonConjugatedSingleBond NonConjugatedSingleBond NonConjugatedSingleBond NonConjugatedSingleBond NonConjugatedSingleBond NonConjugatedSingleBond AmideSingleBond ConjugatedDoubleBond NonConjugatedSingleBond NonConjugatedSingleBond NonConjugatedSingleBond NonConjugatedSingleBond NonConjugatedSingleBond NonConjugatedSingleBond NonConjugatedSingleBond NonConjugatedSingleBond AmideSingleBond ConjugatedDoubleBond NonConjugatedSingleBond NonConjugatedSingleBond NonConjugatedSingleBond NonConjugatedSingleBond NonConjugatedSingleBond NonConjugatedSingleBond NonConjugatedSingleBond NonConjugatedSingleBond NonConjugatedSingleBond NonConjugatedSingleBond NonConjugatedSingleBond NonConjugatedSingleBond NonConjugatedSingleBond NonConjugatedSingleBond NonConjugatedSingleBond NonConjugatedSingleBond NonConjugatedSingleBond ConjugatedSingleBond ConjugatedSingleBond ConjugatedSingleBond ConjugatedSingleBond NonConjugatedSingleBond ConjugatedSingleBond ConjugatedDoubleBond ConjugatedSingleBond ConjugatedDoubleBond NonConjugatedSingleBond NonConjugatedSingleBond ConjugatedSingleBond ConjugatedDoubleBond ConjugatedSingleBond ConjugatedSingleBond AromaticSingleBond AromaticSingleBond AromaticDoubleBond AromaticSingleBond NonConjugatedSingleBond AromaticDoubleBond AromaticSingleBond AromaticSingleBond AromaticDoubleBond AromaticDoubleBond ConjugatedSingleBond NonConjugatedSingleBond AromaticSingleBond NonConjugatedSingleBond NonConjugatedSingleBond ConjugatedSingleBond ConjugatedDoubleBond ConjugatedSingleBond NonConjugatedSingleBond ConjugatedDoubleBond NonConjugatedSingleBond ConjugatedSingleBond AromaticSingleBond AromaticDoubleBond NonConjugatedSingleBond AromaticDoubleBond NonConjugatedSingleBond AromaticSingleBond NonConjugatedSingleBond AromaticSingleBond AromaticDoubleBond ConjugatedSingleBond ConjugatedSingleBond NonConjugatedSingleBond NonConjugatedSingleBond NonConjugatedSingleBond NonConjugatedSingleBond NonConjugatedSingleBond
M  BCL CHI   1   R   4   R   6   R   8   S  44   S  55   S  56   R
M  BCL DBI - - - - - - - - - - E - - -
M  END
> <ConfClashScore>
0 

> <ConfOneFourInteractionScore>
-0.987734 

> <ConfScore>
-0.086505 

> <ConfScorePBest>
0.0135535 

> <ConfTolerance>
2.82023 

$$$$
L02.****
  PyMOL2.5          3D                             0

101104  0  0  0  0  0  0  0  0999 V2000
   15.2667   -4.4796   -5.5742 C   0  0  0  1  0  0  0  0  0  0  0  0
   14.7255   -3.6699   -5.1311 H   0  0  0  1  0  0  0  0  0  0  0  0
   14.6201   -4.9346   -6.7317 O   0  0  0  1  0  0  0  0  0  0  0  0
   15.2788   -5.7002   -4.6425 C   0  0  0  1  0  0  0  0  0  0  0  0
   16.1152   -6.3347   -4.8490 H   0  0  0  1  0  0  0  0  0  0  0  0
   13.8190   -6.1104   -6.4769 C   0  0  0  1  0  0  0  0  0  0  0  0
   14.1753   -6.9395   -7.0520 H   0  0  0  1  0  0  0  0  0  0  0  0
   13.9808   -6.3860   -4.9791 C   0  0  0  1  0  0  0  0  0  0  0  0
   13.1693   -5.9665   -4.4219 H   0  0  0  1  0  0  0  0  0  0  0  0
   15.3097   -5.3051   -3.2851 O   0  0  0  1  0  0  0  0  0  0  0  0
   14.7787   -5.9108   -2.7629 H   0  0  0  1  0  0  0  0  0  0  0  0
    4.3418   -4.5146   -7.2608 C   0  0  0  1  0  0  0  0  0  0  0  0
    4.6611   -5.4591   -7.6492 H   0  0  0  1  0  0  0  0  0  0  0  0
    4.9387   -4.2577   -6.4107 H   0  0  0  1  0  0  0  0  0  0  0  0
    2.8955   -4.6116   -6.8425 C   0  0  0  1  0  0  0  0  0  0  0  0
    2.2978   -4.7594   -7.7176 H   0  0  0  1  0  0  0  0  0  0  0  0
    2.6160   -3.6932   -6.3700 H   0  0  0  1  0  0  0  0  0  0  0  0
    4.5034   -3.4885   -8.2924 N   0  0  0  1  0  0  0  0  0  0  0  0
    3.7229   -2.9424   -8.5226 H   0  0  0  1  0  0  0  0  0  0  0  0
    5.6472   -3.2490   -8.9400 C   0  0  0  1  0  0  0  0  0  0  0  0
    6.6872   -3.8660   -8.7133 O   0  0  0  1  0  0  0  0  0  0  0  0
    6.6604   -1.1109   -9.6597 C   0  0  0  1  0  0  0  0  0  0  0  0
    6.6314   -0.3444  -10.4057 H   0  0  0  1  0  0  0  0  0  0  0  0
    7.6196   -1.5849   -9.6717 H   0  0  0  1  0  0  0  0  0  0  0  0
    5.5938   -2.1555   -9.9891 C   0  0  0  1  0  0  0  0  0  0  0  0
    4.6268   -1.6974   -9.9831 H   0  0  0  1  0  0  0  0  0  0  0  0
    5.7850   -2.5735  -10.9553 H   0  0  0  1  0  0  0  0  0  0  0  0
    6.4574   -0.4958   -8.3469 N   0  0  0  1  0  0  0  0  0  0  0  0
    5.8335    0.2536   -8.2492 H   0  0  0  1  0  0  0  0  0  0  0  0
    7.8872   -1.9267   -7.3836 O   0  0  0  1  0  0  0  0  0  0  0  0
    7.1460   -0.9713   -7.2413 C   0  0  0  1  0  0  0  0  0  0  0  0
    8.8342   -1.3511   -4.6965 C   0  0  0  1  0  0  0  0  0  0  0  0
    9.0068   -1.9902   -5.5372 H   0  0  0  1  0  0  0  0  0  0  0  0
    8.1461   -1.8216   -4.0256 H   0  0  0  1  0  0  0  0  0  0  0  0
    9.2553    0.6558   -6.1352 C   0  0  0  1  0  0  0  0  0  0  0  0
    9.0000    1.6881   -6.2535 H   0  0  0  1  0  0  0  0  0  0  0  0
    9.2091    0.1660   -7.0854 H   0  0  0  1  0  0  0  0  0  0  0  0
   10.2467    0.5768   -5.7405 H   0  0  0  1  0  0  0  0  0  0  0  0
    8.2666   -0.0085   -5.1695 C   0  0  0  1  0  0  0  0  0  0  0  0
    7.9811    0.8758   -3.9509 C   0  0  0  1  0  0  0  0  0  0  0  0
    7.5719    1.8097   -4.2754 H   0  0  0  1  0  0  0  0  0  0  0  0
    8.8915    1.0518   -3.4171 H   0  0  0  1  0  0  0  0  0  0  0  0
    7.2804    0.3833   -3.3095 H   0  0  0  1  0  0  0  0  0  0  0  0
    6.9516   -0.2869   -5.9009 C   0  0  0  1  0  0  0  0  0  0  0  0
    6.3709   -0.9397   -5.2834 H   0  0  0  1  0  0  0  0  0  0  0  0
    6.2703    0.9497   -6.0340 O   0  0  0  1  0  0  0  0  0  0  0  0
    5.4145    0.8920   -5.6028 H   0  0  0  1  0  0  0  0  0  0  0  0
   10.0827   -1.0849   -4.0153 O   0  0  0  1  0  0  0  0  0  0  0  0
   10.9051   -3.4976   -4.1863 O   0  0  0  1  0  0  0  0  0  0  0  0
   11.7681   -5.2393   -5.6504 O   0  0  0  1  0  0  0  0  0  0  0  0
   12.2237   -1.8782   -2.9068 O   0  0  0  0  0  0  0  0  0  0  0  0
    9.9493   -2.5391   -2.0177 O   0  0  0  1  0  0  0  0  0  0  0  0
   10.2194   -3.4818   -6.5640 O   0  0  0  0  0  0  0  0  0  0  0  0
   12.6506   -2.9753   -5.9406 O   0  0  0  1  0  0  0  0  0  0  0  0
   10.7810   -2.2638   -3.2243 P   0  0  0  1  0  0  0  0  0  0  0  0
   11.3917   -3.7114   -5.6487 P   0  0  0  1  0  0  0  0  0  0  0  0
   12.3867   -5.8512   -6.8106 C   0  0  0  1  0  0  0  0  0  0  0  0
   11.8942   -6.7723   -7.0428 H   0  0  0  1  0  0  0  0  0  0  0  0
   12.3218   -5.1901   -7.6494 H   0  0  0  1  0  0  0  0  0  0  0  0
   14.0619   -7.8082   -4.7184 O   0  0  0  1  0  0  0  0  0  0  0  0
   13.0105  -10.0491   -4.2292 O   0  0  0  1  0  0  0  0  0  0  0  0
   11.7991   -8.4966   -6.0324 O   0  5  0  1  0  0  0  0  0  0  0  0
   12.6737   -8.6806   -4.6813 P   0  0  0  1  0  0  0  0  0  0  0  0
   11.8124   -8.0880   -3.4438 O   0  5  0  1  0  0  0  0  0  0  0  0
   16.6308   -4.0465   -5.8787 N   0  0  0  1  0  0  0  0  0  0  0  0
   17.6538   -3.8479   -4.9878 C   0  0  0  1  0  0  0  0  0  0  0  0
   17.1478   -3.7572   -7.1042 C   0  0  0  1  0  0  0  0  0  0  0  0
   16.5847   -3.8158   -7.9766 H   0  0  0  1  0  0  0  0  0  0  0  0
   18.7518   -3.4476   -5.7611 C   0  0  0  1  0  0  0  0  0  0  0  0
   17.6285   -4.0120   -3.6644 N   0  0  0  1  0  0  0  0  0  0  0  0
   18.4035   -3.4008   -7.1020 N   0  0  0  1  0  0  0  0  0  0  0  0
   19.9252   -3.2018   -5.0542 C   0  0  0  1  0  0  0  0  0  0  0  0
   18.8075   -3.7363   -3.1205 C   0  0  0  1  0  0  0  0  0  0  0  0
   18.8610   -3.8387   -2.0870 H   0  0  0  1  0  0  0  0  0  0  0  0
   19.9401   -3.3433   -3.7244 N   0  0  0  1  0  0  0  0  0  0  0  0
   21.0932   -2.8142   -5.6563 N   0  0  0  1  0  0  0  0  0  0  0  0
   21.1575   -2.7945   -6.6339 H   0  0  0  1  0  0  0  0  0  0  0  0
   21.8645   -2.5567   -5.1092 H   0  0  0  1  0  0  0  0  0  0  0  0
    2.5762   -5.9702   -5.6922 S   0  0  0  1  0  0  0  0  0  0  0  0
    3.6306   -5.8888   -3.2768 O   0  0  0  1  0  0  0  0  0  0  0  0
    3.0480   -5.2609   -4.1304 C   0  0  0  1  0  0  0  0  0  0  0  0
    2.6700   -3.8614   -3.9753 C   0  0  0  1  0  0  0  0  0  0  0  0
    2.1308   -3.4258   -4.7506 H   0  0  0  1  0  0  0  0  0  0  0  0
    2.9561   -3.0926   -2.9253 C   0  0  0  1  0  0  0  0  0  0  0  0
    3.4955   -3.5282   -2.1500 H   0  0  0  1  0  0  0  0  0  0  0  0
    2.5708   -1.6666   -2.7672 C   0  0  0  1  0  0  0  0  0  0  0  0
    2.9933   -0.9113   -1.6844 C   0  0  0  1  0  0  0  0  0  0  0  0
    3.5337   -1.3595   -0.9171 H   0  0  0  1  0  0  0  0  0  0  0  0
    1.8573   -1.0699   -3.7895 C   0  0  0  1  0  0  0  0  0  0  0  0
    1.5438   -1.6357   -4.6038 H   0  0  0  1  0  0  0  0  0  0  0  0
    2.6966    0.4372   -1.6244 C   0  0  0  1  0  0  0  0  0  0  0  0
    3.0102    1.0030   -0.8100 H   0  0  0  1  0  0  0  0  0  0  0  0
    1.5596    0.2826   -3.7295 C   0  0  0  1  0  0  0  0  0  0  0  0
    1.9810    1.0356   -2.6498 C   0  0  0  1  0  0  0  0  0  0  0  0
    1.7069    2.3605   -2.5706 O   0  0  0  1  0  0  0  0  0  0  0  0
    1.0191    2.5837   -3.2020 H   0  0  0  1  0  0  0  0  0  0  0  0
    0.8655    0.9733   -4.6649 O   0  0  0  1  0  0  0  0  0  0  0  0
    0.5431    0.2853   -5.8836 C   0  0  0  1  0  0  0  0  0  0  0  0
   -0.5137    0.1265   -5.9353 H   0  0  0  1  0  0  0  0  0  0  0  0
    1.0468   -0.6585   -5.9041 H   0  0  0  1  0  0  0  0  0  0  0  0
    0.8561    0.8754   -6.7195 H   0  0  0  1  0  0  0  0  0  0  0  0
  1  2  1  0  0  0  0
  1  3  1  0  0  0  0
  1  4  1  0  0  0  0
  1 65  1  0  0  0  0
  3  6  1  0  0  0  0
  4  5  1  0  0  0  0
  4  8  1  0  0  0  0
  4 10  1  0  0  0  0
  6  7  1  0  0  0  0
  6  8  1  0  0  0  0
  6 57  1  0  0  0  0
  8  9  1  0  0  0  0
  8 60  1  0  0  0  0
 10 11  1  0  0  0  0
 12 13  1  0  0  0  0
 12 14  1  0  0  0  0
 12 15  1  0  0  0  0
 12 18  1  0  0  0  0
 15 16  1  0  0  0  0
 15 17  1  0  0  0  0
 15 79  1  0  0  0  0
 18 19  1  0  0  0  0
 18 20  1  0  0  0  0
 20 21  2  0  0  0  0
 20 25  1  0  0  0  0
 22 23  1  0  0  0  0
 22 24  1  0  0  0  0
 22 25  1  0  0  0  0
 22 28  1  0  0  0  0
 25 26  1  0  0  0  0
 25 27  1  0  0  0  0
 28 29  1  0  0  0  0
 28 31  1  0  0  0  0
 30 31  2  0  0  0  0
 31 44  1  0  0  0  0
 32 33  1  0  0  0  0
 32 34  1  0  0  0  0
 32 39  1  0  0  0  0
 32 48  1  0  0  0  0
 35 36  1  0  0  0  0
 35 37  1  0  0  0  0
 35 38  1  0  0  0  0
 35 39  1  0  0  0  0
 39 40  1  0  0  0  0
 39 44  1  0  0  0  0
 40 41  1  0  0  0  0
 40 42  1  0  0  0  0
 40 43  1  0  0  0  0
 44 45  1  0  0  0  0
 44 46  1  0  0  0  0
 46 47  1  0  0  0  0
 48 55  1  0  0  0  0
 49 55  1  0  0  0  0
 49 56  1  0  0  0  0
 50 56  1  0  0  0  0
 50 57  1  0  0  0  0
 51 55  1  0  0  0  0
 52 55  2  0  0  0  0
 53 56  1  0  0  0  0
 54 56  2  0  0  0  0
 57 58  1  0  0  0  0
 57 59  1  0  0  0  0
 60 63  1  0  0  0  0
 61 63  2  0  0  0  0
 62 63  1  0  0  0  0
 63 64  1  0  0  0  0
 65 66  1  0  0  0  0
 65 67  1  0  0  0  0
 66 69  2  0  0  0  0
 66 70  1  0  0  0  0
 67 68  1  0  0  0  0
 67 71  2  0  0  0  0
 69 71  1  0  0  0  0
 69 72  1  0  0  0  0
 70 73  2  0  0  0  0
 72 75  2  0  0  0  0
 72 76  1  0  0  0  0
 73 74  1  0  0  0  0
 73 75  1  0  0  0  0
 76 77  1  0  0  0  0
 76 78  1  0  0  0  0
 79 81  1  0  0  0  0
 80 81  2  0  0  0  0
 81 82  1  0  0  0  0
 82 83  1  0  0  0  0
 82 84  2  0  0  0  0
 84 85  1  0  0  0  0
 84 86  1  0  0  0  0
 86 87  1  0  0  0  0
 86 89  2  0  0  0  0
 87 88  1  0  0  0  0
 87 91  2  0  0  0  0
 89 90  1  0  0  0  0
 89 93  1  0  0  0  0
 91 92  1  0  0  0  0
 91 94  1  0  0  0  0
 93 94  2  0  0  0  0
 93 97  1  0  0  0  0
 94 95  1  0  0  0  0
 95 96  1  0  0  0  0
 97 98  1  0  0  0  0
 98 99  1  0  0  0  0
 98100  1  0  0  0  0
 98101  1  0  0  0  0
M  BCL ATM C_TeTeTeTe H_S O_Te2Te2TeTe C_TeTeTeTe H_S C_TeTeTeTe H_S C_TeTeTeTe H_S O_Te2Te2TeTe H_S C_TeTeTeTe H_S H_S C_TeTeTeTe H_S H_S N_TrTrTrPi2 H_S C_TrTrTrPi O_Tr2Tr2TrPi C_TeTeTeTe H_S H_S C_TeTeTeTe H_S H_S N_TrTrTrPi2 H_S O_Tr2Tr2TrPi C_TrTrTrPi C_TeTeTeTe H_S H_S C_TeTeTeTe H_S H_S H_S C_TeTeTeTe C_TeTeTeTe H_S H_S H_S C_TeTeTeTe H_S O_Te2Te2TeTe H_S O_Tr2TrTrPi2 O_Tr2TrTrPi2 O_Tr2TrTrPi2 O_Te2Te2TeTe O_Tr2Tr2TrPi O_Te2Te2TeTe O_Tr2Tr2TrPi P_TeTeTeTePi P_TeTeTeTePi C_TeTeTeTe H_S H_S O_Tr2TrTrPi2 O_Tr2Tr2TrPi O_Te2Te2Te2Te P_TeTeTeTePi O_Te2Te2Te2Te N_TrTrTrPi2 C_TrTrTrPi C_TrTrTrPi H_S C_TrTrTrPi N_Tr2TrTrPi N_Tr2TrTrPi C_TrTrTrPi C_TrTrTrPi H_S N_Tr2TrTrPi N_TrTrTrPi2 H_S H_S S_Te2Te2TeTe O_Tr2Tr2TrPi C_TrTrTrPi C_TrTrTrPi H_S C_TrTrTrPi H_S C_TrTrTrPi C_TrTrTrPi H_S C_TrTrTrPi H_S C_TrTrTrPi H_S C_TrTrTrPi C_TrTrTrPi O_Te2Te2TeTe H_S O_Tr2TrTrPi2 C_TeTeTeTe H_S H_S H_S
M  BCL BND NonConjugatedSingleBond NonConjugatedSingleBondInRing NonConjugatedSingleBondInRing NonConjugatedSingleBond NonConjugatedSingleBondInRing NonConjugatedSingleBond NonConjugatedSingleBondInRing NonConjugatedSingleBond NonConjugatedSingleBond NonConjugatedSingleBondInRing NonConjugatedSingleBond NonConjugatedSingleBond NonConjugatedSingleBond NonConjugatedSingleBond NonConjugatedSingleBond NonConjugatedSingleBond NonConjugatedSingleBond NonConjugatedSingleBond NonConjugatedSingleBond NonConjugatedSingleBond NonConjugatedSingleBond NonConjugatedSingleBond AmideSingleBond ConjugatedDoubleBond NonConjugatedSingleBond NonConjugatedSingleBond NonConjugatedSingleBond NonConjugatedSingleBond NonConjugatedSingleBond NonConjugatedSingleBond NonConjugatedSingleBond NonConjugatedSingleBond AmideSingleBond ConjugatedDoubleBond NonConjugatedSingleBond NonConjugatedSingleBond NonConjugatedSingleBond NonConjugatedSingleBond NonConjugatedSingleBond NonConjugatedSingleBond NonConjugatedSingleBond NonConjugatedSingleBond NonConjugatedSingleBond NonConjugatedSingleBond NonConjugatedSingleBond NonConjugatedSingleBond NonConjugatedSingleBond NonConjugatedSingleBond NonConjugatedSingleBond NonConjugatedSingleBond NonConjugatedSingleBond ConjugatedSingleBond ConjugatedSingleBond ConjugatedSingleBond ConjugatedSingleBond NonConjugatedSingleBond ConjugatedSingleBond ConjugatedDoubleBond ConjugatedSingleBond ConjugatedDoubleBond NonConjugatedSingleBond NonConjugatedSingleBond ConjugatedSingleBond ConjugatedDoubleBond ConjugatedSingleBond ConjugatedSingleBond AromaticSingleBond AromaticSingleBond AromaticDoubleBond AromaticSingleBond NonConjugatedSingleBond AromaticDoubleBond AromaticSingleBond AromaticSingleBond AromaticDoubleBond AromaticDoubleBond ConjugatedSingleBond NonConjugatedSingleBond AromaticSingleBond NonConjugatedSingleBond NonConjugatedSingleBond ConjugatedSingleBond ConjugatedDoubleBond ConjugatedSingleBond NonConjugatedSingleBond ConjugatedDoubleBond NonConjugatedSingleBond ConjugatedSingleBond AromaticSingleBond AromaticDoubleBond NonConjugatedSingleBond AromaticDoubleBond NonConjugatedSingleBond AromaticSingleBond NonConjugatedSingleBond AromaticSingleBond AromaticDoubleBond ConjugatedSingleBond ConjugatedSingleBond NonConjugatedSingleBond NonConjugatedSingleBond NonConjugatedSingleBond NonConjugatedSingleBond NonConjugatedSingleBond
M  BCL CHI   1   R   4   R   6   R   8   S  44   S  55   S  56   R
M  BCL DBI - - - - - - - - - - E - - -
M  END
> <ConfClashScore>
0 

> <ConfOneFourInteractionScore>
-0.977981 

> <ConfScore>
-0.0824553 

> <ConfScorePBest>
0.0134505 

> <ConfTolerance>
2.93733 

$$$$
L02.****
  PyMOL2.5          3D                             0

101104  0  0  0  0  0  0  0  0999 V2000
   15.2658   -4.4707   -5.5642 C   0  0  0  1  0  0  0  0  0  0  0  0
   15.2879   -5.1730   -4.7573 H   0  0  0  1  0  0  0  0  0  0  0  0
   14.4628   -3.3370   -5.2043 O   0  0  0  1  0  0  0  0  0  0  0  0
   14.6433   -5.1018   -6.7745 C   0  0  0  1  0  0  0  0  0  0  0  0
   15.3358   -5.1147   -7.5901 H   0  0  0  1  0  0  0  0  0  0  0  0
   13.1652   -3.5345   -5.8152 C   0  0  0  1  0  0  0  0  0  0  0  0
   12.6856   -2.5950   -5.9948 H   0  0  0  1  0  0  0  0  0  0  0  0
   13.4559   -4.2310   -7.1012 C   0  0  0  1  0  0  0  0  0  0  0  0
   12.6212   -4.8245   -7.4109 H   0  0  0  1  0  0  0  0  0  0  0  0
   14.2229   -6.4358   -6.4849 O   0  0  0  1  0  0  0  0  0  0  0  0
   14.8795   -6.8658   -5.9321 H   0  0  0  1  0  0  0  0  0  0  0  0
    2.6583   -9.6802   -9.9785 C   0  0  0  1  0  0  0  0  0  0  0  0
    2.8760  -10.0428  -10.9614 H   0  0  0  1  0  0  0  0  0  0  0  0
    1.6105   -9.4802   -9.8955 H   0  0  0  1  0  0  0  0  0  0  0  0
    3.4150   -8.3936   -9.7592 C   0  0  0  1  0  0  0  0  0  0  0  0
    4.4527   -8.6077   -9.6101 H   0  0  0  1  0  0  0  0  0  0  0  0
    3.0269   -7.8905   -8.8983 H   0  0  0  1  0  0  0  0  0  0  0  0
    3.0167  -10.7150   -9.0068 N   0  0  0  1  0  0  0  0  0  0  0  0
    3.6911  -11.3882   -9.2357 H   0  0  0  1  0  0  0  0  0  0  0  0
    2.4262  -10.7435   -7.8086 C   0  0  0  1  0  0  0  0  0  0  0  0
    1.5892   -9.9143   -7.4544 O   0  0  0  1  0  0  0  0  0  0  0  0
    3.4017  -11.3796   -5.5637 C   0  0  0  1  0  0  0  0  0  0  0  0
    3.5813  -12.2271   -4.9357 H   0  0  0  1  0  0  0  0  0  0  0  0
    2.6755  -10.7421   -5.1043 H   0  0  0  1  0  0  0  0  0  0  0  0
    2.8490  -11.8681   -6.8962 C   0  0  0  1  0  0  0  0  0  0  0  0
    3.6063  -12.4407   -7.3898 H   0  0  0  1  0  0  0  0  0  0  0  0
    1.9991  -12.4895   -6.7052 H   0  0  0  1  0  0  0  0  0  0  0  0
    4.6525  -10.6338   -5.7142 N   0  0  0  1  0  0  0  0  0  0  0  0
    4.5732   -9.7152   -6.0462 H   0  0  0  1  0  0  0  0  0  0  0  0
    6.1313  -12.1950   -5.0327 O   0  0  0  1  0  0  0  0  0  0  0  0
    5.8898  -11.0632   -5.4502 C   0  0  0  1  0  0  0  0  0  0  0  0
    8.3099   -8.1743   -4.7349 C   0  0  0  1  0  0  0  0  0  0  0  0
    7.9373   -7.4568   -5.4358 H   0  0  0  1  0  0  0  0  0  0  0  0
    9.1822   -8.6462   -5.1365 H   0  0  0  1  0  0  0  0  0  0  0  0
    5.9373   -8.5004   -4.0741 C   0  0  0  1  0  0  0  0  0  0  0  0
    6.1014   -7.4431   -4.0831 H   0  0  0  1  0  0  0  0  0  0  0  0
    5.6264   -8.8045   -3.0965 H   0  0  0  1  0  0  0  0  0  0  0  0
    5.1765   -8.7490   -4.7843 H   0  0  0  1  0  0  0  0  0  0  0  0
    7.2377   -9.2235   -4.4445 C   0  0  0  1  0  0  0  0  0  0  0  0
    7.6148  -10.0809   -3.2316 C   0  0  0  1  0  0  0  0  0  0  0  0
    6.7569  -10.6279   -2.9004 H   0  0  0  1  0  0  0  0  0  0  0  0
    7.9608   -9.4479   -2.4414 H   0  0  0  1  0  0  0  0  0  0  0  0
    8.3898  -10.7656   -3.5063 H   0  0  0  1  0  0  0  0  0  0  0  0
    7.0013  -10.0619   -5.6973 C   0  0  0  1  0  0  0  0  0  0  0  0
    6.6950   -9.4065   -6.4857 H   0  0  0  1  0  0  0  0  0  0  0  0
    8.2196  -10.7102   -6.0621 O   0  0  0  1  0  0  0  0  0  0  0  0
    8.6997  -10.9598   -5.2691 H   0  0  0  1  0  0  0  0  0  0  0  0
    8.6344   -7.5202   -3.4856 O   0  0  0  1  0  0  0  0  0  0  0  0
   11.0268   -6.9826   -3.7380 O   0  0  0  1  0  0  0  0  0  0  0  0
   12.9242   -5.6605   -4.7211 O   0  0  0  1  0  0  0  0  0  0  0  0
    9.3217   -5.4003   -4.6769 O   0  0  0  0  0  0  0  0  0  0  0  0
    9.5721   -5.6835   -2.1738 O   0  0  0  1  0  0  0  0  0  0  0  0
   13.0563   -8.0660   -4.8625 O   0  0  0  0  0  0  0  0  0  0  0  0
   11.1983   -6.8533   -6.1526 O   0  0  0  1  0  0  0  0  0  0  0  0
    9.6042   -6.2706   -3.5139 P   0  0  0  1  0  0  0  0  0  0  0  0
   12.0569   -6.9792   -4.9649 P   0  0  0  1  0  0  0  0  0  0  0  0
   12.3059   -4.3694   -4.9537 C   0  0  0  1  0  0  0  0  0  0  0  0
   11.3600   -4.5130   -5.4329 H   0  0  0  1  0  0  0  0  0  0  0  0
   12.1600   -3.8747   -4.0163 H   0  0  0  1  0  0  0  0  0  0  0  0
   13.7819   -3.2863   -8.1331 O   0  0  0  1  0  0  0  0  0  0  0  0
   11.8037   -3.8800   -9.7269 O   0  0  0  1  0  0  0  0  0  0  0  0
   14.3138   -3.8553  -10.6296 O   0  5  0  1  0  0  0  0  0  0  0  0
   13.1568   -3.2854   -9.6493 P   0  0  0  1  0  0  0  0  0  0  0  0
   13.0323   -1.7112  -10.0109 O   0  5  0  1  0  0  0  0  0  0  0  0
   16.6279   -4.0387   -5.8724 N   0  0  0  1  0  0  0  0  0  0  0  0
   17.6556   -3.8476   -4.9853 C   0  0  0  1  0  0  0  0  0  0  0  0
   17.1394   -3.7429   -7.0987 C   0  0  0  1  0  0  0  0  0  0  0  0
   16.5719   -3.7950   -7.9686 H   0  0  0  1  0  0  0  0  0  0  0  0
   18.7506   -3.4446   -5.7615 C   0  0  0  1  0  0  0  0  0  0  0  0
   17.6364   -4.0199   -3.6629 N   0  0  0  1  0  0  0  0  0  0  0  0
   18.3958   -3.3888   -7.1004 N   0  0  0  1  0  0  0  0  0  0  0  0
   19.9279   -3.2055   -5.0589 C   0  0  0  1  0  0  0  0  0  0  0  0
   18.8186   -3.7498   -3.1231 C   0  0  0  1  0  0  0  0  0  0  0  0
   18.8769   -3.8587   -2.0904 H   0  0  0  1  0  0  0  0  0  0  0  0
   19.9490   -3.3552   -3.7300 N   0  0  0  1  0  0  0  0  0  0  0  0
   21.0890   -2.8179   -5.6617 N   0  0  0  1  0  0  0  0  0  0  0  0
   21.8802   -2.6186   -5.1189 H   0  0  0  1  0  0  0  0  0  0  0  0
   21.1317   -2.7390   -6.6376 H   0  0  0  1  0  0  0  0  0  0  0  0
    3.2144   -7.3442  -11.2184 S   0  0  0  1  0  0  0  0  0  0  0  0
    0.9580   -6.0216  -11.5259 O   0  0  0  1  0  0  0  0  0  0  0  0
    1.8301   -6.2879  -10.7428 C   0  0  0  1  0  0  0  0  0  0  0  0
    1.8983   -5.8226   -9.3628 C   0  0  0  1  0  0  0  0  0  0  0  0
    2.6330   -6.2396   -8.7562 H   0  0  0  1  0  0  0  0  0  0  0  0
    1.1000   -4.9088   -8.8122 C   0  0  0  1  0  0  0  0  0  0  0  0
    0.3765   -4.5118   -9.4450 H   0  0  0  1  0  0  0  0  0  0  0  0
    1.0930   -4.3759   -7.4296 C   0  0  0  1  0  0  0  0  0  0  0  0
    0.1780   -3.3749   -7.1431 C   0  0  0  1  0  0  0  0  0  0  0  0
   -0.4676   -3.0332   -7.8834 H   0  0  0  1  0  0  0  0  0  0  0  0
    1.9473   -4.8337   -6.4443 C   0  0  0  1  0  0  0  0  0  0  0  0
    2.6311   -5.5876   -6.6581 H   0  0  0  1  0  0  0  0  0  0  0  0
    0.1234   -2.8309   -5.8737 C   0  0  0  1  0  0  0  0  0  0  0  0
   -0.5605   -2.0771   -5.6599 H   0  0  0  1  0  0  0  0  0  0  0  0
    1.8927   -4.2883   -5.1711 C   0  0  0  1  0  0  0  0  0  0  0  0
    0.9802   -3.2902   -4.8856 C   0  0  0  1  0  0  0  0  0  0  0  0
    0.8662   -2.7143   -3.6641 O   0  0  0  1  0  0  0  0  0  0  0  0
    1.7337   -2.4421   -3.3559 H   0  0  0  1  0  0  0  0  0  0  0  0
    2.7971   -4.6678   -4.2374 O   0  0  0  1  0  0  0  0  0  0  0  0
    3.8294   -5.5750   -4.6544 C   0  0  0  1  0  0  0  0  0  0  0  0
    4.2902   -5.2060   -5.5468 H   0  0  0  1  0  0  0  0  0  0  0  0
    3.4024   -6.5373   -4.8455 H   0  0  0  1  0  0  0  0  0  0  0  0
    4.5648   -5.6577   -3.8815 H   0  0  0  1  0  0  0  0  0  0  0  0
  1  2  1  0  0  0  0
  1  3  1  0  0  0  0
  1  4  1  0  0  0  0
  1 65  1  0  0  0  0
  3  6  1  0  0  0  0
  4  5  1  0  0  0  0
  4  8  1  0  0  0  0
  4 10  1  0  0  0  0
  6  7  1  0  0  0  0
  6  8  1  0  0  0  0
  6 57  1  0  0  0  0
  8  9  1  0  0  0  0
  8 60  1  0  0  0  0
 10 11  1  0  0  0  0
 12 13  1  0  0  0  0
 12 14  1  0  0  0  0
 12 15  1  0  0  0  0
 12 18  1  0  0  0  0
 15 16  1  0  0  0  0
 15 17  1  0  0  0  0
 15 79  1  0  0  0  0
 18 19  1  0  0  0  0
 18 20  1  0  0  0  0
 20 21  2  0  0  0  0
 20 25  1  0  0  0  0
 22 23  1  0  0  0  0
 22 24  1  0  0  0  0
 22 25  1  0  0  0  0
 22 28  1  0  0  0  0
 25 26  1  0  0  0  0
 25 27  1  0  0  0  0
 28 29  1  0  0  0  0
 28 31  1  0  0  0  0
 30 31  2  0  0  0  0
 31 44  1  0  0  0  0
 32 33  1  0  0  0  0
 32 34  1  0  0  0  0
 32 39  1  0  0  0  0
 32 48  1  0  0  0  0
 35 36  1  0  0  0  0
 35 37  1  0  0  0  0
 35 38  1  0  0  0  0
 35 39  1  0  0  0  0
 39 40  1  0  0  0  0
 39 44  1  0  0  0  0
 40 41  1  0  0  0  0
 40 42  1  0  0  0  0
 40 43  1  0  0  0  0
 44 45  1  0  0  0  0
 44 46  1  0  0  0  0
 46 47  1  0  0  0  0
 48 55  1  0  0  0  0
 49 55  1  0  0  0  0
 49 56  1  0  0  0  0
 50 56  1  0  0  0  0
 50 57  1  0  0  0  0
 51 55  1  0  0  0  0
 52 55  2  0  0  0  0
 53 56  1  0  0  0  0
 54 56  2  0  0  0  0
 57 58  1  0  0  0  0
 57 59  1  0  0  0  0
 60 63  1  0  0  0  0
 61 63  2  0  0  0  0
 62 63  1  0  0  0  0
 63 64  1  0  0  0  0
 65 66  1  0  0  0  0
 65 67  1  0  0  0  0
 66 69  2  0  0  0  0
 66 70  1  0  0  0  0
 67 68  1  0  0  0  0
 67 71  2  0  0  0  0
 69 71  1  0  0  0  0
 69 72  1  0  0  0  0
 70 73  2  0  0  0  0
 72 75  2  0  0  0  0
 72 76  1  0  0  0  0
 73 74  1  0  0  0  0
 73 75  1  0  0  0  0
 76 77  1  0  0  0  0
 76 78  1  0  0  0  0
 79 81  1  0  0  0  0
 80 81  2  0  0  0  0
 81 82  1  0  0  0  0
 82 83  1  0  0  0  0
 82 84  2  0  0  0  0
 84 85  1  0  0  0  0
 84 86  1  0  0  0  0
 86 87  1  0  0  0  0
 86 89  2  0  0  0  0
 87 88  1  0  0  0  0
 87 91  2  0  0  0  0
 89 90  1  0  0  0  0
 89 93  1  0  0  0  0
 91 92  1  0  0  0  0
 91 94  1  0  0  0  0
 93 94  2  0  0  0  0
 93 97  1  0  0  0  0
 94 95  1  0  0  0  0
 95 96  1  0  0  0  0
 97 98  1  0  0  0  0
 98 99  1  0  0  0  0
 98100  1  0  0  0  0
 98101  1  0  0  0  0
M  BCL ATM C_TeTeTeTe H_S O_Te2Te2TeTe C_TeTeTeTe H_S C_TeTeTeTe H_S C_TeTeTeTe H_S O_Te2Te2TeTe H_S C_TeTeTeTe H_S H_S C_TeTeTeTe H_S H_S N_TrTrTrPi2 H_S C_TrTrTrPi O_Tr2Tr2TrPi C_TeTeTeTe H_S H_S C_TeTeTeTe H_S H_S N_TrTrTrPi2 H_S O_Tr2Tr2TrPi C_TrTrTrPi C_TeTeTeTe H_S H_S C_TeTeTeTe H_S H_S H_S C_TeTeTeTe C_TeTeTeTe H_S H_S H_S C_TeTeTeTe H_S O_Te2Te2TeTe H_S O_Tr2TrTrPi2 O_Tr2TrTrPi2 O_Tr2TrTrPi2 O_Te2Te2TeTe O_Tr2Tr2TrPi O_Te2Te2TeTe O_Tr2Tr2TrPi P_TeTeTeTePi P_TeTeTeTePi C_TeTeTeTe H_S H_S O_Tr2TrTrPi2 O_Tr2Tr2TrPi O_Te2Te2Te2Te P_TeTeTeTePi O_Te2Te2Te2Te N_TrTrTrPi2 C_TrTrTrPi C_TrTrTrPi H_S C_TrTrTrPi N_Tr2TrTrPi N_Tr2TrTrPi C_TrTrTrPi C_TrTrTrPi H_S N_Tr2TrTrPi N_TrTrTrPi2 H_S H_S S_Te2Te2TeTe O_Tr2Tr2TrPi C_TrTrTrPi C_TrTrTrPi H_S C_TrTrTrPi H_S C_TrTrTrPi C_TrTrTrPi H_S C_TrTrTrPi H_S C_TrTrTrPi H_S C_TrTrTrPi C_TrTrTrPi O_Te2Te2TeTe H_S O_Tr2TrTrPi2 C_TeTeTeTe H_S H_S H_S
M  BCL BND NonConjugatedSingleBond NonConjugatedSingleBondInRing NonConjugatedSingleBondInRing NonConjugatedSingleBond NonConjugatedSingleBondInRing NonConjugatedSingleBond NonConjugatedSingleBondInRing NonConjugatedSingleBond NonConjugatedSingleBond NonConjugatedSingleBondInRing NonConjugatedSingleBond NonConjugatedSingleBond NonConjugatedSingleBond NonConjugatedSingleBond NonConjugatedSingleBond NonConjugatedSingleBond NonConjugatedSingleBond NonConjugatedSingleBond NonConjugatedSingleBond NonConjugatedSingleBond NonConjugatedSingleBond NonConjugatedSingleBond AmideSingleBond ConjugatedDoubleBond NonConjugatedSingleBond NonConjugatedSingleBond NonConjugatedSingleBond NonConjugatedSingleBond NonConjugatedSingleBond NonConjugatedSingleBond NonConjugatedSingleBond NonConjugatedSingleBond AmideSingleBond ConjugatedDoubleBond NonConjugatedSingleBond NonConjugatedSingleBond NonConjugatedSingleBond NonConjugatedSingleBond NonConjugatedSingleBond NonConjugatedSingleBond NonConjugatedSingleBond NonConjugatedSingleBond NonConjugatedSingleBond NonConjugatedSingleBond NonConjugatedSingleBond NonConjugatedSingleBond NonConjugatedSingleBond NonConjugatedSingleBond NonConjugatedSingleBond NonConjugatedSingleBond NonConjugatedSingleBond ConjugatedSingleBond ConjugatedSingleBond ConjugatedSingleBond ConjugatedSingleBond NonConjugatedSingleBond ConjugatedSingleBond ConjugatedDoubleBond ConjugatedSingleBond ConjugatedDoubleBond NonConjugatedSingleBond NonConjugatedSingleBond ConjugatedSingleBond ConjugatedDoubleBond ConjugatedSingleBond ConjugatedSingleBond AromaticSingleBond AromaticSingleBond AromaticDoubleBond AromaticSingleBond NonConjugatedSingleBond AromaticDoubleBond AromaticSingleBond AromaticSingleBond AromaticDoubleBond AromaticDoubleBond ConjugatedSingleBond NonConjugatedSingleBond AromaticSingleBond NonConjugatedSingleBond NonConjugatedSingleBond ConjugatedSingleBond ConjugatedDoubleBond ConjugatedSingleBond NonConjugatedSingleBond ConjugatedDoubleBond NonConjugatedSingleBond ConjugatedSingleBond AromaticSingleBond AromaticDoubleBond NonConjugatedSingleBond AromaticDoubleBond NonConjugatedSingleBond AromaticSingleBond NonConjugatedSingleBond AromaticSingleBond AromaticDoubleBond ConjugatedSingleBond ConjugatedSingleBond NonConjugatedSingleBond NonConjugatedSingleBond NonConjugatedSingleBond NonConjugatedSingleBond NonConjugatedSingleBond
M  BCL CHI   1   R   4   R   6   R   8   S  44   S  55   S  56   R
M  BCL DBI - - - - - - - - - - E - - -
M  END
> <ConfClashScore>
0 

> <ConfOneFourInteractionScore>
-0.977265 

> <ConfScore>
-0.0820435 

> <ConfScorePBest>
0.0133475 

> <ConfTolerance>
2.76783 

$$$$
L02.****
  PyMOL2.5          3D                             0

101104  0  0  0  0  0  0  0  0999 V2000
   15.2478   -4.4822   -5.5396 C   0  0  0  1  0  0  0  0  0  0  0  0
   14.8928   -5.1478   -6.2984 H   0  0  0  1  0  0  0  0  0  0  0  0
   15.2418   -5.1299   -4.2986 O   0  0  0  1  0  0  0  0  0  0  0  0
   14.3199   -3.2610   -5.4411 C   0  0  0  1  0  0  0  0  0  0  0  0
   14.7719   -2.3968   -5.8814 H   0  0  0  1  0  0  0  0  0  0  0  0
   14.2935   -4.4919   -3.3901 C   0  0  0  1  0  0  0  0  0  0  0  0
   14.6756   -4.4797   -2.3908 H   0  0  0  1  0  0  0  0  0  0  0  0
   14.1514   -3.0857   -3.9260 C   0  0  0  1  0  0  0  0  0  0  0  0
   13.1879   -2.6831   -3.6925 H   0  0  0  1  0  0  0  0  0  0  0  0
   13.0644   -3.5162   -6.0725 O   0  0  0  1  0  0  0  0  0  0  0  0
   12.4958   -4.0019   -5.4705 H   0  0  0  1  0  0  0  0  0  0  0  0
    1.8981   -1.9274  -10.3470 C   0  0  0  1  0  0  0  0  0  0  0  0
    1.5067   -1.2307   -9.6355 H   0  0  0  1  0  0  0  0  0  0  0  0
    1.2828   -1.9275  -11.2225 H   0  0  0  1  0  0  0  0  0  0  0  0
    1.8438   -3.3044   -9.7347 C   0  0  0  1  0  0  0  0  0  0  0  0
    2.4156   -3.9710  -10.3460 H   0  0  0  1  0  0  0  0  0  0  0  0
    0.8237   -3.6265   -9.7124 H   0  0  0  1  0  0  0  0  0  0  0  0
    3.2305   -1.4843  -10.7295 N   0  0  0  1  0  0  0  0  0  0  0  0
    3.7164   -0.8772  -10.1331 H   0  0  0  1  0  0  0  0  0  0  0  0
    3.8133   -1.8758  -11.8637 C   0  0  0  1  0  0  0  0  0  0  0  0
    3.2704   -2.6484  -12.6516 O   0  0  0  1  0  0  0  0  0  0  0  0
    6.2918   -2.2460  -12.1833 C   0  0  0  1  0  0  0  0  0  0  0  0
    7.1650   -1.7532  -12.5568 H   0  0  0  1  0  0  0  0  0  0  0  0
    6.0392   -3.0621  -12.8277 H   0  0  0  1  0  0  0  0  0  0  0  0
    5.1394   -1.2504  -12.2048 C   0  0  0  1  0  0  0  0  0  0  0  0
    5.3441   -0.4772  -11.4941 H   0  0  0  1  0  0  0  0  0  0  0  0
    5.0739   -0.8264  -13.1850 H   0  0  0  1  0  0  0  0  0  0  0  0
    6.6030   -2.7851  -10.8720 N   0  0  0  1  0  0  0  0  0  0  0  0
    6.2282   -2.3471  -10.0795 H   0  0  0  1  0  0  0  0  0  0  0  0
    7.9499   -4.4339  -11.6392 O   0  0  0  1  0  0  0  0  0  0  0  0
    7.3859   -3.8622  -10.7072 C   0  0  0  1  0  0  0  0  0  0  0  0
    8.3358   -6.3405   -7.9019 C   0  0  0  1  0  0  0  0  0  0  0  0
    8.9720   -7.2007   -7.9125 H   0  0  0  1  0  0  0  0  0  0  0  0
    7.3525   -6.6274   -7.5924 H   0  0  0  1  0  0  0  0  0  0  0  0
    7.6135   -6.7621  -10.2568 C   0  0  0  1  0  0  0  0  0  0  0  0
    6.5879   -6.4987  -10.4102 H   0  0  0  1  0  0  0  0  0  0  0  0
    7.6696   -7.7387   -9.8232 H   0  0  0  1  0  0  0  0  0  0  0  0
    8.1268   -6.7582  -11.1957 H   0  0  0  1  0  0  0  0  0  0  0  0
    8.2674   -5.7458   -9.3130 C   0  0  0  1  0  0  0  0  0  0  0  0
    9.6962   -5.4806   -9.8014 C   0  0  0  1  0  0  0  0  0  0  0  0
   10.0288   -4.5321   -9.4344 H   0  0  0  1  0  0  0  0  0  0  0  0
    9.7117   -5.4742  -10.8713 H   0  0  0  1  0  0  0  0  0  0  0  0
   10.3453   -6.2504   -9.4394 H   0  0  0  1  0  0  0  0  0  0  0  0
    7.4795   -4.4323   -9.3010 C   0  0  0  1  0  0  0  0  0  0  0  0
    6.4867   -4.6489   -8.9660 H   0  0  0  1  0  0  0  0  0  0  0  0
    8.0692   -3.4778   -8.4337 O   0  0  0  1  0  0  0  0  0  0  0  0
    7.8569   -2.5928   -8.7394 H   0  0  0  1  0  0  0  0  0  0  0  0
    8.8642   -5.3685   -6.9692 O   0  0  0  1  0  0  0  0  0  0  0  0
   10.3451   -5.6722   -4.9184 O   0  0  0  1  0  0  0  0  0  0  0  0
   12.8398   -5.8251   -4.7113 O   0  0  0  1  0  0  0  0  0  0  0  0
    8.0581   -4.6131   -4.7639 O   0  0  0  0  0  0  0  0  0  0  0  0
    8.3571   -7.0845   -5.1556 O   0  0  0  1  0  0  0  0  0  0  0  0
   11.5350   -7.8594   -4.2184 O   0  0  0  0  0  0  0  0  0  0  0  0
   11.5532   -7.0143   -6.5204 O   0  0  0  1  0  0  0  0  0  0  0  0
    8.8755   -5.7253   -5.4279 P   0  0  0  1  0  0  0  0  0  0  0  0
   11.5496   -6.6489   -5.0756 P   0  0  0  1  0  0  0  0  0  0  0  0
   12.9799   -5.2017   -3.4129 C   0  0  0  1  0  0  0  0  0  0  0  0
   12.1851   -4.5026   -3.2567 H   0  0  0  1  0  0  0  0  0  0  0  0
   12.9553   -5.9475   -2.6461 H   0  0  0  1  0  0  0  0  0  0  0  0
   15.1655   -2.2328   -3.3953 O   0  0  0  1  0  0  0  0  0  0  0  0
   16.7322   -1.4804   -5.3975 O   0  0  0  1  0  0  0  0  0  0  0  0
   16.9685   -0.5111   -2.9702 O   0  5  0  1  0  0  0  0  0  0  0  0
   16.0256   -1.0673   -4.1644 P   0  0  0  1  0  0  0  0  0  0  0  0
   14.9599    0.1453   -4.2994 O   0  5  0  1  0  0  0  0  0  0  0  0
   16.6064   -4.0486   -5.8670 N   0  0  0  1  0  0  0  0  0  0  0  0
   17.6442   -3.8499   -4.9933 C   0  0  0  1  0  0  0  0  0  0  0  0
   17.1026   -3.7588   -7.1009 C   0  0  0  1  0  0  0  0  0  0  0  0
   16.5249   -3.8173   -7.9637 H   0  0  0  1  0  0  0  0  0  0  0  0
   18.7289   -3.4490   -5.7849 C   0  0  0  1  0  0  0  0  0  0  0  0
   17.6412   -4.0144   -3.6698 N   0  0  0  1  0  0  0  0  0  0  0  0
   18.3580   -3.4019   -7.1197 N   0  0  0  1  0  0  0  0  0  0  0  0
   19.9140   -3.2030   -5.0978 C   0  0  0  1  0  0  0  0  0  0  0  0
   18.8292   -3.7385   -3.1457 C   0  0  0  1  0  0  0  0  0  0  0  0
   18.9001   -3.8411   -2.1132 H   0  0  0  1  0  0  0  0  0  0  0  0
   19.9513   -3.3449   -3.7685 N   0  0  0  1  0  0  0  0  0  0  0  0
   21.1357   -2.8074   -5.6315 N   0  0  0  1  0  0  0  0  0  0  0  0
   21.9068   -2.6713   -5.0422 H   0  0  0  1  0  0  0  0  0  0  0  0
   21.2255   -2.6646   -6.5969 H   0  0  0  1  0  0  0  0  0  0  0  0
    2.5016   -3.3617   -8.0510 S   0  0  0  1  0  0  0  0  0  0  0  0
    2.1254   -5.9347   -8.4878 O   0  0  0  1  0  0  0  0  0  0  0  0
    2.6153   -5.1114   -7.7498 C   0  0  0  1  0  0  0  0  0  0  0  0
    3.3490   -5.4592   -6.5390 C   0  0  0  1  0  0  0  0  0  0  0  0
    3.6965   -4.6744   -5.9516 H   0  0  0  1  0  0  0  0  0  0  0  0
    3.6153   -6.7099   -6.1158 C   0  0  0  1  0  0  0  0  0  0  0  0
    3.2387   -7.4423   -6.7509 H   0  0  0  1  0  0  0  0  0  0  0  0
    4.3265   -7.2703   -4.9450 C   0  0  0  1  0  0  0  0  0  0  0  0
    4.3414   -8.6315   -4.6835 C   0  0  0  1  0  0  0  0  0  0  0  0
    3.8473   -9.2887   -5.3204 H   0  0  0  1  0  0  0  0  0  0  0  0
    4.9876   -6.3975   -4.1016 C   0  0  0  1  0  0  0  0  0  0  0  0
    4.9798   -5.3767   -4.3000 H   0  0  0  1  0  0  0  0  0  0  0  0
    5.0127   -9.1155   -3.5765 C   0  0  0  1  0  0  0  0  0  0  0  0
    5.0204  -10.1363   -3.3782 H   0  0  0  1  0  0  0  0  0  0  0  0
    5.6610   -6.8827   -2.9913 C   0  0  0  1  0  0  0  0  0  0  0  0
    5.6757   -8.2399   -2.7307 C   0  0  0  1  0  0  0  0  0  0  0  0
    6.3726   -8.5822   -1.6199 O   0  0  0  1  0  0  0  0  0  0  0  0
    6.8150   -9.4216   -1.7651 H   0  0  0  1  0  0  0  0  0  0  0  0
    6.3357   -6.1285   -2.0964 O   0  0  0  1  0  0  0  0  0  0  0  0
    6.3450   -4.6996   -2.2402 C   0  0  0  1  0  0  0  0  0  0  0  0
    5.3444   -4.3270   -2.1700 H   0  0  0  1  0  0  0  0  0  0  0  0
    6.7559   -4.4400   -3.1934 H   0  0  0  1  0  0  0  0  0  0  0  0
    6.9416   -4.2671   -1.4643 H   0  0  0  1  0  0  0  0  0  0  0  0
  1  2  1  0  0  0  0
  1  3  1  0  0  0  0
  1  4  1  0  0  0  0
  1 65  1  0  0  0  0
  3  6  1  0  0  0  0
  4  5  1  0  0  0  0
  4  8  1  0  0  0  0
  4 10  1  0  0  0  0
  6  7  1  0  0  0  0
  6  8  1  0  0  0  0
  6 57  1  0  0  0  0
  8  9  1  0  0  0  0
  8 60  1  0  0  0  0
 10 11  1  0  0  0  0
 12 13  1  0  0  0  0
 12 14  1  0  0  0  0
 12 15  1  0  0  0  0
 12 18  1  0  0  0  0
 15 16  1  0  0  0  0
 15 17  1  0  0  0  0
 15 79  1  0  0  0  0
 18 19  1  0  0  0  0
 18 20  1  0  0  0  0
 20 21  2  0  0  0  0
 20 25  1  0  0  0  0
 22 23  1  0  0  0  0
 22 24  1  0  0  0  0
 22 25  1  0  0  0  0
 22 28  1  0  0  0  0
 25 26  1  0  0  0  0
 25 27  1  0  0  0  0
 28 29  1  0  0  0  0
 28 31  1  0  0  0  0
 30 31  2  0  0  0  0
 31 44  1  0  0  0  0
 32 33  1  0  0  0  0
 32 34  1  0  0  0  0
 32 39  1  0  0  0  0
 32 48  1  0  0  0  0
 35 36  1  0  0  0  0
 35 37  1  0  0  0  0
 35 38  1  0  0  0  0
 35 39  1  0  0  0  0
 39 40  1  0  0  0  0
 39 44  1  0  0  0  0
 40 41  1  0  0  0  0
 40 42  1  0  0  0  0
 40 43  1  0  0  0  0
 44 45  1  0  0  0  0
 44 46  1  0  0  0  0
 46 47  1  0  0  0  0
 48 55  1  0  0  0  0
 49 55  1  0  0  0  0
 49 56  1  0  0  0  0
 50 56  1  0  0  0  0
 50 57  1  0  0  0  0
 51 55  1  0  0  0  0
 52 55  2  0  0  0  0
 53 56  1  0  0  0  0
 54 56  2  0  0  0  0
 57 58  1  0  0  0  0
 57 59  1  0  0  0  0
 60 63  1  0  0  0  0
 61 63  2  0  0  0  0
 62 63  1  0  0  0  0
 63 64  1  0  0  0  0
 65 66  1  0  0  0  0
 65 67  1  0  0  0  0
 66 69  2  0  0  0  0
 66 70  1  0  0  0  0
 67 68  1  0  0  0  0
 67 71  2  0  0  0  0
 69 71  1  0  0  0  0
 69 72  1  0  0  0  0
 70 73  2  0  0  0  0
 72 75  2  0  0  0  0
 72 76  1  0  0  0  0
 73 74  1  0  0  0  0
 73 75  1  0  0  0  0
 76 77  1  0  0  0  0
 76 78  1  0  0  0  0
 79 81  1  0  0  0  0
 80 81  2  0  0  0  0
 81 82  1  0  0  0  0
 82 83  1  0  0  0  0
 82 84  2  0  0  0  0
 84 85  1  0  0  0  0
 84 86  1  0  0  0  0
 86 87  1  0  0  0  0
 86 89  2  0  0  0  0
 87 88  1  0  0  0  0
 87 91  2  0  0  0  0
 89 90  1  0  0  0  0
 89 93  1  0  0  0  0
 91 92  1  0  0  0  0
 91 94  1  0  0  0  0
 93 94  2  0  0  0  0
 93 97  1  0  0  0  0
 94 95  1  0  0  0  0
 95 96  1  0  0  0  0
 97 98  1  0  0  0  0
 98 99  1  0  0  0  0
 98100  1  0  0  0  0
 98101  1  0  0  0  0
M  BCL ATM C_TeTeTeTe H_S O_Te2Te2TeTe C_TeTeTeTe H_S C_TeTeTeTe H_S C_TeTeTeTe H_S O_Te2Te2TeTe H_S C_TeTeTeTe H_S H_S C_TeTeTeTe H_S H_S N_TrTrTrPi2 H_S C_TrTrTrPi O_Tr2Tr2TrPi C_TeTeTeTe H_S H_S C_TeTeTeTe H_S H_S N_TrTrTrPi2 H_S O_Tr2Tr2TrPi C_TrTrTrPi C_TeTeTeTe H_S H_S C_TeTeTeTe H_S H_S H_S C_TeTeTeTe C_TeTeTeTe H_S H_S H_S C_TeTeTeTe H_S O_Te2Te2TeTe H_S O_Tr2TrTrPi2 O_Tr2TrTrPi2 O_Tr2TrTrPi2 O_Te2Te2TeTe O_Tr2Tr2TrPi O_Te2Te2TeTe O_Tr2Tr2TrPi P_TeTeTeTePi P_TeTeTeTePi C_TeTeTeTe H_S H_S O_Tr2TrTrPi2 O_Tr2Tr2TrPi O_Te2Te2Te2Te P_TeTeTeTePi O_Te2Te2Te2Te N_TrTrTrPi2 C_TrTrTrPi C_TrTrTrPi H_S C_TrTrTrPi N_Tr2TrTrPi N_Tr2TrTrPi C_TrTrTrPi C_TrTrTrPi H_S N_Tr2TrTrPi N_TrTrTrPi2 H_S H_S S_Te2Te2TeTe O_Tr2Tr2TrPi C_TrTrTrPi C_TrTrTrPi H_S C_TrTrTrPi H_S C_TrTrTrPi C_TrTrTrPi H_S C_TrTrTrPi H_S C_TrTrTrPi H_S C_TrTrTrPi C_TrTrTrPi O_Te2Te2TeTe H_S O_Tr2TrTrPi2 C_TeTeTeTe H_S H_S H_S
M  BCL BND NonConjugatedSingleBond NonConjugatedSingleBondInRing NonConjugatedSingleBondInRing NonConjugatedSingleBond NonConjugatedSingleBondInRing NonConjugatedSingleBond NonConjugatedSingleBondInRing NonConjugatedSingleBond NonConjugatedSingleBond NonConjugatedSingleBondInRing NonConjugatedSingleBond NonConjugatedSingleBond NonConjugatedSingleBond NonConjugatedSingleBond NonConjugatedSingleBond NonConjugatedSingleBond NonConjugatedSingleBond NonConjugatedSingleBond NonConjugatedSingleBond NonConjugatedSingleBond NonConjugatedSingleBond NonConjugatedSingleBond AmideSingleBond ConjugatedDoubleBond NonConjugatedSingleBond NonConjugatedSingleBond NonConjugatedSingleBond NonConjugatedSingleBond NonConjugatedSingleBond NonConjugatedSingleBond NonConjugatedSingleBond NonConjugatedSingleBond AmideSingleBond ConjugatedDoubleBond NonConjugatedSingleBond NonConjugatedSingleBond NonConjugatedSingleBond NonConjugatedSingleBond NonConjugatedSingleBond NonConjugatedSingleBond NonConjugatedSingleBond NonConjugatedSingleBond NonConjugatedSingleBond NonConjugatedSingleBond NonConjugatedSingleBond NonConjugatedSingleBond NonConjugatedSingleBond NonConjugatedSingleBond NonConjugatedSingleBond NonConjugatedSingleBond NonConjugatedSingleBond ConjugatedSingleBond ConjugatedSingleBond ConjugatedSingleBond ConjugatedSingleBond NonConjugatedSingleBond ConjugatedSingleBond ConjugatedDoubleBond ConjugatedSingleBond ConjugatedDoubleBond NonConjugatedSingleBond NonConjugatedSingleBond ConjugatedSingleBond ConjugatedDoubleBond ConjugatedSingleBond ConjugatedSingleBond AromaticSingleBond AromaticSingleBond AromaticDoubleBond AromaticSingleBond NonConjugatedSingleBond AromaticDoubleBond AromaticSingleBond AromaticSingleBond AromaticDoubleBond AromaticDoubleBond ConjugatedSingleBond NonConjugatedSingleBond AromaticSingleBond NonConjugatedSingleBond NonConjugatedSingleBond ConjugatedSingleBond ConjugatedDoubleBond ConjugatedSingleBond NonConjugatedSingleBond ConjugatedDoubleBond NonConjugatedSingleBond ConjugatedSingleBond AromaticSingleBond AromaticDoubleBond NonConjugatedSingleBond AromaticDoubleBond NonConjugatedSingleBond AromaticSingleBond NonConjugatedSingleBond AromaticSingleBond AromaticDoubleBond ConjugatedSingleBond ConjugatedSingleBond NonConjugatedSingleBond NonConjugatedSingleBond NonConjugatedSingleBond NonConjugatedSingleBond NonConjugatedSingleBond
M  BCL CHI   1   R   4   R   6   R   8   S  44   S  55   S  56   R
M  BCL DBI - - - - - - - - - - E - - -
M  END
> <ConfClashScore>
0 

> <ConfOneFourInteractionScore>
-0.972701 

> <ConfScore>
-0.0808314 

> <ConfScorePBest>
0.0132445 

> <ConfTolerance>
2.86177 

$$$$
L02.****
  PyMOL2.5          3D                             0

101104  0  0  0  0  0  0  0  0999 V2000
   15.2542   -4.4790   -5.5651 C   0  0  0  1  0  0  0  0  0  0  0  0
   14.8224   -4.9485   -6.4242 H   0  0  0  1  0  0  0  0  0  0  0  0
   15.2709   -5.3948   -4.4604 O   0  0  0  1  0  0  0  0  0  0  0  0
   14.4273   -3.3078   -5.1528 C   0  0  0  1  0  0  0  0  0  0  0  0
   15.0465   -2.4495   -4.9949 H   0  0  0  1  0  0  0  0  0  0  0  0
   14.7014   -4.7347   -3.3142 C   0  0  0  1  0  0  0  0  0  0  0  0
   15.4649   -4.2660   -2.7291 H   0  0  0  1  0  0  0  0  0  0  0  0
   13.7774   -3.7121   -3.8960 C   0  0  0  1  0  0  0  0  0  0  0  0
   12.8142   -4.1369   -4.0872 H   0  0  0  1  0  0  0  0  0  0  0  0
   13.4477   -3.0121   -6.1494 O   0  0  0  1  0  0  0  0  0  0  0  0
   13.0465   -3.8284   -6.4565 H   0  0  0  1  0  0  0  0  0  0  0  0
    9.7868   -8.0974   -4.9840 C   0  0  0  1  0  0  0  0  0  0  0  0
    9.0560   -7.8605   -5.7289 H   0  0  0  1  0  0  0  0  0  0  0  0
    9.3009   -8.5141   -4.1267 H   0  0  0  1  0  0  0  0  0  0  0  0
   10.4871   -6.8261   -4.5725 C   0  0  0  1  0  0  0  0  0  0  0  0
   11.0349   -6.4724   -5.4209 H   0  0  0  1  0  0  0  0  0  0  0  0
   11.1685   -7.0752   -3.7860 H   0  0  0  1  0  0  0  0  0  0  0  0
   10.7087   -9.0942   -5.5316 N   0  0  0  1  0  0  0  0  0  0  0  0
   10.9206   -9.0390   -6.4868 H   0  0  0  1  0  0  0  0  0  0  0  0
   11.2818  -10.0720   -4.8283 C   0  0  0  1  0  0  0  0  0  0  0  0
   10.9838  -10.3209   -3.6609 O   0  0  0  1  0  0  0  0  0  0  0  0
   13.1775  -11.7253   -4.6236 C   0  0  0  1  0  0  0  0  0  0  0  0
   13.6205  -12.5155   -5.1930 H   0  0  0  1  0  0  0  0  0  0  0  0
   12.5428  -12.1412   -3.8691 H   0  0  0  1  0  0  0  0  0  0  0  0
   12.3326  -10.8697   -5.5533 C   0  0  0  1  0  0  0  0  0  0  0  0
   12.9775  -10.1914   -6.0719 H   0  0  0  1  0  0  0  0  0  0  0  0
   11.8469  -11.5109   -6.2589 H   0  0  0  1  0  0  0  0  0  0  0  0
   14.2433  -10.9622   -3.9717 N   0  0  0  1  0  0  0  0  0  0  0  0
   14.3882  -10.0302   -4.2377 H   0  0  0  1  0  0  0  0  0  0  0  0
   14.9229  -12.6561   -2.6431 O   0  0  0  1  0  0  0  0  0  0  0  0
   15.0252  -11.4922   -3.0268 C   0  0  0  1  0  0  0  0  0  0  0  0
   18.3615  -10.0031   -1.7538 C   0  0  0  1  0  0  0  0  0  0  0  0
   18.3037   -9.0428   -2.2221 H   0  0  0  1  0  0  0  0  0  0  0  0
   19.3755  -10.3446   -1.7632 H   0  0  0  1  0  0  0  0  0  0  0  0
   17.6170  -12.3878   -1.8578 C   0  0  0  1  0  0  0  0  0  0  0  0
   18.6375  -12.5405   -1.5744 H   0  0  0  1  0  0  0  0  0  0  0  0
   17.3259  -13.1402   -2.5607 H   0  0  0  1  0  0  0  0  0  0  0  0
   16.9933  -12.4488   -0.9905 H   0  0  0  1  0  0  0  0  0  0  0  0
   17.4657  -11.0034   -2.4994 C   0  0  0  1  0  0  0  0  0  0  0  0
   17.8343  -11.0758   -3.9858 C   0  0  0  1  0  0  0  0  0  0  0  0
   18.6404  -11.7664   -4.1207 H   0  0  0  1  0  0  0  0  0  0  0  0
   18.1344  -10.1068   -4.3262 H   0  0  0  1  0  0  0  0  0  0  0  0
   16.9853  -11.4047   -4.5479 H   0  0  0  1  0  0  0  0  0  0  0  0
   16.0045  -10.5620   -2.3541 C   0  0  0  1  0  0  0  0  0  0  0  0
   15.7698  -10.5151   -1.3112 H   0  0  0  1  0  0  0  0  0  0  0  0
   15.9632   -9.2464   -2.9168 O   0  0  0  1  0  0  0  0  0  0  0  0
   16.6653   -8.7132   -2.5369 H   0  0  0  1  0  0  0  0  0  0  0  0
   17.8834   -9.9163   -0.3908 O   0  0  0  1  0  0  0  0  0  0  0  0
   16.0780   -8.4341   -0.6406 O   0  0  0  1  0  0  0  0  0  0  0  0
   14.8627   -6.7699   -2.0961 O   0  0  0  1  0  0  0  0  0  0  0  0
   17.0136   -8.7532    1.7107 O   0  0  0  0  0  0  0  0  0  0  0  0
   18.3495   -7.4357   -0.0269 O   0  0  0  1  0  0  0  0  0  0  0  0
   13.5316   -8.0648   -0.5500 O   0  0  0  0  0  0  0  0  0  0  0  0
   15.2451   -6.3844    0.3932 O   0  0  0  1  0  0  0  0  0  0  0  0
   17.4051   -8.5195    0.2985 P   0  0  0  1  0  0  0  0  0  0  0  0
   14.8495   -7.3864   -0.6229 P   0  0  0  1  0  0  0  0  0  0  0  0
   13.9482   -5.7054   -2.4653 C   0  0  0  1  0  0  0  0  0  0  0  0
   13.1238   -6.1078   -3.0160 H   0  0  0  1  0  0  0  0  0  0  0  0
   13.5853   -5.2154   -1.5860 H   0  0  0  1  0  0  0  0  0  0  0  0
   13.6382   -2.5810   -3.0043 O   0  0  0  1  0  0  0  0  0  0  0  0
   13.6434   -3.5051   -0.5501 O   0  0  0  1  0  0  0  0  0  0  0  0
   11.4140   -3.3718   -1.8354 O   0  5  0  1  0  0  0  0  0  0  0  0
   12.8791   -2.7382   -1.5591 P   0  0  0  1  0  0  0  0  0  0  0  0
   12.6662   -1.1859   -1.1476 O   0  5  0  1  0  0  0  0  0  0  0  0
   16.6164   -4.0459   -5.8781 N   0  0  0  1  0  0  0  0  0  0  0  0
   17.6455   -3.8495   -4.9938 C   0  0  0  1  0  0  0  0  0  0  0  0
   17.1251   -3.7545   -7.1065 C   0  0  0  1  0  0  0  0  0  0  0  0
   16.5561   -3.8112   -7.9752 H   0  0  0  1  0  0  0  0  0  0  0  0
   18.7384   -3.4482   -5.7737 C   0  0  0  1  0  0  0  0  0  0  0  0
   17.6290   -4.0161   -3.6706 N   0  0  0  1  0  0  0  0  0  0  0  0
   18.3810   -3.3987   -7.1122 N   0  0  0  1  0  0  0  0  0  0  0  0
   19.9167   -3.2043   -5.0744 C   0  0  0  1  0  0  0  0  0  0  0  0
   18.8119   -3.7420   -3.1342 C   0  0  0  1  0  0  0  0  0  0  0  0
   18.8723   -3.8463   -2.1012 H   0  0  0  1  0  0  0  0  0  0  0  0
   19.9405   -3.3483   -3.7449 N   0  0  0  1  0  0  0  0  0  0  0  0
   21.1258   -2.8091   -5.6363 N   0  0  0  1  0  0  0  0  0  0  0  0
   21.2049   -2.7083   -6.6078 H   0  0  0  1  0  0  0  0  0  0  0  0
   21.8988   -2.6314   -5.0606 H   0  0  0  1  0  0  0  0  0  0  0  0
    9.4558   -5.4602   -3.9846 S   0  0  0  1  0  0  0  0  0  0  0  0
    9.9054   -6.7437   -1.8205 O   0  0  0  1  0  0  0  0  0  0  0  0
    9.4098   -5.8363   -2.2493 C   0  0  0  1  0  0  0  0  0  0  0  0
    8.6592   -4.8189   -1.5234 C   0  0  0  1  0  0  0  0  0  0  0  0
    8.2954   -4.0141   -2.0725 H   0  0  0  1  0  0  0  0  0  0  0  0
    8.3997   -4.8317   -0.2176 C   0  0  0  1  0  0  0  0  0  0  0  0
    8.7636   -5.6365    0.3315 H   0  0  0  1  0  0  0  0  0  0  0  0
    7.6370   -3.7981    0.5200 C   0  0  0  1  0  0  0  0  0  0  0  0
    7.4883   -3.9083    1.8937 C   0  0  0  1  0  0  0  0  0  0  0  0
    7.9143   -4.7106    2.4001 H   0  0  0  1  0  0  0  0  0  0  0  0
    7.0753   -2.7290   -0.1522 C   0  0  0  1  0  0  0  0  0  0  0  0
    7.1902   -2.6441   -1.1823 H   0  0  0  1  0  0  0  0  0  0  0  0
    6.7740   -2.9520    2.5906 C   0  0  0  1  0  0  0  0  0  0  0  0
    6.6591   -3.0369    3.6208 H   0  0  0  1  0  0  0  0  0  0  0  0
    6.3589   -1.7698    0.5465 C   0  0  0  1  0  0  0  0  0  0  0  0
    6.2107   -1.8798    1.9163 C   0  0  0  1  0  0  0  0  0  0  0  0
    5.5064   -0.9149    2.5563 O   0  0  0  1  0  0  0  0  0  0  0  0
    5.7948   -0.8606    3.4703 H   0  0  0  1  0  0  0  0  0  0  0  0
    5.7615   -0.6854   -0.0022 O   0  0  0  1  0  0  0  0  0  0  0  0
    5.9815   -0.4532   -1.4022 C   0  0  0  1  0  0  0  0  0  0  0  0
    5.1955    0.1605   -1.7903 H   0  0  0  1  0  0  0  0  0  0  0  0
    5.9926   -1.3888   -1.9213 H   0  0  0  1  0  0  0  0  0  0  0  0
    6.9203    0.0418   -1.5382 H   0  0  0  1  0  0  0  0  0  0  0  0
  1  2  1  0  0  0  0
  1  3  1  0  0  0  0
  1  4  1  0  0  0  0
  1 65  1  0  0  0  0
  3  6  1  0  0  0  0
  4  5  1  0  0  0  0
  4  8  1  0  0  0  0
  4 10  1  0  0  0  0
  6  7  1  0  0  0  0
  6  8  1  0  0  0  0
  6 57  1  0  0  0  0
  8  9  1  0  0  0  0
  8 60  1  0  0  0  0
 10 11  1  0  0  0  0
 12 13  1  0  0  0  0
 12 14  1  0  0  0  0
 12 15  1  0  0  0  0
 12 18  1  0  0  0  0
 15 16  1  0  0  0  0
 15 17  1  0  0  0  0
 15 79  1  0  0  0  0
 18 19  1  0  0  0  0
 18 20  1  0  0  0  0
 20 21  2  0  0  0  0
 20 25  1  0  0  0  0
 22 23  1  0  0  0  0
 22 24  1  0  0  0  0
 22 25  1  0  0  0  0
 22 28  1  0  0  0  0
 25 26  1  0  0  0  0
 25 27  1  0  0  0  0
 28 29  1  0  0  0  0
 28 31  1  0  0  0  0
 30 31  2  0  0  0  0
 31 44  1  0  0  0  0
 32 33  1  0  0  0  0
 32 34  1  0  0  0  0
 32 39  1  0  0  0  0
 32 48  1  0  0  0  0
 35 36  1  0  0  0  0
 35 37  1  0  0  0  0
 35 38  1  0  0  0  0
 35 39  1  0  0  0  0
 39 40  1  0  0  0  0
 39 44  1  0  0  0  0
 40 41  1  0  0  0  0
 40 42  1  0  0  0  0
 40 43  1  0  0  0  0
 44 45  1  0  0  0  0
 44 46  1  0  0  0  0
 46 47  1  0  0  0  0
 48 55  1  0  0  0  0
 49 55  1  0  0  0  0
 49 56  1  0  0  0  0
 50 56  1  0  0  0  0
 50 57  1  0  0  0  0
 51 55  1  0  0  0  0
 52 55  2  0  0  0  0
 53 56  1  0  0  0  0
 54 56  2  0  0  0  0
 57 58  1  0  0  0  0
 57 59  1  0  0  0  0
 60 63  1  0  0  0  0
 61 63  2  0  0  0  0
 62 63  1  0  0  0  0
 63 64  1  0  0  0  0
 65 66  1  0  0  0  0
 65 67  1  0  0  0  0
 66 69  2  0  0  0  0
 66 70  1  0  0  0  0
 67 68  1  0  0  0  0
 67 71  2  0  0  0  0
 69 71  1  0  0  0  0
 69 72  1  0  0  0  0
 70 73  2  0  0  0  0
 72 75  2  0  0  0  0
 72 76  1  0  0  0  0
 73 74  1  0  0  0  0
 73 75  1  0  0  0  0
 76 77  1  0  0  0  0
 76 78  1  0  0  0  0
 79 81  1  0  0  0  0
 80 81  2  0  0  0  0
 81 82  1  0  0  0  0
 82 83  1  0  0  0  0
 82 84  2  0  0  0  0
 84 85  1  0  0  0  0
 84 86  1  0  0  0  0
 86 87  1  0  0  0  0
 86 89  2  0  0  0  0
 87 88  1  0  0  0  0
 87 91  2  0  0  0  0
 89 90  1  0  0  0  0
 89 93  1  0  0  0  0
 91 92  1  0  0  0  0
 91 94  1  0  0  0  0
 93 94  2  0  0  0  0
 93 97  1  0  0  0  0
 94 95  1  0  0  0  0
 95 96  1  0  0  0  0
 97 98  1  0  0  0  0
 98 99  1  0  0  0  0
 98100  1  0  0  0  0
 98101  1  0  0  0  0
M  BCL ATM C_TeTeTeTe H_S O_Te2Te2TeTe C_TeTeTeTe H_S C_TeTeTeTe H_S C_TeTeTeTe H_S O_Te2Te2TeTe H_S C_TeTeTeTe H_S H_S C_TeTeTeTe H_S H_S N_TrTrTrPi2 H_S C_TrTrTrPi O_Tr2Tr2TrPi C_TeTeTeTe H_S H_S C_TeTeTeTe H_S H_S N_TrTrTrPi2 H_S O_Tr2Tr2TrPi C_TrTrTrPi C_TeTeTeTe H_S H_S C_TeTeTeTe H_S H_S H_S C_TeTeTeTe C_TeTeTeTe H_S H_S H_S C_TeTeTeTe H_S O_Te2Te2TeTe H_S O_Tr2TrTrPi2 O_Tr2TrTrPi2 O_Tr2TrTrPi2 O_Te2Te2TeTe O_Tr2Tr2TrPi O_Te2Te2TeTe O_Tr2Tr2TrPi P_TeTeTeTePi P_TeTeTeTePi C_TeTeTeTe H_S H_S O_Tr2TrTrPi2 O_Tr2Tr2TrPi O_Te2Te2Te2Te P_TeTeTeTePi O_Te2Te2Te2Te N_TrTrTrPi2 C_TrTrTrPi C_TrTrTrPi H_S C_TrTrTrPi N_Tr2TrTrPi N_Tr2TrTrPi C_TrTrTrPi C_TrTrTrPi H_S N_Tr2TrTrPi N_TrTrTrPi2 H_S H_S S_Te2Te2TeTe O_Tr2Tr2TrPi C_TrTrTrPi C_TrTrTrPi H_S C_TrTrTrPi H_S C_TrTrTrPi C_TrTrTrPi H_S C_TrTrTrPi H_S C_TrTrTrPi H_S C_TrTrTrPi C_TrTrTrPi O_Te2Te2TeTe H_S O_Tr2TrTrPi2 C_TeTeTeTe H_S H_S H_S
M  BCL BND NonConjugatedSingleBond NonConjugatedSingleBondInRing NonConjugatedSingleBondInRing NonConjugatedSingleBond NonConjugatedSingleBondInRing NonConjugatedSingleBond NonConjugatedSingleBondInRing NonConjugatedSingleBond NonConjugatedSingleBond NonConjugatedSingleBondInRing NonConjugatedSingleBond NonConjugatedSingleBond NonConjugatedSingleBond NonConjugatedSingleBond NonConjugatedSingleBond NonConjugatedSingleBond NonConjugatedSingleBond NonConjugatedSingleBond NonConjugatedSingleBond NonConjugatedSingleBond NonConjugatedSingleBond NonConjugatedSingleBond AmideSingleBond ConjugatedDoubleBond NonConjugatedSingleBond NonConjugatedSingleBond NonConjugatedSingleBond NonConjugatedSingleBond NonConjugatedSingleBond NonConjugatedSingleBond NonConjugatedSingleBond NonConjugatedSingleBond AmideSingleBond ConjugatedDoubleBond NonConjugatedSingleBond NonConjugatedSingleBond NonConjugatedSingleBond NonConjugatedSingleBond NonConjugatedSingleBond NonConjugatedSingleBond NonConjugatedSingleBond NonConjugatedSingleBond NonConjugatedSingleBond NonConjugatedSingleBond NonConjugatedSingleBond NonConjugatedSingleBond NonConjugatedSingleBond NonConjugatedSingleBond NonConjugatedSingleBond NonConjugatedSingleBond NonConjugatedSingleBond ConjugatedSingleBond ConjugatedSingleBond ConjugatedSingleBond ConjugatedSingleBond NonConjugatedSingleBond ConjugatedSingleBond ConjugatedDoubleBond ConjugatedSingleBond ConjugatedDoubleBond NonConjugatedSingleBond NonConjugatedSingleBond ConjugatedSingleBond ConjugatedDoubleBond ConjugatedSingleBond ConjugatedSingleBond AromaticSingleBond AromaticSingleBond AromaticDoubleBond AromaticSingleBond NonConjugatedSingleBond AromaticDoubleBond AromaticSingleBond AromaticSingleBond AromaticDoubleBond AromaticDoubleBond ConjugatedSingleBond NonConjugatedSingleBond AromaticSingleBond NonConjugatedSingleBond NonConjugatedSingleBond ConjugatedSingleBond ConjugatedDoubleBond ConjugatedSingleBond NonConjugatedSingleBond ConjugatedDoubleBond NonConjugatedSingleBond ConjugatedSingleBond AromaticSingleBond AromaticDoubleBond NonConjugatedSingleBond AromaticDoubleBond NonConjugatedSingleBond AromaticSingleBond NonConjugatedSingleBond AromaticSingleBond AromaticDoubleBond ConjugatedSingleBond ConjugatedSingleBond NonConjugatedSingleBond NonConjugatedSingleBond NonConjugatedSingleBond NonConjugatedSingleBond NonConjugatedSingleBond
M  BCL CHI   1   R   4   R   6   R   8   S  44   S  55   S  56   R
M  BCL DBI - - - - - - - - - - E - - -
M  END
> <ConfClashScore>
0 

> <ConfOneFourInteractionScore>
-0.980766 

> <ConfScore>
-0.0786364 

> <ConfScorePBest>
0.0131415 

> <ConfTolerance>
2.82719 

$$$$
L02.****
  PyMOL2.5          3D                             0

101104  0  0  0  0  0  0  0  0999 V2000
   15.2531   -4.4782   -5.5649 C   0  0  0  1  0  0  0  0  0  0  0  0
   14.8441   -3.8479   -4.8030 H   0  0  0  1  0  0  0  0  0  0  0  0
   14.4253   -4.4449   -6.7494 O   0  0  0  1  0  0  0  0  0  0  0  0
   15.2444   -5.9418   -5.1137 C   0  0  0  1  0  0  0  0  0  0  0  0
   16.1062   -6.4609   -5.4783 H   0  0  0  1  0  0  0  0  0  0  0  0
   13.8969   -5.7066   -7.0556 C   0  0  0  1  0  0  0  0  0  0  0  0
   14.4766   -6.1858   -7.8166 H   0  0  0  1  0  0  0  0  0  0  0  0
   13.9840   -6.4845   -5.7346 C   0  0  0  1  0  0  0  0  0  0  0  0
   13.1338   -6.2891   -5.1150 H   0  0  0  1  0  0  0  0  0  0  0  0
   15.1967   -6.0386   -3.6895 O   0  0  0  1  0  0  0  0  0  0  0  0
   15.5136   -6.9026   -3.4162 H   0  0  0  1  0  0  0  0  0  0  0  0
   10.3340   -8.1071  -13.7210 C   0  0  0  1  0  0  0  0  0  0  0  0
    9.9827   -7.8923  -14.7086 H   0  0  0  1  0  0  0  0  0  0  0  0
   10.4557   -7.1929  -13.1785 H   0  0  0  1  0  0  0  0  0  0  0  0
   11.6844   -8.7681  -13.8363 C   0  0  0  1  0  0  0  0  0  0  0  0
   12.1533   -8.4103  -14.7291 H   0  0  0  1  0  0  0  0  0  0  0  0
   11.5309   -9.8243  -13.9122 H   0  0  0  1  0  0  0  0  0  0  0  0
    9.3227   -8.9048  -13.0437 N   0  0  0  1  0  0  0  0  0  0  0  0
    9.5267   -9.3234  -12.1813 H   0  0  0  1  0  0  0  0  0  0  0  0
    8.1166   -9.0677  -13.5950 C   0  0  0  1  0  0  0  0  0  0  0  0
    7.8132   -8.6015  -14.6923 O   0  0  0  1  0  0  0  0  0  0  0  0
    5.8575   -9.1326  -12.4017 C   0  0  0  1  0  0  0  0  0  0  0  0
    5.2268   -9.8152  -11.8714 H   0  0  0  1  0  0  0  0  0  0  0  0
    5.3686   -8.8193  -13.3004 H   0  0  0  1  0  0  0  0  0  0  0  0
    7.1314   -9.8667  -12.7869 C   0  0  0  1  0  0  0  0  0  0  0  0
    7.6183  -10.1777  -11.8863 H   0  0  0  1  0  0  0  0  0  0  0  0
    6.8559  -10.7275  -13.3596 H   0  0  0  1  0  0  0  0  0  0  0  0
    6.0625   -7.9529  -11.5592 N   0  0  0  1  0  0  0  0  0  0  0  0
    6.2195   -7.0783  -11.9724 H   0  0  0  1  0  0  0  0  0  0  0  0
    5.7327   -9.1073   -9.6544 O   0  0  0  1  0  0  0  0  0  0  0  0
    6.0360   -8.0661  -10.2310 C   0  0  0  1  0  0  0  0  0  0  0  0
    8.0183   -5.8079   -7.8222 C   0  0  0  1  0  0  0  0  0  0  0  0
    8.9179   -5.9717   -7.2665 H   0  0  0  1  0  0  0  0  0  0  0  0
    7.2407   -5.4926   -7.1583 H   0  0  0  1  0  0  0  0  0  0  0  0
    7.1784   -8.1089   -7.4631 C   0  0  0  1  0  0  0  0  0  0  0  0
    6.9571   -7.5911   -6.5533 H   0  0  0  1  0  0  0  0  0  0  0  0
    7.9738   -8.8042   -7.2930 H   0  0  0  1  0  0  0  0  0  0  0  0
    6.3080   -8.6359   -7.7941 H   0  0  0  1  0  0  0  0  0  0  0  0
    7.6033   -7.0994   -8.5363 C   0  0  0  1  0  0  0  0  0  0  0  0
    8.7952   -7.6507   -9.3252 C   0  0  0  1  0  0  0  0  0  0  0  0
    9.6306   -7.7767   -8.6686 H   0  0  0  1  0  0  0  0  0  0  0  0
    9.0546   -6.9651  -10.1046 H   0  0  0  1  0  0  0  0  0  0  0  0
    8.5328   -8.5956   -9.7534 H   0  0  0  1  0  0  0  0  0  0  0  0
    6.4084   -6.8128   -9.4534 C   0  0  0  1  0  0  0  0  0  0  0  0
    5.5758   -6.5386   -8.8398 H   0  0  0  1  0  0  0  0  0  0  0  0
    6.7361   -5.7402  -10.3203 O   0  0  0  1  0  0  0  0  0  0  0  0
    7.5499   -5.9429  -10.7875 H   0  0  0  1  0  0  0  0  0  0  0  0
    8.2418   -4.7961   -8.8369 O   0  0  0  1  0  0  0  0  0  0  0  0
   10.3850   -5.4903   -9.8332 O   0  0  0  1  0  0  0  0  0  0  0  0
   12.4690   -4.8102   -8.7271 O   0  0  0  1  0  0  0  0  0  0  0  0
    9.7362   -3.0877   -9.9104 O   0  0  0  0  0  0  0  0  0  0  0  0
   10.3424   -4.1652   -7.6654 O   0  0  0  1  0  0  0  0  0  0  0  0
   12.4369   -6.9881   -9.8477 O   0  0  0  0  0  0  0  0  0  0  0  0
   12.3976   -4.8429  -11.2661 O   0  0  0  1  0  0  0  0  0  0  0  0
    9.7153   -4.3151   -9.0135 P   0  0  0  1  0  0  0  0  0  0  0  0
   11.9886   -5.5801  -10.0571 P   0  0  0  1  0  0  0  0  0  0  0  0
   12.4786   -5.5903   -7.5084 C   0  0  0  1  0  0  0  0  0  0  0  0
   11.8953   -5.1000   -6.7573 H   0  0  0  1  0  0  0  0  0  0  0  0
   12.0749   -6.5634   -7.6955 H   0  0  0  1  0  0  0  0  0  0  0  0
   14.0908   -7.9048   -5.9728 O   0  0  0  1  0  0  0  0  0  0  0  0
   12.7931   -8.6893   -3.8953 O   0  0  0  1  0  0  0  0  0  0  0  0
   15.4384   -8.8005   -4.0589 O   0  5  0  1  0  0  0  0  0  0  0  0
   13.9770   -8.9756   -4.7359 P   0  0  0  1  0  0  0  0  0  0  0  0
   13.8279  -10.4406   -5.4112 O   0  5  0  1  0  0  0  0  0  0  0  0
   16.6162   -4.0449   -5.8780 N   0  0  0  1  0  0  0  0  0  0  0  0
   17.6455   -3.8494   -4.9938 C   0  0  0  1  0  0  0  0  0  0  0  0
   17.1247   -3.7527   -7.1064 C   0  0  0  1  0  0  0  0  0  0  0  0
   16.5555   -3.8085   -7.9750 H   0  0  0  1  0  0  0  0  0  0  0  0
   18.7384   -3.4478   -5.7737 C   0  0  0  1  0  0  0  0  0  0  0  0
   17.6294   -4.0172   -3.6707 N   0  0  0  1  0  0  0  0  0  0  0  0
   18.3806   -3.3971   -7.1120 N   0  0  0  1  0  0  0  0  0  0  0  0
   19.9169   -3.2048   -5.0744 C   0  0  0  1  0  0  0  0  0  0  0  0
   18.8124   -3.7438   -3.1344 C   0  0  0  1  0  0  0  0  0  0  0  0
   18.8731   -3.8490   -2.1015 H   0  0  0  1  0  0  0  0  0  0  0  0
   19.9410   -3.3499   -3.7451 N   0  0  0  1  0  0  0  0  0  0  0  0
   21.1260   -2.8094   -5.6363 N   0  0  0  1  0  0  0  0  0  0  0  0
   21.2004   -2.6923   -6.6064 H   0  0  0  1  0  0  0  0  0  0  0  0
   21.9036   -2.6479   -5.0621 H   0  0  0  1  0  0  0  0  0  0  0  0
   12.8085   -8.4635  -12.4526 S   0  0  0  1  0  0  0  0  0  0  0  0
   14.4254   -9.9150  -13.9445 O   0  0  0  1  0  0  0  0  0  0  0  0
   14.3108   -9.2984  -12.9120 C   0  0  0  1  0  0  0  0  0  0  0  0
   15.3859   -9.1706  -11.9323 C   0  0  0  1  0  0  0  0  0  0  0  0
   15.1128   -8.6950  -11.0487 H   0  0  0  1  0  0  0  0  0  0  0  0
   16.6587   -9.5617  -11.9819 C   0  0  0  1  0  0  0  0  0  0  0  0
   16.8859  -10.2402  -12.7366 H   0  0  0  1  0  0  0  0  0  0  0  0
   17.7979   -9.1706  -11.1180 C   0  0  0  1  0  0  0  0  0  0  0  0
   19.1186   -9.4915  -11.3904 C   0  0  0  1  0  0  0  0  0  0  0  0
   19.3561  -10.0342  -12.2452 H   0  0  0  1  0  0  0  0  0  0  0  0
   17.4829   -8.4448   -9.9848 C   0  0  0  1  0  0  0  0  0  0  0  0
   16.4924   -8.2006   -9.7824 H   0  0  0  1  0  0  0  0  0  0  0  0
   20.1199   -9.0903  -10.5262 C   0  0  0  1  0  0  0  0  0  0  0  0
   21.1103   -9.3346  -10.7286 H   0  0  0  1  0  0  0  0  0  0  0  0
   18.4869   -8.0424   -9.1179 C   0  0  0  1  0  0  0  0  0  0  0  0
   19.8037   -8.3624   -9.3897 C   0  0  0  1  0  0  0  0  0  0  0  0
   20.8371   -7.9989   -8.5917 O   0  0  0  1  0  0  0  0  0  0  0  0
   20.8172   -7.0490   -8.4544 H   0  0  0  1  0  0  0  0  0  0  0  0
   18.1776   -7.3357   -8.0049 O   0  0  0  1  0  0  0  0  0  0  0  0
   16.8130   -6.9144   -7.8532 C   0  0  0  1  0  0  0  0  0  0  0  0
   16.2587   -7.6751   -7.3443 H   0  0  0  1  0  0  0  0  0  0  0  0
   16.3829   -6.7452   -8.8183 H   0  0  0  1  0  0  0  0  0  0  0  0
   16.7808   -6.0088   -7.2841 H   0  0  0  1  0  0  0  0  0  0  0  0
  1  2  1  0  0  0  0
  1  3  1  0  0  0  0
  1  4  1  0  0  0  0
  1 65  1  0  0  0  0
  3  6  1  0  0  0  0
  4  5  1  0  0  0  0
  4  8  1  0  0  0  0
  4 10  1  0  0  0  0
  6  7  1  0  0  0  0
  6  8  1  0  0  0  0
  6 57  1  0  0  0  0
  8  9  1  0  0  0  0
  8 60  1  0  0  0  0
 10 11  1  0  0  0  0
 12 13  1  0  0  0  0
 12 14  1  0  0  0  0
 12 15  1  0  0  0  0
 12 18  1  0  0  0  0
 15 16  1  0  0  0  0
 15 17  1  0  0  0  0
 15 79  1  0  0  0  0
 18 19  1  0  0  0  0
 18 20  1  0  0  0  0
 20 21  2  0  0  0  0
 20 25  1  0  0  0  0
 22 23  1  0  0  0  0
 22 24  1  0  0  0  0
 22 25  1  0  0  0  0
 22 28  1  0  0  0  0
 25 26  1  0  0  0  0
 25 27  1  0  0  0  0
 28 29  1  0  0  0  0
 28 31  1  0  0  0  0
 30 31  2  0  0  0  0
 31 44  1  0  0  0  0
 32 33  1  0  0  0  0
 32 34  1  0  0  0  0
 32 39  1  0  0  0  0
 32 48  1  0  0  0  0
 35 36  1  0  0  0  0
 35 37  1  0  0  0  0
 35 38  1  0  0  0  0
 35 39  1  0  0  0  0
 39 40  1  0  0  0  0
 39 44  1  0  0  0  0
 40 41  1  0  0  0  0
 40 42  1  0  0  0  0
 40 43  1  0  0  0  0
 44 45  1  0  0  0  0
 44 46  1  0  0  0  0
 46 47  1  0  0  0  0
 48 55  1  0  0  0  0
 49 55  1  0  0  0  0
 49 56  1  0  0  0  0
 50 56  1  0  0  0  0
 50 57  1  0  0  0  0
 51 55  1  0  0  0  0
 52 55  2  0  0  0  0
 53 56  1  0  0  0  0
 54 56  2  0  0  0  0
 57 58  1  0  0  0  0
 57 59  1  0  0  0  0
 60 63  1  0  0  0  0
 61 63  2  0  0  0  0
 62 63  1  0  0  0  0
 63 64  1  0  0  0  0
 65 66  1  0  0  0  0
 65 67  1  0  0  0  0
 66 69  2  0  0  0  0
 66 70  1  0  0  0  0
 67 68  1  0  0  0  0
 67 71  2  0  0  0  0
 69 71  1  0  0  0  0
 69 72  1  0  0  0  0
 70 73  2  0  0  0  0
 72 75  2  0  0  0  0
 72 76  1  0  0  0  0
 73 74  1  0  0  0  0
 73 75  1  0  0  0  0
 76 77  1  0  0  0  0
 76 78  1  0  0  0  0
 79 81  1  0  0  0  0
 80 81  2  0  0  0  0
 81 82  1  0  0  0  0
 82 83  1  0  0  0  0
 82 84  2  0  0  0  0
 84 85  1  0  0  0  0
 84 86  1  0  0  0  0
 86 87  1  0  0  0  0
 86 89  2  0  0  0  0
 87 88  1  0  0  0  0
 87 91  2  0  0  0  0
 89 90  1  0  0  0  0
 89 93  1  0  0  0  0
 91 92  1  0  0  0  0
 91 94  1  0  0  0  0
 93 94  2  0  0  0  0
 93 97  1  0  0  0  0
 94 95  1  0  0  0  0
 95 96  1  0  0  0  0
 97 98  1  0  0  0  0
 98 99  1  0  0  0  0
 98100  1  0  0  0  0
 98101  1  0  0  0  0
M  BCL ATM C_TeTeTeTe H_S O_Te2Te2TeTe C_TeTeTeTe H_S C_TeTeTeTe H_S C_TeTeTeTe H_S O_Te2Te2TeTe H_S C_TeTeTeTe H_S H_S C_TeTeTeTe H_S H_S N_TrTrTrPi2 H_S C_TrTrTrPi O_Tr2Tr2TrPi C_TeTeTeTe H_S H_S C_TeTeTeTe H_S H_S N_TrTrTrPi2 H_S O_Tr2Tr2TrPi C_TrTrTrPi C_TeTeTeTe H_S H_S C_TeTeTeTe H_S H_S H_S C_TeTeTeTe C_TeTeTeTe H_S H_S H_S C_TeTeTeTe H_S O_Te2Te2TeTe H_S O_Tr2TrTrPi2 O_Tr2TrTrPi2 O_Tr2TrTrPi2 O_Te2Te2TeTe O_Tr2Tr2TrPi O_Te2Te2TeTe O_Tr2Tr2TrPi P_TeTeTeTePi P_TeTeTeTePi C_TeTeTeTe H_S H_S O_Tr2TrTrPi2 O_Tr2Tr2TrPi O_Te2Te2Te2Te P_TeTeTeTePi O_Te2Te2Te2Te N_TrTrTrPi2 C_TrTrTrPi C_TrTrTrPi H_S C_TrTrTrPi N_Tr2TrTrPi N_Tr2TrTrPi C_TrTrTrPi C_TrTrTrPi H_S N_Tr2TrTrPi N_TrTrTrPi2 H_S H_S S_Te2Te2TeTe O_Tr2Tr2TrPi C_TrTrTrPi C_TrTrTrPi H_S C_TrTrTrPi H_S C_TrTrTrPi C_TrTrTrPi H_S C_TrTrTrPi H_S C_TrTrTrPi H_S C_TrTrTrPi C_TrTrTrPi O_Te2Te2TeTe H_S O_Tr2TrTrPi2 C_TeTeTeTe H_S H_S H_S
M  BCL BND NonConjugatedSingleBond NonConjugatedSingleBondInRing NonConjugatedSingleBondInRing NonConjugatedSingleBond NonConjugatedSingleBondInRing NonConjugatedSingleBond NonConjugatedSingleBondInRing NonConjugatedSingleBond NonConjugatedSingleBond NonConjugatedSingleBondInRing NonConjugatedSingleBond NonConjugatedSingleBond NonConjugatedSingleBond NonConjugatedSingleBond NonConjugatedSingleBond NonConjugatedSingleBond NonConjugatedSingleBond NonConjugatedSingleBond NonConjugatedSingleBond NonConjugatedSingleBond NonConjugatedSingleBond NonConjugatedSingleBond AmideSingleBond ConjugatedDoubleBond NonConjugatedSingleBond NonConjugatedSingleBond NonConjugatedSingleBond NonConjugatedSingleBond NonConjugatedSingleBond NonConjugatedSingleBond NonConjugatedSingleBond NonConjugatedSingleBond AmideSingleBond ConjugatedDoubleBond NonConjugatedSingleBond NonConjugatedSingleBond NonConjugatedSingleBond NonConjugatedSingleBond NonConjugatedSingleBond NonConjugatedSingleBond NonConjugatedSingleBond NonConjugatedSingleBond NonConjugatedSingleBond NonConjugatedSingleBond NonConjugatedSingleBond NonConjugatedSingleBond NonConjugatedSingleBond NonConjugatedSingleBond NonConjugatedSingleBond NonConjugatedSingleBond NonConjugatedSingleBond ConjugatedSingleBond ConjugatedSingleBond ConjugatedSingleBond ConjugatedSingleBond NonConjugatedSingleBond ConjugatedSingleBond ConjugatedDoubleBond ConjugatedSingleBond ConjugatedDoubleBond NonConjugatedSingleBond NonConjugatedSingleBond ConjugatedSingleBond ConjugatedDoubleBond ConjugatedSingleBond ConjugatedSingleBond AromaticSingleBond AromaticSingleBond AromaticDoubleBond AromaticSingleBond NonConjugatedSingleBond AromaticDoubleBond AromaticSingleBond AromaticSingleBond AromaticDoubleBond AromaticDoubleBond ConjugatedSingleBond NonConjugatedSingleBond AromaticSingleBond NonConjugatedSingleBond NonConjugatedSingleBond ConjugatedSingleBond ConjugatedDoubleBond ConjugatedSingleBond NonConjugatedSingleBond ConjugatedDoubleBond NonConjugatedSingleBond ConjugatedSingleBond AromaticSingleBond AromaticDoubleBond NonConjugatedSingleBond AromaticDoubleBond NonConjugatedSingleBond AromaticSingleBond NonConjugatedSingleBond AromaticSingleBond AromaticDoubleBond ConjugatedSingleBond ConjugatedSingleBond NonConjugatedSingleBond NonConjugatedSingleBond NonConjugatedSingleBond NonConjugatedSingleBond NonConjugatedSingleBond
M  BCL CHI   1   R   4   R   6   R   8   S  44   S  55   S  56   R
M  BCL DBI - - - - - - - - - - E - - -
M  END
> <ConfClashScore>
0 

> <ConfOneFourInteractionScore>
-0.982543 

> <ConfScore>
-0.0778383 

> <ConfScorePBest>
0.0130385 

> <ConfTolerance>
2.78924 

$$$$
L02.****
  PyMOL2.5          3D                             0

101104  0  0  0  0  0  0  0  0999 V2000
   15.2660   -4.4770   -5.5739 C   0  0  0  1  0  0  0  0  0  0  0  0
   14.7001   -3.6450   -5.2102 H   0  0  0  1  0  0  0  0  0  0  0  0
   14.6631   -4.9941   -6.7266 O   0  0  0  1  0  0  0  0  0  0  0  0
   15.2962   -5.5904   -4.5149 C   0  0  0  1  0  0  0  0  0  0  0  0
   16.2494   -5.6364   -4.0309 H   0  0  0  1  0  0  0  0  0  0  0  0
   14.1874   -6.3544   -6.4920 C   0  0  0  1  0  0  0  0  0  0  0  0
   14.3304   -6.9611   -7.3618 H   0  0  0  1  0  0  0  0  0  0  0  0
   15.0361   -6.8542   -5.3454 C   0  0  0  1  0  0  0  0  0  0  0  0
   14.5093   -7.5874   -4.7711 H   0  0  0  1  0  0  0  0  0  0  0  0
   14.2735   -5.3979   -3.5365 O   0  0  0  1  0  0  0  0  0  0  0  0
   14.5638   -5.7565   -2.6946 H   0  0  0  1  0  0  0  0  0  0  0  0
    9.0369    1.9804   -6.0129 C   0  0  0  1  0  0  0  0  0  0  0  0
    8.0556    1.8223   -6.4091 H   0  0  0  1  0  0  0  0  0  0  0  0
    9.0206    2.8120   -5.3398 H   0  0  0  1  0  0  0  0  0  0  0  0
    9.9894    2.2749   -7.1451 C   0  0  0  1  0  0  0  0  0  0  0  0
    9.5805    3.0678   -7.7358 H   0  0  0  1  0  0  0  0  0  0  0  0
   10.0857    1.3948   -7.7460 H   0  0  0  1  0  0  0  0  0  0  0  0
    9.4610    0.7918   -5.2956 N   0  0  0  1  0  0  0  0  0  0  0  0
   10.2724    0.3082   -5.5568 H   0  0  0  1  0  0  0  0  0  0  0  0
    8.7074    0.3723   -4.2605 C   0  0  0  1  0  0  0  0  0  0  0  0
    7.7171    0.9838   -3.8617 O   0  0  0  1  0  0  0  0  0  0  0  0
    8.6668   -2.1523   -4.3403 C   0  0  0  1  0  0  0  0  0  0  0  0
    8.8827   -2.0409   -5.3823 H   0  0  0  1  0  0  0  0  0  0  0  0
    7.6096   -2.2425   -4.2022 H   0  0  0  1  0  0  0  0  0  0  0  0
    9.1505   -0.9087   -3.6059 C   0  0  0  1  0  0  0  0  0  0  0  0
    8.7662   -0.9317   -2.6076 H   0  0  0  1  0  0  0  0  0  0  0  0
   10.2200   -0.9244   -3.5774 H   0  0  0  1  0  0  0  0  0  0  0  0
    9.3091   -3.3756   -3.8563 N   0  0  0  1  0  0  0  0  0  0  0  0
   10.1834   -3.6268   -4.2208 H   0  0  0  1  0  0  0  0  0  0  0  0
    7.6687   -3.9113   -2.4173 O   0  0  0  1  0  0  0  0  0  0  0  0
    8.7448   -4.1615   -2.9349 C   0  0  0  1  0  0  0  0  0  0  0  0
    9.1168   -6.7054   -4.6950 C   0  0  0  1  0  0  0  0  0  0  0  0
    8.6865   -7.5992   -5.0962 H   0  0  0  1  0  0  0  0  0  0  0  0
   10.1610   -6.6765   -4.9267 H   0  0  0  1  0  0  0  0  0  0  0  0
    9.6009   -7.8964   -2.5606 C   0  0  0  1  0  0  0  0  0  0  0  0
   10.2478   -7.5884   -1.7659 H   0  0  0  1  0  0  0  0  0  0  0  0
   10.1744   -8.3951   -3.3139 H   0  0  0  1  0  0  0  0  0  0  0  0
    8.8579   -8.5639   -2.1770 H   0  0  0  1  0  0  0  0  0  0  0  0
    8.9171   -6.6666   -3.1699 C   0  0  0  1  0  0  0  0  0  0  0  0
    7.4217   -6.7245   -2.8372 C   0  0  0  1  0  0  0  0  0  0  0  0
    7.2954   -6.9210   -1.7930 H   0  0  0  1  0  0  0  0  0  0  0  0
    6.9602   -7.5050   -3.4052 H   0  0  0  1  0  0  0  0  0  0  0  0
    6.9658   -5.7877   -3.0813 H   0  0  0  1  0  0  0  0  0  0  0  0
    9.5279   -5.4038   -2.5601 C   0  0  0  1  0  0  0  0  0  0  0  0
    9.4497   -5.5088   -1.4981 H   0  0  0  1  0  0  0  0  0  0  0  0
   10.9070   -5.2782   -2.8860 O   0  0  0  1  0  0  0  0  0  0  0  0
   11.1252   -4.3508   -3.0040 H   0  0  0  1  0  0  0  0  0  0  0  0
    8.4556   -5.5461   -5.2543 O   0  0  0  1  0  0  0  0  0  0  0  0
   10.0966   -4.3998   -6.8566 O   0  0  0  1  0  0  0  0  0  0  0  0
   11.9778   -6.0798   -7.3175 O   0  0  0  1  0  0  0  0  0  0  0  0
    8.5785   -6.3433   -7.5830 O   0  0  0  0  0  0  0  0  0  0  0  0
    7.7209   -4.0044   -7.1294 O   0  0  0  1  0  0  0  0  0  0  0  0
   11.1241   -4.4328   -9.0934 O   0  0  0  0  0  0  0  0  0  0  0  0
   12.5291   -3.7286   -7.1117 O   0  0  0  1  0  0  0  0  0  0  0  0
    8.6242   -5.0903   -6.7961 P   0  0  0  1  0  0  0  0  0  0  0  0
   11.4847   -4.5690   -7.6677 P   0  0  0  1  0  0  0  0  0  0  0  0
   12.7417   -6.3520   -6.1181 C   0  0  0  1  0  0  0  0  0  0  0  0
   12.5556   -5.5928   -5.3874 H   0  0  0  1  0  0  0  0  0  0  0  0
   12.4667   -7.3062   -5.7197 H   0  0  0  1  0  0  0  0  0  0  0  0
   16.2747   -7.4186   -5.8279 O   0  0  0  1  0  0  0  0  0  0  0  0
   15.0482   -9.6494   -6.6791 O   0  0  0  1  0  0  0  0  0  0  0  0
   17.0481   -9.8298   -5.0603 O   0  5  0  1  0  0  0  0  0  0  0  0
   16.3067   -9.0053   -6.2413 P   0  0  0  1  0  0  0  0  0  0  0  0
   17.3657   -9.0131   -7.4672 O   0  5  0  1  0  0  0  0  0  0  0  0
   16.6302   -4.0442   -5.8785 N   0  0  0  1  0  0  0  0  0  0  0  0
   17.6538   -3.8478   -4.9878 C   0  0  0  1  0  0  0  0  0  0  0  0
   17.1466   -3.7529   -7.1038 C   0  0  0  1  0  0  0  0  0  0  0  0
   16.5829   -3.8095   -7.9760 H   0  0  0  1  0  0  0  0  0  0  0  0
   18.7516   -3.4468   -5.7610 C   0  0  0  1  0  0  0  0  0  0  0  0
   17.6292   -4.0145   -3.6647 N   0  0  0  1  0  0  0  0  0  0  0  0
   18.4025   -3.3972   -7.1016 N   0  0  0  1  0  0  0  0  0  0  0  0
   19.9256   -3.2030   -5.0543 C   0  0  0  1  0  0  0  0  0  0  0  0
   18.8087   -3.7405   -3.1210 C   0  0  0  1  0  0  0  0  0  0  0  0
   18.8627   -3.8448   -2.0877 H   0  0  0  1  0  0  0  0  0  0  0  0
   19.9412   -3.3470   -3.7248 N   0  0  0  1  0  0  0  0  0  0  0  0
   21.0934   -2.8150   -5.6563 N   0  0  0  1  0  0  0  0  0  0  0  0
   21.1454   -2.7570   -6.6332 H   0  0  0  1  0  0  0  0  0  0  0  0
   21.8769   -2.5955   -5.1100 H   0  0  0  1  0  0  0  0  0  0  0  0
   11.6354    2.7685   -6.5811 S   0  0  0  1  0  0  0  0  0  0  0  0
   10.3691    5.0737   -6.7689 O   0  0  0  1  0  0  0  0  0  0  0  0
   11.4221    4.5337   -6.5199 C   0  0  0  1  0  0  0  0  0  0  0  0
   12.6280    5.2659   -6.1437 C   0  0  0  1  0  0  0  0  0  0  0  0
   13.4664    4.6702   -5.9893 H   0  0  0  1  0  0  0  0  0  0  0  0
   12.8331    6.5692   -5.9653 C   0  0  0  1  0  0  0  0  0  0  0  0
   12.0094    7.1865   -6.1138 H   0  0  0  1  0  0  0  0  0  0  0  0
   14.0924    7.2453   -5.5812 C   0  0  0  1  0  0  0  0  0  0  0  0
   15.2643    6.5369   -5.3656 C   0  0  0  1  0  0  0  0  0  0  0  0
   15.2747    5.5030   -5.4770 H   0  0  0  1  0  0  0  0  0  0  0  0
   14.0799    8.6200   -5.4384 C   0  0  0  1  0  0  0  0  0  0  0  0
   13.2017    9.1519   -5.6040 H   0  0  0  1  0  0  0  0  0  0  0  0
   16.4188    7.2046   -5.0028 C   0  0  0  1  0  0  0  0  0  0  0  0
   17.2970    6.6726   -4.8372 H   0  0  0  1  0  0  0  0  0  0  0  0
   15.2377    9.2898   -5.0745 C   0  0  0  1  0  0  0  0  0  0  0  0
   16.4060    8.5833   -4.8596 C   0  0  0  1  0  0  0  0  0  0  0  0
   17.5969    9.1256   -4.5067 O   0  0  0  1  0  0  0  0  0  0  0  0
   17.9656    8.6359   -3.7678 H   0  0  0  1  0  0  0  0  0  0  0  0
   15.1059   10.6017   -4.9629 O   0  0  0  1  0  0  0  0  0  0  0  0
   16.2986   11.3630   -4.7524 C   0  0  0  1  0  0  0  0  0  0  0  0
   16.8990   11.3383   -5.6377 H   0  0  0  1  0  0  0  0  0  0  0  0
   16.8495   10.9439   -3.9364 H   0  0  0  1  0  0  0  0  0  0  0  0
   16.0395   12.3760   -4.5255 H   0  0  0  1  0  0  0  0  0  0  0  0
  1  2  1  0  0  0  0
  1  3  1  0  0  0  0
  1  4  1  0  0  0  0
  1 65  1  0  0  0  0
  3  6  1  0  0  0  0
  4  5  1  0  0  0  0
  4  8  1  0  0  0  0
  4 10  1  0  0  0  0
  6  7  1  0  0  0  0
  6  8  1  0  0  0  0
  6 57  1  0  0  0  0
  8  9  1  0  0  0  0
  8 60  1  0  0  0  0
 10 11  1  0  0  0  0
 12 13  1  0  0  0  0
 12 14  1  0  0  0  0
 12 15  1  0  0  0  0
 12 18  1  0  0  0  0
 15 16  1  0  0  0  0
 15 17  1  0  0  0  0
 15 79  1  0  0  0  0
 18 19  1  0  0  0  0
 18 20  1  0  0  0  0
 20 21  2  0  0  0  0
 20 25  1  0  0  0  0
 22 23  1  0  0  0  0
 22 24  1  0  0  0  0
 22 25  1  0  0  0  0
 22 28  1  0  0  0  0
 25 26  1  0  0  0  0
 25 27  1  0  0  0  0
 28 29  1  0  0  0  0
 28 31  1  0  0  0  0
 30 31  2  0  0  0  0
 31 44  1  0  0  0  0
 32 33  1  0  0  0  0
 32 34  1  0  0  0  0
 32 39  1  0  0  0  0
 32 48  1  0  0  0  0
 35 36  1  0  0  0  0
 35 37  1  0  0  0  0
 35 38  1  0  0  0  0
 35 39  1  0  0  0  0
 39 40  1  0  0  0  0
 39 44  1  0  0  0  0
 40 41  1  0  0  0  0
 40 42  1  0  0  0  0
 40 43  1  0  0  0  0
 44 45  1  0  0  0  0
 44 46  1  0  0  0  0
 46 47  1  0  0  0  0
 48 55  1  0  0  0  0
 49 55  1  0  0  0  0
 49 56  1  0  0  0  0
 50 56  1  0  0  0  0
 50 57  1  0  0  0  0
 51 55  1  0  0  0  0
 52 55  2  0  0  0  0
 53 56  1  0  0  0  0
 54 56  2  0  0  0  0
 57 58  1  0  0  0  0
 57 59  1  0  0  0  0
 60 63  1  0  0  0  0
 61 63  2  0  0  0  0
 62 63  1  0  0  0  0
 63 64  1  0  0  0  0
 65 66  1  0  0  0  0
 65 67  1  0  0  0  0
 66 69  2  0  0  0  0
 66 70  1  0  0  0  0
 67 68  1  0  0  0  0
 67 71  2  0  0  0  0
 69 71  1  0  0  0  0
 69 72  1  0  0  0  0
 70 73  2  0  0  0  0
 72 75  2  0  0  0  0
 72 76  1  0  0  0  0
 73 74  1  0  0  0  0
 73 75  1  0  0  0  0
 76 77  1  0  0  0  0
 76 78  1  0  0  0  0
 79 81  1  0  0  0  0
 80 81  2  0  0  0  0
 81 82  1  0  0  0  0
 82 83  1  0  0  0  0
 82 84  2  0  0  0  0
 84 85  1  0  0  0  0
 84 86  1  0  0  0  0
 86 87  1  0  0  0  0
 86 89  2  0  0  0  0
 87 88  1  0  0  0  0
 87 91  2  0  0  0  0
 89 90  1  0  0  0  0
 89 93  1  0  0  0  0
 91 92  1  0  0  0  0
 91 94  1  0  0  0  0
 93 94  2  0  0  0  0
 93 97  1  0  0  0  0
 94 95  1  0  0  0  0
 95 96  1  0  0  0  0
 97 98  1  0  0  0  0
 98 99  1  0  0  0  0
 98100  1  0  0  0  0
 98101  1  0  0  0  0
M  BCL ATM C_TeTeTeTe H_S O_Te2Te2TeTe C_TeTeTeTe H_S C_TeTeTeTe H_S C_TeTeTeTe H_S O_Te2Te2TeTe H_S C_TeTeTeTe H_S H_S C_TeTeTeTe H_S H_S N_TrTrTrPi2 H_S C_TrTrTrPi O_Tr2Tr2TrPi C_TeTeTeTe H_S H_S C_TeTeTeTe H_S H_S N_TrTrTrPi2 H_S O_Tr2Tr2TrPi C_TrTrTrPi C_TeTeTeTe H_S H_S C_TeTeTeTe H_S H_S H_S C_TeTeTeTe C_TeTeTeTe H_S H_S H_S C_TeTeTeTe H_S O_Te2Te2TeTe H_S O_Tr2TrTrPi2 O_Tr2TrTrPi2 O_Tr2TrTrPi2 O_Te2Te2TeTe O_Tr2Tr2TrPi O_Te2Te2TeTe O_Tr2Tr2TrPi P_TeTeTeTePi P_TeTeTeTePi C_TeTeTeTe H_S H_S O_Tr2TrTrPi2 O_Tr2Tr2TrPi O_Te2Te2Te2Te P_TeTeTeTePi O_Te2Te2Te2Te N_TrTrTrPi2 C_TrTrTrPi C_TrTrTrPi H_S C_TrTrTrPi N_Tr2TrTrPi N_Tr2TrTrPi C_TrTrTrPi C_TrTrTrPi H_S N_Tr2TrTrPi N_TrTrTrPi2 H_S H_S S_Te2Te2TeTe O_Tr2Tr2TrPi C_TrTrTrPi C_TrTrTrPi H_S C_TrTrTrPi H_S C_TrTrTrPi C_TrTrTrPi H_S C_TrTrTrPi H_S C_TrTrTrPi H_S C_TrTrTrPi C_TrTrTrPi O_Te2Te2TeTe H_S O_Tr2TrTrPi2 C_TeTeTeTe H_S H_S H_S
M  BCL BND NonConjugatedSingleBond NonConjugatedSingleBondInRing NonConjugatedSingleBondInRing NonConjugatedSingleBond NonConjugatedSingleBondInRing NonConjugatedSingleBond NonConjugatedSingleBondInRing NonConjugatedSingleBond NonConjugatedSingleBond NonConjugatedSingleBondInRing NonConjugatedSingleBond NonConjugatedSingleBond NonConjugatedSingleBond NonConjugatedSingleBond NonConjugatedSingleBond NonConjugatedSingleBond NonConjugatedSingleBond NonConjugatedSingleBond NonConjugatedSingleBond NonConjugatedSingleBond NonConjugatedSingleBond NonConjugatedSingleBond AmideSingleBond ConjugatedDoubleBond NonConjugatedSingleBond NonConjugatedSingleBond NonConjugatedSingleBond NonConjugatedSingleBond NonConjugatedSingleBond NonConjugatedSingleBond NonConjugatedSingleBond NonConjugatedSingleBond AmideSingleBond ConjugatedDoubleBond NonConjugatedSingleBond NonConjugatedSingleBond NonConjugatedSingleBond NonConjugatedSingleBond NonConjugatedSingleBond NonConjugatedSingleBond NonConjugatedSingleBond NonConjugatedSingleBond NonConjugatedSingleBond NonConjugatedSingleBond NonConjugatedSingleBond NonConjugatedSingleBond NonConjugatedSingleBond NonConjugatedSingleBond NonConjugatedSingleBond NonConjugatedSingleBond NonConjugatedSingleBond ConjugatedSingleBond ConjugatedSingleBond ConjugatedSingleBond ConjugatedSingleBond NonConjugatedSingleBond ConjugatedSingleBond ConjugatedDoubleBond ConjugatedSingleBond ConjugatedDoubleBond NonConjugatedSingleBond NonConjugatedSingleBond ConjugatedSingleBond ConjugatedDoubleBond ConjugatedSingleBond ConjugatedSingleBond AromaticSingleBond AromaticSingleBond AromaticDoubleBond AromaticSingleBond NonConjugatedSingleBond AromaticDoubleBond AromaticSingleBond AromaticSingleBond AromaticDoubleBond AromaticDoubleBond ConjugatedSingleBond NonConjugatedSingleBond AromaticSingleBond NonConjugatedSingleBond NonConjugatedSingleBond ConjugatedSingleBond ConjugatedDoubleBond ConjugatedSingleBond NonConjugatedSingleBond ConjugatedDoubleBond NonConjugatedSingleBond ConjugatedSingleBond AromaticSingleBond AromaticDoubleBond NonConjugatedSingleBond AromaticDoubleBond NonConjugatedSingleBond AromaticSingleBond NonConjugatedSingleBond AromaticSingleBond AromaticDoubleBond ConjugatedSingleBond ConjugatedSingleBond NonConjugatedSingleBond NonConjugatedSingleBond NonConjugatedSingleBond NonConjugatedSingleBond NonConjugatedSingleBond
M  BCL CHI   1   R   4   R   6   R   8   S  44   S  55   S  56   R
M  BCL DBI - - - - - - - - - - E - - -
M  END
> <ConfClashScore>
0 

> <ConfOneFourInteractionScore>
-0.972368 

> <ConfScore>
-0.0760272 

> <ConfScorePBest>
0.0129355 

> <ConfTolerance>
0.25 

$$$$
L02.****
  PyMOL2.5          3D                             0

101104  0  0  0  0  0  0  0  0999 V2000
   15.2847   -4.5396   -5.5873 C   0  0  0  1  0  0  0  0  0  0  0  0
   15.3194   -5.6077   -5.5345 H   0  0  0  1  0  0  0  0  0  0  0  0
   14.8239   -4.0185   -4.3726 O   0  0  0  1  0  0  0  0  0  0  0  0
   14.3081   -4.1034   -6.6909 C   0  0  0  1  0  0  0  0  0  0  0  0
   14.8338   -3.7530   -7.5545 H   0  0  0  1  0  0  0  0  0  0  0  0
   13.5434   -3.3414   -4.5562 C   0  0  0  1  0  0  0  0  0  0  0  0
   13.4847   -2.4684   -3.9404 H   0  0  0  1  0  0  0  0  0  0  0  0
   13.5262   -2.9660   -6.0202 C   0  0  0  1  0  0  0  0  0  0  0  0
   12.5237   -2.9204   -6.3915 H   0  0  0  1  0  0  0  0  0  0  0  0
   13.4402   -5.1749   -7.0633 O   0  0  0  1  0  0  0  0  0  0  0  0
   13.5160   -5.8860   -6.4228 H   0  0  0  1  0  0  0  0  0  0  0  0
   18.5270    1.3805    7.2066 C   0  0  0  1  0  0  0  0  0  0  0  0
   17.6252    1.5682    7.7511 H   0  0  0  1  0  0  0  0  0  0  0  0
   19.3013    1.0922    7.8865 H   0  0  0  1  0  0  0  0  0  0  0  0
   18.9474    2.6614    6.5044 C   0  0  0  1  0  0  0  0  0  0  0  0
   19.2696    3.3577    7.2502 H   0  0  0  1  0  0  0  0  0  0  0  0
   18.0935    3.0548    5.9936 H   0  0  0  1  0  0  0  0  0  0  0  0
   18.2898    0.2794    6.2714 N   0  0  0  1  0  0  0  0  0  0  0  0
   19.0121   -0.3707    6.1445 H   0  0  0  1  0  0  0  0  0  0  0  0
   17.1629    0.0940    5.5781 C   0  0  0  1  0  0  0  0  0  0  0  0
   16.1834    0.8310    5.6823 O   0  0  0  1  0  0  0  0  0  0  0  0
   16.7523   -0.7820    3.2125 C   0  0  0  1  0  0  0  0  0  0  0  0
   17.4617   -0.0989    2.7942 H   0  0  0  1  0  0  0  0  0  0  0  0
   15.7822   -0.3306    3.2180 H   0  0  0  1  0  0  0  0  0  0  0  0
   17.1560   -1.0863    4.6459 C   0  0  0  1  0  0  0  0  0  0  0  0
   16.4711   -1.8103    5.0351 H   0  0  0  1  0  0  0  0  0  0  0  0
   18.1426   -1.5002    4.6301 H   0  0  0  1  0  0  0  0  0  0  0  0
   16.7065   -1.9820    2.3752 N   0  0  0  1  0  0  0  0  0  0  0  0
   17.5447   -2.3388    2.0139 H   0  0  0  1  0  0  0  0  0  0  0  0
   14.4621   -2.1601    2.4503 O   0  0  0  1  0  0  0  0  0  0  0  0
   15.5256   -2.6275    2.0775 C   0  0  0  1  0  0  0  0  0  0  0  0
   15.4048   -6.3830    1.1208 C   0  0  0  1  0  0  0  0  0  0  0  0
   15.3183   -7.2922    1.6783 H   0  0  0  1  0  0  0  0  0  0  0  0
   16.3415   -6.3688    0.6038 H   0  0  0  1  0  0  0  0  0  0  0  0
   16.2880   -5.3627    3.2351 C   0  0  0  1  0  0  0  0  0  0  0  0
   17.0474   -6.0644    2.9598 H   0  0  0  1  0  0  0  0  0  0  0  0
   15.7570   -5.7288    4.0889 H   0  0  0  1  0  0  0  0  0  0  0  0
   16.7405   -4.4225    3.4721 H   0  0  0  1  0  0  0  0  0  0  0  0
   15.3121   -5.1798    2.0666 C   0  0  0  1  0  0  0  0  0  0  0  0
   13.9047   -5.0270    2.6550 C   0  0  0  1  0  0  0  0  0  0  0  0
   13.5624   -5.9755    3.0131 H   0  0  0  1  0  0  0  0  0  0  0  0
   13.2385   -4.6704    1.8975 H   0  0  0  1  0  0  0  0  0  0  0  0
   13.9310   -4.3286    3.4652 H   0  0  0  1  0  0  0  0  0  0  0  0
   15.6532   -3.8989    1.2901 C   0  0  0  1  0  0  0  0  0  0  0  0
   16.6809   -3.9836    1.0045 H   0  0  0  1  0  0  0  0  0  0  0  0
   14.8816   -3.7681    0.0983 O   0  0  0  1  0  0  0  0  0  0  0  0
   15.4614   -3.5580   -0.6374 H   0  0  0  1  0  0  0  0  0  0  0  0
   14.3168   -6.2812    0.1723 O   0  0  0  1  0  0  0  0  0  0  0  0
   12.7860   -6.7058   -1.6660 O   0  0  0  1  0  0  0  0  0  0  0  0
   12.9222   -5.5072   -3.7186 O   0  0  0  1  0  0  0  0  0  0  0  0
   15.3166   -6.7810   -2.0249 O   0  0  0  0  0  0  0  0  0  0  0  0
   14.1547   -8.6620   -0.7874 O   0  0  0  1  0  0  0  0  0  0  0  0
   11.9323   -7.8403   -3.7498 O   0  0  0  0  0  0  0  0  0  0  0  0
   10.6557   -5.8925   -2.7331 O   0  0  0  1  0  0  0  0  0  0  0  0
   14.1984   -7.2084   -1.1268 P   0  0  0  1  0  0  0  0  0  0  0  0
   11.9388   -6.5539   -3.0289 P   0  0  0  1  0  0  0  0  0  0  0  0
   12.4229   -4.2466   -4.2356 C   0  0  0  1  0  0  0  0  0  0  0  0
   11.8536   -4.4303   -5.1227 H   0  0  0  1  0  0  0  0  0  0  0  0
   11.7980   -3.7864   -3.4990 H   0  0  0  1  0  0  0  0  0  0  0  0
   14.1808   -1.6895   -6.2357 O   0  0  0  1  0  0  0  0  0  0  0  0
   12.4169   -0.3816   -4.9483 O   0  0  0  1  0  0  0  0  0  0  0  0
   12.6810    0.0064   -7.5410 O   0  5  0  1  0  0  0  0  0  0  0  0
   13.3488   -0.2834   -6.0938 P   0  0  0  1  0  0  0  0  0  0  0  0
   14.4613    0.8449   -5.7569 O   0  5  0  1  0  0  0  0  0  0  0  0
   16.6234   -4.0208   -5.8747 N   0  0  0  1  0  0  0  0  0  0  0  0
   17.6502   -3.8348   -4.9855 C   0  0  0  1  0  0  0  0  0  0  0  0
   17.1396   -3.7298   -7.1002 C   0  0  0  1  0  0  0  0  0  0  0  0
   16.5738   -3.7796   -7.9714 H   0  0  0  1  0  0  0  0  0  0  0  0
   18.7495   -3.4398   -5.7597 C   0  0  0  1  0  0  0  0  0  0  0  0
   17.6269   -4.0051   -3.6629 N   0  0  0  1  0  0  0  0  0  0  0  0
   18.3982   -3.3837   -7.0995 N   0  0  0  1  0  0  0  0  0  0  0  0
   19.9267   -3.2071   -5.0546 C   0  0  0  1  0  0  0  0  0  0  0  0
   18.8095   -3.7417   -3.1207 C   0  0  0  1  0  0  0  0  0  0  0  0
   18.8648   -3.8495   -2.0878 H   0  0  0  1  0  0  0  0  0  0  0  0
   19.9438   -3.3551   -3.7256 N   0  0  0  1  0  0  0  0  0  0  0  0
   21.0963   -2.8262   -5.6578 N   0  0  0  1  0  0  0  0  0  0  0  0
   21.1266   -2.6938   -6.6283 H   0  0  0  1  0  0  0  0  0  0  0  0
   21.9026   -2.6862   -5.1187 H   0  0  0  1  0  0  0  0  0  0  0  0
   20.2832    2.4731    5.2997 S   0  0  0  1  0  0  0  0  0  0  0  0
   18.1316    1.9396    3.8718 O   0  0  0  1  0  0  0  0  0  0  0  0
   19.3347    2.0599    3.8523 C   0  0  0  1  0  0  0  0  0  0  0  0
   20.1375    1.8806    2.6465 C   0  0  0  1  0  0  0  0  0  0  0  0
   21.1416    2.1406    2.7226 H   0  0  0  1  0  0  0  0  0  0  0  0
   19.7387    1.4238    1.4601 C   0  0  0  1  0  0  0  0  0  0  0  0
   18.7312    1.1709    1.4094 H   0  0  0  1  0  0  0  0  0  0  0  0
   20.4932    1.2158    0.1980 C   0  0  0  1  0  0  0  0  0  0  0  0
   21.8753    1.3050    0.2555 C   0  0  0  1  0  0  0  0  0  0  0  0
   22.3425    1.5728    1.1452 H   0  0  0  1  0  0  0  0  0  0  0  0
   19.8727    0.8547   -0.9830 C   0  0  0  1  0  0  0  0  0  0  0  0
   18.8359    0.7839   -1.0250 H   0  0  0  1  0  0  0  0  0  0  0  0
   22.6326    1.0381   -0.8695 C   0  0  0  1  0  0  0  0  0  0  0  0
   23.6693    1.1090   -0.8274 H   0  0  0  1  0  0  0  0  0  0  0  0
   20.6319    0.5870   -2.1114 C   0  0  0  1  0  0  0  0  0  0  0  0
   22.0100    0.6760   -2.0540 C   0  0  0  1  0  0  0  0  0  0  0  0
   22.7744    0.4141   -3.1420 O   0  0  0  1  0  0  0  0  0  0  0  0
   22.8540   -0.5357   -3.2567 H   0  0  0  1  0  0  0  0  0  0  0  0
   20.0589    0.3381   -3.3129 O   0  0  0  1  0  0  0  0  0  0  0  0
   18.6455    0.0839   -3.3257 C   0  0  0  1  0  0  0  0  0  0  0  0
   18.4099   -0.6608   -2.5943 H   0  0  0  1  0  0  0  0  0  0  0  0
   18.3547   -0.2639   -4.2949 H   0  0  0  1  0  0  0  0  0  0  0  0
   18.1188    0.9869   -3.0973 H   0  0  0  1  0  0  0  0  0  0  0  0
  1  2  1  0  0  0  0
  1  3  1  0  0  0  0
  1  4  1  0  0  0  0
  1 65  1  0  0  0  0
  3  6  1  0  0  0  0
  4  5  1  0  0  0  0
  4  8  1  0  0  0  0
  4 10  1  0  0  0  0
  6  7  1  0  0  0  0
  6  8  1  0  0  0  0
  6 57  1  0  0  0  0
  8  9  1  0  0  0  0
  8 60  1  0  0  0  0
 10 11  1  0  0  0  0
 12 13  1  0  0  0  0
 12 14  1  0  0  0  0
 12 15  1  0  0  0  0
 12 18  1  0  0  0  0
 15 16  1  0  0  0  0
 15 17  1  0  0  0  0
 15 79  1  0  0  0  0
 18 19  1  0  0  0  0
 18 20  1  0  0  0  0
 20 21  2  0  0  0  0
 20 25  1  0  0  0  0
 22 23  1  0  0  0  0
 22 24  1  0  0  0  0
 22 25  1  0  0  0  0
 22 28  1  0  0  0  0
 25 26  1  0  0  0  0
 25 27  1  0  0  0  0
 28 29  1  0  0  0  0
 28 31  1  0  0  0  0
 30 31  2  0  0  0  0
 31 44  1  0  0  0  0
 32 33  1  0  0  0  0
 32 34  1  0  0  0  0
 32 39  1  0  0  0  0
 32 48  1  0  0  0  0
 35 36  1  0  0  0  0
 35 37  1  0  0  0  0
 35 38  1  0  0  0  0
 35 39  1  0  0  0  0
 39 40  1  0  0  0  0
 39 44  1  0  0  0  0
 40 41  1  0  0  0  0
 40 42  1  0  0  0  0
 40 43  1  0  0  0  0
 44 45  1  0  0  0  0
 44 46  1  0  0  0  0
 46 47  1  0  0  0  0
 48 55  1  0  0  0  0
 49 55  1  0  0  0  0
 49 56  1  0  0  0  0
 50 56  1  0  0  0  0
 50 57  1  0  0  0  0
 51 55  1  0  0  0  0
 52 55  2  0  0  0  0
 53 56  1  0  0  0  0
 54 56  2  0  0  0  0
 57 58  1  0  0  0  0
 57 59  1  0  0  0  0
 60 63  1  0  0  0  0
 61 63  2  0  0  0  0
 62 63  1  0  0  0  0
 63 64  1  0  0  0  0
 65 66  1  0  0  0  0
 65 67  1  0  0  0  0
 66 69  2  0  0  0  0
 66 70  1  0  0  0  0
 67 68  1  0  0  0  0
 67 71  2  0  0  0  0
 69 71  1  0  0  0  0
 69 72  1  0  0  0  0
 70 73  2  0  0  0  0
 72 75  2  0  0  0  0
 72 76  1  0  0  0  0
 73 74  1  0  0  0  0
 73 75  1  0  0  0  0
 76 77  1  0  0  0  0
 76 78  1  0  0  0  0
 79 81  1  0  0  0  0
 80 81  2  0  0  0  0
 81 82  1  0  0  0  0
 82 83  1  0  0  0  0
 82 84  2  0  0  0  0
 84 85  1  0  0  0  0
 84 86  1  0  0  0  0
 86 87  1  0  0  0  0
 86 89  2  0  0  0  0
 87 88  1  0  0  0  0
 87 91  2  0  0  0  0
 89 90  1  0  0  0  0
 89 93  1  0  0  0  0
 91 92  1  0  0  0  0
 91 94  1  0  0  0  0
 93 94  2  0  0  0  0
 93 97  1  0  0  0  0
 94 95  1  0  0  0  0
 95 96  1  0  0  0  0
 97 98  1  0  0  0  0
 98 99  1  0  0  0  0
 98100  1  0  0  0  0
 98101  1  0  0  0  0
M  BCL ATM C_TeTeTeTe H_S O_Te2Te2TeTe C_TeTeTeTe H_S C_TeTeTeTe H_S C_TeTeTeTe H_S O_Te2Te2TeTe H_S C_TeTeTeTe H_S H_S C_TeTeTeTe H_S H_S N_TrTrTrPi2 H_S C_TrTrTrPi O_Tr2Tr2TrPi C_TeTeTeTe H_S H_S C_TeTeTeTe H_S H_S N_TrTrTrPi2 H_S O_Tr2Tr2TrPi C_TrTrTrPi C_TeTeTeTe H_S H_S C_TeTeTeTe H_S H_S H_S C_TeTeTeTe C_TeTeTeTe H_S H_S H_S C_TeTeTeTe H_S O_Te2Te2TeTe H_S O_Tr2TrTrPi2 O_Tr2TrTrPi2 O_Tr2TrTrPi2 O_Te2Te2TeTe O_Tr2Tr2TrPi O_Te2Te2TeTe O_Tr2Tr2TrPi P_TeTeTeTePi P_TeTeTeTePi C_TeTeTeTe H_S H_S O_Tr2TrTrPi2 O_Tr2Tr2TrPi O_Te2Te2Te2Te P_TeTeTeTePi O_Te2Te2Te2Te N_TrTrTrPi2 C_TrTrTrPi C_TrTrTrPi H_S C_TrTrTrPi N_Tr2TrTrPi N_Tr2TrTrPi C_TrTrTrPi C_TrTrTrPi H_S N_Tr2TrTrPi N_TrTrTrPi2 H_S H_S S_Te2Te2TeTe O_Tr2Tr2TrPi C_TrTrTrPi C_TrTrTrPi H_S C_TrTrTrPi H_S C_TrTrTrPi C_TrTrTrPi H_S C_TrTrTrPi H_S C_TrTrTrPi H_S C_TrTrTrPi C_TrTrTrPi O_Te2Te2TeTe H_S O_Tr2TrTrPi2 C_TeTeTeTe H_S H_S H_S
M  BCL BND NonConjugatedSingleBond NonConjugatedSingleBondInRing NonConjugatedSingleBondInRing NonConjugatedSingleBond NonConjugatedSingleBondInRing NonConjugatedSingleBond NonConjugatedSingleBondInRing NonConjugatedSingleBond NonConjugatedSingleBond NonConjugatedSingleBondInRing NonConjugatedSingleBond NonConjugatedSingleBond NonConjugatedSingleBond NonConjugatedSingleBond NonConjugatedSingleBond NonConjugatedSingleBond NonConjugatedSingleBond NonConjugatedSingleBond NonConjugatedSingleBond NonConjugatedSingleBond NonConjugatedSingleBond NonConjugatedSingleBond AmideSingleBond ConjugatedDoubleBond NonConjugatedSingleBond NonConjugatedSingleBond NonConjugatedSingleBond NonConjugatedSingleBond NonConjugatedSingleBond NonConjugatedSingleBond NonConjugatedSingleBond NonConjugatedSingleBond AmideSingleBond ConjugatedDoubleBond NonConjugatedSingleBond NonConjugatedSingleBond NonConjugatedSingleBond NonConjugatedSingleBond NonConjugatedSingleBond NonConjugatedSingleBond NonConjugatedSingleBond NonConjugatedSingleBond NonConjugatedSingleBond NonConjugatedSingleBond NonConjugatedSingleBond NonConjugatedSingleBond NonConjugatedSingleBond NonConjugatedSingleBond NonConjugatedSingleBond NonConjugatedSingleBond NonConjugatedSingleBond ConjugatedSingleBond ConjugatedSingleBond ConjugatedSingleBond ConjugatedSingleBond NonConjugatedSingleBond ConjugatedSingleBond ConjugatedDoubleBond ConjugatedSingleBond ConjugatedDoubleBond NonConjugatedSingleBond NonConjugatedSingleBond ConjugatedSingleBond ConjugatedDoubleBond ConjugatedSingleBond ConjugatedSingleBond AromaticSingleBond AromaticSingleBond AromaticDoubleBond AromaticSingleBond NonConjugatedSingleBond AromaticDoubleBond AromaticSingleBond AromaticSingleBond AromaticDoubleBond AromaticDoubleBond ConjugatedSingleBond NonConjugatedSingleBond AromaticSingleBond NonConjugatedSingleBond NonConjugatedSingleBond ConjugatedSingleBond ConjugatedDoubleBond ConjugatedSingleBond NonConjugatedSingleBond ConjugatedDoubleBond NonConjugatedSingleBond ConjugatedSingleBond AromaticSingleBond AromaticDoubleBond NonConjugatedSingleBond AromaticDoubleBond NonConjugatedSingleBond AromaticSingleBond NonConjugatedSingleBond AromaticSingleBond AromaticDoubleBond ConjugatedSingleBond ConjugatedSingleBond NonConjugatedSingleBond NonConjugatedSingleBond NonConjugatedSingleBond NonConjugatedSingleBond NonConjugatedSingleBond
M  BCL CHI   1   R   4   R   6   R   8   S  44   S  55   S  56   R
M  BCL DBI - - - - - - - - - - E - - -
M  END
> <ConfClashScore>
0 

> <ConfOneFourInteractionScore>
-0.979744 

> <ConfScore>
-0.0759478 

> <ConfScorePBest>
0.0128325 

> <ConfTolerance>
2.76512 

$$$$
L02.****
  PyMOL2.5          3D                             0

101104  0  0  0  0  0  0  0  0999 V2000
   15.2781   -4.4827   -5.5185 C   0  0  0  1  0  0  0  0  0  0  0  0
   15.3234   -5.4557   -5.0757 H   0  0  0  1  0  0  0  0  0  0  0  0
   14.7126   -3.5754   -4.6149 O   0  0  0  1  0  0  0  0  0  0  0  0
   14.3884   -4.5206   -6.7712 C   0  0  0  1  0  0  0  0  0  0  0  0
   14.9776   -4.4865   -7.6637 H   0  0  0  1  0  0  0  0  0  0  0  0
   13.4418   -3.0673   -5.1237 C   0  0  0  1  0  0  0  0  0  0  0  0
   13.3208   -2.0333   -4.8764 H   0  0  0  1  0  0  0  0  0  0  0  0
   13.5385   -3.2518   -6.6208 C   0  0  0  1  0  0  0  0  0  0  0  0
   12.5690   -3.3877   -7.0527 H   0  0  0  1  0  0  0  0  0  0  0  0
   13.5685   -5.6911   -6.7853 O   0  0  0  1  0  0  0  0  0  0  0  0
   13.4053   -5.9571   -7.6931 H   0  0  0  1  0  0  0  0  0  0  0  0
    3.0373  -12.0767   -6.4509 C   0  0  0  1  0  0  0  0  0  0  0  0
    2.4952  -12.5364   -7.2508 H   0  0  0  1  0  0  0  0  0  0  0  0
    3.6918  -11.3285   -6.8466 H   0  0  0  1  0  0  0  0  0  0  0  0
    3.8746  -13.1385   -5.7566 C   0  0  0  1  0  0  0  0  0  0  0  0
    4.5968  -13.5208   -6.4473 H   0  0  0  1  0  0  0  0  0  0  0  0
    3.2342  -13.9324   -5.4334 H   0  0  0  1  0  0  0  0  0  0  0  0
    2.0827  -11.4339   -5.5460 N   0  0  0  1  0  0  0  0  0  0  0  0
    1.3599  -11.9721   -5.1610 H   0  0  0  1  0  0  0  0  0  0  0  0
    2.1637  -10.1263   -5.2235 C   0  0  0  1  0  0  0  0  0  0  0  0
    3.0065   -9.3950   -5.7416 O   0  0  0  1  0  0  0  0  0  0  0  0
    1.8239   -9.3449   -2.8492 C   0  0  0  1  0  0  0  0  0  0  0  0
    2.1472  -10.2835   -2.4499 H   0  0  0  1  0  0  0  0  0  0  0  0
    1.0887   -8.9152   -2.2013 H   0  0  0  1  0  0  0  0  0  0  0  0
    1.1921   -9.5864   -4.2104 C   0  0  0  1  0  0  0  0  0  0  0  0
    0.3940  -10.2898   -4.0954 H   0  0  0  1  0  0  0  0  0  0  0  0
    0.8012   -8.6591   -4.5738 H   0  0  0  1  0  0  0  0  0  0  0  0
    2.9726   -8.4441   -2.9165 N   0  0  0  1  0  0  0  0  0  0  0  0
    2.8149   -7.4771   -2.9346 H   0  0  0  1  0  0  0  0  0  0  0  0
    4.5586  -10.0810   -3.0278 O   0  0  0  1  0  0  0  0  0  0  0  0
    4.2410   -8.8969   -2.9544 C   0  0  0  1  0  0  0  0  0  0  0  0
    6.6825   -6.1872   -4.1991 C   0  0  0  1  0  0  0  0  0  0  0  0
    6.1405   -5.3429   -3.8273 H   0  0  0  1  0  0  0  0  0  0  0  0
    7.0742   -5.9615   -5.1689 H   0  0  0  1  0  0  0  0  0  0  0  0
    6.3955   -8.5970   -4.9835 C   0  0  0  1  0  0  0  0  0  0  0  0
    6.4669   -8.4189   -6.0361 H   0  0  0  1  0  0  0  0  0  0  0  0
    5.8067   -9.4732   -4.8094 H   0  0  0  1  0  0  0  0  0  0  0  0
    7.3758   -8.7392   -4.5788 H   0  0  0  1  0  0  0  0  0  0  0  0
    5.7323   -7.3927   -4.3044 C   0  0  0  1  0  0  0  0  0  0  0  0
    4.4882   -6.9813   -5.1003 C   0  0  0  1  0  0  0  0  0  0  0  0
    4.7100   -6.1143   -5.6869 H   0  0  0  1  0  0  0  0  0  0  0  0
    3.6897   -6.7591   -4.4236 H   0  0  0  1  0  0  0  0  0  0  0  0
    4.1967   -7.7833   -5.7457 H   0  0  0  1  0  0  0  0  0  0  0  0
    5.2828   -7.7966   -2.8978 C   0  0  0  1  0  0  0  0  0  0  0  0
    6.1402   -8.2027   -2.4030 H   0  0  0  1  0  0  0  0  0  0  0  0
    4.8489   -6.6551   -2.1680 O   0  0  0  1  0  0  0  0  0  0  0  0
    4.4026   -6.0463   -2.7610 H   0  0  0  1  0  0  0  0  0  0  0  0
    7.7692   -6.4818   -3.3069 O   0  0  0  1  0  0  0  0  0  0  0  0
    9.7706   -5.3986   -4.4581 O   0  0  0  1  0  0  0  0  0  0  0  0
   11.0453   -3.2175   -4.8507 O   0  0  0  1  0  0  0  0  0  0  0  0
    8.5877   -4.1601   -2.7073 O   0  0  0  0  0  0  0  0  0  0  0  0
    9.8775   -6.2330   -2.0441 O   0  0  0  1  0  0  0  0  0  0  0  0
   10.4962   -4.6502   -6.7675 O   0  0  0  0  0  0  0  0  0  0  0  0
    8.5897   -3.5128   -5.5429 O   0  0  0  1  0  0  0  0  0  0  0  0
    9.0362   -5.5707   -3.0818 P   0  0  0  1  0  0  0  0  0  0  0  0
    9.9311   -4.1698   -5.4330 P   0  0  0  1  0  0  0  0  0  0  0  0
   12.3287   -3.8293   -4.5819 C   0  0  0  1  0  0  0  0  0  0  0  0
   12.4536   -3.9097   -3.5223 H   0  0  0  1  0  0  0  0  0  0  0  0
   12.3393   -4.8063   -5.0180 H   0  0  0  1  0  0  0  0  0  0  0  0
   14.1841   -2.1255   -7.2362 O   0  0  0  1  0  0  0  0  0  0  0  0
   15.6773   -1.3929   -5.3534 O   0  0  0  1  0  0  0  0  0  0  0  0
   13.5834    0.0888   -5.7980 O   0  5  0  1  0  0  0  0  0  0  0  0
   14.7659   -0.8499   -6.3853 P   0  0  0  1  0  0  0  0  0  0  0  0
   15.6319   -0.0281   -7.4803 O   0  5  0  1  0  0  0  0  0  0  0  0
   16.6297   -4.0466   -5.8812 N   0  0  0  1  0  0  0  0  0  0  0  0
   17.6532   -3.8477   -4.9910 C   0  0  0  1  0  0  0  0  0  0  0  0
   17.1458   -3.7575   -7.1071 C   0  0  0  1  0  0  0  0  0  0  0  0
   16.5822   -3.8163   -7.9791 H   0  0  0  1  0  0  0  0  0  0  0  0
   18.7507   -3.4475   -5.7650 C   0  0  0  1  0  0  0  0  0  0  0  0
   17.6287   -4.0116   -3.6675 N   0  0  0  1  0  0  0  0  0  0  0  0
   18.4015   -3.4009   -7.1057 N   0  0  0  1  0  0  0  0  0  0  0  0
   19.9245   -3.2014   -5.0589 C   0  0  0  1  0  0  0  0  0  0  0  0
   18.8081   -3.7357   -3.1244 C   0  0  0  1  0  0  0  0  0  0  0  0
   18.8622   -3.8379   -2.0909 H   0  0  0  1  0  0  0  0  0  0  0  0
   19.9403   -3.3427   -3.7291 N   0  0  0  1  0  0  0  0  0  0  0  0
   21.0921   -2.8139   -5.6617 N   0  0  0  1  0  0  0  0  0  0  0  0
   21.9185   -2.7570   -5.1381 H   0  0  0  1  0  0  0  0  0  0  0  0
   21.1009   -2.5935   -6.6166 H   0  0  0  1  0  0  0  0  0  0  0  0
    4.7354  -12.4526   -4.3214 S   0  0  0  1  0  0  0  0  0  0  0  0
    6.5845  -12.2100   -6.1747 O   0  0  0  1  0  0  0  0  0  0  0  0
    6.3491  -12.0590   -4.9982 C   0  0  0  1  0  0  0  0  0  0  0  0
    7.3630  -11.5521   -4.0806 C   0  0  0  1  0  0  0  0  0  0  0  0
    7.1679  -11.5761   -3.0594 H   0  0  0  1  0  0  0  0  0  0  0  0
    8.5290  -11.0595   -4.4967 C   0  0  0  1  0  0  0  0  0  0  0  0
    8.6825  -11.0544   -5.5253 H   0  0  0  1  0  0  0  0  0  0  0  0
    9.6358  -10.5170   -3.6685 C   0  0  0  1  0  0  0  0  0  0  0  0
   10.7417  -10.0074   -4.3308 C   0  0  0  1  0  0  0  0  0  0  0  0
   10.8023  -10.0716   -5.3671 H   0  0  0  1  0  0  0  0  0  0  0  0
    9.5528  -10.4268   -2.2918 C   0  0  0  1  0  0  0  0  0  0  0  0
    8.7213  -10.8055   -1.7951 H   0  0  0  1  0  0  0  0  0  0  0  0
   11.7638   -9.4140   -3.6144 C   0  0  0  1  0  0  0  0  0  0  0  0
   12.5954   -9.0353   -4.1111 H   0  0  0  1  0  0  0  0  0  0  0  0
   10.5778   -9.8317   -1.5730 C   0  0  0  1  0  0  0  0  0  0  0  0
   11.6805   -9.3236   -2.2336 C   0  0  0  1  0  0  0  0  0  0  0  0
   12.6543   -8.7464   -1.4885 O   0  0  0  1  0  0  0  0  0  0  0  0
   12.7543   -7.8276   -1.7481 H   0  0  0  1  0  0  0  0  0  0  0  0
   10.6101   -9.6909   -0.2265 O   0  0  0  1  0  0  0  0  0  0  0  0
    9.5597  -10.3197    0.5243 C   0  0  0  1  0  0  0  0  0  0  0  0
    9.5257   -9.9026    1.5091 H   0  0  0  1  0  0  0  0  0  0  0  0
    9.7478  -11.3710    0.5889 H   0  0  0  1  0  0  0  0  0  0  0  0
    8.6230  -10.1538    0.0345 H   0  0  0  1  0  0  0  0  0  0  0  0
  1  2  1  0  0  0  0
  1  3  1  0  0  0  0
  1  4  1  0  0  0  0
  1 65  1  0  0  0  0
  3  6  1  0  0  0  0
  4  5  1  0  0  0  0
  4  8  1  0  0  0  0
  4 10  1  0  0  0  0
  6  7  1  0  0  0  0
  6  8  1  0  0  0  0
  6 57  1  0  0  0  0
  8  9  1  0  0  0  0
  8 60  1  0  0  0  0
 10 11  1  0  0  0  0
 12 13  1  0  0  0  0
 12 14  1  0  0  0  0
 12 15  1  0  0  0  0
 12 18  1  0  0  0  0
 15 16  1  0  0  0  0
 15 17  1  0  0  0  0
 15 79  1  0  0  0  0
 18 19  1  0  0  0  0
 18 20  1  0  0  0  0
 20 21  2  0  0  0  0
 20 25  1  0  0  0  0
 22 23  1  0  0  0  0
 22 24  1  0  0  0  0
 22 25  1  0  0  0  0
 22 28  1  0  0  0  0
 25 26  1  0  0  0  0
 25 27  1  0  0  0  0
 28 29  1  0  0  0  0
 28 31  1  0  0  0  0
 30 31  2  0  0  0  0
 31 44  1  0  0  0  0
 32 33  1  0  0  0  0
 32 34  1  0  0  0  0
 32 39  1  0  0  0  0
 32 48  1  0  0  0  0
 35 36  1  0  0  0  0
 35 37  1  0  0  0  0
 35 38  1  0  0  0  0
 35 39  1  0  0  0  0
 39 40  1  0  0  0  0
 39 44  1  0  0  0  0
 40 41  1  0  0  0  0
 40 42  1  0  0  0  0
 40 43  1  0  0  0  0
 44 45  1  0  0  0  0
 44 46  1  0  0  0  0
 46 47  1  0  0  0  0
 48 55  1  0  0  0  0
 49 55  1  0  0  0  0
 49 56  1  0  0  0  0
 50 56  1  0  0  0  0
 50 57  1  0  0  0  0
 51 55  1  0  0  0  0
 52 55  2  0  0  0  0
 53 56  1  0  0  0  0
 54 56  2  0  0  0  0
 57 58  1  0  0  0  0
 57 59  1  0  0  0  0
 60 63  1  0  0  0  0
 61 63  2  0  0  0  0
 62 63  1  0  0  0  0
 63 64  1  0  0  0  0
 65 66  1  0  0  0  0
 65 67  1  0  0  0  0
 66 69  2  0  0  0  0
 66 70  1  0  0  0  0
 67 68  1  0  0  0  0
 67 71  2  0  0  0  0
 69 71  1  0  0  0  0
 69 72  1  0  0  0  0
 70 73  2  0  0  0  0
 72 75  2  0  0  0  0
 72 76  1  0  0  0  0
 73 74  1  0  0  0  0
 73 75  1  0  0  0  0
 76 77  1  0  0  0  0
 76 78  1  0  0  0  0
 79 81  1  0  0  0  0
 80 81  2  0  0  0  0
 81 82  1  0  0  0  0
 82 83  1  0  0  0  0
 82 84  2  0  0  0  0
 84 85  1  0  0  0  0
 84 86  1  0  0  0  0
 86 87  1  0  0  0  0
 86 89  2  0  0  0  0
 87 88  1  0  0  0  0
 87 91  2  0  0  0  0
 89 90  1  0  0  0  0
 89 93  1  0  0  0  0
 91 92  1  0  0  0  0
 91 94  1  0  0  0  0
 93 94  2  0  0  0  0
 93 97  1  0  0  0  0
 94 95  1  0  0  0  0
 95 96  1  0  0  0  0
 97 98  1  0  0  0  0
 98 99  1  0  0  0  0
 98100  1  0  0  0  0
 98101  1  0  0  0  0
M  BCL ATM C_TeTeTeTe H_S O_Te2Te2TeTe C_TeTeTeTe H_S C_TeTeTeTe H_S C_TeTeTeTe H_S O_Te2Te2TeTe H_S C_TeTeTeTe H_S H_S C_TeTeTeTe H_S H_S N_TrTrTrPi2 H_S C_TrTrTrPi O_Tr2Tr2TrPi C_TeTeTeTe H_S H_S C_TeTeTeTe H_S H_S N_TrTrTrPi2 H_S O_Tr2Tr2TrPi C_TrTrTrPi C_TeTeTeTe H_S H_S C_TeTeTeTe H_S H_S H_S C_TeTeTeTe C_TeTeTeTe H_S H_S H_S C_TeTeTeTe H_S O_Te2Te2TeTe H_S O_Tr2TrTrPi2 O_Tr2TrTrPi2 O_Tr2TrTrPi2 O_Te2Te2TeTe O_Tr2Tr2TrPi O_Te2Te2TeTe O_Tr2Tr2TrPi P_TeTeTeTePi P_TeTeTeTePi C_TeTeTeTe H_S H_S O_Tr2TrTrPi2 O_Tr2Tr2TrPi O_Te2Te2Te2Te P_TeTeTeTePi O_Te2Te2Te2Te N_TrTrTrPi2 C_TrTrTrPi C_TrTrTrPi H_S C_TrTrTrPi N_Tr2TrTrPi N_Tr2TrTrPi C_TrTrTrPi C_TrTrTrPi H_S N_Tr2TrTrPi N_TrTrTrPi2 H_S H_S S_Te2Te2TeTe O_Tr2Tr2TrPi C_TrTrTrPi C_TrTrTrPi H_S C_TrTrTrPi H_S C_TrTrTrPi C_TrTrTrPi H_S C_TrTrTrPi H_S C_TrTrTrPi H_S C_TrTrTrPi C_TrTrTrPi O_Te2Te2TeTe H_S O_Tr2TrTrPi2 C_TeTeTeTe H_S H_S H_S
M  BCL BND NonConjugatedSingleBond NonConjugatedSingleBondInRing NonConjugatedSingleBondInRing NonConjugatedSingleBond NonConjugatedSingleBondInRing NonConjugatedSingleBond NonConjugatedSingleBondInRing NonConjugatedSingleBond NonConjugatedSingleBond NonConjugatedSingleBondInRing NonConjugatedSingleBond NonConjugatedSingleBond NonConjugatedSingleBond NonConjugatedSingleBond NonConjugatedSingleBond NonConjugatedSingleBond NonConjugatedSingleBond NonConjugatedSingleBond NonConjugatedSingleBond NonConjugatedSingleBond NonConjugatedSingleBond NonConjugatedSingleBond AmideSingleBond ConjugatedDoubleBond NonConjugatedSingleBond NonConjugatedSingleBond NonConjugatedSingleBond NonConjugatedSingleBond NonConjugatedSingleBond NonConjugatedSingleBond NonConjugatedSingleBond NonConjugatedSingleBond AmideSingleBond ConjugatedDoubleBond NonConjugatedSingleBond NonConjugatedSingleBond NonConjugatedSingleBond NonConjugatedSingleBond NonConjugatedSingleBond NonConjugatedSingleBond NonConjugatedSingleBond NonConjugatedSingleBond NonConjugatedSingleBond NonConjugatedSingleBond NonConjugatedSingleBond NonConjugatedSingleBond NonConjugatedSingleBond NonConjugatedSingleBond NonConjugatedSingleBond NonConjugatedSingleBond NonConjugatedSingleBond ConjugatedSingleBond ConjugatedSingleBond ConjugatedSingleBond ConjugatedSingleBond NonConjugatedSingleBond ConjugatedSingleBond ConjugatedDoubleBond ConjugatedSingleBond ConjugatedDoubleBond NonConjugatedSingleBond NonConjugatedSingleBond ConjugatedSingleBond ConjugatedDoubleBond ConjugatedSingleBond ConjugatedSingleBond AromaticSingleBond AromaticSingleBond AromaticDoubleBond AromaticSingleBond NonConjugatedSingleBond AromaticDoubleBond AromaticSingleBond AromaticSingleBond AromaticDoubleBond AromaticDoubleBond ConjugatedSingleBond NonConjugatedSingleBond AromaticSingleBond NonConjugatedSingleBond NonConjugatedSingleBond ConjugatedSingleBond ConjugatedDoubleBond ConjugatedSingleBond NonConjugatedSingleBond ConjugatedDoubleBond NonConjugatedSingleBond ConjugatedSingleBond AromaticSingleBond AromaticDoubleBond NonConjugatedSingleBond AromaticDoubleBond NonConjugatedSingleBond AromaticSingleBond NonConjugatedSingleBond AromaticSingleBond AromaticDoubleBond ConjugatedSingleBond ConjugatedSingleBond NonConjugatedSingleBond NonConjugatedSingleBond NonConjugatedSingleBond NonConjugatedSingleBond NonConjugatedSingleBond
M  BCL CHI   1   R   4   R   6   R   8   S  44   S  55   S  56   R
M  BCL DBI - - - - - - - - - - E - - -
M  END
> <ConfClashScore>
0 

> <ConfOneFourInteractionScore>
-0.979353 

> <ConfScore>
-0.0750297 

> <ConfScorePBest>
0.0127295 

> <ConfTolerance>
2.84853 

$$$$
L02.****
  PyMOL2.5          3D                             0

101104  0  0  0  0  0  0  0  0999 V2000
   15.2654   -4.4747   -5.5737 C   0  0  0  1  0  0  0  0  0  0  0  0
   14.9232   -3.9807   -4.6884 H   0  0  0  1  0  0  0  0  0  0  0  0
   14.4192   -4.1682   -6.6459 O   0  0  0  1  0  0  0  0  0  0  0  0
   15.2350   -5.9973   -5.3664 C   0  0  0  1  0  0  0  0  0  0  0  0
   16.2211   -6.3865   -5.2219 H   0  0  0  1  0  0  0  0  0  0  0  0
   13.7342   -5.3675   -7.1195 C   0  0  0  1  0  0  0  0  0  0  0  0
   13.6361   -5.3521   -8.1849 H   0  0  0  1  0  0  0  0  0  0  0  0
   14.6270   -6.5054   -6.6806 C   0  0  0  1  0  0  0  0  0  0  0  0
   14.0583   -7.3972   -6.5191 H   0  0  0  1  0  0  0  0  0  0  0  0
   14.4155   -6.3485   -4.2505 O   0  0  0  1  0  0  0  0  0  0  0  0
   14.9430   -6.3346   -3.4486 H   0  0  0  1  0  0  0  0  0  0  0  0
   19.4728  -11.7663   -5.9012 C   0  0  0  1  0  0  0  0  0  0  0  0
   20.1905  -12.5264   -5.6727 H   0  0  0  1  0  0  0  0  0  0  0  0
   19.0247  -11.9721   -6.8508 H   0  0  0  1  0  0  0  0  0  0  0  0
   20.1662  -10.4277   -5.9575 C   0  0  0  1  0  0  0  0  0  0  0  0
   20.5955  -10.2047   -5.0031 H   0  0  0  1  0  0  0  0  0  0  0  0
   19.4598   -9.6674   -6.2178 H   0  0  0  1  0  0  0  0  0  0  0  0
   18.4346  -11.7564   -4.8691 N   0  0  0  1  0  0  0  0  0  0  0  0
   18.7041  -11.9421   -3.9454 H   0  0  0  1  0  0  0  0  0  0  0  0
   17.1430  -11.5102   -5.1063 C   0  0  0  1  0  0  0  0  0  0  0  0
   16.6845  -11.3720   -6.2395 O   0  0  0  1  0  0  0  0  0  0  0  0
   15.0820  -10.4752   -4.0215 C   0  0  0  1  0  0  0  0  0  0  0  0
   14.4715  -10.8063   -4.8355 H   0  0  0  1  0  0  0  0  0  0  0  0
   15.4453   -9.4896   -4.2255 H   0  0  0  1  0  0  0  0  0  0  0  0
   16.2631  -11.4093   -3.8907 C   0  0  0  1  0  0  0  0  0  0  0  0
   16.8653  -11.0678   -3.0748 H   0  0  0  1  0  0  0  0  0  0  0  0
   15.8879  -12.3873   -3.6727 H   0  0  0  1  0  0  0  0  0  0  0  0
   14.2634  -10.4317   -2.8086 N   0  0  0  1  0  0  0  0  0  0  0  0
   13.5396  -11.0839   -2.7028 H   0  0  0  1  0  0  0  0  0  0  0  0
   15.3626   -8.6791   -1.8412 O   0  0  0  1  0  0  0  0  0  0  0  0
   14.4706   -9.5263   -1.8326 C   0  0  0  1  0  0  0  0  0  0  0  0
   11.6964   -8.2303   -1.7979 C   0  0  0  1  0  0  0  0  0  0  0  0
   11.1500   -9.1294   -1.9930 H   0  0  0  1  0  0  0  0  0  0  0  0
   12.3065   -7.9924   -2.6441 H   0  0  0  1  0  0  0  0  0  0  0  0
   11.6642   -8.6092    0.6646 C   0  0  0  1  0  0  0  0  0  0  0  0
   10.6438   -8.6343    0.3435 H   0  0  0  1  0  0  0  0  0  0  0  0
   11.8026   -7.7984    1.3490 H   0  0  0  1  0  0  0  0  0  0  0  0
   11.9082   -9.5314    1.1493 H   0  0  0  1  0  0  0  0  0  0  0  0
   12.5786   -8.4134   -0.5507 C   0  0  0  1  0  0  0  0  0  0  0  0
   13.4298   -7.1586   -0.3242 C   0  0  0  1  0  0  0  0  0  0  0  0
   13.5831   -7.0156    0.7251 H   0  0  0  1  0  0  0  0  0  0  0  0
   12.9244   -6.3071   -0.7298 H   0  0  0  1  0  0  0  0  0  0  0  0
   14.3758   -7.2773   -0.8097 H   0  0  0  1  0  0  0  0  0  0  0  0
   13.4925   -9.6333   -0.6885 C   0  0  0  1  0  0  0  0  0  0  0  0
   14.0432   -9.7458    0.2220 H   0  0  0  1  0  0  0  0  0  0  0  0
   12.6003  -10.7409   -0.8514 O   0  0  0  1  0  0  0  0  0  0  0  0
   13.0175  -11.5397   -0.5206 H   0  0  0  1  0  0  0  0  0  0  0  0
   10.7785   -7.1439   -1.5313 O   0  0  0  1  0  0  0  0  0  0  0  0
   10.7494   -6.2029   -3.7851 O   0  0  0  1  0  0  0  0  0  0  0  0
   12.4601   -4.9171   -5.1676 O   0  0  0  1  0  0  0  0  0  0  0  0
    8.8836   -7.7967   -3.1059 O   0  0  0  0  0  0  0  0  0  0  0  0
    9.0257   -5.4855   -2.0630 O   0  0  0  1  0  0  0  0  0  0  0  0
   10.1798   -4.0484   -4.9905 O   0  0  0  0  0  0  0  0  0  0  0  0
   11.6214   -4.0633   -2.9116 O   0  0  0  1  0  0  0  0  0  0  0  0
    9.7486   -6.6716   -2.6232 P   0  0  0  1  0  0  0  0  0  0  0  0
   11.2566   -4.7625   -4.1771 P   0  0  0  1  0  0  0  0  0  0  0  0
   12.3823   -5.4853   -6.4961 C   0  0  0  1  0  0  0  0  0  0  0  0
   12.0972   -6.5149   -6.4359 H   0  0  0  1  0  0  0  0  0  0  0  0
   11.6637   -4.9493   -7.0801 H   0  0  0  1  0  0  0  0  0  0  0  0
   15.6615   -6.7622   -7.6653 O   0  0  0  1  0  0  0  0  0  0  0  0
   16.0535   -9.3302   -7.2142 O   0  0  0  1  0  0  0  0  0  0  0  0
   17.4551   -8.2348   -8.9562 O   0  5  0  1  0  0  0  0  0  0  0  0
   16.0041   -8.2609   -8.2363 P   0  0  0  1  0  0  0  0  0  0  0  0
   14.9164   -8.7314   -9.3407 O   0  5  0  1  0  0  0  0  0  0  0  0
   16.6296   -4.0421   -5.8783 N   0  0  0  1  0  0  0  0  0  0  0  0
   17.6538   -3.8478   -4.9878 C   0  0  0  1  0  0  0  0  0  0  0  0
   17.1455   -3.7490   -7.1033 C   0  0  0  1  0  0  0  0  0  0  0  0
   16.5814   -3.8038   -7.9753 H   0  0  0  1  0  0  0  0  0  0  0  0
   18.7514   -3.4460   -5.7609 C   0  0  0  1  0  0  0  0  0  0  0  0
   17.6298   -4.0167   -3.6650 N   0  0  0  1  0  0  0  0  0  0  0  0
   18.4016   -3.3940   -7.1012 N   0  0  0  1  0  0  0  0  0  0  0  0
   19.9259   -3.2041   -5.0544 C   0  0  0  1  0  0  0  0  0  0  0  0
   18.8097   -3.7443   -3.1214 C   0  0  0  1  0  0  0  0  0  0  0  0
   18.8642   -3.8504   -2.0883 H   0  0  0  1  0  0  0  0  0  0  0  0
   19.9421   -3.3504   -3.7252 N   0  0  0  1  0  0  0  0  0  0  0  0
   21.0936   -2.8157   -5.6564 N   0  0  0  1  0  0  0  0  0  0  0  0
   21.1353   -2.7233   -6.6311 H   0  0  0  1  0  0  0  0  0  0  0  0
   21.8873   -2.6304   -5.1122 H   0  0  0  1  0  0  0  0  0  0  0  0
   21.4703  -10.4997   -7.2086 S   0  0  0  1  0  0  0  0  0  0  0  0
   21.4401   -7.9236   -6.6549 O   0  0  0  1  0  0  0  0  0  0  0  0
   21.9526   -8.7772   -7.3551 C   0  0  0  1  0  0  0  0  0  0  0  0
   22.9134   -8.5209   -8.4219 C   0  0  0  1  0  0  0  0  0  0  0  0
   23.3031   -9.3469   -8.9194 H   0  0  0  1  0  0  0  0  0  0  0  0
   23.3347   -7.3191   -8.8138 C   0  0  0  1  0  0  0  0  0  0  0  0
   22.9341   -6.5055   -8.3048 H   0  0  0  1  0  0  0  0  0  0  0  0
   24.3051   -7.0026   -9.8874 C   0  0  0  1  0  0  0  0  0  0  0  0
   24.8281   -8.0275  -10.6603 C   0  0  0  1  0  0  0  0  0  0  0  0
   24.5356   -9.0104  -10.4872 H   0  0  0  1  0  0  0  0  0  0  0  0
   24.6897   -5.6958  -10.1210 C   0  0  0  1  0  0  0  0  0  0  0  0
   24.2942   -4.9263   -9.5438 H   0  0  0  1  0  0  0  0  0  0  0  0
   25.7381   -7.7434  -11.6610 C   0  0  0  1  0  0  0  0  0  0  0  0
   26.1336   -8.5129  -12.2382 H   0  0  0  1  0  0  0  0  0  0  0  0
   25.6024   -5.4106  -11.1246 C   0  0  0  1  0  0  0  0  0  0  0  0
   26.1238   -6.4327  -11.8951 C   0  0  0  1  0  0  0  0  0  0  0  0
   27.0135   -6.1789  -12.8854 O   0  0  0  1  0  0  0  0  0  0  0  0
   27.5267   -5.3987  -12.6629 H   0  0  0  1  0  0  0  0  0  0  0  0
   25.9068   -4.0977  -11.2565 O   0  0  0  1  0  0  0  0  0  0  0  0
   25.7407   -3.2659  -10.0976 C   0  0  0  1  0  0  0  0  0  0  0  0
   26.3658   -3.6256   -9.3072 H   0  0  0  1  0  0  0  0  0  0  0  0
   24.7182   -3.2924   -9.7834 H   0  0  0  1  0  0  0  0  0  0  0  0
   26.0143   -2.2600  -10.3387 H   0  0  0  1  0  0  0  0  0  0  0  0
  1  2  1  0  0  0  0
  1  3  1  0  0  0  0
  1  4  1  0  0  0  0
  1 65  1  0  0  0  0
  3  6  1  0  0  0  0
  4  5  1  0  0  0  0
  4  8  1  0  0  0  0
  4 10  1  0  0  0  0
  6  7  1  0  0  0  0
  6  8  1  0  0  0  0
  6 57  1  0  0  0  0
  8  9  1  0  0  0  0
  8 60  1  0  0  0  0
 10 11  1  0  0  0  0
 12 13  1  0  0  0  0
 12 14  1  0  0  0  0
 12 15  1  0  0  0  0
 12 18  1  0  0  0  0
 15 16  1  0  0  0  0
 15 17  1  0  0  0  0
 15 79  1  0  0  0  0
 18 19  1  0  0  0  0
 18 20  1  0  0  0  0
 20 21  2  0  0  0  0
 20 25  1  0  0  0  0
 22 23  1  0  0  0  0
 22 24  1  0  0  0  0
 22 25  1  0  0  0  0
 22 28  1  0  0  0  0
 25 26  1  0  0  0  0
 25 27  1  0  0  0  0
 28 29  1  0  0  0  0
 28 31  1  0  0  0  0
 30 31  2  0  0  0  0
 31 44  1  0  0  0  0
 32 33  1  0  0  0  0
 32 34  1  0  0  0  0
 32 39  1  0  0  0  0
 32 48  1  0  0  0  0
 35 36  1  0  0  0  0
 35 37  1  0  0  0  0
 35 38  1  0  0  0  0
 35 39  1  0  0  0  0
 39 40  1  0  0  0  0
 39 44  1  0  0  0  0
 40 41  1  0  0  0  0
 40 42  1  0  0  0  0
 40 43  1  0  0  0  0
 44 45  1  0  0  0  0
 44 46  1  0  0  0  0
 46 47  1  0  0  0  0
 48 55  1  0  0  0  0
 49 55  1  0  0  0  0
 49 56  1  0  0  0  0
 50 56  1  0  0  0  0
 50 57  1  0  0  0  0
 51 55  1  0  0  0  0
 52 55  2  0  0  0  0
 53 56  1  0  0  0  0
 54 56  2  0  0  0  0
 57 58  1  0  0  0  0
 57 59  1  0  0  0  0
 60 63  1  0  0  0  0
 61 63  2  0  0  0  0
 62 63  1  0  0  0  0
 63 64  1  0  0  0  0
 65 66  1  0  0  0  0
 65 67  1  0  0  0  0
 66 69  2  0  0  0  0
 66 70  1  0  0  0  0
 67 68  1  0  0  0  0
 67 71  2  0  0  0  0
 69 71  1  0  0  0  0
 69 72  1  0  0  0  0
 70 73  2  0  0  0  0
 72 75  2  0  0  0  0
 72 76  1  0  0  0  0
 73 74  1  0  0  0  0
 73 75  1  0  0  0  0
 76 77  1  0  0  0  0
 76 78  1  0  0  0  0
 79 81  1  0  0  0  0
 80 81  2  0  0  0  0
 81 82  1  0  0  0  0
 82 83  1  0  0  0  0
 82 84  2  0  0  0  0
 84 85  1  0  0  0  0
 84 86  1  0  0  0  0
 86 87  1  0  0  0  0
 86 89  2  0  0  0  0
 87 88  1  0  0  0  0
 87 91  2  0  0  0  0
 89 90  1  0  0  0  0
 89 93  1  0  0  0  0
 91 92  1  0  0  0  0
 91 94  1  0  0  0  0
 93 94  2  0  0  0  0
 93 97  1  0  0  0  0
 94 95  1  0  0  0  0
 95 96  1  0  0  0  0
 97 98  1  0  0  0  0
 98 99  1  0  0  0  0
 98100  1  0  0  0  0
 98101  1  0  0  0  0
M  BCL ATM C_TeTeTeTe H_S O_Te2Te2TeTe C_TeTeTeTe H_S C_TeTeTeTe H_S C_TeTeTeTe H_S O_Te2Te2TeTe H_S C_TeTeTeTe H_S H_S C_TeTeTeTe H_S H_S N_TrTrTrPi2 H_S C_TrTrTrPi O_Tr2Tr2TrPi C_TeTeTeTe H_S H_S C_TeTeTeTe H_S H_S N_TrTrTrPi2 H_S O_Tr2Tr2TrPi C_TrTrTrPi C_TeTeTeTe H_S H_S C_TeTeTeTe H_S H_S H_S C_TeTeTeTe C_TeTeTeTe H_S H_S H_S C_TeTeTeTe H_S O_Te2Te2TeTe H_S O_Tr2TrTrPi2 O_Tr2TrTrPi2 O_Tr2TrTrPi2 O_Te2Te2TeTe O_Tr2Tr2TrPi O_Te2Te2TeTe O_Tr2Tr2TrPi P_TeTeTeTePi P_TeTeTeTePi C_TeTeTeTe H_S H_S O_Tr2TrTrPi2 O_Tr2Tr2TrPi O_Te2Te2Te2Te P_TeTeTeTePi O_Te2Te2Te2Te N_TrTrTrPi2 C_TrTrTrPi C_TrTrTrPi H_S C_TrTrTrPi N_Tr2TrTrPi N_Tr2TrTrPi C_TrTrTrPi C_TrTrTrPi H_S N_Tr2TrTrPi N_TrTrTrPi2 H_S H_S S_Te2Te2TeTe O_Tr2Tr2TrPi C_TrTrTrPi C_TrTrTrPi H_S C_TrTrTrPi H_S C_TrTrTrPi C_TrTrTrPi H_S C_TrTrTrPi H_S C_TrTrTrPi H_S C_TrTrTrPi C_TrTrTrPi O_Te2Te2TeTe H_S O_Tr2TrTrPi2 C_TeTeTeTe H_S H_S H_S
M  BCL BND NonConjugatedSingleBond NonConjugatedSingleBondInRing NonConjugatedSingleBondInRing NonConjugatedSingleBond NonConjugatedSingleBondInRing NonConjugatedSingleBond NonConjugatedSingleBondInRing NonConjugatedSingleBond NonConjugatedSingleBond NonConjugatedSingleBondInRing NonConjugatedSingleBond NonConjugatedSingleBond NonConjugatedSingleBond NonConjugatedSingleBond NonConjugatedSingleBond NonConjugatedSingleBond NonConjugatedSingleBond NonConjugatedSingleBond NonConjugatedSingleBond NonConjugatedSingleBond NonConjugatedSingleBond NonConjugatedSingleBond AmideSingleBond ConjugatedDoubleBond NonConjugatedSingleBond NonConjugatedSingleBond NonConjugatedSingleBond NonConjugatedSingleBond NonConjugatedSingleBond NonConjugatedSingleBond NonConjugatedSingleBond NonConjugatedSingleBond AmideSingleBond ConjugatedDoubleBond NonConjugatedSingleBond NonConjugatedSingleBond NonConjugatedSingleBond NonConjugatedSingleBond NonConjugatedSingleBond NonConjugatedSingleBond NonConjugatedSingleBond NonConjugatedSingleBond NonConjugatedSingleBond NonConjugatedSingleBond NonConjugatedSingleBond NonConjugatedSingleBond NonConjugatedSingleBond NonConjugatedSingleBond NonConjugatedSingleBond NonConjugatedSingleBond NonConjugatedSingleBond ConjugatedSingleBond ConjugatedSingleBond ConjugatedSingleBond ConjugatedSingleBond NonConjugatedSingleBond ConjugatedSingleBond ConjugatedDoubleBond ConjugatedSingleBond ConjugatedDoubleBond NonConjugatedSingleBond NonConjugatedSingleBond ConjugatedSingleBond ConjugatedDoubleBond ConjugatedSingleBond ConjugatedSingleBond AromaticSingleBond AromaticSingleBond AromaticDoubleBond AromaticSingleBond NonConjugatedSingleBond AromaticDoubleBond AromaticSingleBond AromaticSingleBond AromaticDoubleBond AromaticDoubleBond ConjugatedSingleBond NonConjugatedSingleBond AromaticSingleBond NonConjugatedSingleBond NonConjugatedSingleBond ConjugatedSingleBond ConjugatedDoubleBond ConjugatedSingleBond NonConjugatedSingleBond ConjugatedDoubleBond NonConjugatedSingleBond ConjugatedSingleBond AromaticSingleBond AromaticDoubleBond NonConjugatedSingleBond AromaticDoubleBond NonConjugatedSingleBond AromaticSingleBond NonConjugatedSingleBond AromaticSingleBond AromaticDoubleBond ConjugatedSingleBond ConjugatedSingleBond NonConjugatedSingleBond NonConjugatedSingleBond NonConjugatedSingleBond NonConjugatedSingleBond NonConjugatedSingleBond
M  BCL CHI   1   R   4   R   6   R   8   S  44   S  55   S  56   R
M  BCL DBI - - - - - - - - - - E - - -
M  END
> <ConfClashScore>
0 

> <ConfOneFourInteractionScore>
-0.978623 

> <ConfScore>
-0.0716661 

> <ConfScorePBest>
0.0126265 

> <ConfTolerance>
2.79739 

$$$$
L02.****
  PyMOL2.5          3D                             0

101104  0  0  0  0  0  0  0  0999 V2000
   15.2640   -4.4698   -5.5733 C   0  0  0  1  0  0  0  0  0  0  0  0
   15.2948   -5.3123   -4.9144 H   0  0  0  1  0  0  0  0  0  0  0  0
   14.5068   -3.3932   -4.9889 O   0  0  0  1  0  0  0  0  0  0  0  0
   14.5225   -4.8061   -6.8284 C   0  0  0  1  0  0  0  0  0  0  0  0
   14.8459   -4.1850   -7.6374 H   0  0  0  1  0  0  0  0  0  0  0  0
   13.1440   -3.5100   -5.4232 C   0  0  0  1  0  0  0  0  0  0  0  0
   12.7989   -2.5717   -5.8044 H   0  0  0  1  0  0  0  0  0  0  0  0
   13.1127   -4.5420   -6.5000 C   0  0  0  1  0  0  0  0  0  0  0  0
   12.6364   -5.4339   -6.1499 H   0  0  0  1  0  0  0  0  0  0  0  0
   14.7124   -6.1786   -7.1756 O   0  0  0  1  0  0  0  0  0  0  0  0
   14.0121   -6.4587   -7.7694 H   0  0  0  1  0  0  0  0  0  0  0  0
    2.0142   -0.4584   -7.3681 C   0  0  0  1  0  0  0  0  0  0  0  0
    1.1938   -0.3470   -8.0459 H   0  0  0  1  0  0  0  0  0  0  0  0
    2.8245    0.1657   -7.6825 H   0  0  0  1  0  0  0  0  0  0  0  0
    2.4722   -1.8956   -7.3955 C   0  0  0  1  0  0  0  0  0  0  0  0
    1.6187   -2.5270   -7.2617 H   0  0  0  1  0  0  0  0  0  0  0  0
    3.1596   -2.0488   -6.5900 H   0  0  0  1  0  0  0  0  0  0  0  0
    1.5831   -0.0317   -6.0357 N   0  0  0  1  0  0  0  0  0  0  0  0
    0.6294    0.1273   -5.8755 H   0  0  0  1  0  0  0  0  0  0  0  0
    2.4446    0.1483   -5.0305 C   0  0  0  1  0  0  0  0  0  0  0  0
    3.6644    0.0352   -5.1434 O   0  0  0  1  0  0  0  0  0  0  0  0
    2.8934    1.2585   -2.8061 C   0  0  0  1  0  0  0  0  0  0  0  0
    2.4128    1.5325   -1.8902 H   0  0  0  1  0  0  0  0  0  0  0  0
    3.2064    2.1414   -3.3232 H   0  0  0  1  0  0  0  0  0  0  0  0
    1.8927    0.5113   -3.6778 C   0  0  0  1  0  0  0  0  0  0  0  0
    1.6072   -0.3884   -3.1739 H   0  0  0  1  0  0  0  0  0  0  0  0
    1.0319    1.1316   -3.8164 H   0  0  0  1  0  0  0  0  0  0  0  0
    4.0759    0.4541   -2.4930 N   0  0  0  1  0  0  0  0  0  0  0  0
    4.3998   -0.1626   -3.1822 H   0  0  0  1  0  0  0  0  0  0  0  0
    4.5206    1.3304   -0.4645 O   0  0  0  1  0  0  0  0  0  0  0  0
    4.7467    0.4975   -1.3383 C   0  0  0  1  0  0  0  0  0  0  0  0
    8.2710   -1.0499   -1.3170 C   0  0  0  1  0  0  0  0  0  0  0  0
    8.0345   -2.0277   -1.6816 H   0  0  0  1  0  0  0  0  0  0  0  0
    8.3692   -1.0799   -0.2520 H   0  0  0  1  0  0  0  0  0  0  0  0
    7.0959   -0.0314   -3.2417 C   0  0  0  1  0  0  0  0  0  0  0  0
    7.4179   -0.9734   -3.6340 H   0  0  0  1  0  0  0  0  0  0  0  0
    7.7328    0.7450   -3.6111 H   0  0  0  1  0  0  0  0  0  0  0  0
    6.0883    0.1569   -3.5486 H   0  0  0  1  0  0  0  0  0  0  0  0
    7.1656   -0.0639   -1.7118 C   0  0  0  1  0  0  0  0  0  0  0  0
    7.5146    1.3412   -1.1735 C   0  0  0  1  0  0  0  0  0  0  0  0
    8.4783    1.6331   -1.5353 H   0  0  0  1  0  0  0  0  0  0  0  0
    7.5268    1.3201   -0.1038 H   0  0  0  1  0  0  0  0  0  0  0  0
    6.7803    2.0437   -1.5085 H   0  0  0  1  0  0  0  0  0  0  0  0
    5.8231   -0.5573   -1.1612 C   0  0  0  1  0  0  0  0  0  0  0  0
    5.5358   -1.4277   -1.7133 H   0  0  0  1  0  0  0  0  0  0  0  0
    6.0454   -0.9038    0.1952 O   0  0  0  1  0  0  0  0  0  0  0  0
    6.3008   -0.1207    0.6883 H   0  0  0  1  0  0  0  0  0  0  0  0
    9.5058   -0.5872   -1.9129 O   0  0  0  1  0  0  0  0  0  0  0  0
   10.5338   -2.8202   -1.8504 O   0  0  0  1  0  0  0  0  0  0  0  0
   11.0060   -3.2697   -4.3166 O   0  0  0  1  0  0  0  0  0  0  0  0
   11.9455   -0.8468   -2.5003 O   0  0  0  0  0  0  0  0  0  0  0  0
   11.0868   -1.0932   -0.1284 O   0  0  0  1  0  0  0  0  0  0  0  0
    9.8280   -4.9656   -2.9986 O   0  0  0  0  0  0  0  0  0  0  0  0
    8.6524   -2.7715   -3.4501 O   0  0  0  1  0  0  0  0  0  0  0  0
   10.8771   -1.2762   -1.5651 P   0  0  0  1  0  0  0  0  0  0  0  0
    9.9486   -3.4534   -3.1704 P   0  0  0  1  0  0  0  0  0  0  0  0
   12.3010   -3.9225   -4.3131 C   0  0  0  1  0  0  0  0  0  0  0  0
   12.8010   -3.6844   -3.3976 H   0  0  0  1  0  0  0  0  0  0  0  0
   12.1504   -4.9802   -4.3732 H   0  0  0  1  0  0  0  0  0  0  0  0
   12.4057   -4.0402   -7.6637 O   0  0  0  1  0  0  0  0  0  0  0  0
   10.2161   -5.4410   -7.3529 O   0  0  0  1  0  0  0  0  0  0  0  0
   10.3808   -3.7198   -9.2756 O   0  5  0  1  0  0  0  0  0  0  0  0
   10.7709   -4.1300   -7.7577 P   0  0  0  1  0  0  0  0  0  0  0  0
   10.2681   -2.9086   -6.8198 O   0  5  0  1  0  0  0  0  0  0  0  0
   16.6283   -4.0376   -5.8778 N   0  0  0  1  0  0  0  0  0  0  0  0
   17.6538   -3.8478   -4.9878 C   0  0  0  1  0  0  0  0  0  0  0  0
   17.1432   -3.7407   -7.1024 C   0  0  0  1  0  0  0  0  0  0  0  0
   16.5780   -3.7917   -7.9739 H   0  0  0  1  0  0  0  0  0  0  0  0
   18.7510   -3.4445   -5.7607 C   0  0  0  1  0  0  0  0  0  0  0  0
   17.6311   -4.0214   -3.6656 N   0  0  0  1  0  0  0  0  0  0  0  0
   18.3997   -3.3872   -7.1004 N   0  0  0  1  0  0  0  0  0  0  0  0
   19.9265   -3.2065   -5.0547 C   0  0  0  1  0  0  0  0  0  0  0  0
   18.8119   -3.7524   -3.1224 C   0  0  0  1  0  0  0  0  0  0  0  0
   18.8675   -3.8623   -2.0897 H   0  0  0  1  0  0  0  0  0  0  0  0
   19.9441   -3.3576   -3.7260 N   0  0  0  1  0  0  0  0  0  0  0  0
   21.0941   -2.8173   -5.6566 N   0  0  0  1  0  0  0  0  0  0  0  0
   21.1158   -2.6507   -6.6221 H   0  0  0  1  0  0  0  0  0  0  0  0
   21.9075   -2.7054   -5.1216 H   0  0  0  1  0  0  0  0  0  0  0  0
    3.2889   -2.3537   -8.9428 S   0  0  0  1  0  0  0  0  0  0  0  0
    5.2756   -1.0261   -7.7965 O   0  0  0  1  0  0  0  0  0  0  0  0
    4.8994   -1.6584   -8.7363 C   0  0  0  1  0  0  0  0  0  0  0  0
    5.7790   -2.0176   -9.8420 C   0  0  0  1  0  0  0  0  0  0  0  0
    5.3655   -2.5745  -10.6170 H   0  0  0  1  0  0  0  0  0  0  0  0
    7.0674   -1.6937   -9.9448 C   0  0  0  1  0  0  0  0  0  0  0  0
    7.4809   -1.1369   -9.1698 H   0  0  0  1  0  0  0  0  0  0  0  0
    7.9611   -2.0586  -11.0684 C   0  0  0  1  0  0  0  0  0  0  0  0
    9.3042   -1.7205  -11.0113 C   0  0  0  1  0  0  0  0  0  0  0  0
    9.6789   -1.2177  -10.1816 H   0  0  0  1  0  0  0  0  0  0  0  0
    7.4643   -2.7316  -12.1686 C   0  0  0  1  0  0  0  0  0  0  0  0
    6.4574   -2.9888  -12.2097 H   0  0  0  1  0  0  0  0  0  0  0  0
   10.1454   -2.0517  -12.0567 C   0  0  0  1  0  0  0  0  0  0  0  0
   11.1523   -1.7945  -12.0156 H   0  0  0  1  0  0  0  0  0  0  0  0
    8.3078   -3.0638  -13.2172 C   0  0  0  1  0  0  0  0  0  0  0  0
    9.6470   -2.7267  -13.1601 C   0  0  0  1  0  0  0  0  0  0  0  0
   10.4331   -3.0773  -14.2069 O   0  0  0  1  0  0  0  0  0  0  0  0
   11.3368   -2.8026  -14.0351 H   0  0  0  1  0  0  0  0  0  0  0  0
    7.9376   -3.7121  -14.3387 O   0  0  0  1  0  0  0  0  0  0  0  0
    6.5588   -4.1489  -14.3664 C   0  0  0  1  0  0  0  0  0  0  0  0
    6.4306   -4.9700  -13.6924 H   0  0  0  1  0  0  0  0  0  0  0  0
    6.3030   -4.4586  -15.3582 H   0  0  0  1  0  0  0  0  0  0  0  0
    5.9231   -3.3412  -14.0692 H   0  0  0  1  0  0  0  0  0  0  0  0
  1  2  1  0  0  0  0
  1  3  1  0  0  0  0
  1  4  1  0  0  0  0
  1 65  1  0  0  0  0
  3  6  1  0  0  0  0
  4  5  1  0  0  0  0
  4  8  1  0  0  0  0
  4 10  1  0  0  0  0
  6  7  1  0  0  0  0
  6  8  1  0  0  0  0
  6 57  1  0  0  0  0
  8  9  1  0  0  0  0
  8 60  1  0  0  0  0
 10 11  1  0  0  0  0
 12 13  1  0  0  0  0
 12 14  1  0  0  0  0
 12 15  1  0  0  0  0
 12 18  1  0  0  0  0
 15 16  1  0  0  0  0
 15 17  1  0  0  0  0
 15 79  1  0  0  0  0
 18 19  1  0  0  0  0
 18 20  1  0  0  0  0
 20 21  2  0  0  0  0
 20 25  1  0  0  0  0
 22 23  1  0  0  0  0
 22 24  1  0  0  0  0
 22 25  1  0  0  0  0
 22 28  1  0  0  0  0
 25 26  1  0  0  0  0
 25 27  1  0  0  0  0
 28 29  1  0  0  0  0
 28 31  1  0  0  0  0
 30 31  2  0  0  0  0
 31 44  1  0  0  0  0
 32 33  1  0  0  0  0
 32 34  1  0  0  0  0
 32 39  1  0  0  0  0
 32 48  1  0  0  0  0
 35 36  1  0  0  0  0
 35 37  1  0  0  0  0
 35 38  1  0  0  0  0
 35 39  1  0  0  0  0
 39 40  1  0  0  0  0
 39 44  1  0  0  0  0
 40 41  1  0  0  0  0
 40 42  1  0  0  0  0
 40 43  1  0  0  0  0
 44 45  1  0  0  0  0
 44 46  1  0  0  0  0
 46 47  1  0  0  0  0
 48 55  1  0  0  0  0
 49 55  1  0  0  0  0
 49 56  1  0  0  0  0
 50 56  1  0  0  0  0
 50 57  1  0  0  0  0
 51 55  1  0  0  0  0
 52 55  2  0  0  0  0
 53 56  1  0  0  0  0
 54 56  2  0  0  0  0
 57 58  1  0  0  0  0
 57 59  1  0  0  0  0
 60 63  1  0  0  0  0
 61 63  2  0  0  0  0
 62 63  1  0  0  0  0
 63 64  1  0  0  0  0
 65 66  1  0  0  0  0
 65 67  1  0  0  0  0
 66 69  2  0  0  0  0
 66 70  1  0  0  0  0
 67 68  1  0  0  0  0
 67 71  2  0  0  0  0
 69 71  1  0  0  0  0
 69 72  1  0  0  0  0
 70 73  2  0  0  0  0
 72 75  2  0  0  0  0
 72 76  1  0  0  0  0
 73 74  1  0  0  0  0
 73 75  1  0  0  0  0
 76 77  1  0  0  0  0
 76 78  1  0  0  0  0
 79 81  1  0  0  0  0
 80 81  2  0  0  0  0
 81 82  1  0  0  0  0
 82 83  1  0  0  0  0
 82 84  2  0  0  0  0
 84 85  1  0  0  0  0
 84 86  1  0  0  0  0
 86 87  1  0  0  0  0
 86 89  2  0  0  0  0
 87 88  1  0  0  0  0
 87 91  2  0  0  0  0
 89 90  1  0  0  0  0
 89 93  1  0  0  0  0
 91 92  1  0  0  0  0
 91 94  1  0  0  0  0
 93 94  2  0  0  0  0
 93 97  1  0  0  0  0
 94 95  1  0  0  0  0
 95 96  1  0  0  0  0
 97 98  1  0  0  0  0
 98 99  1  0  0  0  0
 98100  1  0  0  0  0
 98101  1  0  0  0  0
M  BCL ATM C_TeTeTeTe H_S O_Te2Te2TeTe C_TeTeTeTe H_S C_TeTeTeTe H_S C_TeTeTeTe H_S O_Te2Te2TeTe H_S C_TeTeTeTe H_S H_S C_TeTeTeTe H_S H_S N_TrTrTrPi2 H_S C_TrTrTrPi O_Tr2Tr2TrPi C_TeTeTeTe H_S H_S C_TeTeTeTe H_S H_S N_TrTrTrPi2 H_S O_Tr2Tr2TrPi C_TrTrTrPi C_TeTeTeTe H_S H_S C_TeTeTeTe H_S H_S H_S C_TeTeTeTe C_TeTeTeTe H_S H_S H_S C_TeTeTeTe H_S O_Te2Te2TeTe H_S O_Tr2TrTrPi2 O_Tr2TrTrPi2 O_Tr2TrTrPi2 O_Te2Te2TeTe O_Tr2Tr2TrPi O_Te2Te2TeTe O_Tr2Tr2TrPi P_TeTeTeTePi P_TeTeTeTePi C_TeTeTeTe H_S H_S O_Tr2TrTrPi2 O_Tr2Tr2TrPi O_Te2Te2Te2Te P_TeTeTeTePi O_Te2Te2Te2Te N_TrTrTrPi2 C_TrTrTrPi C_TrTrTrPi H_S C_TrTrTrPi N_Tr2TrTrPi N_Tr2TrTrPi C_TrTrTrPi C_TrTrTrPi H_S N_Tr2TrTrPi N_TrTrTrPi2 H_S H_S S_Te2Te2TeTe O_Tr2Tr2TrPi C_TrTrTrPi C_TrTrTrPi H_S C_TrTrTrPi H_S C_TrTrTrPi C_TrTrTrPi H_S C_TrTrTrPi H_S C_TrTrTrPi H_S C_TrTrTrPi C_TrTrTrPi O_Te2Te2TeTe H_S O_Tr2TrTrPi2 C_TeTeTeTe H_S H_S H_S
M  BCL BND NonConjugatedSingleBond NonConjugatedSingleBondInRing NonConjugatedSingleBondInRing NonConjugatedSingleBond NonConjugatedSingleBondInRing NonConjugatedSingleBond NonConjugatedSingleBondInRing NonConjugatedSingleBond NonConjugatedSingleBond NonConjugatedSingleBondInRing NonConjugatedSingleBond NonConjugatedSingleBond NonConjugatedSingleBond NonConjugatedSingleBond NonConjugatedSingleBond NonConjugatedSingleBond NonConjugatedSingleBond NonConjugatedSingleBond NonConjugatedSingleBond NonConjugatedSingleBond NonConjugatedSingleBond NonConjugatedSingleBond AmideSingleBond ConjugatedDoubleBond NonConjugatedSingleBond NonConjugatedSingleBond NonConjugatedSingleBond NonConjugatedSingleBond NonConjugatedSingleBond NonConjugatedSingleBond NonConjugatedSingleBond NonConjugatedSingleBond AmideSingleBond ConjugatedDoubleBond NonConjugatedSingleBond NonConjugatedSingleBond NonConjugatedSingleBond NonConjugatedSingleBond NonConjugatedSingleBond NonConjugatedSingleBond NonConjugatedSingleBond NonConjugatedSingleBond NonConjugatedSingleBond NonConjugatedSingleBond NonConjugatedSingleBond NonConjugatedSingleBond NonConjugatedSingleBond NonConjugatedSingleBond NonConjugatedSingleBond NonConjugatedSingleBond NonConjugatedSingleBond ConjugatedSingleBond ConjugatedSingleBond ConjugatedSingleBond ConjugatedSingleBond NonConjugatedSingleBond ConjugatedSingleBond ConjugatedDoubleBond ConjugatedSingleBond ConjugatedDoubleBond NonConjugatedSingleBond NonConjugatedSingleBond ConjugatedSingleBond ConjugatedDoubleBond ConjugatedSingleBond ConjugatedSingleBond AromaticSingleBond AromaticSingleBond AromaticDoubleBond AromaticSingleBond NonConjugatedSingleBond AromaticDoubleBond AromaticSingleBond AromaticSingleBond AromaticDoubleBond AromaticDoubleBond ConjugatedSingleBond NonConjugatedSingleBond AromaticSingleBond NonConjugatedSingleBond NonConjugatedSingleBond ConjugatedSingleBond ConjugatedDoubleBond ConjugatedSingleBond NonConjugatedSingleBond ConjugatedDoubleBond NonConjugatedSingleBond ConjugatedSingleBond AromaticSingleBond AromaticDoubleBond NonConjugatedSingleBond AromaticDoubleBond NonConjugatedSingleBond AromaticSingleBond NonConjugatedSingleBond AromaticSingleBond AromaticDoubleBond ConjugatedSingleBond ConjugatedSingleBond NonConjugatedSingleBond NonConjugatedSingleBond NonConjugatedSingleBond NonConjugatedSingleBond NonConjugatedSingleBond
M  BCL CHI   1   R   4   R   6   R   8   S  44   S  55   S  56   R
M  BCL DBI - - - - - - - - - - E - - -
M  END
> <ConfClashScore>
0 

> <ConfOneFourInteractionScore>
-0.967424 

> <ConfScore>
-0.0698257 

> <ConfScorePBest>
0.0125235 

> <ConfTolerance>
2.64426 

$$$$
L02.****
  PyMOL2.5          3D                             0

101104  0  0  0  0  0  0  0  0999 V2000
   15.2654   -4.4749   -5.5738 C   0  0  0  1  0  0  0  0  0  0  0  0
   14.6072   -3.6320   -5.6086 H   0  0  0  1  0  0  0  0  0  0  0  0
   14.8478   -5.4684   -6.4701 O   0  0  0  1  0  0  0  0  0  0  0  0
   15.2048   -5.1557   -4.1987 C   0  0  0  1  0  0  0  0  0  0  0  0
   16.1034   -5.7009   -3.9984 H   0  0  0  1  0  0  0  0  0  0  0  0
   14.0945   -6.5105   -5.8100 C   0  0  0  1  0  0  0  0  0  0  0  0
   14.5934   -7.4522   -5.9049 H   0  0  0  1  0  0  0  0  0  0  0  0
   14.0269   -6.0836   -4.3406 C   0  0  0  1  0  0  0  0  0  0  0  0
   13.1097   -5.5741   -4.1308 H   0  0  0  1  0  0  0  0  0  0  0  0
   14.9854   -4.2000   -3.1601 O   0  0  0  1  0  0  0  0  0  0  0  0
   14.5149   -4.6174   -2.4348 H   0  0  0  1  0  0  0  0  0  0  0  0
    3.2881  -12.0815   -5.2758 C   0  0  0  1  0  0  0  0  0  0  0  0
    3.0967  -13.0856   -4.9593 H   0  0  0  1  0  0  0  0  0  0  0  0
    3.3564  -11.4439   -4.4193 H   0  0  0  1  0  0  0  0  0  0  0  0
    2.1348  -11.6164   -6.1351 C   0  0  0  1  0  0  0  0  0  0  0  0
    2.3815  -10.6519   -6.5270 H   0  0  0  1  0  0  0  0  0  0  0  0
    1.2682  -11.5379   -5.5123 H   0  0  0  1  0  0  0  0  0  0  0  0
    4.5670  -12.0497   -5.9875 N   0  0  0  1  0  0  0  0  0  0  0  0
    5.1180  -11.2410   -5.9343 H   0  0  0  1  0  0  0  0  0  0  0  0
    5.0093  -13.0850   -6.7071 C   0  0  0  1  0  0  0  0  0  0  0  0
    4.4006  -14.1508   -6.7916 O   0  0  0  1  0  0  0  0  0  0  0  0
    6.1731  -12.0543   -8.6984 C   0  0  0  1  0  0  0  0  0  0  0  0
    5.5052  -11.2399   -8.5097 H   0  0  0  1  0  0  0  0  0  0  0  0
    5.7651  -12.6808   -9.4638 H   0  0  0  1  0  0  0  0  0  0  0  0
    6.3168  -12.8732   -7.4223 C   0  0  0  1  0  0  0  0  0  0  0  0
    6.7253  -13.8293   -7.6754 H   0  0  0  1  0  0  0  0  0  0  0  0
    6.9867  -12.3618   -6.7630 H   0  0  0  1  0  0  0  0  0  0  0  0
    7.4510  -11.5142   -9.1659 N   0  0  0  1  0  0  0  0  0  0  0  0
    7.8843  -11.9285   -9.9412 H   0  0  0  1  0  0  0  0  0  0  0  0
    7.6175   -9.9532   -7.5465 O   0  0  0  1  0  0  0  0  0  0  0  0
    8.0479  -10.4749   -8.5717 C   0  0  0  1  0  0  0  0  0  0  0  0
   10.3495   -8.4242   -7.6141 C   0  0  0  1  0  0  0  0  0  0  0  0
   10.4322   -7.6879   -8.3862 H   0  0  0  1  0  0  0  0  0  0  0  0
   11.1424   -8.2917   -6.9079 H   0  0  0  1  0  0  0  0  0  0  0  0
   10.2433  -10.8766   -7.1443 C   0  0  0  1  0  0  0  0  0  0  0  0
   11.1926  -11.2351   -6.8050 H   0  0  0  1  0  0  0  0  0  0  0  0
    9.6763  -11.6916   -7.5430 H   0  0  0  1  0  0  0  0  0  0  0  0
    9.7131  -10.4402   -6.3237 H   0  0  0  1  0  0  0  0  0  0  0  0
   10.4554   -9.8200   -8.2351 C   0  0  0  1  0  0  0  0  0  0  0  0
   11.7630  -10.0287   -9.0177 C   0  0  0  1  0  0  0  0  0  0  0  0
   11.8415   -9.2882   -9.7861 H   0  0  0  1  0  0  0  0  0  0  0  0
   11.7619  -11.0029   -9.4603 H   0  0  0  1  0  0  0  0  0  0  0  0
   12.5953   -9.9402   -8.3511 H   0  0  0  1  0  0  0  0  0  0  0  0
    9.3139   -9.9635   -9.2477 C   0  0  0  1  0  0  0  0  0  0  0  0
    9.0897   -8.9703   -9.5766 H   0  0  0  1  0  0  0  0  0  0  0  0
    9.7416  -10.6926  -10.3840 O   0  0  0  1  0  0  0  0  0  0  0  0
   10.2161  -10.1082  -10.9798 H   0  0  0  1  0  0  0  0  0  0  0  0
    9.0764   -8.2662   -6.9380 O   0  0  0  1  0  0  0  0  0  0  0  0
    9.6289   -5.9403   -6.0111 O   0  0  0  1  0  0  0  0  0  0  0  0
   12.0699   -5.3305   -6.2063 O   0  0  0  1  0  0  0  0  0  0  0  0
    8.0247   -6.1129   -7.8712 O   0  0  0  0  0  0  0  0  0  0  0  0
    7.3630   -7.0977   -5.6137 O   0  0  0  1  0  0  0  0  0  0  0  0
   10.7331   -5.4385   -8.3225 O   0  0  0  0  0  0  0  0  0  0  0  0
   10.3542   -3.6131   -6.7090 O   0  0  0  1  0  0  0  0  0  0  0  0
    8.4158   -6.8229   -6.6202 P   0  0  0  1  0  0  0  0  0  0  0  0
   10.6356   -5.0246   -6.8885 P   0  0  0  1  0  0  0  0  0  0  0  0
   12.7221   -6.6127   -6.3897 C   0  0  0  1  0  0  0  0  0  0  0  0
   12.1697   -7.3780   -5.8857 H   0  0  0  1  0  0  0  0  0  0  0  0
   12.7834   -6.8445   -7.4325 H   0  0  0  1  0  0  0  0  0  0  0  0
   14.1572   -7.2266   -3.4611 O   0  0  0  1  0  0  0  0  0  0  0  0
   12.1081   -6.5962   -1.9967 O   0  0  0  1  0  0  0  0  0  0  0  0
   14.2674   -6.6814   -0.8270 O   0  5  0  1  0  0  0  0  0  0  0  0
   13.3876   -7.3397   -2.0173 P   0  0  0  1  0  0  0  0  0  0  0  0
   13.2858   -8.9194   -1.6728 O   0  5  0  1  0  0  0  0  0  0  0  0
   16.6296   -4.0422   -5.8783 N   0  0  0  1  0  0  0  0  0  0  0  0
   17.6538   -3.8478   -4.9878 C   0  0  0  1  0  0  0  0  0  0  0  0
   17.1456   -3.7492   -7.1034 C   0  0  0  1  0  0  0  0  0  0  0  0
   16.5815   -3.8041   -7.9753 H   0  0  0  1  0  0  0  0  0  0  0  0
   18.7514   -3.4461   -5.7609 C   0  0  0  1  0  0  0  0  0  0  0  0
   17.6297   -4.0166   -3.6650 N   0  0  0  1  0  0  0  0  0  0  0  0
   18.4017   -3.3942   -7.1013 N   0  0  0  1  0  0  0  0  0  0  0  0
   19.9259   -3.2041   -5.0544 C   0  0  0  1  0  0  0  0  0  0  0  0
   18.8096   -3.7441   -3.1214 C   0  0  0  1  0  0  0  0  0  0  0  0
   18.8641   -3.8501   -2.0883 H   0  0  0  1  0  0  0  0  0  0  0  0
   19.9420   -3.3502   -3.7251 N   0  0  0  1  0  0  0  0  0  0  0  0
   21.0936   -2.8157   -5.6564 N   0  0  0  1  0  0  0  0  0  0  0  0
   21.1358   -2.7252   -6.6313 H   0  0  0  1  0  0  0  0  0  0  0  0
   21.8868   -2.6284   -5.1121 H   0  0  0  1  0  0  0  0  0  0  0  0
    1.7289  -12.6985   -7.5253 S   0  0  0  1  0  0  0  0  0  0  0  0
   -0.2706  -10.9975   -7.7516 O   0  0  0  1  0  0  0  0  0  0  0  0
    0.3087  -11.9811   -8.2309 C   0  0  0  1  0  0  0  0  0  0  0  0
   -0.2972  -12.6816   -9.3568 C   0  0  0  1  0  0  0  0  0  0  0  0
    0.2614  -13.4367   -9.8032 H   0  0  0  1  0  0  0  0  0  0  0  0
   -1.5054  -12.4372   -9.8627 C   0  0  0  1  0  0  0  0  0  0  0  0
   -2.0489  -11.6788   -9.4034 H   0  0  0  1  0  0  0  0  0  0  0  0
   -2.1670  -13.1153  -10.9999 C   0  0  0  1  0  0  0  0  0  0  0  0
   -3.3368  -12.6264  -11.5601 C   0  0  0  1  0  0  0  0  0  0  0  0
   -3.7703  -11.7589  -11.1844 H   0  0  0  1  0  0  0  0  0  0  0  0
   -1.5881  -14.2651  -11.5027 C   0  0  0  1  0  0  0  0  0  0  0  0
   -0.7082  -14.6298  -11.0850 H   0  0  0  1  0  0  0  0  0  0  0  0
   -3.9272  -13.2916  -12.6181 C   0  0  0  1  0  0  0  0  0  0  0  0
   -4.8071  -12.9269  -13.0358 H   0  0  0  1  0  0  0  0  0  0  0  0
   -2.1800  -14.9325  -12.5638 C   0  0  0  1  0  0  0  0  0  0  0  0
   -3.3465  -14.4448  -13.1223 C   0  0  0  1  0  0  0  0  0  0  0  0
   -3.9414  -15.0763  -14.1635 O   0  0  0  1  0  0  0  0  0  0  0  0
   -4.0318  -14.4660  -14.8990 H   0  0  0  1  0  0  0  0  0  0  0  0
   -1.7047  -16.0784  -13.1413 O   0  0  0  1  0  0  0  0  0  0  0  0
   -0.3827  -16.4199  -12.6962 C   0  0  0  1  0  0  0  0  0  0  0  0
    0.1242  -15.5356  -12.3707 H   0  0  0  1  0  0  0  0  0  0  0  0
    0.1609  -16.8660  -13.5027 H   0  0  0  1  0  0  0  0  0  0  0  0
   -0.4482  -17.1127  -11.8833 H   0  0  0  1  0  0  0  0  0  0  0  0
  1  2  1  0  0  0  0
  1  3  1  0  0  0  0
  1  4  1  0  0  0  0
  1 65  1  0  0  0  0
  3  6  1  0  0  0  0
  4  5  1  0  0  0  0
  4  8  1  0  0  0  0
  4 10  1  0  0  0  0
  6  7  1  0  0  0  0
  6  8  1  0  0  0  0
  6 57  1  0  0  0  0
  8  9  1  0  0  0  0
  8 60  1  0  0  0  0
 10 11  1  0  0  0  0
 12 13  1  0  0  0  0
 12 14  1  0  0  0  0
 12 15  1  0  0  0  0
 12 18  1  0  0  0  0
 15 16  1  0  0  0  0
 15 17  1  0  0  0  0
 15 79  1  0  0  0  0
 18 19  1  0  0  0  0
 18 20  1  0  0  0  0
 20 21  2  0  0  0  0
 20 25  1  0  0  0  0
 22 23  1  0  0  0  0
 22 24  1  0  0  0  0
 22 25  1  0  0  0  0
 22 28  1  0  0  0  0
 25 26  1  0  0  0  0
 25 27  1  0  0  0  0
 28 29  1  0  0  0  0
 28 31  1  0  0  0  0
 30 31  2  0  0  0  0
 31 44  1  0  0  0  0
 32 33  1  0  0  0  0
 32 34  1  0  0  0  0
 32 39  1  0  0  0  0
 32 48  1  0  0  0  0
 35 36  1  0  0  0  0
 35 37  1  0  0  0  0
 35 38  1  0  0  0  0
 35 39  1  0  0  0  0
 39 40  1  0  0  0  0
 39 44  1  0  0  0  0
 40 41  1  0  0  0  0
 40 42  1  0  0  0  0
 40 43  1  0  0  0  0
 44 45  1  0  0  0  0
 44 46  1  0  0  0  0
 46 47  1  0  0  0  0
 48 55  1  0  0  0  0
 49 55  1  0  0  0  0
 49 56  1  0  0  0  0
 50 56  1  0  0  0  0
 50 57  1  0  0  0  0
 51 55  1  0  0  0  0
 52 55  2  0  0  0  0
 53 56  1  0  0  0  0
 54 56  2  0  0  0  0
 57 58  1  0  0  0  0
 57 59  1  0  0  0  0
 60 63  1  0  0  0  0
 61 63  2  0  0  0  0
 62 63  1  0  0  0  0
 63 64  1  0  0  0  0
 65 66  1  0  0  0  0
 65 67  1  0  0  0  0
 66 69  2  0  0  0  0
 66 70  1  0  0  0  0
 67 68  1  0  0  0  0
 67 71  2  0  0  0  0
 69 71  1  0  0  0  0
 69 72  1  0  0  0  0
 70 73  2  0  0  0  0
 72 75  2  0  0  0  0
 72 76  1  0  0  0  0
 73 74  1  0  0  0  0
 73 75  1  0  0  0  0
 76 77  1  0  0  0  0
 76 78  1  0  0  0  0
 79 81  1  0  0  0  0
 80 81  2  0  0  0  0
 81 82  1  0  0  0  0
 82 83  1  0  0  0  0
 82 84  2  0  0  0  0
 84 85  1  0  0  0  0
 84 86  1  0  0  0  0
 86 87  1  0  0  0  0
 86 89  2  0  0  0  0
 87 88  1  0  0  0  0
 87 91  2  0  0  0  0
 89 90  1  0  0  0  0
 89 93  1  0  0  0  0
 91 92  1  0  0  0  0
 91 94  1  0  0  0  0
 93 94  2  0  0  0  0
 93 97  1  0  0  0  0
 94 95  1  0  0  0  0
 95 96  1  0  0  0  0
 97 98  1  0  0  0  0
 98 99  1  0  0  0  0
 98100  1  0  0  0  0
 98101  1  0  0  0  0
M  BCL ATM C_TeTeTeTe H_S O_Te2Te2TeTe C_TeTeTeTe H_S C_TeTeTeTe H_S C_TeTeTeTe H_S O_Te2Te2TeTe H_S C_TeTeTeTe H_S H_S C_TeTeTeTe H_S H_S N_TrTrTrPi2 H_S C_TrTrTrPi O_Tr2Tr2TrPi C_TeTeTeTe H_S H_S C_TeTeTeTe H_S H_S N_TrTrTrPi2 H_S O_Tr2Tr2TrPi C_TrTrTrPi C_TeTeTeTe H_S H_S C_TeTeTeTe H_S H_S H_S C_TeTeTeTe C_TeTeTeTe H_S H_S H_S C_TeTeTeTe H_S O_Te2Te2TeTe H_S O_Tr2TrTrPi2 O_Tr2TrTrPi2 O_Tr2TrTrPi2 O_Te2Te2TeTe O_Tr2Tr2TrPi O_Te2Te2TeTe O_Tr2Tr2TrPi P_TeTeTeTePi P_TeTeTeTePi C_TeTeTeTe H_S H_S O_Tr2TrTrPi2 O_Tr2Tr2TrPi O_Te2Te2Te2Te P_TeTeTeTePi O_Te2Te2Te2Te N_TrTrTrPi2 C_TrTrTrPi C_TrTrTrPi H_S C_TrTrTrPi N_Tr2TrTrPi N_Tr2TrTrPi C_TrTrTrPi C_TrTrTrPi H_S N_Tr2TrTrPi N_TrTrTrPi2 H_S H_S S_Te2Te2TeTe O_Tr2Tr2TrPi C_TrTrTrPi C_TrTrTrPi H_S C_TrTrTrPi H_S C_TrTrTrPi C_TrTrTrPi H_S C_TrTrTrPi H_S C_TrTrTrPi H_S C_TrTrTrPi C_TrTrTrPi O_Te2Te2TeTe H_S O_Tr2TrTrPi2 C_TeTeTeTe H_S H_S H_S
M  BCL BND NonConjugatedSingleBond NonConjugatedSingleBondInRing NonConjugatedSingleBondInRing NonConjugatedSingleBond NonConjugatedSingleBondInRing NonConjugatedSingleBond NonConjugatedSingleBondInRing NonConjugatedSingleBond NonConjugatedSingleBond NonConjugatedSingleBondInRing NonConjugatedSingleBond NonConjugatedSingleBond NonConjugatedSingleBond NonConjugatedSingleBond NonConjugatedSingleBond NonConjugatedSingleBond NonConjugatedSingleBond NonConjugatedSingleBond NonConjugatedSingleBond NonConjugatedSingleBond NonConjugatedSingleBond NonConjugatedSingleBond AmideSingleBond ConjugatedDoubleBond NonConjugatedSingleBond NonConjugatedSingleBond NonConjugatedSingleBond NonConjugatedSingleBond NonConjugatedSingleBond NonConjugatedSingleBond NonConjugatedSingleBond NonConjugatedSingleBond AmideSingleBond ConjugatedDoubleBond NonConjugatedSingleBond NonConjugatedSingleBond NonConjugatedSingleBond NonConjugatedSingleBond NonConjugatedSingleBond NonConjugatedSingleBond NonConjugatedSingleBond NonConjugatedSingleBond NonConjugatedSingleBond NonConjugatedSingleBond NonConjugatedSingleBond NonConjugatedSingleBond NonConjugatedSingleBond NonConjugatedSingleBond NonConjugatedSingleBond NonConjugatedSingleBond NonConjugatedSingleBond ConjugatedSingleBond ConjugatedSingleBond ConjugatedSingleBond ConjugatedSingleBond NonConjugatedSingleBond ConjugatedSingleBond ConjugatedDoubleBond ConjugatedSingleBond ConjugatedDoubleBond NonConjugatedSingleBond NonConjugatedSingleBond ConjugatedSingleBond ConjugatedDoubleBond ConjugatedSingleBond ConjugatedSingleBond AromaticSingleBond AromaticSingleBond AromaticDoubleBond AromaticSingleBond NonConjugatedSingleBond AromaticDoubleBond AromaticSingleBond AromaticSingleBond AromaticDoubleBond AromaticDoubleBond ConjugatedSingleBond NonConjugatedSingleBond AromaticSingleBond NonConjugatedSingleBond NonConjugatedSingleBond ConjugatedSingleBond ConjugatedDoubleBond ConjugatedSingleBond NonConjugatedSingleBond ConjugatedDoubleBond NonConjugatedSingleBond ConjugatedSingleBond AromaticSingleBond AromaticDoubleBond NonConjugatedSingleBond AromaticDoubleBond NonConjugatedSingleBond AromaticSingleBond NonConjugatedSingleBond AromaticSingleBond AromaticDoubleBond ConjugatedSingleBond ConjugatedSingleBond NonConjugatedSingleBond NonConjugatedSingleBond NonConjugatedSingleBond NonConjugatedSingleBond NonConjugatedSingleBond
M  BCL CHI   1   R   4   R   6   R   8   S  44   S  55   S  56   R
M  BCL DBI - - - - - - - - - - E - - -
M  END
> <ConfClashScore>
0 

> <ConfOneFourInteractionScore>
-0.971315 

> <ConfScore>
-0.0686292 

> <ConfScorePBest>
0.0124205 

> <ConfTolerance>
2.47576 

$$$$
L02.****
  PyMOL2.5          3D                             0

101104  0  0  0  0  0  0  0  0999 V2000
   15.2518   -4.4714   -5.5492 C   0  0  0  1  0  0  0  0  0  0  0  0
   14.9298   -3.9991   -4.6447 H   0  0  0  1  0  0  0  0  0  0  0  0
   14.3874   -4.1317   -6.5964 O   0  0  0  1  0  0  0  0  0  0  0  0
   15.2158   -5.9987   -5.3815 C   0  0  0  1  0  0  0  0  0  0  0  0
   16.2021   -6.3974   -5.2664 H   0  0  0  1  0  0  0  0  0  0  0  0
   13.6858   -5.3140   -7.0882 C   0  0  0  1  0  0  0  0  0  0  0  0
   13.5675   -5.2697   -8.1507 H   0  0  0  1  0  0  0  0  0  0  0  0
   14.5797   -6.4683   -6.6967 C   0  0  0  1  0  0  0  0  0  0  0  0
   14.0085   -7.3607   -6.5479 H   0  0  0  1  0  0  0  0  0  0  0  0
   14.4147   -6.3751   -4.2585 O   0  0  0  1  0  0  0  0  0  0  0  0
   14.4671   -7.3252   -4.1314 H   0  0  0  1  0  0  0  0  0  0  0  0
    3.7186    4.9193   -0.0581 C   0  0  0  1  0  0  0  0  0  0  0  0
    4.3802    5.5669   -0.5947 H   0  0  0  1  0  0  0  0  0  0  0  0
    2.7182    5.2920   -0.1296 H   0  0  0  1  0  0  0  0  0  0  0  0
    4.1302    4.9064    1.4050 C   0  0  0  1  0  0  0  0  0  0  0  0
    3.6123    4.1042    1.8878 H   0  0  0  1  0  0  0  0  0  0  0  0
    3.8328    5.8372    1.8411 H   0  0  0  1  0  0  0  0  0  0  0  0
    3.7683    3.5889   -0.6671 N   0  0  0  1  0  0  0  0  0  0  0  0
    3.0909    2.9196   -0.4358 H   0  0  0  1  0  0  0  0  0  0  0  0
    4.7448    3.2823   -1.5462 C   0  0  0  1  0  0  0  0  0  0  0  0
    5.5986    4.1099   -1.8618 O   0  0  0  1  0  0  0  0  0  0  0  0
    5.2555    1.8612   -3.5715 C   0  0  0  1  0  0  0  0  0  0  0  0
    6.1769    2.4021   -3.6301 H   0  0  0  1  0  0  0  0  0  0  0  0
    4.5251    2.3310   -4.1966 H   0  0  0  1  0  0  0  0  0  0  0  0
    4.7602    1.8955   -2.1316 C   0  0  0  1  0  0  0  0  0  0  0  0
    3.7651    1.5033   -2.1043 H   0  0  0  1  0  0  0  0  0  0  0  0
    5.4027    1.2815   -1.5357 H   0  0  0  1  0  0  0  0  0  0  0  0
    5.4802    0.4979   -4.0556 N   0  0  0  1  0  0  0  0  0  0  0  0
    4.6985   -0.0102   -4.3577 H   0  0  0  1  0  0  0  0  0  0  0  0
    7.7057    0.4629   -3.7482 O   0  0  0  1  0  0  0  0  0  0  0  0
    6.6823   -0.1115   -4.1172 C   0  0  0  1  0  0  0  0  0  0  0  0
    8.7750   -2.1683   -3.3508 C   0  0  0  1  0  0  0  0  0  0  0  0
    9.1427   -2.7892   -2.5607 H   0  0  0  1  0  0  0  0  0  0  0  0
    8.8790   -1.1398   -3.0746 H   0  0  0  1  0  0  0  0  0  0  0  0
    6.5066   -2.2998   -2.2853 C   0  0  0  1  0  0  0  0  0  0  0  0
    6.6945   -1.3248   -1.8866 H   0  0  0  1  0  0  0  0  0  0  0  0
    6.8162   -3.0401   -1.5775 H   0  0  0  1  0  0  0  0  0  0  0  0
    5.4604   -2.4089   -2.4818 H   0  0  0  1  0  0  0  0  0  0  0  0
    7.2927   -2.4797   -3.5895 C   0  0  0  1  0  0  0  0  0  0  0  0
    7.1494   -3.9180   -4.0773 C   0  0  0  1  0  0  0  0  0  0  0  0
    7.5492   -4.0012   -5.0663 H   0  0  0  1  0  0  0  0  0  0  0  0
    6.1145   -4.1895   -4.0871 H   0  0  0  1  0  0  0  0  0  0  0  0
    7.6841   -4.5720   -3.4205 H   0  0  0  1  0  0  0  0  0  0  0  0
    6.7365   -1.5281   -4.6554 C   0  0  0  1  0  0  0  0  0  0  0  0
    7.4101   -1.5397   -5.4867 H   0  0  0  1  0  0  0  0  0  0  0  0
    5.4542   -1.9247   -5.0870 O   0  0  0  1  0  0  0  0  0  0  0  0
    5.3276   -1.6601   -6.0011 H   0  0  0  1  0  0  0  0  0  0  0  0
    9.5435   -2.4193   -4.5509 O   0  0  0  1  0  0  0  0  0  0  0  0
   11.5104   -3.4811   -3.5181 O   0  0  0  1  0  0  0  0  0  0  0  0
   12.5299   -5.2919   -5.0147 O   0  0  0  1  0  0  0  0  0  0  0  0
   11.6447   -2.8900   -5.8990 O   0  0  0  0  0  0  0  0  0  0  0  0
   11.6380   -1.0073   -4.1379 O   0  0  0  1  0  0  0  0  0  0  0  0
   11.8470   -5.8985   -2.7324 O   0  0  0  0  0  0  0  0  0  0  0  0
   10.0339   -5.2388   -4.3904 O   0  0  0  1  0  0  0  0  0  0  0  0
   11.1618   -2.3304   -4.6025 P   0  0  0  1  0  0  0  0  0  0  0  0
   11.4077   -5.0532   -3.8721 P   0  0  0  1  0  0  0  0  0  0  0  0
   12.3454   -5.4404   -6.4421 C   0  0  0  1  0  0  0  0  0  0  0  0
   11.9263   -6.4011   -6.6574 H   0  0  0  1  0  0  0  0  0  0  0  0
   11.6917   -4.6757   -6.8066 H   0  0  0  1  0  0  0  0  0  0  0  0
   15.5769   -6.7010   -7.6910 O   0  0  0  1  0  0  0  0  0  0  0  0
   14.3360   -8.3660   -9.1956 O   0  0  0  1  0  0  0  0  0  0  0  0
   16.7943   -7.9759   -9.6892 O   0  5  0  1  0  0  0  0  0  0  0  0
   15.3933   -7.3303   -9.1943 P   0  0  0  1  0  0  0  0  0  0  0  0
   14.9599   -6.1039  -10.1599 O   0  5  0  1  0  0  0  0  0  0  0  0
   16.6127   -4.0388   -5.8684 N   0  0  0  1  0  0  0  0  0  0  0  0
   17.6479   -3.8492   -4.9896 C   0  0  0  1  0  0  0  0  0  0  0  0
   17.1141   -3.7411   -7.0984 C   0  0  0  1  0  0  0  0  0  0  0  0
   16.5394   -3.7917   -7.9637 H   0  0  0  1  0  0  0  0  0  0  0  0
   18.7364   -3.4452   -5.7742 C   0  0  0  1  0  0  0  0  0  0  0  0
   17.6396   -4.0236   -3.6673 N   0  0  0  1  0  0  0  0  0  0  0  0
   18.3705   -3.3873   -7.1100 N   0  0  0  1  0  0  0  0  0  0  0  0
   19.9196   -3.2074   -5.0810 C   0  0  0  1  0  0  0  0  0  0  0  0
   18.8263   -3.7546   -3.1369 C   0  0  0  1  0  0  0  0  0  0  0  0
   18.8933   -3.8651   -2.1050 H   0  0  0  1  0  0  0  0  0  0  0  0
   19.9517   -3.3592   -3.7527 N   0  0  0  1  0  0  0  0  0  0  0  0
   21.1211   -2.8125   -5.6462 N   0  0  0  1  0  0  0  0  0  0  0  0
   21.8702   -2.5503   -5.0714 H   0  0  0  1  0  0  0  0  0  0  0  0
   21.2219   -2.7954   -6.6208 H   0  0  0  1  0  0  0  0  0  0  0  0
    5.9047    4.6887    1.7028 S   0  0  0  1  0  0  0  0  0  0  0  0
    5.2581    2.2980    0.8075 O   0  0  0  1  0  0  0  0  0  0  0  0
    6.1631    2.9652    1.2325 C   0  0  0  1  0  0  0  0  0  0  0  0
    7.5359    2.5071    1.4227 C   0  0  0  1  0  0  0  0  0  0  0  0
    8.2344    3.2407    1.6582 H   0  0  0  1  0  0  0  0  0  0  0  0
    8.0016    1.2621    1.3308 C   0  0  0  1  0  0  0  0  0  0  0  0
    7.3177    0.5147    1.0959 H   0  0  0  1  0  0  0  0  0  0  0  0
    9.4090    0.8518    1.5345 C   0  0  0  1  0  0  0  0  0  0  0  0
   10.4372    1.7793    1.5989 C   0  0  0  1  0  0  0  0  0  0  0  0
   10.2285    2.7940    1.5072 H   0  0  0  1  0  0  0  0  0  0  0  0
    9.6857   -0.4963    1.6617 C   0  0  0  1  0  0  0  0  0  0  0  0
    8.9138   -1.1919    1.6174 H   0  0  0  1  0  0  0  0  0  0  0  0
   11.7396    1.3557    1.7849 C   0  0  0  1  0  0  0  0  0  0  0  0
   12.5114    2.0513    1.8292 H   0  0  0  1  0  0  0  0  0  0  0  0
   10.9918   -0.9214    1.8483 C   0  0  0  1  0  0  0  0  0  0  0  0
   12.0169    0.0035    1.9124 C   0  0  0  1  0  0  0  0  0  0  0  0
   13.2764   -0.4598    2.1013 O   0  0  0  1  0  0  0  0  0  0  0  0
   13.7384   -0.4843    1.2601 H   0  0  0  1  0  0  0  0  0  0  0  0
   11.3818   -2.2042    1.9795 O   0  0  0  1  0  0  0  0  0  0  0  0
   11.5822   -2.9135    0.7348 C   0  0  0  1  0  0  0  0  0  0  0  0
   10.7892   -2.6762    0.0568 H   0  0  0  1  0  0  0  0  0  0  0  0
   11.5880   -3.9670    0.9218 H   0  0  0  1  0  0  0  0  0  0  0  0
   12.5178   -2.6220    0.3051 H   0  0  0  1  0  0  0  0  0  0  0  0
  1  2  1  0  0  0  0
  1  3  1  0  0  0  0
  1  4  1  0  0  0  0
  1 65  1  0  0  0  0
  3  6  1  0  0  0  0
  4  5  1  0  0  0  0
  4  8  1  0  0  0  0
  4 10  1  0  0  0  0
  6  7  1  0  0  0  0
  6  8  1  0  0  0  0
  6 57  1  0  0  0  0
  8  9  1  0  0  0  0
  8 60  1  0  0  0  0
 10 11  1  0  0  0  0
 12 13  1  0  0  0  0
 12 14  1  0  0  0  0
 12 15  1  0  0  0  0
 12 18  1  0  0  0  0
 15 16  1  0  0  0  0
 15 17  1  0  0  0  0
 15 79  1  0  0  0  0
 18 19  1  0  0  0  0
 18 20  1  0  0  0  0
 20 21  2  0  0  0  0
 20 25  1  0  0  0  0
 22 23  1  0  0  0  0
 22 24  1  0  0  0  0
 22 25  1  0  0  0  0
 22 28  1  0  0  0  0
 25 26  1  0  0  0  0
 25 27  1  0  0  0  0
 28 29  1  0  0  0  0
 28 31  1  0  0  0  0
 30 31  2  0  0  0  0
 31 44  1  0  0  0  0
 32 33  1  0  0  0  0
 32 34  1  0  0  0  0
 32 39  1  0  0  0  0
 32 48  1  0  0  0  0
 35 36  1  0  0  0  0
 35 37  1  0  0  0  0
 35 38  1  0  0  0  0
 35 39  1  0  0  0  0
 39 40  1  0  0  0  0
 39 44  1  0  0  0  0
 40 41  1  0  0  0  0
 40 42  1  0  0  0  0
 40 43  1  0  0  0  0
 44 45  1  0  0  0  0
 44 46  1  0  0  0  0
 46 47  1  0  0  0  0
 48 55  1  0  0  0  0
 49 55  1  0  0  0  0
 49 56  1  0  0  0  0
 50 56  1  0  0  0  0
 50 57  1  0  0  0  0
 51 55  1  0  0  0  0
 52 55  2  0  0  0  0
 53 56  1  0  0  0  0
 54 56  2  0  0  0  0
 57 58  1  0  0  0  0
 57 59  1  0  0  0  0
 60 63  1  0  0  0  0
 61 63  2  0  0  0  0
 62 63  1  0  0  0  0
 63 64  1  0  0  0  0
 65 66  1  0  0  0  0
 65 67  1  0  0  0  0
 66 69  2  0  0  0  0
 66 70  1  0  0  0  0
 67 68  1  0  0  0  0
 67 71  2  0  0  0  0
 69 71  1  0  0  0  0
 69 72  1  0  0  0  0
 70 73  2  0  0  0  0
 72 75  2  0  0  0  0
 72 76  1  0  0  0  0
 73 74  1  0  0  0  0
 73 75  1  0  0  0  0
 76 77  1  0  0  0  0
 76 78  1  0  0  0  0
 79 81  1  0  0  0  0
 80 81  2  0  0  0  0
 81 82  1  0  0  0  0
 82 83  1  0  0  0  0
 82 84  2  0  0  0  0
 84 85  1  0  0  0  0
 84 86  1  0  0  0  0
 86 87  1  0  0  0  0
 86 89  2  0  0  0  0
 87 88  1  0  0  0  0
 87 91  2  0  0  0  0
 89 90  1  0  0  0  0
 89 93  1  0  0  0  0
 91 92  1  0  0  0  0
 91 94  1  0  0  0  0
 93 94  2  0  0  0  0
 93 97  1  0  0  0  0
 94 95  1  0  0  0  0
 95 96  1  0  0  0  0
 97 98  1  0  0  0  0
 98 99  1  0  0  0  0
 98100  1  0  0  0  0
 98101  1  0  0  0  0
M  BCL ATM C_TeTeTeTe H_S O_Te2Te2TeTe C_TeTeTeTe H_S C_TeTeTeTe H_S C_TeTeTeTe H_S O_Te2Te2TeTe H_S C_TeTeTeTe H_S H_S C_TeTeTeTe H_S H_S N_TrTrTrPi2 H_S C_TrTrTrPi O_Tr2Tr2TrPi C_TeTeTeTe H_S H_S C_TeTeTeTe H_S H_S N_TrTrTrPi2 H_S O_Tr2Tr2TrPi C_TrTrTrPi C_TeTeTeTe H_S H_S C_TeTeTeTe H_S H_S H_S C_TeTeTeTe C_TeTeTeTe H_S H_S H_S C_TeTeTeTe H_S O_Te2Te2TeTe H_S O_Tr2TrTrPi2 O_Tr2TrTrPi2 O_Tr2TrTrPi2 O_Te2Te2TeTe O_Tr2Tr2TrPi O_Te2Te2TeTe O_Tr2Tr2TrPi P_TeTeTeTePi P_TeTeTeTePi C_TeTeTeTe H_S H_S O_Tr2TrTrPi2 O_Tr2Tr2TrPi O_Te2Te2Te2Te P_TeTeTeTePi O_Te2Te2Te2Te N_TrTrTrPi2 C_TrTrTrPi C_TrTrTrPi H_S C_TrTrTrPi N_Tr2TrTrPi N_Tr2TrTrPi C_TrTrTrPi C_TrTrTrPi H_S N_Tr2TrTrPi N_TrTrTrPi2 H_S H_S S_Te2Te2TeTe O_Tr2Tr2TrPi C_TrTrTrPi C_TrTrTrPi H_S C_TrTrTrPi H_S C_TrTrTrPi C_TrTrTrPi H_S C_TrTrTrPi H_S C_TrTrTrPi H_S C_TrTrTrPi C_TrTrTrPi O_Te2Te2TeTe H_S O_Tr2TrTrPi2 C_TeTeTeTe H_S H_S H_S
M  BCL BND NonConjugatedSingleBond NonConjugatedSingleBondInRing NonConjugatedSingleBondInRing NonConjugatedSingleBond NonConjugatedSingleBondInRing NonConjugatedSingleBond NonConjugatedSingleBondInRing NonConjugatedSingleBond NonConjugatedSingleBond NonConjugatedSingleBondInRing NonConjugatedSingleBond NonConjugatedSingleBond NonConjugatedSingleBond NonConjugatedSingleBond NonConjugatedSingleBond NonConjugatedSingleBond NonConjugatedSingleBond NonConjugatedSingleBond NonConjugatedSingleBond NonConjugatedSingleBond NonConjugatedSingleBond NonConjugatedSingleBond AmideSingleBond ConjugatedDoubleBond NonConjugatedSingleBond NonConjugatedSingleBond NonConjugatedSingleBond NonConjugatedSingleBond NonConjugatedSingleBond NonConjugatedSingleBond NonConjugatedSingleBond NonConjugatedSingleBond AmideSingleBond ConjugatedDoubleBond NonConjugatedSingleBond NonConjugatedSingleBond NonConjugatedSingleBond NonConjugatedSingleBond NonConjugatedSingleBond NonConjugatedSingleBond NonConjugatedSingleBond NonConjugatedSingleBond NonConjugatedSingleBond NonConjugatedSingleBond NonConjugatedSingleBond NonConjugatedSingleBond NonConjugatedSingleBond NonConjugatedSingleBond NonConjugatedSingleBond NonConjugatedSingleBond NonConjugatedSingleBond ConjugatedSingleBond ConjugatedSingleBond ConjugatedSingleBond ConjugatedSingleBond NonConjugatedSingleBond ConjugatedSingleBond ConjugatedDoubleBond ConjugatedSingleBond ConjugatedDoubleBond NonConjugatedSingleBond NonConjugatedSingleBond ConjugatedSingleBond ConjugatedDoubleBond ConjugatedSingleBond ConjugatedSingleBond AromaticSingleBond AromaticSingleBond AromaticDoubleBond AromaticSingleBond NonConjugatedSingleBond AromaticDoubleBond AromaticSingleBond AromaticSingleBond AromaticDoubleBond AromaticDoubleBond ConjugatedSingleBond NonConjugatedSingleBond AromaticSingleBond NonConjugatedSingleBond NonConjugatedSingleBond ConjugatedSingleBond ConjugatedDoubleBond ConjugatedSingleBond NonConjugatedSingleBond ConjugatedDoubleBond NonConjugatedSingleBond ConjugatedSingleBond AromaticSingleBond AromaticDoubleBond NonConjugatedSingleBond AromaticDoubleBond NonConjugatedSingleBond AromaticSingleBond NonConjugatedSingleBond AromaticSingleBond AromaticDoubleBond ConjugatedSingleBond ConjugatedSingleBond NonConjugatedSingleBond NonConjugatedSingleBond NonConjugatedSingleBond NonConjugatedSingleBond NonConjugatedSingleBond
M  BCL CHI   1   R   4   R   6   R   8   S  44   S  55   S  56   R
M  BCL DBI - - - - - - - - - - E - - -
M  END
> <ConfClashScore>
0 

> <ConfOneFourInteractionScore>
-0.985981 

> <ConfScore>
-0.0647418 

> <ConfScorePBest>
0.0123175 

> <ConfTolerance>
2.90021 

$$$$
L02.****
  PyMOL2.5          3D                             0

101104  0  0  0  0  0  0  0  0999 V2000
   15.2862   -4.5322   -5.5425 C   0  0  0  1  0  0  0  0  0  0  0  0
   15.0240   -4.2464   -4.5453 H   0  0  0  1  0  0  0  0  0  0  0  0
   14.3379   -4.0350   -6.4441 O   0  0  0  1  0  0  0  0  0  0  0  0
   15.2946   -6.0645   -5.6609 C   0  0  0  1  0  0  0  0  0  0  0  0
   16.2948   -6.4434   -5.6921 H   0  0  0  1  0  0  0  0  0  0  0  0
   13.6257   -5.1296   -7.0972 C   0  0  0  1  0  0  0  0  0  0  0  0
   13.4262   -4.8940   -8.1217 H   0  0  0  1  0  0  0  0  0  0  0  0
   14.5704   -6.3048   -6.9923 C   0  0  0  1  0  0  0  0  0  0  0  0
   14.0308   -7.2285   -6.9727 H   0  0  0  1  0  0  0  0  0  0  0  0
   14.5895   -6.6687   -4.5749 O   0  0  0  1  0  0  0  0  0  0  0  0
   15.1158   -7.3834   -4.2092 H   0  0  0  1  0  0  0  0  0  0  0  0
    7.2577  -11.2903  -13.5719 C   0  0  0  1  0  0  0  0  0  0  0  0
    6.7906  -11.4289  -14.5246 H   0  0  0  1  0  0  0  0  0  0  0  0
    8.3084  -11.1406  -13.7076 H   0  0  0  1  0  0  0  0  0  0  0  0
    7.0352  -12.5188  -12.7250 C   0  0  0  1  0  0  0  0  0  0  0  0
    7.3253  -13.3792  -13.2911 H   0  0  0  1  0  0  0  0  0  0  0  0
    5.9942  -12.5830  -12.4859 H   0  0  0  1  0  0  0  0  0  0  0  0
    6.6824  -10.1133  -12.9185 N   0  0  0  1  0  0  0  0  0  0  0  0
    5.7083  -10.0485  -12.8331 H   0  0  0  1  0  0  0  0  0  0  0  0
    7.4467   -9.1146  -12.4300 C   0  0  0  1  0  0  0  0  0  0  0  0
    8.6521   -9.0608  -12.6704 O   0  0  0  1  0  0  0  0  0  0  0  0
    6.6069   -8.5572  -10.1452 C   0  0  0  1  0  0  0  0  0  0  0  0
    7.5621   -8.8586   -9.7687 H   0  0  0  1  0  0  0  0  0  0  0  0
    5.9437   -9.3968  -10.1499 H   0  0  0  1  0  0  0  0  0  0  0  0
    6.7800   -8.0629  -11.5782 C   0  0  0  1  0  0  0  0  0  0  0  0
    5.8187   -7.8359  -11.9896 H   0  0  0  1  0  0  0  0  0  0  0  0
    7.3843   -7.1798  -11.5742 H   0  0  0  1  0  0  0  0  0  0  0  0
    6.0566   -7.5296   -9.2594 N   0  0  0  1  0  0  0  0  0  0  0  0
    5.0874   -7.4963   -9.1185 H   0  0  0  1  0  0  0  0  0  0  0  0
    8.0640   -6.6850   -8.7063 O   0  0  0  1  0  0  0  0  0  0  0  0
    6.8374   -6.6269   -8.6304 C   0  0  0  1  0  0  0  0  0  0  0  0
    6.7612   -6.8112   -5.7344 C   0  0  0  1  0  0  0  0  0  0  0  0
    7.0306   -7.6869   -6.2871 H   0  0  0  1  0  0  0  0  0  0  0  0
    6.3967   -7.0959   -4.7695 H   0  0  0  1  0  0  0  0  0  0  0  0
    5.1017   -4.9468   -5.6093 C   0  0  0  1  0  0  0  0  0  0  0  0
    4.5953   -4.2318   -6.2234 H   0  0  0  1  0  0  0  0  0  0  0  0
    5.9156   -4.4699   -5.1043 H   0  0  0  1  0  0  0  0  0  0  0  0
    4.4185   -5.3452   -4.8887 H   0  0  0  1  0  0  0  0  0  0  0  0
    5.6404   -6.0839   -6.4857 C   0  0  0  1  0  0  0  0  0  0  0  0
    4.5014   -7.0768   -6.7450 C   0  0  0  1  0  0  0  0  0  0  0  0
    3.9065   -6.7319   -7.5647 H   0  0  0  1  0  0  0  0  0  0  0  0
    3.8909   -7.1554   -5.8698 H   0  0  0  1  0  0  0  0  0  0  0  0
    4.9119   -8.0363   -6.9814 H   0  0  0  1  0  0  0  0  0  0  0  0
    6.1604   -5.5381   -7.8268 C   0  0  0  1  0  0  0  0  0  0  0  0
    5.3034   -5.2234   -8.3849 H   0  0  0  1  0  0  0  0  0  0  0  0
    6.9900   -4.4075   -7.6132 O   0  0  0  1  0  0  0  0  0  0  0  0
    6.5130   -3.7528   -7.0980 H   0  0  0  1  0  0  0  0  0  0  0  0
    7.9424   -5.9940   -5.5592 O   0  0  0  1  0  0  0  0  0  0  0  0
    9.8418   -7.6341   -5.8379 O   0  0  0  1  0  0  0  0  0  0  0  0
   11.7835   -6.6271   -6.9725 O   0  0  0  1  0  0  0  0  0  0  0  0
   10.1312   -5.3813   -4.7174 O   0  0  0  0  0  0  0  0  0  0  0  0
    8.8664   -7.3314   -3.6146 O   0  0  0  1  0  0  0  0  0  0  0  0
   12.1250   -7.7712   -4.7727 O   0  0  0  0  0  0  0  0  0  0  0  0
   11.5207   -9.1079   -6.8303 O   0  0  0  1  0  0  0  0  0  0  0  0
    9.2083   -6.5556   -4.8120 P   0  0  0  1  0  0  0  0  0  0  0  0
   11.3913   -7.8784   -6.0473 P   0  0  0  1  0  0  0  0  0  0  0  0
   12.3411   -5.4192   -6.3930 C   0  0  0  1  0  0  0  0  0  0  0  0
   11.6609   -4.6039   -6.5256 H   0  0  0  1  0  0  0  0  0  0  0  0
   12.5230   -5.5664   -5.3489 H   0  0  0  1  0  0  0  0  0  0  0  0
   15.5048   -6.3156   -8.0933 O   0  0  0  1  0  0  0  0  0  0  0  0
   16.8155   -8.0353   -6.7915 O   0  0  0  1  0  0  0  0  0  0  0  0
   18.0991   -6.3858   -8.2649 O   0  5  0  1  0  0  0  0  0  0  0  0
   16.7937   -7.3296   -8.0922 P   0  0  0  1  0  0  0  0  0  0  0  0
   16.7887   -8.3232   -9.3717 O   0  5  0  1  0  0  0  0  0  0  0  0
   16.6136   -3.9999   -5.8717 N   0  0  0  1  0  0  0  0  0  0  0  0
   17.6452   -3.8290   -4.9849 C   0  0  0  1  0  0  0  0  0  0  0  0
   17.1350   -3.7311   -7.1000 C   0  0  0  1  0  0  0  0  0  0  0  0
   16.5675   -3.7759   -7.9704 H   0  0  0  1  0  0  0  0  0  0  0  0
   18.7522   -3.4652   -5.7633 C   0  0  0  1  0  0  0  0  0  0  0  0
   17.6193   -3.9873   -3.6608 N   0  0  0  1  0  0  0  0  0  0  0  0
   18.4009   -3.4129   -7.1033 N   0  0  0  1  0  0  0  0  0  0  0  0
   19.9349   -3.2524   -5.0612 C   0  0  0  1  0  0  0  0  0  0  0  0
   18.8080   -3.7454   -3.1218 C   0  0  0  1  0  0  0  0  0  0  0  0
   18.8618   -3.8454   -2.0881 H   0  0  0  1  0  0  0  0  0  0  0  0
   19.9500   -3.3892   -3.7309 N   0  0  0  1  0  0  0  0  0  0  0  0
   21.1057   -2.8123   -5.6691 N   0  0  0  1  0  0  0  0  0  0  0  0
   21.8918   -2.6015   -5.1232 H   0  0  0  1  0  0  0  0  0  0  0  0
   21.1446   -2.7130   -6.6432 H   0  0  0  1  0  0  0  0  0  0  0  0
    7.9790  -12.5011  -11.1823 S   0  0  0  1  0  0  0  0  0  0  0  0
    9.7020  -13.7968  -12.6873 O   0  0  0  1  0  0  0  0  0  0  0  0
    9.4655  -13.4313  -11.5591 C   0  0  0  1  0  0  0  0  0  0  0  0
   10.3751  -13.7294  -10.4588 C   0  0  0  1  0  0  0  0  0  0  0  0
   10.2148  -13.2683   -9.5405 H   0  0  0  1  0  0  0  0  0  0  0  0
   11.4032  -14.5681  -10.5815 C   0  0  0  1  0  0  0  0  0  0  0  0
   11.5266  -15.0067  -11.5164 H   0  0  0  1  0  0  0  0  0  0  0  0
   12.3913  -14.9510   -9.5465 C   0  0  0  1  0  0  0  0  0  0  0  0
   13.2681  -15.9963   -9.7917 C   0  0  0  1  0  0  0  0  0  0  0  0
   13.2320  -16.5032  -10.6991 H   0  0  0  1  0  0  0  0  0  0  0  0
   12.4429  -14.2740   -8.3427 C   0  0  0  1  0  0  0  0  0  0  0  0
   11.7878  -13.4872   -8.1602 H   0  0  0  1  0  0  0  0  0  0  0  0
   14.1903  -16.3649   -8.8306 C   0  0  0  1  0  0  0  0  0  0  0  0
   14.8455  -17.1517   -9.0131 H   0  0  0  1  0  0  0  0  0  0  0  0
   13.3678  -14.6435   -7.3785 C   0  0  0  1  0  0  0  0  0  0  0  0
   14.2420  -15.6857   -7.6232 C   0  0  0  1  0  0  0  0  0  0  0  0
   15.1316  -16.0069   -6.6525 O   0  0  0  1  0  0  0  0  0  0  0  0
   15.9928  -16.1639   -7.0464 H   0  0  0  1  0  0  0  0  0  0  0  0
   13.5145  -14.0345   -6.1118 O   0  0  0  1  0  0  0  0  0  0  0  0
   12.4714  -13.1432   -5.6875 C   0  0  0  1  0  0  0  0  0  0  0  0
   11.5530  -13.4156   -6.1640 H   0  0  0  1  0  0  0  0  0  0  0  0
   12.7286  -12.1399   -5.9565 H   0  0  0  1  0  0  0  0  0  0  0  0
   12.3556  -13.2098   -4.6258 H   0  0  0  1  0  0  0  0  0  0  0  0
  1  2  1  0  0  0  0
  1  3  1  0  0  0  0
  1  4  1  0  0  0  0
  1 65  1  0  0  0  0
  3  6  1  0  0  0  0
  4  5  1  0  0  0  0
  4  8  1  0  0  0  0
  4 10  1  0  0  0  0
  6  7  1  0  0  0  0
  6  8  1  0  0  0  0
  6 57  1  0  0  0  0
  8  9  1  0  0  0  0
  8 60  1  0  0  0  0
 10 11  1  0  0  0  0
 12 13  1  0  0  0  0
 12 14  1  0  0  0  0
 12 15  1  0  0  0  0
 12 18  1  0  0  0  0
 15 16  1  0  0  0  0
 15 17  1  0  0  0  0
 15 79  1  0  0  0  0
 18 19  1  0  0  0  0
 18 20  1  0  0  0  0
 20 21  2  0  0  0  0
 20 25  1  0  0  0  0
 22 23  1  0  0  0  0
 22 24  1  0  0  0  0
 22 25  1  0  0  0  0
 22 28  1  0  0  0  0
 25 26  1  0  0  0  0
 25 27  1  0  0  0  0
 28 29  1  0  0  0  0
 28 31  1  0  0  0  0
 30 31  2  0  0  0  0
 31 44  1  0  0  0  0
 32 33  1  0  0  0  0
 32 34  1  0  0  0  0
 32 39  1  0  0  0  0
 32 48  1  0  0  0  0
 35 36  1  0  0  0  0
 35 37  1  0  0  0  0
 35 38  1  0  0  0  0
 35 39  1  0  0  0  0
 39 40  1  0  0  0  0
 39 44  1  0  0  0  0
 40 41  1  0  0  0  0
 40 42  1  0  0  0  0
 40 43  1  0  0  0  0
 44 45  1  0  0  0  0
 44 46  1  0  0  0  0
 46 47  1  0  0  0  0
 48 55  1  0  0  0  0
 49 55  1  0  0  0  0
 49 56  1  0  0  0  0
 50 56  1  0  0  0  0
 50 57  1  0  0  0  0
 51 55  1  0  0  0  0
 52 55  2  0  0  0  0
 53 56  1  0  0  0  0
 54 56  2  0  0  0  0
 57 58  1  0  0  0  0
 57 59  1  0  0  0  0
 60 63  1  0  0  0  0
 61 63  2  0  0  0  0
 62 63  1  0  0  0  0
 63 64  1  0  0  0  0
 65 66  1  0  0  0  0
 65 67  1  0  0  0  0
 66 69  2  0  0  0  0
 66 70  1  0  0  0  0
 67 68  1  0  0  0  0
 67 71  2  0  0  0  0
 69 71  1  0  0  0  0
 69 72  1  0  0  0  0
 70 73  2  0  0  0  0
 72 75  2  0  0  0  0
 72 76  1  0  0  0  0
 73 74  1  0  0  0  0
 73 75  1  0  0  0  0
 76 77  1  0  0  0  0
 76 78  1  0  0  0  0
 79 81  1  0  0  0  0
 80 81  2  0  0  0  0
 81 82  1  0  0  0  0
 82 83  1  0  0  0  0
 82 84  2  0  0  0  0
 84 85  1  0  0  0  0
 84 86  1  0  0  0  0
 86 87  1  0  0  0  0
 86 89  2  0  0  0  0
 87 88  1  0  0  0  0
 87 91  2  0  0  0  0
 89 90  1  0  0  0  0
 89 93  1  0  0  0  0
 91 92  1  0  0  0  0
 91 94  1  0  0  0  0
 93 94  2  0  0  0  0
 93 97  1  0  0  0  0
 94 95  1  0  0  0  0
 95 96  1  0  0  0  0
 97 98  1  0  0  0  0
 98 99  1  0  0  0  0
 98100  1  0  0  0  0
 98101  1  0  0  0  0
M  BCL ATM C_TeTeTeTe H_S O_Te2Te2TeTe C_TeTeTeTe H_S C_TeTeTeTe H_S C_TeTeTeTe H_S O_Te2Te2TeTe H_S C_TeTeTeTe H_S H_S C_TeTeTeTe H_S H_S N_TrTrTrPi2 H_S C_TrTrTrPi O_Tr2Tr2TrPi C_TeTeTeTe H_S H_S C_TeTeTeTe H_S H_S N_TrTrTrPi2 H_S O_Tr2Tr2TrPi C_TrTrTrPi C_TeTeTeTe H_S H_S C_TeTeTeTe H_S H_S H_S C_TeTeTeTe C_TeTeTeTe H_S H_S H_S C_TeTeTeTe H_S O_Te2Te2TeTe H_S O_Tr2TrTrPi2 O_Tr2TrTrPi2 O_Tr2TrTrPi2 O_Te2Te2TeTe O_Tr2Tr2TrPi O_Te2Te2TeTe O_Tr2Tr2TrPi P_TeTeTeTePi P_TeTeTeTePi C_TeTeTeTe H_S H_S O_Tr2TrTrPi2 O_Tr2Tr2TrPi O_Te2Te2Te2Te P_TeTeTeTePi O_Te2Te2Te2Te N_TrTrTrPi2 C_TrTrTrPi C_TrTrTrPi H_S C_TrTrTrPi N_Tr2TrTrPi N_Tr2TrTrPi C_TrTrTrPi C_TrTrTrPi H_S N_Tr2TrTrPi N_TrTrTrPi2 H_S H_S S_Te2Te2TeTe O_Tr2Tr2TrPi C_TrTrTrPi C_TrTrTrPi H_S C_TrTrTrPi H_S C_TrTrTrPi C_TrTrTrPi H_S C_TrTrTrPi H_S C_TrTrTrPi H_S C_TrTrTrPi C_TrTrTrPi O_Te2Te2TeTe H_S O_Tr2TrTrPi2 C_TeTeTeTe H_S H_S H_S
M  BCL BND NonConjugatedSingleBond NonConjugatedSingleBondInRing NonConjugatedSingleBondInRing NonConjugatedSingleBond NonConjugatedSingleBondInRing NonConjugatedSingleBond NonConjugatedSingleBondInRing NonConjugatedSingleBond NonConjugatedSingleBond NonConjugatedSingleBondInRing NonConjugatedSingleBond NonConjugatedSingleBond NonConjugatedSingleBond NonConjugatedSingleBond NonConjugatedSingleBond NonConjugatedSingleBond NonConjugatedSingleBond NonConjugatedSingleBond NonConjugatedSingleBond NonConjugatedSingleBond NonConjugatedSingleBond NonConjugatedSingleBond AmideSingleBond ConjugatedDoubleBond NonConjugatedSingleBond NonConjugatedSingleBond NonConjugatedSingleBond NonConjugatedSingleBond NonConjugatedSingleBond NonConjugatedSingleBond NonConjugatedSingleBond NonConjugatedSingleBond AmideSingleBond ConjugatedDoubleBond NonConjugatedSingleBond NonConjugatedSingleBond NonConjugatedSingleBond NonConjugatedSingleBond NonConjugatedSingleBond NonConjugatedSingleBond NonConjugatedSingleBond NonConjugatedSingleBond NonConjugatedSingleBond NonConjugatedSingleBond NonConjugatedSingleBond NonConjugatedSingleBond NonConjugatedSingleBond NonConjugatedSingleBond NonConjugatedSingleBond NonConjugatedSingleBond NonConjugatedSingleBond ConjugatedSingleBond ConjugatedSingleBond ConjugatedSingleBond ConjugatedSingleBond NonConjugatedSingleBond ConjugatedSingleBond ConjugatedDoubleBond ConjugatedSingleBond ConjugatedDoubleBond NonConjugatedSingleBond NonConjugatedSingleBond ConjugatedSingleBond ConjugatedDoubleBond ConjugatedSingleBond ConjugatedSingleBond AromaticSingleBond AromaticSingleBond AromaticDoubleBond AromaticSingleBond NonConjugatedSingleBond AromaticDoubleBond AromaticSingleBond AromaticSingleBond AromaticDoubleBond AromaticDoubleBond ConjugatedSingleBond NonConjugatedSingleBond AromaticSingleBond NonConjugatedSingleBond NonConjugatedSingleBond ConjugatedSingleBond ConjugatedDoubleBond ConjugatedSingleBond NonConjugatedSingleBond ConjugatedDoubleBond NonConjugatedSingleBond ConjugatedSingleBond AromaticSingleBond AromaticDoubleBond NonConjugatedSingleBond AromaticDoubleBond NonConjugatedSingleBond AromaticSingleBond NonConjugatedSingleBond AromaticSingleBond AromaticDoubleBond ConjugatedSingleBond ConjugatedSingleBond NonConjugatedSingleBond NonConjugatedSingleBond NonConjugatedSingleBond NonConjugatedSingleBond NonConjugatedSingleBond
M  BCL CHI   1   R   4   R   6   R   8   S  44   S  55   S  56   R
M  BCL DBI - - - - - - - - - - E - - -
M  END
> <ConfClashScore>
0 

> <ConfOneFourInteractionScore>
-0.969304 

> <ConfScore>
-0.0590118 

> <ConfScorePBest>
0.0122145 

> <ConfTolerance>
2.50131 

$$$$
L02.****
  PyMOL2.5          3D                             0

101104  0  0  0  0  0  0  0  0999 V2000
   15.3039   -4.5424   -5.5564 C   0  0  0  1  0  0  0  0  0  0  0  0
   14.9731   -5.1917   -6.3399 H   0  0  0  1  0  0  0  0  0  0  0  0
   15.3284   -5.2437   -4.2928 O   0  0  0  1  0  0  0  0  0  0  0  0
   14.3113   -3.3934   -5.3554 C   0  0  0  1  0  0  0  0  0  0  0  0
   14.8197   -2.4875   -5.0988 H   0  0  0  1  0  0  0  0  0  0  0  0
   14.4524   -4.6729   -3.3590 C   0  0  0  1  0  0  0  0  0  0  0  0
   14.9806   -4.0265   -2.6896 H   0  0  0  1  0  0  0  0  0  0  0  0
   13.4562   -3.8751   -4.2128 C   0  0  0  1  0  0  0  0  0  0  0  0
   12.6612   -4.4999   -4.5628 H   0  0  0  1  0  0  0  0  0  0  0  0
   13.5261   -3.1833   -6.5298 O   0  0  0  1  0  0  0  0  0  0  0  0
   13.8707   -3.7215   -7.2462 H   0  0  0  1  0  0  0  0  0  0  0  0
    7.1219   -2.1600   -3.5098 C   0  0  0  1  0  0  0  0  0  0  0  0
    8.1668   -2.3736   -3.5959 H   0  0  0  1  0  0  0  0  0  0  0  0
    6.6246   -2.4382   -4.4155 H   0  0  0  1  0  0  0  0  0  0  0  0
    6.9462   -0.6653   -3.2971 C   0  0  0  1  0  0  0  0  0  0  0  0
    7.8051   -0.2816   -2.7873 H   0  0  0  1  0  0  0  0  0  0  0  0
    6.0730   -0.4973   -2.7020 H   0  0  0  1  0  0  0  0  0  0  0  0
    6.5702   -2.9525   -2.4093 N   0  0  0  1  0  0  0  0  0  0  0  0
    7.1041   -3.7060   -2.0816 H   0  0  0  1  0  0  0  0  0  0  0  0
    5.3956   -2.7260   -1.8192 C   0  0  0  1  0  0  0  0  0  0  0  0
    4.6604   -1.7788   -2.0947 O   0  0  0  1  0  0  0  0  0  0  0  0
    4.8835   -3.0537    0.6328 C   0  0  0  1  0  0  0  0  0  0  0  0
    4.5017   -3.7831    1.3162 H   0  0  0  1  0  0  0  0  0  0  0  0
    4.2156   -2.2187    0.5916 H   0  0  0  1  0  0  0  0  0  0  0  0
    4.9397   -3.6849   -0.7521 C   0  0  0  1  0  0  0  0  0  0  0  0
    5.6199   -4.5104   -0.7228 H   0  0  0  1  0  0  0  0  0  0  0  0
    3.9616   -4.0369   -1.0059 H   0  0  0  1  0  0  0  0  0  0  0  0
    6.1722   -2.5819    1.1425 N   0  0  0  1  0  0  0  0  0  0  0  0
    6.8479   -3.2280    1.4367 H   0  0  0  1  0  0  0  0  0  0  0  0
    5.6491   -0.4155    0.7951 O   0  0  0  1  0  0  0  0  0  0  0  0
    6.4292   -1.2724    1.2075 C   0  0  0  1  0  0  0  0  0  0  0  0
    9.0607   -2.2953    0.2211 C   0  0  0  1  0  0  0  0  0  0  0  0
    9.7379   -2.2797   -0.6071 H   0  0  0  1  0  0  0  0  0  0  0  0
    8.1225   -2.7035   -0.0922 H   0  0  0  1  0  0  0  0  0  0  0  0
    8.4880    0.0932   -0.3757 C   0  0  0  1  0  0  0  0  0  0  0  0
    7.5542   -0.2032   -0.8059 H   0  0  0  1  0  0  0  0  0  0  0  0
    9.2499    0.0693   -1.1266 H   0  0  0  1  0  0  0  0  0  0  0  0
    8.4017    1.0859    0.0141 H   0  0  0  1  0  0  0  0  0  0  0  0
    8.8580   -0.8704    0.7582 C   0  0  0  1  0  0  0  0  0  0  0  0
   10.1773   -0.4252    1.3997 C   0  0  0  1  0  0  0  0  0  0  0  0
   10.0584    0.5516    1.8200 H   0  0  0  1  0  0  0  0  0  0  0  0
   10.9456   -0.4017    0.6553 H   0  0  0  1  0  0  0  0  0  0  0  0
   10.4489   -1.1147    2.1716 H   0  0  0  1  0  0  0  0  0  0  0  0
    7.7642   -0.8907    1.8311 C   0  0  0  1  0  0  0  0  0  0  0  0
    8.0214   -1.6344    2.5562 H   0  0  0  1  0  0  0  0  0  0  0  0
    7.7027    0.3880    2.4586 O   0  0  0  1  0  0  0  0  0  0  0  0
    7.9098    0.2973    3.3917 H   0  0  0  1  0  0  0  0  0  0  0  0
    9.6123   -3.0948    1.2937 O   0  0  0  1  0  0  0  0  0  0  0  0
   11.4558   -4.5232    0.2714 O   0  0  0  1  0  0  0  0  0  0  0  0
   12.9812   -5.0775   -1.5403 O   0  0  0  1  0  0  0  0  0  0  0  0
   10.3211   -5.2044    2.4366 O   0  0  0  0  0  0  0  0  0  0  0  0
    9.0386   -5.2727    0.2914 O   0  0  0  1  0  0  0  0  0  0  0  0
   13.3202   -6.0801    0.7377 O   0  0  0  0  0  0  0  0  0  0  0  0
   11.4165   -6.8096   -0.8092 O   0  0  0  1  0  0  0  0  0  0  0  0
   10.1481   -4.5716    1.0202 P   0  0  0  1  0  0  0  0  0  0  0  0
   12.2812   -5.7182   -0.2868 P   0  0  0  1  0  0  0  0  0  0  0  0
   13.7487   -5.7329   -2.5771 C   0  0  0  1  0  0  0  0  0  0  0  0
   14.4637   -6.3963   -2.1371 H   0  0  0  1  0  0  0  0  0  0  0  0
   13.0958   -6.2864   -3.2192 H   0  0  0  1  0  0  0  0  0  0  0  0
   12.9042   -2.7616   -3.4678 O   0  0  0  1  0  0  0  0  0  0  0  0
   10.7465   -3.4078   -4.3742 O   0  0  0  1  0  0  0  0  0  0  0  0
   10.8496   -1.1825   -3.0458 O   0  5  0  1  0  0  0  0  0  0  0  0
   11.2911   -2.7359   -3.1732 P   0  0  0  1  0  0  0  0  0  0  0  0
   11.0625   -3.5848   -1.8124 O   0  5  0  1  0  0  0  0  0  0  0  0
   16.6344   -4.0217   -5.8816 N   0  0  0  1  0  0  0  0  0  0  0  0
   17.6537   -3.8342   -4.9841 C   0  0  0  1  0  0  0  0  0  0  0  0
   17.1608   -3.7324   -7.1031 C   0  0  0  1  0  0  0  0  0  0  0  0
   16.6023   -3.7836   -7.9789 H   0  0  0  1  0  0  0  0  0  0  0  0
   18.7593   -3.4400   -5.7496 C   0  0  0  1  0  0  0  0  0  0  0  0
   17.6193   -4.0026   -3.6614 N   0  0  0  1  0  0  0  0  0  0  0  0
   18.4192   -3.3859   -7.0923 N   0  0  0  1  0  0  0  0  0  0  0  0
   19.9304   -3.2059   -5.0350 C   0  0  0  1  0  0  0  0  0  0  0  0
   18.7972   -3.7380   -3.1097 C   0  0  0  1  0  0  0  0  0  0  0  0
   18.8439   -3.8443   -2.0762 H   0  0  0  1  0  0  0  0  0  0  0  0
   19.9364   -3.3519   -3.7056 N   0  0  0  1  0  0  0  0  0  0  0  0
   21.0783   -2.8270   -5.6798 N   0  0  0  1  0  0  0  0  0  0  0  0
   21.0962   -2.7748   -6.6583 H   0  0  0  1  0  0  0  0  0  0  0  0
   21.8814   -2.6081   -5.1627 H   0  0  0  1  0  0  0  0  0  0  0  0
    6.7609    0.1991   -4.8750 S   0  0  0  1  0  0  0  0  0  0  0  0
    9.3572   -0.2815   -4.9994 O   0  0  0  1  0  0  0  0  0  0  0  0
    8.3986    0.2054   -5.5699 C   0  0  0  1  0  0  0  0  0  0  0  0
    8.4863    0.8444   -6.8794 C   0  0  0  1  0  0  0  0  0  0  0  0
    7.5838    1.1824   -7.2702 H   0  0  0  1  0  0  0  0  0  0  0  0
    9.5544    1.0578   -7.6469 C   0  0  0  1  0  0  0  0  0  0  0  0
   10.4932    0.7478   -7.3240 H   0  0  0  1  0  0  0  0  0  0  0  0
    9.4126    1.7338   -8.9573 C   0  0  0  1  0  0  0  0  0  0  0  0
    8.1675    2.1921   -9.3589 C   0  0  0  1  0  0  0  0  0  0  0  0
    7.3417    2.0639   -8.7398 H   0  0  0  1  0  0  0  0  0  0  0  0
   10.5109    1.9090   -9.7777 C   0  0  0  1  0  0  0  0  0  0  0  0
   11.4458    1.5687   -9.4747 H   0  0  0  1  0  0  0  0  0  0  0  0
    8.0234    2.8194  -10.5820 C   0  0  0  1  0  0  0  0  0  0  0  0
    7.0885    3.1597  -10.8851 H   0  0  0  1  0  0  0  0  0  0  0  0
   10.3666    2.5381  -11.0044 C   0  0  0  1  0  0  0  0  0  0  0  0
    9.1251    2.9951  -11.4048 C   0  0  0  1  0  0  0  0  0  0  0  0
    8.9095    3.6229  -12.5863 O   0  0  0  1  0  0  0  0  0  0  0  0
    9.3233    4.4890  -12.5691 H   0  0  0  1  0  0  0  0  0  0  0  0
   11.3650    2.7610  -11.8918 O   0  0  0  1  0  0  0  0  0  0  0  0
   12.6402    2.1643  -11.6083 C   0  0  0  1  0  0  0  0  0  0  0  0
   13.3690    2.5341  -12.2990 H   0  0  0  1  0  0  0  0  0  0  0  0
   12.5655    1.1012  -11.7042 H   0  0  0  1  0  0  0  0  0  0  0  0
   12.9362    2.4131  -10.6106 H   0  0  0  1  0  0  0  0  0  0  0  0
  1  2  1  0  0  0  0
  1  3  1  0  0  0  0
  1  4  1  0  0  0  0
  1 65  1  0  0  0  0
  3  6  1  0  0  0  0
  4  5  1  0  0  0  0
  4  8  1  0  0  0  0
  4 10  1  0  0  0  0
  6  7  1  0  0  0  0
  6  8  1  0  0  0  0
  6 57  1  0  0  0  0
  8  9  1  0  0  0  0
  8 60  1  0  0  0  0
 10 11  1  0  0  0  0
 12 13  1  0  0  0  0
 12 14  1  0  0  0  0
 12 15  1  0  0  0  0
 12 18  1  0  0  0  0
 15 16  1  0  0  0  0
 15 17  1  0  0  0  0
 15 79  1  0  0  0  0
 18 19  1  0  0  0  0
 18 20  1  0  0  0  0
 20 21  2  0  0  0  0
 20 25  1  0  0  0  0
 22 23  1  0  0  0  0
 22 24  1  0  0  0  0
 22 25  1  0  0  0  0
 22 28  1  0  0  0  0
 25 26  1  0  0  0  0
 25 27  1  0  0  0  0
 28 29  1  0  0  0  0
 28 31  1  0  0  0  0
 30 31  2  0  0  0  0
 31 44  1  0  0  0  0
 32 33  1  0  0  0  0
 32 34  1  0  0  0  0
 32 39  1  0  0  0  0
 32 48  1  0  0  0  0
 35 36  1  0  0  0  0
 35 37  1  0  0  0  0
 35 38  1  0  0  0  0
 35 39  1  0  0  0  0
 39 40  1  0  0  0  0
 39 44  1  0  0  0  0
 40 41  1  0  0  0  0
 40 42  1  0  0  0  0
 40 43  1  0  0  0  0
 44 45  1  0  0  0  0
 44 46  1  0  0  0  0
 46 47  1  0  0  0  0
 48 55  1  0  0  0  0
 49 55  1  0  0  0  0
 49 56  1  0  0  0  0
 50 56  1  0  0  0  0
 50 57  1  0  0  0  0
 51 55  1  0  0  0  0
 52 55  2  0  0  0  0
 53 56  1  0  0  0  0
 54 56  2  0  0  0  0
 57 58  1  0  0  0  0
 57 59  1  0  0  0  0
 60 63  1  0  0  0  0
 61 63  2  0  0  0  0
 62 63  1  0  0  0  0
 63 64  1  0  0  0  0
 65 66  1  0  0  0  0
 65 67  1  0  0  0  0
 66 69  2  0  0  0  0
 66 70  1  0  0  0  0
 67 68  1  0  0  0  0
 67 71  2  0  0  0  0
 69 71  1  0  0  0  0
 69 72  1  0  0  0  0
 70 73  2  0  0  0  0
 72 75  2  0  0  0  0
 72 76  1  0  0  0  0
 73 74  1  0  0  0  0
 73 75  1  0  0  0  0
 76 77  1  0  0  0  0
 76 78  1  0  0  0  0
 79 81  1  0  0  0  0
 80 81  2  0  0  0  0
 81 82  1  0  0  0  0
 82 83  1  0  0  0  0
 82 84  2  0  0  0  0
 84 85  1  0  0  0  0
 84 86  1  0  0  0  0
 86 87  1  0  0  0  0
 86 89  2  0  0  0  0
 87 88  1  0  0  0  0
 87 91  2  0  0  0  0
 89 90  1  0  0  0  0
 89 93  1  0  0  0  0
 91 92  1  0  0  0  0
 91 94  1  0  0  0  0
 93 94  2  0  0  0  0
 93 97  1  0  0  0  0
 94 95  1  0  0  0  0
 95 96  1  0  0  0  0
 97 98  1  0  0  0  0
 98 99  1  0  0  0  0
 98100  1  0  0  0  0
 98101  1  0  0  0  0
M  BCL ATM C_TeTeTeTe H_S O_Te2Te2TeTe C_TeTeTeTe H_S C_TeTeTeTe H_S C_TeTeTeTe H_S O_Te2Te2TeTe H_S C_TeTeTeTe H_S H_S C_TeTeTeTe H_S H_S N_TrTrTrPi2 H_S C_TrTrTrPi O_Tr2Tr2TrPi C_TeTeTeTe H_S H_S C_TeTeTeTe H_S H_S N_TrTrTrPi2 H_S O_Tr2Tr2TrPi C_TrTrTrPi C_TeTeTeTe H_S H_S C_TeTeTeTe H_S H_S H_S C_TeTeTeTe C_TeTeTeTe H_S H_S H_S C_TeTeTeTe H_S O_Te2Te2TeTe H_S O_Tr2TrTrPi2 O_Tr2TrTrPi2 O_Tr2TrTrPi2 O_Te2Te2TeTe O_Tr2Tr2TrPi O_Te2Te2TeTe O_Tr2Tr2TrPi P_TeTeTeTePi P_TeTeTeTePi C_TeTeTeTe H_S H_S O_Tr2TrTrPi2 O_Tr2Tr2TrPi O_Te2Te2Te2Te P_TeTeTeTePi O_Te2Te2Te2Te N_TrTrTrPi2 C_TrTrTrPi C_TrTrTrPi H_S C_TrTrTrPi N_Tr2TrTrPi N_Tr2TrTrPi C_TrTrTrPi C_TrTrTrPi H_S N_Tr2TrTrPi N_TrTrTrPi2 H_S H_S S_Te2Te2TeTe O_Tr2Tr2TrPi C_TrTrTrPi C_TrTrTrPi H_S C_TrTrTrPi H_S C_TrTrTrPi C_TrTrTrPi H_S C_TrTrTrPi H_S C_TrTrTrPi H_S C_TrTrTrPi C_TrTrTrPi O_Te2Te2TeTe H_S O_Tr2TrTrPi2 C_TeTeTeTe H_S H_S H_S
M  BCL BND NonConjugatedSingleBond NonConjugatedSingleBondInRing NonConjugatedSingleBondInRing NonConjugatedSingleBond NonConjugatedSingleBondInRing NonConjugatedSingleBond NonConjugatedSingleBondInRing NonConjugatedSingleBond NonConjugatedSingleBond NonConjugatedSingleBondInRing NonConjugatedSingleBond NonConjugatedSingleBond NonConjugatedSingleBond NonConjugatedSingleBond NonConjugatedSingleBond NonConjugatedSingleBond NonConjugatedSingleBond NonConjugatedSingleBond NonConjugatedSingleBond NonConjugatedSingleBond NonConjugatedSingleBond NonConjugatedSingleBond AmideSingleBond ConjugatedDoubleBond NonConjugatedSingleBond NonConjugatedSingleBond NonConjugatedSingleBond NonConjugatedSingleBond NonConjugatedSingleBond NonConjugatedSingleBond NonConjugatedSingleBond NonConjugatedSingleBond AmideSingleBond ConjugatedDoubleBond NonConjugatedSingleBond NonConjugatedSingleBond NonConjugatedSingleBond NonConjugatedSingleBond NonConjugatedSingleBond NonConjugatedSingleBond NonConjugatedSingleBond NonConjugatedSingleBond NonConjugatedSingleBond NonConjugatedSingleBond NonConjugatedSingleBond NonConjugatedSingleBond NonConjugatedSingleBond NonConjugatedSingleBond NonConjugatedSingleBond NonConjugatedSingleBond NonConjugatedSingleBond ConjugatedSingleBond ConjugatedSingleBond ConjugatedSingleBond ConjugatedSingleBond NonConjugatedSingleBond ConjugatedSingleBond ConjugatedDoubleBond ConjugatedSingleBond ConjugatedDoubleBond NonConjugatedSingleBond NonConjugatedSingleBond ConjugatedSingleBond ConjugatedDoubleBond ConjugatedSingleBond ConjugatedSingleBond AromaticSingleBond AromaticSingleBond AromaticDoubleBond AromaticSingleBond NonConjugatedSingleBond AromaticDoubleBond AromaticSingleBond AromaticSingleBond AromaticDoubleBond AromaticDoubleBond ConjugatedSingleBond NonConjugatedSingleBond AromaticSingleBond NonConjugatedSingleBond NonConjugatedSingleBond ConjugatedSingleBond ConjugatedDoubleBond ConjugatedSingleBond NonConjugatedSingleBond ConjugatedDoubleBond NonConjugatedSingleBond ConjugatedSingleBond AromaticSingleBond AromaticDoubleBond NonConjugatedSingleBond AromaticDoubleBond NonConjugatedSingleBond AromaticSingleBond NonConjugatedSingleBond AromaticSingleBond AromaticDoubleBond ConjugatedSingleBond ConjugatedSingleBond NonConjugatedSingleBond NonConjugatedSingleBond NonConjugatedSingleBond NonConjugatedSingleBond NonConjugatedSingleBond
M  BCL CHI   1   R   4   R   6   R   8   S  44   S  55   S  56   R
M  BCL DBI - - - - - - - - - - E - - -
M  END
> <ConfClashScore>
0 

> <ConfOneFourInteractionScore>
-0.975383 

> <ConfScore>
-0.0550258 

> <ConfScorePBest>
0.0121115 

> <ConfTolerance>
2.76034 

$$$$
L02.****
  PyMOL2.5          3D                             0

101104  0  0  0  0  0  0  0  0999 V2000
   15.2371   -4.4092   -5.5923 C   0  0  0  1  0  0  0  0  0  0  0  0
   14.7912   -3.6405   -4.9963 H   0  0  0  1  0  0  0  0  0  0  0  0
   14.5341   -4.5456   -6.7951 O   0  0  0  1  0  0  0  0  0  0  0  0
   15.1681   -5.7522   -4.8482 C   0  0  0  1  0  0  0  0  0  0  0  0
   16.1252   -6.0247   -4.4549 H   0  0  0  1  0  0  0  0  0  0  0  0
   13.9034   -5.8599   -6.8759 C   0  0  0  1  0  0  0  0  0  0  0  0
   13.9393   -6.2365   -7.8768 H   0  0  0  1  0  0  0  0  0  0  0  0
   14.7248   -6.7258   -5.9484 C   0  0  0  1  0  0  0  0  0  0  0  0
   14.1328   -7.5188   -5.5414 H   0  0  0  1  0  0  0  0  0  0  0  0
   14.2118   -5.7045   -3.7865 O   0  0  0  1  0  0  0  0  0  0  0  0
   14.5964   -6.0810   -2.9916 H   0  0  0  1  0  0  0  0  0  0  0  0
    8.5835   -9.8157   -6.7283 C   0  0  0  1  0  0  0  0  0  0  0  0
    8.0729   -8.9060   -6.4904 H   0  0  0  1  0  0  0  0  0  0  0  0
    9.5973   -9.7548   -6.3915 H   0  0  0  1  0  0  0  0  0  0  0  0
    8.5817   -9.9938   -8.2293 C   0  0  0  1  0  0  0  0  0  0  0  0
    7.5834   -9.8958   -8.6018 H   0  0  0  1  0  0  0  0  0  0  0  0
    8.9618  -10.9628   -8.4769 H   0  0  0  1  0  0  0  0  0  0  0  0
    7.9231  -10.9206   -6.0310 N   0  0  0  1  0  0  0  0  0  0  0  0
    7.0835  -11.2737   -6.3927 H   0  0  0  1  0  0  0  0  0  0  0  0
    8.4251  -11.4643   -4.9186 C   0  0  0  1  0  0  0  0  0  0  0  0
    9.4665  -11.0763   -4.3958 O   0  0  0  1  0  0  0  0  0  0  0  0
    7.5472  -12.5466   -2.8082 C   0  0  0  1  0  0  0  0  0  0  0  0
    8.5077  -12.8039   -2.4132 H   0  0  0  1  0  0  0  0  0  0  0  0
    6.8242  -13.2671   -2.4872 H   0  0  0  1  0  0  0  0  0  0  0  0
    7.6291  -12.6017   -4.3281 C   0  0  0  1  0  0  0  0  0  0  0  0
    8.0918  -13.5241   -4.6110 H   0  0  0  1  0  0  0  0  0  0  0  0
    6.6359  -12.5641   -4.7243 H   0  0  0  1  0  0  0  0  0  0  0  0
    7.1645  -11.2428   -2.2634 N   0  0  0  1  0  0  0  0  0  0  0  0
    6.3262  -10.8214   -2.5465 H   0  0  0  1  0  0  0  0  0  0  0  0
    9.0943  -11.0610   -1.1399 O   0  0  0  1  0  0  0  0  0  0  0  0
    7.9856  -10.6028   -1.3475 C   0  0  0  1  0  0  0  0  0  0  0  0
    7.9184   -7.9879   -2.6605 C   0  0  0  1  0  0  0  0  0  0  0  0
    6.8880   -7.7296   -2.7887 H   0  0  0  1  0  0  0  0  0  0  0  0
    8.1217   -8.9081   -3.1672 H   0  0  0  1  0  0  0  0  0  0  0  0
    7.7742   -6.8768   -0.4201 C   0  0  0  1  0  0  0  0  0  0  0  0
    6.7453   -6.6874   -0.6444 H   0  0  0  1  0  0  0  0  0  0  0  0
    8.3658   -6.0395   -0.7265 H   0  0  0  1  0  0  0  0  0  0  0  0
    7.8875   -7.0277    0.6332 H   0  0  0  1  0  0  0  0  0  0  0  0
    8.2388   -8.1317   -1.1688 C   0  0  0  1  0  0  0  0  0  0  0  0
    9.7430   -8.3725   -0.9966 C   0  0  0  1  0  0  0  0  0  0  0  0
   10.2738   -7.4617   -1.1799 H   0  0  0  1  0  0  0  0  0  0  0  0
   10.0662   -9.1194   -1.6912 H   0  0  0  1  0  0  0  0  0  0  0  0
    9.9389   -8.7044    0.0016 H   0  0  0  1  0  0  0  0  0  0  0  0
    7.4726   -9.3558   -0.6380 C   0  0  0  1  0  0  0  0  0  0  0  0
    7.6613   -9.4510    0.4110 H   0  0  0  1  0  0  0  0  0  0  0  0
    6.0847   -9.2015   -0.8783 O   0  0  0  1  0  0  0  0  0  0  0  0
    5.5885   -9.6164   -0.1689 H   0  0  0  1  0  0  0  0  0  0  0  0
    8.7615   -6.9346   -3.1923 O   0  0  0  1  0  0  0  0  0  0  0  0
   10.1938   -5.6008   -4.8469 O   0  0  0  1  0  0  0  0  0  0  0  0
   12.4615   -5.0941   -5.1524 O   0  0  0  1  0  0  0  0  0  0  0  0
    9.7149   -7.9573   -5.3437 O   0  0  0  0  0  0  0  0  0  0  0  0
    7.7816   -6.3156   -5.3552 O   0  0  0  1  0  0  0  0  0  0  0  0
   11.3955   -4.4160   -2.9289 O   0  0  0  0  0  0  0  0  0  0  0  0
   11.8712   -6.8939   -3.4264 O   0  0  0  1  0  0  0  0  0  0  0  0
    9.0618   -6.7541   -4.7727 P   0  0  0  1  0  0  0  0  0  0  0  0
   11.5130   -5.5380   -3.9060 P   0  0  0  1  0  0  0  0  0  0  0  0
   12.4833   -5.7941   -6.4186 C   0  0  0  1  0  0  0  0  0  0  0  0
   12.0941   -6.7831   -6.2950 H   0  0  0  1  0  0  0  0  0  0  0  0
   11.8932   -5.2653   -7.1376 H   0  0  0  1  0  0  0  0  0  0  0  0
   15.8687   -7.2821   -6.6382 O   0  0  0  1  0  0  0  0  0  0  0  0
   14.5153   -9.2154   -7.8375 O   0  0  0  1  0  0  0  0  0  0  0  0
   17.0311   -9.3585   -7.9084 O   0  5  0  1  0  0  0  0  0  0  0  0
   15.7391   -8.3831   -7.8468 P   0  0  0  1  0  0  0  0  0  0  0  0
   15.8178   -7.5929   -9.2588 O   0  5  0  1  0  0  0  0  0  0  0  0
   16.6342   -4.0651   -5.8691 N   0  0  0  1  0  0  0  0  0  0  0  0
   17.6595   -3.8611   -4.9820 C   0  0  0  1  0  0  0  0  0  0  0  0
   17.1444   -3.7711   -7.0963 C   0  0  0  1  0  0  0  0  0  0  0  0
   16.5782   -3.8322   -7.9665 H   0  0  0  1  0  0  0  0  0  0  0  0
   18.7518   -3.4529   -5.7592 C   0  0  0  1  0  0  0  0  0  0  0  0
   17.6405   -4.0270   -3.6588 N   0  0  0  1  0  0  0  0  0  0  0  0
   18.3978   -3.4067   -7.0987 N   0  0  0  1  0  0  0  0  0  0  0  0
   19.9265   -3.2005   -5.0568 C   0  0  0  1  0  0  0  0  0  0  0  0
   18.8200   -3.7445   -3.1193 C   0  0  0  1  0  0  0  0  0  0  0  0
   18.8783   -3.8477   -2.0860 H   0  0  0  1  0  0  0  0  0  0  0  0
   19.9476   -3.3435   -3.7272 N   0  0  0  1  0  0  0  0  0  0  0  0
   21.0896   -2.8048   -5.6630 N   0  0  0  1  0  0  0  0  0  0  0  0
   21.9103   -2.7126   -5.1355 H   0  0  0  1  0  0  0  0  0  0  0  0
   21.1008   -2.6141   -6.6242 H   0  0  0  1  0  0  0  0  0  0  0  0
    9.6336   -8.7213   -8.9678 S   0  0  0  1  0  0  0  0  0  0  0  0
    7.3225   -7.4794   -8.7051 O   0  0  0  1  0  0  0  0  0  0  0  0
    8.4486   -7.4055   -9.1394 C   0  0  0  1  0  0  0  0  0  0  0  0
    8.9572   -6.2369   -9.8474 C   0  0  0  1  0  0  0  0  0  0  0  0
    9.9387   -6.2776  -10.1888 H   0  0  0  1  0  0  0  0  0  0  0  0
    8.2722   -5.1211  -10.0946 C   0  0  0  1  0  0  0  0  0  0  0  0
    7.2907   -5.0802   -9.7532 H   0  0  0  1  0  0  0  0  0  0  0  0
    8.7889   -3.9338  -10.8141 C   0  0  0  1  0  0  0  0  0  0  0  0
    7.9132   -2.9265  -11.1884 C   0  0  0  1  0  0  0  0  0  0  0  0
    6.9016   -3.0057  -10.9603 H   0  0  0  1  0  0  0  0  0  0  0  0
   10.1340   -3.8260  -11.1126 C   0  0  0  1  0  0  0  0  0  0  0  0
   10.7917   -4.5798  -10.8282 H   0  0  0  1  0  0  0  0  0  0  0  0
    8.3842   -1.8171  -11.8648 C   0  0  0  1  0  0  0  0  0  0  0  0
    7.7265   -1.0633  -12.1492 H   0  0  0  1  0  0  0  0  0  0  0  0
   10.6067   -2.7134  -11.7909 C   0  0  0  1  0  0  0  0  0  0  0  0
    9.7335   -1.7092  -12.1641 C   0  0  0  1  0  0  0  0  0  0  0  0
   10.2432   -0.6388  -12.8206 O   0  0  0  1  0  0  0  0  0  0  0  0
   11.1386   -0.4730  -12.5166 H   0  0  0  1  0  0  0  0  0  0  0  0
   11.9393   -2.7212  -12.0318 O   0  0  0  1  0  0  0  0  0  0  0  0
   12.7626   -3.4907  -11.1416 C   0  0  0  1  0  0  0  0  0  0  0  0
   12.5473   -4.5315  -11.2660 H   0  0  0  1  0  0  0  0  0  0  0  0
   12.5602   -3.2033  -10.1310 H   0  0  0  1  0  0  0  0  0  0  0  0
   13.7935   -3.3109  -11.3646 H   0  0  0  1  0  0  0  0  0  0  0  0
  1  2  1  0  0  0  0
  1  3  1  0  0  0  0
  1  4  1  0  0  0  0
  1 65  1  0  0  0  0
  3  6  1  0  0  0  0
  4  5  1  0  0  0  0
  4  8  1  0  0  0  0
  4 10  1  0  0  0  0
  6  7  1  0  0  0  0
  6  8  1  0  0  0  0
  6 57  1  0  0  0  0
  8  9  1  0  0  0  0
  8 60  1  0  0  0  0
 10 11  1  0  0  0  0
 12 13  1  0  0  0  0
 12 14  1  0  0  0  0
 12 15  1  0  0  0  0
 12 18  1  0  0  0  0
 15 16  1  0  0  0  0
 15 17  1  0  0  0  0
 15 79  1  0  0  0  0
 18 19  1  0  0  0  0
 18 20  1  0  0  0  0
 20 21  2  0  0  0  0
 20 25  1  0  0  0  0
 22 23  1  0  0  0  0
 22 24  1  0  0  0  0
 22 25  1  0  0  0  0
 22 28  1  0  0  0  0
 25 26  1  0  0  0  0
 25 27  1  0  0  0  0
 28 29  1  0  0  0  0
 28 31  1  0  0  0  0
 30 31  2  0  0  0  0
 31 44  1  0  0  0  0
 32 33  1  0  0  0  0
 32 34  1  0  0  0  0
 32 39  1  0  0  0  0
 32 48  1  0  0  0  0
 35 36  1  0  0  0  0
 35 37  1  0  0  0  0
 35 38  1  0  0  0  0
 35 39  1  0  0  0  0
 39 40  1  0  0  0  0
 39 44  1  0  0  0  0
 40 41  1  0  0  0  0
 40 42  1  0  0  0  0
 40 43  1  0  0  0  0
 44 45  1  0  0  0  0
 44 46  1  0  0  0  0
 46 47  1  0  0  0  0
 48 55  1  0  0  0  0
 49 55  1  0  0  0  0
 49 56  1  0  0  0  0
 50 56  1  0  0  0  0
 50 57  1  0  0  0  0
 51 55  1  0  0  0  0
 52 55  2  0  0  0  0
 53 56  1  0  0  0  0
 54 56  2  0  0  0  0
 57 58  1  0  0  0  0
 57 59  1  0  0  0  0
 60 63  1  0  0  0  0
 61 63  2  0  0  0  0
 62 63  1  0  0  0  0
 63 64  1  0  0  0  0
 65 66  1  0  0  0  0
 65 67  1  0  0  0  0
 66 69  2  0  0  0  0
 66 70  1  0  0  0  0
 67 68  1  0  0  0  0
 67 71  2  0  0  0  0
 69 71  1  0  0  0  0
 69 72  1  0  0  0  0
 70 73  2  0  0  0  0
 72 75  2  0  0  0  0
 72 76  1  0  0  0  0
 73 74  1  0  0  0  0
 73 75  1  0  0  0  0
 76 77  1  0  0  0  0
 76 78  1  0  0  0  0
 79 81  1  0  0  0  0
 80 81  2  0  0  0  0
 81 82  1  0  0  0  0
 82 83  1  0  0  0  0
 82 84  2  0  0  0  0
 84 85  1  0  0  0  0
 84 86  1  0  0  0  0
 86 87  1  0  0  0  0
 86 89  2  0  0  0  0
 87 88  1  0  0  0  0
 87 91  2  0  0  0  0
 89 90  1  0  0  0  0
 89 93  1  0  0  0  0
 91 92  1  0  0  0  0
 91 94  1  0  0  0  0
 93 94  2  0  0  0  0
 93 97  1  0  0  0  0
 94 95  1  0  0  0  0
 95 96  1  0  0  0  0
 97 98  1  0  0  0  0
 98 99  1  0  0  0  0
 98100  1  0  0  0  0
 98101  1  0  0  0  0
M  BCL ATM C_TeTeTeTe H_S O_Te2Te2TeTe C_TeTeTeTe H_S C_TeTeTeTe H_S C_TeTeTeTe H_S O_Te2Te2TeTe H_S C_TeTeTeTe H_S H_S C_TeTeTeTe H_S H_S N_TrTrTrPi2 H_S C_TrTrTrPi O_Tr2Tr2TrPi C_TeTeTeTe H_S H_S C_TeTeTeTe H_S H_S N_TrTrTrPi2 H_S O_Tr2Tr2TrPi C_TrTrTrPi C_TeTeTeTe H_S H_S C_TeTeTeTe H_S H_S H_S C_TeTeTeTe C_TeTeTeTe H_S H_S H_S C_TeTeTeTe H_S O_Te2Te2TeTe H_S O_Tr2TrTrPi2 O_Tr2TrTrPi2 O_Tr2TrTrPi2 O_Te2Te2TeTe O_Tr2Tr2TrPi O_Te2Te2TeTe O_Tr2Tr2TrPi P_TeTeTeTePi P_TeTeTeTePi C_TeTeTeTe H_S H_S O_Tr2TrTrPi2 O_Tr2Tr2TrPi O_Te2Te2Te2Te P_TeTeTeTePi O_Te2Te2Te2Te N_TrTrTrPi2 C_TrTrTrPi C_TrTrTrPi H_S C_TrTrTrPi N_Tr2TrTrPi N_Tr2TrTrPi C_TrTrTrPi C_TrTrTrPi H_S N_Tr2TrTrPi N_TrTrTrPi2 H_S H_S S_Te2Te2TeTe O_Tr2Tr2TrPi C_TrTrTrPi C_TrTrTrPi H_S C_TrTrTrPi H_S C_TrTrTrPi C_TrTrTrPi H_S C_TrTrTrPi H_S C_TrTrTrPi H_S C_TrTrTrPi C_TrTrTrPi O_Te2Te2TeTe H_S O_Tr2TrTrPi2 C_TeTeTeTe H_S H_S H_S
M  BCL BND NonConjugatedSingleBond NonConjugatedSingleBondInRing NonConjugatedSingleBondInRing NonConjugatedSingleBond NonConjugatedSingleBondInRing NonConjugatedSingleBond NonConjugatedSingleBondInRing NonConjugatedSingleBond NonConjugatedSingleBond NonConjugatedSingleBondInRing NonConjugatedSingleBond NonConjugatedSingleBond NonConjugatedSingleBond NonConjugatedSingleBond NonConjugatedSingleBond NonConjugatedSingleBond NonConjugatedSingleBond NonConjugatedSingleBond NonConjugatedSingleBond NonConjugatedSingleBond NonConjugatedSingleBond NonConjugatedSingleBond AmideSingleBond ConjugatedDoubleBond NonConjugatedSingleBond NonConjugatedSingleBond NonConjugatedSingleBond NonConjugatedSingleBond NonConjugatedSingleBond NonConjugatedSingleBond NonConjugatedSingleBond NonConjugatedSingleBond AmideSingleBond ConjugatedDoubleBond NonConjugatedSingleBond NonConjugatedSingleBond NonConjugatedSingleBond NonConjugatedSingleBond NonConjugatedSingleBond NonConjugatedSingleBond NonConjugatedSingleBond NonConjugatedSingleBond NonConjugatedSingleBond NonConjugatedSingleBond NonConjugatedSingleBond NonConjugatedSingleBond NonConjugatedSingleBond NonConjugatedSingleBond NonConjugatedSingleBond NonConjugatedSingleBond NonConjugatedSingleBond ConjugatedSingleBond ConjugatedSingleBond ConjugatedSingleBond ConjugatedSingleBond NonConjugatedSingleBond ConjugatedSingleBond ConjugatedDoubleBond ConjugatedSingleBond ConjugatedDoubleBond NonConjugatedSingleBond NonConjugatedSingleBond ConjugatedSingleBond ConjugatedDoubleBond ConjugatedSingleBond ConjugatedSingleBond AromaticSingleBond AromaticSingleBond AromaticDoubleBond AromaticSingleBond NonConjugatedSingleBond AromaticDoubleBond AromaticSingleBond AromaticSingleBond AromaticDoubleBond AromaticDoubleBond ConjugatedSingleBond NonConjugatedSingleBond AromaticSingleBond NonConjugatedSingleBond NonConjugatedSingleBond ConjugatedSingleBond ConjugatedDoubleBond ConjugatedSingleBond NonConjugatedSingleBond ConjugatedDoubleBond NonConjugatedSingleBond ConjugatedSingleBond AromaticSingleBond AromaticDoubleBond NonConjugatedSingleBond AromaticDoubleBond NonConjugatedSingleBond AromaticSingleBond NonConjugatedSingleBond AromaticSingleBond AromaticDoubleBond ConjugatedSingleBond ConjugatedSingleBond NonConjugatedSingleBond NonConjugatedSingleBond NonConjugatedSingleBond NonConjugatedSingleBond NonConjugatedSingleBond
M  BCL CHI   1   R   4   R   6   R   8   S  44   S  55   S  56   R
M  BCL DBI - - - - - - - - - - E - - -
M  END
> <ConfClashScore>
0 

> <ConfOneFourInteractionScore>
-0.983149 

> <ConfScore>
-0.0547124 

> <ConfScorePBest>
0.0120085 

> <ConfTolerance>
2.69888 

$$$$
L02.****
  PyMOL2.5          3D                             0

101104  0  0  0  0  0  0  0  0999 V2000
   15.2676   -4.5122   -5.5650 C   0  0  0  1  0  0  0  0  0  0  0  0
   14.6224   -3.6672   -5.4445 H   0  0  0  1  0  0  0  0  0  0  0  0
   14.7911   -5.3609   -6.5738 O   0  0  0  1  0  0  0  0  0  0  0  0
   15.2624   -5.3852   -4.3018 C   0  0  0  1  0  0  0  0  0  0  0  0
   16.1606   -5.9620   -4.2278 H   0  0  0  1  0  0  0  0  0  0  0  0
   14.0536   -6.4810   -6.0345 C   0  0  0  1  0  0  0  0  0  0  0  0
   14.5319   -7.4035   -6.2897 H   0  0  0  1  0  0  0  0  0  0  0  0
   14.0640   -6.2717   -4.5174 C   0  0  0  1  0  0  0  0  0  0  0  0
   13.1664   -5.7899   -4.1902 H   0  0  0  1  0  0  0  0  0  0  0  0
   15.1090   -4.5888   -3.1261 O   0  0  0  1  0  0  0  0  0  0  0  0
   15.3691   -3.6843   -3.3156 H   0  0  0  1  0  0  0  0  0  0  0  0
    8.0633    2.7641   -5.1630 C   0  0  0  1  0  0  0  0  0  0  0  0
    8.5661    2.7092   -6.1059 H   0  0  0  1  0  0  0  0  0  0  0  0
    7.3810    3.5883   -5.1696 H   0  0  0  1  0  0  0  0  0  0  0  0
    9.0798    2.9683   -4.0681 C   0  0  0  1  0  0  0  0  0  0  0  0
    8.6058    2.8677   -3.1141 H   0  0  0  1  0  0  0  0  0  0  0  0
    9.5083    3.9451   -4.1529 H   0  0  0  1  0  0  0  0  0  0  0  0
    7.3239    1.5305   -4.9405 N   0  0  0  1  0  0  0  0  0  0  0  0
    6.4736    1.5698   -4.4549 H   0  0  0  1  0  0  0  0  0  0  0  0
    7.7641    0.3463   -5.3751 C   0  0  0  1  0  0  0  0  0  0  0  0
    8.8764    0.1880   -5.8766 O   0  0  0  1  0  0  0  0  0  0  0  0
    7.3547   -1.7636   -4.1517 C   0  0  0  1  0  0  0  0  0  0  0  0
    7.5612   -1.2024   -3.2644 H   0  0  0  1  0  0  0  0  0  0  0  0
    8.2612   -2.1978   -4.5187 H   0  0  0  1  0  0  0  0  0  0  0  0
    6.8012   -0.8139   -5.2143 C   0  0  0  1  0  0  0  0  0  0  0  0
    6.7031   -1.3324   -6.1451 H   0  0  0  1  0  0  0  0  0  0  0  0
    5.8440   -0.4477   -4.9068 H   0  0  0  1  0  0  0  0  0  0  0  0
    6.4200   -2.8401   -3.8191 N   0  0  0  1  0  0  0  0  0  0  0  0
    5.7339   -2.6522   -3.1450 H   0  0  0  1  0  0  0  0  0  0  0  0
    7.3604   -4.4724   -5.0523 O   0  0  0  1  0  0  0  0  0  0  0  0
    6.4318   -4.0569   -4.3641 C   0  0  0  1  0  0  0  0  0  0  0  0
    6.3425   -7.1618   -4.2492 C   0  0  0  1  0  0  0  0  0  0  0  0
    5.7940   -7.2438   -5.1643 H   0  0  0  1  0  0  0  0  0  0  0  0
    6.3970   -8.1210   -3.7783 H   0  0  0  1  0  0  0  0  0  0  0  0
    6.5500   -5.8269   -2.1467 C   0  0  0  1  0  0  0  0  0  0  0  0
    6.6557   -6.6762   -1.5045 H   0  0  0  1  0  0  0  0  0  0  0  0
    6.1309   -5.0121   -1.5941 H   0  0  0  1  0  0  0  0  0  0  0  0
    7.5101   -5.5450   -2.5258 H   0  0  0  1  0  0  0  0  0  0  0  0
    5.6233   -6.1814   -3.3158 C   0  0  0  1  0  0  0  0  0  0  0  0
    4.3753   -6.8691   -2.7530 C   0  0  0  1  0  0  0  0  0  0  0  0
    4.6680   -7.6201   -2.0493 H   0  0  0  1  0  0  0  0  0  0  0  0
    3.8277   -7.3235   -3.5521 H   0  0  0  1  0  0  0  0  0  0  0  0
    3.7585   -6.1440   -2.2644 H   0  0  0  1  0  0  0  0  0  0  0  0
    5.2099   -4.9195   -4.0824 C   0  0  0  1  0  0  0  0  0  0  0  0
    4.7891   -5.2214   -5.0187 H   0  0  0  1  0  0  0  0  0  0  0  0
    4.2384   -4.2156   -3.3273 O   0  0  0  1  0  0  0  0  0  0  0  0
    4.6287   -3.9157   -2.5031 H   0  0  0  1  0  0  0  0  0  0  0  0
    7.6847   -6.6943   -4.5372 O   0  0  0  1  0  0  0  0  0  0  0  0
    9.8866   -6.5377   -5.7440 O   0  0  0  1  0  0  0  0  0  0  0  0
   11.9401   -5.4078   -5.9023 O   0  0  0  1  0  0  0  0  0  0  0  0
    8.5581   -8.6033   -6.0483 O   0  0  0  0  0  0  0  0  0  0  0  0
    7.6679   -6.5069   -6.9365 O   0  0  0  1  0  0  0  0  0  0  0  0
   10.1266   -4.7819   -7.5933 O   0  0  0  0  0  0  0  0  0  0  0  0
    9.9059   -4.0596   -5.1424 O   0  0  0  1  0  0  0  0  0  0  0  0
    8.4256   -7.1415   -5.8336 P   0  0  0  1  0  0  0  0  0  0  0  0
   10.3738   -5.0351   -6.1435 P   0  0  0  1  0  0  0  0  0  0  0  0
   12.6533   -6.4853   -6.5535 C   0  0  0  1  0  0  0  0  0  0  0  0
   12.1844   -7.4205   -6.3291 H   0  0  0  1  0  0  0  0  0  0  0  0
   12.6567   -6.3324   -7.6125 H   0  0  0  1  0  0  0  0  0  0  0  0
   14.2182   -7.5338   -3.8191 O   0  0  0  1  0  0  0  0  0  0  0  0
   12.6561   -6.9678   -1.9232 O   0  0  0  1  0  0  0  0  0  0  0  0
   13.5220   -9.4689   -2.1140 O   0  5  0  1  0  0  0  0  0  0  0  0
   13.0482   -8.0853   -2.8108 P   0  0  0  1  0  0  0  0  0  0  0  0
   11.8359   -8.4567   -3.8191 O   0  5  0  1  0  0  0  0  0  0  0  0
   16.6225   -4.0523   -5.8717 N   0  0  0  1  0  0  0  0  0  0  0  0
   17.6480   -3.8506   -4.9845 C   0  0  0  1  0  0  0  0  0  0  0  0
   17.1265   -3.7361   -7.0960 C   0  0  0  1  0  0  0  0  0  0  0  0
   16.5586   -3.7906   -7.9656 H   0  0  0  1  0  0  0  0  0  0  0  0
   18.7342   -3.4208   -5.7586 C   0  0  0  1  0  0  0  0  0  0  0  0
   17.6342   -4.0352   -3.6636 N   0  0  0  1  0  0  0  0  0  0  0  0
   18.3762   -3.3594   -7.0964 N   0  0  0  1  0  0  0  0  0  0  0  0
   19.9082   -3.1667   -5.0557 C   0  0  0  1  0  0  0  0  0  0  0  0
   18.8122   -3.7486   -3.1232 C   0  0  0  1  0  0  0  0  0  0  0  0
   18.8743   -3.8657   -2.0917 H   0  0  0  1  0  0  0  0  0  0  0  0
   19.9343   -3.3280   -3.7283 N   0  0  0  1  0  0  0  0  0  0  0  0
   21.1239   -2.8223   -5.6688 N   0  0  0  1  0  0  0  0  0  0  0  0
   21.9136   -2.6344   -5.1199 H   0  0  0  1  0  0  0  0  0  0  0  0
   21.1824   -2.7699   -6.6457 H   0  0  0  1  0  0  0  0  0  0  0  0
   10.3766    1.7190   -4.2372 S   0  0  0  1  0  0  0  0  0  0  0  0
   10.9526    3.3033   -6.2622 O   0  0  0  1  0  0  0  0  0  0  0  0
   11.2222    2.2553   -5.6610 C   0  0  0  1  0  0  0  0  0  0  0  0
   12.1924    1.3327   -6.2426 C   0  0  0  1  0  0  0  0  0  0  0  0
   12.3586    0.4516   -5.7158 H   0  0  0  1  0  0  0  0  0  0  0  0
   12.8908    1.4838   -7.3672 C   0  0  0  1  0  0  0  0  0  0  0  0
   12.5624    2.2300   -8.0129 H   0  0  0  1  0  0  0  0  0  0  0  0
   14.0777    0.7173   -7.8081 C   0  0  0  1  0  0  0  0  0  0  0  0
   14.8948    0.0549   -6.9054 C   0  0  0  1  0  0  0  0  0  0  0  0
   14.6781    0.0853   -5.8886 H   0  0  0  1  0  0  0  0  0  0  0  0
   14.3626    0.6725   -9.1598 C   0  0  0  1  0  0  0  0  0  0  0  0
   13.7473    1.1662   -9.8375 H   0  0  0  1  0  0  0  0  0  0  0  0
   15.9974   -0.6459   -7.3563 C   0  0  0  1  0  0  0  0  0  0  0  0
   16.6127   -1.1396   -6.6785 H   0  0  0  1  0  0  0  0  0  0  0  0
   15.4684   -0.0303   -9.6122 C   0  0  0  1  0  0  0  0  0  0  0  0
   16.2831   -0.6908   -8.7120 C   0  0  0  1  0  0  0  0  0  0  0  0
   17.3766   -1.4011   -9.0812 O   0  0  0  1  0  0  0  0  0  0  0  0
   17.2245   -2.3340   -8.9134 H   0  0  0  1  0  0  0  0  0  0  0  0
   15.8494   -0.1407  -10.9070 O   0  0  0  1  0  0  0  0  0  0  0  0
   15.0794    0.5806  -11.8814 C   0  0  0  1  0  0  0  0  0  0  0  0
   15.0646    1.6198  -11.6268 H   0  0  0  1  0  0  0  0  0  0  0  0
   14.0784    0.2028  -11.8954 H   0  0  0  1  0  0  0  0  0  0  0  0
   15.5215    0.4567  -12.8478 H   0  0  0  1  0  0  0  0  0  0  0  0
  1  2  1  0  0  0  0
  1  3  1  0  0  0  0
  1  4  1  0  0  0  0
  1 65  1  0  0  0  0
  3  6  1  0  0  0  0
  4  5  1  0  0  0  0
  4  8  1  0  0  0  0
  4 10  1  0  0  0  0
  6  7  1  0  0  0  0
  6  8  1  0  0  0  0
  6 57  1  0  0  0  0
  8  9  1  0  0  0  0
  8 60  1  0  0  0  0
 10 11  1  0  0  0  0
 12 13  1  0  0  0  0
 12 14  1  0  0  0  0
 12 15  1  0  0  0  0
 12 18  1  0  0  0  0
 15 16  1  0  0  0  0
 15 17  1  0  0  0  0
 15 79  1  0  0  0  0
 18 19  1  0  0  0  0
 18 20  1  0  0  0  0
 20 21  2  0  0  0  0
 20 25  1  0  0  0  0
 22 23  1  0  0  0  0
 22 24  1  0  0  0  0
 22 25  1  0  0  0  0
 22 28  1  0  0  0  0
 25 26  1  0  0  0  0
 25 27  1  0  0  0  0
 28 29  1  0  0  0  0
 28 31  1  0  0  0  0
 30 31  2  0  0  0  0
 31 44  1  0  0  0  0
 32 33  1  0  0  0  0
 32 34  1  0  0  0  0
 32 39  1  0  0  0  0
 32 48  1  0  0  0  0
 35 36  1  0  0  0  0
 35 37  1  0  0  0  0
 35 38  1  0  0  0  0
 35 39  1  0  0  0  0
 39 40  1  0  0  0  0
 39 44  1  0  0  0  0
 40 41  1  0  0  0  0
 40 42  1  0  0  0  0
 40 43  1  0  0  0  0
 44 45  1  0  0  0  0
 44 46  1  0  0  0  0
 46 47  1  0  0  0  0
 48 55  1  0  0  0  0
 49 55  1  0  0  0  0
 49 56  1  0  0  0  0
 50 56  1  0  0  0  0
 50 57  1  0  0  0  0
 51 55  1  0  0  0  0
 52 55  2  0  0  0  0
 53 56  1  0  0  0  0
 54 56  2  0  0  0  0
 57 58  1  0  0  0  0
 57 59  1  0  0  0  0
 60 63  1  0  0  0  0
 61 63  2  0  0  0  0
 62 63  1  0  0  0  0
 63 64  1  0  0  0  0
 65 66  1  0  0  0  0
 65 67  1  0  0  0  0
 66 69  2  0  0  0  0
 66 70  1  0  0  0  0
 67 68  1  0  0  0  0
 67 71  2  0  0  0  0
 69 71  1  0  0  0  0
 69 72  1  0  0  0  0
 70 73  2  0  0  0  0
 72 75  2  0  0  0  0
 72 76  1  0  0  0  0
 73 74  1  0  0  0  0
 73 75  1  0  0  0  0
 76 77  1  0  0  0  0
 76 78  1  0  0  0  0
 79 81  1  0  0  0  0
 80 81  2  0  0  0  0
 81 82  1  0  0  0  0
 82 83  1  0  0  0  0
 82 84  2  0  0  0  0
 84 85  1  0  0  0  0
 84 86  1  0  0  0  0
 86 87  1  0  0  0  0
 86 89  2  0  0  0  0
 87 88  1  0  0  0  0
 87 91  2  0  0  0  0
 89 90  1  0  0  0  0
 89 93  1  0  0  0  0
 91 92  1  0  0  0  0
 91 94  1  0  0  0  0
 93 94  2  0  0  0  0
 93 97  1  0  0  0  0
 94 95  1  0  0  0  0
 95 96  1  0  0  0  0
 97 98  1  0  0  0  0
 98 99  1  0  0  0  0
 98100  1  0  0  0  0
 98101  1  0  0  0  0
M  BCL ATM C_TeTeTeTe H_S O_Te2Te2TeTe C_TeTeTeTe H_S C_TeTeTeTe H_S C_TeTeTeTe H_S O_Te2Te2TeTe H_S C_TeTeTeTe H_S H_S C_TeTeTeTe H_S H_S N_TrTrTrPi2 H_S C_TrTrTrPi O_Tr2Tr2TrPi C_TeTeTeTe H_S H_S C_TeTeTeTe H_S H_S N_TrTrTrPi2 H_S O_Tr2Tr2TrPi C_TrTrTrPi C_TeTeTeTe H_S H_S C_TeTeTeTe H_S H_S H_S C_TeTeTeTe C_TeTeTeTe H_S H_S H_S C_TeTeTeTe H_S O_Te2Te2TeTe H_S O_Tr2TrTrPi2 O_Tr2TrTrPi2 O_Tr2TrTrPi2 O_Te2Te2TeTe O_Tr2Tr2TrPi O_Te2Te2TeTe O_Tr2Tr2TrPi P_TeTeTeTePi P_TeTeTeTePi C_TeTeTeTe H_S H_S O_Tr2TrTrPi2 O_Tr2Tr2TrPi O_Te2Te2Te2Te P_TeTeTeTePi O_Te2Te2Te2Te N_TrTrTrPi2 C_TrTrTrPi C_TrTrTrPi H_S C_TrTrTrPi N_Tr2TrTrPi N_Tr2TrTrPi C_TrTrTrPi C_TrTrTrPi H_S N_Tr2TrTrPi N_TrTrTrPi2 H_S H_S S_Te2Te2TeTe O_Tr2Tr2TrPi C_TrTrTrPi C_TrTrTrPi H_S C_TrTrTrPi H_S C_TrTrTrPi C_TrTrTrPi H_S C_TrTrTrPi H_S C_TrTrTrPi H_S C_TrTrTrPi C_TrTrTrPi O_Te2Te2TeTe H_S O_Tr2TrTrPi2 C_TeTeTeTe H_S H_S H_S
M  BCL BND NonConjugatedSingleBond NonConjugatedSingleBondInRing NonConjugatedSingleBondInRing NonConjugatedSingleBond NonConjugatedSingleBondInRing NonConjugatedSingleBond NonConjugatedSingleBondInRing NonConjugatedSingleBond NonConjugatedSingleBond NonConjugatedSingleBondInRing NonConjugatedSingleBond NonConjugatedSingleBond NonConjugatedSingleBond NonConjugatedSingleBond NonConjugatedSingleBond NonConjugatedSingleBond NonConjugatedSingleBond NonConjugatedSingleBond NonConjugatedSingleBond NonConjugatedSingleBond NonConjugatedSingleBond NonConjugatedSingleBond AmideSingleBond ConjugatedDoubleBond NonConjugatedSingleBond NonConjugatedSingleBond NonConjugatedSingleBond NonConjugatedSingleBond NonConjugatedSingleBond NonConjugatedSingleBond NonConjugatedSingleBond NonConjugatedSingleBond AmideSingleBond ConjugatedDoubleBond NonConjugatedSingleBond NonConjugatedSingleBond NonConjugatedSingleBond NonConjugatedSingleBond NonConjugatedSingleBond NonConjugatedSingleBond NonConjugatedSingleBond NonConjugatedSingleBond NonConjugatedSingleBond NonConjugatedSingleBond NonConjugatedSingleBond NonConjugatedSingleBond NonConjugatedSingleBond NonConjugatedSingleBond NonConjugatedSingleBond NonConjugatedSingleBond NonConjugatedSingleBond ConjugatedSingleBond ConjugatedSingleBond ConjugatedSingleBond ConjugatedSingleBond NonConjugatedSingleBond ConjugatedSingleBond ConjugatedDoubleBond ConjugatedSingleBond ConjugatedDoubleBond NonConjugatedSingleBond NonConjugatedSingleBond ConjugatedSingleBond ConjugatedDoubleBond ConjugatedSingleBond ConjugatedSingleBond AromaticSingleBond AromaticSingleBond AromaticDoubleBond AromaticSingleBond NonConjugatedSingleBond AromaticDoubleBond AromaticSingleBond AromaticSingleBond AromaticDoubleBond AromaticDoubleBond ConjugatedSingleBond NonConjugatedSingleBond AromaticSingleBond NonConjugatedSingleBond NonConjugatedSingleBond ConjugatedSingleBond ConjugatedDoubleBond ConjugatedSingleBond NonConjugatedSingleBond ConjugatedDoubleBond NonConjugatedSingleBond ConjugatedSingleBond AromaticSingleBond AromaticDoubleBond NonConjugatedSingleBond AromaticDoubleBond NonConjugatedSingleBond AromaticSingleBond NonConjugatedSingleBond AromaticSingleBond AromaticDoubleBond ConjugatedSingleBond ConjugatedSingleBond NonConjugatedSingleBond NonConjugatedSingleBond NonConjugatedSingleBond NonConjugatedSingleBond NonConjugatedSingleBond
M  BCL CHI   1   R   4   R   6   R   8   S  44   S  55   S  56   R
M  BCL DBI - - - - - - - - - - E - - -
M  END
> <ConfClashScore>
0 

> <ConfOneFourInteractionScore>
-0.980256 

> <ConfScore>
-0.0535719 

> <ConfScorePBest>
0.0119055 

> <ConfTolerance>
2.69421 

$$$$
L02.****
  PyMOL2.5          3D                             0

101104  0  0  0  0  0  0  0  0999 V2000
   15.2656   -4.5475   -5.5774 C   0  0  0  1  0  0  0  0  0  0  0  0
   15.3498   -5.5132   -5.1242 H   0  0  0  1  0  0  0  0  0  0  0  0
   14.5639   -3.6667   -4.7426 O   0  0  0  1  0  0  0  0  0  0  0  0
   14.4149   -4.6180   -6.8538 C   0  0  0  1  0  0  0  0  0  0  0  0
   14.6507   -3.8142   -7.5195 H   0  0  0  1  0  0  0  0  0  0  0  0
   13.1755   -3.5480   -5.1266 C   0  0  0  1  0  0  0  0  0  0  0  0
   12.9483   -2.5408   -5.4071 H   0  0  0  1  0  0  0  0  0  0  0  0
   13.0111   -4.4896   -6.3233 C   0  0  0  1  0  0  0  0  0  0  0  0
   12.6292   -5.4401   -6.0141 H   0  0  0  1  0  0  0  0  0  0  0  0
   14.5989   -5.8642   -7.5271 O   0  0  0  1  0  0  0  0  0  0  0  0
   13.8068   -6.0794   -8.0251 H   0  0  0  1  0  0  0  0  0  0  0  0
    9.7086   -2.8380    2.0575 C   0  0  0  1  0  0  0  0  0  0  0  0
    8.9489   -2.3738    2.6509 H   0  0  0  1  0  0  0  0  0  0  0  0
   10.0264   -3.7443    2.5293 H   0  0  0  1  0  0  0  0  0  0  0  0
   10.8878   -1.9027    1.9643 C   0  0  0  1  0  0  0  0  0  0  0  0
   11.6469   -2.3564    1.3621 H   0  0  0  1  0  0  0  0  0  0  0  0
   11.2708   -1.7243    2.9473 H   0  0  0  1  0  0  0  0  0  0  0  0
    9.1490   -3.1623    0.7538 N   0  0  0  1  0  0  0  0  0  0  0  0
    8.7198   -2.4381    0.2522 H   0  0  0  1  0  0  0  0  0  0  0  0
    9.1764   -4.3729    0.1894 C   0  0  0  1  0  0  0  0  0  0  0  0
    9.6295   -5.3685    0.7525 O   0  0  0  1  0  0  0  0  0  0  0  0
    7.8802   -5.7130   -1.5154 C   0  0  0  1  0  0  0  0  0  0  0  0
    7.5861   -5.6961   -2.5440 H   0  0  0  1  0  0  0  0  0  0  0  0
    7.0096   -5.6782   -0.8943 H   0  0  0  1  0  0  0  0  0  0  0  0
    8.7102   -4.4662   -1.2389 C   0  0  0  1  0  0  0  0  0  0  0  0
    9.5688   -4.4802   -1.8772 H   0  0  0  1  0  0  0  0  0  0  0  0
    8.1150   -3.6049   -1.4598 H   0  0  0  1  0  0  0  0  0  0  0  0
    8.5723   -6.9774   -1.2597 N   0  0  0  1  0  0  0  0  0  0  0  0
    9.5319   -6.9597   -1.0616 H   0  0  0  1  0  0  0  0  0  0  0  0
    6.7473   -8.2633   -1.5130 O   0  0  0  1  0  0  0  0  0  0  0  0
    7.9413   -8.1547   -1.2872 C   0  0  0  1  0  0  0  0  0  0  0  0
    9.9305   -9.2418   -3.2407 C   0  0  0  1  0  0  0  0  0  0  0  0
   10.2600   -9.8064   -4.0878 H   0  0  0  1  0  0  0  0  0  0  0  0
   10.7801   -8.8766   -2.7024 H   0  0  0  1  0  0  0  0  0  0  0  0
    9.8470  -11.4067   -1.9923 C   0  0  0  1  0  0  0  0  0  0  0  0
   10.8383  -11.1529   -1.6796 H   0  0  0  1  0  0  0  0  0  0  0  0
    9.8957  -12.0295   -2.8610 H   0  0  0  1  0  0  0  0  0  0  0  0
    9.3480  -11.9311   -1.2044 H   0  0  0  1  0  0  0  0  0  0  0  0
    9.0715  -10.1262   -2.3247 C   0  0  0  1  0  0  0  0  0  0  0  0
    7.7277  -10.4867   -2.9969 C   0  0  0  1  0  0  0  0  0  0  0  0
    7.1780   -9.5912   -3.1990 H   0  0  0  1  0  0  0  0  0  0  0  0
    7.1590  -11.1141   -2.3429 H   0  0  0  1  0  0  0  0  0  0  0  0
    7.9157  -11.0042   -3.9144 H   0  0  0  1  0  0  0  0  0  0  0  0
    8.8049   -9.3715   -1.0175 C   0  0  0  1  0  0  0  0  0  0  0  0
    8.2704  -10.0243   -0.3595 H   0  0  0  1  0  0  0  0  0  0  0  0
   10.0433   -9.0112   -0.4293 O   0  0  0  1  0  0  0  0  0  0  0  0
    9.9429   -8.1840    0.0476 H   0  0  0  1  0  0  0  0  0  0  0  0
    9.1094   -8.1329   -3.6766 O   0  0  0  1  0  0  0  0  0  0  0  0
   10.7684   -6.5855   -4.4199 O   0  0  0  1  0  0  0  0  0  0  0  0
   12.6986   -5.2562   -3.5051 O   0  0  0  1  0  0  0  0  0  0  0  0
    9.8655   -8.2651   -6.1035 O   0  0  0  0  0  0  0  0  0  0  0  0
    8.4919   -6.3529   -5.1713 O   0  0  0  1  0  0  0  0  0  0  0  0
   10.9829   -6.0364   -1.9015 O   0  0  0  0  0  0  0  0  0  0  0  0
   12.3780   -7.7150   -3.0197 O   0  0  0  1  0  0  0  0  0  0  0  0
    9.5079   -7.3841   -4.9329 P   0  0  0  1  0  0  0  0  0  0  0  0
   11.6709   -6.4107   -3.1612 P   0  0  0  1  0  0  0  0  0  0  0  0
   12.2942   -3.9612   -4.0175 C   0  0  0  1  0  0  0  0  0  0  0  0
   11.2865   -4.0215   -4.3720 H   0  0  0  1  0  0  0  0  0  0  0  0
   12.3537   -3.2373   -3.2318 H   0  0  0  1  0  0  0  0  0  0  0  0
   12.1301   -3.9153   -7.3188 O   0  0  0  1  0  0  0  0  0  0  0  0
    9.9930   -5.0307   -6.3187 O   0  0  0  1  0  0  0  0  0  0  0  0
   10.5198   -5.4930   -8.8446 O   0  5  0  1  0  0  0  0  0  0  0  0
   10.6231   -4.5173   -7.5555 P   0  0  0  1  0  0  0  0  0  0  0  0
    9.7607   -3.2310   -8.0309 O   0  5  0  1  0  0  0  0  0  0  0  0
   16.6096   -4.0252   -5.8746 N   0  0  0  1  0  0  0  0  0  0  0  0
   17.6411   -3.8366   -4.9912 C   0  0  0  1  0  0  0  0  0  0  0  0
   17.1191   -3.7363   -7.1033 C   0  0  0  1  0  0  0  0  0  0  0  0
   16.5487   -3.7882   -7.9715 H   0  0  0  1  0  0  0  0  0  0  0  0
   18.7359   -3.4422   -5.7721 C   0  0  0  1  0  0  0  0  0  0  0  0
   17.6249   -4.0044   -3.6682 N   0  0  0  1  0  0  0  0  0  0  0  0
   18.3773   -3.3891   -7.1100 N   0  0  0  1  0  0  0  0  0  0  0  0
   19.9166   -3.2071   -5.0738 C   0  0  0  1  0  0  0  0  0  0  0  0
   18.8102   -3.7389   -3.1328 C   0  0  0  1  0  0  0  0  0  0  0  0
   18.8710   -3.8445   -2.1000 H   0  0  0  1  0  0  0  0  0  0  0  0
   19.9409   -3.3525   -3.7445 N   0  0  0  1  0  0  0  0  0  0  0  0
   21.1341   -2.8177   -5.6396 N   0  0  0  1  0  0  0  0  0  0  0  0
   21.2043   -2.6853   -6.6080 H   0  0  0  1  0  0  0  0  0  0  0  0
   21.9175   -2.6772   -5.0678 H   0  0  0  1  0  0  0  0  0  0  0  0
   10.4093   -0.3246    1.2215 S   0  0  0  1  0  0  0  0  0  0  0  0
   12.8213   -0.0531    1.4903 O   0  0  0  1  0  0  0  0  0  0  0  0
   11.9930    0.5375    1.1001 C   0  0  0  1  0  0  0  0  0  0  0  0
   11.7715    1.8468    0.4941 C   0  0  0  1  0  0  0  0  0  0  0  0
   10.8258    2.0116    0.0938 H   0  0  0  1  0  0  0  0  0  0  0  0
   12.6343    2.8555    0.3921 C   0  0  0  1  0  0  0  0  0  0  0  0
   13.5966    2.7531    0.7730 H   0  0  0  1  0  0  0  0  0  0  0  0
   12.2321    4.1218   -0.2601 C   0  0  0  1  0  0  0  0  0  0  0  0
   13.1563    5.1059   -0.5744 C   0  0  0  1  0  0  0  0  0  0  0  0
   14.1629    4.9629   -0.3556 H   0  0  0  1  0  0  0  0  0  0  0  0
   10.8952    4.3097   -0.5557 C   0  0  0  1  0  0  0  0  0  0  0  0
   10.2024    3.5697   -0.3235 H   0  0  0  1  0  0  0  0  0  0  0  0
   12.7402    6.2773   -1.1786 C   0  0  0  1  0  0  0  0  0  0  0  0
   13.4331    7.0173   -1.4108 H   0  0  0  1  0  0  0  0  0  0  0  0
   10.4776    5.4844   -1.1617 C   0  0  0  1  0  0  0  0  0  0  0  0
   11.3992    6.4656   -1.4751 C   0  0  0  1  0  0  0  0  0  0  0  0
   10.9006    7.5765   -2.0700 O   0  0  0  1  0  0  0  0  0  0  0  0
   10.8966    8.3022   -1.4416 H   0  0  0  1  0  0  0  0  0  0  0  0
    9.1989    5.7822   -1.4933 O   0  0  0  1  0  0  0  0  0  0  0  0
    8.1660    4.9590   -0.9294 C   0  0  0  1  0  0  0  0  0  0  0  0
    8.4767    3.9352   -0.9453 H   0  0  0  1  0  0  0  0  0  0  0  0
    7.2697    5.0684   -1.5035 H   0  0  0  1  0  0  0  0  0  0  0  0
    7.9821    5.2599    0.0808 H   0  0  0  1  0  0  0  0  0  0  0  0
  1  2  1  0  0  0  0
  1  3  1  0  0  0  0
  1  4  1  0  0  0  0
  1 65  1  0  0  0  0
  3  6  1  0  0  0  0
  4  5  1  0  0  0  0
  4  8  1  0  0  0  0
  4 10  1  0  0  0  0
  6  7  1  0  0  0  0
  6  8  1  0  0  0  0
  6 57  1  0  0  0  0
  8  9  1  0  0  0  0
  8 60  1  0  0  0  0
 10 11  1  0  0  0  0
 12 13  1  0  0  0  0
 12 14  1  0  0  0  0
 12 15  1  0  0  0  0
 12 18  1  0  0  0  0
 15 16  1  0  0  0  0
 15 17  1  0  0  0  0
 15 79  1  0  0  0  0
 18 19  1  0  0  0  0
 18 20  1  0  0  0  0
 20 21  2  0  0  0  0
 20 25  1  0  0  0  0
 22 23  1  0  0  0  0
 22 24  1  0  0  0  0
 22 25  1  0  0  0  0
 22 28  1  0  0  0  0
 25 26  1  0  0  0  0
 25 27  1  0  0  0  0
 28 29  1  0  0  0  0
 28 31  1  0  0  0  0
 30 31  2  0  0  0  0
 31 44  1  0  0  0  0
 32 33  1  0  0  0  0
 32 34  1  0  0  0  0
 32 39  1  0  0  0  0
 32 48  1  0  0  0  0
 35 36  1  0  0  0  0
 35 37  1  0  0  0  0
 35 38  1  0  0  0  0
 35 39  1  0  0  0  0
 39 40  1  0  0  0  0
 39 44  1  0  0  0  0
 40 41  1  0  0  0  0
 40 42  1  0  0  0  0
 40 43  1  0  0  0  0
 44 45  1  0  0  0  0
 44 46  1  0  0  0  0
 46 47  1  0  0  0  0
 48 55  1  0  0  0  0
 49 55  1  0  0  0  0
 49 56  1  0  0  0  0
 50 56  1  0  0  0  0
 50 57  1  0  0  0  0
 51 55  1  0  0  0  0
 52 55  2  0  0  0  0
 53 56  1  0  0  0  0
 54 56  2  0  0  0  0
 57 58  1  0  0  0  0
 57 59  1  0  0  0  0
 60 63  1  0  0  0  0
 61 63  2  0  0  0  0
 62 63  1  0  0  0  0
 63 64  1  0  0  0  0
 65 66  1  0  0  0  0
 65 67  1  0  0  0  0
 66 69  2  0  0  0  0
 66 70  1  0  0  0  0
 67 68  1  0  0  0  0
 67 71  2  0  0  0  0
 69 71  1  0  0  0  0
 69 72  1  0  0  0  0
 70 73  2  0  0  0  0
 72 75  2  0  0  0  0
 72 76  1  0  0  0  0
 73 74  1  0  0  0  0
 73 75  1  0  0  0  0
 76 77  1  0  0  0  0
 76 78  1  0  0  0  0
 79 81  1  0  0  0  0
 80 81  2  0  0  0  0
 81 82  1  0  0  0  0
 82 83  1  0  0  0  0
 82 84  2  0  0  0  0
 84 85  1  0  0  0  0
 84 86  1  0  0  0  0
 86 87  1  0  0  0  0
 86 89  2  0  0  0  0
 87 88  1  0  0  0  0
 87 91  2  0  0  0  0
 89 90  1  0  0  0  0
 89 93  1  0  0  0  0
 91 92  1  0  0  0  0
 91 94  1  0  0  0  0
 93 94  2  0  0  0  0
 93 97  1  0  0  0  0
 94 95  1  0  0  0  0
 95 96  1  0  0  0  0
 97 98  1  0  0  0  0
 98 99  1  0  0  0  0
 98100  1  0  0  0  0
 98101  1  0  0  0  0
M  BCL ATM C_TeTeTeTe H_S O_Te2Te2TeTe C_TeTeTeTe H_S C_TeTeTeTe H_S C_TeTeTeTe H_S O_Te2Te2TeTe H_S C_TeTeTeTe H_S H_S C_TeTeTeTe H_S H_S N_TrTrTrPi2 H_S C_TrTrTrPi O_Tr2Tr2TrPi C_TeTeTeTe H_S H_S C_TeTeTeTe H_S H_S N_TrTrTrPi2 H_S O_Tr2Tr2TrPi C_TrTrTrPi C_TeTeTeTe H_S H_S C_TeTeTeTe H_S H_S H_S C_TeTeTeTe C_TeTeTeTe H_S H_S H_S C_TeTeTeTe H_S O_Te2Te2TeTe H_S O_Tr2TrTrPi2 O_Tr2TrTrPi2 O_Tr2TrTrPi2 O_Te2Te2TeTe O_Tr2Tr2TrPi O_Te2Te2TeTe O_Tr2Tr2TrPi P_TeTeTeTePi P_TeTeTeTePi C_TeTeTeTe H_S H_S O_Tr2TrTrPi2 O_Tr2Tr2TrPi O_Te2Te2Te2Te P_TeTeTeTePi O_Te2Te2Te2Te N_TrTrTrPi2 C_TrTrTrPi C_TrTrTrPi H_S C_TrTrTrPi N_Tr2TrTrPi N_Tr2TrTrPi C_TrTrTrPi C_TrTrTrPi H_S N_Tr2TrTrPi N_TrTrTrPi2 H_S H_S S_Te2Te2TeTe O_Tr2Tr2TrPi C_TrTrTrPi C_TrTrTrPi H_S C_TrTrTrPi H_S C_TrTrTrPi C_TrTrTrPi H_S C_TrTrTrPi H_S C_TrTrTrPi H_S C_TrTrTrPi C_TrTrTrPi O_Te2Te2TeTe H_S O_Tr2TrTrPi2 C_TeTeTeTe H_S H_S H_S
M  BCL BND NonConjugatedSingleBond NonConjugatedSingleBondInRing NonConjugatedSingleBondInRing NonConjugatedSingleBond NonConjugatedSingleBondInRing NonConjugatedSingleBond NonConjugatedSingleBondInRing NonConjugatedSingleBond NonConjugatedSingleBond NonConjugatedSingleBondInRing NonConjugatedSingleBond NonConjugatedSingleBond NonConjugatedSingleBond NonConjugatedSingleBond NonConjugatedSingleBond NonConjugatedSingleBond NonConjugatedSingleBond NonConjugatedSingleBond NonConjugatedSingleBond NonConjugatedSingleBond NonConjugatedSingleBond NonConjugatedSingleBond AmideSingleBond ConjugatedDoubleBond NonConjugatedSingleBond NonConjugatedSingleBond NonConjugatedSingleBond NonConjugatedSingleBond NonConjugatedSingleBond NonConjugatedSingleBond NonConjugatedSingleBond NonConjugatedSingleBond AmideSingleBond ConjugatedDoubleBond NonConjugatedSingleBond NonConjugatedSingleBond NonConjugatedSingleBond NonConjugatedSingleBond NonConjugatedSingleBond NonConjugatedSingleBond NonConjugatedSingleBond NonConjugatedSingleBond NonConjugatedSingleBond NonConjugatedSingleBond NonConjugatedSingleBond NonConjugatedSingleBond NonConjugatedSingleBond NonConjugatedSingleBond NonConjugatedSingleBond NonConjugatedSingleBond NonConjugatedSingleBond ConjugatedSingleBond ConjugatedSingleBond ConjugatedSingleBond ConjugatedSingleBond NonConjugatedSingleBond ConjugatedSingleBond ConjugatedDoubleBond ConjugatedSingleBond ConjugatedDoubleBond NonConjugatedSingleBond NonConjugatedSingleBond ConjugatedSingleBond ConjugatedDoubleBond ConjugatedSingleBond ConjugatedSingleBond AromaticSingleBond AromaticSingleBond AromaticDoubleBond AromaticSingleBond NonConjugatedSingleBond AromaticDoubleBond AromaticSingleBond AromaticSingleBond AromaticDoubleBond AromaticDoubleBond ConjugatedSingleBond NonConjugatedSingleBond AromaticSingleBond NonConjugatedSingleBond NonConjugatedSingleBond ConjugatedSingleBond ConjugatedDoubleBond ConjugatedSingleBond NonConjugatedSingleBond ConjugatedDoubleBond NonConjugatedSingleBond ConjugatedSingleBond AromaticSingleBond AromaticDoubleBond NonConjugatedSingleBond AromaticDoubleBond NonConjugatedSingleBond AromaticSingleBond NonConjugatedSingleBond AromaticSingleBond AromaticDoubleBond ConjugatedSingleBond ConjugatedSingleBond NonConjugatedSingleBond NonConjugatedSingleBond NonConjugatedSingleBond NonConjugatedSingleBond NonConjugatedSingleBond
M  BCL CHI   1   R   4   R   6   R   8   S  44   S  55   S  56   R
M  BCL DBI - - - - - - - - - - E - - -
M  END
> <ConfClashScore>
0.000851962 

> <ConfOneFourInteractionScore>
-0.981363 

> <ConfScore>
-0.0488637 

> <ConfScorePBest>
0.0118025 

> <ConfTolerance>
2.70811 

$$$$
L02.****
  PyMOL2.5          3D                             0

101104  0  0  0  0  0  0  0  0999 V2000
   15.2638   -4.4433   -5.5086 C   0  0  0  1  0  0  0  0  0  0  0  0
   14.8729   -3.7241   -4.8196 H   0  0  0  1  0  0  0  0  0  0  0  0
   14.4230   -4.5321   -6.6809 O   0  0  0  1  0  0  0  0  0  0  0  0
   15.2393   -5.8457   -4.8935 C   0  0  0  1  0  0  0  0  0  0  0  0
   16.0891   -6.4164   -5.2050 H   0  0  0  1  0  0  0  0  0  0  0  0
   13.8728   -5.8120   -6.8361 C   0  0  0  1  0  0  0  0  0  0  0  0
   14.4367   -6.3838   -7.5432 H   0  0  0  1  0  0  0  0  0  0  0  0
   13.9641   -6.4357   -5.4359 C   0  0  0  1  0  0  0  0  0  0  0  0
   13.1240   -6.1578   -4.8343 H   0  0  0  1  0  0  0  0  0  0  0  0
   15.2068   -5.7790   -3.4671 O   0  0  0  1  0  0  0  0  0  0  0  0
   15.8613   -6.3796   -3.1032 H   0  0  0  1  0  0  0  0  0  0  0  0
   10.6229   -4.0899    3.1646 C   0  0  0  1  0  0  0  0  0  0  0  0
    9.8246   -3.5485    3.6277 H   0  0  0  1  0  0  0  0  0  0  0  0
   10.2180   -4.8236    2.4992 H   0  0  0  1  0  0  0  0  0  0  0  0
   11.4481   -4.7869    4.2397 C   0  0  0  1  0  0  0  0  0  0  0  0
   12.4296   -4.9976    3.8695 H   0  0  0  1  0  0  0  0  0  0  0  0
   10.9730   -5.6999    4.5322 H   0  0  0  1  0  0  0  0  0  0  0  0
   11.4559   -3.1653    2.4102 N   0  0  0  1  0  0  0  0  0  0  0  0
   11.3715   -2.2043    2.5825 H   0  0  0  1  0  0  0  0  0  0  0  0
   12.3318   -3.5811    1.4910 C   0  0  0  1  0  0  0  0  0  0  0  0
   12.5420   -4.7682    1.2562 O   0  0  0  1  0  0  0  0  0  0  0  0
   12.3524   -2.1574   -0.5682 C   0  0  0  1  0  0  0  0  0  0  0  0
   11.3636   -1.8167   -0.3422 H   0  0  0  1  0  0  0  0  0  0  0  0
   12.2970   -3.0453   -1.1628 H   0  0  0  1  0  0  0  0  0  0  0  0
   13.0662   -2.4883    0.7391 C   0  0  0  1  0  0  0  0  0  0  0  0
   14.0604   -2.8190    0.5220 H   0  0  0  1  0  0  0  0  0  0  0  0
   13.1072   -1.6097    1.3485 H   0  0  0  1  0  0  0  0  0  0  0  0
   13.0418   -1.1200   -1.3375 N   0  0  0  1  0  0  0  0  0  0  0  0
   12.8902   -0.1799   -1.1056 H   0  0  0  1  0  0  0  0  0  0  0  0
   14.2665   -2.5410   -2.5741 O   0  0  0  1  0  0  0  0  0  0  0  0
   13.8703   -1.4101   -2.3446 C   0  0  0  1  0  0  0  0  0  0  0  0
   12.1915   -0.7877   -4.4723 C   0  0  0  1  0  0  0  0  0  0  0  0
   11.6812   -0.6420   -5.4015 H   0  0  0  1  0  0  0  0  0  0  0  0
   11.6589   -0.2881   -3.6902 H   0  0  0  1  0  0  0  0  0  0  0  0
   13.5167    1.2350   -5.1030 C   0  0  0  1  0  0  0  0  0  0  0  0
   12.9463    1.8315   -4.4221 H   0  0  0  1  0  0  0  0  0  0  0  0
   13.0406    1.2342   -6.0612 H   0  0  0  1  0  0  0  0  0  0  0  0
   14.5021    1.6419   -5.1941 H   0  0  0  1  0  0  0  0  0  0  0  0
   13.6042   -0.2020   -4.5750 C   0  0  0  1  0  0  0  0  0  0  0  0
   14.4084   -1.0382   -5.5773 C   0  0  0  1  0  0  0  0  0  0  0  0
   13.7380   -1.6077   -6.1864 H   0  0  0  1  0  0  0  0  0  0  0  0
   15.0590   -1.7017   -5.0468 H   0  0  0  1  0  0  0  0  0  0  0  0
   14.9896   -0.3887   -6.1980 H   0  0  0  1  0  0  0  0  0  0  0  0
   14.2999   -0.2365   -3.2032 C   0  0  0  1  0  0  0  0  0  0  0  0
   15.3519   -0.3259   -3.3771 H   0  0  0  1  0  0  0  0  0  0  0  0
   14.0412    1.0176   -2.5597 O   0  0  0  1  0  0  0  0  0  0  0  0
   14.4804    1.7219   -3.0421 H   0  0  0  1  0  0  0  0  0  0  0  0
   12.2517   -2.2034   -4.1787 O   0  0  0  1  0  0  0  0  0  0  0  0
   10.2692   -3.2021   -5.1802 O   0  0  0  1  0  0  0  0  0  0  0  0
   11.7406   -4.9900   -6.2505 O   0  0  0  1  0  0  0  0  0  0  0  0
   11.3475   -4.4670   -3.4255 O   0  0  0  0  0  0  0  0  0  0  0  0
   10.1603   -2.3025   -2.7875 O   0  0  0  1  0  0  0  0  0  0  0  0
    9.9841   -3.9309   -7.5900 O   0  0  0  0  0  0  0  0  0  0  0  0
   11.9493   -2.5128   -6.8572 O   0  0  0  1  0  0  0  0  0  0  0  0
   10.9538   -3.0778   -3.7656 P   0  0  0  1  0  0  0  0  0  0  0  0
   11.0133   -3.6220   -6.5053 P   0  0  0  1  0  0  0  0  0  0  0  0
   12.4349   -5.7249   -7.2903 C   0  0  0  1  0  0  0  0  0  0  0  0
   12.0173   -6.7042   -7.3976 H   0  0  0  1  0  0  0  0  0  0  0  0
   12.3689   -5.2043   -8.2228 H   0  0  0  1  0  0  0  0  0  0  0  0
   14.0479   -7.8819   -5.5121 O   0  0  0  1  0  0  0  0  0  0  0  0
   16.5304   -8.3027   -5.7180 O   0  0  0  1  0  0  0  0  0  0  0  0
   14.9840  -10.2590   -4.9709 O   0  5  0  1  0  0  0  0  0  0  0  0
   15.3481   -8.6815   -4.9123 P   0  0  0  1  0  0  0  0  0  0  0  0
   15.5372   -8.3269   -3.3430 O   0  5  0  1  0  0  0  0  0  0  0  0
   16.6295   -4.0699   -5.8827 N   0  0  0  1  0  0  0  0  0  0  0  0
   17.6518   -3.8630   -4.9928 C   0  0  0  1  0  0  0  0  0  0  0  0
   17.1344   -3.7489   -7.1054 C   0  0  0  1  0  0  0  0  0  0  0  0
   16.5689   -3.8058   -7.9763 H   0  0  0  1  0  0  0  0  0  0  0  0
   18.7371   -3.4255   -5.7639 C   0  0  0  1  0  0  0  0  0  0  0  0
   17.6360   -4.0495   -3.6722 N   0  0  0  1  0  0  0  0  0  0  0  0
   18.3818   -3.3644   -7.1024 N   0  0  0  1  0  0  0  0  0  0  0  0
   19.9078   -3.1651   -5.0578 C   0  0  0  1  0  0  0  0  0  0  0  0
   18.8110   -3.7564   -3.1287 C   0  0  0  1  0  0  0  0  0  0  0  0
   18.8714   -3.8745   -2.0972 H   0  0  0  1  0  0  0  0  0  0  0  0
   19.9318   -3.3281   -3.7306 N   0  0  0  1  0  0  0  0  0  0  0  0
   21.1145   -2.8148   -5.6635 N   0  0  0  1  0  0  0  0  0  0  0  0
   21.9020   -2.6233   -5.1125 H   0  0  0  1  0  0  0  0  0  0  0  0
   21.1748   -2.7601   -6.6402 H   0  0  0  1  0  0  0  0  0  0  0  0
   11.5464   -3.6596    5.6506 S   0  0  0  1  0  0  0  0  0  0  0  0
   13.8750   -3.2482    4.4311 O   0  0  0  1  0  0  0  0  0  0  0  0
   13.1755   -2.9719    5.3827 C   0  0  0  1  0  0  0  0  0  0  0  0
   13.5302   -2.0497    6.4548 C   0  0  0  1  0  0  0  0  0  0  0  0
   12.9167   -2.1029    7.2929 H   0  0  0  1  0  0  0  0  0  0  0  0
   14.5094   -1.1501    6.5397 C   0  0  0  1  0  0  0  0  0  0  0  0
   15.1228   -1.0968    5.7015 H   0  0  0  1  0  0  0  0  0  0  0  0
   14.8699   -0.2132    7.6290 C   0  0  0  1  0  0  0  0  0  0  0  0
   15.8994    0.6949    7.4370 C   0  0  0  1  0  0  0  0  0  0  0  0
   16.4102    0.7179    6.5314 H   0  0  0  1  0  0  0  0  0  0  0  0
   14.1875   -0.2402    8.8306 C   0  0  0  1  0  0  0  0  0  0  0  0
   13.4124   -0.9188    8.9732 H   0  0  0  1  0  0  0  0  0  0  0  0
   16.2471    1.5697    8.4490 C   0  0  0  1  0  0  0  0  0  0  0  0
   17.0222    2.2483    8.3063 H   0  0  0  1  0  0  0  0  0  0  0  0
   14.5360    0.6371    9.8456 C   0  0  0  1  0  0  0  0  0  0  0  0
   15.5626    1.5425    9.6541 C   0  0  0  1  0  0  0  0  0  0  0  0
   15.8633    2.3834   10.6735 O   0  0  0  1  0  0  0  0  0  0  0  0
   16.0657    3.2535   10.3221 H   0  0  0  1  0  0  0  0  0  0  0  0
   13.8113    0.6738   10.9890 O   0  0  0  1  0  0  0  0  0  0  0  0
   12.5949   -0.0891   11.0197 C   0  0  0  1  0  0  0  0  0  0  0  0
   12.2461   -0.1647   12.0284 H   0  0  0  1  0  0  0  0  0  0  0  0
   12.7791   -1.0692   10.6319 H   0  0  0  1  0  0  0  0  0  0  0  0
   11.8534    0.3982   10.4217 H   0  0  0  1  0  0  0  0  0  0  0  0
  1  2  1  0  0  0  0
  1  3  1  0  0  0  0
  1  4  1  0  0  0  0
  1 65  1  0  0  0  0
  3  6  1  0  0  0  0
  4  5  1  0  0  0  0
  4  8  1  0  0  0  0
  4 10  1  0  0  0  0
  6  7  1  0  0  0  0
  6  8  1  0  0  0  0
  6 57  1  0  0  0  0
  8  9  1  0  0  0  0
  8 60  1  0  0  0  0
 10 11  1  0  0  0  0
 12 13  1  0  0  0  0
 12 14  1  0  0  0  0
 12 15  1  0  0  0  0
 12 18  1  0  0  0  0
 15 16  1  0  0  0  0
 15 17  1  0  0  0  0
 15 79  1  0  0  0  0
 18 19  1  0  0  0  0
 18 20  1  0  0  0  0
 20 21  2  0  0  0  0
 20 25  1  0  0  0  0
 22 23  1  0  0  0  0
 22 24  1  0  0  0  0
 22 25  1  0  0  0  0
 22 28  1  0  0  0  0
 25 26  1  0  0  0  0
 25 27  1  0  0  0  0
 28 29  1  0  0  0  0
 28 31  1  0  0  0  0
 30 31  2  0  0  0  0
 31 44  1  0  0  0  0
 32 33  1  0  0  0  0
 32 34  1  0  0  0  0
 32 39  1  0  0  0  0
 32 48  1  0  0  0  0
 35 36  1  0  0  0  0
 35 37  1  0  0  0  0
 35 38  1  0  0  0  0
 35 39  1  0  0  0  0
 39 40  1  0  0  0  0
 39 44  1  0  0  0  0
 40 41  1  0  0  0  0
 40 42  1  0  0  0  0
 40 43  1  0  0  0  0
 44 45  1  0  0  0  0
 44 46  1  0  0  0  0
 46 47  1  0  0  0  0
 48 55  1  0  0  0  0
 49 55  1  0  0  0  0
 49 56  1  0  0  0  0
 50 56  1  0  0  0  0
 50 57  1  0  0  0  0
 51 55  1  0  0  0  0
 52 55  2  0  0  0  0
 53 56  1  0  0  0  0
 54 56  2  0  0  0  0
 57 58  1  0  0  0  0
 57 59  1  0  0  0  0
 60 63  1  0  0  0  0
 61 63  2  0  0  0  0
 62 63  1  0  0  0  0
 63 64  1  0  0  0  0
 65 66  1  0  0  0  0
 65 67  1  0  0  0  0
 66 69  2  0  0  0  0
 66 70  1  0  0  0  0
 67 68  1  0  0  0  0
 67 71  2  0  0  0  0
 69 71  1  0  0  0  0
 69 72  1  0  0  0  0
 70 73  2  0  0  0  0
 72 75  2  0  0  0  0
 72 76  1  0  0  0  0
 73 74  1  0  0  0  0
 73 75  1  0  0  0  0
 76 77  1  0  0  0  0
 76 78  1  0  0  0  0
 79 81  1  0  0  0  0
 80 81  2  0  0  0  0
 81 82  1  0  0  0  0
 82 83  1  0  0  0  0
 82 84  2  0  0  0  0
 84 85  1  0  0  0  0
 84 86  1  0  0  0  0
 86 87  1  0  0  0  0
 86 89  2  0  0  0  0
 87 88  1  0  0  0  0
 87 91  2  0  0  0  0
 89 90  1  0  0  0  0
 89 93  1  0  0  0  0
 91 92  1  0  0  0  0
 91 94  1  0  0  0  0
 93 94  2  0  0  0  0
 93 97  1  0  0  0  0
 94 95  1  0  0  0  0
 95 96  1  0  0  0  0
 97 98  1  0  0  0  0
 98 99  1  0  0  0  0
 98100  1  0  0  0  0
 98101  1  0  0  0  0
M  BCL ATM C_TeTeTeTe H_S O_Te2Te2TeTe C_TeTeTeTe H_S C_TeTeTeTe H_S C_TeTeTeTe H_S O_Te2Te2TeTe H_S C_TeTeTeTe H_S H_S C_TeTeTeTe H_S H_S N_TrTrTrPi2 H_S C_TrTrTrPi O_Tr2Tr2TrPi C_TeTeTeTe H_S H_S C_TeTeTeTe H_S H_S N_TrTrTrPi2 H_S O_Tr2Tr2TrPi C_TrTrTrPi C_TeTeTeTe H_S H_S C_TeTeTeTe H_S H_S H_S C_TeTeTeTe C_TeTeTeTe H_S H_S H_S C_TeTeTeTe H_S O_Te2Te2TeTe H_S O_Tr2TrTrPi2 O_Tr2TrTrPi2 O_Tr2TrTrPi2 O_Te2Te2TeTe O_Tr2Tr2TrPi O_Te2Te2TeTe O_Tr2Tr2TrPi P_TeTeTeTePi P_TeTeTeTePi C_TeTeTeTe H_S H_S O_Tr2TrTrPi2 O_Tr2Tr2TrPi O_Te2Te2Te2Te P_TeTeTeTePi O_Te2Te2Te2Te N_TrTrTrPi2 C_TrTrTrPi C_TrTrTrPi H_S C_TrTrTrPi N_Tr2TrTrPi N_Tr2TrTrPi C_TrTrTrPi C_TrTrTrPi H_S N_Tr2TrTrPi N_TrTrTrPi2 H_S H_S S_Te2Te2TeTe O_Tr2Tr2TrPi C_TrTrTrPi C_TrTrTrPi H_S C_TrTrTrPi H_S C_TrTrTrPi C_TrTrTrPi H_S C_TrTrTrPi H_S C_TrTrTrPi H_S C_TrTrTrPi C_TrTrTrPi O_Te2Te2TeTe H_S O_Tr2TrTrPi2 C_TeTeTeTe H_S H_S H_S
M  BCL BND NonConjugatedSingleBond NonConjugatedSingleBondInRing NonConjugatedSingleBondInRing NonConjugatedSingleBond NonConjugatedSingleBondInRing NonConjugatedSingleBond NonConjugatedSingleBondInRing NonConjugatedSingleBond NonConjugatedSingleBond NonConjugatedSingleBondInRing NonConjugatedSingleBond NonConjugatedSingleBond NonConjugatedSingleBond NonConjugatedSingleBond NonConjugatedSingleBond NonConjugatedSingleBond NonConjugatedSingleBond NonConjugatedSingleBond NonConjugatedSingleBond NonConjugatedSingleBond NonConjugatedSingleBond NonConjugatedSingleBond AmideSingleBond ConjugatedDoubleBond NonConjugatedSingleBond NonConjugatedSingleBond NonConjugatedSingleBond NonConjugatedSingleBond NonConjugatedSingleBond NonConjugatedSingleBond NonConjugatedSingleBond NonConjugatedSingleBond AmideSingleBond ConjugatedDoubleBond NonConjugatedSingleBond NonConjugatedSingleBond NonConjugatedSingleBond NonConjugatedSingleBond NonConjugatedSingleBond NonConjugatedSingleBond NonConjugatedSingleBond NonConjugatedSingleBond NonConjugatedSingleBond NonConjugatedSingleBond NonConjugatedSingleBond NonConjugatedSingleBond NonConjugatedSingleBond NonConjugatedSingleBond NonConjugatedSingleBond NonConjugatedSingleBond NonConjugatedSingleBond ConjugatedSingleBond ConjugatedSingleBond ConjugatedSingleBond ConjugatedSingleBond NonConjugatedSingleBond ConjugatedSingleBond ConjugatedDoubleBond ConjugatedSingleBond ConjugatedDoubleBond NonConjugatedSingleBond NonConjugatedSingleBond ConjugatedSingleBond ConjugatedDoubleBond ConjugatedSingleBond ConjugatedSingleBond AromaticSingleBond AromaticSingleBond AromaticDoubleBond AromaticSingleBond NonConjugatedSingleBond AromaticDoubleBond AromaticSingleBond AromaticSingleBond AromaticDoubleBond AromaticDoubleBond ConjugatedSingleBond NonConjugatedSingleBond AromaticSingleBond NonConjugatedSingleBond NonConjugatedSingleBond ConjugatedSingleBond ConjugatedDoubleBond ConjugatedSingleBond NonConjugatedSingleBond ConjugatedDoubleBond NonConjugatedSingleBond ConjugatedSingleBond AromaticSingleBond AromaticDoubleBond NonConjugatedSingleBond AromaticDoubleBond NonConjugatedSingleBond AromaticSingleBond NonConjugatedSingleBond AromaticSingleBond AromaticDoubleBond ConjugatedSingleBond ConjugatedSingleBond NonConjugatedSingleBond NonConjugatedSingleBond NonConjugatedSingleBond NonConjugatedSingleBond NonConjugatedSingleBond
M  BCL CHI   1   R   4   R   6   R   8   S  44   S  55   S  56   R
M  BCL DBI - - - - - - - - - - E - - -
M  END
> <ConfClashScore>
0.00011216 

> <ConfOneFourInteractionScore>
-0.974306 

> <ConfScore>
-0.0475117 

> <ConfScorePBest>
0.0116995 

> <ConfTolerance>
2.84569 

$$$$
L02.****
  PyMOL2.5          3D                             0

101104  0  0  0  0  0  0  0  0999 V2000
   15.2659   -4.4766   -5.5739 C   0  0  0  1  0  0  0  0  0  0  0  0
   14.7929   -3.7511   -4.9456 H   0  0  0  1  0  0  0  0  0  0  0  0
   14.5166   -4.6602   -6.7804 O   0  0  0  1  0  0  0  0  0  0  0  0
   15.2773   -5.8383   -4.8997 C   0  0  0  1  0  0  0  0  0  0  0  0
   16.1283   -5.9497   -4.2607 H   0  0  0  1  0  0  0  0  0  0  0  0
   14.5248   -6.0546   -7.1389 C   0  0  0  1  0  0  0  0  0  0  0  0
   14.9607   -6.1827   -8.1077 H   0  0  0  1  0  0  0  0  0  0  0  0
   15.3560   -6.7738   -6.0943 C   0  0  0  1  0  0  0  0  0  0  0  0
   14.9387   -7.7313   -5.8621 H   0  0  0  1  0  0  0  0  0  0  0  0
   14.0836   -6.0559   -4.1462 O   0  0  0  1  0  0  0  0  0  0  0  0
   13.3223   -5.9977   -4.7281 H   0  0  0  1  0  0  0  0  0  0  0  0
   12.7203   -1.1978   -0.0596 C   0  0  0  1  0  0  0  0  0  0  0  0
   13.1466   -0.2981    0.3325 H   0  0  0  1  0  0  0  0  0  0  0  0
   13.3336   -1.5665   -0.8551 H   0  0  0  1  0  0  0  0  0  0  0  0
   11.3519   -0.8842   -0.6099 C   0  0  0  1  0  0  0  0  0  0  0  0
   10.8990   -0.1386    0.0096 H   0  0  0  1  0  0  0  0  0  0  0  0
   10.7622   -1.7767   -0.5838 H   0  0  0  1  0  0  0  0  0  0  0  0
   12.6809   -2.1952    0.9995 N   0  0  0  1  0  0  0  0  0  0  0  0
   12.1656   -2.0035    1.8107 H   0  0  0  1  0  0  0  0  0  0  0  0
   13.3228   -3.3631    0.9042 C   0  0  0  1  0  0  0  0  0  0  0  0
   14.0784   -3.6208   -0.0182 O   0  0  0  1  0  0  0  0  0  0  0  0
   12.9059   -5.7734    1.6449 C   0  0  0  1  0  0  0  0  0  0  0  0
   12.9094   -6.3794    2.5268 H   0  0  0  1  0  0  0  0  0  0  0  0
   13.6904   -6.0910    0.9902 H   0  0  0  1  0  0  0  0  0  0  0  0
   13.1604   -4.3293    2.0453 C   0  0  0  1  0  0  0  0  0  0  0  0
   12.3340   -4.0013    2.6405 H   0  0  0  1  0  0  0  0  0  0  0  0
   14.0555   -4.3020    2.6309 H   0  0  0  1  0  0  0  0  0  0  0  0
   11.6237   -5.9487    0.9604 N   0  0  0  1  0  0  0  0  0  0  0  0
   10.8718   -5.3717    1.2095 H   0  0  0  1  0  0  0  0  0  0  0  0
   12.3364   -7.6241   -0.3715 O   0  0  0  1  0  0  0  0  0  0  0  0
   11.4431   -6.8680    0.0079 C   0  0  0  1  0  0  0  0  0  0  0  0
   10.5134   -9.0913   -1.8627 C   0  0  0  1  0  0  0  0  0  0  0  0
   10.1784  -10.0995   -1.9896 H   0  0  0  1  0  0  0  0  0  0  0  0
   11.5295   -9.0920   -1.5274 H   0  0  0  1  0  0  0  0  0  0  0  0
    9.7766   -9.1043    0.5409 C   0  0  0  1  0  0  0  0  0  0  0  0
   10.7507   -9.5412    0.6122 H   0  0  0  1  0  0  0  0  0  0  0  0
    9.0351   -9.8716    0.6206 H   0  0  0  1  0  0  0  0  0  0  0  0
    9.6447   -8.3965    1.3325 H   0  0  0  1  0  0  0  0  0  0  0  0
    9.6324   -8.3928   -0.8097 C   0  0  0  1  0  0  0  0  0  0  0  0
    8.1629   -8.4147   -1.2462 C   0  0  0  1  0  0  0  0  0  0  0  0
    7.8270   -9.4280   -1.3189 H   0  0  0  1  0  0  0  0  0  0  0  0
    8.0671   -7.9382   -2.1994 H   0  0  0  1  0  0  0  0  0  0  0  0
    7.5690   -7.8932   -0.5249 H   0  0  0  1  0  0  0  0  0  0  0  0
   10.0465   -6.9309   -0.5939 C   0  0  0  1  0  0  0  0  0  0  0  0
   10.0710   -6.4482   -1.5485 H   0  0  0  1  0  0  0  0  0  0  0  0
    9.0963   -6.2999    0.2350 O   0  0  0  1  0  0  0  0  0  0  0  0
    8.8375   -6.8988    0.9393 H   0  0  0  1  0  0  0  0  0  0  0  0
   10.4316   -8.4080   -3.1132 O   0  0  0  1  0  0  0  0  0  0  0  0
   10.8092   -6.9842   -5.1455 O   0  0  0  1  0  0  0  0  0  0  0  0
   12.3660   -5.5781   -6.4381 O   0  0  0  1  0  0  0  0  0  0  0  0
   11.7479   -6.2090   -3.0682 O   0  0  0  0  0  0  0  0  0  0  0  0
   12.6483   -8.3796   -4.1002 O   0  0  0  1  0  0  0  0  0  0  0  0
   10.0738   -6.0088   -7.3585 O   0  0  0  0  0  0  0  0  0  0  0  0
   10.3829   -4.5815   -5.2903 O   0  0  0  1  0  0  0  0  0  0  0  0
   11.5293   -7.4690   -3.8131 P   0  0  0  1  0  0  0  0  0  0  0  0
   10.8035   -5.7238   -6.1026 P   0  0  0  1  0  0  0  0  0  0  0  0
   13.1242   -6.5940   -7.1444 C   0  0  0  1  0  0  0  0  0  0  0  0
   13.0742   -7.5326   -6.6331 H   0  0  0  1  0  0  0  0  0  0  0  0
   12.7644   -6.7127   -8.1450 H   0  0  0  1  0  0  0  0  0  0  0  0
   16.7267   -6.9380   -6.5399 O   0  0  0  1  0  0  0  0  0  0  0  0
   16.3881   -8.3353   -8.7267 O   0  0  0  1  0  0  0  0  0  0  0  0
   17.1679   -9.5729   -6.7046 O   0  5  0  1  0  0  0  0  0  0  0  0
   17.2134   -8.1678   -7.5096 P   0  0  0  1  0  0  0  0  0  0  0  0
   18.7603   -7.8615   -7.8805 O   0  5  0  1  0  0  0  0  0  0  0  0
   16.6301   -4.0437   -5.8785 N   0  0  0  1  0  0  0  0  0  0  0  0
   17.6538   -3.8478   -4.9878 C   0  0  0  1  0  0  0  0  0  0  0  0
   17.1464   -3.7521   -7.1037 C   0  0  0  1  0  0  0  0  0  0  0  0
   16.5826   -3.8083   -7.9758 H   0  0  0  1  0  0  0  0  0  0  0  0
   18.7516   -3.4466   -5.7610 C   0  0  0  1  0  0  0  0  0  0  0  0
   17.6293   -4.0149   -3.6648 N   0  0  0  1  0  0  0  0  0  0  0  0
   18.4023   -3.3966   -7.1015 N   0  0  0  1  0  0  0  0  0  0  0  0
   19.9256   -3.2033   -5.0544 C   0  0  0  1  0  0  0  0  0  0  0  0
   18.8089   -3.7413   -3.1211 C   0  0  0  1  0  0  0  0  0  0  0  0
   18.8630   -3.8460   -2.0878 H   0  0  0  1  0  0  0  0  0  0  0  0
   19.9414   -3.3477   -3.7249 N   0  0  0  1  0  0  0  0  0  0  0  0
   21.0935   -2.8152   -5.6563 N   0  0  0  1  0  0  0  0  0  0  0  0
   21.1433   -2.7502   -6.6329 H   0  0  0  1  0  0  0  0  0  0  0  0
   21.8790   -2.6025   -5.1104 H   0  0  0  1  0  0  0  0  0  0  0  0
   11.3915   -0.2710   -2.3121 S   0  0  0  1  0  0  0  0  0  0  0  0
    8.9273    0.1440   -1.7753 O   0  0  0  1  0  0  0  0  0  0  0  0
    9.6986    0.1919   -2.5850 C   0  0  0  1  0  0  0  0  0  0  0  0
    9.4992    0.6203   -3.9667 C   0  0  0  1  0  0  0  0  0  0  0  0
   10.3633    0.6343   -4.5451 H   0  0  0  1  0  0  0  0  0  0  0  0
    8.3944    0.9964   -4.6097 C   0  0  0  1  0  0  0  0  0  0  0  0
    7.5164    0.9910   -4.0523 H   0  0  0  1  0  0  0  0  0  0  0  0
    8.2660    1.4224   -6.0270 C   0  0  0  1  0  0  0  0  0  0  0  0
    9.4155    1.4659   -6.8004 C   0  0  0  1  0  0  0  0  0  0  0  0
   10.3183    1.1287   -6.4094 H   0  0  0  1  0  0  0  0  0  0  0  0
    7.0652    1.8655   -6.5486 C   0  0  0  1  0  0  0  0  0  0  0  0
    6.2020    1.8292   -5.9697 H   0  0  0  1  0  0  0  0  0  0  0  0
    9.3621    1.9572   -8.0912 C   0  0  0  1  0  0  0  0  0  0  0  0
   10.2253    1.9935   -8.6700 H   0  0  0  1  0  0  0  0  0  0  0  0
    7.0114    2.3583   -7.8431 C   0  0  0  1  0  0  0  0  0  0  0  0
    8.1576    2.4016   -8.6141 C   0  0  0  1  0  0  0  0  0  0  0  0
    8.1297    2.8740   -9.8841 O   0  0  0  1  0  0  0  0  0  0  0  0
    7.2454    2.7736  -10.2440 H   0  0  0  1  0  0  0  0  0  0  0  0
    5.8979    2.8234   -8.4577 O   0  0  0  1  0  0  0  0  0  0  0  0
    4.6612    2.7300   -7.7336 C   0  0  0  1  0  0  0  0  0  0  0  0
    4.8644    2.6843   -6.6840 H   0  0  0  1  0  0  0  0  0  0  0  0
    4.1380    1.8463   -8.0341 H   0  0  0  1  0  0  0  0  0  0  0  0
    4.0597    3.5898   -7.9430 H   0  0  0  1  0  0  0  0  0  0  0  0
  1  2  1  0  0  0  0
  1  3  1  0  0  0  0
  1  4  1  0  0  0  0
  1 65  1  0  0  0  0
  3  6  1  0  0  0  0
  4  5  1  0  0  0  0
  4  8  1  0  0  0  0
  4 10  1  0  0  0  0
  6  7  1  0  0  0  0
  6  8  1  0  0  0  0
  6 57  1  0  0  0  0
  8  9  1  0  0  0  0
  8 60  1  0  0  0  0
 10 11  1  0  0  0  0
 12 13  1  0  0  0  0
 12 14  1  0  0  0  0
 12 15  1  0  0  0  0
 12 18  1  0  0  0  0
 15 16  1  0  0  0  0
 15 17  1  0  0  0  0
 15 79  1  0  0  0  0
 18 19  1  0  0  0  0
 18 20  1  0  0  0  0
 20 21  2  0  0  0  0
 20 25  1  0  0  0  0
 22 23  1  0  0  0  0
 22 24  1  0  0  0  0
 22 25  1  0  0  0  0
 22 28  1  0  0  0  0
 25 26  1  0  0  0  0
 25 27  1  0  0  0  0
 28 29  1  0  0  0  0
 28 31  1  0  0  0  0
 30 31  2  0  0  0  0
 31 44  1  0  0  0  0
 32 33  1  0  0  0  0
 32 34  1  0  0  0  0
 32 39  1  0  0  0  0
 32 48  1  0  0  0  0
 35 36  1  0  0  0  0
 35 37  1  0  0  0  0
 35 38  1  0  0  0  0
 35 39  1  0  0  0  0
 39 40  1  0  0  0  0
 39 44  1  0  0  0  0
 40 41  1  0  0  0  0
 40 42  1  0  0  0  0
 40 43  1  0  0  0  0
 44 45  1  0  0  0  0
 44 46  1  0  0  0  0
 46 47  1  0  0  0  0
 48 55  1  0  0  0  0
 49 55  1  0  0  0  0
 49 56  1  0  0  0  0
 50 56  1  0  0  0  0
 50 57  1  0  0  0  0
 51 55  1  0  0  0  0
 52 55  2  0  0  0  0
 53 56  1  0  0  0  0
 54 56  2  0  0  0  0
 57 58  1  0  0  0  0
 57 59  1  0  0  0  0
 60 63  1  0  0  0  0
 61 63  2  0  0  0  0
 62 63  1  0  0  0  0
 63 64  1  0  0  0  0
 65 66  1  0  0  0  0
 65 67  1  0  0  0  0
 66 69  2  0  0  0  0
 66 70  1  0  0  0  0
 67 68  1  0  0  0  0
 67 71  2  0  0  0  0
 69 71  1  0  0  0  0
 69 72  1  0  0  0  0
 70 73  2  0  0  0  0
 72 75  2  0  0  0  0
 72 76  1  0  0  0  0
 73 74  1  0  0  0  0
 73 75  1  0  0  0  0
 76 77  1  0  0  0  0
 76 78  1  0  0  0  0
 79 81  1  0  0  0  0
 80 81  2  0  0  0  0
 81 82  1  0  0  0  0
 82 83  1  0  0  0  0
 82 84  2  0  0  0  0
 84 85  1  0  0  0  0
 84 86  1  0  0  0  0
 86 87  1  0  0  0  0
 86 89  2  0  0  0  0
 87 88  1  0  0  0  0
 87 91  2  0  0  0  0
 89 90  1  0  0  0  0
 89 93  1  0  0  0  0
 91 92  1  0  0  0  0
 91 94  1  0  0  0  0
 93 94  2  0  0  0  0
 93 97  1  0  0  0  0
 94 95  1  0  0  0  0
 95 96  1  0  0  0  0
 97 98  1  0  0  0  0
 98 99  1  0  0  0  0
 98100  1  0  0  0  0
 98101  1  0  0  0  0
M  BCL ATM C_TeTeTeTe H_S O_Te2Te2TeTe C_TeTeTeTe H_S C_TeTeTeTe H_S C_TeTeTeTe H_S O_Te2Te2TeTe H_S C_TeTeTeTe H_S H_S C_TeTeTeTe H_S H_S N_TrTrTrPi2 H_S C_TrTrTrPi O_Tr2Tr2TrPi C_TeTeTeTe H_S H_S C_TeTeTeTe H_S H_S N_TrTrTrPi2 H_S O_Tr2Tr2TrPi C_TrTrTrPi C_TeTeTeTe H_S H_S C_TeTeTeTe H_S H_S H_S C_TeTeTeTe C_TeTeTeTe H_S H_S H_S C_TeTeTeTe H_S O_Te2Te2TeTe H_S O_Tr2TrTrPi2 O_Tr2TrTrPi2 O_Tr2TrTrPi2 O_Te2Te2TeTe O_Tr2Tr2TrPi O_Te2Te2TeTe O_Tr2Tr2TrPi P_TeTeTeTePi P_TeTeTeTePi C_TeTeTeTe H_S H_S O_Tr2TrTrPi2 O_Tr2Tr2TrPi O_Te2Te2Te2Te P_TeTeTeTePi O_Te2Te2Te2Te N_TrTrTrPi2 C_TrTrTrPi C_TrTrTrPi H_S C_TrTrTrPi N_Tr2TrTrPi N_Tr2TrTrPi C_TrTrTrPi C_TrTrTrPi H_S N_Tr2TrTrPi N_TrTrTrPi2 H_S H_S S_Te2Te2TeTe O_Tr2Tr2TrPi C_TrTrTrPi C_TrTrTrPi H_S C_TrTrTrPi H_S C_TrTrTrPi C_TrTrTrPi H_S C_TrTrTrPi H_S C_TrTrTrPi H_S C_TrTrTrPi C_TrTrTrPi O_Te2Te2TeTe H_S O_Tr2TrTrPi2 C_TeTeTeTe H_S H_S H_S
M  BCL BND NonConjugatedSingleBond NonConjugatedSingleBondInRing NonConjugatedSingleBondInRing NonConjugatedSingleBond NonConjugatedSingleBondInRing NonConjugatedSingleBond NonConjugatedSingleBondInRing NonConjugatedSingleBond NonConjugatedSingleBond NonConjugatedSingleBondInRing NonConjugatedSingleBond NonConjugatedSingleBond NonConjugatedSingleBond NonConjugatedSingleBond NonConjugatedSingleBond NonConjugatedSingleBond NonConjugatedSingleBond NonConjugatedSingleBond NonConjugatedSingleBond NonConjugatedSingleBond NonConjugatedSingleBond NonConjugatedSingleBond AmideSingleBond ConjugatedDoubleBond NonConjugatedSingleBond NonConjugatedSingleBond NonConjugatedSingleBond NonConjugatedSingleBond NonConjugatedSingleBond NonConjugatedSingleBond NonConjugatedSingleBond NonConjugatedSingleBond AmideSingleBond ConjugatedDoubleBond NonConjugatedSingleBond NonConjugatedSingleBond NonConjugatedSingleBond NonConjugatedSingleBond NonConjugatedSingleBond NonConjugatedSingleBond NonConjugatedSingleBond NonConjugatedSingleBond NonConjugatedSingleBond NonConjugatedSingleBond NonConjugatedSingleBond NonConjugatedSingleBond NonConjugatedSingleBond NonConjugatedSingleBond NonConjugatedSingleBond NonConjugatedSingleBond NonConjugatedSingleBond ConjugatedSingleBond ConjugatedSingleBond ConjugatedSingleBond ConjugatedSingleBond NonConjugatedSingleBond ConjugatedSingleBond ConjugatedDoubleBond ConjugatedSingleBond ConjugatedDoubleBond NonConjugatedSingleBond NonConjugatedSingleBond ConjugatedSingleBond ConjugatedDoubleBond ConjugatedSingleBond ConjugatedSingleBond AromaticSingleBond AromaticSingleBond AromaticDoubleBond AromaticSingleBond NonConjugatedSingleBond AromaticDoubleBond AromaticSingleBond AromaticSingleBond AromaticDoubleBond AromaticDoubleBond ConjugatedSingleBond NonConjugatedSingleBond AromaticSingleBond NonConjugatedSingleBond NonConjugatedSingleBond ConjugatedSingleBond ConjugatedDoubleBond ConjugatedSingleBond NonConjugatedSingleBond ConjugatedDoubleBond NonConjugatedSingleBond ConjugatedSingleBond AromaticSingleBond AromaticDoubleBond NonConjugatedSingleBond AromaticDoubleBond NonConjugatedSingleBond AromaticSingleBond NonConjugatedSingleBond AromaticSingleBond AromaticDoubleBond ConjugatedSingleBond ConjugatedSingleBond NonConjugatedSingleBond NonConjugatedSingleBond NonConjugatedSingleBond NonConjugatedSingleBond NonConjugatedSingleBond
M  BCL CHI   1   R   4   R   6   R   8   S  44   S  55   S  56   R
M  BCL DBI - - - - - - - - - - E - - -
M  END
> <ConfClashScore>
0 

> <ConfOneFourInteractionScore>
-0.980414 

> <ConfScore>
-0.047301 

> <ConfScorePBest>
0.0115965 

> <ConfTolerance>
2.71324 

$$$$
L02.****
  PyMOL2.5          3D                             0

101104  0  0  0  0  0  0  0  0999 V2000
   15.2581   -4.4491   -5.5706 C   0  0  0  1  0  0  0  0  0  0  0  0
   15.2832   -5.4083   -5.0970 H   0  0  0  1  0  0  0  0  0  0  0  0
   14.6440   -3.5178   -4.7250 O   0  0  0  1  0  0  0  0  0  0  0  0
   14.4347   -4.5282   -6.8659 C   0  0  0  1  0  0  0  0  0  0  0  0
   15.0692   -4.5181   -7.7273 H   0  0  0  1  0  0  0  0  0  0  0  0
   13.3999   -3.0306   -5.3138 C   0  0  0  1  0  0  0  0  0  0  0  0
   13.2634   -1.9903   -5.1042 H   0  0  0  1  0  0  0  0  0  0  0  0
   13.5746   -3.2592   -6.7977 C   0  0  0  1  0  0  0  0  0  0  0  0
   12.6291   -3.4121   -7.2748 H   0  0  0  1  0  0  0  0  0  0  0  0
   13.6200   -5.7021   -6.8872 O   0  0  0  1  0  0  0  0  0  0  0  0
   13.1238   -5.7328   -7.7085 H   0  0  0  1  0  0  0  0  0  0  0  0
    3.7903    1.5500   -0.3379 C   0  0  0  1  0  0  0  0  0  0  0  0
    2.9153    1.4866    0.2747 H   0  0  0  1  0  0  0  0  0  0  0  0
    4.3764    2.3932   -0.0372 H   0  0  0  1  0  0  0  0  0  0  0  0
    3.3778    1.7190   -1.7791 C   0  0  0  1  0  0  0  0  0  0  0  0
    4.2659    1.7968   -2.3710 H   0  0  0  1  0  0  0  0  0  0  0  0
    2.8151    2.6256   -1.8586 H   0  0  0  1  0  0  0  0  0  0  0  0
    4.5821    0.3292   -0.1770 N   0  0  0  1  0  0  0  0  0  0  0  0
    5.5597    0.3696   -0.2322 H   0  0  0  1  0  0  0  0  0  0  0  0
    3.9748   -0.8400    0.0448 C   0  0  0  1  0  0  0  0  0  0  0  0
    2.7511   -0.9640    0.0755 O   0  0  0  1  0  0  0  0  0  0  0  0
    4.1639   -3.3568    0.1532 C   0  0  0  1  0  0  0  0  0  0  0  0
    3.7220   -3.4320   -0.8184 H   0  0  0  1  0  0  0  0  0  0  0  0
    3.3967   -3.3925    0.8982 H   0  0  0  1  0  0  0  0  0  0  0  0
    4.8851   -2.0195    0.2592 C   0  0  0  1  0  0  0  0  0  0  0  0
    5.3183   -1.9425    1.2345 H   0  0  0  1  0  0  0  0  0  0  0  0
    5.6594   -1.9907   -0.4788 H   0  0  0  1  0  0  0  0  0  0  0  0
    5.0619   -4.4962    0.3497 N   0  0  0  1  0  0  0  0  0  0  0  0
    5.4855   -4.6403    1.2216 H   0  0  0  1  0  0  0  0  0  0  0  0
    4.9025   -5.1582   -1.8132 O   0  0  0  1  0  0  0  0  0  0  0  0
    5.3076   -5.3483   -0.6671 C   0  0  0  1  0  0  0  0  0  0  0  0
    7.7542   -6.3463   -2.2458 C   0  0  0  1  0  0  0  0  0  0  0  0
    8.6153   -6.2403   -1.6195 H   0  0  0  1  0  0  0  0  0  0  0  0
    7.3309   -5.3824   -2.4371 H   0  0  0  1  0  0  0  0  0  0  0  0
    7.4057   -8.5505   -1.1372 C   0  0  0  1  0  0  0  0  0  0  0  0
    6.7387   -9.3736   -1.2865 H   0  0  0  1  0  0  0  0  0  0  0  0
    7.6747   -8.4927   -0.1032 H   0  0  0  1  0  0  0  0  0  0  0  0
    8.2864   -8.6936   -1.7279 H   0  0  0  1  0  0  0  0  0  0  0  0
    6.7142   -7.2484   -1.5586 C   0  0  0  1  0  0  0  0  0  0  0  0
    5.5880   -7.5894   -2.5413 C   0  0  0  1  0  0  0  0  0  0  0  0
    4.6568   -7.2297   -2.1561 H   0  0  0  1  0  0  0  0  0  0  0  0
    5.5351   -8.6505   -2.6684 H   0  0  0  1  0  0  0  0  0  0  0  0
    5.7860   -7.1260   -3.4852 H   0  0  0  1  0  0  0  0  0  0  0  0
    6.1227   -6.5723   -0.3160 C   0  0  0  1  0  0  0  0  0  0  0  0
    5.4720   -7.2767    0.1586 H   0  0  0  1  0  0  0  0  0  0  0  0
    7.1644   -6.2192    0.5862 O   0  0  0  1  0  0  0  0  0  0  0  0
    6.7967   -5.7258    1.3231 H   0  0  0  1  0  0  0  0  0  0  0  0
    8.1270   -6.9773   -3.4935 O   0  0  0  1  0  0  0  0  0  0  0  0
   10.4833   -6.0768   -3.6183 O   0  0  0  1  0  0  0  0  0  0  0  0
   12.4042   -5.2122   -4.9937 O   0  0  0  1  0  0  0  0  0  0  0  0
    9.3824   -7.3058   -5.5406 O   0  0  0  0  0  0  0  0  0  0  0  0
    8.7125   -4.9131   -4.8525 O   0  0  0  1  0  0  0  0  0  0  0  0
   12.9127   -6.0743   -2.7305 O   0  0  0  0  0  0  0  0  0  0  0  0
   12.1180   -7.6496   -4.4233 O   0  0  0  1  0  0  0  0  0  0  0  0
    9.1301   -6.2772   -4.4833 P   0  0  0  1  0  0  0  0  0  0  0  0
   12.0060   -6.2729   -3.8876 P   0  0  0  1  0  0  0  0  0  0  0  0
   12.2624   -3.7810   -4.8077 C   0  0  0  1  0  0  0  0  0  0  0  0
   11.3824   -3.4552   -5.3218 H   0  0  0  1  0  0  0  0  0  0  0  0
   12.1596   -3.5811   -3.7616 H   0  0  0  1  0  0  0  0  0  0  0  0
   14.2548   -2.1378   -7.4186 O   0  0  0  1  0  0  0  0  0  0  0  0
   12.3705   -1.7520   -9.1400 O   0  0  0  1  0  0  0  0  0  0  0  0
   14.6401   -2.6699   -9.8406 O   0  5  0  1  0  0  0  0  0  0  0  0
   13.8271   -1.6185   -8.9142 P   0  0  0  1  0  0  0  0  0  0  0  0
   14.4658   -0.1502   -9.1601 O   0  5  0  1  0  0  0  0  0  0  0  0
   16.6231   -4.0190   -5.8753 N   0  0  0  1  0  0  0  0  0  0  0  0
   17.6538   -3.8477   -4.9876 C   0  0  0  1  0  0  0  0  0  0  0  0
   17.1334   -3.7059   -7.0977 C   0  0  0  1  0  0  0  0  0  0  0  0
   16.5637   -3.7408   -7.9671 H   0  0  0  1  0  0  0  0  0  0  0  0
   18.7492   -3.4379   -5.7597 C   0  0  0  1  0  0  0  0  0  0  0  0
   17.6367   -4.0413   -3.6681 N   0  0  0  1  0  0  0  0  0  0  0  0
   18.3916   -3.3585   -7.0966 N   0  0  0  1  0  0  0  0  0  0  0  0
   19.9293   -3.2164   -5.0560 C   0  0  0  1  0  0  0  0  0  0  0  0
   18.8216   -3.7863   -3.1267 C   0  0  0  1  0  0  0  0  0  0  0  0
   18.8817   -3.9122   -2.0961 H   0  0  0  1  0  0  0  0  0  0  0  0
   19.9527   -3.3878   -3.7298 N   0  0  0  1  0  0  0  0  0  0  0  0
   21.0958   -2.8236   -5.6577 N   0  0  0  1  0  0  0  0  0  0  0  0
   21.0692   -2.3447   -6.5123 H   0  0  0  1  0  0  0  0  0  0  0  0
   21.9567   -3.0217   -5.2335 H   0  0  0  1  0  0  0  0  0  0  0  0
    2.3723    0.3748   -2.4521 S   0  0  0  1  0  0  0  0  0  0  0  0
    4.6715   -0.4783   -3.4158 O   0  0  0  1  0  0  0  0  0  0  0  0
    3.4406   -0.6107   -3.4099 C   0  0  0  1  0  0  0  0  0  0  0  0
    2.8209   -1.5315   -4.3587 C   0  0  0  1  0  0  0  0  0  0  0  0
    1.7810   -1.5332   -4.3448 H   0  0  0  1  0  0  0  0  0  0  0  0
    3.3654   -2.3693   -5.2385 C   0  0  0  1  0  0  0  0  0  0  0  0
    4.4053   -2.3676   -5.2523 H   0  0  0  1  0  0  0  0  0  0  0  0
    2.7373   -3.3025   -6.2003 C   0  0  0  1  0  0  0  0  0  0  0  0
    1.3778   -3.5715   -6.1738 C   0  0  0  1  0  0  0  0  0  0  0  0
    0.7700   -3.1096   -5.4675 H   0  0  0  1  0  0  0  0  0  0  0  0
    3.5440   -3.9123   -7.1424 C   0  0  0  1  0  0  0  0  0  0  0  0
    4.5634   -3.7074   -7.1648 H   0  0  0  1  0  0  0  0  0  0  0  0
    0.8297   -4.4535   -7.0860 C   0  0  0  1  0  0  0  0  0  0  0  0
   -0.1897   -4.6584   -7.0635 H   0  0  0  1  0  0  0  0  0  0  0  0
    2.9946   -4.7969   -8.0573 C   0  0  0  1  0  0  0  0  0  0  0  0
    1.6390   -5.0650   -8.0308 C   0  0  0  1  0  0  0  0  0  0  0  0
    1.0319   -5.9135   -8.8959 O   0  0  0  1  0  0  0  0  0  0  0  0
    0.4695   -6.5198   -8.4085 H   0  0  0  1  0  0  0  0  0  0  0  0
    3.6833   -5.4558   -9.0193 O   0  0  0  1  0  0  0  0  0  0  0  0
    5.1138   -5.3299   -9.0053 C   0  0  0  1  0  0  0  0  0  0  0  0
    5.5180   -5.9362   -8.2218 H   0  0  0  1  0  0  0  0  0  0  0  0
    5.3799   -4.3071   -8.8378 H   0  0  0  1  0  0  0  0  0  0  0  0
    5.5093   -5.6525   -9.9457 H   0  0  0  1  0  0  0  0  0  0  0  0
  1  2  1  0  0  0  0
  1  3  1  0  0  0  0
  1  4  1  0  0  0  0
  1 65  1  0  0  0  0
  3  6  1  0  0  0  0
  4  5  1  0  0  0  0
  4  8  1  0  0  0  0
  4 10  1  0  0  0  0
  6  7  1  0  0  0  0
  6  8  1  0  0  0  0
  6 57  1  0  0  0  0
  8  9  1  0  0  0  0
  8 60  1  0  0  0  0
 10 11  1  0  0  0  0
 12 13  1  0  0  0  0
 12 14  1  0  0  0  0
 12 15  1  0  0  0  0
 12 18  1  0  0  0  0
 15 16  1  0  0  0  0
 15 17  1  0  0  0  0
 15 79  1  0  0  0  0
 18 19  1  0  0  0  0
 18 20  1  0  0  0  0
 20 21  2  0  0  0  0
 20 25  1  0  0  0  0
 22 23  1  0  0  0  0
 22 24  1  0  0  0  0
 22 25  1  0  0  0  0
 22 28  1  0  0  0  0
 25 26  1  0  0  0  0
 25 27  1  0  0  0  0
 28 29  1  0  0  0  0
 28 31  1  0  0  0  0
 30 31  2  0  0  0  0
 31 44  1  0  0  0  0
 32 33  1  0  0  0  0
 32 34  1  0  0  0  0
 32 39  1  0  0  0  0
 32 48  1  0  0  0  0
 35 36  1  0  0  0  0
 35 37  1  0  0  0  0
 35 38  1  0  0  0  0
 35 39  1  0  0  0  0
 39 40  1  0  0  0  0
 39 44  1  0  0  0  0
 40 41  1  0  0  0  0
 40 42  1  0  0  0  0
 40 43  1  0  0  0  0
 44 45  1  0  0  0  0
 44 46  1  0  0  0  0
 46 47  1  0  0  0  0
 48 55  1  0  0  0  0
 49 55  1  0  0  0  0
 49 56  1  0  0  0  0
 50 56  1  0  0  0  0
 50 57  1  0  0  0  0
 51 55  1  0  0  0  0
 52 55  2  0  0  0  0
 53 56  1  0  0  0  0
 54 56  2  0  0  0  0
 57 58  1  0  0  0  0
 57 59  1  0  0  0  0
 60 63  1  0  0  0  0
 61 63  2  0  0  0  0
 62 63  1  0  0  0  0
 63 64  1  0  0  0  0
 65 66  1  0  0  0  0
 65 67  1  0  0  0  0
 66 69  2  0  0  0  0
 66 70  1  0  0  0  0
 67 68  1  0  0  0  0
 67 71  2  0  0  0  0
 69 71  1  0  0  0  0
 69 72  1  0  0  0  0
 70 73  2  0  0  0  0
 72 75  2  0  0  0  0
 72 76  1  0  0  0  0
 73 74  1  0  0  0  0
 73 75  1  0  0  0  0
 76 77  1  0  0  0  0
 76 78  1  0  0  0  0
 79 81  1  0  0  0  0
 80 81  2  0  0  0  0
 81 82  1  0  0  0  0
 82 83  1  0  0  0  0
 82 84  2  0  0  0  0
 84 85  1  0  0  0  0
 84 86  1  0  0  0  0
 86 87  1  0  0  0  0
 86 89  2  0  0  0  0
 87 88  1  0  0  0  0
 87 91  2  0  0  0  0
 89 90  1  0  0  0  0
 89 93  1  0  0  0  0
 91 92  1  0  0  0  0
 91 94  1  0  0  0  0
 93 94  2  0  0  0  0
 93 97  1  0  0  0  0
 94 95  1  0  0  0  0
 95 96  1  0  0  0  0
 97 98  1  0  0  0  0
 98 99  1  0  0  0  0
 98100  1  0  0  0  0
 98101  1  0  0  0  0
M  BCL ATM C_TeTeTeTe H_S O_Te2Te2TeTe C_TeTeTeTe H_S C_TeTeTeTe H_S C_TeTeTeTe H_S O_Te2Te2TeTe H_S C_TeTeTeTe H_S H_S C_TeTeTeTe H_S H_S N_TrTrTrPi2 H_S C_TrTrTrPi O_Tr2Tr2TrPi C_TeTeTeTe H_S H_S C_TeTeTeTe H_S H_S N_TrTrTrPi2 H_S O_Tr2Tr2TrPi C_TrTrTrPi C_TeTeTeTe H_S H_S C_TeTeTeTe H_S H_S H_S C_TeTeTeTe C_TeTeTeTe H_S H_S H_S C_TeTeTeTe H_S O_Te2Te2TeTe H_S O_Tr2TrTrPi2 O_Tr2TrTrPi2 O_Tr2TrTrPi2 O_Te2Te2TeTe O_Tr2Tr2TrPi O_Te2Te2TeTe O_Tr2Tr2TrPi P_TeTeTeTePi P_TeTeTeTePi C_TeTeTeTe H_S H_S O_Tr2TrTrPi2 O_Tr2Tr2TrPi O_Te2Te2Te2Te P_TeTeTeTePi O_Te2Te2Te2Te N_TrTrTrPi2 C_TrTrTrPi C_TrTrTrPi H_S C_TrTrTrPi N_Tr2TrTrPi N_Tr2TrTrPi C_TrTrTrPi C_TrTrTrPi H_S N_Tr2TrTrPi N_TrTrTrPi2 H_S H_S S_Te2Te2TeTe O_Tr2Tr2TrPi C_TrTrTrPi C_TrTrTrPi H_S C_TrTrTrPi H_S C_TrTrTrPi C_TrTrTrPi H_S C_TrTrTrPi H_S C_TrTrTrPi H_S C_TrTrTrPi C_TrTrTrPi O_Te2Te2TeTe H_S O_Tr2TrTrPi2 C_TeTeTeTe H_S H_S H_S
M  BCL BND NonConjugatedSingleBond NonConjugatedSingleBondInRing NonConjugatedSingleBondInRing NonConjugatedSingleBond NonConjugatedSingleBondInRing NonConjugatedSingleBond NonConjugatedSingleBondInRing NonConjugatedSingleBond NonConjugatedSingleBond NonConjugatedSingleBondInRing NonConjugatedSingleBond NonConjugatedSingleBond NonConjugatedSingleBond NonConjugatedSingleBond NonConjugatedSingleBond NonConjugatedSingleBond NonConjugatedSingleBond NonConjugatedSingleBond NonConjugatedSingleBond NonConjugatedSingleBond NonConjugatedSingleBond NonConjugatedSingleBond AmideSingleBond ConjugatedDoubleBond NonConjugatedSingleBond NonConjugatedSingleBond NonConjugatedSingleBond NonConjugatedSingleBond NonConjugatedSingleBond NonConjugatedSingleBond NonConjugatedSingleBond NonConjugatedSingleBond AmideSingleBond ConjugatedDoubleBond NonConjugatedSingleBond NonConjugatedSingleBond NonConjugatedSingleBond NonConjugatedSingleBond NonConjugatedSingleBond NonConjugatedSingleBond NonConjugatedSingleBond NonConjugatedSingleBond NonConjugatedSingleBond NonConjugatedSingleBond NonConjugatedSingleBond NonConjugatedSingleBond NonConjugatedSingleBond NonConjugatedSingleBond NonConjugatedSingleBond NonConjugatedSingleBond NonConjugatedSingleBond ConjugatedSingleBond ConjugatedSingleBond ConjugatedSingleBond ConjugatedSingleBond NonConjugatedSingleBond ConjugatedSingleBond ConjugatedDoubleBond ConjugatedSingleBond ConjugatedDoubleBond NonConjugatedSingleBond NonConjugatedSingleBond ConjugatedSingleBond ConjugatedDoubleBond ConjugatedSingleBond ConjugatedSingleBond AromaticSingleBond AromaticSingleBond AromaticDoubleBond AromaticSingleBond NonConjugatedSingleBond AromaticDoubleBond AromaticSingleBond AromaticSingleBond AromaticDoubleBond AromaticDoubleBond ConjugatedSingleBond NonConjugatedSingleBond AromaticSingleBond NonConjugatedSingleBond NonConjugatedSingleBond ConjugatedSingleBond ConjugatedDoubleBond ConjugatedSingleBond NonConjugatedSingleBond ConjugatedDoubleBond NonConjugatedSingleBond ConjugatedSingleBond AromaticSingleBond AromaticDoubleBond NonConjugatedSingleBond AromaticDoubleBond NonConjugatedSingleBond AromaticSingleBond NonConjugatedSingleBond AromaticSingleBond AromaticDoubleBond ConjugatedSingleBond ConjugatedSingleBond NonConjugatedSingleBond NonConjugatedSingleBond NonConjugatedSingleBond NonConjugatedSingleBond NonConjugatedSingleBond
M  BCL CHI   1   R   4   R   6   R   8   S  44   S  55   S  56   R
M  BCL DBI - - - - - - - - - - E - - -
M  END
> <ConfClashScore>
0 

> <ConfOneFourInteractionScore>
-0.982585 

> <ConfScore>
-0.0470785 

> <ConfScorePBest>
0.0114935 

> <ConfTolerance>
2.80838 

$$$$
L02.****
  PyMOL2.5          3D                             0

101104  0  0  0  0  0  0  0  0999 V2000
   15.2528   -4.4782   -5.5497 C   0  0  0  1  0  0  0  0  0  0  0  0
   15.2006   -4.7617   -4.5192 H   0  0  0  1  0  0  0  0  0  0  0  0
   14.3291   -3.4623   -5.8325 O   0  0  0  1  0  0  0  0  0  0  0  0
   14.8255   -5.6415   -6.4562 C   0  0  0  1  0  0  0  0  0  0  0  0
   15.2475   -5.5432   -7.4346 H   0  0  0  1  0  0  0  0  0  0  0  0
   13.1200   -3.9818   -6.4302 C   0  0  0  1  0  0  0  0  0  0  0  0
   12.9836   -3.5795   -7.4123 H   0  0  0  1  0  0  0  0  0  0  0  0
   13.3267   -5.4980   -6.4944 C   0  0  0  1  0  0  0  0  0  0  0  0
   12.8733   -5.9830   -5.6553 H   0  0  0  1  0  0  0  0  0  0  0  0
   15.2084   -6.8984   -5.8960 O   0  0  0  1  0  0  0  0  0  0  0  0
   14.5270   -7.5503   -6.0758 H   0  0  0  1  0  0  0  0  0  0  0  0
    7.9690    1.2945   -2.8827 C   0  0  0  1  0  0  0  0  0  0  0  0
    8.8661    0.7959   -3.1853 H   0  0  0  1  0  0  0  0  0  0  0  0
    7.1735    1.0344   -3.5494 H   0  0  0  1  0  0  0  0  0  0  0  0
    8.1899    2.7918   -2.9285 C   0  0  0  1  0  0  0  0  0  0  0  0
    7.3309    3.3011   -2.5441 H   0  0  0  1  0  0  0  0  0  0  0  0
    8.3700    3.1053   -3.9355 H   0  0  0  1  0  0  0  0  0  0  0  0
    7.6178    0.8752   -1.5247 N   0  0  0  1  0  0  0  0  0  0  0  0
    8.0115    1.3348   -0.7539 H   0  0  0  1  0  0  0  0  0  0  0  0
    6.7533   -0.1425   -1.3322 C   0  0  0  1  0  0  0  0  0  0  0  0
    6.3693   -0.8367   -2.2726 O   0  0  0  1  0  0  0  0  0  0  0  0
    7.3775   -0.3174    1.1151 C   0  0  0  1  0  0  0  0  0  0  0  0
    6.9264   -0.3284    2.0853 H   0  0  0  1  0  0  0  0  0  0  0  0
    7.8946    0.6084    0.9722 H   0  0  0  1  0  0  0  0  0  0  0  0
    6.2682   -0.4066    0.0752 C   0  0  0  1  0  0  0  0  0  0  0  0
    5.8459   -1.3890    0.1112 H   0  0  0  1  0  0  0  0  0  0  0  0
    5.5158    0.3147    0.3171 H   0  0  0  1  0  0  0  0  0  0  0  0
    8.3593   -1.4018    1.0565 N   0  0  0  1  0  0  0  0  0  0  0  0
    9.2370   -1.2241    0.6584 H   0  0  0  1  0  0  0  0  0  0  0  0
    7.0692   -2.9061    2.1155 O   0  0  0  1  0  0  0  0  0  0  0  0
    8.1003   -2.6252    1.5269 C   0  0  0  1  0  0  0  0  0  0  0  0
    8.5426   -4.0158   -1.1048 C   0  0  0  1  0  0  0  0  0  0  0  0
    9.4602   -3.5628   -1.4173 H   0  0  0  1  0  0  0  0  0  0  0  0
    7.7900   -3.2626   -0.9995 H   0  0  0  1  0  0  0  0  0  0  0  0
    9.8303   -5.8035    0.1800 C   0  0  0  1  0  0  0  0  0  0  0  0
   10.7814   -5.3872    0.4387 H   0  0  0  1  0  0  0  0  0  0  0  0
    9.8722   -6.1979   -0.8138 H   0  0  0  1  0  0  0  0  0  0  0  0
    9.5862   -6.5880    0.8656 H   0  0  0  1  0  0  0  0  0  0  0  0
    8.7569   -4.7108    0.2511 C   0  0  0  1  0  0  0  0  0  0  0  0
    7.4338   -5.3277    0.7109 C   0  0  0  1  0  0  0  0  0  0  0  0
    7.1808   -6.1477    0.0717 H   0  0  0  1  0  0  0  0  0  0  0  0
    6.6612   -4.5888    0.6655 H   0  0  0  1  0  0  0  0  0  0  0  0
    7.5344   -5.6779    1.7169 H   0  0  0  1  0  0  0  0  0  0  0  0
    9.1762   -3.6649    1.2853 C   0  0  0  1  0  0  0  0  0  0  0  0
    9.3370   -4.1796    2.2095 H   0  0  0  1  0  0  0  0  0  0  0  0
   10.3815   -3.0038    0.9192 O   0  0  0  1  0  0  0  0  0  0  0  0
   11.1325   -3.4918    1.2649 H   0  0  0  1  0  0  0  0  0  0  0  0
    8.1206   -4.9748   -2.1028 O   0  0  0  1  0  0  0  0  0  0  0  0
    9.6286   -4.8531   -3.9948 O   0  0  0  1  0  0  0  0  0  0  0  0
   12.0085   -4.4553   -4.3866 O   0  0  0  1  0  0  0  0  0  0  0  0
    7.3012   -5.5861   -4.3955 O   0  0  0  0  0  0  0  0  0  0  0  0
    7.8267   -3.1362   -3.8423 O   0  0  0  1  0  0  0  0  0  0  0  0
   10.7384   -2.8600   -2.8828 O   0  0  0  0  0  0  0  0  0  0  0  0
   11.2097   -5.2713   -2.1306 O   0  0  0  1  0  0  0  0  0  0  0  0
    8.1556   -4.5486   -3.6260 P   0  0  0  1  0  0  0  0  0  0  0  0
   10.9001   -4.2961   -3.2030 P   0  0  0  1  0  0  0  0  0  0  0  0
   11.9335   -3.6498   -5.5863 C   0  0  0  1  0  0  0  0  0  0  0  0
   11.0331   -3.8731   -6.1195 H   0  0  0  1  0  0  0  0  0  0  0  0
   11.9483   -2.6112   -5.3294 H   0  0  0  1  0  0  0  0  0  0  0  0
   12.7832   -6.0452   -7.7212 O   0  0  0  1  0  0  0  0  0  0  0  0
   11.8991   -8.1921   -6.5236 O   0  0  0  1  0  0  0  0  0  0  0  0
   11.5672   -8.0736   -9.0984 O   0  5  0  1  0  0  0  0  0  0  0  0
   11.7210   -7.2942   -7.6866 P   0  0  0  1  0  0  0  0  0  0  0  0
   10.2783   -6.5999   -7.4397 O   0  5  0  1  0  0  0  0  0  0  0  0
   16.6135   -4.0450   -5.8688 N   0  0  0  1  0  0  0  0  0  0  0  0
   17.6469   -3.8496   -4.9893 C   0  0  0  1  0  0  0  0  0  0  0  0
   17.1164   -3.7525   -7.0994 C   0  0  0  1  0  0  0  0  0  0  0  0
   16.5432   -3.8083   -7.9654 H   0  0  0  1  0  0  0  0  0  0  0  0
   18.7361   -3.4477   -5.7741 C   0  0  0  1  0  0  0  0  0  0  0  0
   17.6368   -4.0175   -3.6661 N   0  0  0  1  0  0  0  0  0  0  0  0
   18.3722   -3.3969   -7.1107 N   0  0  0  1  0  0  0  0  0  0  0  0
   19.9178   -3.2047   -5.0802 C   0  0  0  1  0  0  0  0  0  0  0  0
   18.8222   -3.7441   -3.1352 C   0  0  0  1  0  0  0  0  0  0  0  0
   18.8877   -3.8494   -2.1026 H   0  0  0  1  0  0  0  0  0  0  0  0
   19.9480   -3.3500   -3.7510 N   0  0  0  1  0  0  0  0  0  0  0  0
   21.1243   -2.8092   -5.6475 N   0  0  0  1  0  0  0  0  0  0  0  0
   21.9040   -2.6461   -5.0767 H   0  0  0  1  0  0  0  0  0  0  0  0
   21.1947   -2.6936   -6.6181 H   0  0  0  1  0  0  0  0  0  0  0  0
    9.6341    3.1493   -1.9002 S   0  0  0  1  0  0  0  0  0  0  0  0
    8.9917    5.3163   -2.5977 O   0  0  0  1  0  0  0  0  0  0  0  0
    9.8442    4.8907   -2.0328 C   0  0  0  1  0  0  0  0  0  0  0  0
   11.2032    5.2796   -1.6539 C   0  0  0  1  0  0  0  0  0  0  0  0
   11.7675    4.6565   -1.0416 H   0  0  0  1  0  0  0  0  0  0  0  0
   11.7214    6.4263   -2.0885 C   0  0  0  1  0  0  0  0  0  0  0  0
   11.0882    6.9859   -2.6946 H   0  0  0  1  0  0  0  0  0  0  0  0
   13.0487    7.0374   -1.8527 C   0  0  0  1  0  0  0  0  0  0  0  0
   13.9006    6.5718   -0.8634 C   0  0  0  1  0  0  0  0  0  0  0  0
   13.6145    5.7701   -0.2658 H   0  0  0  1  0  0  0  0  0  0  0  0
   13.4311    8.0993   -2.6503 C   0  0  0  1  0  0  0  0  0  0  0  0
   12.7936    8.4461   -3.3953 H   0  0  0  1  0  0  0  0  0  0  0  0
   15.1302    7.1729   -0.6708 C   0  0  0  1  0  0  0  0  0  0  0  0
   15.7677    6.8261    0.0741 H   0  0  0  1  0  0  0  0  0  0  0  0
   14.6643    8.7023   -2.4574 C   0  0  0  1  0  0  0  0  0  0  0  0
   15.5137    8.2380   -1.4709 C   0  0  0  1  0  0  0  0  0  0  0  0
   16.7107    8.8562   -1.3238 O   0  0  0  1  0  0  0  0  0  0  0  0
   17.3896    8.2015   -1.1446 H   0  0  0  1  0  0  0  0  0  0  0  0
   15.1437    9.7489   -3.1707 O   0  0  0  1  0  0  0  0  0  0  0  0
   14.3803   10.1700   -4.3119 C   0  0  0  1  0  0  0  0  0  0  0  0
   15.0426   10.3931   -5.1221 H   0  0  0  1  0  0  0  0  0  0  0  0
   13.8169   11.0443   -4.0609 H   0  0  0  1  0  0  0  0  0  0  0  0
   13.7125    9.3862   -4.6029 H   0  0  0  1  0  0  0  0  0  0  0  0
  1  2  1  0  0  0  0
  1  3  1  0  0  0  0
  1  4  1  0  0  0  0
  1 65  1  0  0  0  0
  3  6  1  0  0  0  0
  4  5  1  0  0  0  0
  4  8  1  0  0  0  0
  4 10  1  0  0  0  0
  6  7  1  0  0  0  0
  6  8  1  0  0  0  0
  6 57  1  0  0  0  0
  8  9  1  0  0  0  0
  8 60  1  0  0  0  0
 10 11  1  0  0  0  0
 12 13  1  0  0  0  0
 12 14  1  0  0  0  0
 12 15  1  0  0  0  0
 12 18  1  0  0  0  0
 15 16  1  0  0  0  0
 15 17  1  0  0  0  0
 15 79  1  0  0  0  0
 18 19  1  0  0  0  0
 18 20  1  0  0  0  0
 20 21  2  0  0  0  0
 20 25  1  0  0  0  0
 22 23  1  0  0  0  0
 22 24  1  0  0  0  0
 22 25  1  0  0  0  0
 22 28  1  0  0  0  0
 25 26  1  0  0  0  0
 25 27  1  0  0  0  0
 28 29  1  0  0  0  0
 28 31  1  0  0  0  0
 30 31  2  0  0  0  0
 31 44  1  0  0  0  0
 32 33  1  0  0  0  0
 32 34  1  0  0  0  0
 32 39  1  0  0  0  0
 32 48  1  0  0  0  0
 35 36  1  0  0  0  0
 35 37  1  0  0  0  0
 35 38  1  0  0  0  0
 35 39  1  0  0  0  0
 39 40  1  0  0  0  0
 39 44  1  0  0  0  0
 40 41  1  0  0  0  0
 40 42  1  0  0  0  0
 40 43  1  0  0  0  0
 44 45  1  0  0  0  0
 44 46  1  0  0  0  0
 46 47  1  0  0  0  0
 48 55  1  0  0  0  0
 49 55  1  0  0  0  0
 49 56  1  0  0  0  0
 50 56  1  0  0  0  0
 50 57  1  0  0  0  0
 51 55  1  0  0  0  0
 52 55  2  0  0  0  0
 53 56  1  0  0  0  0
 54 56  2  0  0  0  0
 57 58  1  0  0  0  0
 57 59  1  0  0  0  0
 60 63  1  0  0  0  0
 61 63  2  0  0  0  0
 62 63  1  0  0  0  0
 63 64  1  0  0  0  0
 65 66  1  0  0  0  0
 65 67  1  0  0  0  0
 66 69  2  0  0  0  0
 66 70  1  0  0  0  0
 67 68  1  0  0  0  0
 67 71  2  0  0  0  0
 69 71  1  0  0  0  0
 69 72  1  0  0  0  0
 70 73  2  0  0  0  0
 72 75  2  0  0  0  0
 72 76  1  0  0  0  0
 73 74  1  0  0  0  0
 73 75  1  0  0  0  0
 76 77  1  0  0  0  0
 76 78  1  0  0  0  0
 79 81  1  0  0  0  0
 80 81  2  0  0  0  0
 81 82  1  0  0  0  0
 82 83  1  0  0  0  0
 82 84  2  0  0  0  0
 84 85  1  0  0  0  0
 84 86  1  0  0  0  0
 86 87  1  0  0  0  0
 86 89  2  0  0  0  0
 87 88  1  0  0  0  0
 87 91  2  0  0  0  0
 89 90  1  0  0  0  0
 89 93  1  0  0  0  0
 91 92  1  0  0  0  0
 91 94  1  0  0  0  0
 93 94  2  0  0  0  0
 93 97  1  0  0  0  0
 94 95  1  0  0  0  0
 95 96  1  0  0  0  0
 97 98  1  0  0  0  0
 98 99  1  0  0  0  0
 98100  1  0  0  0  0
 98101  1  0  0  0  0
M  BCL ATM C_TeTeTeTe H_S O_Te2Te2TeTe C_TeTeTeTe H_S C_TeTeTeTe H_S C_TeTeTeTe H_S O_Te2Te2TeTe H_S C_TeTeTeTe H_S H_S C_TeTeTeTe H_S H_S N_TrTrTrPi2 H_S C_TrTrTrPi O_Tr2Tr2TrPi C_TeTeTeTe H_S H_S C_TeTeTeTe H_S H_S N_TrTrTrPi2 H_S O_Tr2Tr2TrPi C_TrTrTrPi C_TeTeTeTe H_S H_S C_TeTeTeTe H_S H_S H_S C_TeTeTeTe C_TeTeTeTe H_S H_S H_S C_TeTeTeTe H_S O_Te2Te2TeTe H_S O_Tr2TrTrPi2 O_Tr2TrTrPi2 O_Tr2TrTrPi2 O_Te2Te2TeTe O_Tr2Tr2TrPi O_Te2Te2TeTe O_Tr2Tr2TrPi P_TeTeTeTePi P_TeTeTeTePi C_TeTeTeTe H_S H_S O_Tr2TrTrPi2 O_Tr2Tr2TrPi O_Te2Te2Te2Te P_TeTeTeTePi O_Te2Te2Te2Te N_TrTrTrPi2 C_TrTrTrPi C_TrTrTrPi H_S C_TrTrTrPi N_Tr2TrTrPi N_Tr2TrTrPi C_TrTrTrPi C_TrTrTrPi H_S N_Tr2TrTrPi N_TrTrTrPi2 H_S H_S S_Te2Te2TeTe O_Tr2Tr2TrPi C_TrTrTrPi C_TrTrTrPi H_S C_TrTrTrPi H_S C_TrTrTrPi C_TrTrTrPi H_S C_TrTrTrPi H_S C_TrTrTrPi H_S C_TrTrTrPi C_TrTrTrPi O_Te2Te2TeTe H_S O_Tr2TrTrPi2 C_TeTeTeTe H_S H_S H_S
M  BCL BND NonConjugatedSingleBond NonConjugatedSingleBondInRing NonConjugatedSingleBondInRing NonConjugatedSingleBond NonConjugatedSingleBondInRing NonConjugatedSingleBond NonConjugatedSingleBondInRing NonConjugatedSingleBond NonConjugatedSingleBond NonConjugatedSingleBondInRing NonConjugatedSingleBond NonConjugatedSingleBond NonConjugatedSingleBond NonConjugatedSingleBond NonConjugatedSingleBond NonConjugatedSingleBond NonConjugatedSingleBond NonConjugatedSingleBond NonConjugatedSingleBond NonConjugatedSingleBond NonConjugatedSingleBond NonConjugatedSingleBond AmideSingleBond ConjugatedDoubleBond NonConjugatedSingleBond NonConjugatedSingleBond NonConjugatedSingleBond NonConjugatedSingleBond NonConjugatedSingleBond NonConjugatedSingleBond NonConjugatedSingleBond NonConjugatedSingleBond AmideSingleBond ConjugatedDoubleBond NonConjugatedSingleBond NonConjugatedSingleBond NonConjugatedSingleBond NonConjugatedSingleBond NonConjugatedSingleBond NonConjugatedSingleBond NonConjugatedSingleBond NonConjugatedSingleBond NonConjugatedSingleBond NonConjugatedSingleBond NonConjugatedSingleBond NonConjugatedSingleBond NonConjugatedSingleBond NonConjugatedSingleBond NonConjugatedSingleBond NonConjugatedSingleBond NonConjugatedSingleBond ConjugatedSingleBond ConjugatedSingleBond ConjugatedSingleBond ConjugatedSingleBond NonConjugatedSingleBond ConjugatedSingleBond ConjugatedDoubleBond ConjugatedSingleBond ConjugatedDoubleBond NonConjugatedSingleBond NonConjugatedSingleBond ConjugatedSingleBond ConjugatedDoubleBond ConjugatedSingleBond ConjugatedSingleBond AromaticSingleBond AromaticSingleBond AromaticDoubleBond AromaticSingleBond NonConjugatedSingleBond AromaticDoubleBond AromaticSingleBond AromaticSingleBond AromaticDoubleBond AromaticDoubleBond ConjugatedSingleBond NonConjugatedSingleBond AromaticSingleBond NonConjugatedSingleBond NonConjugatedSingleBond ConjugatedSingleBond ConjugatedDoubleBond ConjugatedSingleBond NonConjugatedSingleBond ConjugatedDoubleBond NonConjugatedSingleBond ConjugatedSingleBond AromaticSingleBond AromaticDoubleBond NonConjugatedSingleBond AromaticDoubleBond NonConjugatedSingleBond AromaticSingleBond NonConjugatedSingleBond AromaticSingleBond AromaticDoubleBond ConjugatedSingleBond ConjugatedSingleBond NonConjugatedSingleBond NonConjugatedSingleBond NonConjugatedSingleBond NonConjugatedSingleBond NonConjugatedSingleBond
M  BCL CHI   1   R   4   R   6   R   8   S  44   S  55   S  56   R
M  BCL DBI - - - - - - - - - - E - - -
M  END
> <ConfClashScore>
0 

> <ConfOneFourInteractionScore>
-0.97562 

> <ConfScore>
-0.0468761 

> <ConfScorePBest>
0.0113905 

> <ConfTolerance>
2.72636 

$$$$
L02.****
  PyMOL2.5          3D                             0

101104  0  0  0  0  0  0  0  0999 V2000
   15.2661   -4.4774   -5.5740 C   0  0  0  1  0  0  0  0  0  0  0  0
   14.6770   -3.6299   -5.2920 H   0  0  0  1  0  0  0  0  0  0  0  0
   14.6875   -5.1153   -6.7220 O   0  0  0  1  0  0  0  0  0  0  0  0
   15.2850   -5.4809   -4.4588 C   0  0  0  1  0  0  0  0  0  0  0  0
   16.2859   -5.6461   -4.1186 H   0  0  0  1  0  0  0  0  0  0  0  0
   13.9361   -6.2520   -6.2329 C   0  0  0  1  0  0  0  0  0  0  0  0
   13.8685   -7.0112   -6.9839 H   0  0  0  1  0  0  0  0  0  0  0  0
   14.7143   -6.7414   -5.0588 C   0  0  0  1  0  0  0  0  0  0  0  0
   14.0767   -7.2418   -4.3602 H   0  0  0  1  0  0  0  0  0  0  0  0
   14.4783   -5.0342   -3.3680 O   0  0  0  1  0  0  0  0  0  0  0  0
   14.3489   -4.0852   -3.4327 H   0  0  0  1  0  0  0  0  0  0  0  0
   16.8055    0.0879   -8.8457 C   0  0  0  1  0  0  0  0  0  0  0  0
   16.7505    0.8700   -8.1176 H   0  0  0  1  0  0  0  0  0  0  0  0
   17.1705   -0.8054   -8.3835 H   0  0  0  1  0  0  0  0  0  0  0  0
   17.7738    0.5027   -9.9298 C   0  0  0  1  0  0  0  0  0  0  0  0
   17.6618    1.5548  -10.0892 H   0  0  0  1  0  0  0  0  0  0  0  0
   17.5148   -0.0237  -10.8246 H   0  0  0  1  0  0  0  0  0  0  0  0
   15.4598   -0.1674   -9.3626 N   0  0  0  1  0  0  0  0  0  0  0  0
   14.6935    0.3189   -8.9927 H   0  0  0  1  0  0  0  0  0  0  0  0
   15.2745   -1.0602  -10.3354 C   0  0  0  1  0  0  0  0  0  0  0  0
   16.1903   -1.7169  -10.8237 O   0  0  0  1  0  0  0  0  0  0  0  0
   13.1318   -2.3846  -10.1443 C   0  0  0  1  0  0  0  0  0  0  0  0
   12.9362   -2.1378   -9.1217 H   0  0  0  1  0  0  0  0  0  0  0  0
   13.7485   -3.2579  -10.1893 H   0  0  0  1  0  0  0  0  0  0  0  0
   13.8559   -1.2230  -10.8121 C   0  0  0  1  0  0  0  0  0  0  0  0
   13.8689   -1.3919  -11.8686 H   0  0  0  1  0  0  0  0  0  0  0  0
   13.3201   -0.3211  -10.6011 H   0  0  0  1  0  0  0  0  0  0  0  0
   11.8724   -2.6506  -10.8234 N   0  0  0  1  0  0  0  0  0  0  0  0
   11.0574   -2.2163  -10.4955 H   0  0  0  1  0  0  0  0  0  0  0  0
   12.7757   -4.1232  -12.2500 O   0  0  0  1  0  0  0  0  0  0  0  0
   11.7856   -3.4970  -11.9182 C   0  0  0  1  0  0  0  0  0  0  0  0
    9.8752   -5.4759  -11.1538 C   0  0  0  1  0  0  0  0  0  0  0  0
   10.8392   -5.3091  -10.7204 H   0  0  0  1  0  0  0  0  0  0  0  0
    9.6312   -6.5159  -11.0925 H   0  0  0  1  0  0  0  0  0  0  0  0
    8.4591   -5.0067  -13.2110 C   0  0  0  1  0  0  0  0  0  0  0  0
    8.4440   -4.4024  -14.0940 H   0  0  0  1  0  0  0  0  0  0  0  0
    7.7807   -4.6009  -12.4899 H   0  0  0  1  0  0  0  0  0  0  0  0
    8.1635   -6.0051  -13.4574 H   0  0  0  1  0  0  0  0  0  0  0  0
    9.8765   -5.0233  -12.6263 C   0  0  0  1  0  0  0  0  0  0  0  0
   10.7465   -5.9544  -13.4786 C   0  0  0  1  0  0  0  0  0  0  0  0
   11.5601   -6.3221  -12.8889 H   0  0  0  1  0  0  0  0  0  0  0  0
   11.1307   -5.4137  -14.3182 H   0  0  0  1  0  0  0  0  0  0  0  0
   10.1560   -6.7772  -13.8236 H   0  0  0  1  0  0  0  0  0  0  0  0
   10.4664   -3.6114  -12.6592 C   0  0  0  1  0  0  0  0  0  0  0  0
   10.6449   -3.3596  -13.6837 H   0  0  0  1  0  0  0  0  0  0  0  0
    9.4824   -2.7257  -12.1301 O   0  0  0  1  0  0  0  0  0  0  0  0
    9.7636   -1.8176  -12.2638 H   0  0  0  1  0  0  0  0  0  0  0  0
    8.8785   -4.6939  -10.4546 O   0  0  0  1  0  0  0  0  0  0  0  0
    9.9821   -4.2279   -8.2399 O   0  0  0  1  0  0  0  0  0  0  0  0
   11.8677   -5.2551   -6.9440 O   0  0  0  1  0  0  0  0  0  0  0  0
    7.4882   -3.9510   -8.3721 O   0  0  0  0  0  0  0  0  0  0  0  0
    8.5028   -6.2050   -8.4611 O   0  0  0  1  0  0  0  0  0  0  0  0
   11.2780   -2.9035   -6.5024 O   0  0  0  0  0  0  0  0  0  0  0  0
    9.6155   -4.7803   -5.8900 O   0  0  0  1  0  0  0  0  0  0  0  0
    8.6137   -4.8175   -8.8693 P   0  0  0  1  0  0  0  0  0  0  0  0
   10.6597   -4.2215   -6.7688 P   0  0  0  1  0  0  0  0  0  0  0  0
   12.5790   -5.8418   -5.8236 C   0  0  0  1  0  0  0  0  0  0  0  0
   12.6513   -5.1212   -5.0359 H   0  0  0  1  0  0  0  0  0  0  0  0
   12.0419   -6.6991   -5.4752 H   0  0  0  1  0  0  0  0  0  0  0  0
   15.7733   -7.6404   -5.4782 O   0  0  0  1  0  0  0  0  0  0  0  0
   16.6913   -8.2926   -3.0576 O   0  0  0  1  0  0  0  0  0  0  0  0
   18.0478   -6.7534   -4.5102 O   0  5  0  1  0  0  0  0  0  0  0  0
   17.0166   -8.0023   -4.4719 P   0  0  0  1  0  0  0  0  0  0  0  0
   17.9091   -9.1950   -5.1086 O   0  5  0  1  0  0  0  0  0  0  0  0
   16.6303   -4.0445   -5.8785 N   0  0  0  1  0  0  0  0  0  0  0  0
   17.6538   -3.8478   -4.9878 C   0  0  0  1  0  0  0  0  0  0  0  0
   17.1468   -3.7536   -7.1038 C   0  0  0  1  0  0  0  0  0  0  0  0
   16.5832   -3.8105   -7.9761 H   0  0  0  1  0  0  0  0  0  0  0  0
   18.7516   -3.4469   -5.7610 C   0  0  0  1  0  0  0  0  0  0  0  0
   17.6290   -4.0141   -3.6647 N   0  0  0  1  0  0  0  0  0  0  0  0
   18.4026   -3.3978   -7.1017 N   0  0  0  1  0  0  0  0  0  0  0  0
   19.9255   -3.2028   -5.0543 C   0  0  0  1  0  0  0  0  0  0  0  0
   18.8085   -3.7398   -3.1209 C   0  0  0  1  0  0  0  0  0  0  0  0
   18.8624   -3.8438   -2.0875 H   0  0  0  1  0  0  0  0  0  0  0  0
   19.9410   -3.3464   -3.7247 N   0  0  0  1  0  0  0  0  0  0  0  0
   21.0934   -2.8149   -5.6563 N   0  0  0  1  0  0  0  0  0  0  0  0
   21.1473   -2.7631   -6.6335 H   0  0  0  1  0  0  0  0  0  0  0  0
   21.8749   -2.5892   -5.1098 H   0  0  0  1  0  0  0  0  0  0  0  0
   19.5116    0.1737   -9.5710 S   0  0  0  1  0  0  0  0  0  0  0  0
   19.4754    1.5347  -11.4996 O   0  0  0  1  0  0  0  0  0  0  0  0
   20.2646    1.0647  -10.8806 C   0  0  0  1  0  0  0  0  0  0  0  0
   21.6753    0.7106  -11.0032 C   0  0  0  1  0  0  0  0  0  0  0  0
   22.1171    0.2928  -10.1595 H   0  0  0  1  0  0  0  0  0  0  0  0
   22.4652    0.8583  -12.0660 C   0  0  0  1  0  0  0  0  0  0  0  0
   22.0641    1.2725  -12.9316 H   0  0  0  1  0  0  0  0  0  0  0  0
   23.8912    0.4570  -12.0656 C   0  0  0  1  0  0  0  0  0  0  0  0
   24.6464    0.6160  -13.2170 C   0  0  0  1  0  0  0  0  0  0  0  0
   24.2124    1.0184  -14.0722 H   0  0  0  1  0  0  0  0  0  0  0  0
   24.4695   -0.0728  -10.9277 C   0  0  0  1  0  0  0  0  0  0  0  0
   23.9039   -0.1883  -10.0626 H   0  0  0  1  0  0  0  0  0  0  0  0
   25.9763    0.2397  -13.2288 C   0  0  0  1  0  0  0  0  0  0  0  0
   26.5419    0.3553  -14.0939 H   0  0  0  1  0  0  0  0  0  0  0  0
   25.8032   -0.4502  -10.9392 C   0  0  0  1  0  0  0  0  0  0  0  0
   26.5562   -0.2917  -12.0873 C   0  0  0  1  0  0  0  0  0  0  0  0
   27.8633   -0.6482  -12.1221 O   0  0  0  1  0  0  0  0  0  0  0  0
   28.4092    0.1155  -11.9213 H   0  0  0  1  0  0  0  0  0  0  0  0
   26.3376   -1.0593   -9.8583 O   0  0  0  1  0  0  0  0  0  0  0  0
   25.5920   -1.0942   -8.6192 C   0  0  0  1  0  0  0  0  0  0  0  0
   25.7743   -0.1959   -8.0672 H   0  0  0  1  0  0  0  0  0  0  0  0
   25.9033   -1.9381   -8.0396 H   0  0  0  1  0  0  0  0  0  0  0  0
   24.5469   -1.1746   -8.8342 H   0  0  0  1  0  0  0  0  0  0  0  0
  1  2  1  0  0  0  0
  1  3  1  0  0  0  0
  1  4  1  0  0  0  0
  1 65  1  0  0  0  0
  3  6  1  0  0  0  0
  4  5  1  0  0  0  0
  4  8  1  0  0  0  0
  4 10  1  0  0  0  0
  6  7  1  0  0  0  0
  6  8  1  0  0  0  0
  6 57  1  0  0  0  0
  8  9  1  0  0  0  0
  8 60  1  0  0  0  0
 10 11  1  0  0  0  0
 12 13  1  0  0  0  0
 12 14  1  0  0  0  0
 12 15  1  0  0  0  0
 12 18  1  0  0  0  0
 15 16  1  0  0  0  0
 15 17  1  0  0  0  0
 15 79  1  0  0  0  0
 18 19  1  0  0  0  0
 18 20  1  0  0  0  0
 20 21  2  0  0  0  0
 20 25  1  0  0  0  0
 22 23  1  0  0  0  0
 22 24  1  0  0  0  0
 22 25  1  0  0  0  0
 22 28  1  0  0  0  0
 25 26  1  0  0  0  0
 25 27  1  0  0  0  0
 28 29  1  0  0  0  0
 28 31  1  0  0  0  0
 30 31  2  0  0  0  0
 31 44  1  0  0  0  0
 32 33  1  0  0  0  0
 32 34  1  0  0  0  0
 32 39  1  0  0  0  0
 32 48  1  0  0  0  0
 35 36  1  0  0  0  0
 35 37  1  0  0  0  0
 35 38  1  0  0  0  0
 35 39  1  0  0  0  0
 39 40  1  0  0  0  0
 39 44  1  0  0  0  0
 40 41  1  0  0  0  0
 40 42  1  0  0  0  0
 40 43  1  0  0  0  0
 44 45  1  0  0  0  0
 44 46  1  0  0  0  0
 46 47  1  0  0  0  0
 48 55  1  0  0  0  0
 49 55  1  0  0  0  0
 49 56  1  0  0  0  0
 50 56  1  0  0  0  0
 50 57  1  0  0  0  0
 51 55  1  0  0  0  0
 52 55  2  0  0  0  0
 53 56  1  0  0  0  0
 54 56  2  0  0  0  0
 57 58  1  0  0  0  0
 57 59  1  0  0  0  0
 60 63  1  0  0  0  0
 61 63  2  0  0  0  0
 62 63  1  0  0  0  0
 63 64  1  0  0  0  0
 65 66  1  0  0  0  0
 65 67  1  0  0  0  0
 66 69  2  0  0  0  0
 66 70  1  0  0  0  0
 67 68  1  0  0  0  0
 67 71  2  0  0  0  0
 69 71  1  0  0  0  0
 69 72  1  0  0  0  0
 70 73  2  0  0  0  0
 72 75  2  0  0  0  0
 72 76  1  0  0  0  0
 73 74  1  0  0  0  0
 73 75  1  0  0  0  0
 76 77  1  0  0  0  0
 76 78  1  0  0  0  0
 79 81  1  0  0  0  0
 80 81  2  0  0  0  0
 81 82  1  0  0  0  0
 82 83  1  0  0  0  0
 82 84  2  0  0  0  0
 84 85  1  0  0  0  0
 84 86  1  0  0  0  0
 86 87  1  0  0  0  0
 86 89  2  0  0  0  0
 87 88  1  0  0  0  0
 87 91  2  0  0  0  0
 89 90  1  0  0  0  0
 89 93  1  0  0  0  0
 91 92  1  0  0  0  0
 91 94  1  0  0  0  0
 93 94  2  0  0  0  0
 93 97  1  0  0  0  0
 94 95  1  0  0  0  0
 95 96  1  0  0  0  0
 97 98  1  0  0  0  0
 98 99  1  0  0  0  0
 98100  1  0  0  0  0
 98101  1  0  0  0  0
M  BCL ATM C_TeTeTeTe H_S O_Te2Te2TeTe C_TeTeTeTe H_S C_TeTeTeTe H_S C_TeTeTeTe H_S O_Te2Te2TeTe H_S C_TeTeTeTe H_S H_S C_TeTeTeTe H_S H_S N_TrTrTrPi2 H_S C_TrTrTrPi O_Tr2Tr2TrPi C_TeTeTeTe H_S H_S C_TeTeTeTe H_S H_S N_TrTrTrPi2 H_S O_Tr2Tr2TrPi C_TrTrTrPi C_TeTeTeTe H_S H_S C_TeTeTeTe H_S H_S H_S C_TeTeTeTe C_TeTeTeTe H_S H_S H_S C_TeTeTeTe H_S O_Te2Te2TeTe H_S O_Tr2TrTrPi2 O_Tr2TrTrPi2 O_Tr2TrTrPi2 O_Te2Te2TeTe O_Tr2Tr2TrPi O_Te2Te2TeTe O_Tr2Tr2TrPi P_TeTeTeTePi P_TeTeTeTePi C_TeTeTeTe H_S H_S O_Tr2TrTrPi2 O_Tr2Tr2TrPi O_Te2Te2Te2Te P_TeTeTeTePi O_Te2Te2Te2Te N_TrTrTrPi2 C_TrTrTrPi C_TrTrTrPi H_S C_TrTrTrPi N_Tr2TrTrPi N_Tr2TrTrPi C_TrTrTrPi C_TrTrTrPi H_S N_Tr2TrTrPi N_TrTrTrPi2 H_S H_S S_Te2Te2TeTe O_Tr2Tr2TrPi C_TrTrTrPi C_TrTrTrPi H_S C_TrTrTrPi H_S C_TrTrTrPi C_TrTrTrPi H_S C_TrTrTrPi H_S C_TrTrTrPi H_S C_TrTrTrPi C_TrTrTrPi O_Te2Te2TeTe H_S O_Tr2TrTrPi2 C_TeTeTeTe H_S H_S H_S
M  BCL BND NonConjugatedSingleBond NonConjugatedSingleBondInRing NonConjugatedSingleBondInRing NonConjugatedSingleBond NonConjugatedSingleBondInRing NonConjugatedSingleBond NonConjugatedSingleBondInRing NonConjugatedSingleBond NonConjugatedSingleBond NonConjugatedSingleBondInRing NonConjugatedSingleBond NonConjugatedSingleBond NonConjugatedSingleBond NonConjugatedSingleBond NonConjugatedSingleBond NonConjugatedSingleBond NonConjugatedSingleBond NonConjugatedSingleBond NonConjugatedSingleBond NonConjugatedSingleBond NonConjugatedSingleBond NonConjugatedSingleBond AmideSingleBond ConjugatedDoubleBond NonConjugatedSingleBond NonConjugatedSingleBond NonConjugatedSingleBond NonConjugatedSingleBond NonConjugatedSingleBond NonConjugatedSingleBond NonConjugatedSingleBond NonConjugatedSingleBond AmideSingleBond ConjugatedDoubleBond NonConjugatedSingleBond NonConjugatedSingleBond NonConjugatedSingleBond NonConjugatedSingleBond NonConjugatedSingleBond NonConjugatedSingleBond NonConjugatedSingleBond NonConjugatedSingleBond NonConjugatedSingleBond NonConjugatedSingleBond NonConjugatedSingleBond NonConjugatedSingleBond NonConjugatedSingleBond NonConjugatedSingleBond NonConjugatedSingleBond NonConjugatedSingleBond NonConjugatedSingleBond ConjugatedSingleBond ConjugatedSingleBond ConjugatedSingleBond ConjugatedSingleBond NonConjugatedSingleBond ConjugatedSingleBond ConjugatedDoubleBond ConjugatedSingleBond ConjugatedDoubleBond NonConjugatedSingleBond NonConjugatedSingleBond ConjugatedSingleBond ConjugatedDoubleBond ConjugatedSingleBond ConjugatedSingleBond AromaticSingleBond AromaticSingleBond AromaticDoubleBond AromaticSingleBond NonConjugatedSingleBond AromaticDoubleBond AromaticSingleBond AromaticSingleBond AromaticDoubleBond AromaticDoubleBond ConjugatedSingleBond NonConjugatedSingleBond AromaticSingleBond NonConjugatedSingleBond NonConjugatedSingleBond ConjugatedSingleBond ConjugatedDoubleBond ConjugatedSingleBond NonConjugatedSingleBond ConjugatedDoubleBond NonConjugatedSingleBond ConjugatedSingleBond AromaticSingleBond AromaticDoubleBond NonConjugatedSingleBond AromaticDoubleBond NonConjugatedSingleBond AromaticSingleBond NonConjugatedSingleBond AromaticSingleBond AromaticDoubleBond ConjugatedSingleBond ConjugatedSingleBond NonConjugatedSingleBond NonConjugatedSingleBond NonConjugatedSingleBond NonConjugatedSingleBond NonConjugatedSingleBond
M  BCL CHI   1   R   4   R   6   R   8   S  44   S  55   S  56   R
M  BCL DBI - - - - - - - - - - E - - -
M  END
> <ConfClashScore>
0 

> <ConfOneFourInteractionScore>
-0.974714 

> <ConfScore>
-0.0455029 

> <ConfScorePBest>
0.0112875 

> <ConfTolerance>
2.53232 

$$$$
L02.****
  PyMOL2.5          3D                             0

101104  0  0  0  0  0  0  0  0999 V2000
   15.2589   -4.3976   -5.5171 C   0  0  0  1  0  0  0  0  0  0  0  0
   14.8506   -3.6245   -4.9002 H   0  0  0  1  0  0  0  0  0  0  0  0
   14.4515   -4.5882   -6.6894 O   0  0  0  1  0  0  0  0  0  0  0  0
   15.2198   -5.7164   -4.8055 C   0  0  0  1  0  0  0  0  0  0  0  0
   15.9410   -6.3943   -5.2119 H   0  0  0  1  0  0  0  0  0  0  0  0
   13.3614   -5.4609   -6.3094 C   0  0  0  1  0  0  0  0  0  0  0  0
   13.1531   -6.1546   -7.0969 H   0  0  0  1  0  0  0  0  0  0  0  0
   13.8089   -6.2014   -5.0668 C   0  0  0  1  0  0  0  0  0  0  0  0
   13.1719   -5.9666   -4.2398 H   0  0  0  1  0  0  0  0  0  0  0  0
   15.4554   -5.5520   -3.4063 O   0  0  0  1  0  0  0  0  0  0  0  0
   16.1528   -6.1494   -3.1265 H   0  0  0  1  0  0  0  0  0  0  0  0
    9.9408   -3.6076  -11.4186 C   0  0  0  1  0  0  0  0  0  0  0  0
    8.9884   -3.7988  -11.8673 H   0  0  0  1  0  0  0  0  0  0  0  0
   10.5489   -3.0463  -12.0969 H   0  0  0  1  0  0  0  0  0  0  0  0
   10.6179   -4.9268  -11.1406 C   0  0  0  1  0  0  0  0  0  0  0  0
   11.5833   -4.7229  -10.7265 H   0  0  0  1  0  0  0  0  0  0  0  0
   10.7300   -5.4441  -12.0705 H   0  0  0  1  0  0  0  0  0  0  0  0
    9.7323   -2.7966  -10.1780 N   0  0  0  1  0  0  0  0  0  0  0  0
   10.3149   -2.0261  -10.0131 H   0  0  0  1  0  0  0  0  0  0  0  0
    8.7794   -3.0867   -9.2875 C   0  0  0  1  0  0  0  0  0  0  0  0
    8.0052   -4.0337   -9.4194 O   0  0  0  1  0  0  0  0  0  0  0  0
    8.0891   -2.8401   -6.8614 C   0  0  0  1  0  0  0  0  0  0  0  0
    8.6906   -3.6842   -6.5956 H   0  0  0  1  0  0  0  0  0  0  0  0
    7.1017   -3.1691   -7.1098 H   0  0  0  1  0  0  0  0  0  0  0  0
    8.7021   -2.1697   -8.0840 C   0  0  0  1  0  0  0  0  0  0  0  0
    8.1054   -1.3196   -8.3413 H   0  0  0  1  0  0  0  0  0  0  0  0
    9.6924   -1.8491   -7.8359 H   0  0  0  1  0  0  0  0  0  0  0  0
    8.0078   -1.9398   -5.7085 N   0  0  0  1  0  0  0  0  0  0  0  0
    8.5559   -2.1316   -4.9191 H   0  0  0  1  0  0  0  0  0  0  0  0
    6.4406   -0.5952   -6.6120 O   0  0  0  1  0  0  0  0  0  0  0  0
    7.2123   -0.8664   -5.6958 C   0  0  0  1  0  0  0  0  0  0  0  0
    9.8528   -0.1485   -4.2894 C   0  0  0  1  0  0  0  0  0  0  0  0
   10.7615    0.4038   -4.4082 H   0  0  0  1  0  0  0  0  0  0  0  0
    9.8183   -0.9387   -5.0100 H   0  0  0  1  0  0  0  0  0  0  0  0
    8.7508    1.5754   -5.7883 C   0  0  0  1  0  0  0  0  0  0  0  0
    9.6003    1.2325   -6.3411 H   0  0  0  1  0  0  0  0  0  0  0  0
    8.8646    2.6166   -5.5695 H   0  0  0  1  0  0  0  0  0  0  0  0
    7.8643    1.4271   -6.3688 H   0  0  0  1  0  0  0  0  0  0  0  0
    8.6409    0.7872   -4.4776 C   0  0  0  1  0  0  0  0  0  0  0  0
    8.6477    1.7751   -3.3053 C   0  0  0  1  0  0  0  0  0  0  0  0
    8.0284    1.3993   -2.5178 H   0  0  0  1  0  0  0  0  0  0  0  0
    8.2711    2.7211   -3.6342 H   0  0  0  1  0  0  0  0  0  0  0  0
    9.6483    1.8946   -2.9456 H   0  0  0  1  0  0  0  0  0  0  0  0
    7.3158    0.0185   -4.4623 C   0  0  0  1  0  0  0  0  0  0  0  0
    7.3040   -0.6095   -3.5961 H   0  0  0  1  0  0  0  0  0  0  0  0
    6.2377    0.9488   -4.3932 O   0  0  0  1  0  0  0  0  0  0  0  0
    6.2438    1.5052   -5.1756 H   0  0  0  1  0  0  0  0  0  0  0  0
    9.7808   -0.6973   -2.9525 O   0  0  0  1  0  0  0  0  0  0  0  0
   10.8055   -2.9552   -3.3042 O   0  0  0  1  0  0  0  0  0  0  0  0
   12.4958   -3.8763   -4.8419 O   0  0  0  1  0  0  0  0  0  0  0  0
   12.2583   -0.9877   -2.6654 O   0  0  0  0  0  0  0  0  0  0  0  0
   10.5675   -2.0238   -1.0155 O   0  0  0  1  0  0  0  0  0  0  0  0
   12.8260   -4.1301   -2.3868 O   0  0  0  0  0  0  0  0  0  0  0  0
   10.9469   -5.4252   -3.5531 O   0  0  0  1  0  0  0  0  0  0  0  0
   10.9432   -1.6450   -2.3901 P   0  0  0  1  0  0  0  0  0  0  0  0
   11.7625   -4.1757   -3.4723 P   0  0  0  1  0  0  0  0  0  0  0  0
   12.1233   -4.6480   -6.0130 C   0  0  0  1  0  0  0  0  0  0  0  0
   11.2897   -5.2846   -5.8020 H   0  0  0  1  0  0  0  0  0  0  0  0
   11.8829   -4.0049   -6.8338 H   0  0  0  1  0  0  0  0  0  0  0  0
   13.7970   -7.6439   -5.2973 O   0  0  0  1  0  0  0  0  0  0  0  0
   15.3561   -7.4750   -7.3204 O   0  0  0  1  0  0  0  0  0  0  0  0
   12.9722   -8.1596   -7.7415 O   0  5  0  1  0  0  0  0  0  0  0  0
   14.2459   -8.2675   -6.7462 P   0  0  0  1  0  0  0  0  0  0  0  0
   14.6736   -9.8238   -6.6067 O   0  5  0  1  0  0  0  0  0  0  0  0
   16.6329   -4.0526   -5.8881 N   0  0  0  1  0  0  0  0  0  0  0  0
   17.6557   -3.8608   -4.9955 C   0  0  0  1  0  0  0  0  0  0  0  0
   17.1482   -3.7480   -7.1105 C   0  0  0  1  0  0  0  0  0  0  0  0
   16.5849   -3.7985   -7.9832 H   0  0  0  1  0  0  0  0  0  0  0  0
   18.7520   -3.4484   -5.7648 C   0  0  0  1  0  0  0  0  0  0  0  0
   17.6316   -4.0399   -3.6740 N   0  0  0  1  0  0  0  0  0  0  0  0
   18.4028   -3.3876   -7.1049 N   0  0  0  1  0  0  0  0  0  0  0  0
   19.9250   -3.2069   -5.0558 C   0  0  0  1  0  0  0  0  0  0  0  0
   18.8101   -3.7667   -3.1277 C   0  0  0  1  0  0  0  0  0  0  0  0
   18.8644   -3.8805   -2.0953 H   0  0  0  1  0  0  0  0  0  0  0  0
   19.9411   -3.3633   -3.7277 N   0  0  0  1  0  0  0  0  0  0  0  0
   21.0915   -2.8089   -5.6540 N   0  0  0  1  0  0  0  0  0  0  0  0
   21.1013   -2.5851   -6.6081 H   0  0  0  1  0  0  0  0  0  0  0  0
   21.9160   -2.7480   -5.1279 H   0  0  0  1  0  0  0  0  0  0  0  0
    9.7384   -6.0132   -9.9992 S   0  0  0  1  0  0  0  0  0  0  0  0
    8.6711   -6.3789  -12.0749 O   0  0  0  1  0  0  0  0  0  0  0  0
    8.5766   -6.7999  -11.0547 C   0  0  0  1  0  0  0  0  0  0  0  0
    7.5993   -7.5551  -10.2768 C   0  0  0  1  0  0  0  0  0  0  0  0
    7.8438   -7.7303   -9.2813 H   0  0  0  1  0  0  0  0  0  0  0  0
    6.4315   -8.0471  -10.6888 C   0  0  0  1  0  0  0  0  0  0  0  0
    6.1474   -7.8950  -11.6776 H   0  0  0  1  0  0  0  0  0  0  0  0
    5.5212   -8.8017   -9.7964 C   0  0  0  1  0  0  0  0  0  0  0  0
    5.8440   -8.9485   -8.4564 C   0  0  0  1  0  0  0  0  0  0  0  0
    6.7182   -8.5269   -8.0829 H   0  0  0  1  0  0  0  0  0  0  0  0
    4.3567   -9.3575  -10.2915 C   0  0  0  1  0  0  0  0  0  0  0  0
    4.1125   -9.2439  -11.2960 H   0  0  0  1  0  0  0  0  0  0  0  0
    5.0041   -9.6553   -7.6165 C   0  0  0  1  0  0  0  0  0  0  0  0
    5.2483   -9.7688   -6.6120 H   0  0  0  1  0  0  0  0  0  0  0  0
    3.5142  -10.0663   -9.4494 C   0  0  0  1  0  0  0  0  0  0  0  0
    3.8361  -10.2127   -8.1132 C   0  0  0  1  0  0  0  0  0  0  0  0
    2.9513  -10.9162   -7.3656 O   0  0  0  1  0  0  0  0  0  0  0  0
    2.7027  -11.7172   -7.8327 H   0  0  0  1  0  0  0  0  0  0  0  0
    2.3758  -10.6154   -9.9357 O   0  0  0  1  0  0  0  0  0  0  0  0
    2.1577  -10.5267  -11.3524 C   0  0  0  1  0  0  0  0  0  0  0  0
    3.0988  -10.5526  -11.8610 H   0  0  0  1  0  0  0  0  0  0  0  0
    1.6552   -9.6096  -11.5790 H   0  0  0  1  0  0  0  0  0  0  0  0
    1.5567  -11.3520  -11.6728 H   0  0  0  1  0  0  0  0  0  0  0  0
  1  2  1  0  0  0  0
  1  3  1  0  0  0  0
  1  4  1  0  0  0  0
  1 65  1  0  0  0  0
  3  6  1  0  0  0  0
  4  5  1  0  0  0  0
  4  8  1  0  0  0  0
  4 10  1  0  0  0  0
  6  7  1  0  0  0  0
  6  8  1  0  0  0  0
  6 57  1  0  0  0  0
  8  9  1  0  0  0  0
  8 60  1  0  0  0  0
 10 11  1  0  0  0  0
 12 13  1  0  0  0  0
 12 14  1  0  0  0  0
 12 15  1  0  0  0  0
 12 18  1  0  0  0  0
 15 16  1  0  0  0  0
 15 17  1  0  0  0  0
 15 79  1  0  0  0  0
 18 19  1  0  0  0  0
 18 20  1  0  0  0  0
 20 21  2  0  0  0  0
 20 25  1  0  0  0  0
 22 23  1  0  0  0  0
 22 24  1  0  0  0  0
 22 25  1  0  0  0  0
 22 28  1  0  0  0  0
 25 26  1  0  0  0  0
 25 27  1  0  0  0  0
 28 29  1  0  0  0  0
 28 31  1  0  0  0  0
 30 31  2  0  0  0  0
 31 44  1  0  0  0  0
 32 33  1  0  0  0  0
 32 34  1  0  0  0  0
 32 39  1  0  0  0  0
 32 48  1  0  0  0  0
 35 36  1  0  0  0  0
 35 37  1  0  0  0  0
 35 38  1  0  0  0  0
 35 39  1  0  0  0  0
 39 40  1  0  0  0  0
 39 44  1  0  0  0  0
 40 41  1  0  0  0  0
 40 42  1  0  0  0  0
 40 43  1  0  0  0  0
 44 45  1  0  0  0  0
 44 46  1  0  0  0  0
 46 47  1  0  0  0  0
 48 55  1  0  0  0  0
 49 55  1  0  0  0  0
 49 56  1  0  0  0  0
 50 56  1  0  0  0  0
 50 57  1  0  0  0  0
 51 55  1  0  0  0  0
 52 55  2  0  0  0  0
 53 56  1  0  0  0  0
 54 56  2  0  0  0  0
 57 58  1  0  0  0  0
 57 59  1  0  0  0  0
 60 63  1  0  0  0  0
 61 63  2  0  0  0  0
 62 63  1  0  0  0  0
 63 64  1  0  0  0  0
 65 66  1  0  0  0  0
 65 67  1  0  0  0  0
 66 69  2  0  0  0  0
 66 70  1  0  0  0  0
 67 68  1  0  0  0  0
 67 71  2  0  0  0  0
 69 71  1  0  0  0  0
 69 72  1  0  0  0  0
 70 73  2  0  0  0  0
 72 75  2  0  0  0  0
 72 76  1  0  0  0  0
 73 74  1  0  0  0  0
 73 75  1  0  0  0  0
 76 77  1  0  0  0  0
 76 78  1  0  0  0  0
 79 81  1  0  0  0  0
 80 81  2  0  0  0  0
 81 82  1  0  0  0  0
 82 83  1  0  0  0  0
 82 84  2  0  0  0  0
 84 85  1  0  0  0  0
 84 86  1  0  0  0  0
 86 87  1  0  0  0  0
 86 89  2  0  0  0  0
 87 88  1  0  0  0  0
 87 91  2  0  0  0  0
 89 90  1  0  0  0  0
 89 93  1  0  0  0  0
 91 92  1  0  0  0  0
 91 94  1  0  0  0  0
 93 94  2  0  0  0  0
 93 97  1  0  0  0  0
 94 95  1  0  0  0  0
 95 96  1  0  0  0  0
 97 98  1  0  0  0  0
 98 99  1  0  0  0  0
 98100  1  0  0  0  0
 98101  1  0  0  0  0
M  BCL ATM C_TeTeTeTe H_S O_Te2Te2TeTe C_TeTeTeTe H_S C_TeTeTeTe H_S C_TeTeTeTe H_S O_Te2Te2TeTe H_S C_TeTeTeTe H_S H_S C_TeTeTeTe H_S H_S N_TrTrTrPi2 H_S C_TrTrTrPi O_Tr2Tr2TrPi C_TeTeTeTe H_S H_S C_TeTeTeTe H_S H_S N_TrTrTrPi2 H_S O_Tr2Tr2TrPi C_TrTrTrPi C_TeTeTeTe H_S H_S C_TeTeTeTe H_S H_S H_S C_TeTeTeTe C_TeTeTeTe H_S H_S H_S C_TeTeTeTe H_S O_Te2Te2TeTe H_S O_Tr2TrTrPi2 O_Tr2TrTrPi2 O_Tr2TrTrPi2 O_Te2Te2TeTe O_Tr2Tr2TrPi O_Te2Te2TeTe O_Tr2Tr2TrPi P_TeTeTeTePi P_TeTeTeTePi C_TeTeTeTe H_S H_S O_Tr2TrTrPi2 O_Tr2Tr2TrPi O_Te2Te2Te2Te P_TeTeTeTePi O_Te2Te2Te2Te N_TrTrTrPi2 C_TrTrTrPi C_TrTrTrPi H_S C_TrTrTrPi N_Tr2TrTrPi N_Tr2TrTrPi C_TrTrTrPi C_TrTrTrPi H_S N_Tr2TrTrPi N_TrTrTrPi2 H_S H_S S_Te2Te2TeTe O_Tr2Tr2TrPi C_TrTrTrPi C_TrTrTrPi H_S C_TrTrTrPi H_S C_TrTrTrPi C_TrTrTrPi H_S C_TrTrTrPi H_S C_TrTrTrPi H_S C_TrTrTrPi C_TrTrTrPi O_Te2Te2TeTe H_S O_Tr2TrTrPi2 C_TeTeTeTe H_S H_S H_S
M  BCL BND NonConjugatedSingleBond NonConjugatedSingleBondInRing NonConjugatedSingleBondInRing NonConjugatedSingleBond NonConjugatedSingleBondInRing NonConjugatedSingleBond NonConjugatedSingleBondInRing NonConjugatedSingleBond NonConjugatedSingleBond NonConjugatedSingleBondInRing NonConjugatedSingleBond NonConjugatedSingleBond NonConjugatedSingleBond NonConjugatedSingleBond NonConjugatedSingleBond NonConjugatedSingleBond NonConjugatedSingleBond NonConjugatedSingleBond NonConjugatedSingleBond NonConjugatedSingleBond NonConjugatedSingleBond NonConjugatedSingleBond AmideSingleBond ConjugatedDoubleBond NonConjugatedSingleBond NonConjugatedSingleBond NonConjugatedSingleBond NonConjugatedSingleBond NonConjugatedSingleBond NonConjugatedSingleBond NonConjugatedSingleBond NonConjugatedSingleBond AmideSingleBond ConjugatedDoubleBond NonConjugatedSingleBond NonConjugatedSingleBond NonConjugatedSingleBond NonConjugatedSingleBond NonConjugatedSingleBond NonConjugatedSingleBond NonConjugatedSingleBond NonConjugatedSingleBond NonConjugatedSingleBond NonConjugatedSingleBond NonConjugatedSingleBond NonConjugatedSingleBond NonConjugatedSingleBond NonConjugatedSingleBond NonConjugatedSingleBond NonConjugatedSingleBond NonConjugatedSingleBond ConjugatedSingleBond ConjugatedSingleBond ConjugatedSingleBond ConjugatedSingleBond NonConjugatedSingleBond ConjugatedSingleBond ConjugatedDoubleBond ConjugatedSingleBond ConjugatedDoubleBond NonConjugatedSingleBond NonConjugatedSingleBond ConjugatedSingleBond ConjugatedDoubleBond ConjugatedSingleBond ConjugatedSingleBond AromaticSingleBond AromaticSingleBond AromaticDoubleBond AromaticSingleBond NonConjugatedSingleBond AromaticDoubleBond AromaticSingleBond AromaticSingleBond AromaticDoubleBond AromaticDoubleBond ConjugatedSingleBond NonConjugatedSingleBond AromaticSingleBond NonConjugatedSingleBond NonConjugatedSingleBond ConjugatedSingleBond ConjugatedDoubleBond ConjugatedSingleBond NonConjugatedSingleBond ConjugatedDoubleBond NonConjugatedSingleBond ConjugatedSingleBond AromaticSingleBond AromaticDoubleBond NonConjugatedSingleBond AromaticDoubleBond NonConjugatedSingleBond AromaticSingleBond NonConjugatedSingleBond AromaticSingleBond AromaticDoubleBond ConjugatedSingleBond ConjugatedSingleBond NonConjugatedSingleBond NonConjugatedSingleBond NonConjugatedSingleBond NonConjugatedSingleBond NonConjugatedSingleBond
M  BCL CHI   1   R   4   R   6   R   8   S  44   S  55   S  56   R
M  BCL DBI - - - - - - - - - - E - - -
M  END
> <ConfClashScore>
0 

> <ConfOneFourInteractionScore>
-0.970052 

> <ConfScore>
-0.0407711 

> <ConfScorePBest>
0.0111845 

> <ConfTolerance>
2.72645 

$$$$
L02.****
  PyMOL2.5          3D                             0

101104  0  0  0  0  0  0  0  0999 V2000
   15.2711   -4.4626   -5.5766 C   0  0  0  1  0  0  0  0  0  0  0  0
   14.8080   -3.7548   -4.9213 H   0  0  0  1  0  0  0  0  0  0  0  0
   14.5352   -4.5638   -6.7631 O   0  0  0  1  0  0  0  0  0  0  0  0
   15.2946   -5.8492   -4.9141 C   0  0  0  1  0  0  0  0  0  0  0  0
   16.2769   -6.0945   -4.5679 H   0  0  0  1  0  0  0  0  0  0  0  0
   13.9685   -5.9020   -6.9043 C   0  0  0  1  0  0  0  0  0  0  0  0
   13.9890   -6.2162   -7.9269 H   0  0  0  1  0  0  0  0  0  0  0  0
   14.8632   -6.7776   -6.0573 C   0  0  0  1  0  0  0  0  0  0  0  0
   14.3258   -7.6229   -5.6812 H   0  0  0  1  0  0  0  0  0  0  0  0
   14.3737   -5.9142   -3.8221 O   0  0  0  1  0  0  0  0  0  0  0  0
   14.7951   -5.5793   -3.0272 H   0  0  0  1  0  0  0  0  0  0  0  0
   11.4068  -14.7456  -15.0936 C   0  0  0  1  0  0  0  0  0  0  0  0
   10.9557  -13.7805  -14.9936 H   0  0  0  1  0  0  0  0  0  0  0  0
   11.5019  -14.9896  -16.1310 H   0  0  0  1  0  0  0  0  0  0  0  0
   10.5129  -15.7671  -14.4369 C   0  0  0  1  0  0  0  0  0  0  0  0
   10.8097  -16.7407  -14.7669 H   0  0  0  1  0  0  0  0  0  0  0  0
    9.5036  -15.5799  -14.7389 H   0  0  0  1  0  0  0  0  0  0  0  0
   12.7353  -14.7031  -14.5009 N   0  0  0  1  0  0  0  0  0  0  0  0
   13.1155  -15.5098  -14.0946 H   0  0  0  1  0  0  0  0  0  0  0  0
   13.4428  -13.5582  -14.5094 C   0  0  0  1  0  0  0  0  0  0  0  0
   13.0678  -12.5447  -15.0932 O   0  0  0  1  0  0  0  0  0  0  0  0
   14.8427  -12.4924  -12.6966 C   0  0  0  1  0  0  0  0  0  0  0  0
   14.8070  -11.5364  -13.1757 H   0  0  0  1  0  0  0  0  0  0  0  0
   15.7684  -12.5934  -12.1695 H   0  0  0  1  0  0  0  0  0  0  0  0
   14.7427  -13.5870  -13.7509 C   0  0  0  1  0  0  0  0  0  0  0  0
   15.5460  -13.4638  -14.4470 H   0  0  0  1  0  0  0  0  0  0  0  0
   14.8329  -14.5365  -13.2658 H   0  0  0  1  0  0  0  0  0  0  0  0
   13.7326  -12.5992  -11.7482 N   0  0  0  1  0  0  0  0  0  0  0  0
   12.8089  -12.5188  -12.0655 H   0  0  0  1  0  0  0  0  0  0  0  0
   15.0875  -12.8879   -9.9296 O   0  0  0  1  0  0  0  0  0  0  0  0
   13.9761  -12.8062  -10.4509 C   0  0  0  1  0  0  0  0  0  0  0  0
   11.4608  -11.9679   -7.7137 C   0  0  0  1  0  0  0  0  0  0  0  0
   11.6147  -12.8402   -7.1134 H   0  0  0  1  0  0  0  0  0  0  0  0
   10.5804  -12.0945   -8.3085 H   0  0  0  1  0  0  0  0  0  0  0  0
   13.9247  -11.6228   -7.7413 C   0  0  0  1  0  0  0  0  0  0  0  0
   13.9638  -12.4507   -7.0645 H   0  0  0  1  0  0  0  0  0  0  0  0
   13.8877  -10.7094   -7.1854 H   0  0  0  1  0  0  0  0  0  0  0  0
   14.7964  -11.6283   -8.3617 H   0  0  0  1  0  0  0  0  0  0  0  0
   12.6725  -11.7378   -8.6188 C   0  0  0  1  0  0  0  0  0  0  0  0
   12.4695  -10.4305   -9.3935 C   0  0  0  1  0  0  0  0  0  0  0  0
   13.0216  -10.4686  -10.3093 H   0  0  0  1  0  0  0  0  0  0  0  0
   12.8157   -9.6085   -8.8025 H   0  0  0  1  0  0  0  0  0  0  0  0
   11.4294  -10.3021   -9.6095 H   0  0  0  1  0  0  0  0  0  0  0  0
   12.7537  -12.9522   -9.5474 C   0  0  0  1  0  0  0  0  0  0  0  0
   12.8617  -13.8366   -8.9549 H   0  0  0  1  0  0  0  0  0  0  0  0
   11.5458  -12.9936  -10.2880 O   0  0  0  1  0  0  0  0  0  0  0  0
   11.1602  -12.1151  -10.3216 H   0  0  0  1  0  0  0  0  0  0  0  0
   11.3190  -10.8045   -6.8650 O   0  0  0  1  0  0  0  0  0  0  0  0
   10.3974   -8.8082   -5.9519 O   0  0  0  1  0  0  0  0  0  0  0  0
   12.0078   -7.2070   -6.8317 O   0  0  0  1  0  0  0  0  0  0  0  0
    8.9259  -10.2377   -7.4521 O   0  0  0  0  0  0  0  0  0  0  0  0
    9.5371  -10.9957   -5.0969 O   0  0  0  1  0  0  0  0  0  0  0  0
    9.8581   -7.7522   -8.1147 O   0  0  0  0  0  0  0  0  0  0  0  0
    9.7581   -6.3166   -6.0293 O   0  0  0  1  0  0  0  0  0  0  0  0
    9.8949  -10.2721   -6.3297 P   0  0  0  1  0  0  0  0  0  0  0  0
   10.4255   -7.4299   -6.7679 P   0  0  0  1  0  0  0  0  0  0  0  0
   12.5472   -5.9375   -6.3943 C   0  0  0  1  0  0  0  0  0  0  0  0
   11.9817   -5.1291   -6.8085 H   0  0  0  1  0  0  0  0  0  0  0  0
   12.5322   -5.8736   -5.3263 H   0  0  0  1  0  0  0  0  0  0  0  0
   16.0093   -7.2319   -6.8148 O   0  0  0  1  0  0  0  0  0  0  0  0
   14.4836   -8.5673   -8.4278 O   0  0  0  1  0  0  0  0  0  0  0  0
   16.8831   -9.4530   -7.8455 O   0  5  0  1  0  0  0  0  0  0  0  0
   15.8873   -8.2067   -8.1280 P   0  0  0  1  0  0  0  0  0  0  0  0
   16.5587   -7.4114   -9.3694 O   0  5  0  1  0  0  0  0  0  0  0  0
   16.6371   -4.0313   -5.8747 N   0  0  0  1  0  0  0  0  0  0  0  0
   17.6599   -3.8469   -4.9804 C   0  0  0  1  0  0  0  0  0  0  0  0
   17.1566   -3.7300   -7.0962 C   0  0  0  1  0  0  0  0  0  0  0  0
   16.5943   -3.7764   -7.9699 H   0  0  0  1  0  0  0  0  0  0  0  0
   18.7603   -3.4420   -5.7478 C   0  0  0  1  0  0  0  0  0  0  0  0
   17.6324   -4.0262   -3.6590 N   0  0  0  1  0  0  0  0  0  0  0  0
   18.4137   -3.3785   -7.0885 N   0  0  0  1  0  0  0  0  0  0  0  0
   19.9338   -3.2089   -5.0369 C   0  0  0  1  0  0  0  0  0  0  0  0
   18.8118   -3.7613   -3.1107 C   0  0  0  1  0  0  0  0  0  0  0  0
   18.8637   -3.8757   -2.0783 H   0  0  0  1  0  0  0  0  0  0  0  0
   19.9466   -3.3657   -3.7087 N   0  0  0  1  0  0  0  0  0  0  0  0
   21.0725   -2.8217   -5.6813 N   0  0  0  1  0  0  0  0  0  0  0  0
   21.8584   -2.5465   -5.1647 H   0  0  0  1  0  0  0  0  0  0  0  0
   21.1043   -2.8189   -6.6608 H   0  0  0  1  0  0  0  0  0  0  0  0
   10.5896  -15.7245  -12.6304 S   0  0  0  1  0  0  0  0  0  0  0  0
   12.6787  -17.2434  -13.1607 O   0  0  0  1  0  0  0  0  0  0  0  0
   12.0427  -16.6934  -12.2916 C   0  0  0  1  0  0  0  0  0  0  0  0
   12.3945  -16.7630  -10.8762 C   0  0  0  1  0  0  0  0  0  0  0  0
   11.8329  -16.1424  -10.2589 H   0  0  0  1  0  0  0  0  0  0  0  0
   13.3153  -17.4892  -10.2436 C   0  0  0  1  0  0  0  0  0  0  0  0
   13.9228  -18.1379  -10.7838 H   0  0  0  1  0  0  0  0  0  0  0  0
   13.4786  -17.3782   -8.7768 C   0  0  0  1  0  0  0  0  0  0  0  0
   14.5449  -17.9669   -8.1150 C   0  0  0  1  0  0  0  0  0  0  0  0
   15.2588  -18.5005   -8.6509 H   0  0  0  1  0  0  0  0  0  0  0  0
   12.5327  -16.6647   -8.0652 C   0  0  0  1  0  0  0  0  0  0  0  0
   11.7349  -16.2196   -8.5622 H   0  0  0  1  0  0  0  0  0  0  0  0
   14.6593  -17.8449   -6.7430 C   0  0  0  1  0  0  0  0  0  0  0  0
   15.4571  -18.2900   -6.2460 H   0  0  0  1  0  0  0  0  0  0  0  0
   12.6473  -16.5422   -6.6892 C   0  0  0  1  0  0  0  0  0  0  0  0
   13.7105  -17.1292   -6.0295 C   0  0  0  1  0  0  0  0  0  0  0  0
   13.7430  -16.9522   -4.6862 O   0  0  0  1  0  0  0  0  0  0  0  0
   12.8546  -16.7844   -4.3635 H   0  0  0  1  0  0  0  0  0  0  0  0
   11.7830  -15.8747   -5.8884 O   0  0  0  1  0  0  0  0  0  0  0  0
   10.6064  -15.3280   -6.5042 C   0  0  0  1  0  0  0  0  0  0  0  0
   10.2912  -14.4597   -5.9643 H   0  0  0  1  0  0  0  0  0  0  0  0
    9.8250  -16.0589   -6.4912 H   0  0  0  1  0  0  0  0  0  0  0  0
   10.8263  -15.0582   -7.5160 H   0  0  0  1  0  0  0  0  0  0  0  0
  1  2  1  0  0  0  0
  1  3  1  0  0  0  0
  1  4  1  0  0  0  0
  1 65  1  0  0  0  0
  3  6  1  0  0  0  0
  4  5  1  0  0  0  0
  4  8  1  0  0  0  0
  4 10  1  0  0  0  0
  6  7  1  0  0  0  0
  6  8  1  0  0  0  0
  6 57  1  0  0  0  0
  8  9  1  0  0  0  0
  8 60  1  0  0  0  0
 10 11  1  0  0  0  0
 12 13  1  0  0  0  0
 12 14  1  0  0  0  0
 12 15  1  0  0  0  0
 12 18  1  0  0  0  0
 15 16  1  0  0  0  0
 15 17  1  0  0  0  0
 15 79  1  0  0  0  0
 18 19  1  0  0  0  0
 18 20  1  0  0  0  0
 20 21  2  0  0  0  0
 20 25  1  0  0  0  0
 22 23  1  0  0  0  0
 22 24  1  0  0  0  0
 22 25  1  0  0  0  0
 22 28  1  0  0  0  0
 25 26  1  0  0  0  0
 25 27  1  0  0  0  0
 28 29  1  0  0  0  0
 28 31  1  0  0  0  0
 30 31  2  0  0  0  0
 31 44  1  0  0  0  0
 32 33  1  0  0  0  0
 32 34  1  0  0  0  0
 32 39  1  0  0  0  0
 32 48  1  0  0  0  0
 35 36  1  0  0  0  0
 35 37  1  0  0  0  0
 35 38  1  0  0  0  0
 35 39  1  0  0  0  0
 39 40  1  0  0  0  0
 39 44  1  0  0  0  0
 40 41  1  0  0  0  0
 40 42  1  0  0  0  0
 40 43  1  0  0  0  0
 44 45  1  0  0  0  0
 44 46  1  0  0  0  0
 46 47  1  0  0  0  0
 48 55  1  0  0  0  0
 49 55  1  0  0  0  0
 49 56  1  0  0  0  0
 50 56  1  0  0  0  0
 50 57  1  0  0  0  0
 51 55  1  0  0  0  0
 52 55  2  0  0  0  0
 53 56  1  0  0  0  0
 54 56  2  0  0  0  0
 57 58  1  0  0  0  0
 57 59  1  0  0  0  0
 60 63  1  0  0  0  0
 61 63  2  0  0  0  0
 62 63  1  0  0  0  0
 63 64  1  0  0  0  0
 65 66  1  0  0  0  0
 65 67  1  0  0  0  0
 66 69  2  0  0  0  0
 66 70  1  0  0  0  0
 67 68  1  0  0  0  0
 67 71  2  0  0  0  0
 69 71  1  0  0  0  0
 69 72  1  0  0  0  0
 70 73  2  0  0  0  0
 72 75  2  0  0  0  0
 72 76  1  0  0  0  0
 73 74  1  0  0  0  0
 73 75  1  0  0  0  0
 76 77  1  0  0  0  0
 76 78  1  0  0  0  0
 79 81  1  0  0  0  0
 80 81  2  0  0  0  0
 81 82  1  0  0  0  0
 82 83  1  0  0  0  0
 82 84  2  0  0  0  0
 84 85  1  0  0  0  0
 84 86  1  0  0  0  0
 86 87  1  0  0  0  0
 86 89  2  0  0  0  0
 87 88  1  0  0  0  0
 87 91  2  0  0  0  0
 89 90  1  0  0  0  0
 89 93  1  0  0  0  0
 91 92  1  0  0  0  0
 91 94  1  0  0  0  0
 93 94  2  0  0  0  0
 93 97  1  0  0  0  0
 94 95  1  0  0  0  0
 95 96  1  0  0  0  0
 97 98  1  0  0  0  0
 98 99  1  0  0  0  0
 98100  1  0  0  0  0
 98101  1  0  0  0  0
M  BCL ATM C_TeTeTeTe H_S O_Te2Te2TeTe C_TeTeTeTe H_S C_TeTeTeTe H_S C_TeTeTeTe H_S O_Te2Te2TeTe H_S C_TeTeTeTe H_S H_S C_TeTeTeTe H_S H_S N_TrTrTrPi2 H_S C_TrTrTrPi O_Tr2Tr2TrPi C_TeTeTeTe H_S H_S C_TeTeTeTe H_S H_S N_TrTrTrPi2 H_S O_Tr2Tr2TrPi C_TrTrTrPi C_TeTeTeTe H_S H_S C_TeTeTeTe H_S H_S H_S C_TeTeTeTe C_TeTeTeTe H_S H_S H_S C_TeTeTeTe H_S O_Te2Te2TeTe H_S O_Tr2TrTrPi2 O_Tr2TrTrPi2 O_Tr2TrTrPi2 O_Te2Te2TeTe O_Tr2Tr2TrPi O_Te2Te2TeTe O_Tr2Tr2TrPi P_TeTeTeTePi P_TeTeTeTePi C_TeTeTeTe H_S H_S O_Tr2TrTrPi2 O_Tr2Tr2TrPi O_Te2Te2Te2Te P_TeTeTeTePi O_Te2Te2Te2Te N_TrTrTrPi2 C_TrTrTrPi C_TrTrTrPi H_S C_TrTrTrPi N_Tr2TrTrPi N_Tr2TrTrPi C_TrTrTrPi C_TrTrTrPi H_S N_Tr2TrTrPi N_TrTrTrPi2 H_S H_S S_Te2Te2TeTe O_Tr2Tr2TrPi C_TrTrTrPi C_TrTrTrPi H_S C_TrTrTrPi H_S C_TrTrTrPi C_TrTrTrPi H_S C_TrTrTrPi H_S C_TrTrTrPi H_S C_TrTrTrPi C_TrTrTrPi O_Te2Te2TeTe H_S O_Tr2TrTrPi2 C_TeTeTeTe H_S H_S H_S
M  BCL BND NonConjugatedSingleBond NonConjugatedSingleBondInRing NonConjugatedSingleBondInRing NonConjugatedSingleBond NonConjugatedSingleBondInRing NonConjugatedSingleBond NonConjugatedSingleBondInRing NonConjugatedSingleBond NonConjugatedSingleBond NonConjugatedSingleBondInRing NonConjugatedSingleBond NonConjugatedSingleBond NonConjugatedSingleBond NonConjugatedSingleBond NonConjugatedSingleBond NonConjugatedSingleBond NonConjugatedSingleBond NonConjugatedSingleBond NonConjugatedSingleBond NonConjugatedSingleBond NonConjugatedSingleBond NonConjugatedSingleBond AmideSingleBond ConjugatedDoubleBond NonConjugatedSingleBond NonConjugatedSingleBond NonConjugatedSingleBond NonConjugatedSingleBond NonConjugatedSingleBond NonConjugatedSingleBond NonConjugatedSingleBond NonConjugatedSingleBond AmideSingleBond ConjugatedDoubleBond NonConjugatedSingleBond NonConjugatedSingleBond NonConjugatedSingleBond NonConjugatedSingleBond NonConjugatedSingleBond NonConjugatedSingleBond NonConjugatedSingleBond NonConjugatedSingleBond NonConjugatedSingleBond NonConjugatedSingleBond NonConjugatedSingleBond NonConjugatedSingleBond NonConjugatedSingleBond NonConjugatedSingleBond NonConjugatedSingleBond NonConjugatedSingleBond NonConjugatedSingleBond ConjugatedSingleBond ConjugatedSingleBond ConjugatedSingleBond ConjugatedSingleBond NonConjugatedSingleBond ConjugatedSingleBond ConjugatedDoubleBond ConjugatedSingleBond ConjugatedDoubleBond NonConjugatedSingleBond NonConjugatedSingleBond ConjugatedSingleBond ConjugatedDoubleBond ConjugatedSingleBond ConjugatedSingleBond AromaticSingleBond AromaticSingleBond AromaticDoubleBond AromaticSingleBond NonConjugatedSingleBond AromaticDoubleBond AromaticSingleBond AromaticSingleBond AromaticDoubleBond AromaticDoubleBond ConjugatedSingleBond NonConjugatedSingleBond AromaticSingleBond NonConjugatedSingleBond NonConjugatedSingleBond ConjugatedSingleBond ConjugatedDoubleBond ConjugatedSingleBond NonConjugatedSingleBond ConjugatedDoubleBond NonConjugatedSingleBond ConjugatedSingleBond AromaticSingleBond AromaticDoubleBond NonConjugatedSingleBond AromaticDoubleBond NonConjugatedSingleBond AromaticSingleBond NonConjugatedSingleBond AromaticSingleBond AromaticDoubleBond ConjugatedSingleBond ConjugatedSingleBond NonConjugatedSingleBond NonConjugatedSingleBond NonConjugatedSingleBond NonConjugatedSingleBond NonConjugatedSingleBond
M  BCL CHI   1   R   4   R   6   R   8   S  44   S  55   S  56   R
M  BCL DBI - - - - - - - - - - E - - -
M  END
> <ConfClashScore>
0 

> <ConfOneFourInteractionScore>
-0.981019 

> <ConfScore>
-0.0361419 

> <ConfScorePBest>
0.0110815 

> <ConfTolerance>
3.00263 

$$$$
L02.****
  PyMOL2.5          3D                             0

101104  0  0  0  0  0  0  0  0999 V2000
   15.2302   -4.3752   -5.5924 C   0  0  0  1  0  0  0  0  0  0  0  0
   15.1694   -5.0320   -4.7499 H   0  0  0  1  0  0  0  0  0  0  0  0
   14.5095   -3.1718   -5.3319 O   0  0  0  1  0  0  0  0  0  0  0  0
   14.5859   -5.0068   -6.7882 C   0  0  0  1  0  0  0  0  0  0  0  0
   15.1279   -4.7692   -7.6797 H   0  0  0  1  0  0  0  0  0  0  0  0
   13.1443   -3.4801   -5.6256 C   0  0  0  1  0  0  0  0  0  0  0  0
   12.6006   -2.5886   -5.8588 H   0  0  0  1  0  0  0  0  0  0  0  0
   13.1928   -4.4039   -6.8300 C   0  0  0  1  0  0  0  0  0  0  0  0
   12.4475   -5.1676   -6.7514 H   0  0  0  1  0  0  0  0  0  0  0  0
   14.5187   -6.4111   -6.6367 O   0  0  0  1  0  0  0  0  0  0  0  0
   13.7368   -6.6417   -6.1298 H   0  0  0  1  0  0  0  0  0  0  0  0
   10.6241  -13.9563   -3.6167 C   0  0  0  1  0  0  0  0  0  0  0  0
   10.2454  -13.7699   -4.5999 H   0  0  0  1  0  0  0  0  0  0  0  0
   10.5498  -15.0010   -3.3975 H   0  0  0  1  0  0  0  0  0  0  0  0
    9.8081  -13.1768   -2.6119 C   0  0  0  1  0  0  0  0  0  0  0  0
    8.7977  -13.5272   -2.6494 H   0  0  0  1  0  0  0  0  0  0  0  0
    9.8372  -12.1414   -2.8803 H   0  0  0  1  0  0  0  0  0  0  0  0
   12.0204  -13.5509   -3.5550 N   0  0  0  1  0  0  0  0  0  0  0  0
   12.2999  -12.9220   -2.8573 H   0  0  0  1  0  0  0  0  0  0  0  0
   12.9345  -14.0061   -4.4165 C   0  0  0  1  0  0  0  0  0  0  0  0
   12.6461  -14.6454   -5.4148 O   0  0  0  1  0  0  0  0  0  0  0  0
   15.2093  -13.3782   -5.3106 C   0  0  0  1  0  0  0  0  0  0  0  0
   15.2837  -14.2657   -5.9036 H   0  0  0  1  0  0  0  0  0  0  0  0
   16.1857  -13.0796   -4.9906 H   0  0  0  1  0  0  0  0  0  0  0  0
   14.3661  -13.6818   -4.0830 C   0  0  0  1  0  0  0  0  0  0  0  0
   14.7953  -14.5193   -3.5737 H   0  0  0  1  0  0  0  0  0  0  0  0
   14.3807  -12.8268   -3.4399 H   0  0  0  1  0  0  0  0  0  0  0  0
   14.6386  -12.3105   -6.1338 N   0  0  0  1  0  0  0  0  0  0  0  0
   13.9469  -12.5375   -6.7898 H   0  0  0  1  0  0  0  0  0  0  0  0
   15.8734  -10.6666   -5.2102 O   0  0  0  1  0  0  0  0  0  0  0  0
   15.0273  -11.0394   -6.0219 C   0  0  0  1  0  0  0  0  0  0  0  0
   12.9050   -9.0652   -5.1997 C   0  0  0  1  0  0  0  0  0  0  0  0
   13.2584   -8.0637   -5.3300 H   0  0  0  1  0  0  0  0  0  0  0  0
   13.5348   -9.5784   -4.5033 H   0  0  0  1  0  0  0  0  0  0  0  0
   12.2706   -8.9489   -7.6489 C   0  0  0  1  0  0  0  0  0  0  0  0
   12.9056   -8.1170   -7.8719 H   0  0  0  1  0  0  0  0  0  0  0  0
   11.3174   -8.5914   -7.3195 H   0  0  0  1  0  0  0  0  0  0  0  0
   12.1439   -9.5461   -8.5276 H   0  0  0  1  0  0  0  0  0  0  0  0
   12.9082   -9.7974   -6.5423 C   0  0  0  1  0  0  0  0  0  0  0  0
   12.1835  -11.1408   -6.3991 C   0  0  0  1  0  0  0  0  0  0  0  0
   12.4431  -11.7759   -7.2201 H   0  0  0  1  0  0  0  0  0  0  0  0
   11.1262  -10.9768   -6.3958 H   0  0  0  1  0  0  0  0  0  0  0  0
   12.4755  -11.6072   -5.4815 H   0  0  0  1  0  0  0  0  0  0  0  0
   14.3580  -10.0602   -6.9666 C   0  0  0  1  0  0  0  0  0  0  0  0
   14.3470  -10.4895   -7.9466 H   0  0  0  1  0  0  0  0  0  0  0  0
   15.0082   -8.7856   -7.0089 O   0  0  0  1  0  0  0  0  0  0  0  0
   15.9546   -8.9050   -6.9009 H   0  0  0  1  0  0  0  0  0  0  0  0
   11.5428   -9.0477   -4.7121 O   0  0  0  1  0  0  0  0  0  0  0  0
   11.3667   -6.8001   -3.6238 O   0  0  0  1  0  0  0  0  0  0  0  0
   13.1670   -5.4439   -4.2859 O   0  0  0  1  0  0  0  0  0  0  0  0
   10.7229   -7.0936   -6.0375 O   0  0  0  0  0  0  0  0  0  0  0  0
    9.3197   -8.1112   -4.1388 O   0  0  0  1  0  0  0  0  0  0  0  0
   12.7332   -5.6735   -1.7829 O   0  0  0  0  0  0  0  0  0  0  0  0
   13.7165   -7.6370   -3.0935 O   0  0  0  1  0  0  0  0  0  0  0  0
   10.6326   -7.7297   -4.7027 P   0  0  0  1  0  0  0  0  0  0  0  0
   12.8479   -6.4471   -3.0441 P   0  0  0  1  0  0  0  0  0  0  0  0
   12.5020   -4.1667   -4.4654 C   0  0  0  1  0  0  0  0  0  0  0  0
   11.4621   -4.3221   -4.6640 H   0  0  0  1  0  0  0  0  0  0  0  0
   12.6120   -3.5714   -3.5831 H   0  0  0  1  0  0  0  0  0  0  0  0
   12.9955   -3.6645   -8.0457 O   0  0  0  1  0  0  0  0  0  0  0  0
   11.5175   -2.0752   -9.5251 O   0  0  0  1  0  0  0  0  0  0  0  0
   13.0485   -1.0181   -7.8316 O   0  5  0  1  0  0  0  0  0  0  0  0
   12.1110   -2.2906   -8.1866 P   0  0  0  1  0  0  0  0  0  0  0  0
   10.9871   -2.1899   -7.0242 O   0  5  0  1  0  0  0  0  0  0  0  0
   16.6377   -4.0716   -5.8763 N   0  0  0  1  0  0  0  0  0  0  0  0
   17.6601   -3.8670   -4.9861 C   0  0  0  1  0  0  0  0  0  0  0  0
   17.1504   -3.7738   -7.1015 C   0  0  0  1  0  0  0  0  0  0  0  0
   16.5867   -3.8344   -7.9734 H   0  0  0  1  0  0  0  0  0  0  0  0
   18.7536   -3.4546   -5.7595 C   0  0  0  1  0  0  0  0  0  0  0  0
   17.6380   -4.0357   -3.6632 N   0  0  0  1  0  0  0  0  0  0  0  0
   18.4030   -3.4065   -7.0998 N   0  0  0  1  0  0  0  0  0  0  0  0
   19.9257   -3.2010   -5.0534 C   0  0  0  1  0  0  0  0  0  0  0  0
   18.8153   -3.7515   -3.1200 C   0  0  0  1  0  0  0  0  0  0  0  0
   18.8711   -3.8568   -2.0868 H   0  0  0  1  0  0  0  0  0  0  0  0
   19.9437   -3.3467   -3.7241 N   0  0  0  1  0  0  0  0  0  0  0  0
   21.0895   -2.8013   -5.6557 N   0  0  0  1  0  0  0  0  0  0  0  0
   21.1358   -2.7277   -6.6318 H   0  0  0  1  0  0  0  0  0  0  0  0
   21.8757   -2.5891   -5.1104 H   0  0  0  1  0  0  0  0  0  0  0  0
   10.4132  -13.3481   -0.9162 S   0  0  0  1  0  0  0  0  0  0  0  0
    7.8214  -13.0056   -0.4388 O   0  0  0  1  0  0  0  0  0  0  0  0
    8.9265  -13.0924    0.0446 C   0  0  0  1  0  0  0  0  0  0  0  0
    9.2381  -13.0061    1.4667 C   0  0  0  1  0  0  0  0  0  0  0  0
   10.2334  -13.1583    1.7270 H   0  0  0  1  0  0  0  0  0  0  0  0
    8.4010  -12.7557    2.4726 C   0  0  0  1  0  0  0  0  0  0  0  0
    7.4056  -12.6036    2.2123 H   0  0  0  1  0  0  0  0  0  0  0  0
    8.7175  -12.6679    3.9171 C   0  0  0  1  0  0  0  0  0  0  0  0
    7.6937  -12.4703    4.8305 C   0  0  0  1  0  0  0  0  0  0  0  0
    6.7109  -12.3888    4.5004 H   0  0  0  1  0  0  0  0  0  0  0  0
   10.0230  -12.7815    4.3563 C   0  0  0  1  0  0  0  0  0  0  0  0
   10.7906  -12.9338    3.6714 H   0  0  0  1  0  0  0  0  0  0  0  0
    7.9790  -12.3816    6.1800 C   0  0  0  1  0  0  0  0  0  0  0  0
    7.2113  -12.2294    6.8649 H   0  0  0  1  0  0  0  0  0  0  0  0
   10.3093  -12.6926    5.7097 C   0  0  0  1  0  0  0  0  0  0  0  0
    9.2885  -12.4956    6.6204 C   0  0  0  1  0  0  0  0  0  0  0  0
    9.4433  -12.3978    7.9632 O   0  0  0  1  0  0  0  0  0  0  0  0
   10.3525  -12.5996    8.1965 H   0  0  0  1  0  0  0  0  0  0  0  0
   11.5515  -12.9170    6.2000 O   0  0  0  1  0  0  0  0  0  0  0  0
   12.5979  -13.1647    5.2480 C   0  0  0  1  0  0  0  0  0  0  0  0
   12.3690  -12.6680    4.3284 H   0  0  0  1  0  0  0  0  0  0  0  0
   12.6795  -14.2173    5.0739 H   0  0  0  1  0  0  0  0  0  0  0  0
   13.5248  -12.7933    5.6326 H   0  0  0  1  0  0  0  0  0  0  0  0
  1  2  1  0  0  0  0
  1  3  1  0  0  0  0
  1  4  1  0  0  0  0
  1 65  1  0  0  0  0
  3  6  1  0  0  0  0
  4  5  1  0  0  0  0
  4  8  1  0  0  0  0
  4 10  1  0  0  0  0
  6  7  1  0  0  0  0
  6  8  1  0  0  0  0
  6 57  1  0  0  0  0
  8  9  1  0  0  0  0
  8 60  1  0  0  0  0
 10 11  1  0  0  0  0
 12 13  1  0  0  0  0
 12 14  1  0  0  0  0
 12 15  1  0  0  0  0
 12 18  1  0  0  0  0
 15 16  1  0  0  0  0
 15 17  1  0  0  0  0
 15 79  1  0  0  0  0
 18 19  1  0  0  0  0
 18 20  1  0  0  0  0
 20 21  2  0  0  0  0
 20 25  1  0  0  0  0
 22 23  1  0  0  0  0
 22 24  1  0  0  0  0
 22 25  1  0  0  0  0
 22 28  1  0  0  0  0
 25 26  1  0  0  0  0
 25 27  1  0  0  0  0
 28 29  1  0  0  0  0
 28 31  1  0  0  0  0
 30 31  2  0  0  0  0
 31 44  1  0  0  0  0
 32 33  1  0  0  0  0
 32 34  1  0  0  0  0
 32 39  1  0  0  0  0
 32 48  1  0  0  0  0
 35 36  1  0  0  0  0
 35 37  1  0  0  0  0
 35 38  1  0  0  0  0
 35 39  1  0  0  0  0
 39 40  1  0  0  0  0
 39 44  1  0  0  0  0
 40 41  1  0  0  0  0
 40 42  1  0  0  0  0
 40 43  1  0  0  0  0
 44 45  1  0  0  0  0
 44 46  1  0  0  0  0
 46 47  1  0  0  0  0
 48 55  1  0  0  0  0
 49 55  1  0  0  0  0
 49 56  1  0  0  0  0
 50 56  1  0  0  0  0
 50 57  1  0  0  0  0
 51 55  1  0  0  0  0
 52 55  2  0  0  0  0
 53 56  1  0  0  0  0
 54 56  2  0  0  0  0
 57 58  1  0  0  0  0
 57 59  1  0  0  0  0
 60 63  1  0  0  0  0
 61 63  2  0  0  0  0
 62 63  1  0  0  0  0
 63 64  1  0  0  0  0
 65 66  1  0  0  0  0
 65 67  1  0  0  0  0
 66 69  2  0  0  0  0
 66 70  1  0  0  0  0
 67 68  1  0  0  0  0
 67 71  2  0  0  0  0
 69 71  1  0  0  0  0
 69 72  1  0  0  0  0
 70 73  2  0  0  0  0
 72 75  2  0  0  0  0
 72 76  1  0  0  0  0
 73 74  1  0  0  0  0
 73 75  1  0  0  0  0
 76 77  1  0  0  0  0
 76 78  1  0  0  0  0
 79 81  1  0  0  0  0
 80 81  2  0  0  0  0
 81 82  1  0  0  0  0
 82 83  1  0  0  0  0
 82 84  2  0  0  0  0
 84 85  1  0  0  0  0
 84 86  1  0  0  0  0
 86 87  1  0  0  0  0
 86 89  2  0  0  0  0
 87 88  1  0  0  0  0
 87 91  2  0  0  0  0
 89 90  1  0  0  0  0
 89 93  1  0  0  0  0
 91 92  1  0  0  0  0
 91 94  1  0  0  0  0
 93 94  2  0  0  0  0
 93 97  1  0  0  0  0
 94 95  1  0  0  0  0
 95 96  1  0  0  0  0
 97 98  1  0  0  0  0
 98 99  1  0  0  0  0
 98100  1  0  0  0  0
 98101  1  0  0  0  0
M  BCL ATM C_TeTeTeTe H_S O_Te2Te2TeTe C_TeTeTeTe H_S C_TeTeTeTe H_S C_TeTeTeTe H_S O_Te2Te2TeTe H_S C_TeTeTeTe H_S H_S C_TeTeTeTe H_S H_S N_TrTrTrPi2 H_S C_TrTrTrPi O_Tr2Tr2TrPi C_TeTeTeTe H_S H_S C_TeTeTeTe H_S H_S N_TrTrTrPi2 H_S O_Tr2Tr2TrPi C_TrTrTrPi C_TeTeTeTe H_S H_S C_TeTeTeTe H_S H_S H_S C_TeTeTeTe C_TeTeTeTe H_S H_S H_S C_TeTeTeTe H_S O_Te2Te2TeTe H_S O_Tr2TrTrPi2 O_Tr2TrTrPi2 O_Tr2TrTrPi2 O_Te2Te2TeTe O_Tr2Tr2TrPi O_Te2Te2TeTe O_Tr2Tr2TrPi P_TeTeTeTePi P_TeTeTeTePi C_TeTeTeTe H_S H_S O_Tr2TrTrPi2 O_Tr2Tr2TrPi O_Te2Te2Te2Te P_TeTeTeTePi O_Te2Te2Te2Te N_TrTrTrPi2 C_TrTrTrPi C_TrTrTrPi H_S C_TrTrTrPi N_Tr2TrTrPi N_Tr2TrTrPi C_TrTrTrPi C_TrTrTrPi H_S N_Tr2TrTrPi N_TrTrTrPi2 H_S H_S S_Te2Te2TeTe O_Tr2Tr2TrPi C_TrTrTrPi C_TrTrTrPi H_S C_TrTrTrPi H_S C_TrTrTrPi C_TrTrTrPi H_S C_TrTrTrPi H_S C_TrTrTrPi H_S C_TrTrTrPi C_TrTrTrPi O_Te2Te2TeTe H_S O_Tr2TrTrPi2 C_TeTeTeTe H_S H_S H_S
M  BCL BND NonConjugatedSingleBond NonConjugatedSingleBondInRing NonConjugatedSingleBondInRing NonConjugatedSingleBond NonConjugatedSingleBondInRing NonConjugatedSingleBond NonConjugatedSingleBondInRing NonConjugatedSingleBond NonConjugatedSingleBond NonConjugatedSingleBondInRing NonConjugatedSingleBond NonConjugatedSingleBond NonConjugatedSingleBond NonConjugatedSingleBond NonConjugatedSingleBond NonConjugatedSingleBond NonConjugatedSingleBond NonConjugatedSingleBond NonConjugatedSingleBond NonConjugatedSingleBond NonConjugatedSingleBond NonConjugatedSingleBond AmideSingleBond ConjugatedDoubleBond NonConjugatedSingleBond NonConjugatedSingleBond NonConjugatedSingleBond NonConjugatedSingleBond NonConjugatedSingleBond NonConjugatedSingleBond NonConjugatedSingleBond NonConjugatedSingleBond AmideSingleBond ConjugatedDoubleBond NonConjugatedSingleBond NonConjugatedSingleBond NonConjugatedSingleBond NonConjugatedSingleBond NonConjugatedSingleBond NonConjugatedSingleBond NonConjugatedSingleBond NonConjugatedSingleBond NonConjugatedSingleBond NonConjugatedSingleBond NonConjugatedSingleBond NonConjugatedSingleBond NonConjugatedSingleBond NonConjugatedSingleBond NonConjugatedSingleBond NonConjugatedSingleBond NonConjugatedSingleBond ConjugatedSingleBond ConjugatedSingleBond ConjugatedSingleBond ConjugatedSingleBond NonConjugatedSingleBond ConjugatedSingleBond ConjugatedDoubleBond ConjugatedSingleBond ConjugatedDoubleBond NonConjugatedSingleBond NonConjugatedSingleBond ConjugatedSingleBond ConjugatedDoubleBond ConjugatedSingleBond ConjugatedSingleBond AromaticSingleBond AromaticSingleBond AromaticDoubleBond AromaticSingleBond NonConjugatedSingleBond AromaticDoubleBond AromaticSingleBond AromaticSingleBond AromaticDoubleBond AromaticDoubleBond ConjugatedSingleBond NonConjugatedSingleBond AromaticSingleBond NonConjugatedSingleBond NonConjugatedSingleBond ConjugatedSingleBond ConjugatedDoubleBond ConjugatedSingleBond NonConjugatedSingleBond ConjugatedDoubleBond NonConjugatedSingleBond ConjugatedSingleBond AromaticSingleBond AromaticDoubleBond NonConjugatedSingleBond AromaticDoubleBond NonConjugatedSingleBond AromaticSingleBond NonConjugatedSingleBond AromaticSingleBond AromaticDoubleBond ConjugatedSingleBond ConjugatedSingleBond NonConjugatedSingleBond NonConjugatedSingleBond NonConjugatedSingleBond NonConjugatedSingleBond NonConjugatedSingleBond
M  BCL CHI   1   R   4   R   6   R   8   S  44   S  55   S  56   R
M  BCL DBI - - - - - - - - - - E - - -
M  END
> <ConfClashScore>
2.63954e-05 

> <ConfOneFourInteractionScore>
-0.970807 

> <ConfScore>
-0.0360554 

> <ConfScorePBest>
0.0109785 

> <ConfTolerance>
2.89534 

$$$$
L02.****
  PyMOL2.5          3D                             0

101104  0  0  0  0  0  0  0  0999 V2000
   15.2653   -4.4816   -5.5035 C   0  0  0  1  0  0  0  0  0  0  0  0
   15.3164   -5.4468   -5.0444 H   0  0  0  1  0  0  0  0  0  0  0  0
   14.6977   -3.5618   -4.6141 O   0  0  0  1  0  0  0  0  0  0  0  0
   14.3729   -4.5450   -6.7532 C   0  0  0  1  0  0  0  0  0  0  0  0
   14.9598   -4.5233   -7.6476 H   0  0  0  1  0  0  0  0  0  0  0  0
   13.4234   -3.0684   -5.1283 C   0  0  0  1  0  0  0  0  0  0  0  0
   13.2981   -2.0309   -4.8983 H   0  0  0  1  0  0  0  0  0  0  0  0
   13.5173   -3.2779   -6.6223 C   0  0  0  1  0  0  0  0  0  0  0  0
   12.5475   -3.4256   -7.0494 H   0  0  0  1  0  0  0  0  0  0  0  0
   13.5590   -5.7187   -6.7454 O   0  0  0  1  0  0  0  0  0  0  0  0
   13.7351   -6.2361   -7.5347 H   0  0  0  1  0  0  0  0  0  0  0  0
    5.4661   -2.2906    3.3714 C   0  0  0  1  0  0  0  0  0  0  0  0
    5.4751   -2.9884    2.5602 H   0  0  0  1  0  0  0  0  0  0  0  0
    4.6761   -2.5403    4.0485 H   0  0  0  1  0  0  0  0  0  0  0  0
    5.1865   -0.9192    2.8083 C   0  0  0  1  0  0  0  0  0  0  0  0
    4.2005   -0.9169    2.3928 H   0  0  0  1  0  0  0  0  0  0  0  0
    5.8997   -0.7166    2.0369 H   0  0  0  1  0  0  0  0  0  0  0  0
    6.7365   -2.4096    4.0891 N   0  0  0  1  0  0  0  0  0  0  0  0
    6.7116   -2.3506    5.0671 H   0  0  0  1  0  0  0  0  0  0  0  0
    7.9287   -2.5928    3.5107 C   0  0  0  1  0  0  0  0  0  0  0  0
    8.0814   -2.6389    2.2908 O   0  0  0  1  0  0  0  0  0  0  0  0
   10.4075   -2.2232    3.8699 C   0  0  0  1  0  0  0  0  0  0  0  0
   10.6953   -2.8566    3.0570 H   0  0  0  1  0  0  0  0  0  0  0  0
   11.1594   -2.2543    4.6305 H   0  0  0  1  0  0  0  0  0  0  0  0
    9.1005   -2.7428    4.4543 C   0  0  0  1  0  0  0  0  0  0  0  0
    9.2199   -3.7804    4.6867 H   0  0  0  1  0  0  0  0  0  0  0  0
    8.8879   -2.1983    5.3506 H   0  0  0  1  0  0  0  0  0  0  0  0
   10.2952   -0.8493    3.3771 N   0  0  0  1  0  0  0  0  0  0  0  0
    9.4034   -0.4606    3.2587 H   0  0  0  1  0  0  0  0  0  0  0  0
   12.5283   -0.4624    3.1771 O   0  0  0  1  0  0  0  0  0  0  0  0
   11.3646   -0.1080    3.0834 C   0  0  0  1  0  0  0  0  0  0  0  0
   11.6492    0.6115    0.2663 C   0  0  0  1  0  0  0  0  0  0  0  0
   12.0579    0.9609   -0.6588 H   0  0  0  1  0  0  0  0  0  0  0  0
   10.5879    0.5126    0.1732 H   0  0  0  1  0  0  0  0  0  0  0  0
   11.6337    3.0275    0.8560 C   0  0  0  1  0  0  0  0  0  0  0  0
   10.6642    3.0223    0.4034 H   0  0  0  1  0  0  0  0  0  0  0  0
   12.3636    3.3238    0.1319 H   0  0  0  1  0  0  0  0  0  0  0  0
   11.6415    3.7174    1.6739 H   0  0  0  1  0  0  0  0  0  0  0  0
   11.9660    1.6217    1.3704 C   0  0  0  1  0  0  0  0  0  0  0  0
   13.4621    1.6080    1.7545 C   0  0  0  1  0  0  0  0  0  0  0  0
   13.6220    2.2557    2.5911 H   0  0  0  1  0  0  0  0  0  0  0  0
   14.0463    1.9469    0.9246 H   0  0  0  1  0  0  0  0  0  0  0  0
   13.7543    0.6119    2.0139 H   0  0  0  1  0  0  0  0  0  0  0  0
   11.0895    1.3134    2.5854 C   0  0  0  1  0  0  0  0  0  0  0  0
   11.3477    1.9974    3.3667 H   0  0  0  1  0  0  0  0  0  0  0  0
    9.7231    1.4871    2.2295 O   0  0  0  1  0  0  0  0  0  0  0  0
    9.3518    0.6432    1.9620 H   0  0  0  1  0  0  0  0  0  0  0  0
   12.2220   -0.6790    0.5830 O   0  0  0  1  0  0  0  0  0  0  0  0
   11.4026   -1.7933   -1.5180 O   0  0  0  1  0  0  0  0  0  0  0  0
   12.1760   -3.5834   -3.1390 O   0  0  0  1  0  0  0  0  0  0  0  0
   12.4569   -3.1930    0.1413 O   0  0  0  0  0  0  0  0  0  0  0  0
   10.2291   -2.0570    0.7190 O   0  0  0  1  0  0  0  0  0  0  0  0
   10.1361   -3.9381   -1.8277 O   0  0  0  0  0  0  0  0  0  0  0  0
   10.1406   -2.1497   -3.6000 O   0  0  0  1  0  0  0  0  0  0  0  0
   11.5414   -2.0333    0.0548 P   0  0  0  1  0  0  0  0  0  0  0  0
   10.8991   -2.8746   -2.5531 P   0  0  0  1  0  0  0  0  0  0  0  0
   12.2985   -3.8377   -4.5625 C   0  0  0  1  0  0  0  0  0  0  0  0
   12.4711   -4.8819   -4.7202 H   0  0  0  1  0  0  0  0  0  0  0  0
   11.3920   -3.5477   -5.0514 H   0  0  0  1  0  0  0  0  0  0  0  0
   14.1623   -2.1483   -7.2645 O   0  0  0  1  0  0  0  0  0  0  0  0
   14.1702    0.2044   -8.3081 O   0  0  0  1  0  0  0  0  0  0  0  0
   12.3748   -0.4136   -6.4866 O   0  5  0  1  0  0  0  0  0  0  0  0
   13.2904   -0.8472   -7.7507 P   0  0  0  1  0  0  0  0  0  0  0  0
   12.3558   -1.3325   -8.9817 O   0  5  0  1  0  0  0  0  0  0  0  0
   16.6140   -4.0455   -5.8769 N   0  0  0  1  0  0  0  0  0  0  0  0
   17.6454   -3.8493   -4.9952 C   0  0  0  1  0  0  0  0  0  0  0  0
   17.1197   -3.7537   -7.1065 C   0  0  0  1  0  0  0  0  0  0  0  0
   16.5484   -3.8100   -7.9738 H   0  0  0  1  0  0  0  0  0  0  0  0
   18.7363   -3.4478   -5.7778 C   0  0  0  1  0  0  0  0  0  0  0  0
   17.6323   -4.0164   -3.6720 N   0  0  0  1  0  0  0  0  0  0  0  0
   18.3755   -3.3978   -7.1152 N   0  0  0  1  0  0  0  0  0  0  0  0
   19.9164   -3.2042   -5.0813 C   0  0  0  1  0  0  0  0  0  0  0  0
   18.8165   -3.7425   -3.1385 C   0  0  0  1  0  0  0  0  0  0  0  0
   18.8796   -3.8472   -2.1057 H   0  0  0  1  0  0  0  0  0  0  0  0
   19.9436   -3.3487   -3.7520 N   0  0  0  1  0  0  0  0  0  0  0  0
   21.1241   -2.8088   -5.6461 N   0  0  0  1  0  0  0  0  0  0  0  0
   21.9093   -2.6697   -5.0764 H   0  0  0  1  0  0  0  0  0  0  0  0
   21.1900   -2.6693   -6.6139 H   0  0  0  1  0  0  0  0  0  0  0  0
    5.2911    0.3944    4.0471 S   0  0  0  1  0  0  0  0  0  0  0  0
    3.3329   -1.0554    5.0324 O   0  0  0  1  0  0  0  0  0  0  0  0
    3.9443   -0.0210    5.1564 C   0  0  0  1  0  0  0  0  0  0  0  0
    3.6155    0.9336    6.2106 C   0  0  0  1  0  0  0  0  0  0  0  0
    4.2362    1.7648    6.2850 H   0  0  0  1  0  0  0  0  0  0  0  0
    2.6166    0.8683    7.0883 C   0  0  0  1  0  0  0  0  0  0  0  0
    2.0106    0.0284    6.9935 H   0  0  0  1  0  0  0  0  0  0  0  0
    2.2234    1.7953    8.1805 C   0  0  0  1  0  0  0  0  0  0  0  0
    2.9850    2.9378    8.3704 C   0  0  0  1  0  0  0  0  0  0  0  0
    3.7541    3.1660    7.7085 H   0  0  0  1  0  0  0  0  0  0  0  0
    1.1980    1.4950    9.0571 C   0  0  0  1  0  0  0  0  0  0  0  0
    0.6239    0.6399    8.9124 H   0  0  0  1  0  0  0  0  0  0  0  0
    2.7225    3.7738    9.4393 C   0  0  0  1  0  0  0  0  0  0  0  0
    3.2966    4.6289    9.5840 H   0  0  0  1  0  0  0  0  0  0  0  0
    0.9345    2.3333   10.1292 C   0  0  0  1  0  0  0  0  0  0  0  0
    1.6940    3.4725   10.3184 C   0  0  0  1  0  0  0  0  0  0  0  0
    1.3609    4.2339   11.3889 O   0  0  0  1  0  0  0  0  0  0  0  0
    1.5439    3.7486   12.1967 H   0  0  0  1  0  0  0  0  0  0  0  0
   -0.0886    1.9343   10.9217 O   0  0  0  1  0  0  0  0  0  0  0  0
   -0.3989    0.5322   10.9364 C   0  0  0  1  0  0  0  0  0  0  0  0
   -0.6569    0.2130    9.9483 H   0  0  0  1  0  0  0  0  0  0  0  0
   -1.2242    0.3567   11.5945 H   0  0  0  1  0  0  0  0  0  0  0  0
    0.4531   -0.0178   11.2776 H   0  0  0  1  0  0  0  0  0  0  0  0
  1  2  1  0  0  0  0
  1  3  1  0  0  0  0
  1  4  1  0  0  0  0
  1 65  1  0  0  0  0
  3  6  1  0  0  0  0
  4  5  1  0  0  0  0
  4  8  1  0  0  0  0
  4 10  1  0  0  0  0
  6  7  1  0  0  0  0
  6  8  1  0  0  0  0
  6 57  1  0  0  0  0
  8  9  1  0  0  0  0
  8 60  1  0  0  0  0
 10 11  1  0  0  0  0
 12 13  1  0  0  0  0
 12 14  1  0  0  0  0
 12 15  1  0  0  0  0
 12 18  1  0  0  0  0
 15 16  1  0  0  0  0
 15 17  1  0  0  0  0
 15 79  1  0  0  0  0
 18 19  1  0  0  0  0
 18 20  1  0  0  0  0
 20 21  2  0  0  0  0
 20 25  1  0  0  0  0
 22 23  1  0  0  0  0
 22 24  1  0  0  0  0
 22 25  1  0  0  0  0
 22 28  1  0  0  0  0
 25 26  1  0  0  0  0
 25 27  1  0  0  0  0
 28 29  1  0  0  0  0
 28 31  1  0  0  0  0
 30 31  2  0  0  0  0
 31 44  1  0  0  0  0
 32 33  1  0  0  0  0
 32 34  1  0  0  0  0
 32 39  1  0  0  0  0
 32 48  1  0  0  0  0
 35 36  1  0  0  0  0
 35 37  1  0  0  0  0
 35 38  1  0  0  0  0
 35 39  1  0  0  0  0
 39 40  1  0  0  0  0
 39 44  1  0  0  0  0
 40 41  1  0  0  0  0
 40 42  1  0  0  0  0
 40 43  1  0  0  0  0
 44 45  1  0  0  0  0
 44 46  1  0  0  0  0
 46 47  1  0  0  0  0
 48 55  1  0  0  0  0
 49 55  1  0  0  0  0
 49 56  1  0  0  0  0
 50 56  1  0  0  0  0
 50 57  1  0  0  0  0
 51 55  1  0  0  0  0
 52 55  2  0  0  0  0
 53 56  1  0  0  0  0
 54 56  2  0  0  0  0
 57 58  1  0  0  0  0
 57 59  1  0  0  0  0
 60 63  1  0  0  0  0
 61 63  2  0  0  0  0
 62 63  1  0  0  0  0
 63 64  1  0  0  0  0
 65 66  1  0  0  0  0
 65 67  1  0  0  0  0
 66 69  2  0  0  0  0
 66 70  1  0  0  0  0
 67 68  1  0  0  0  0
 67 71  2  0  0  0  0
 69 71  1  0  0  0  0
 69 72  1  0  0  0  0
 70 73  2  0  0  0  0
 72 75  2  0  0  0  0
 72 76  1  0  0  0  0
 73 74  1  0  0  0  0
 73 75  1  0  0  0  0
 76 77  1  0  0  0  0
 76 78  1  0  0  0  0
 79 81  1  0  0  0  0
 80 81  2  0  0  0  0
 81 82  1  0  0  0  0
 82 83  1  0  0  0  0
 82 84  2  0  0  0  0
 84 85  1  0  0  0  0
 84 86  1  0  0  0  0
 86 87  1  0  0  0  0
 86 89  2  0  0  0  0
 87 88  1  0  0  0  0
 87 91  2  0  0  0  0
 89 90  1  0  0  0  0
 89 93  1  0  0  0  0
 91 92  1  0  0  0  0
 91 94  1  0  0  0  0
 93 94  2  0  0  0  0
 93 97  1  0  0  0  0
 94 95  1  0  0  0  0
 95 96  1  0  0  0  0
 97 98  1  0  0  0  0
 98 99  1  0  0  0  0
 98100  1  0  0  0  0
 98101  1  0  0  0  0
M  BCL ATM C_TeTeTeTe H_S O_Te2Te2TeTe C_TeTeTeTe H_S C_TeTeTeTe H_S C_TeTeTeTe H_S O_Te2Te2TeTe H_S C_TeTeTeTe H_S H_S C_TeTeTeTe H_S H_S N_TrTrTrPi2 H_S C_TrTrTrPi O_Tr2Tr2TrPi C_TeTeTeTe H_S H_S C_TeTeTeTe H_S H_S N_TrTrTrPi2 H_S O_Tr2Tr2TrPi C_TrTrTrPi C_TeTeTeTe H_S H_S C_TeTeTeTe H_S H_S H_S C_TeTeTeTe C_TeTeTeTe H_S H_S H_S C_TeTeTeTe H_S O_Te2Te2TeTe H_S O_Tr2TrTrPi2 O_Tr2TrTrPi2 O_Tr2TrTrPi2 O_Te2Te2TeTe O_Tr2Tr2TrPi O_Te2Te2TeTe O_Tr2Tr2TrPi P_TeTeTeTePi P_TeTeTeTePi C_TeTeTeTe H_S H_S O_Tr2TrTrPi2 O_Tr2Tr2TrPi O_Te2Te2Te2Te P_TeTeTeTePi O_Te2Te2Te2Te N_TrTrTrPi2 C_TrTrTrPi C_TrTrTrPi H_S C_TrTrTrPi N_Tr2TrTrPi N_Tr2TrTrPi C_TrTrTrPi C_TrTrTrPi H_S N_Tr2TrTrPi N_TrTrTrPi2 H_S H_S S_Te2Te2TeTe O_Tr2Tr2TrPi C_TrTrTrPi C_TrTrTrPi H_S C_TrTrTrPi H_S C_TrTrTrPi C_TrTrTrPi H_S C_TrTrTrPi H_S C_TrTrTrPi H_S C_TrTrTrPi C_TrTrTrPi O_Te2Te2TeTe H_S O_Tr2TrTrPi2 C_TeTeTeTe H_S H_S H_S
M  BCL BND NonConjugatedSingleBond NonConjugatedSingleBondInRing NonConjugatedSingleBondInRing NonConjugatedSingleBond NonConjugatedSingleBondInRing NonConjugatedSingleBond NonConjugatedSingleBondInRing NonConjugatedSingleBond NonConjugatedSingleBond NonConjugatedSingleBondInRing NonConjugatedSingleBond NonConjugatedSingleBond NonConjugatedSingleBond NonConjugatedSingleBond NonConjugatedSingleBond NonConjugatedSingleBond NonConjugatedSingleBond NonConjugatedSingleBond NonConjugatedSingleBond NonConjugatedSingleBond NonConjugatedSingleBond NonConjugatedSingleBond AmideSingleBond ConjugatedDoubleBond NonConjugatedSingleBond NonConjugatedSingleBond NonConjugatedSingleBond NonConjugatedSingleBond NonConjugatedSingleBond NonConjugatedSingleBond NonConjugatedSingleBond NonConjugatedSingleBond AmideSingleBond ConjugatedDoubleBond NonConjugatedSingleBond NonConjugatedSingleBond NonConjugatedSingleBond NonConjugatedSingleBond NonConjugatedSingleBond NonConjugatedSingleBond NonConjugatedSingleBond NonConjugatedSingleBond NonConjugatedSingleBond NonConjugatedSingleBond NonConjugatedSingleBond NonConjugatedSingleBond NonConjugatedSingleBond NonConjugatedSingleBond NonConjugatedSingleBond NonConjugatedSingleBond NonConjugatedSingleBond ConjugatedSingleBond ConjugatedSingleBond ConjugatedSingleBond ConjugatedSingleBond NonConjugatedSingleBond ConjugatedSingleBond ConjugatedDoubleBond ConjugatedSingleBond ConjugatedDoubleBond NonConjugatedSingleBond NonConjugatedSingleBond ConjugatedSingleBond ConjugatedDoubleBond ConjugatedSingleBond ConjugatedSingleBond AromaticSingleBond AromaticSingleBond AromaticDoubleBond AromaticSingleBond NonConjugatedSingleBond AromaticDoubleBond AromaticSingleBond AromaticSingleBond AromaticDoubleBond AromaticDoubleBond ConjugatedSingleBond NonConjugatedSingleBond AromaticSingleBond NonConjugatedSingleBond NonConjugatedSingleBond ConjugatedSingleBond ConjugatedDoubleBond ConjugatedSingleBond NonConjugatedSingleBond ConjugatedDoubleBond NonConjugatedSingleBond ConjugatedSingleBond AromaticSingleBond AromaticDoubleBond NonConjugatedSingleBond AromaticDoubleBond NonConjugatedSingleBond AromaticSingleBond NonConjugatedSingleBond AromaticSingleBond AromaticDoubleBond ConjugatedSingleBond ConjugatedSingleBond NonConjugatedSingleBond NonConjugatedSingleBond NonConjugatedSingleBond NonConjugatedSingleBond NonConjugatedSingleBond
M  BCL CHI   1   R   4   R   6   R   8   S  44   S  55   S  56   R
M  BCL DBI - - - - - - - - - - E - - -
M  END
> <ConfClashScore>
0 

> <ConfOneFourInteractionScore>
-0.975648 

> <ConfScore>
-0.035371 

> <ConfScorePBest>
0.0108755 

> <ConfTolerance>
2.69055 

$$$$
L02.****
  PyMOL2.5          3D                             0

101104  0  0  0  0  0  0  0  0999 V2000
   15.2558   -4.4045   -5.5663 C   0  0  0  1  0  0  0  0  0  0  0  0
   14.6661   -4.3530   -6.4577 H   0  0  0  1  0  0  0  0  0  0  0  0
   15.1903   -5.7134   -5.0125 O   0  0  0  1  0  0  0  0  0  0  0  0
   14.7104   -3.4615   -4.5321 C   0  0  0  1  0  0  0  0  0  0  0  0
   15.4948   -2.8636   -4.1174 H   0  0  0  1  0  0  0  0  0  0  0  0
   14.0825   -5.7063   -4.0990 C   0  0  0  1  0  0  0  0  0  0  0  0
   14.2039   -6.4657   -3.3551 H   0  0  0  1  0  0  0  0  0  0  0  0
   14.1056   -4.3512   -3.4737 C   0  0  0  1  0  0  0  0  0  0  0  0
   13.1146   -4.0297   -3.2297 H   0  0  0  1  0  0  0  0  0  0  0  0
   13.7142   -2.6119   -5.1030 O   0  0  0  1  0  0  0  0  0  0  0  0
   12.8862   -3.0924   -5.1751 H   0  0  0  1  0  0  0  0  0  0  0  0
   16.1778    1.4431   -8.0427 C   0  0  0  1  0  0  0  0  0  0  0  0
   16.4988    1.2086   -7.0493 H   0  0  0  1  0  0  0  0  0  0  0  0
   16.7250    0.8491   -8.7445 H   0  0  0  1  0  0  0  0  0  0  0  0
   16.4927    2.8891   -8.3073 C   0  0  0  1  0  0  0  0  0  0  0  0
   16.1461    3.1488   -9.2857 H   0  0  0  1  0  0  0  0  0  0  0  0
   17.5519    3.0314   -8.2541 H   0  0  0  1  0  0  0  0  0  0  0  0
   14.7605    1.0950   -8.1580 N   0  0  0  1  0  0  0  0  0  0  0  0
   14.1106    1.6959   -7.7373 H   0  0  0  1  0  0  0  0  0  0  0  0
   14.2842    0.0151   -8.7962 C   0  0  0  1  0  0  0  0  0  0  0  0
   15.0074   -0.7990   -9.3643 O   0  0  0  1  0  0  0  0  0  0  0  0
   12.1720   -0.6082  -10.0790 C   0  0  0  1  0  0  0  0  0  0  0  0
   12.7340   -1.4398  -10.4498 H   0  0  0  1  0  0  0  0  0  0  0  0
   12.2172    0.1959  -10.7835 H   0  0  0  1  0  0  0  0  0  0  0  0
   12.7892   -0.1479   -8.7783 C   0  0  0  1  0  0  0  0  0  0  0  0
   12.3571    0.7974   -8.5243 H   0  0  0  1  0  0  0  0  0  0  0  0
   12.5446   -0.8666   -8.0243 H   0  0  0  1  0  0  0  0  0  0  0  0
   10.7751   -1.0179   -9.9238 N   0  0  0  1  0  0  0  0  0  0  0  0
   10.1128   -0.3152   -9.7567 H   0  0  0  1  0  0  0  0  0  0  0  0
   11.1046   -3.2225  -10.2069 O   0  0  0  1  0  0  0  0  0  0  0  0
   10.3310   -2.2900   -9.9934 C   0  0  0  1  0  0  0  0  0  0  0  0
    9.0796   -4.8777   -8.7696 C   0  0  0  1  0  0  0  0  0  0  0  0
   10.1476   -4.8335   -8.8182 H   0  0  0  1  0  0  0  0  0  0  0  0
    8.7002   -5.3368   -9.6585 H   0  0  0  1  0  0  0  0  0  0  0  0
    8.9047   -2.7620   -7.3160 C   0  0  0  1  0  0  0  0  0  0  0  0
    8.8315   -3.4595   -6.5078 H   0  0  0  1  0  0  0  0  0  0  0  0
    8.2527   -1.9338   -7.1322 H   0  0  0  1  0  0  0  0  0  0  0  0
    9.9128   -2.4123   -7.3947 H   0  0  0  1  0  0  0  0  0  0  0  0
    8.4992   -3.4506   -8.6246 C   0  0  0  1  0  0  0  0  0  0  0  0
    6.9770   -3.6093   -8.6123 C   0  0  0  1  0  0  0  0  0  0  0  0
    6.7264   -4.6388   -8.4631 H   0  0  0  1  0  0  0  0  0  0  0  0
    6.5764   -3.2768   -9.5471 H   0  0  0  1  0  0  0  0  0  0  0  0
    6.5640   -3.0232   -7.8180 H   0  0  0  1  0  0  0  0  0  0  0  0
    8.8520   -2.5380   -9.8010 C   0  0  0  1  0  0  0  0  0  0  0  0
    8.4547   -2.9675  -10.6969 H   0  0  0  1  0  0  0  0  0  0  0  0
    8.1824   -1.2984   -9.5161 O   0  0  0  1  0  0  0  0  0  0  0  0
    7.2332   -1.4417   -9.5068 H   0  0  0  1  0  0  0  0  0  0  0  0
    8.6732   -5.6329   -7.6172 O   0  0  0  1  0  0  0  0  0  0  0  0
   10.6077   -6.7847   -6.4565 O   0  0  0  1  0  0  0  0  0  0  0  0
   12.7663   -7.2646   -5.3709 O   0  0  0  1  0  0  0  0  0  0  0  0
    8.2161   -7.6140   -6.2831 O   0  0  0  0  0  0  0  0  0  0  0  0
    9.6120   -7.8466   -8.4210 O   0  0  0  1  0  0  0  0  0  0  0  0
   11.6348   -9.0664   -6.6641 O   0  0  0  0  0  0  0  0  0  0  0  0
   12.6168   -7.0461   -7.8982 O   0  0  0  1  0  0  0  0  0  0  0  0
    9.2301   -7.0807   -7.2150 P   0  0  0  1  0  0  0  0  0  0  0  0
   11.9338   -7.5758   -6.6792 P   0  0  0  1  0  0  0  0  0  0  0  0
   12.8139   -5.9225   -4.8211 C   0  0  0  1  0  0  0  0  0  0  0  0
   12.7365   -5.2124   -5.6178 H   0  0  0  1  0  0  0  0  0  0  0  0
   11.9961   -5.7900   -4.1439 H   0  0  0  1  0  0  0  0  0  0  0  0
   14.9152   -4.3525   -2.2870 O   0  0  0  1  0  0  0  0  0  0  0  0
   15.6665   -6.7653   -2.0168 O   0  0  0  1  0  0  0  0  0  0  0  0
   13.6766   -5.9094   -0.5460 O   0  5  0  1  0  0  0  0  0  0  0  0
   15.0991   -5.6228   -1.2663 P   0  0  0  1  0  0  0  0  0  0  0  0
   16.1443   -5.1314   -0.1304 O   0  5  0  1  0  0  0  0  0  0  0  0
   16.6442   -4.0598   -5.8783 N   0  0  0  1  0  0  0  0  0  0  0  0
   17.6624   -3.8604   -4.9820 C   0  0  0  1  0  0  0  0  0  0  0  0
   17.1649   -3.7620   -7.1001 C   0  0  0  1  0  0  0  0  0  0  0  0
   16.6059   -3.8191   -7.9752 H   0  0  0  1  0  0  0  0  0  0  0  0
   18.7617   -3.4508   -5.7486 C   0  0  0  1  0  0  0  0  0  0  0  0
   17.6322   -4.0311   -3.6596 N   0  0  0  1  0  0  0  0  0  0  0  0
   18.4188   -3.3992   -7.0908 N   0  0  0  1  0  0  0  0  0  0  0  0
   19.9308   -3.2026   -5.0355 C   0  0  0  1  0  0  0  0  0  0  0  0
   18.8075   -3.7522   -3.1093 C   0  0  0  1  0  0  0  0  0  0  0  0
   18.8571   -3.8593   -2.0760 H   0  0  0  1  0  0  0  0  0  0  0  0
   19.9407   -3.3505   -3.7063 N   0  0  0  1  0  0  0  0  0  0  0  0
   21.0726   -2.8079   -5.6815 N   0  0  0  1  0  0  0  0  0  0  0  0
   21.9031   -2.6832   -5.1765 H   0  0  0  1  0  0  0  0  0  0  0  0
   21.0588   -2.6503   -6.6487 H   0  0  0  1  0  0  0  0  0  0  0  0
   15.6926    3.9601   -7.0951 S   0  0  0  1  0  0  0  0  0  0  0  0
   17.8220    3.5323   -6.1656 O   0  0  0  1  0  0  0  0  0  0  0  0
   16.9244    4.1004   -5.8518 C   0  0  0  1  0  0  0  0  0  0  0  0
   16.3584    4.6458   -4.6219 C   0  0  0  1  0  0  0  0  0  0  0  0
   15.5336    5.2693   -4.7350 H   0  0  0  1  0  0  0  0  0  0  0  0
   16.7715    4.4409   -3.3708 C   0  0  0  1  0  0  0  0  0  0  0  0
   17.5963    3.8176   -3.2576 H   0  0  0  1  0  0  0  0  0  0  0  0
   16.1974    4.9939   -2.1237 C   0  0  0  1  0  0  0  0  0  0  0  0
   15.0556    5.7797   -2.1320 C   0  0  0  1  0  0  0  0  0  0  0  0
   14.5766    5.9913   -3.0306 H   0  0  0  1  0  0  0  0  0  0  0  0
   16.8308    4.7082   -0.9289 C   0  0  0  1  0  0  0  0  0  0  0  0
   17.6852    4.1154   -0.9221 H   0  0  0  1  0  0  0  0  0  0  0  0
   14.5534    6.2819   -0.9463 C   0  0  0  1  0  0  0  0  0  0  0  0
   13.6989    6.8748   -0.9531 H   0  0  0  1  0  0  0  0  0  0  0  0
   16.3273    5.2119    0.2604 C   0  0  0  1  0  0  0  0  0  0  0  0
   15.1887    5.9953    0.2519 C   0  0  0  1  0  0  0  0  0  0  0  0
   14.7315    6.4603    1.4399 O   0  0  0  1  0  0  0  0  0  0  0  0
   14.6912    7.4192    1.4147 H   0  0  0  1  0  0  0  0  0  0  0  0
   16.8599    5.0056    1.4805 O   0  0  0  1  0  0  0  0  0  0  0  0
   17.9477    4.0529    1.5206 C   0  0  0  1  0  0  0  0  0  0  0  0
   18.5827    4.2707    2.3539 H   0  0  0  1  0  0  0  0  0  0  0  0
   18.5132    4.1194    0.6147 H   0  0  0  1  0  0  0  0  0  0  0  0
   17.5519    3.0641    1.6229 H   0  0  0  1  0  0  0  0  0  0  0  0
  1  2  1  0  0  0  0
  1  3  1  0  0  0  0
  1  4  1  0  0  0  0
  1 65  1  0  0  0  0
  3  6  1  0  0  0  0
  4  5  1  0  0  0  0
  4  8  1  0  0  0  0
  4 10  1  0  0  0  0
  6  7  1  0  0  0  0
  6  8  1  0  0  0  0
  6 57  1  0  0  0  0
  8  9  1  0  0  0  0
  8 60  1  0  0  0  0
 10 11  1  0  0  0  0
 12 13  1  0  0  0  0
 12 14  1  0  0  0  0
 12 15  1  0  0  0  0
 12 18  1  0  0  0  0
 15 16  1  0  0  0  0
 15 17  1  0  0  0  0
 15 79  1  0  0  0  0
 18 19  1  0  0  0  0
 18 20  1  0  0  0  0
 20 21  2  0  0  0  0
 20 25  1  0  0  0  0
 22 23  1  0  0  0  0
 22 24  1  0  0  0  0
 22 25  1  0  0  0  0
 22 28  1  0  0  0  0
 25 26  1  0  0  0  0
 25 27  1  0  0  0  0
 28 29  1  0  0  0  0
 28 31  1  0  0  0  0
 30 31  2  0  0  0  0
 31 44  1  0  0  0  0
 32 33  1  0  0  0  0
 32 34  1  0  0  0  0
 32 39  1  0  0  0  0
 32 48  1  0  0  0  0
 35 36  1  0  0  0  0
 35 37  1  0  0  0  0
 35 38  1  0  0  0  0
 35 39  1  0  0  0  0
 39 40  1  0  0  0  0
 39 44  1  0  0  0  0
 40 41  1  0  0  0  0
 40 42  1  0  0  0  0
 40 43  1  0  0  0  0
 44 45  1  0  0  0  0
 44 46  1  0  0  0  0
 46 47  1  0  0  0  0
 48 55  1  0  0  0  0
 49 55  1  0  0  0  0
 49 56  1  0  0  0  0
 50 56  1  0  0  0  0
 50 57  1  0  0  0  0
 51 55  1  0  0  0  0
 52 55  2  0  0  0  0
 53 56  1  0  0  0  0
 54 56  2  0  0  0  0
 57 58  1  0  0  0  0
 57 59  1  0  0  0  0
 60 63  1  0  0  0  0
 61 63  2  0  0  0  0
 62 63  1  0  0  0  0
 63 64  1  0  0  0  0
 65 66  1  0  0  0  0
 65 67  1  0  0  0  0
 66 69  2  0  0  0  0
 66 70  1  0  0  0  0
 67 68  1  0  0  0  0
 67 71  2  0  0  0  0
 69 71  1  0  0  0  0
 69 72  1  0  0  0  0
 70 73  2  0  0  0  0
 72 75  2  0  0  0  0
 72 76  1  0  0  0  0
 73 74  1  0  0  0  0
 73 75  1  0  0  0  0
 76 77  1  0  0  0  0
 76 78  1  0  0  0  0
 79 81  1  0  0  0  0
 80 81  2  0  0  0  0
 81 82  1  0  0  0  0
 82 83  1  0  0  0  0
 82 84  2  0  0  0  0
 84 85  1  0  0  0  0
 84 86  1  0  0  0  0
 86 87  1  0  0  0  0
 86 89  2  0  0  0  0
 87 88  1  0  0  0  0
 87 91  2  0  0  0  0
 89 90  1  0  0  0  0
 89 93  1  0  0  0  0
 91 92  1  0  0  0  0
 91 94  1  0  0  0  0
 93 94  2  0  0  0  0
 93 97  1  0  0  0  0
 94 95  1  0  0  0  0
 95 96  1  0  0  0  0
 97 98  1  0  0  0  0
 98 99  1  0  0  0  0
 98100  1  0  0  0  0
 98101  1  0  0  0  0
M  BCL ATM C_TeTeTeTe H_S O_Te2Te2TeTe C_TeTeTeTe H_S C_TeTeTeTe H_S C_TeTeTeTe H_S O_Te2Te2TeTe H_S C_TeTeTeTe H_S H_S C_TeTeTeTe H_S H_S N_TrTrTrPi2 H_S C_TrTrTrPi O_Tr2Tr2TrPi C_TeTeTeTe H_S H_S C_TeTeTeTe H_S H_S N_TrTrTrPi2 H_S O_Tr2Tr2TrPi C_TrTrTrPi C_TeTeTeTe H_S H_S C_TeTeTeTe H_S H_S H_S C_TeTeTeTe C_TeTeTeTe H_S H_S H_S C_TeTeTeTe H_S O_Te2Te2TeTe H_S O_Tr2TrTrPi2 O_Tr2TrTrPi2 O_Tr2TrTrPi2 O_Te2Te2TeTe O_Tr2Tr2TrPi O_Te2Te2TeTe O_Tr2Tr2TrPi P_TeTeTeTePi P_TeTeTeTePi C_TeTeTeTe H_S H_S O_Tr2TrTrPi2 O_Tr2Tr2TrPi O_Te2Te2Te2Te P_TeTeTeTePi O_Te2Te2Te2Te N_TrTrTrPi2 C_TrTrTrPi C_TrTrTrPi H_S C_TrTrTrPi N_Tr2TrTrPi N_Tr2TrTrPi C_TrTrTrPi C_TrTrTrPi H_S N_Tr2TrTrPi N_TrTrTrPi2 H_S H_S S_Te2Te2TeTe O_Tr2Tr2TrPi C_TrTrTrPi C_TrTrTrPi H_S C_TrTrTrPi H_S C_TrTrTrPi C_TrTrTrPi H_S C_TrTrTrPi H_S C_TrTrTrPi H_S C_TrTrTrPi C_TrTrTrPi O_Te2Te2TeTe H_S O_Tr2TrTrPi2 C_TeTeTeTe H_S H_S H_S
M  BCL BND NonConjugatedSingleBond NonConjugatedSingleBondInRing NonConjugatedSingleBondInRing NonConjugatedSingleBond NonConjugatedSingleBondInRing NonConjugatedSingleBond NonConjugatedSingleBondInRing NonConjugatedSingleBond NonConjugatedSingleBond NonConjugatedSingleBondInRing NonConjugatedSingleBond NonConjugatedSingleBond NonConjugatedSingleBond NonConjugatedSingleBond NonConjugatedSingleBond NonConjugatedSingleBond NonConjugatedSingleBond NonConjugatedSingleBond NonConjugatedSingleBond NonConjugatedSingleBond NonConjugatedSingleBond NonConjugatedSingleBond AmideSingleBond ConjugatedDoubleBond NonConjugatedSingleBond NonConjugatedSingleBond NonConjugatedSingleBond NonConjugatedSingleBond NonConjugatedSingleBond NonConjugatedSingleBond NonConjugatedSingleBond NonConjugatedSingleBond AmideSingleBond ConjugatedDoubleBond NonConjugatedSingleBond NonConjugatedSingleBond NonConjugatedSingleBond NonConjugatedSingleBond NonConjugatedSingleBond NonConjugatedSingleBond NonConjugatedSingleBond NonConjugatedSingleBond NonConjugatedSingleBond NonConjugatedSingleBond NonConjugatedSingleBond NonConjugatedSingleBond NonConjugatedSingleBond NonConjugatedSingleBond NonConjugatedSingleBond NonConjugatedSingleBond NonConjugatedSingleBond ConjugatedSingleBond ConjugatedSingleBond ConjugatedSingleBond ConjugatedSingleBond NonConjugatedSingleBond ConjugatedSingleBond ConjugatedDoubleBond ConjugatedSingleBond ConjugatedDoubleBond NonConjugatedSingleBond NonConjugatedSingleBond ConjugatedSingleBond ConjugatedDoubleBond ConjugatedSingleBond ConjugatedSingleBond AromaticSingleBond AromaticSingleBond AromaticDoubleBond AromaticSingleBond NonConjugatedSingleBond AromaticDoubleBond AromaticSingleBond AromaticSingleBond AromaticDoubleBond AromaticDoubleBond ConjugatedSingleBond NonConjugatedSingleBond AromaticSingleBond NonConjugatedSingleBond NonConjugatedSingleBond ConjugatedSingleBond ConjugatedDoubleBond ConjugatedSingleBond NonConjugatedSingleBond ConjugatedDoubleBond NonConjugatedSingleBond ConjugatedSingleBond AromaticSingleBond AromaticDoubleBond NonConjugatedSingleBond AromaticDoubleBond NonConjugatedSingleBond AromaticSingleBond NonConjugatedSingleBond AromaticSingleBond AromaticDoubleBond ConjugatedSingleBond ConjugatedSingleBond NonConjugatedSingleBond NonConjugatedSingleBond NonConjugatedSingleBond NonConjugatedSingleBond NonConjugatedSingleBond
M  BCL CHI   1   R   4   R   6   R   8   S  44   S  55   S  56   R
M  BCL DBI - - - - - - - - - - E - - -
M  END
> <ConfClashScore>
0 

> <ConfOneFourInteractionScore>
-0.972973 

> <ConfScore>
-0.0271834 

> <ConfScorePBest>
0.0107725 

> <ConfTolerance>
2.52757 

$$$$
L02.****
  PyMOL2.5          3D                             0

101104  0  0  0  0  0  0  0  0999 V2000
   15.2527   -4.4702   -5.6202 C   0  0  0  1  0  0  0  0  0  0  0  0
   14.8174   -3.8553   -4.8604 H   0  0  0  1  0  0  0  0  0  0  0  0
   14.4651   -4.4102   -6.8482 O   0  0  0  1  0  0  0  0  0  0  0  0
   15.2095   -5.9270   -5.2197 C   0  0  0  1  0  0  0  0  0  0  0  0
   16.0859   -6.1983   -4.6691 H   0  0  0  1  0  0  0  0  0  0  0  0
   14.4309   -5.6621   -7.4735 C   0  0  0  1  0  0  0  0  0  0  0  0
   14.9252   -5.6084   -8.4210 H   0  0  0  1  0  0  0  0  0  0  0  0
   15.1554   -6.6664   -6.5633 C   0  0  0  1  0  0  0  0  0  0  0  0
   14.6029   -7.5789   -6.4793 H   0  0  0  1  0  0  0  0  0  0  0  0
   14.0485   -6.2067   -4.4362 O   0  0  0  1  0  0  0  0  0  0  0  0
   13.4279   -5.4782   -4.5115 H   0  0  0  1  0  0  0  0  0  0  0  0
    9.7028   -1.4008  -10.7768 C   0  0  0  1  0  0  0  0  0  0  0  0
    9.1713   -2.3259  -10.6957 H   0  0  0  1  0  0  0  0  0  0  0  0
   10.3351   -1.2761   -9.9227 H   0  0  0  1  0  0  0  0  0  0  0  0
    8.7044   -0.2711  -10.8078 C   0  0  0  1  0  0  0  0  0  0  0  0
    8.1327   -0.3588  -11.7080 H   0  0  0  1  0  0  0  0  0  0  0  0
    9.2474    0.6508  -10.8179 H   0  0  0  1  0  0  0  0  0  0  0  0
   10.5343   -1.4437  -11.9704 N   0  0  0  1  0  0  0  0  0  0  0  0
   10.2192   -0.9950  -12.7826 H   0  0  0  1  0  0  0  0  0  0  0  0
   11.7122   -2.0737  -11.9973 C   0  0  0  1  0  0  0  0  0  0  0  0
   12.1430   -2.7293  -11.0496 O   0  0  0  1  0  0  0  0  0  0  0  0
   12.6655   -3.2540  -14.0172 C   0  0  0  1  0  0  0  0  0  0  0  0
   13.1408   -3.9504  -13.3584 H   0  0  0  1  0  0  0  0  0  0  0  0
   13.2928   -3.0805  -14.8665 H   0  0  0  1  0  0  0  0  0  0  0  0
   12.4987   -1.9355  -13.2734 C   0  0  0  1  0  0  0  0  0  0  0  0
   13.4694   -1.5535  -13.0354 H   0  0  0  1  0  0  0  0  0  0  0  0
   11.9903   -1.2452  -13.9137 H   0  0  0  1  0  0  0  0  0  0  0  0
   11.4153   -3.8527  -14.4884 N   0  0  0  1  0  0  0  0  0  0  0  0
   11.0927   -3.6287  -15.3863 H   0  0  0  1  0  0  0  0  0  0  0  0
   11.0638   -5.1107  -12.6426 O   0  0  0  1  0  0  0  0  0  0  0  0
   10.7005   -4.6920  -13.7385 C   0  0  0  1  0  0  0  0  0  0  0  0
    8.2563   -6.3797  -12.3875 C   0  0  0  1  0  0  0  0  0  0  0  0
    8.1652   -7.2028  -13.0652 H   0  0  0  1  0  0  0  0  0  0  0  0
    7.4283   -6.3818  -11.7098 H   0  0  0  1  0  0  0  0  0  0  0  0
    8.6855   -3.9221  -12.2211 C   0  0  0  1  0  0  0  0  0  0  0  0
    7.9678   -3.8493  -11.4308 H   0  0  0  1  0  0  0  0  0  0  0  0
    8.7147   -2.9995  -12.7622 H   0  0  0  1  0  0  0  0  0  0  0  0
    9.6515   -4.1244  -11.8077 H   0  0  0  1  0  0  0  0  0  0  0  0
    8.2880   -5.0587  -13.1704 C   0  0  0  1  0  0  0  0  0  0  0  0
    6.9251   -4.7564  -13.8013 C   0  0  0  1  0  0  0  0  0  0  0  0
    6.8930   -5.1588  -14.7922 H   0  0  0  1  0  0  0  0  0  0  0  0
    6.7780   -3.6974  -13.8418 H   0  0  0  1  0  0  0  0  0  0  0  0
    6.1522   -5.2020  -13.2105 H   0  0  0  1  0  0  0  0  0  0  0  0
    9.3511   -5.1617  -14.2706 C   0  0  0  1  0  0  0  0  0  0  0  0
    9.4412   -6.1901  -14.5518 H   0  0  0  1  0  0  0  0  0  0  0  0
    8.9368   -4.3953  -15.3888 O   0  0  0  1  0  0  0  0  0  0  0  0
    9.3921   -3.5502  -15.3845 H   0  0  0  1  0  0  0  0  0  0  0  0
    9.4970   -6.4834  -11.6502 O   0  0  0  1  0  0  0  0  0  0  0  0
   11.1333   -7.3377   -9.9525 O   0  0  0  1  0  0  0  0  0  0  0  0
   13.0572   -7.2549   -8.5470 O   0  0  0  1  0  0  0  0  0  0  0  0
    8.7589   -7.9654   -9.7201 O   0  0  0  0  0  0  0  0  0  0  0  0
   10.1329   -8.8443  -11.7311 O   0  0  0  1  0  0  0  0  0  0  0  0
   10.9268   -8.2492   -7.5849 O   0  0  0  0  0  0  0  0  0  0  0  0
   12.2930   -9.3705   -9.3984 O   0  0  0  1  0  0  0  0  0  0  0  0
    9.8177   -7.7867  -10.7436 P   0  0  0  1  0  0  0  0  0  0  0  0
   11.7747   -8.1231   -8.8257 P   0  0  0  1  0  0  0  0  0  0  0  0
   12.9959   -6.0955   -7.6765 C   0  0  0  1  0  0  0  0  0  0  0  0
   12.4310   -5.3122   -8.1373 H   0  0  0  1  0  0  0  0  0  0  0  0
   12.5484   -6.3552   -6.7400 H   0  0  0  1  0  0  0  0  0  0  0  0
   16.4769   -6.9490   -7.0526 O   0  0  0  1  0  0  0  0  0  0  0  0
   16.2242   -9.1617   -8.2142 O   0  0  0  1  0  0  0  0  0  0  0  0
   18.3996   -7.6987   -8.7513 O   0  5  0  1  0  0  0  0  0  0  0  0
   16.8234   -7.8209   -8.3977 P   0  0  0  1  0  0  0  0  0  0  0  0
   15.9896   -7.1295   -9.6023 O   0  5  0  1  0  0  0  0  0  0  0  0
   16.6393   -4.0381   -5.8680 N   0  0  0  1  0  0  0  0  0  0  0  0
   17.6619   -3.8470   -4.9750 C   0  0  0  1  0  0  0  0  0  0  0  0
   17.1580   -3.7424   -7.0913 C   0  0  0  1  0  0  0  0  0  0  0  0
   16.5956   -3.7945   -7.9646 H   0  0  0  1  0  0  0  0  0  0  0  0
   18.7615   -3.4443   -5.7449 C   0  0  0  1  0  0  0  0  0  0  0  0
   17.6350   -4.0192   -3.6527 N   0  0  0  1  0  0  0  0  0  0  0  0
   18.4144   -3.3885   -7.0858 N   0  0  0  1  0  0  0  0  0  0  0  0
   19.9347   -3.2052   -5.0354 C   0  0  0  1  0  0  0  0  0  0  0  0
   18.8141   -3.7493   -3.1060 C   0  0  0  1  0  0  0  0  0  0  0  0
   18.8665   -3.8580   -2.0731 H   0  0  0  1  0  0  0  0  0  0  0  0
   19.9481   -3.3549   -3.7065 N   0  0  0  1  0  0  0  0  0  0  0  0
   21.0725   -2.8195   -5.6822 N   0  0  0  1  0  0  0  0  0  0  0  0
   21.8905   -2.6433   -5.1720 H   0  0  0  1  0  0  0  0  0  0  0  0
   21.0717   -2.7185   -6.6570 H   0  0  0  1  0  0  0  0  0  0  0  0
    7.5520   -0.2272   -9.4146 S   0  0  0  1  0  0  0  0  0  0  0  0
    9.5407    0.7992   -8.6630 O   0  0  0  1  0  0  0  0  0  0  0  0
    8.5314    0.6302   -8.2391 C   0  0  0  1  0  0  0  0  0  0  0  0
    7.8916    0.6221   -6.9291 C   0  0  0  1  0  0  0  0  0  0  0  0
    6.9412    0.2043   -6.8667 H   0  0  0  1  0  0  0  0  0  0  0  0
    8.4201    1.1041   -5.8049 C   0  0  0  1  0  0  0  0  0  0  0  0
    9.4413    1.3011   -5.8060 H   0  0  0  1  0  0  0  0  0  0  0  0
    7.6760    1.3841   -4.5509 C   0  0  0  1  0  0  0  0  0  0  0  0
    8.3692    1.7362   -3.4033 C   0  0  0  1  0  0  0  0  0  0  0  0
    9.4091    1.7419   -3.4051 H   0  0  0  1  0  0  0  0  0  0  0  0
    6.2940    1.3817   -4.5500 C   0  0  0  1  0  0  0  0  0  0  0  0
    5.7739    1.1215   -5.4122 H   0  0  0  1  0  0  0  0  0  0  0  0
    7.6783    2.0796   -2.2565 C   0  0  0  1  0  0  0  0  0  0  0  0
    8.1984    2.3398   -1.3943 H   0  0  0  1  0  0  0  0  0  0  0  0
    5.6009    1.7261   -3.4000 C   0  0  0  1  0  0  0  0  0  0  0  0
    6.2921    2.0771   -2.2557 C   0  0  0  1  0  0  0  0  0  0  0  0
    5.7273    2.4361   -1.0772 O   0  0  0  1  0  0  0  0  0  0  0  0
    5.8858    3.3692   -0.9170 H   0  0  0  1  0  0  0  0  0  0  0  0
    4.2507    1.6257   -3.3728 O   0  0  0  1  0  0  0  0  0  0  0  0
    3.5865    1.3704   -4.6202 C   0  0  0  1  0  0  0  0  0  0  0  0
    4.0594    0.5479   -5.1149 H   0  0  0  1  0  0  0  0  0  0  0  0
    3.6453    2.2406   -5.2400 H   0  0  0  1  0  0  0  0  0  0  0  0
    2.5598    1.1324   -4.4352 H   0  0  0  1  0  0  0  0  0  0  0  0
  1  2  1  0  0  0  0
  1  3  1  0  0  0  0
  1  4  1  0  0  0  0
  1 65  1  0  0  0  0
  3  6  1  0  0  0  0
  4  5  1  0  0  0  0
  4  8  1  0  0  0  0
  4 10  1  0  0  0  0
  6  7  1  0  0  0  0
  6  8  1  0  0  0  0
  6 57  1  0  0  0  0
  8  9  1  0  0  0  0
  8 60  1  0  0  0  0
 10 11  1  0  0  0  0
 12 13  1  0  0  0  0
 12 14  1  0  0  0  0
 12 15  1  0  0  0  0
 12 18  1  0  0  0  0
 15 16  1  0  0  0  0
 15 17  1  0  0  0  0
 15 79  1  0  0  0  0
 18 19  1  0  0  0  0
 18 20  1  0  0  0  0
 20 21  2  0  0  0  0
 20 25  1  0  0  0  0
 22 23  1  0  0  0  0
 22 24  1  0  0  0  0
 22 25  1  0  0  0  0
 22 28  1  0  0  0  0
 25 26  1  0  0  0  0
 25 27  1  0  0  0  0
 28 29  1  0  0  0  0
 28 31  1  0  0  0  0
 30 31  2  0  0  0  0
 31 44  1  0  0  0  0
 32 33  1  0  0  0  0
 32 34  1  0  0  0  0
 32 39  1  0  0  0  0
 32 48  1  0  0  0  0
 35 36  1  0  0  0  0
 35 37  1  0  0  0  0
 35 38  1  0  0  0  0
 35 39  1  0  0  0  0
 39 40  1  0  0  0  0
 39 44  1  0  0  0  0
 40 41  1  0  0  0  0
 40 42  1  0  0  0  0
 40 43  1  0  0  0  0
 44 45  1  0  0  0  0
 44 46  1  0  0  0  0
 46 47  1  0  0  0  0
 48 55  1  0  0  0  0
 49 55  1  0  0  0  0
 49 56  1  0  0  0  0
 50 56  1  0  0  0  0
 50 57  1  0  0  0  0
 51 55  1  0  0  0  0
 52 55  2  0  0  0  0
 53 56  1  0  0  0  0
 54 56  2  0  0  0  0
 57 58  1  0  0  0  0
 57 59  1  0  0  0  0
 60 63  1  0  0  0  0
 61 63  2  0  0  0  0
 62 63  1  0  0  0  0
 63 64  1  0  0  0  0
 65 66  1  0  0  0  0
 65 67  1  0  0  0  0
 66 69  2  0  0  0  0
 66 70  1  0  0  0  0
 67 68  1  0  0  0  0
 67 71  2  0  0  0  0
 69 71  1  0  0  0  0
 69 72  1  0  0  0  0
 70 73  2  0  0  0  0
 72 75  2  0  0  0  0
 72 76  1  0  0  0  0
 73 74  1  0  0  0  0
 73 75  1  0  0  0  0
 76 77  1  0  0  0  0
 76 78  1  0  0  0  0
 79 81  1  0  0  0  0
 80 81  2  0  0  0  0
 81 82  1  0  0  0  0
 82 83  1  0  0  0  0
 82 84  2  0  0  0  0
 84 85  1  0  0  0  0
 84 86  1  0  0  0  0
 86 87  1  0  0  0  0
 86 89  2  0  0  0  0
 87 88  1  0  0  0  0
 87 91  2  0  0  0  0
 89 90  1  0  0  0  0
 89 93  1  0  0  0  0
 91 92  1  0  0  0  0
 91 94  1  0  0  0  0
 93 94  2  0  0  0  0
 93 97  1  0  0  0  0
 94 95  1  0  0  0  0
 95 96  1  0  0  0  0
 97 98  1  0  0  0  0
 98 99  1  0  0  0  0
 98100  1  0  0  0  0
 98101  1  0  0  0  0
M  BCL ATM C_TeTeTeTe H_S O_Te2Te2TeTe C_TeTeTeTe H_S C_TeTeTeTe H_S C_TeTeTeTe H_S O_Te2Te2TeTe H_S C_TeTeTeTe H_S H_S C_TeTeTeTe H_S H_S N_TrTrTrPi2 H_S C_TrTrTrPi O_Tr2Tr2TrPi C_TeTeTeTe H_S H_S C_TeTeTeTe H_S H_S N_TrTrTrPi2 H_S O_Tr2Tr2TrPi C_TrTrTrPi C_TeTeTeTe H_S H_S C_TeTeTeTe H_S H_S H_S C_TeTeTeTe C_TeTeTeTe H_S H_S H_S C_TeTeTeTe H_S O_Te2Te2TeTe H_S O_Tr2TrTrPi2 O_Tr2TrTrPi2 O_Tr2TrTrPi2 O_Te2Te2TeTe O_Tr2Tr2TrPi O_Te2Te2TeTe O_Tr2Tr2TrPi P_TeTeTeTePi P_TeTeTeTePi C_TeTeTeTe H_S H_S O_Tr2TrTrPi2 O_Tr2Tr2TrPi O_Te2Te2Te2Te P_TeTeTeTePi O_Te2Te2Te2Te N_TrTrTrPi2 C_TrTrTrPi C_TrTrTrPi H_S C_TrTrTrPi N_Tr2TrTrPi N_Tr2TrTrPi C_TrTrTrPi C_TrTrTrPi H_S N_Tr2TrTrPi N_TrTrTrPi2 H_S H_S S_Te2Te2TeTe O_Tr2Tr2TrPi C_TrTrTrPi C_TrTrTrPi H_S C_TrTrTrPi H_S C_TrTrTrPi C_TrTrTrPi H_S C_TrTrTrPi H_S C_TrTrTrPi H_S C_TrTrTrPi C_TrTrTrPi O_Te2Te2TeTe H_S O_Tr2TrTrPi2 C_TeTeTeTe H_S H_S H_S
M  BCL BND NonConjugatedSingleBond NonConjugatedSingleBondInRing NonConjugatedSingleBondInRing NonConjugatedSingleBond NonConjugatedSingleBondInRing NonConjugatedSingleBond NonConjugatedSingleBondInRing NonConjugatedSingleBond NonConjugatedSingleBond NonConjugatedSingleBondInRing NonConjugatedSingleBond NonConjugatedSingleBond NonConjugatedSingleBond NonConjugatedSingleBond NonConjugatedSingleBond NonConjugatedSingleBond NonConjugatedSingleBond NonConjugatedSingleBond NonConjugatedSingleBond NonConjugatedSingleBond NonConjugatedSingleBond NonConjugatedSingleBond AmideSingleBond ConjugatedDoubleBond NonConjugatedSingleBond NonConjugatedSingleBond NonConjugatedSingleBond NonConjugatedSingleBond NonConjugatedSingleBond NonConjugatedSingleBond NonConjugatedSingleBond NonConjugatedSingleBond AmideSingleBond ConjugatedDoubleBond NonConjugatedSingleBond NonConjugatedSingleBond NonConjugatedSingleBond NonConjugatedSingleBond NonConjugatedSingleBond NonConjugatedSingleBond NonConjugatedSingleBond NonConjugatedSingleBond NonConjugatedSingleBond NonConjugatedSingleBond NonConjugatedSingleBond NonConjugatedSingleBond NonConjugatedSingleBond NonConjugatedSingleBond NonConjugatedSingleBond NonConjugatedSingleBond NonConjugatedSingleBond ConjugatedSingleBond ConjugatedSingleBond ConjugatedSingleBond ConjugatedSingleBond NonConjugatedSingleBond ConjugatedSingleBond ConjugatedDoubleBond ConjugatedSingleBond ConjugatedDoubleBond NonConjugatedSingleBond NonConjugatedSingleBond ConjugatedSingleBond ConjugatedDoubleBond ConjugatedSingleBond ConjugatedSingleBond AromaticSingleBond AromaticSingleBond AromaticDoubleBond AromaticSingleBond NonConjugatedSingleBond AromaticDoubleBond AromaticSingleBond AromaticSingleBond AromaticDoubleBond AromaticDoubleBond ConjugatedSingleBond NonConjugatedSingleBond AromaticSingleBond NonConjugatedSingleBond NonConjugatedSingleBond ConjugatedSingleBond ConjugatedDoubleBond ConjugatedSingleBond NonConjugatedSingleBond ConjugatedDoubleBond NonConjugatedSingleBond ConjugatedSingleBond AromaticSingleBond AromaticDoubleBond NonConjugatedSingleBond AromaticDoubleBond NonConjugatedSingleBond AromaticSingleBond NonConjugatedSingleBond AromaticSingleBond AromaticDoubleBond ConjugatedSingleBond ConjugatedSingleBond NonConjugatedSingleBond NonConjugatedSingleBond NonConjugatedSingleBond NonConjugatedSingleBond NonConjugatedSingleBond
M  BCL CHI   1   R   4   R   6   R   8   S  44   S  55   S  56   R
M  BCL DBI - - - - - - - - - - E - - -
M  END
> <ConfClashScore>
0.000945256 

> <ConfOneFourInteractionScore>
-0.974097 

> <ConfScore>
-0.0184977 

> <ConfScorePBest>
0.0106695 

> <ConfTolerance>
2.66565 

$$$$
L02.****
  PyMOL2.5          3D                             0

101104  0  0  0  0  0  0  0  0999 V2000
   15.2852   -4.5430   -5.5898 C   0  0  0  1  0  0  0  0  0  0  0  0
   14.5737   -3.7463   -5.6515 H   0  0  0  1  0  0  0  0  0  0  0  0
   14.9550   -5.5737   -6.4807 O   0  0  0  1  0  0  0  0  0  0  0  0
   15.2384   -5.2084   -4.2068 C   0  0  0  1  0  0  0  0  0  0  0  0
   16.1662   -5.6900   -3.9787 H   0  0  0  1  0  0  0  0  0  0  0  0
   14.2573   -6.6549   -5.8222 C   0  0  0  1  0  0  0  0  0  0  0  0
   14.8196   -7.5625   -5.8924 H   0  0  0  1  0  0  0  0  0  0  0  0
   14.1280   -6.2143   -4.3611 C   0  0  0  1  0  0  0  0  0  0  0  0
   13.1745   -5.7643   -4.1789 H   0  0  0  1  0  0  0  0  0  0  0  0
   14.9304   -4.2499   -3.1807 O   0  0  0  1  0  0  0  0  0  0  0  0
   15.7076   -4.1015   -2.6371 H   0  0  0  1  0  0  0  0  0  0  0  0
   20.7736  -17.1178  -15.9972 C   0  0  0  1  0  0  0  0  0  0  0  0
   20.2519  -18.0181  -15.7480 H   0  0  0  1  0  0  0  0  0  0  0  0
   21.1953  -17.2087  -16.9764 H   0  0  0  1  0  0  0  0  0  0  0  0
   21.9038  -16.9420  -15.0135 C   0  0  0  1  0  0  0  0  0  0  0  0
   22.4662  -16.0758  -15.2930 H   0  0  0  1  0  0  0  0  0  0  0  0
   22.5326  -17.8065  -15.0601 H   0  0  0  1  0  0  0  0  0  0  0  0
   19.8048  -16.0204  -16.0181 N   0  0  0  1  0  0  0  0  0  0  0  0
   20.0754  -15.1578  -16.3963 H   0  0  0  1  0  0  0  0  0  0  0  0
   18.5646  -16.1540  -15.5394 C   0  0  0  1  0  0  0  0  0  0  0  0
   18.1283  -17.1952  -15.0505 O   0  0  0  1  0  0  0  0  0  0  0  0
   16.2985  -15.0717  -15.9739 C   0  0  0  1  0  0  0  0  0  0  0  0
   15.8730  -15.8810  -15.4182 H   0  0  0  1  0  0  0  0  0  0  0  0
   16.2746  -15.3040  -17.0181 H   0  0  0  1  0  0  0  0  0  0  0  0
   17.7386  -14.8971  -15.5495 C   0  0  0  1  0  0  0  0  0  0  0  0
   18.1995  -14.2047  -16.2225 H   0  0  0  1  0  0  0  0  0  0  0  0
   17.7441  -14.4906  -14.5597 H   0  0  0  1  0  0  0  0  0  0  0  0
   15.4999  -13.8771  -15.7435 N   0  0  0  1  0  0  0  0  0  0  0  0
   15.7503  -13.0459  -16.1983 H   0  0  0  1  0  0  0  0  0  0  0  0
   14.0564  -14.8582  -14.3010 O   0  0  0  1  0  0  0  0  0  0  0  0
   14.4374  -13.8742  -14.9336 C   0  0  0  1  0  0  0  0  0  0  0  0
   12.9618  -10.7972  -13.1047 C   0  0  0  1  0  0  0  0  0  0  0  0
   11.9386  -11.0117  -13.3326 H   0  0  0  1  0  0  0  0  0  0  0  0
   13.3138  -10.0150  -13.7444 H   0  0  0  1  0  0  0  0  0  0  0  0
   13.3092  -13.1582  -12.3629 C   0  0  0  1  0  0  0  0  0  0  0  0
   14.1319  -13.7671  -12.0511 H   0  0  0  1  0  0  0  0  0  0  0  0
   12.5931  -13.7635  -12.8784 H   0  0  0  1  0  0  0  0  0  0  0  0
   12.8495  -12.7136  -11.5051 H   0  0  0  1  0  0  0  0  0  0  0  0
   13.8151  -12.0554  -13.3005 C   0  0  0  1  0  0  0  0  0  0  0  0
   15.2644  -11.7266  -12.9240 C   0  0  0  1  0  0  0  0  0  0  0  0
   15.3602  -10.6740  -12.7578 H   0  0  0  1  0  0  0  0  0  0  0  0
   15.9154  -12.0225  -13.7200 H   0  0  0  1  0  0  0  0  0  0  0  0
   15.5292  -12.2539  -12.0314 H   0  0  0  1  0  0  0  0  0  0  0  0
   13.7586  -12.5172  -14.7615 C   0  0  0  1  0  0  0  0  0  0  0  0
   12.7324  -12.6086  -15.0507 H   0  0  0  1  0  0  0  0  0  0  0  0
   14.4253  -11.5884  -15.6132 O   0  0  0  1  0  0  0  0  0  0  0  0
   14.4821  -11.9508  -16.5004 H   0  0  0  1  0  0  0  0  0  0  0  0
   13.0835  -10.3972  -11.7304 O   0  0  0  1  0  0  0  0  0  0  0  0
   12.6406   -9.2409   -9.5218 O   0  0  0  1  0  0  0  0  0  0  0  0
   13.0962   -7.5069   -7.7137 O   0  0  0  1  0  0  0  0  0  0  0  0
   13.5821   -8.0299  -11.5338 O   0  0  0  0  0  0  0  0  0  0  0  0
   11.1201   -8.7973  -11.4025 O   0  0  0  1  0  0  0  0  0  0  0  0
   10.8008   -7.7191   -8.7745 O   0  0  0  0  0  0  0  0  0  0  0  0
   11.6496   -9.5385   -7.2843 O   0  0  0  1  0  0  0  0  0  0  0  0
   12.5566   -9.0341  -11.1248 P   0  0  0  1  0  0  0  0  0  0  0  0
   12.0663   -8.4680   -8.2508 P   0  0  0  1  0  0  0  0  0  0  0  0
   12.9084   -6.8557   -6.4305 C   0  0  0  1  0  0  0  0  0  0  0  0
   12.4265   -5.9104   -6.5686 H   0  0  0  1  0  0  0  0  0  0  0  0
   12.3094   -7.4722   -5.7932 H   0  0  0  1  0  0  0  0  0  0  0  0
   14.3138   -7.3369   -3.4605 O   0  0  0  1  0  0  0  0  0  0  0  0
   12.0774   -7.4278   -2.0464 O   0  0  0  1  0  0  0  0  0  0  0  0
   13.6411   -9.4611   -1.9947 O   0  5  0  1  0  0  0  0  0  0  0  0
   13.0678   -8.1980   -2.8315 P   0  0  0  1  0  0  0  0  0  0  0  0
   12.3144   -8.8411   -4.1134 O   0  5  0  1  0  0  0  0  0  0  0  0
   16.6337   -4.0210   -5.8725 N   0  0  0  1  0  0  0  0  0  0  0  0
   17.6559   -3.8340   -4.9780 C   0  0  0  1  0  0  0  0  0  0  0  0
   17.1564   -3.7313   -7.0954 C   0  0  0  1  0  0  0  0  0  0  0  0
   16.5953   -3.7820   -7.9696 H   0  0  0  1  0  0  0  0  0  0  0  0
   18.7592   -3.4397   -5.7468 C   0  0  0  1  0  0  0  0  0  0  0  0
   17.6255   -4.0030   -3.6553 N   0  0  0  1  0  0  0  0  0  0  0  0
   18.4149   -3.3850   -7.0884 N   0  0  0  1  0  0  0  0  0  0  0  0
   19.9326   -3.2061   -5.0357 C   0  0  0  1  0  0  0  0  0  0  0  0
   18.8052   -3.7389   -3.1072 C   0  0  0  1  0  0  0  0  0  0  0  0
   18.8550   -3.8456   -2.0739 H   0  0  0  1  0  0  0  0  0  0  0  0
   19.9426   -3.3527   -3.7064 N   0  0  0  1  0  0  0  0  0  0  0  0
   21.0784   -2.8272   -5.6840 N   0  0  0  1  0  0  0  0  0  0  0  0
   21.9070   -2.6951   -5.1776 H   0  0  0  1  0  0  0  0  0  0  0  0
   21.0695   -2.6881   -6.6540 H   0  0  0  1  0  0  0  0  0  0  0  0
   21.3393  -16.7346  -13.3120 S   0  0  0  1  0  0  0  0  0  0  0  0
   21.2033  -14.2597  -14.1858 O   0  0  0  1  0  0  0  0  0  0  0  0
   20.9715  -14.9804  -13.2445 C   0  0  0  1  0  0  0  0  0  0  0  0
   20.3839  -14.4579  -12.0147 C   0  0  0  1  0  0  0  0  0  0  0  0
   20.1347  -15.1624  -11.2914 H   0  0  0  1  0  0  0  0  0  0  0  0
   20.1284  -13.1868  -11.7074 C   0  0  0  1  0  0  0  0  0  0  0  0
   20.3708  -12.4677  -12.4185 H   0  0  0  1  0  0  0  0  0  0  0  0
   19.5284  -12.7101  -10.4391 C   0  0  0  1  0  0  0  0  0  0  0  0
   19.2720  -11.3520  -10.3330 C   0  0  0  1  0  0  0  0  0  0  0  0
   19.4965  -10.7170  -11.1254 H   0  0  0  1  0  0  0  0  0  0  0  0
   19.2251  -13.5547   -9.3880 C   0  0  0  1  0  0  0  0  0  0  0  0
   19.4137  -14.5742   -9.4692 H   0  0  0  1  0  0  0  0  0  0  0  0
   18.7180  -10.8416   -9.1741 C   0  0  0  1  0  0  0  0  0  0  0  0
   18.5294   -9.8221   -9.0930 H   0  0  0  1  0  0  0  0  0  0  0  0
   18.6695  -13.0431   -8.2257 C   0  0  0  1  0  0  0  0  0  0  0  0
   18.4139  -11.6889   -8.1199 C   0  0  0  1  0  0  0  0  0  0  0  0
   17.8664  -11.1655   -6.9961 O   0  0  0  1  0  0  0  0  0  0  0  0
   17.3212  -10.4099   -7.2272 H   0  0  0  1  0  0  0  0  0  0  0  0
   18.4207  -13.9638   -7.2643 O   0  0  0  1  0  0  0  0  0  0  0  0
   18.2113  -15.3188   -7.6918 C   0  0  0  1  0  0  0  0  0  0  0  0
   19.1536  -15.7701   -7.9225 H   0  0  0  1  0  0  0  0  0  0  0  0
   17.5900  -15.3257   -8.5630 H   0  0  0  1  0  0  0  0  0  0  0  0
   17.7343  -15.8700   -6.9086 H   0  0  0  1  0  0  0  0  0  0  0  0
  1  2  1  0  0  0  0
  1  3  1  0  0  0  0
  1  4  1  0  0  0  0
  1 65  1  0  0  0  0
  3  6  1  0  0  0  0
  4  5  1  0  0  0  0
  4  8  1  0  0  0  0
  4 10  1  0  0  0  0
  6  7  1  0  0  0  0
  6  8  1  0  0  0  0
  6 57  1  0  0  0  0
  8  9  1  0  0  0  0
  8 60  1  0  0  0  0
 10 11  1  0  0  0  0
 12 13  1  0  0  0  0
 12 14  1  0  0  0  0
 12 15  1  0  0  0  0
 12 18  1  0  0  0  0
 15 16  1  0  0  0  0
 15 17  1  0  0  0  0
 15 79  1  0  0  0  0
 18 19  1  0  0  0  0
 18 20  1  0  0  0  0
 20 21  2  0  0  0  0
 20 25  1  0  0  0  0
 22 23  1  0  0  0  0
 22 24  1  0  0  0  0
 22 25  1  0  0  0  0
 22 28  1  0  0  0  0
 25 26  1  0  0  0  0
 25 27  1  0  0  0  0
 28 29  1  0  0  0  0
 28 31  1  0  0  0  0
 30 31  2  0  0  0  0
 31 44  1  0  0  0  0
 32 33  1  0  0  0  0
 32 34  1  0  0  0  0
 32 39  1  0  0  0  0
 32 48  1  0  0  0  0
 35 36  1  0  0  0  0
 35 37  1  0  0  0  0
 35 38  1  0  0  0  0
 35 39  1  0  0  0  0
 39 40  1  0  0  0  0
 39 44  1  0  0  0  0
 40 41  1  0  0  0  0
 40 42  1  0  0  0  0
 40 43  1  0  0  0  0
 44 45  1  0  0  0  0
 44 46  1  0  0  0  0
 46 47  1  0  0  0  0
 48 55  1  0  0  0  0
 49 55  1  0  0  0  0
 49 56  1  0  0  0  0
 50 56  1  0  0  0  0
 50 57  1  0  0  0  0
 51 55  1  0  0  0  0
 52 55  2  0  0  0  0
 53 56  1  0  0  0  0
 54 56  2  0  0  0  0
 57 58  1  0  0  0  0
 57 59  1  0  0  0  0
 60 63  1  0  0  0  0
 61 63  2  0  0  0  0
 62 63  1  0  0  0  0
 63 64  1  0  0  0  0
 65 66  1  0  0  0  0
 65 67  1  0  0  0  0
 66 69  2  0  0  0  0
 66 70  1  0  0  0  0
 67 68  1  0  0  0  0
 67 71  2  0  0  0  0
 69 71  1  0  0  0  0
 69 72  1  0  0  0  0
 70 73  2  0  0  0  0
 72 75  2  0  0  0  0
 72 76  1  0  0  0  0
 73 74  1  0  0  0  0
 73 75  1  0  0  0  0
 76 77  1  0  0  0  0
 76 78  1  0  0  0  0
 79 81  1  0  0  0  0
 80 81  2  0  0  0  0
 81 82  1  0  0  0  0
 82 83  1  0  0  0  0
 82 84  2  0  0  0  0
 84 85  1  0  0  0  0
 84 86  1  0  0  0  0
 86 87  1  0  0  0  0
 86 89  2  0  0  0  0
 87 88  1  0  0  0  0
 87 91  2  0  0  0  0
 89 90  1  0  0  0  0
 89 93  1  0  0  0  0
 91 92  1  0  0  0  0
 91 94  1  0  0  0  0
 93 94  2  0  0  0  0
 93 97  1  0  0  0  0
 94 95  1  0  0  0  0
 95 96  1  0  0  0  0
 97 98  1  0  0  0  0
 98 99  1  0  0  0  0
 98100  1  0  0  0  0
 98101  1  0  0  0  0
M  BCL ATM C_TeTeTeTe H_S O_Te2Te2TeTe C_TeTeTeTe H_S C_TeTeTeTe H_S C_TeTeTeTe H_S O_Te2Te2TeTe H_S C_TeTeTeTe H_S H_S C_TeTeTeTe H_S H_S N_TrTrTrPi2 H_S C_TrTrTrPi O_Tr2Tr2TrPi C_TeTeTeTe H_S H_S C_TeTeTeTe H_S H_S N_TrTrTrPi2 H_S O_Tr2Tr2TrPi C_TrTrTrPi C_TeTeTeTe H_S H_S C_TeTeTeTe H_S H_S H_S C_TeTeTeTe C_TeTeTeTe H_S H_S H_S C_TeTeTeTe H_S O_Te2Te2TeTe H_S O_Tr2TrTrPi2 O_Tr2TrTrPi2 O_Tr2TrTrPi2 O_Te2Te2TeTe O_Tr2Tr2TrPi O_Te2Te2TeTe O_Tr2Tr2TrPi P_TeTeTeTePi P_TeTeTeTePi C_TeTeTeTe H_S H_S O_Tr2TrTrPi2 O_Tr2Tr2TrPi O_Te2Te2Te2Te P_TeTeTeTePi O_Te2Te2Te2Te N_TrTrTrPi2 C_TrTrTrPi C_TrTrTrPi H_S C_TrTrTrPi N_Tr2TrTrPi N_Tr2TrTrPi C_TrTrTrPi C_TrTrTrPi H_S N_Tr2TrTrPi N_TrTrTrPi2 H_S H_S S_Te2Te2TeTe O_Tr2Tr2TrPi C_TrTrTrPi C_TrTrTrPi H_S C_TrTrTrPi H_S C_TrTrTrPi C_TrTrTrPi H_S C_TrTrTrPi H_S C_TrTrTrPi H_S C_TrTrTrPi C_TrTrTrPi O_Te2Te2TeTe H_S O_Tr2TrTrPi2 C_TeTeTeTe H_S H_S H_S
M  BCL BND NonConjugatedSingleBond NonConjugatedSingleBondInRing NonConjugatedSingleBondInRing NonConjugatedSingleBond NonConjugatedSingleBondInRing NonConjugatedSingleBond NonConjugatedSingleBondInRing NonConjugatedSingleBond NonConjugatedSingleBond NonConjugatedSingleBondInRing NonConjugatedSingleBond NonConjugatedSingleBond NonConjugatedSingleBond NonConjugatedSingleBond NonConjugatedSingleBond NonConjugatedSingleBond NonConjugatedSingleBond NonConjugatedSingleBond NonConjugatedSingleBond NonConjugatedSingleBond NonConjugatedSingleBond NonConjugatedSingleBond AmideSingleBond ConjugatedDoubleBond NonConjugatedSingleBond NonConjugatedSingleBond NonConjugatedSingleBond NonConjugatedSingleBond NonConjugatedSingleBond NonConjugatedSingleBond NonConjugatedSingleBond NonConjugatedSingleBond AmideSingleBond ConjugatedDoubleBond NonConjugatedSingleBond NonConjugatedSingleBond NonConjugatedSingleBond NonConjugatedSingleBond NonConjugatedSingleBond NonConjugatedSingleBond NonConjugatedSingleBond NonConjugatedSingleBond NonConjugatedSingleBond NonConjugatedSingleBond NonConjugatedSingleBond NonConjugatedSingleBond NonConjugatedSingleBond NonConjugatedSingleBond NonConjugatedSingleBond NonConjugatedSingleBond NonConjugatedSingleBond ConjugatedSingleBond ConjugatedSingleBond ConjugatedSingleBond ConjugatedSingleBond NonConjugatedSingleBond ConjugatedSingleBond ConjugatedDoubleBond ConjugatedSingleBond ConjugatedDoubleBond NonConjugatedSingleBond NonConjugatedSingleBond ConjugatedSingleBond ConjugatedDoubleBond ConjugatedSingleBond ConjugatedSingleBond AromaticSingleBond AromaticSingleBond AromaticDoubleBond AromaticSingleBond NonConjugatedSingleBond AromaticDoubleBond AromaticSingleBond AromaticSingleBond AromaticDoubleBond AromaticDoubleBond ConjugatedSingleBond NonConjugatedSingleBond AromaticSingleBond NonConjugatedSingleBond NonConjugatedSingleBond ConjugatedSingleBond ConjugatedDoubleBond ConjugatedSingleBond NonConjugatedSingleBond ConjugatedDoubleBond NonConjugatedSingleBond ConjugatedSingleBond AromaticSingleBond AromaticDoubleBond NonConjugatedSingleBond AromaticDoubleBond NonConjugatedSingleBond AromaticSingleBond NonConjugatedSingleBond AromaticSingleBond AromaticDoubleBond ConjugatedSingleBond ConjugatedSingleBond NonConjugatedSingleBond NonConjugatedSingleBond NonConjugatedSingleBond NonConjugatedSingleBond NonConjugatedSingleBond
M  BCL CHI   1   R   4   R   6   R   8   S  44   S  55   S  56   R
M  BCL DBI - - - - - - - - - - E - - -
M  END
> <ConfClashScore>
0 

> <ConfOneFourInteractionScore>
-0.978522 

> <ConfScore>
-0.0168295 

> <ConfScorePBest>
0.0105665 

> <ConfTolerance>
3.11687 

$$$$
L02.****
  PyMOL2.5          3D                             0

101104  0  0  0  0  0  0  0  0999 V2000
   15.2648   -4.5195   -5.5766 C   0  0  0  1  0  0  0  0  0  0  0  0
   15.3451   -5.5033   -5.1634 H   0  0  0  1  0  0  0  0  0  0  0  0
   14.5797   -3.6503   -4.6710 O   0  0  0  1  0  0  0  0  0  0  0  0
   14.4137   -4.5387   -6.8342 C   0  0  0  1  0  0  0  0  0  0  0  0
   15.0306   -4.5568   -7.7083 H   0  0  0  1  0  0  0  0  0  0  0  0
   14.0429   -2.6087   -5.4849 C   0  0  0  1  0  0  0  0  0  0  0  0
   14.7896   -1.8662   -5.6748 H   0  0  0  1  0  0  0  0  0  0  0  0
   13.6130   -3.2501   -6.7685 C   0  0  0  1  0  0  0  0  0  0  0  0
   12.5633   -3.4572   -6.7551 H   0  0  0  1  0  0  0  0  0  0  0  0
   13.5458   -5.6731   -6.8395 O   0  0  0  1  0  0  0  0  0  0  0  0
   13.9975   -6.4240   -6.4475 H   0  0  0  1  0  0  0  0  0  0  0  0
    5.2365    3.8832    2.0375 C   0  0  0  1  0  0  0  0  0  0  0  0
    4.4708    3.2153    1.7020 H   0  0  0  1  0  0  0  0  0  0  0  0
    5.1424    4.0330    3.0928 H   0  0  0  1  0  0  0  0  0  0  0  0
    5.0327    5.2127    1.3542 C   0  0  0  1  0  0  0  0  0  0  0  0
    5.6786    5.9326    1.8118 H   0  0  0  1  0  0  0  0  0  0  0  0
    4.0138    5.5110    1.4878 H   0  0  0  1  0  0  0  0  0  0  0  0
    6.5339    3.2558    1.7800 N   0  0  0  1  0  0  0  0  0  0  0  0
    7.1609    3.6988    1.1709 H   0  0  0  1  0  0  0  0  0  0  0  0
    6.8928    2.1002    2.3464 C   0  0  0  1  0  0  0  0  0  0  0  0
    6.1372    1.4399    3.0582 O   0  0  0  1  0  0  0  0  0  0  0  0
    8.3550    0.4405    1.1261 C   0  0  0  1  0  0  0  0  0  0  0  0
    8.0016    0.7403    0.1617 H   0  0  0  1  0  0  0  0  0  0  0  0
    7.7210   -0.3284    1.5157 H   0  0  0  1  0  0  0  0  0  0  0  0
    8.2978    1.6410    2.0617 C   0  0  0  1  0  0  0  0  0  0  0  0
    8.7630    1.3737    2.9875 H   0  0  0  1  0  0  0  0  0  0  0  0
    8.8357    2.4492    1.6119 H   0  0  0  1  0  0  0  0  0  0  0  0
    9.7096   -0.0961    0.9833 N   0  0  0  1  0  0  0  0  0  0  0  0
    9.9610   -0.8896    1.5005 H   0  0  0  1  0  0  0  0  0  0  0  0
   10.4145    1.5056   -0.4373 O   0  0  0  1  0  0  0  0  0  0  0  0
   10.6151    0.4585    0.1723 C   0  0  0  1  0  0  0  0  0  0  0  0
   11.2242   -0.9955   -2.2527 C   0  0  0  1  0  0  0  0  0  0  0  0
   10.3307   -0.4198   -2.1296 H   0  0  0  1  0  0  0  0  0  0  0  0
   11.0260   -1.8300   -2.8925 H   0  0  0  1  0  0  0  0  0  0  0  0
   13.0430   -2.2447   -1.0571 C   0  0  0  1  0  0  0  0  0  0  0  0
   13.8160   -1.5550   -1.3250 H   0  0  0  1  0  0  0  0  0  0  0  0
   12.9384   -2.9797   -1.8276 H   0  0  0  1  0  0  0  0  0  0  0  0
   13.2985   -2.7264   -0.1364 H   0  0  0  1  0  0  0  0  0  0  0  0
   11.7192   -1.4896   -0.8882 C   0  0  0  1  0  0  0  0  0  0  0  0
   10.6671   -2.4274   -0.2722 C   0  0  0  1  0  0  0  0  0  0  0  0
   10.9280   -3.4437   -0.4820 H   0  0  0  1  0  0  0  0  0  0  0  0
    9.7073   -2.2117   -0.6931 H   0  0  0  1  0  0  0  0  0  0  0  0
   10.6341   -2.2792    0.7870 H   0  0  0  1  0  0  0  0  0  0  0  0
   11.9317   -0.2904    0.0422 C   0  0  0  1  0  0  0  0  0  0  0  0
   12.1913   -0.6694    1.0086 H   0  0  0  1  0  0  0  0  0  0  0  0
   13.0009    0.4944   -0.4544 O   0  0  0  1  0  0  0  0  0  0  0  0
   13.5003    0.8575    0.2807 H   0  0  0  1  0  0  0  0  0  0  0  0
   12.2663   -0.1716   -2.8262 O   0  0  0  1  0  0  0  0  0  0  0  0
   10.7918    0.6414   -4.5839 O   0  0  0  1  0  0  0  0  0  0  0  0
   12.4822   -0.8228   -5.5889 O   0  0  0  1  0  0  0  0  0  0  0  0
   11.1979    2.0413   -2.5344 O   0  0  0  0  0  0  0  0  0  0  0  0
   12.9695    1.7160   -4.3428 O   0  0  0  1  0  0  0  0  0  0  0  0
   10.0387   -1.5134   -5.7336 O   0  0  0  0  0  0  0  0  0  0  0  0
   10.9226    0.5121   -7.0650 O   0  0  0  1  0  0  0  0  0  0  0  0
   11.8624    1.1472   -3.5463 P   0  0  0  1  0  0  0  0  0  0  0  0
   10.9492   -0.3367   -5.8502 P   0  0  0  1  0  0  0  0  0  0  0  0
   12.8721   -1.9763   -4.8071 C   0  0  0  1  0  0  0  0  0  0  0  0
   13.1445   -1.6713   -3.8184 H   0  0  0  1  0  0  0  0  0  0  0  0
   12.0612   -2.6725   -4.7555 H   0  0  0  1  0  0  0  0  0  0  0  0
   13.9237   -2.3948   -7.8988 O   0  0  0  1  0  0  0  0  0  0  0  0
   14.1876   -4.1212   -9.9102 O   0  0  0  1  0  0  0  0  0  0  0  0
   14.0661   -1.5121  -10.1729 O   0  5  0  1  0  0  0  0  0  0  0  0
   13.5714   -2.8641   -9.4302 P   0  0  0  1  0  0  0  0  0  0  0  0
   11.9573   -2.9244   -9.5553 O   0  5  0  1  0  0  0  0  0  0  0  0
   16.6027   -4.0023   -5.8707 N   0  0  0  1  0  0  0  0  0  0  0  0
   17.6407   -3.8368   -4.9905 C   0  0  0  1  0  0  0  0  0  0  0  0
   17.1061   -3.6928   -7.0969 C   0  0  0  1  0  0  0  0  0  0  0  0
   16.5301   -3.7248   -7.9622 H   0  0  0  1  0  0  0  0  0  0  0  0
   18.7330   -3.4338   -5.7705 C   0  0  0  1  0  0  0  0  0  0  0  0
   17.6319   -4.0297   -3.6708 N   0  0  0  1  0  0  0  0  0  0  0  0
   18.3664   -3.3529   -7.1049 N   0  0  0  1  0  0  0  0  0  0  0  0
   19.9194   -3.2190   -5.0754 C   0  0  0  1  0  0  0  0  0  0  0  0
   18.8220   -3.7815   -3.1380 C   0  0  0  1  0  0  0  0  0  0  0  0
   18.8887   -3.9073   -2.1078 H   0  0  0  1  0  0  0  0  0  0  0  0
   19.9511   -3.3900   -3.7493 N   0  0  0  1  0  0  0  0  0  0  0  0
   21.1357   -2.8260   -5.6414 N   0  0  0  1  0  0  0  0  0  0  0  0
   21.1442   -2.3023   -6.4697 H   0  0  0  1  0  0  0  0  0  0  0  0
   21.9798   -3.0740   -5.2099 H   0  0  0  1  0  0  0  0  0  0  0  0
    5.3896    5.1649   -0.4175 S   0  0  0  1  0  0  0  0  0  0  0  0
    7.7354    5.9165    0.5232 O   0  0  0  1  0  0  0  0  0  0  0  0
    7.1017    5.6455   -0.4704 C   0  0  0  1  0  0  0  0  0  0  0  0
    7.6670    5.6822   -1.8138 C   0  0  0  1  0  0  0  0  0  0  0  0
    7.0134    5.5332   -2.6089 H   0  0  0  1  0  0  0  0  0  0  0  0
    8.9493    5.8904   -2.1101 C   0  0  0  1  0  0  0  0  0  0  0  0
    9.6225    6.0419   -1.3320 H   0  0  0  1  0  0  0  0  0  0  0  0
    9.4550    5.9148   -3.5008 C   0  0  0  1  0  0  0  0  0  0  0  0
   10.8120    5.9107   -3.7836 C   0  0  0  1  0  0  0  0  0  0  0  0
   11.5047    5.8859   -3.0082 H   0  0  0  1  0  0  0  0  0  0  0  0
    8.5346    5.9424   -4.5314 C   0  0  0  1  0  0  0  0  0  0  0  0
    7.5164    5.9414   -4.3194 H   0  0  0  1  0  0  0  0  0  0  0  0
   11.2447    5.9395   -5.0960 C   0  0  0  1  0  0  0  0  0  0  0  0
   12.2629    5.9404   -5.3080 H   0  0  0  1  0  0  0  0  0  0  0  0
    8.9683    5.9713   -5.8477 C   0  0  0  1  0  0  0  0  0  0  0  0
   10.3214    5.9671   -6.1296 C   0  0  0  1  0  0  0  0  0  0  0  0
   10.7702    5.9897   -7.4081 O   0  0  0  1  0  0  0  0  0  0  0  0
   11.1431    6.8529   -7.6017 H   0  0  0  1  0  0  0  0  0  0  0  0
    8.1634    6.0047   -6.9363 O   0  0  0  1  0  0  0  0  0  0  0  0
    6.7534    6.1503   -6.7056 C   0  0  0  1  0  0  0  0  0  0  0  0
    6.4832    7.1826   -6.7851 H   0  0  0  1  0  0  0  0  0  0  0  0
    6.5139    5.7936   -5.7256 H   0  0  0  1  0  0  0  0  0  0  0  0
    6.2127    5.5832   -7.4342 H   0  0  0  1  0  0  0  0  0  0  0  0
  1  2  1  0  0  0  0
  1  3  1  0  0  0  0
  1  4  1  0  0  0  0
  1 65  1  0  0  0  0
  3  6  1  0  0  0  0
  4  5  1  0  0  0  0
  4  8  1  0  0  0  0
  4 10  1  0  0  0  0
  6  7  1  0  0  0  0
  6  8  1  0  0  0  0
  6 57  1  0  0  0  0
  8  9  1  0  0  0  0
  8 60  1  0  0  0  0
 10 11  1  0  0  0  0
 12 13  1  0  0  0  0
 12 14  1  0  0  0  0
 12 15  1  0  0  0  0
 12 18  1  0  0  0  0
 15 16  1  0  0  0  0
 15 17  1  0  0  0  0
 15 79  1  0  0  0  0
 18 19  1  0  0  0  0
 18 20  1  0  0  0  0
 20 21  2  0  0  0  0
 20 25  1  0  0  0  0
 22 23  1  0  0  0  0
 22 24  1  0  0  0  0
 22 25  1  0  0  0  0
 22 28  1  0  0  0  0
 25 26  1  0  0  0  0
 25 27  1  0  0  0  0
 28 29  1  0  0  0  0
 28 31  1  0  0  0  0
 30 31  2  0  0  0  0
 31 44  1  0  0  0  0
 32 33  1  0  0  0  0
 32 34  1  0  0  0  0
 32 39  1  0  0  0  0
 32 48  1  0  0  0  0
 35 36  1  0  0  0  0
 35 37  1  0  0  0  0
 35 38  1  0  0  0  0
 35 39  1  0  0  0  0
 39 40  1  0  0  0  0
 39 44  1  0  0  0  0
 40 41  1  0  0  0  0
 40 42  1  0  0  0  0
 40 43  1  0  0  0  0
 44 45  1  0  0  0  0
 44 46  1  0  0  0  0
 46 47  1  0  0  0  0
 48 55  1  0  0  0  0
 49 55  1  0  0  0  0
 49 56  1  0  0  0  0
 50 56  1  0  0  0  0
 50 57  1  0  0  0  0
 51 55  1  0  0  0  0
 52 55  2  0  0  0  0
 53 56  1  0  0  0  0
 54 56  2  0  0  0  0
 57 58  1  0  0  0  0
 57 59  1  0  0  0  0
 60 63  1  0  0  0  0
 61 63  2  0  0  0  0
 62 63  1  0  0  0  0
 63 64  1  0  0  0  0
 65 66  1  0  0  0  0
 65 67  1  0  0  0  0
 66 69  2  0  0  0  0
 66 70  1  0  0  0  0
 67 68  1  0  0  0  0
 67 71  2  0  0  0  0
 69 71  1  0  0  0  0
 69 72  1  0  0  0  0
 70 73  2  0  0  0  0
 72 75  2  0  0  0  0
 72 76  1  0  0  0  0
 73 74  1  0  0  0  0
 73 75  1  0  0  0  0
 76 77  1  0  0  0  0
 76 78  1  0  0  0  0
 79 81  1  0  0  0  0
 80 81  2  0  0  0  0
 81 82  1  0  0  0  0
 82 83  1  0  0  0  0
 82 84  2  0  0  0  0
 84 85  1  0  0  0  0
 84 86  1  0  0  0  0
 86 87  1  0  0  0  0
 86 89  2  0  0  0  0
 87 88  1  0  0  0  0
 87 91  2  0  0  0  0
 89 90  1  0  0  0  0
 89 93  1  0  0  0  0
 91 92  1  0  0  0  0
 91 94  1  0  0  0  0
 93 94  2  0  0  0  0
 93 97  1  0  0  0  0
 94 95  1  0  0  0  0
 95 96  1  0  0  0  0
 97 98  1  0  0  0  0
 98 99  1  0  0  0  0
 98100  1  0  0  0  0
 98101  1  0  0  0  0
M  BCL ATM C_TeTeTeTe H_S O_Te2Te2TeTe C_TeTeTeTe H_S C_TeTeTeTe H_S C_TeTeTeTe H_S O_Te2Te2TeTe H_S C_TeTeTeTe H_S H_S C_TeTeTeTe H_S H_S N_TrTrTrPi2 H_S C_TrTrTrPi O_Tr2Tr2TrPi C_TeTeTeTe H_S H_S C_TeTeTeTe H_S H_S N_TrTrTrPi2 H_S O_Tr2Tr2TrPi C_TrTrTrPi C_TeTeTeTe H_S H_S C_TeTeTeTe H_S H_S H_S C_TeTeTeTe C_TeTeTeTe H_S H_S H_S C_TeTeTeTe H_S O_Te2Te2TeTe H_S O_Tr2TrTrPi2 O_Tr2TrTrPi2 O_Tr2TrTrPi2 O_Te2Te2TeTe O_Tr2Tr2TrPi O_Te2Te2TeTe O_Tr2Tr2TrPi P_TeTeTeTePi P_TeTeTeTePi C_TeTeTeTe H_S H_S O_Tr2TrTrPi2 O_Tr2Tr2TrPi O_Te2Te2Te2Te P_TeTeTeTePi O_Te2Te2Te2Te N_TrTrTrPi2 C_TrTrTrPi C_TrTrTrPi H_S C_TrTrTrPi N_Tr2TrTrPi N_Tr2TrTrPi C_TrTrTrPi C_TrTrTrPi H_S N_Tr2TrTrPi N_TrTrTrPi2 H_S H_S S_Te2Te2TeTe O_Tr2Tr2TrPi C_TrTrTrPi C_TrTrTrPi H_S C_TrTrTrPi H_S C_TrTrTrPi C_TrTrTrPi H_S C_TrTrTrPi H_S C_TrTrTrPi H_S C_TrTrTrPi C_TrTrTrPi O_Te2Te2TeTe H_S O_Tr2TrTrPi2 C_TeTeTeTe H_S H_S H_S
M  BCL BND NonConjugatedSingleBond NonConjugatedSingleBondInRing NonConjugatedSingleBondInRing NonConjugatedSingleBond NonConjugatedSingleBondInRing NonConjugatedSingleBond NonConjugatedSingleBondInRing NonConjugatedSingleBond NonConjugatedSingleBond NonConjugatedSingleBondInRing NonConjugatedSingleBond NonConjugatedSingleBond NonConjugatedSingleBond NonConjugatedSingleBond NonConjugatedSingleBond NonConjugatedSingleBond NonConjugatedSingleBond NonConjugatedSingleBond NonConjugatedSingleBond NonConjugatedSingleBond NonConjugatedSingleBond NonConjugatedSingleBond AmideSingleBond ConjugatedDoubleBond NonConjugatedSingleBond NonConjugatedSingleBond NonConjugatedSingleBond NonConjugatedSingleBond NonConjugatedSingleBond NonConjugatedSingleBond NonConjugatedSingleBond NonConjugatedSingleBond AmideSingleBond ConjugatedDoubleBond NonConjugatedSingleBond NonConjugatedSingleBond NonConjugatedSingleBond NonConjugatedSingleBond NonConjugatedSingleBond NonConjugatedSingleBond NonConjugatedSingleBond NonConjugatedSingleBond NonConjugatedSingleBond NonConjugatedSingleBond NonConjugatedSingleBond NonConjugatedSingleBond NonConjugatedSingleBond NonConjugatedSingleBond NonConjugatedSingleBond NonConjugatedSingleBond NonConjugatedSingleBond ConjugatedSingleBond ConjugatedSingleBond ConjugatedSingleBond ConjugatedSingleBond NonConjugatedSingleBond ConjugatedSingleBond ConjugatedDoubleBond ConjugatedSingleBond ConjugatedDoubleBond NonConjugatedSingleBond NonConjugatedSingleBond ConjugatedSingleBond ConjugatedDoubleBond ConjugatedSingleBond ConjugatedSingleBond AromaticSingleBond AromaticSingleBond AromaticDoubleBond AromaticSingleBond NonConjugatedSingleBond AromaticDoubleBond AromaticSingleBond AromaticSingleBond AromaticDoubleBond AromaticDoubleBond ConjugatedSingleBond NonConjugatedSingleBond AromaticSingleBond NonConjugatedSingleBond NonConjugatedSingleBond ConjugatedSingleBond ConjugatedDoubleBond ConjugatedSingleBond NonConjugatedSingleBond ConjugatedDoubleBond NonConjugatedSingleBond ConjugatedSingleBond AromaticSingleBond AromaticDoubleBond NonConjugatedSingleBond AromaticDoubleBond NonConjugatedSingleBond AromaticSingleBond NonConjugatedSingleBond AromaticSingleBond AromaticDoubleBond ConjugatedSingleBond ConjugatedSingleBond NonConjugatedSingleBond NonConjugatedSingleBond NonConjugatedSingleBond NonConjugatedSingleBond NonConjugatedSingleBond
M  BCL CHI   1   R   4   R   6   R   8   S  44   S  55   S  56   R
M  BCL DBI - - - - - - - - - - E - - -
M  END
> <ConfClashScore>
0 

> <ConfOneFourInteractionScore>
-0.974415 

> <ConfScore>
-0.0151235 

> <ConfScorePBest>
0.0104635 

> <ConfTolerance>
2.92675 

$$$$
L02.****
  PyMOL2.5          3D                             0

101104  0  0  0  0  0  0  0  0999 V2000
   15.2669   -4.4827   -5.5650 C   0  0  0  1  0  0  0  0  0  0  0  0
   14.6811   -4.4832   -6.4604 H   0  0  0  1  0  0  0  0  0  0  0  0
   15.2762   -5.7972   -4.9641 O   0  0  0  1  0  0  0  0  0  0  0  0
   14.6371   -3.5672   -4.5111 C   0  0  0  1  0  0  0  0  0  0  0  0
   15.3897   -3.0711   -3.9346 H   0  0  0  1  0  0  0  0  0  0  0  0
   14.7058   -5.7927   -3.6836 C   0  0  0  1  0  0  0  0  0  0  0  0
   15.4650   -5.7516   -2.9307 H   0  0  0  1  0  0  0  0  0  0  0  0
   13.8444   -4.5218   -3.6573 C   0  0  0  1  0  0  0  0  0  0  0  0
   12.8770   -4.7028   -4.0773 H   0  0  0  1  0  0  0  0  0  0  0  0
   13.7845   -2.5951   -5.1200 O   0  0  0  1  0  0  0  0  0  0  0  0
   13.8458   -1.7677   -4.6371 H   0  0  0  1  0  0  0  0  0  0  0  0
   14.2295   -1.8589    6.1171 C   0  0  0  1  0  0  0  0  0  0  0  0
   14.6962   -0.9425    6.4127 H   0  0  0  1  0  0  0  0  0  0  0  0
   14.2709   -1.9534    5.0521 H   0  0  0  1  0  0  0  0  0  0  0  0
   12.7796   -1.8011    6.5274 C   0  0  0  1  0  0  0  0  0  0  0  0
   12.3592   -0.8873    6.1624 H   0  0  0  1  0  0  0  0  0  0  0  0
   12.7278   -1.8163    7.5960 H   0  0  0  1  0  0  0  0  0  0  0  0
   14.9826   -2.9595    6.6995 N   0  0  0  1  0  0  0  0  0  0  0  0
   14.6110   -3.4285    7.4756 H   0  0  0  1  0  0  0  0  0  0  0  0
   16.1630   -3.3530    6.2128 C   0  0  0  1  0  0  0  0  0  0  0  0
   16.7098   -2.8047    5.2567 O   0  0  0  1  0  0  0  0  0  0  0  0
   16.2884   -5.8658    6.4092 C   0  0  0  1  0  0  0  0  0  0  0  0
   15.2419   -5.9346    6.6215 H   0  0  0  1  0  0  0  0  0  0  0  0
   16.8094   -6.6458    6.9241 H   0  0  0  1  0  0  0  0  0  0  0  0
   16.8000   -4.5251    6.9101 C   0  0  0  1  0  0  0  0  0  0  0  0
   16.5936   -4.4516    7.9575 H   0  0  0  1  0  0  0  0  0  0  0  0
   17.8572   -4.4829    6.7507 H   0  0  0  1  0  0  0  0  0  0  0  0
   16.4872   -6.0402    4.9692 N   0  0  0  1  0  0  0  0  0  0  0  0
   16.9321   -5.3283    4.4636 H   0  0  0  1  0  0  0  0  0  0  0  0
   15.5790   -8.0948    4.9182 O   0  0  0  1  0  0  0  0  0  0  0  0
   16.0794   -7.1470    4.3142 C   0  0  0  1  0  0  0  0  0  0  0  0
   17.3246   -8.4249    0.9053 C   0  0  0  1  0  0  0  0  0  0  0  0
   18.2678   -8.8662    0.6590 H   0  0  0  1  0  0  0  0  0  0  0  0
   17.2788   -7.4336    0.5051 H   0  0  0  1  0  0  0  0  0  0  0  0
   18.4889   -8.2485    3.1676 C   0  0  0  1  0  0  0  0  0  0  0  0
   18.3136   -8.1825    4.2210 H   0  0  0  1  0  0  0  0  0  0  0  0
   18.9919   -7.3650    2.8339 H   0  0  0  1  0  0  0  0  0  0  0  0
   19.0959   -9.1049    2.9602 H   0  0  0  1  0  0  0  0  0  0  0  0
   17.1494   -8.3818    2.4332 C   0  0  0  1  0  0  0  0  0  0  0  0
   16.4429   -9.6626    2.8923 C   0  0  0  1  0  0  0  0  0  0  0  0
   16.3677   -9.6661    3.9596 H   0  0  0  1  0  0  0  0  0  0  0  0
   17.0055  -10.5145    2.5718 H   0  0  0  1  0  0  0  0  0  0  0  0
   15.4623   -9.7011    2.4658 H   0  0  0  1  0  0  0  0  0  0  0  0
   16.2567   -7.1901    2.7992 C   0  0  0  1  0  0  0  0  0  0  0  0
   16.7782   -6.3010    2.5121 H   0  0  0  1  0  0  0  0  0  0  0  0
   15.0197   -7.2375    2.1087 O   0  0  0  1  0  0  0  0  0  0  0  0
   14.3775   -6.6876    2.5635 H   0  0  0  1  0  0  0  0  0  0  0  0
   16.2487   -9.2260    0.3620 O   0  0  0  1  0  0  0  0  0  0  0  0
   15.5623   -8.9249   -1.8644 O   0  0  0  1  0  0  0  0  0  0  0  0
   14.6772   -8.1375   -3.8930 O   0  0  0  1  0  0  0  0  0  0  0  0
   13.7387   -9.2828   -0.1156 O   0  0  0  0  0  0  0  0  0  0  0  0
   15.0139   -7.0662   -0.1978 O   0  0  0  1  0  0  0  0  0  0  0  0
   15.3007  -10.6076   -3.7685 O   0  0  0  0  0  0  0  0  0  0  0  0
   13.2342   -9.7476   -2.5208 O   0  0  0  1  0  0  0  0  0  0  0  0
   14.9865   -8.5267   -0.3946 P   0  0  0  1  0  0  0  0  0  0  0  0
   14.6021   -9.5209   -3.0382 P   0  0  0  1  0  0  0  0  0  0  0  0
   13.8569   -7.0161   -3.4742 C   0  0  0  1  0  0  0  0  0  0  0  0
   12.9690   -6.9605   -4.0688 H   0  0  0  1  0  0  0  0  0  0  0  0
   13.5904   -7.1134   -2.4425 H   0  0  0  1  0  0  0  0  0  0  0  0
   13.6985   -4.0167   -2.3053 O   0  0  0  1  0  0  0  0  0  0  0  0
   11.3241   -4.6968   -2.2227 O   0  0  0  1  0  0  0  0  0  0  0  0
   12.3207   -3.5784   -0.0529 O   0  5  0  1  0  0  0  0  0  0  0  0
   12.4966   -4.5592   -1.3302 P   0  0  0  1  0  0  0  0  0  0  0  0
   13.0804   -5.9937   -0.8551 O   0  5  0  1  0  0  0  0  0  0  0  0
   16.6300   -4.0492   -5.8734 N   0  0  0  1  0  0  0  0  0  0  0  0
   17.6547   -3.8479   -4.9851 C   0  0  0  1  0  0  0  0  0  0  0  0
   17.1441   -3.7622   -7.1006 C   0  0  0  1  0  0  0  0  0  0  0  0
   16.5792   -3.8231   -7.9717 H   0  0  0  1  0  0  0  0  0  0  0  0
   18.7508   -3.4485   -5.7615 C   0  0  0  1  0  0  0  0  0  0  0  0
   17.6323   -4.0093   -3.6613 N   0  0  0  1  0  0  0  0  0  0  0  0
   18.3995   -3.4048   -7.1018 N   0  0  0  1  0  0  0  0  0  0  0  0
   19.9255   -3.2003   -5.0576 C   0  0  0  1  0  0  0  0  0  0  0  0
   18.8122   -3.7316   -3.1205 C   0  0  0  1  0  0  0  0  0  0  0  0
   18.8680   -3.8316   -2.0868 H   0  0  0  1  0  0  0  0  0  0  0  0
   19.9433   -3.3390   -3.7276 N   0  0  0  1  0  0  0  0  0  0  0  0
   21.0919   -2.8132   -5.6630 N   0  0  0  1  0  0  0  0  0  0  0  0
   21.9252   -2.7846   -5.1480 H   0  0  0  1  0  0  0  0  0  0  0  0
   21.0930   -2.5648   -6.6110 H   0  0  0  1  0  0  0  0  0  0  0  0
   11.8019   -3.1804    5.8850 S   0  0  0  1  0  0  0  0  0  0  0  0
    9.7536   -1.7640    6.7514 O   0  0  0  1  0  0  0  0  0  0  0  0
   10.0947   -2.7599    6.1563 C   0  0  0  1  0  0  0  0  0  0  0  0
    9.1502   -3.7211    5.5986 C   0  0  0  1  0  0  0  0  0  0  0  0
    9.5220   -4.5814    5.1478 H   0  0  0  1  0  0  0  0  0  0  0  0
    7.8162   -3.5405    5.6432 C   0  0  0  1  0  0  0  0  0  0  0  0
    7.5419   -2.6537    6.1121 H   0  0  0  1  0  0  0  0  0  0  0  0
    6.6540   -4.3283    5.1707 C   0  0  0  1  0  0  0  0  0  0  0  0
    5.3745   -3.9537    5.5499 C   0  0  0  1  0  0  0  0  0  0  0  0
    5.2351   -3.1221    6.1587 H   0  0  0  1  0  0  0  0  0  0  0  0
    6.8388   -5.4302    4.3572 C   0  0  0  1  0  0  0  0  0  0  0  0
    7.7985   -5.7089    4.0694 H   0  0  0  1  0  0  0  0  0  0  0  0
    4.2838   -4.6851    5.1189 C   0  0  0  1  0  0  0  0  0  0  0  0
    3.3241   -4.4063    5.4066 H   0  0  0  1  0  0  0  0  0  0  0  0
    5.7451   -6.1639    3.9248 C   0  0  0  1  0  0  0  0  0  0  0  0
    4.4693   -5.7903    4.3029 C   0  0  0  1  0  0  0  0  0  0  0  0
    3.4314   -6.5354    3.8509 O   0  0  0  1  0  0  0  0  0  0  0  0
    3.7674   -7.2843    3.3530 H   0  0  0  1  0  0  0  0  0  0  0  0
    5.8016   -7.2477    3.1421 O   0  0  0  1  0  0  0  0  0  0  0  0
    7.0487   -7.6639    2.4906 C   0  0  0  1  0  0  0  0  0  0  0  0
    7.4607   -6.8390    1.9478 H   0  0  0  1  0  0  0  0  0  0  0  0
    6.8467   -8.4693    1.8157 H   0  0  0  1  0  0  0  0  0  0  0  0
    7.7481   -7.9870    3.2331 H   0  0  0  1  0  0  0  0  0  0  0  0
  1  2  1  0  0  0  0
  1  3  1  0  0  0  0
  1  4  1  0  0  0  0
  1 65  1  0  0  0  0
  3  6  1  0  0  0  0
  4  5  1  0  0  0  0
  4  8  1  0  0  0  0
  4 10  1  0  0  0  0
  6  7  1  0  0  0  0
  6  8  1  0  0  0  0
  6 57  1  0  0  0  0
  8  9  1  0  0  0  0
  8 60  1  0  0  0  0
 10 11  1  0  0  0  0
 12 13  1  0  0  0  0
 12 14  1  0  0  0  0
 12 15  1  0  0  0  0
 12 18  1  0  0  0  0
 15 16  1  0  0  0  0
 15 17  1  0  0  0  0
 15 79  1  0  0  0  0
 18 19  1  0  0  0  0
 18 20  1  0  0  0  0
 20 21  2  0  0  0  0
 20 25  1  0  0  0  0
 22 23  1  0  0  0  0
 22 24  1  0  0  0  0
 22 25  1  0  0  0  0
 22 28  1  0  0  0  0
 25 26  1  0  0  0  0
 25 27  1  0  0  0  0
 28 29  1  0  0  0  0
 28 31  1  0  0  0  0
 30 31  2  0  0  0  0
 31 44  1  0  0  0  0
 32 33  1  0  0  0  0
 32 34  1  0  0  0  0
 32 39  1  0  0  0  0
 32 48  1  0  0  0  0
 35 36  1  0  0  0  0
 35 37  1  0  0  0  0
 35 38  1  0  0  0  0
 35 39  1  0  0  0  0
 39 40  1  0  0  0  0
 39 44  1  0  0  0  0
 40 41  1  0  0  0  0
 40 42  1  0  0  0  0
 40 43  1  0  0  0  0
 44 45  1  0  0  0  0
 44 46  1  0  0  0  0
 46 47  1  0  0  0  0
 48 55  1  0  0  0  0
 49 55  1  0  0  0  0
 49 56  1  0  0  0  0
 50 56  1  0  0  0  0
 50 57  1  0  0  0  0
 51 55  1  0  0  0  0
 52 55  2  0  0  0  0
 53 56  1  0  0  0  0
 54 56  2  0  0  0  0
 57 58  1  0  0  0  0
 57 59  1  0  0  0  0
 60 63  1  0  0  0  0
 61 63  2  0  0  0  0
 62 63  1  0  0  0  0
 63 64  1  0  0  0  0
 65 66  1  0  0  0  0
 65 67  1  0  0  0  0
 66 69  2  0  0  0  0
 66 70  1  0  0  0  0
 67 68  1  0  0  0  0
 67 71  2  0  0  0  0
 69 71  1  0  0  0  0
 69 72  1  0  0  0  0
 70 73  2  0  0  0  0
 72 75  2  0  0  0  0
 72 76  1  0  0  0  0
 73 74  1  0  0  0  0
 73 75  1  0  0  0  0
 76 77  1  0  0  0  0
 76 78  1  0  0  0  0
 79 81  1  0  0  0  0
 80 81  2  0  0  0  0
 81 82  1  0  0  0  0
 82 83  1  0  0  0  0
 82 84  2  0  0  0  0
 84 85  1  0  0  0  0
 84 86  1  0  0  0  0
 86 87  1  0  0  0  0
 86 89  2  0  0  0  0
 87 88  1  0  0  0  0
 87 91  2  0  0  0  0
 89 90  1  0  0  0  0
 89 93  1  0  0  0  0
 91 92  1  0  0  0  0
 91 94  1  0  0  0  0
 93 94  2  0  0  0  0
 93 97  1  0  0  0  0
 94 95  1  0  0  0  0
 95 96  1  0  0  0  0
 97 98  1  0  0  0  0
 98 99  1  0  0  0  0
 98100  1  0  0  0  0
 98101  1  0  0  0  0
M  BCL ATM C_TeTeTeTe H_S O_Te2Te2TeTe C_TeTeTeTe H_S C_TeTeTeTe H_S C_TeTeTeTe H_S O_Te2Te2TeTe H_S C_TeTeTeTe H_S H_S C_TeTeTeTe H_S H_S N_TrTrTrPi2 H_S C_TrTrTrPi O_Tr2Tr2TrPi C_TeTeTeTe H_S H_S C_TeTeTeTe H_S H_S N_TrTrTrPi2 H_S O_Tr2Tr2TrPi C_TrTrTrPi C_TeTeTeTe H_S H_S C_TeTeTeTe H_S H_S H_S C_TeTeTeTe C_TeTeTeTe H_S H_S H_S C_TeTeTeTe H_S O_Te2Te2TeTe H_S O_Tr2TrTrPi2 O_Tr2TrTrPi2 O_Tr2TrTrPi2 O_Te2Te2TeTe O_Tr2Tr2TrPi O_Te2Te2TeTe O_Tr2Tr2TrPi P_TeTeTeTePi P_TeTeTeTePi C_TeTeTeTe H_S H_S O_Tr2TrTrPi2 O_Tr2Tr2TrPi O_Te2Te2Te2Te P_TeTeTeTePi O_Te2Te2Te2Te N_TrTrTrPi2 C_TrTrTrPi C_TrTrTrPi H_S C_TrTrTrPi N_Tr2TrTrPi N_Tr2TrTrPi C_TrTrTrPi C_TrTrTrPi H_S N_Tr2TrTrPi N_TrTrTrPi2 H_S H_S S_Te2Te2TeTe O_Tr2Tr2TrPi C_TrTrTrPi C_TrTrTrPi H_S C_TrTrTrPi H_S C_TrTrTrPi C_TrTrTrPi H_S C_TrTrTrPi H_S C_TrTrTrPi H_S C_TrTrTrPi C_TrTrTrPi O_Te2Te2TeTe H_S O_Tr2TrTrPi2 C_TeTeTeTe H_S H_S H_S
M  BCL BND NonConjugatedSingleBond NonConjugatedSingleBondInRing NonConjugatedSingleBondInRing NonConjugatedSingleBond NonConjugatedSingleBondInRing NonConjugatedSingleBond NonConjugatedSingleBondInRing NonConjugatedSingleBond NonConjugatedSingleBond NonConjugatedSingleBondInRing NonConjugatedSingleBond NonConjugatedSingleBond NonConjugatedSingleBond NonConjugatedSingleBond NonConjugatedSingleBond NonConjugatedSingleBond NonConjugatedSingleBond NonConjugatedSingleBond NonConjugatedSingleBond NonConjugatedSingleBond NonConjugatedSingleBond NonConjugatedSingleBond AmideSingleBond ConjugatedDoubleBond NonConjugatedSingleBond NonConjugatedSingleBond NonConjugatedSingleBond NonConjugatedSingleBond NonConjugatedSingleBond NonConjugatedSingleBond NonConjugatedSingleBond NonConjugatedSingleBond AmideSingleBond ConjugatedDoubleBond NonConjugatedSingleBond NonConjugatedSingleBond NonConjugatedSingleBond NonConjugatedSingleBond NonConjugatedSingleBond NonConjugatedSingleBond NonConjugatedSingleBond NonConjugatedSingleBond NonConjugatedSingleBond NonConjugatedSingleBond NonConjugatedSingleBond NonConjugatedSingleBond NonConjugatedSingleBond NonConjugatedSingleBond NonConjugatedSingleBond NonConjugatedSingleBond NonConjugatedSingleBond ConjugatedSingleBond ConjugatedSingleBond ConjugatedSingleBond ConjugatedSingleBond NonConjugatedSingleBond ConjugatedSingleBond ConjugatedDoubleBond ConjugatedSingleBond ConjugatedDoubleBond NonConjugatedSingleBond NonConjugatedSingleBond ConjugatedSingleBond ConjugatedDoubleBond ConjugatedSingleBond ConjugatedSingleBond AromaticSingleBond AromaticSingleBond AromaticDoubleBond AromaticSingleBond NonConjugatedSingleBond AromaticDoubleBond AromaticSingleBond AromaticSingleBond AromaticDoubleBond AromaticDoubleBond ConjugatedSingleBond NonConjugatedSingleBond AromaticSingleBond NonConjugatedSingleBond NonConjugatedSingleBond ConjugatedSingleBond ConjugatedDoubleBond ConjugatedSingleBond NonConjugatedSingleBond ConjugatedDoubleBond NonConjugatedSingleBond ConjugatedSingleBond AromaticSingleBond AromaticDoubleBond NonConjugatedSingleBond AromaticDoubleBond NonConjugatedSingleBond AromaticSingleBond NonConjugatedSingleBond AromaticSingleBond AromaticDoubleBond ConjugatedSingleBond ConjugatedSingleBond NonConjugatedSingleBond NonConjugatedSingleBond NonConjugatedSingleBond NonConjugatedSingleBond NonConjugatedSingleBond
M  BCL CHI   1   R   4   R   6   R   8   S  44   S  55   S  56   R
M  BCL DBI - - - - - - - - - - E - - -
M  END
> <ConfClashScore>
0 

> <ConfOneFourInteractionScore>
-0.971867 

> <ConfScore>
-0.0089605 

> <ConfScorePBest>
0.0103605 

> <ConfTolerance>
2.96199 

$$$$
L02.****
  PyMOL2.5          3D                             0

101104  0  0  0  0  0  0  0  0999 V2000
   15.2839   -4.4732   -5.5310 C   0  0  0  1  0  0  0  0  0  0  0  0
   14.7436   -3.6522   -5.1081 H   0  0  0  1  0  0  0  0  0  0  0  0
   14.6225   -4.9392   -6.6733 O   0  0  0  1  0  0  0  0  0  0  0  0
   15.3536   -5.6283   -4.5195 C   0  0  0  1  0  0  0  0  0  0  0  0
   16.3281   -5.7008   -4.0836 H   0  0  0  1  0  0  0  0  0  0  0  0
   14.1457   -6.3043   -6.4706 C   0  0  0  1  0  0  0  0  0  0  0  0
   14.2418   -6.8767   -7.3695 H   0  0  0  1  0  0  0  0  0  0  0  0
   15.0428   -6.8559   -5.3863 C   0  0  0  1  0  0  0  0  0  0  0  0
   14.5369   -7.6076   -4.8172 H   0  0  0  1  0  0  0  0  0  0  0  0
   14.3801   -5.4676   -3.4868 O   0  0  0  1  0  0  0  0  0  0  0  0
   13.5069   -5.6586   -3.8370 H   0  0  0  1  0  0  0  0  0  0  0  0
   14.4280    2.4943  -12.3349 C   0  0  0  1  0  0  0  0  0  0  0  0
   15.4258    2.2860  -12.6603 H   0  0  0  1  0  0  0  0  0  0  0  0
   13.9765    3.2022  -12.9982 H   0  0  0  1  0  0  0  0  0  0  0  0
   14.4864    3.1003  -10.9422 C   0  0  0  1  0  0  0  0  0  0  0  0
   15.0657    3.9993  -10.9763 H   0  0  0  1  0  0  0  0  0  0  0  0
   14.9493    2.4022  -10.2765 H   0  0  0  1  0  0  0  0  0  0  0  0
   13.6527    1.2531  -12.3751 N   0  0  0  1  0  0  0  0  0  0  0  0
   13.0357    1.0380  -11.6448 H   0  0  0  1  0  0  0  0  0  0  0  0
   13.7857    0.4058  -13.4142 C   0  0  0  1  0  0  0  0  0  0  0  0
   14.5156    0.5929  -14.3737 O   0  0  0  1  0  0  0  0  0  0  0  0
   13.3110   -1.9674  -14.2358 C   0  0  0  1  0  0  0  0  0  0  0  0
   14.2693   -2.3473  -13.9492 H   0  0  0  1  0  0  0  0  0  0  0  0
   13.3621   -1.5856  -15.2341 H   0  0  0  1  0  0  0  0  0  0  0  0
   12.9375   -0.8308  -13.2982 C   0  0  0  1  0  0  0  0  0  0  0  0
   11.9235   -0.5556  -13.5007 H   0  0  0  1  0  0  0  0  0  0  0  0
   13.0159   -1.1919  -12.2941 H   0  0  0  1  0  0  0  0  0  0  0  0
   12.3422   -3.0644  -14.2021 N   0  0  0  1  0  0  0  0  0  0  0  0
   11.4492   -2.9186  -14.5786 H   0  0  0  1  0  0  0  0  0  0  0  0
   13.6607   -4.4755  -13.0583 O   0  0  0  1  0  0  0  0  0  0  0  0
   12.6325   -4.2551  -13.6770 C   0  0  0  1  0  0  0  0  0  0  0  0
   10.7646   -4.4665  -11.6891 C   0  0  0  1  0  0  0  0  0  0  0  0
   11.4071   -3.6272  -11.8550 H   0  0  0  1  0  0  0  0  0  0  0  0
   11.2896   -5.2135  -11.1312 H   0  0  0  1  0  0  0  0  0  0  0  0
    9.4066   -3.9898  -13.7773 C   0  0  0  1  0  0  0  0  0  0  0  0
    9.3134   -3.1093  -13.1766 H   0  0  0  1  0  0  0  0  0  0  0  0
    8.4369   -4.4074  -13.9506 H   0  0  0  1  0  0  0  0  0  0  0  0
    9.8589   -3.7365  -14.7133 H   0  0  0  1  0  0  0  0  0  0  0  0
   10.3053   -5.0438  -13.0288 C   0  0  0  1  0  0  0  0  0  0  0  0
    9.5386   -6.3859  -12.7761 C   0  0  0  1  0  0  0  0  0  0  0  0
    9.2126   -6.4247  -11.7577 H   0  0  0  1  0  0  0  0  0  0  0  0
   10.1902   -7.2113  -12.9735 H   0  0  0  1  0  0  0  0  0  0  0  0
    8.6890   -6.4385  -13.4245 H   0  0  0  1  0  0  0  0  0  0  0  0
   11.5943   -5.3436  -13.8947 C   0  0  0  1  0  0  0  0  0  0  0  0
   12.0084   -6.2735  -13.5647 H   0  0  0  1  0  0  0  0  0  0  0  0
   11.2233   -5.4441  -15.2591 O   0  0  0  1  0  0  0  0  0  0  0  0
   11.5120   -6.2905  -15.6082 H   0  0  0  1  0  0  0  0  0  0  0  0
    9.5847   -4.0480  -10.9634 O   0  0  0  1  0  0  0  0  0  0  0  0
   10.5661   -4.3969   -8.6204 O   0  0  0  1  0  0  0  0  0  0  0  0
   11.9757   -5.9279   -7.2209 O   0  0  0  1  0  0  0  0  0  0  0  0
   10.3883   -2.1059   -9.4907 O   0  0  0  0  0  0  0  0  0  0  0  0
    8.2373   -3.3770   -9.0190 O   0  0  0  1  0  0  0  0  0  0  0  0
   11.1979   -3.8364   -6.1811 O   0  0  0  0  0  0  0  0  0  0  0  0
    9.5290   -5.5347   -6.7580 O   0  0  0  1  0  0  0  0  0  0  0  0
    9.6415   -3.3883   -9.4862 P   0  0  0  1  0  0  0  0  0  0  0  0
   10.8080   -4.8750   -7.1567 P   0  0  0  1  0  0  0  0  0  0  0  0
   12.7030   -6.3061   -6.0235 C   0  0  0  1  0  0  0  0  0  0  0  0
   12.5449   -5.5950   -5.2397 H   0  0  0  1  0  0  0  0  0  0  0  0
   12.4080   -7.2785   -5.6883 H   0  0  0  1  0  0  0  0  0  0  0  0
   16.2544   -7.4108   -5.9502 O   0  0  0  1  0  0  0  0  0  0  0  0
   16.2454   -9.4052   -4.3212 O   0  0  0  1  0  0  0  0  0  0  0  0
   18.4040   -9.0245   -5.7401 O   0  5  0  1  0  0  0  0  0  0  0  0
   16.7926   -8.9218   -5.6086 P   0  0  0  1  0  0  0  0  0  0  0  0
   16.1078   -9.7725   -6.8051 O   0  5  0  1  0  0  0  0  0  0  0  0
   16.6386   -4.0379   -5.8832 N   0  0  0  1  0  0  0  0  0  0  0  0
   17.6575   -3.8470   -4.9860 C   0  0  0  1  0  0  0  0  0  0  0  0
   17.1623   -3.7422   -7.1043 C   0  0  0  1  0  0  0  0  0  0  0  0
   16.6035   -3.7941   -7.9799 H   0  0  0  1  0  0  0  0  0  0  0  0
   18.7602   -3.4443   -5.7512 C   0  0  0  1  0  0  0  0  0  0  0  0
   17.6251   -4.0193   -3.6638 N   0  0  0  1  0  0  0  0  0  0  0  0
   18.4187   -3.3885   -7.0935 N   0  0  0  1  0  0  0  0  0  0  0  0
   19.9305   -3.2055   -5.0369 C   0  0  0  1  0  0  0  0  0  0  0  0
   18.8019   -3.7496   -3.1122 C   0  0  0  1  0  0  0  0  0  0  0  0
   18.8499   -3.8584   -2.0790 H   0  0  0  1  0  0  0  0  0  0  0  0
   19.9384   -3.3552   -3.7079 N   0  0  0  1  0  0  0  0  0  0  0  0
   21.0756   -2.8182   -5.6815 N   0  0  0  1  0  0  0  0  0  0  0  0
   21.8973   -2.6635   -5.1703 H   0  0  0  1  0  0  0  0  0  0  0  0
   21.0731   -2.6959   -6.6539 H   0  0  0  1  0  0  0  0  0  0  0  0
   12.8288    3.4887  -10.3316 S   0  0  0  1  0  0  0  0  0  0  0  0
   13.0853    1.0082   -9.4748 O   0  0  0  1  0  0  0  0  0  0  0  0
   12.3552    1.9703   -9.5344 C   0  0  0  1  0  0  0  0  0  0  0  0
   11.0120    1.9928   -8.9623 C   0  0  0  1  0  0  0  0  0  0  0  0
   10.4946    2.8835   -9.1057 H   0  0  0  1  0  0  0  0  0  0  0  0
   10.3387    1.0621   -8.2870 C   0  0  0  1  0  0  0  0  0  0  0  0
   10.7978    0.1463   -8.1078 H   0  0  0  1  0  0  0  0  0  0  0  0
    8.9634    1.2782   -7.7809 C   0  0  0  1  0  0  0  0  0  0  0  0
    8.2458    2.3865   -8.2030 C   0  0  0  1  0  0  0  0  0  0  0  0
    8.6722    3.0574   -8.8736 H   0  0  0  1  0  0  0  0  0  0  0  0
    8.3948    0.3838   -6.8939 C   0  0  0  1  0  0  0  0  0  0  0  0
    8.9316   -0.4499   -6.5803 H   0  0  0  1  0  0  0  0  0  0  0  0
    6.9638    2.6001   -7.7326 C   0  0  0  1  0  0  0  0  0  0  0  0
    6.4270    3.4339   -8.0462 H   0  0  0  1  0  0  0  0  0  0  0  0
    7.1090    0.5978   -6.4220 C   0  0  0  1  0  0  0  0  0  0  0  0
    6.3937    1.7030   -6.8429 C   0  0  0  1  0  0  0  0  0  0  0  0
    5.1333    1.9313   -6.4001 O   0  0  0  1  0  0  0  0  0  0  0  0
    4.5863    2.2300   -7.1303 H   0  0  0  1  0  0  0  0  0  0  0  0
    6.4520   -0.2033   -5.5500 O   0  0  0  1  0  0  0  0  0  0  0  0
    7.1667   -1.3372   -5.0343 C   0  0  0  1  0  0  0  0  0  0  0  0
    6.4800   -2.0062   -4.5591 H   0  0  0  1  0  0  0  0  0  0  0  0
    7.8931   -1.0067   -4.3216 H   0  0  0  1  0  0  0  0  0  0  0  0
    7.6593   -1.8436   -5.8378 H   0  0  0  1  0  0  0  0  0  0  0  0
  1  2  1  0  0  0  0
  1  3  1  0  0  0  0
  1  4  1  0  0  0  0
  1 65  1  0  0  0  0
  3  6  1  0  0  0  0
  4  5  1  0  0  0  0
  4  8  1  0  0  0  0
  4 10  1  0  0  0  0
  6  7  1  0  0  0  0
  6  8  1  0  0  0  0
  6 57  1  0  0  0  0
  8  9  1  0  0  0  0
  8 60  1  0  0  0  0
 10 11  1  0  0  0  0
 12 13  1  0  0  0  0
 12 14  1  0  0  0  0
 12 15  1  0  0  0  0
 12 18  1  0  0  0  0
 15 16  1  0  0  0  0
 15 17  1  0  0  0  0
 15 79  1  0  0  0  0
 18 19  1  0  0  0  0
 18 20  1  0  0  0  0
 20 21  2  0  0  0  0
 20 25  1  0  0  0  0
 22 23  1  0  0  0  0
 22 24  1  0  0  0  0
 22 25  1  0  0  0  0
 22 28  1  0  0  0  0
 25 26  1  0  0  0  0
 25 27  1  0  0  0  0
 28 29  1  0  0  0  0
 28 31  1  0  0  0  0
 30 31  2  0  0  0  0
 31 44  1  0  0  0  0
 32 33  1  0  0  0  0
 32 34  1  0  0  0  0
 32 39  1  0  0  0  0
 32 48  1  0  0  0  0
 35 36  1  0  0  0  0
 35 37  1  0  0  0  0
 35 38  1  0  0  0  0
 35 39  1  0  0  0  0
 39 40  1  0  0  0  0
 39 44  1  0  0  0  0
 40 41  1  0  0  0  0
 40 42  1  0  0  0  0
 40 43  1  0  0  0  0
 44 45  1  0  0  0  0
 44 46  1  0  0  0  0
 46 47  1  0  0  0  0
 48 55  1  0  0  0  0
 49 55  1  0  0  0  0
 49 56  1  0  0  0  0
 50 56  1  0  0  0  0
 50 57  1  0  0  0  0
 51 55  1  0  0  0  0
 52 55  2  0  0  0  0
 53 56  1  0  0  0  0
 54 56  2  0  0  0  0
 57 58  1  0  0  0  0
 57 59  1  0  0  0  0
 60 63  1  0  0  0  0
 61 63  2  0  0  0  0
 62 63  1  0  0  0  0
 63 64  1  0  0  0  0
 65 66  1  0  0  0  0
 65 67  1  0  0  0  0
 66 69  2  0  0  0  0
 66 70  1  0  0  0  0
 67 68  1  0  0  0  0
 67 71  2  0  0  0  0
 69 71  1  0  0  0  0
 69 72  1  0  0  0  0
 70 73  2  0  0  0  0
 72 75  2  0  0  0  0
 72 76  1  0  0  0  0
 73 74  1  0  0  0  0
 73 75  1  0  0  0  0
 76 77  1  0  0  0  0
 76 78  1  0  0  0  0
 79 81  1  0  0  0  0
 80 81  2  0  0  0  0
 81 82  1  0  0  0  0
 82 83  1  0  0  0  0
 82 84  2  0  0  0  0
 84 85  1  0  0  0  0
 84 86  1  0  0  0  0
 86 87  1  0  0  0  0
 86 89  2  0  0  0  0
 87 88  1  0  0  0  0
 87 91  2  0  0  0  0
 89 90  1  0  0  0  0
 89 93  1  0  0  0  0
 91 92  1  0  0  0  0
 91 94  1  0  0  0  0
 93 94  2  0  0  0  0
 93 97  1  0  0  0  0
 94 95  1  0  0  0  0
 95 96  1  0  0  0  0
 97 98  1  0  0  0  0
 98 99  1  0  0  0  0
 98100  1  0  0  0  0
 98101  1  0  0  0  0
M  BCL ATM C_TeTeTeTe H_S O_Te2Te2TeTe C_TeTeTeTe H_S C_TeTeTeTe H_S C_TeTeTeTe H_S O_Te2Te2TeTe H_S C_TeTeTeTe H_S H_S C_TeTeTeTe H_S H_S N_TrTrTrPi2 H_S C_TrTrTrPi O_Tr2Tr2TrPi C_TeTeTeTe H_S H_S C_TeTeTeTe H_S H_S N_TrTrTrPi2 H_S O_Tr2Tr2TrPi C_TrTrTrPi C_TeTeTeTe H_S H_S C_TeTeTeTe H_S H_S H_S C_TeTeTeTe C_TeTeTeTe H_S H_S H_S C_TeTeTeTe H_S O_Te2Te2TeTe H_S O_Tr2TrTrPi2 O_Tr2TrTrPi2 O_Tr2TrTrPi2 O_Te2Te2TeTe O_Tr2Tr2TrPi O_Te2Te2TeTe O_Tr2Tr2TrPi P_TeTeTeTePi P_TeTeTeTePi C_TeTeTeTe H_S H_S O_Tr2TrTrPi2 O_Tr2Tr2TrPi O_Te2Te2Te2Te P_TeTeTeTePi O_Te2Te2Te2Te N_TrTrTrPi2 C_TrTrTrPi C_TrTrTrPi H_S C_TrTrTrPi N_Tr2TrTrPi N_Tr2TrTrPi C_TrTrTrPi C_TrTrTrPi H_S N_Tr2TrTrPi N_TrTrTrPi2 H_S H_S S_Te2Te2TeTe O_Tr2Tr2TrPi C_TrTrTrPi C_TrTrTrPi H_S C_TrTrTrPi H_S C_TrTrTrPi C_TrTrTrPi H_S C_TrTrTrPi H_S C_TrTrTrPi H_S C_TrTrTrPi C_TrTrTrPi O_Te2Te2TeTe H_S O_Tr2TrTrPi2 C_TeTeTeTe H_S H_S H_S
M  BCL BND NonConjugatedSingleBond NonConjugatedSingleBondInRing NonConjugatedSingleBondInRing NonConjugatedSingleBond NonConjugatedSingleBondInRing NonConjugatedSingleBond NonConjugatedSingleBondInRing NonConjugatedSingleBond NonConjugatedSingleBond NonConjugatedSingleBondInRing NonConjugatedSingleBond NonConjugatedSingleBond NonConjugatedSingleBond NonConjugatedSingleBond NonConjugatedSingleBond NonConjugatedSingleBond NonConjugatedSingleBond NonConjugatedSingleBond NonConjugatedSingleBond NonConjugatedSingleBond NonConjugatedSingleBond NonConjugatedSingleBond AmideSingleBond ConjugatedDoubleBond NonConjugatedSingleBond NonConjugatedSingleBond NonConjugatedSingleBond NonConjugatedSingleBond NonConjugatedSingleBond NonConjugatedSingleBond NonConjugatedSingleBond NonConjugatedSingleBond AmideSingleBond ConjugatedDoubleBond NonConjugatedSingleBond NonConjugatedSingleBond NonConjugatedSingleBond NonConjugatedSingleBond NonConjugatedSingleBond NonConjugatedSingleBond NonConjugatedSingleBond NonConjugatedSingleBond NonConjugatedSingleBond NonConjugatedSingleBond NonConjugatedSingleBond NonConjugatedSingleBond NonConjugatedSingleBond NonConjugatedSingleBond NonConjugatedSingleBond NonConjugatedSingleBond NonConjugatedSingleBond ConjugatedSingleBond ConjugatedSingleBond ConjugatedSingleBond ConjugatedSingleBond NonConjugatedSingleBond ConjugatedSingleBond ConjugatedDoubleBond ConjugatedSingleBond ConjugatedDoubleBond NonConjugatedSingleBond NonConjugatedSingleBond ConjugatedSingleBond ConjugatedDoubleBond ConjugatedSingleBond ConjugatedSingleBond AromaticSingleBond AromaticSingleBond AromaticDoubleBond AromaticSingleBond NonConjugatedSingleBond AromaticDoubleBond AromaticSingleBond AromaticSingleBond AromaticDoubleBond AromaticDoubleBond ConjugatedSingleBond NonConjugatedSingleBond AromaticSingleBond NonConjugatedSingleBond NonConjugatedSingleBond ConjugatedSingleBond ConjugatedDoubleBond ConjugatedSingleBond NonConjugatedSingleBond ConjugatedDoubleBond NonConjugatedSingleBond ConjugatedSingleBond AromaticSingleBond AromaticDoubleBond NonConjugatedSingleBond AromaticDoubleBond NonConjugatedSingleBond AromaticSingleBond NonConjugatedSingleBond AromaticSingleBond AromaticDoubleBond ConjugatedSingleBond ConjugatedSingleBond NonConjugatedSingleBond NonConjugatedSingleBond NonConjugatedSingleBond NonConjugatedSingleBond NonConjugatedSingleBond
M  BCL CHI   1   R   4   R   6   R   8   S  44   S  55   S  56   R
M  BCL DBI - - - - - - - - - - E - - -
M  END
> <ConfClashScore>
0 

> <ConfOneFourInteractionScore>
-0.969287 

> <ConfScore>
-0.0089259 

> <ConfScorePBest>
0.0102575 

> <ConfTolerance>
2.88791 

$$$$
L02.****
  PyMOL2.5          3D                             0

101104  0  0  0  0  0  0  0  0999 V2000
   15.2710   -4.3932   -5.5839 C   0  0  0  1  0  0  0  0  0  0  0  0
   14.8280   -4.8575   -6.4401 H   0  0  0  1  0  0  0  0  0  0  0  0
   15.1940   -5.2360   -4.4665 O   0  0  0  1  0  0  0  0  0  0  0  0
   14.4785   -3.1443   -5.1715 C   0  0  0  1  0  0  0  0  0  0  0  0
   15.0935   -2.4602   -4.6250 H   0  0  0  1  0  0  0  0  0  0  0  0
   14.0850   -4.8926   -3.6054 C   0  0  0  1  0  0  0  0  0  0  0  0
   14.4368   -4.6045   -2.6368 H   0  0  0  1  0  0  0  0  0  0  0  0
   13.3924   -3.7151   -4.2979 C   0  0  0  1  0  0  0  0  0  0  0  0
   12.5632   -4.0495   -4.8857 H   0  0  0  1  0  0  0  0  0  0  0  0
   13.9280   -2.4838   -6.3121 O   0  0  0  1  0  0  0  0  0  0  0  0
   14.3254   -1.6146   -6.4019 H   0  0  0  1  0  0  0  0  0  0  0  0
   19.1872  -11.3958   -4.7971 C   0  0  0  1  0  0  0  0  0  0  0  0
   20.2274  -11.6369   -4.8658 H   0  0  0  1  0  0  0  0  0  0  0  0
   18.6077  -12.2930   -4.8604 H   0  0  0  1  0  0  0  0  0  0  0  0
   18.8112  -10.4772   -5.9389 C   0  0  0  1  0  0  0  0  0  0  0  0
   17.8225  -10.1066   -5.7656 H   0  0  0  1  0  0  0  0  0  0  0  0
   18.8271  -11.0409   -6.8481 H   0  0  0  1  0  0  0  0  0  0  0  0
   18.9265  -10.7418   -3.5135 N   0  0  0  1  0  0  0  0  0  0  0  0
   19.1971   -9.8101   -3.3755 H   0  0  0  1  0  0  0  0  0  0  0  0
   18.3014  -11.4339   -2.4985 C   0  0  0  1  0  0  0  0  0  0  0  0
   18.0789  -12.6239   -2.6186 O   0  0  0  1  0  0  0  0  0  0  0  0
   16.4443  -10.3397   -1.1881 C   0  0  0  1  0  0  0  0  0  0  0  0
   15.9118  -11.2666   -1.2344 H   0  0  0  1  0  0  0  0  0  0  0  0
   16.1612   -9.7234   -2.0156 H   0  0  0  1  0  0  0  0  0  0  0  0
   17.9336  -10.6284   -1.2829 C   0  0  0  1  0  0  0  0  0  0  0  0
   18.4593   -9.6971   -1.3195 H   0  0  0  1  0  0  0  0  0  0  0  0
   18.2312  -11.1725   -0.4109 H   0  0  0  1  0  0  0  0  0  0  0  0
   16.0833   -9.6529    0.0534 N   0  0  0  1  0  0  0  0  0  0  0  0
   15.7795   -8.7216    0.0265 H   0  0  0  1  0  0  0  0  0  0  0  0
   16.6767  -11.4056    1.3403 O   0  0  0  1  0  0  0  0  0  0  0  0
   16.1671  -10.2922    1.2212 C   0  0  0  1  0  0  0  0  0  0  0  0
   13.3758   -9.5054    1.2562 C   0  0  0  1  0  0  0  0  0  0  0  0
   12.3191   -9.6144    1.3837 H   0  0  0  1  0  0  0  0  0  0  0  0
   13.7030  -10.1209    0.4444 H   0  0  0  1  0  0  0  0  0  0  0  0
   13.9228  -11.4081    2.8277 C   0  0  0  1  0  0  0  0  0  0  0  0
   13.1360  -11.7944    2.2140 H   0  0  0  1  0  0  0  0  0  0  0  0
   13.6731  -11.5497    3.8585 H   0  0  0  1  0  0  0  0  0  0  0  0
   14.8335  -11.9246    2.6066 H   0  0  0  1  0  0  0  0  0  0  0  0
   14.1033   -9.9115    2.5468 C   0  0  0  1  0  0  0  0  0  0  0  0
   13.4977   -9.0976    3.6954 C   0  0  0  1  0  0  0  0  0  0  0  0
   12.6216   -8.5895    3.3500 H   0  0  0  1  0  0  0  0  0  0  0  0
   14.2131   -8.3804    4.0399 H   0  0  0  1  0  0  0  0  0  0  0  0
   13.2355   -9.7545    4.4983 H   0  0  0  1  0  0  0  0  0  0  0  0
   15.5898   -9.5594    2.4159 C   0  0  0  1  0  0  0  0  0  0  0  0
   15.6844   -8.5050    2.2603 H   0  0  0  1  0  0  0  0  0  0  0  0
   16.2200   -9.9411    3.6329 O   0  0  0  1  0  0  0  0  0  0  0  0
   15.5603  -10.2780    4.2435 H   0  0  0  1  0  0  0  0  0  0  0  0
   13.6971   -8.1311    0.9884 O   0  0  0  1  0  0  0  0  0  0  0  0
   12.2678   -7.5823   -1.0024 O   0  0  0  1  0  0  0  0  0  0  0  0
   13.8828   -7.1444   -2.8705 O   0  0  0  1  0  0  0  0  0  0  0  0
   11.4360   -7.0229    1.2562 O   0  0  0  0  0  0  0  0  0  0  0  0
   13.4426   -5.7719    0.2997 O   0  0  0  1  0  0  0  0  0  0  0  0
   14.1617   -9.1948   -1.5283 O   0  0  0  0  0  0  0  0  0  0  0  0
   12.0818   -8.9189   -3.0399 O   0  0  0  1  0  0  0  0  0  0  0  0
   12.6642   -7.0229    0.4262 P   0  0  0  1  0  0  0  0  0  0  0  0
   13.1150   -8.3488   -2.1505 P   0  0  0  1  0  0  0  0  0  0  0  0
   13.1477   -6.0474   -3.4720 C   0  0  0  1  0  0  0  0  0  0  0  0
   12.7863   -6.3366   -4.4367 H   0  0  0  1  0  0  0  0  0  0  0  0
   12.3220   -5.7763   -2.8478 H   0  0  0  1  0  0  0  0  0  0  0  0
   12.9381   -2.7412   -3.3333 O   0  0  0  1  0  0  0  0  0  0  0  0
   12.0265   -4.3424   -1.4781 O   0  0  0  1  0  0  0  0  0  0  0  0
   10.5376   -3.4921   -3.2503 O   0  5  0  1  0  0  0  0  0  0  0  0
   11.7587   -3.1120   -2.2558 P   0  0  0  1  0  0  0  0  0  0  0  0
   11.3209   -1.8424   -1.3498 O   0  5  0  1  0  0  0  0  0  0  0  0
   16.6647   -4.0494   -5.8800 N   0  0  0  1  0  0  0  0  0  0  0  0
   17.6742   -3.8582   -4.9722 C   0  0  0  1  0  0  0  0  0  0  0  0
   17.1984   -3.7450   -7.0946 C   0  0  0  1  0  0  0  0  0  0  0  0
   16.6480   -3.7952   -7.9756 H   0  0  0  1  0  0  0  0  0  0  0  0
   18.7821   -3.4463   -5.7251 C   0  0  0  1  0  0  0  0  0  0  0  0
   17.6304   -4.0373   -3.6513 N   0  0  0  1  0  0  0  0  0  0  0  0
   18.4529   -3.3853   -7.0703 N   0  0  0  1  0  0  0  0  0  0  0  0
   19.9445   -3.2055   -4.9987 C   0  0  0  1  0  0  0  0  0  0  0  0
   18.8007   -3.7647   -3.0874 C   0  0  0  1  0  0  0  0  0  0  0  0
   18.8396   -3.8786   -2.0544 H   0  0  0  1  0  0  0  0  0  0  0  0
   19.9407   -3.3619   -3.6705 N   0  0  0  1  0  0  0  0  0  0  0  0
   21.0289   -2.8175   -5.7173 N   0  0  0  1  0  0  0  0  0  0  0  0
   20.9569   -2.6990   -6.6875 H   0  0  0  1  0  0  0  0  0  0  0  0
   21.8836   -2.6558   -5.2660 H   0  0  0  1  0  0  0  0  0  0  0  0
   19.9302   -9.0675   -6.1171 S   0  0  0  1  0  0  0  0  0  0  0  0
   21.4929  -10.8026   -7.3232 O   0  0  0  1  0  0  0  0  0  0  0  0
   21.4745   -9.8622   -6.5653 C   0  0  0  1  0  0  0  0  0  0  0  0
   22.7020   -9.3331   -5.9833 C   0  0  0  1  0  0  0  0  0  0  0  0
   22.6241   -8.4632   -5.4187 H   0  0  0  1  0  0  0  0  0  0  0  0
   23.9152   -9.8686   -6.1127 C   0  0  0  1  0  0  0  0  0  0  0  0
   23.9733  -10.7379   -6.6807 H   0  0  0  1  0  0  0  0  0  0  0  0
   25.1901   -9.3752   -5.5454 C   0  0  0  1  0  0  0  0  0  0  0  0
   26.3965  -10.0067   -5.8045 C   0  0  0  1  0  0  0  0  0  0  0  0
   26.4223  -10.8482   -6.4151 H   0  0  0  1  0  0  0  0  0  0  0  0
   25.1566   -8.2538   -4.7383 C   0  0  0  1  0  0  0  0  0  0  0  0
   24.2520   -7.7776   -4.5472 H   0  0  0  1  0  0  0  0  0  0  0  0
   27.5652   -9.5182   -5.2515 C   0  0  0  1  0  0  0  0  0  0  0  0
   28.4698   -9.9944   -5.4426 H   0  0  0  1  0  0  0  0  0  0  0  0
   26.3285   -7.7636   -4.1836 C   0  0  0  1  0  0  0  0  0  0  0  0
   27.5314   -8.3934   -4.4420 C   0  0  0  1  0  0  0  0  0  0  0  0
   28.6913   -7.9304   -3.9156 O   0  0  0  1  0  0  0  0  0  0  0  0
   28.8572   -8.3635   -3.0751 H   0  0  0  1  0  0  0  0  0  0  0  0
   26.2663   -6.6075   -3.4812 O   0  0  0  1  0  0  0  0  0  0  0  0
   24.9632   -6.1439   -3.0945 C   0  0  0  1  0  0  0  0  0  0  0  0
   25.0587   -5.4258   -2.3071 H   0  0  0  1  0  0  0  0  0  0  0  0
   24.3773   -6.9716   -2.7530 H   0  0  0  1  0  0  0  0  0  0  0  0
   24.4827   -5.6890   -3.9354 H   0  0  0  1  0  0  0  0  0  0  0  0
  1  2  1  0  0  0  0
  1  3  1  0  0  0  0
  1  4  1  0  0  0  0
  1 65  1  0  0  0  0
  3  6  1  0  0  0  0
  4  5  1  0  0  0  0
  4  8  1  0  0  0  0
  4 10  1  0  0  0  0
  6  7  1  0  0  0  0
  6  8  1  0  0  0  0
  6 57  1  0  0  0  0
  8  9  1  0  0  0  0
  8 60  1  0  0  0  0
 10 11  1  0  0  0  0
 12 13  1  0  0  0  0
 12 14  1  0  0  0  0
 12 15  1  0  0  0  0
 12 18  1  0  0  0  0
 15 16  1  0  0  0  0
 15 17  1  0  0  0  0
 15 79  1  0  0  0  0
 18 19  1  0  0  0  0
 18 20  1  0  0  0  0
 20 21  2  0  0  0  0
 20 25  1  0  0  0  0
 22 23  1  0  0  0  0
 22 24  1  0  0  0  0
 22 25  1  0  0  0  0
 22 28  1  0  0  0  0
 25 26  1  0  0  0  0
 25 27  1  0  0  0  0
 28 29  1  0  0  0  0
 28 31  1  0  0  0  0
 30 31  2  0  0  0  0
 31 44  1  0  0  0  0
 32 33  1  0  0  0  0
 32 34  1  0  0  0  0
 32 39  1  0  0  0  0
 32 48  1  0  0  0  0
 35 36  1  0  0  0  0
 35 37  1  0  0  0  0
 35 38  1  0  0  0  0
 35 39  1  0  0  0  0
 39 40  1  0  0  0  0
 39 44  1  0  0  0  0
 40 41  1  0  0  0  0
 40 42  1  0  0  0  0
 40 43  1  0  0  0  0
 44 45  1  0  0  0  0
 44 46  1  0  0  0  0
 46 47  1  0  0  0  0
 48 55  1  0  0  0  0
 49 55  1  0  0  0  0
 49 56  1  0  0  0  0
 50 56  1  0  0  0  0
 50 57  1  0  0  0  0
 51 55  1  0  0  0  0
 52 55  2  0  0  0  0
 53 56  1  0  0  0  0
 54 56  2  0  0  0  0
 57 58  1  0  0  0  0
 57 59  1  0  0  0  0
 60 63  1  0  0  0  0
 61 63  2  0  0  0  0
 62 63  1  0  0  0  0
 63 64  1  0  0  0  0
 65 66  1  0  0  0  0
 65 67  1  0  0  0  0
 66 69  2  0  0  0  0
 66 70  1  0  0  0  0
 67 68  1  0  0  0  0
 67 71  2  0  0  0  0
 69 71  1  0  0  0  0
 69 72  1  0  0  0  0
 70 73  2  0  0  0  0
 72 75  2  0  0  0  0
 72 76  1  0  0  0  0
 73 74  1  0  0  0  0
 73 75  1  0  0  0  0
 76 77  1  0  0  0  0
 76 78  1  0  0  0  0
 79 81  1  0  0  0  0
 80 81  2  0  0  0  0
 81 82  1  0  0  0  0
 82 83  1  0  0  0  0
 82 84  2  0  0  0  0
 84 85  1  0  0  0  0
 84 86  1  0  0  0  0
 86 87  1  0  0  0  0
 86 89  2  0  0  0  0
 87 88  1  0  0  0  0
 87 91  2  0  0  0  0
 89 90  1  0  0  0  0
 89 93  1  0  0  0  0
 91 92  1  0  0  0  0
 91 94  1  0  0  0  0
 93 94  2  0  0  0  0
 93 97  1  0  0  0  0
 94 95  1  0  0  0  0
 95 96  1  0  0  0  0
 97 98  1  0  0  0  0
 98 99  1  0  0  0  0
 98100  1  0  0  0  0
 98101  1  0  0  0  0
M  BCL ATM C_TeTeTeTe H_S O_Te2Te2TeTe C_TeTeTeTe H_S C_TeTeTeTe H_S C_TeTeTeTe H_S O_Te2Te2TeTe H_S C_TeTeTeTe H_S H_S C_TeTeTeTe H_S H_S N_TrTrTrPi2 H_S C_TrTrTrPi O_Tr2Tr2TrPi C_TeTeTeTe H_S H_S C_TeTeTeTe H_S H_S N_TrTrTrPi2 H_S O_Tr2Tr2TrPi C_TrTrTrPi C_TeTeTeTe H_S H_S C_TeTeTeTe H_S H_S H_S C_TeTeTeTe C_TeTeTeTe H_S H_S H_S C_TeTeTeTe H_S O_Te2Te2TeTe H_S O_Tr2TrTrPi2 O_Tr2TrTrPi2 O_Tr2TrTrPi2 O_Te2Te2TeTe O_Tr2Tr2TrPi O_Te2Te2TeTe O_Tr2Tr2TrPi P_TeTeTeTePi P_TeTeTeTePi C_TeTeTeTe H_S H_S O_Tr2TrTrPi2 O_Tr2Tr2TrPi O_Te2Te2Te2Te P_TeTeTeTePi O_Te2Te2Te2Te N_TrTrTrPi2 C_TrTrTrPi C_TrTrTrPi H_S C_TrTrTrPi N_Tr2TrTrPi N_Tr2TrTrPi C_TrTrTrPi C_TrTrTrPi H_S N_Tr2TrTrPi N_TrTrTrPi2 H_S H_S S_Te2Te2TeTe O_Tr2Tr2TrPi C_TrTrTrPi C_TrTrTrPi H_S C_TrTrTrPi H_S C_TrTrTrPi C_TrTrTrPi H_S C_TrTrTrPi H_S C_TrTrTrPi H_S C_TrTrTrPi C_TrTrTrPi O_Te2Te2TeTe H_S O_Tr2TrTrPi2 C_TeTeTeTe H_S H_S H_S
M  BCL BND NonConjugatedSingleBond NonConjugatedSingleBondInRing NonConjugatedSingleBondInRing NonConjugatedSingleBond NonConjugatedSingleBondInRing NonConjugatedSingleBond NonConjugatedSingleBondInRing NonConjugatedSingleBond NonConjugatedSingleBond NonConjugatedSingleBondInRing NonConjugatedSingleBond NonConjugatedSingleBond NonConjugatedSingleBond NonConjugatedSingleBond NonConjugatedSingleBond NonConjugatedSingleBond NonConjugatedSingleBond NonConjugatedSingleBond NonConjugatedSingleBond NonConjugatedSingleBond NonConjugatedSingleBond NonConjugatedSingleBond AmideSingleBond ConjugatedDoubleBond NonConjugatedSingleBond NonConjugatedSingleBond NonConjugatedSingleBond NonConjugatedSingleBond NonConjugatedSingleBond NonConjugatedSingleBond NonConjugatedSingleBond NonConjugatedSingleBond AmideSingleBond ConjugatedDoubleBond NonConjugatedSingleBond NonConjugatedSingleBond NonConjugatedSingleBond NonConjugatedSingleBond NonConjugatedSingleBond NonConjugatedSingleBond NonConjugatedSingleBond NonConjugatedSingleBond NonConjugatedSingleBond NonConjugatedSingleBond NonConjugatedSingleBond NonConjugatedSingleBond NonConjugatedSingleBond NonConjugatedSingleBond NonConjugatedSingleBond NonConjugatedSingleBond NonConjugatedSingleBond ConjugatedSingleBond ConjugatedSingleBond ConjugatedSingleBond ConjugatedSingleBond NonConjugatedSingleBond ConjugatedSingleBond ConjugatedDoubleBond ConjugatedSingleBond ConjugatedDoubleBond NonConjugatedSingleBond NonConjugatedSingleBond ConjugatedSingleBond ConjugatedDoubleBond ConjugatedSingleBond ConjugatedSingleBond AromaticSingleBond AromaticSingleBond AromaticDoubleBond AromaticSingleBond NonConjugatedSingleBond AromaticDoubleBond AromaticSingleBond AromaticSingleBond AromaticDoubleBond AromaticDoubleBond ConjugatedSingleBond NonConjugatedSingleBond AromaticSingleBond NonConjugatedSingleBond NonConjugatedSingleBond ConjugatedSingleBond ConjugatedDoubleBond ConjugatedSingleBond NonConjugatedSingleBond ConjugatedDoubleBond NonConjugatedSingleBond ConjugatedSingleBond AromaticSingleBond AromaticDoubleBond NonConjugatedSingleBond AromaticDoubleBond NonConjugatedSingleBond AromaticSingleBond NonConjugatedSingleBond AromaticSingleBond AromaticDoubleBond ConjugatedSingleBond ConjugatedSingleBond NonConjugatedSingleBond NonConjugatedSingleBond NonConjugatedSingleBond NonConjugatedSingleBond NonConjugatedSingleBond
M  BCL CHI   1   R   4   R   6   R   8   S  44   S  55   S  56   R
M  BCL DBI - - - - - - - - - - E - - -
M  END
> <ConfClashScore>
0 

> <ConfOneFourInteractionScore>
-0.973473 

> <ConfScore>
-0.00603215 

> <ConfScorePBest>
0.0101545 

> <ConfTolerance>
2.79923 

$$$$
L02.****
  PyMOL2.5          3D                             0

101104  0  0  0  0  0  0  0  0999 V2000
   15.2621   -4.4742   -5.5637 C   0  0  0  1  0  0  0  0  0  0  0  0
   15.2951   -5.3176   -4.9061 H   0  0  0  1  0  0  0  0  0  0  0  0
   14.4959   -3.3835   -4.9678 O   0  0  0  1  0  0  0  0  0  0  0  0
   14.5084   -4.8118   -6.8297 C   0  0  0  1  0  0  0  0  0  0  0  0
   15.1675   -5.2108   -7.5721 H   0  0  0  1  0  0  0  0  0  0  0  0
   13.7475   -2.7158   -5.9443 C   0  0  0  1  0  0  0  0  0  0  0  0
   14.0931   -1.7077   -6.0405 H   0  0  0  1  0  0  0  0  0  0  0  0
   13.9340   -3.4605   -7.2757 C   0  0  0  1  0  0  0  0  0  0  0  0
   12.9994   -3.5868   -7.7811 H   0  0  0  1  0  0  0  0  0  0  0  0
   13.4631   -5.7490   -6.5668 O   0  0  0  1  0  0  0  0  0  0  0  0
   12.6119   -5.3225   -6.6900 H   0  0  0  1  0  0  0  0  0  0  0  0
    6.3897   -0.3908   -3.0293 C   0  0  0  1  0  0  0  0  0  0  0  0
    6.3220   -0.7869   -4.0210 H   0  0  0  1  0  0  0  0  0  0  0  0
    6.1826   -1.1652   -2.3206 H   0  0  0  1  0  0  0  0  0  0  0  0
    5.3551    0.6991   -2.8717 C   0  0  0  1  0  0  0  0  0  0  0  0
    5.4742    1.4362   -3.6381 H   0  0  0  1  0  0  0  0  0  0  0  0
    5.4496    1.1632   -1.9121 H   0  0  0  1  0  0  0  0  0  0  0  0
    7.7455    0.0907   -2.8110 N   0  0  0  1  0  0  0  0  0  0  0  0
    8.3120    0.2776   -3.5885 H   0  0  0  1  0  0  0  0  0  0  0  0
    8.2448    0.2869   -1.5873 C   0  0  0  1  0  0  0  0  0  0  0  0
    7.5950    0.0962   -0.5602 O   0  0  0  1  0  0  0  0  0  0  0  0
   10.5305    0.1111   -0.4710 C   0  0  0  1  0  0  0  0  0  0  0  0
   10.2276    0.4621    0.4934 H   0  0  0  1  0  0  0  0  0  0  0  0
   11.5551    0.3693   -0.6394 H   0  0  0  1  0  0  0  0  0  0  0  0
    9.6707    0.7621   -1.5320 C   0  0  0  1  0  0  0  0  0  0  0  0
    9.6604    1.8161   -1.3476 H   0  0  0  1  0  0  0  0  0  0  0  0
   10.1197    0.5705   -2.4841 H   0  0  0  1  0  0  0  0  0  0  0  0
   10.3843   -1.3447   -0.5229 N   0  0  0  1  0  0  0  0  0  0  0  0
   10.8725   -1.8448   -1.2099 H   0  0  0  1  0  0  0  0  0  0  0  0
    8.8668   -1.4972    1.1770 O   0  0  0  1  0  0  0  0  0  0  0  0
    9.6019   -2.0207    0.3408 C   0  0  0  1  0  0  0  0  0  0  0  0
    8.6645   -5.5655   -0.7570 C   0  0  0  1  0  0  0  0  0  0  0  0
    7.7586   -5.9984   -1.1269 H   0  0  0  1  0  0  0  0  0  0  0  0
    8.9583   -6.0658    0.1421 H   0  0  0  1  0  0  0  0  0  0  0  0
    7.2504   -3.9368    0.5168 C   0  0  0  1  0  0  0  0  0  0  0  0
    7.3083   -2.9886    1.0092 H   0  0  0  1  0  0  0  0  0  0  0  0
    7.2907   -4.7196    1.2452 H   0  0  0  1  0  0  0  0  0  0  0  0
    6.3306   -4.0010   -0.0260 H   0  0  0  1  0  0  0  0  0  0  0  0
    8.4279   -4.0819   -0.4546 C   0  0  0  1  0  0  0  0  0  0  0  0
    8.1768   -3.3329   -1.7685 C   0  0  0  1  0  0  0  0  0  0  0  0
    8.9999   -3.4922   -2.4333 H   0  0  0  1  0  0  0  0  0  0  0  0
    8.0774   -2.2864   -1.5688 H   0  0  0  1  0  0  0  0  0  0  0  0
    7.2780   -3.6973   -2.2203 H   0  0  0  1  0  0  0  0  0  0  0  0
    9.6988   -3.5273    0.1999 C   0  0  0  1  0  0  0  0  0  0  0  0
    9.7710   -3.9472    1.1814 H   0  0  0  1  0  0  0  0  0  0  0  0
   10.8583   -3.8669   -0.5414 O   0  0  0  1  0  0  0  0  0  0  0  0
   11.2526   -4.6612   -0.1737 H   0  0  0  1  0  0  0  0  0  0  0  0
    9.7060   -5.7188   -1.7497 O   0  0  0  1  0  0  0  0  0  0  0  0
   10.5047   -5.7445   -4.1860 O   0  0  0  1  0  0  0  0  0  0  0  0
   11.9222   -4.0834   -5.2736 O   0  0  0  1  0  0  0  0  0  0  0  0
    9.5913   -7.8366   -3.0042 O   0  0  0  0  0  0  0  0  0  0  0  0
    8.1297   -5.9002   -3.7284 O   0  0  0  1  0  0  0  0  0  0  0  0
   10.1130   -5.0001   -6.5919 O   0  0  0  0  0  0  0  0  0  0  0  0
    9.5177   -3.4841   -4.6415 O   0  0  0  1  0  0  0  0  0  0  0  0
    9.3878   -6.3824   -3.1891 P   0  0  0  1  0  0  0  0  0  0  0  0
   10.3990   -4.5081   -5.2254 P   0  0  0  1  0  0  0  0  0  0  0  0
   12.3037   -2.7135   -5.5627 C   0  0  0  1  0  0  0  0  0  0  0  0
   11.7139   -2.3338   -6.3707 H   0  0  0  1  0  0  0  0  0  0  0  0
   12.1569   -2.1036   -4.6959 H   0  0  0  1  0  0  0  0  0  0  0  0
   14.8631   -2.7574   -8.1430 O   0  0  0  1  0  0  0  0  0  0  0  0
   13.2887   -0.8837   -8.8482 O   0  0  0  1  0  0  0  0  0  0  0  0
   15.8118   -0.9860   -9.6971 O   0  5  0  1  0  0  0  0  0  0  0  0
   14.7049   -1.1713   -8.5288 P   0  0  0  1  0  0  0  0  0  0  0  0
   15.2248   -0.3736   -7.2182 O   0  5  0  1  0  0  0  0  0  0  0  0
   16.6278   -4.0409   -5.8726 N   0  0  0  1  0  0  0  0  0  0  0  0
   17.6549   -3.8478   -4.9851 C   0  0  0  1  0  0  0  0  0  0  0  0
   17.1400   -3.7467   -7.0989 C   0  0  0  1  0  0  0  0  0  0  0  0
   16.5731   -3.8004   -7.9692 H   0  0  0  1  0  0  0  0  0  0  0  0
   18.7501   -3.4455   -5.7612 C   0  0  0  1  0  0  0  0  0  0  0  0
   17.6349   -4.0181   -3.6624 N   0  0  0  1  0  0  0  0  0  0  0  0
   18.3962   -3.3920   -7.1003 N   0  0  0  1  0  0  0  0  0  0  0  0
   19.9269   -3.2047   -5.0581 C   0  0  0  1  0  0  0  0  0  0  0  0
   18.8166   -3.7466   -3.1222 C   0  0  0  1  0  0  0  0  0  0  0  0
   18.8743   -3.8538   -2.0893 H   0  0  0  1  0  0  0  0  0  0  0  0
   19.9472   -3.3523   -3.7290 N   0  0  0  1  0  0  0  0  0  0  0  0
   21.0929   -2.8160   -5.6633 N   0  0  0  1  0  0  0  0  0  0  0  0
   21.8934   -2.6495   -5.1231 H   0  0  0  1  0  0  0  0  0  0  0  0
   21.1263   -2.7044   -6.6363 H   0  0  0  1  0  0  0  0  0  0  0  0
    3.7411   -0.1053   -3.0219 S   0  0  0  1  0  0  0  0  0  0  0  0
    3.1248    2.2529   -2.0189 O   0  0  0  1  0  0  0  0  0  0  0  0
    2.6927    1.1934   -2.4061 C   0  0  0  1  0  0  0  0  0  0  0  0
    1.2935    0.8682   -2.4116 C   0  0  0  1  0  0  0  0  0  0  0  0
    1.0970   -0.0734   -2.8073 H   0  0  0  1  0  0  0  0  0  0  0  0
    0.1931    1.5078   -2.0212 C   0  0  0  1  0  0  0  0  0  0  0  0
    0.3340    2.4558   -1.6174 H   0  0  0  1  0  0  0  0  0  0  0  0
   -1.2078    1.0318   -2.0929 C   0  0  0  1  0  0  0  0  0  0  0  0
   -1.4625   -0.3131   -2.3117 C   0  0  0  1  0  0  0  0  0  0  0  0
   -0.6727   -0.9809   -2.4202 H   0  0  0  1  0  0  0  0  0  0  0  0
   -2.2575    1.9183   -1.9434 C   0  0  0  1  0  0  0  0  0  0  0  0
   -2.0664    2.9267   -1.7752 H   0  0  0  1  0  0  0  0  0  0  0  0
   -2.7660   -0.7667   -2.3856 C   0  0  0  1  0  0  0  0  0  0  0  0
   -2.9571   -1.7751   -2.5537 H   0  0  0  1  0  0  0  0  0  0  0  0
   -3.5649    1.4637   -2.0175 C   0  0  0  1  0  0  0  0  0  0  0  0
   -3.8187    0.1227   -2.2356 C   0  0  0  1  0  0  0  0  0  0  0  0
   -5.0691   -0.3941   -2.3146 O   0  0  0  1  0  0  0  0  0  0  0  0
   -5.3413   -0.4353   -3.2343 H   0  0  0  1  0  0  0  0  0  0  0  0
   -4.6645    2.2319   -1.8926 O   0  0  0  1  0  0  0  0  0  0  0  0
   -4.4092    3.6176   -1.5653 C   0  0  0  1  0  0  0  0  0  0  0  0
   -3.9032    3.6750   -0.6243 H   0  0  0  1  0  0  0  0  0  0  0  0
   -5.3375    4.1462   -1.5037 H   0  0  0  1  0  0  0  0  0  0  0  0
   -3.7981    4.0567   -2.3260 H   0  0  0  1  0  0  0  0  0  0  0  0
  1  2  1  0  0  0  0
  1  3  1  0  0  0  0
  1  4  1  0  0  0  0
  1 65  1  0  0  0  0
  3  6  1  0  0  0  0
  4  5  1  0  0  0  0
  4  8  1  0  0  0  0
  4 10  1  0  0  0  0
  6  7  1  0  0  0  0
  6  8  1  0  0  0  0
  6 57  1  0  0  0  0
  8  9  1  0  0  0  0
  8 60  1  0  0  0  0
 10 11  1  0  0  0  0
 12 13  1  0  0  0  0
 12 14  1  0  0  0  0
 12 15  1  0  0  0  0
 12 18  1  0  0  0  0
 15 16  1  0  0  0  0
 15 17  1  0  0  0  0
 15 79  1  0  0  0  0
 18 19  1  0  0  0  0
 18 20  1  0  0  0  0
 20 21  2  0  0  0  0
 20 25  1  0  0  0  0
 22 23  1  0  0  0  0
 22 24  1  0  0  0  0
 22 25  1  0  0  0  0
 22 28  1  0  0  0  0
 25 26  1  0  0  0  0
 25 27  1  0  0  0  0
 28 29  1  0  0  0  0
 28 31  1  0  0  0  0
 30 31  2  0  0  0  0
 31 44  1  0  0  0  0
 32 33  1  0  0  0  0
 32 34  1  0  0  0  0
 32 39  1  0  0  0  0
 32 48  1  0  0  0  0
 35 36  1  0  0  0  0
 35 37  1  0  0  0  0
 35 38  1  0  0  0  0
 35 39  1  0  0  0  0
 39 40  1  0  0  0  0
 39 44  1  0  0  0  0
 40 41  1  0  0  0  0
 40 42  1  0  0  0  0
 40 43  1  0  0  0  0
 44 45  1  0  0  0  0
 44 46  1  0  0  0  0
 46 47  1  0  0  0  0
 48 55  1  0  0  0  0
 49 55  1  0  0  0  0
 49 56  1  0  0  0  0
 50 56  1  0  0  0  0
 50 57  1  0  0  0  0
 51 55  1  0  0  0  0
 52 55  2  0  0  0  0
 53 56  1  0  0  0  0
 54 56  2  0  0  0  0
 57 58  1  0  0  0  0
 57 59  1  0  0  0  0
 60 63  1  0  0  0  0
 61 63  2  0  0  0  0
 62 63  1  0  0  0  0
 63 64  1  0  0  0  0
 65 66  1  0  0  0  0
 65 67  1  0  0  0  0
 66 69  2  0  0  0  0
 66 70  1  0  0  0  0
 67 68  1  0  0  0  0
 67 71  2  0  0  0  0
 69 71  1  0  0  0  0
 69 72  1  0  0  0  0
 70 73  2  0  0  0  0
 72 75  2  0  0  0  0
 72 76  1  0  0  0  0
 73 74  1  0  0  0  0
 73 75  1  0  0  0  0
 76 77  1  0  0  0  0
 76 78  1  0  0  0  0
 79 81  1  0  0  0  0
 80 81  2  0  0  0  0
 81 82  1  0  0  0  0
 82 83  1  0  0  0  0
 82 84  2  0  0  0  0
 84 85  1  0  0  0  0
 84 86  1  0  0  0  0
 86 87  1  0  0  0  0
 86 89  2  0  0  0  0
 87 88  1  0  0  0  0
 87 91  2  0  0  0  0
 89 90  1  0  0  0  0
 89 93  1  0  0  0  0
 91 92  1  0  0  0  0
 91 94  1  0  0  0  0
 93 94  2  0  0  0  0
 93 97  1  0  0  0  0
 94 95  1  0  0  0  0
 95 96  1  0  0  0  0
 97 98  1  0  0  0  0
 98 99  1  0  0  0  0
 98100  1  0  0  0  0
 98101  1  0  0  0  0
M  BCL ATM C_TeTeTeTe H_S O_Te2Te2TeTe C_TeTeTeTe H_S C_TeTeTeTe H_S C_TeTeTeTe H_S O_Te2Te2TeTe H_S C_TeTeTeTe H_S H_S C_TeTeTeTe H_S H_S N_TrTrTrPi2 H_S C_TrTrTrPi O_Tr2Tr2TrPi C_TeTeTeTe H_S H_S C_TeTeTeTe H_S H_S N_TrTrTrPi2 H_S O_Tr2Tr2TrPi C_TrTrTrPi C_TeTeTeTe H_S H_S C_TeTeTeTe H_S H_S H_S C_TeTeTeTe C_TeTeTeTe H_S H_S H_S C_TeTeTeTe H_S O_Te2Te2TeTe H_S O_Tr2TrTrPi2 O_Tr2TrTrPi2 O_Tr2TrTrPi2 O_Te2Te2TeTe O_Tr2Tr2TrPi O_Te2Te2TeTe O_Tr2Tr2TrPi P_TeTeTeTePi P_TeTeTeTePi C_TeTeTeTe H_S H_S O_Tr2TrTrPi2 O_Tr2Tr2TrPi O_Te2Te2Te2Te P_TeTeTeTePi O_Te2Te2Te2Te N_TrTrTrPi2 C_TrTrTrPi C_TrTrTrPi H_S C_TrTrTrPi N_Tr2TrTrPi N_Tr2TrTrPi C_TrTrTrPi C_TrTrTrPi H_S N_Tr2TrTrPi N_TrTrTrPi2 H_S H_S S_Te2Te2TeTe O_Tr2Tr2TrPi C_TrTrTrPi C_TrTrTrPi H_S C_TrTrTrPi H_S C_TrTrTrPi C_TrTrTrPi H_S C_TrTrTrPi H_S C_TrTrTrPi H_S C_TrTrTrPi C_TrTrTrPi O_Te2Te2TeTe H_S O_Tr2TrTrPi2 C_TeTeTeTe H_S H_S H_S
M  BCL BND NonConjugatedSingleBond NonConjugatedSingleBondInRing NonConjugatedSingleBondInRing NonConjugatedSingleBond NonConjugatedSingleBondInRing NonConjugatedSingleBond NonConjugatedSingleBondInRing NonConjugatedSingleBond NonConjugatedSingleBond NonConjugatedSingleBondInRing NonConjugatedSingleBond NonConjugatedSingleBond NonConjugatedSingleBond NonConjugatedSingleBond NonConjugatedSingleBond NonConjugatedSingleBond NonConjugatedSingleBond NonConjugatedSingleBond NonConjugatedSingleBond NonConjugatedSingleBond NonConjugatedSingleBond NonConjugatedSingleBond AmideSingleBond ConjugatedDoubleBond NonConjugatedSingleBond NonConjugatedSingleBond NonConjugatedSingleBond NonConjugatedSingleBond NonConjugatedSingleBond NonConjugatedSingleBond NonConjugatedSingleBond NonConjugatedSingleBond AmideSingleBond ConjugatedDoubleBond NonConjugatedSingleBond NonConjugatedSingleBond NonConjugatedSingleBond NonConjugatedSingleBond NonConjugatedSingleBond NonConjugatedSingleBond NonConjugatedSingleBond NonConjugatedSingleBond NonConjugatedSingleBond NonConjugatedSingleBond NonConjugatedSingleBond NonConjugatedSingleBond NonConjugatedSingleBond NonConjugatedSingleBond NonConjugatedSingleBond NonConjugatedSingleBond NonConjugatedSingleBond ConjugatedSingleBond ConjugatedSingleBond ConjugatedSingleBond ConjugatedSingleBond NonConjugatedSingleBond ConjugatedSingleBond ConjugatedDoubleBond ConjugatedSingleBond ConjugatedDoubleBond NonConjugatedSingleBond NonConjugatedSingleBond ConjugatedSingleBond ConjugatedDoubleBond ConjugatedSingleBond ConjugatedSingleBond AromaticSingleBond AromaticSingleBond AromaticDoubleBond AromaticSingleBond NonConjugatedSingleBond AromaticDoubleBond AromaticSingleBond AromaticSingleBond AromaticDoubleBond AromaticDoubleBond ConjugatedSingleBond NonConjugatedSingleBond AromaticSingleBond NonConjugatedSingleBond NonConjugatedSingleBond ConjugatedSingleBond ConjugatedDoubleBond ConjugatedSingleBond NonConjugatedSingleBond ConjugatedDoubleBond NonConjugatedSingleBond ConjugatedSingleBond AromaticSingleBond AromaticDoubleBond NonConjugatedSingleBond AromaticDoubleBond NonConjugatedSingleBond AromaticSingleBond NonConjugatedSingleBond AromaticSingleBond AromaticDoubleBond ConjugatedSingleBond ConjugatedSingleBond NonConjugatedSingleBond NonConjugatedSingleBond NonConjugatedSingleBond NonConjugatedSingleBond NonConjugatedSingleBond
M  BCL CHI   1   R   4   R   6   R   8   S  44   S  55   S  56   R
M  BCL DBI - - - - - - - - - - E - - -
M  END
> <ConfClashScore>
0 

> <ConfOneFourInteractionScore>
-0.989388 

> <ConfScore>
-0.00331447 

> <ConfScorePBest>
0.0100515 

> <ConfTolerance>
3.1457 

$$$$
L02.****
  PyMOL2.5          3D                             0

101104  0  0  0  0  0  0  0  0999 V2000
   15.2592   -4.5001   -5.6188 C   0  0  0  1  0  0  0  0  0  0  0  0
   14.6460   -4.2527   -6.4601 H   0  0  0  1  0  0  0  0  0  0  0  0
   15.2150   -5.9213   -5.3592 O   0  0  0  1  0  0  0  0  0  0  0  0
   14.7148   -3.8453   -4.3458 C   0  0  0  1  0  0  0  0  0  0  0  0
   15.5117   -3.5419   -3.6994 H   0  0  0  1  0  0  0  0  0  0  0  0
   14.6868   -6.2070   -4.0925 C   0  0  0  1  0  0  0  0  0  0  0  0
   15.4707   -6.3878   -3.3870 H   0  0  0  1  0  0  0  0  0  0  0  0
   13.8982   -4.9439   -3.7175 C   0  0  0  1  0  0  0  0  0  0  0  0
   12.9094   -4.9711   -4.1255 H   0  0  0  1  0  0  0  0  0  0  0  0
   13.8988   -2.7157   -4.6593 O   0  0  0  1  0  0  0  0  0  0  0  0
   13.2230   -2.9739   -5.2904 H   0  0  0  1  0  0  0  0  0  0  0  0
   17.2863  -14.4012    4.0748 C   0  0  0  1  0  0  0  0  0  0  0  0
   17.5823  -14.3900    5.1030 H   0  0  0  1  0  0  0  0  0  0  0  0
   16.5395  -15.1530    3.9262 H   0  0  0  1  0  0  0  0  0  0  0  0
   18.4906  -14.7411    3.2279 C   0  0  0  1  0  0  0  0  0  0  0  0
   18.9270  -15.6372    3.6171 H   0  0  0  1  0  0  0  0  0  0  0  0
   19.1917  -13.9371    3.3111 H   0  0  0  1  0  0  0  0  0  0  0  0
   16.7161  -13.1049    3.7395 N   0  0  0  1  0  0  0  0  0  0  0  0
   17.1670  -12.2940    4.0551 H   0  0  0  1  0  0  0  0  0  0  0  0
   15.5884  -12.9806    3.0094 C   0  0  0  1  0  0  0  0  0  0  0  0
   14.9480  -13.9698    2.6558 O   0  0  0  1  0  0  0  0  0  0  0  0
   13.8650  -11.5867    1.8029 C   0  0  0  1  0  0  0  0  0  0  0  0
   13.5182  -10.5782    1.7150 H   0  0  0  1  0  0  0  0  0  0  0  0
   13.1239  -12.1772    2.2997 H   0  0  0  1  0  0  0  0  0  0  0  0
   15.1345  -11.5941    2.6388 C   0  0  0  1  0  0  0  0  0  0  0  0
   15.9132  -11.1189    2.0796 H   0  0  0  1  0  0  0  0  0  0  0  0
   14.9533  -11.0432    3.5381 H   0  0  0  1  0  0  0  0  0  0  0  0
   14.0742  -12.1295    0.4594 N   0  0  0  1  0  0  0  0  0  0  0  0
   14.9638  -12.0923    0.0500 H   0  0  0  1  0  0  0  0  0  0  0  0
   11.9576  -12.8643    0.2895 O   0  0  0  1  0  0  0  0  0  0  0  0
   13.0548  -12.6756   -0.2096 C   0  0  0  1  0  0  0  0  0  0  0  0
   13.7130  -12.2407   -3.9835 C   0  0  0  1  0  0  0  0  0  0  0  0
   12.9869  -12.9243   -4.3714 H   0  0  0  1  0  0  0  0  0  0  0  0
   14.6756  -12.7077   -3.9770 H   0  0  0  1  0  0  0  0  0  0  0  0
   11.9366  -11.1449   -2.5410 C   0  0  0  1  0  0  0  0  0  0  0  0
   11.2034  -11.8273   -2.9174 H   0  0  0  1  0  0  0  0  0  0  0  0
   11.9581  -10.2698   -3.1563 H   0  0  0  1  0  0  0  0  0  0  0  0
   11.6858  -10.8701   -1.5377 H   0  0  0  1  0  0  0  0  0  0  0  0
   13.3261  -11.8199   -2.5576 C   0  0  0  1  0  0  0  0  0  0  0  0
   14.3847  -10.8268   -2.0643 C   0  0  0  1  0  0  0  0  0  0  0  0
   14.6546  -10.1668   -2.8621 H   0  0  0  1  0  0  0  0  0  0  0  0
   15.2509  -11.3628   -1.7367 H   0  0  0  1  0  0  0  0  0  0  0  0
   13.9876  -10.2577   -1.2499 H   0  0  0  1  0  0  0  0  0  0  0  0
   13.3400  -13.0554   -1.6497 C   0  0  0  1  0  0  0  0  0  0  0  0
   12.5372  -13.6851   -1.9719 H   0  0  0  1  0  0  0  0  0  0  0  0
   14.5547  -13.7710   -1.8056 O   0  0  0  1  0  0  0  0  0  0  0  0
   14.3652  -14.6612   -2.1111 H   0  0  0  1  0  0  0  0  0  0  0  0
   13.7505  -11.0388   -4.8042 O   0  0  0  1  0  0  0  0  0  0  0  0
   12.8602   -9.4000   -6.2326 O   0  0  0  1  0  0  0  0  0  0  0  0
   12.7999   -7.1507   -5.1883 O   0  0  0  1  0  0  0  0  0  0  0  0
   13.3973  -11.6728   -7.2502 O   0  0  0  0  0  0  0  0  0  0  0  0
   11.3908  -11.4195   -5.6917 O   0  0  0  1  0  0  0  0  0  0  0  0
   11.1610   -7.7463   -6.8754 O   0  0  0  0  0  0  0  0  0  0  0  0
   11.0455   -8.8435   -4.5689 O   0  0  0  1  0  0  0  0  0  0  0  0
   12.7510  -11.0181   -6.0909 P   0  0  0  1  0  0  0  0  0  0  0  0
   11.8481   -8.3012   -5.6849 P   0  0  0  1  0  0  0  0  0  0  0  0
   13.7849   -7.3957   -4.1513 C   0  0  0  1  0  0  0  0  0  0  0  0
   13.2963   -7.5293   -3.2088 H   0  0  0  1  0  0  0  0  0  0  0  0
   14.3519   -8.2720   -4.3870 H   0  0  0  1  0  0  0  0  0  0  0  0
   13.8244   -4.7837   -2.2918 O   0  0  0  1  0  0  0  0  0  0  0  0
   13.8336   -3.5021   -0.0224 O   0  0  0  1  0  0  0  0  0  0  0  0
   12.7751   -2.3849   -1.9186 O   0  5  0  1  0  0  0  0  0  0  0  0
   13.9914   -3.3643   -1.4875 P   0  0  0  1  0  0  0  0  0  0  0  0
   15.3832   -2.6412   -1.8928 O   0  5  0  1  0  0  0  0  0  0  0  0
   16.6360   -4.0660   -5.8724 N   0  0  0  1  0  0  0  0  0  0  0  0
   17.6555   -3.8480   -4.9820 C   0  0  0  1  0  0  0  0  0  0  0  0
   17.1548   -3.7936   -7.1010 C   0  0  0  1  0  0  0  0  0  0  0  0
   16.5945   -3.8689   -7.9738 H   0  0  0  1  0  0  0  0  0  0  0  0
   18.7536   -3.4545   -5.7586 C   0  0  0  1  0  0  0  0  0  0  0  0
   17.6273   -3.9912   -3.6563 N   0  0  0  1  0  0  0  0  0  0  0  0
   18.4087   -3.4308   -7.1010 N   0  0  0  1  0  0  0  0  0  0  0  0
   19.9238   -3.1916   -5.0526 C   0  0  0  1  0  0  0  0  0  0  0  0
   18.8034   -3.7010   -3.1136 C   0  0  0  1  0  0  0  0  0  0  0  0
   18.8546   -3.7866   -2.0784 H   0  0  0  1  0  0  0  0  0  0  0  0
   19.9357   -3.3118   -3.7206 N   0  0  0  1  0  0  0  0  0  0  0  0
   21.0915   -2.8077   -5.6576 N   0  0  0  1  0  0  0  0  0  0  0  0
   21.2878   -3.0984   -6.5726 H   0  0  0  1  0  0  0  0  0  0  0  0
   21.7304   -2.2425   -5.1752 H   0  0  0  1  0  0  0  0  0  0  0  0
   18.1447  -15.0033    1.4722 S   0  0  0  1  0  0  0  0  0  0  0  0
   18.4478  -12.3964    1.7270 O   0  0  0  1  0  0  0  0  0  0  0  0
   18.2352  -13.3032    0.9558 C   0  0  0  1  0  0  0  0  0  0  0  0
   18.0307  -13.1051   -0.4741 C   0  0  0  1  0  0  0  0  0  0  0  0
   17.8171  -13.9477   -1.0450 H   0  0  0  1  0  0  0  0  0  0  0  0
   18.0941  -11.9371   -1.1120 C   0  0  0  1  0  0  0  0  0  0  0  0
   18.3101  -11.1219   -0.5032 H   0  0  0  1  0  0  0  0  0  0  0  0
   17.9082  -11.6060   -2.5443 C   0  0  0  1  0  0  0  0  0  0  0  0
   17.9788  -10.2675   -2.8975 C   0  0  0  1  0  0  0  0  0  0  0  0
   18.1597   -9.5466   -2.1700 H   0  0  0  1  0  0  0  0  0  0  0  0
   17.6731  -12.5644   -3.5119 C   0  0  0  1  0  0  0  0  0  0  0  0
   17.6241  -13.5690   -3.2476 H   0  0  0  1  0  0  0  0  0  0  0  0
   17.8088   -9.8907   -4.2164 C   0  0  0  1  0  0  0  0  0  0  0  0
   17.8577   -8.8860   -4.4807 H   0  0  0  1  0  0  0  0  0  0  0  0
   17.5025  -12.1868   -4.8347 C   0  0  0  1  0  0  0  0  0  0  0  0
   17.5729  -10.8521   -5.1868 C   0  0  0  1  0  0  0  0  0  0  0  0
   17.4050  -10.5323   -6.4930 O   0  0  0  1  0  0  0  0  0  0  0  0
   18.2565  -10.3229   -6.8837 H   0  0  0  1  0  0  0  0  0  0  0  0
   17.2759  -13.1986   -5.6805 O   0  0  0  1  0  0  0  0  0  0  0  0
   16.7982  -12.9677   -7.0484 C   0  0  0  1  0  0  0  0  0  0  0  0
   17.6078  -12.6199   -7.6555 H   0  0  0  1  0  0  0  0  0  0  0  0
   16.0212  -12.2322   -7.0352 H   0  0  0  1  0  0  0  0  0  0  0  0
   16.4174  -13.8825   -7.4522 H   0  0  0  1  0  0  0  0  0  0  0  0
  1  2  1  0  0  0  0
  1  3  1  0  0  0  0
  1  4  1  0  0  0  0
  1 65  1  0  0  0  0
  3  6  1  0  0  0  0
  4  5  1  0  0  0  0
  4  8  1  0  0  0  0
  4 10  1  0  0  0  0
  6  7  1  0  0  0  0
  6  8  1  0  0  0  0
  6 57  1  0  0  0  0
  8  9  1  0  0  0  0
  8 60  1  0  0  0  0
 10 11  1  0  0  0  0
 12 13  1  0  0  0  0
 12 14  1  0  0  0  0
 12 15  1  0  0  0  0
 12 18  1  0  0  0  0
 15 16  1  0  0  0  0
 15 17  1  0  0  0  0
 15 79  1  0  0  0  0
 18 19  1  0  0  0  0
 18 20  1  0  0  0  0
 20 21  2  0  0  0  0
 20 25  1  0  0  0  0
 22 23  1  0  0  0  0
 22 24  1  0  0  0  0
 22 25  1  0  0  0  0
 22 28  1  0  0  0  0
 25 26  1  0  0  0  0
 25 27  1  0  0  0  0
 28 29  1  0  0  0  0
 28 31  1  0  0  0  0
 30 31  2  0  0  0  0
 31 44  1  0  0  0  0
 32 33  1  0  0  0  0
 32 34  1  0  0  0  0
 32 39  1  0  0  0  0
 32 48  1  0  0  0  0
 35 36  1  0  0  0  0
 35 37  1  0  0  0  0
 35 38  1  0  0  0  0
 35 39  1  0  0  0  0
 39 40  1  0  0  0  0
 39 44  1  0  0  0  0
 40 41  1  0  0  0  0
 40 42  1  0  0  0  0
 40 43  1  0  0  0  0
 44 45  1  0  0  0  0
 44 46  1  0  0  0  0
 46 47  1  0  0  0  0
 48 55  1  0  0  0  0
 49 55  1  0  0  0  0
 49 56  1  0  0  0  0
 50 56  1  0  0  0  0
 50 57  1  0  0  0  0
 51 55  1  0  0  0  0
 52 55  2  0  0  0  0
 53 56  1  0  0  0  0
 54 56  2  0  0  0  0
 57 58  1  0  0  0  0
 57 59  1  0  0  0  0
 60 63  1  0  0  0  0
 61 63  2  0  0  0  0
 62 63  1  0  0  0  0
 63 64  1  0  0  0  0
 65 66  1  0  0  0  0
 65 67  1  0  0  0  0
 66 69  2  0  0  0  0
 66 70  1  0  0  0  0
 67 68  1  0  0  0  0
 67 71  2  0  0  0  0
 69 71  1  0  0  0  0
 69 72  1  0  0  0  0
 70 73  2  0  0  0  0
 72 75  2  0  0  0  0
 72 76  1  0  0  0  0
 73 74  1  0  0  0  0
 73 75  1  0  0  0  0
 76 77  1  0  0  0  0
 76 78  1  0  0  0  0
 79 81  1  0  0  0  0
 80 81  2  0  0  0  0
 81 82  1  0  0  0  0
 82 83  1  0  0  0  0
 82 84  2  0  0  0  0
 84 85  1  0  0  0  0
 84 86  1  0  0  0  0
 86 87  1  0  0  0  0
 86 89  2  0  0  0  0
 87 88  1  0  0  0  0
 87 91  2  0  0  0  0
 89 90  1  0  0  0  0
 89 93  1  0  0  0  0
 91 92  1  0  0  0  0
 91 94  1  0  0  0  0
 93 94  2  0  0  0  0
 93 97  1  0  0  0  0
 94 95  1  0  0  0  0
 95 96  1  0  0  0  0
 97 98  1  0  0  0  0
 98 99  1  0  0  0  0
 98100  1  0  0  0  0
 98101  1  0  0  0  0
M  BCL ATM C_TeTeTeTe H_S O_Te2Te2TeTe C_TeTeTeTe H_S C_TeTeTeTe H_S C_TeTeTeTe H_S O_Te2Te2TeTe H_S C_TeTeTeTe H_S H_S C_TeTeTeTe H_S H_S N_TrTrTrPi2 H_S C_TrTrTrPi O_Tr2Tr2TrPi C_TeTeTeTe H_S H_S C_TeTeTeTe H_S H_S N_TrTrTrPi2 H_S O_Tr2Tr2TrPi C_TrTrTrPi C_TeTeTeTe H_S H_S C_TeTeTeTe H_S H_S H_S C_TeTeTeTe C_TeTeTeTe H_S H_S H_S C_TeTeTeTe H_S O_Te2Te2TeTe H_S O_Tr2TrTrPi2 O_Tr2TrTrPi2 O_Tr2TrTrPi2 O_Te2Te2TeTe O_Tr2Tr2TrPi O_Te2Te2TeTe O_Tr2Tr2TrPi P_TeTeTeTePi P_TeTeTeTePi C_TeTeTeTe H_S H_S O_Tr2TrTrPi2 O_Tr2Tr2TrPi O_Te2Te2Te2Te P_TeTeTeTePi O_Te2Te2Te2Te N_TrTrTrPi2 C_TrTrTrPi C_TrTrTrPi H_S C_TrTrTrPi N_Tr2TrTrPi N_Tr2TrTrPi C_TrTrTrPi C_TrTrTrPi H_S N_Tr2TrTrPi N_TrTrTrPi2 H_S H_S S_Te2Te2TeTe O_Tr2Tr2TrPi C_TrTrTrPi C_TrTrTrPi H_S C_TrTrTrPi H_S C_TrTrTrPi C_TrTrTrPi H_S C_TrTrTrPi H_S C_TrTrTrPi H_S C_TrTrTrPi C_TrTrTrPi O_Te2Te2TeTe H_S O_Tr2TrTrPi2 C_TeTeTeTe H_S H_S H_S
M  BCL BND NonConjugatedSingleBond NonConjugatedSingleBondInRing NonConjugatedSingleBondInRing NonConjugatedSingleBond NonConjugatedSingleBondInRing NonConjugatedSingleBond NonConjugatedSingleBondInRing NonConjugatedSingleBond NonConjugatedSingleBond NonConjugatedSingleBondInRing NonConjugatedSingleBond NonConjugatedSingleBond NonConjugatedSingleBond NonConjugatedSingleBond NonConjugatedSingleBond NonConjugatedSingleBond NonConjugatedSingleBond NonConjugatedSingleBond NonConjugatedSingleBond NonConjugatedSingleBond NonConjugatedSingleBond NonConjugatedSingleBond AmideSingleBond ConjugatedDoubleBond NonConjugatedSingleBond NonConjugatedSingleBond NonConjugatedSingleBond NonConjugatedSingleBond NonConjugatedSingleBond NonConjugatedSingleBond NonConjugatedSingleBond NonConjugatedSingleBond AmideSingleBond ConjugatedDoubleBond NonConjugatedSingleBond NonConjugatedSingleBond NonConjugatedSingleBond NonConjugatedSingleBond NonConjugatedSingleBond NonConjugatedSingleBond NonConjugatedSingleBond NonConjugatedSingleBond NonConjugatedSingleBond NonConjugatedSingleBond NonConjugatedSingleBond NonConjugatedSingleBond NonConjugatedSingleBond NonConjugatedSingleBond NonConjugatedSingleBond NonConjugatedSingleBond NonConjugatedSingleBond ConjugatedSingleBond ConjugatedSingleBond ConjugatedSingleBond ConjugatedSingleBond NonConjugatedSingleBond ConjugatedSingleBond ConjugatedDoubleBond ConjugatedSingleBond ConjugatedDoubleBond NonConjugatedSingleBond NonConjugatedSingleBond ConjugatedSingleBond ConjugatedDoubleBond ConjugatedSingleBond ConjugatedSingleBond AromaticSingleBond AromaticSingleBond AromaticDoubleBond AromaticSingleBond NonConjugatedSingleBond AromaticDoubleBond AromaticSingleBond AromaticSingleBond AromaticDoubleBond AromaticDoubleBond ConjugatedSingleBond NonConjugatedSingleBond AromaticSingleBond NonConjugatedSingleBond NonConjugatedSingleBond ConjugatedSingleBond ConjugatedDoubleBond ConjugatedSingleBond NonConjugatedSingleBond ConjugatedDoubleBond NonConjugatedSingleBond ConjugatedSingleBond AromaticSingleBond AromaticDoubleBond NonConjugatedSingleBond AromaticDoubleBond NonConjugatedSingleBond AromaticSingleBond NonConjugatedSingleBond AromaticSingleBond AromaticDoubleBond ConjugatedSingleBond ConjugatedSingleBond NonConjugatedSingleBond NonConjugatedSingleBond NonConjugatedSingleBond NonConjugatedSingleBond NonConjugatedSingleBond
M  BCL CHI   1   R   4   R   6   R   8   S  44   S  55   S  56   R
M  BCL DBI - - - - - - - - - - E - - -
M  END
> <ConfClashScore>
0 

> <ConfOneFourInteractionScore>
-0.971382 

> <ConfScore>
-0.0016634 

> <ConfScorePBest>
0.0099485 

> <ConfTolerance>
2.97363 

$$$$
L02.****
  PyMOL2.5          3D                             0

101104  0  0  0  0  0  0  0  0999 V2000
   15.2524   -4.4770   -5.5495 C   0  0  0  1  0  0  0  0  0  0  0  0
   14.7314   -3.6832   -5.0563 H   0  0  0  1  0  0  0  0  0  0  0  0
   14.5720   -4.8718   -6.7098 O   0  0  0  1  0  0  0  0  0  0  0  0
   15.2742   -5.7391   -4.6753 C   0  0  0  1  0  0  0  0  0  0  0  0
   16.0981   -6.3718   -4.9317 H   0  0  0  1  0  0  0  0  0  0  0  0
   13.7646   -6.0501   -6.4887 C   0  0  0  1  0  0  0  0  0  0  0  0
   14.0972   -6.8553   -7.1099 H   0  0  0  1  0  0  0  0  0  0  0  0
   13.9606   -6.3958   -5.0096 C   0  0  0  1  0  0  0  0  0  0  0  0
   13.1681   -5.9943   -4.4133 H   0  0  0  1  0  0  0  0  0  0  0  0
   15.3441   -5.4039   -3.2886 O   0  0  0  1  0  0  0  0  0  0  0  0
   14.5091   -5.6159   -2.8651 H   0  0  0  1  0  0  0  0  0  0  0  0
   10.8113  -16.9432   -1.9789 C   0  0  0  1  0  0  0  0  0  0  0  0
   10.0502  -16.6078   -1.3058 H   0  0  0  1  0  0  0  0  0  0  0  0
   10.9804  -17.9898   -1.8339 H   0  0  0  1  0  0  0  0  0  0  0  0
   12.0980  -16.1948   -1.6712 C   0  0  0  1  0  0  0  0  0  0  0  0
   12.4394  -16.4543   -0.6909 H   0  0  0  1  0  0  0  0  0  0  0  0
   11.9213  -15.1406   -1.7204 H   0  0  0  1  0  0  0  0  0  0  0  0
   10.3512  -16.7282   -3.3520 N   0  0  0  1  0  0  0  0  0  0  0  0
   10.7852  -17.2216   -4.0790 H   0  0  0  1  0  0  0  0  0  0  0  0
    9.3505  -15.8742   -3.6513 C   0  0  0  1  0  0  0  0  0  0  0  0
    8.7570  -15.2561   -2.7685 O   0  0  0  1  0  0  0  0  0  0  0  0
    7.9642  -14.5902   -5.3225 C   0  0  0  1  0  0  0  0  0  0  0  0
    8.2715  -13.7161   -4.7874 H   0  0  0  1  0  0  0  0  0  0  0  0
    7.0078  -14.9102   -4.9649 H   0  0  0  1  0  0  0  0  0  0  0  0
    8.9799  -15.6985   -5.0983 C   0  0  0  1  0  0  0  0  0  0  0  0
    8.5663  -16.6175   -5.4579 H   0  0  0  1  0  0  0  0  0  0  0  0
    9.8660  -15.4653   -5.6509 H   0  0  0  1  0  0  0  0  0  0  0  0
    7.8656  -14.2739   -6.7485 N   0  0  0  1  0  0  0  0  0  0  0  0
    7.2648  -14.8062   -7.3107 H   0  0  0  1  0  0  0  0  0  0  0  0
    9.3734  -12.5589   -6.7175 O   0  0  0  1  0  0  0  0  0  0  0  0
    8.5722  -13.2763   -7.3150 C   0  0  0  1  0  0  0  0  0  0  0  0
    8.2847  -10.6089   -8.7257 C   0  0  0  1  0  0  0  0  0  0  0  0
    7.9470  -10.3072   -7.7562 H   0  0  0  1  0  0  0  0  0  0  0  0
    8.1016   -9.8229   -9.4283 H   0  0  0  1  0  0  0  0  0  0  0  0
    7.2601  -11.7175  -10.6796 C   0  0  0  1  0  0  0  0  0  0  0  0
    6.8192  -10.7667  -10.8957 H   0  0  0  1  0  0  0  0  0  0  0  0
    6.6047  -12.4970  -11.0077 H   0  0  0  1  0  0  0  0  0  0  0  0
    8.1970  -11.8001  -11.1898 H   0  0  0  1  0  0  0  0  0  0  0  0
    7.4901  -11.8452   -9.1573 C   0  0  0  1  0  0  0  0  0  0  0  0
    6.1633  -11.8599   -8.3894 C   0  0  0  1  0  0  0  0  0  0  0  0
    5.9246  -12.8643   -8.1079 H   0  0  0  1  0  0  0  0  0  0  0  0
    5.3861  -11.4704   -9.0132 H   0  0  0  1  0  0  0  0  0  0  0  0
    6.2530  -11.2554   -7.5111 H   0  0  0  1  0  0  0  0  0  0  0  0
    8.2962  -13.0982   -8.7953 C   0  0  0  1  0  0  0  0  0  0  0  0
    7.7070  -13.9375   -9.1011 H   0  0  0  1  0  0  0  0  0  0  0  0
    9.5447  -13.1632   -9.4984 O   0  0  0  1  0  0  0  0  0  0  0  0
    9.6755  -12.3520   -9.9948 H   0  0  0  1  0  0  0  0  0  0  0  0
    9.7100  -10.8504   -8.6639 O   0  0  0  1  0  0  0  0  0  0  0  0
   10.7730   -8.5636   -9.0070 O   0  0  0  1  0  0  0  0  0  0  0  0
   11.7230   -6.9833   -7.2718 O   0  0  0  1  0  0  0  0  0  0  0  0
   10.1949   -9.2846   -6.7389 O   0  0  0  0  0  0  0  0  0  0  0  0
   12.0451  -10.5131   -7.9505 O   0  0  0  1  0  0  0  0  0  0  0  0
   12.0195   -6.6182   -9.7610 O   0  0  0  0  0  0  0  0  0  0  0  0
    9.7587   -6.2646   -8.5612 O   0  0  0  1  0  0  0  0  0  0  0  0
   10.7307   -9.8183   -8.0652 P   0  0  0  1  0  0  0  0  0  0  0  0
   11.0170   -7.0259   -8.7275 P   0  0  0  1  0  0  0  0  0  0  0  0
   12.3273   -5.7616   -6.7735 C   0  0  0  1  0  0  0  0  0  0  0  0
   12.2497   -4.9898   -7.5105 H   0  0  0  1  0  0  0  0  0  0  0  0
   11.8335   -5.4502   -5.8768 H   0  0  0  1  0  0  0  0  0  0  0  0
   14.0319   -7.8177   -4.8179 O   0  0  0  1  0  0  0  0  0  0  0  0
   11.6493   -8.2078   -3.7213 O   0  0  0  1  0  0  0  0  0  0  0  0
   13.4777  -10.0984   -3.8708 O   0  5  0  1  0  0  0  0  0  0  0  0
   12.7536   -8.7980   -4.5103 P   0  0  0  1  0  0  0  0  0  0  0  0
   12.3753   -9.3222   -5.9958 O   0  5  0  1  0  0  0  0  0  0  0  0
   16.6132   -4.0439   -5.8687 N   0  0  0  1  0  0  0  0  0  0  0  0
   17.6469   -3.8496   -4.9893 C   0  0  0  1  0  0  0  0  0  0  0  0
   17.1158   -3.7505   -7.0991 C   0  0  0  1  0  0  0  0  0  0  0  0
   16.5423   -3.8052   -7.9650 H   0  0  0  1  0  0  0  0  0  0  0  0
   18.7360   -3.4473   -5.7740 C   0  0  0  1  0  0  0  0  0  0  0  0
   17.6371   -4.0187   -3.6663 N   0  0  0  1  0  0  0  0  0  0  0  0
   18.3718   -3.3951   -7.1105 N   0  0  0  1  0  0  0  0  0  0  0  0
   19.9179   -3.2053   -5.0802 C   0  0  0  1  0  0  0  0  0  0  0  0
   18.8228   -3.7461   -3.1354 C   0  0  0  1  0  0  0  0  0  0  0  0
   18.8885   -3.8524   -2.1029 H   0  0  0  1  0  0  0  0  0  0  0  0
   19.9485   -3.3518   -3.7512 N   0  0  0  1  0  0  0  0  0  0  0  0
   21.1244   -2.8096   -5.6476 N   0  0  0  1  0  0  0  0  0  0  0  0
   21.8988   -2.6281   -5.0751 H   0  0  0  1  0  0  0  0  0  0  0  0
   21.2001   -2.7122   -6.6198 H   0  0  0  1  0  0  0  0  0  0  0  0
   13.3481  -16.6592   -2.8929 S   0  0  0  1  0  0  0  0  0  0  0  0
   14.6146  -14.6280   -1.7391 O   0  0  0  1  0  0  0  0  0  0  0  0
   14.6378  -15.4964   -2.5698 C   0  0  0  1  0  0  0  0  0  0  0  0
   15.8113  -15.7600   -3.3968 C   0  0  0  1  0  0  0  0  0  0  0  0
   16.6805  -15.2542   -3.1320 H   0  0  0  1  0  0  0  0  0  0  0  0
   15.9028  -16.5707   -4.4502 C   0  0  0  1  0  0  0  0  0  0  0  0
   15.0569  -17.0963   -4.7498 H   0  0  0  1  0  0  0  0  0  0  0  0
   17.1598  -16.7544   -5.2122 C   0  0  0  1  0  0  0  0  0  0  0  0
   18.2122  -15.8736   -5.0174 C   0  0  0  1  0  0  0  0  0  0  0  0
   18.1176  -15.0927   -4.3370 H   0  0  0  1  0  0  0  0  0  0  0  0
   17.2875  -17.7952   -6.1125 C   0  0  0  1  0  0  0  0  0  0  0  0
   16.4993  -18.4584   -6.2557 H   0  0  0  1  0  0  0  0  0  0  0  0
   19.3874  -16.0329   -5.7273 C   0  0  0  1  0  0  0  0  0  0  0  0
   20.1755  -15.3697   -5.5841 H   0  0  0  1  0  0  0  0  0  0  0  0
   18.4660  -17.9552   -6.8246 C   0  0  0  1  0  0  0  0  0  0  0  0
   19.5153  -17.0769   -6.6303 C   0  0  0  1  0  0  0  0  0  0  0  0
   20.6973  -17.1741   -7.2861 O   0  0  0  1  0  0  0  0  0  0  0  0
   20.5358  -17.2355   -8.2304 H   0  0  0  1  0  0  0  0  0  0  0  0
   18.6534  -18.9498   -7.7243 O   0  0  0  1  0  0  0  0  0  0  0  0
   17.5553  -19.8480   -7.9477 C   0  0  0  1  0  0  0  0  0  0  0  0
   16.6378  -19.3618   -7.6893 H   0  0  0  1  0  0  0  0  0  0  0  0
   17.6794  -20.7206   -7.3410 H   0  0  0  1  0  0  0  0  0  0  0  0
   17.5304  -20.1309   -8.9794 H   0  0  0  1  0  0  0  0  0  0  0  0
  1  2  1  0  0  0  0
  1  3  1  0  0  0  0
  1  4  1  0  0  0  0
  1 65  1  0  0  0  0
  3  6  1  0  0  0  0
  4  5  1  0  0  0  0
  4  8  1  0  0  0  0
  4 10  1  0  0  0  0
  6  7  1  0  0  0  0
  6  8  1  0  0  0  0
  6 57  1  0  0  0  0
  8  9  1  0  0  0  0
  8 60  1  0  0  0  0
 10 11  1  0  0  0  0
 12 13  1  0  0  0  0
 12 14  1  0  0  0  0
 12 15  1  0  0  0  0
 12 18  1  0  0  0  0
 15 16  1  0  0  0  0
 15 17  1  0  0  0  0
 15 79  1  0  0  0  0
 18 19  1  0  0  0  0
 18 20  1  0  0  0  0
 20 21  2  0  0  0  0
 20 25  1  0  0  0  0
 22 23  1  0  0  0  0
 22 24  1  0  0  0  0
 22 25  1  0  0  0  0
 22 28  1  0  0  0  0
 25 26  1  0  0  0  0
 25 27  1  0  0  0  0
 28 29  1  0  0  0  0
 28 31  1  0  0  0  0
 30 31  2  0  0  0  0
 31 44  1  0  0  0  0
 32 33  1  0  0  0  0
 32 34  1  0  0  0  0
 32 39  1  0  0  0  0
 32 48  1  0  0  0  0
 35 36  1  0  0  0  0
 35 37  1  0  0  0  0
 35 38  1  0  0  0  0
 35 39  1  0  0  0  0
 39 40  1  0  0  0  0
 39 44  1  0  0  0  0
 40 41  1  0  0  0  0
 40 42  1  0  0  0  0
 40 43  1  0  0  0  0
 44 45  1  0  0  0  0
 44 46  1  0  0  0  0
 46 47  1  0  0  0  0
 48 55  1  0  0  0  0
 49 55  1  0  0  0  0
 49 56  1  0  0  0  0
 50 56  1  0  0  0  0
 50 57  1  0  0  0  0
 51 55  1  0  0  0  0
 52 55  2  0  0  0  0
 53 56  1  0  0  0  0
 54 56  2  0  0  0  0
 57 58  1  0  0  0  0
 57 59  1  0  0  0  0
 60 63  1  0  0  0  0
 61 63  2  0  0  0  0
 62 63  1  0  0  0  0
 63 64  1  0  0  0  0
 65 66  1  0  0  0  0
 65 67  1  0  0  0  0
 66 69  2  0  0  0  0
 66 70  1  0  0  0  0
 67 68  1  0  0  0  0
 67 71  2  0  0  0  0
 69 71  1  0  0  0  0
 69 72  1  0  0  0  0
 70 73  2  0  0  0  0
 72 75  2  0  0  0  0
 72 76  1  0  0  0  0
 73 74  1  0  0  0  0
 73 75  1  0  0  0  0
 76 77  1  0  0  0  0
 76 78  1  0  0  0  0
 79 81  1  0  0  0  0
 80 81  2  0  0  0  0
 81 82  1  0  0  0  0
 82 83  1  0  0  0  0
 82 84  2  0  0  0  0
 84 85  1  0  0  0  0
 84 86  1  0  0  0  0
 86 87  1  0  0  0  0
 86 89  2  0  0  0  0
 87 88  1  0  0  0  0
 87 91  2  0  0  0  0
 89 90  1  0  0  0  0
 89 93  1  0  0  0  0
 91 92  1  0  0  0  0
 91 94  1  0  0  0  0
 93 94  2  0  0  0  0
 93 97  1  0  0  0  0
 94 95  1  0  0  0  0
 95 96  1  0  0  0  0
 97 98  1  0  0  0  0
 98 99  1  0  0  0  0
 98100  1  0  0  0  0
 98101  1  0  0  0  0
M  BCL ATM C_TeTeTeTe H_S O_Te2Te2TeTe C_TeTeTeTe H_S C_TeTeTeTe H_S C_TeTeTeTe H_S O_Te2Te2TeTe H_S C_TeTeTeTe H_S H_S C_TeTeTeTe H_S H_S N_TrTrTrPi2 H_S C_TrTrTrPi O_Tr2Tr2TrPi C_TeTeTeTe H_S H_S C_TeTeTeTe H_S H_S N_TrTrTrPi2 H_S O_Tr2Tr2TrPi C_TrTrTrPi C_TeTeTeTe H_S H_S C_TeTeTeTe H_S H_S H_S C_TeTeTeTe C_TeTeTeTe H_S H_S H_S C_TeTeTeTe H_S O_Te2Te2TeTe H_S O_Tr2TrTrPi2 O_Tr2TrTrPi2 O_Tr2TrTrPi2 O_Te2Te2TeTe O_Tr2Tr2TrPi O_Te2Te2TeTe O_Tr2Tr2TrPi P_TeTeTeTePi P_TeTeTeTePi C_TeTeTeTe H_S H_S O_Tr2TrTrPi2 O_Tr2Tr2TrPi O_Te2Te2Te2Te P_TeTeTeTePi O_Te2Te2Te2Te N_TrTrTrPi2 C_TrTrTrPi C_TrTrTrPi H_S C_TrTrTrPi N_Tr2TrTrPi N_Tr2TrTrPi C_TrTrTrPi C_TrTrTrPi H_S N_Tr2TrTrPi N_TrTrTrPi2 H_S H_S S_Te2Te2TeTe O_Tr2Tr2TrPi C_TrTrTrPi C_TrTrTrPi H_S C_TrTrTrPi H_S C_TrTrTrPi C_TrTrTrPi H_S C_TrTrTrPi H_S C_TrTrTrPi H_S C_TrTrTrPi C_TrTrTrPi O_Te2Te2TeTe H_S O_Tr2TrTrPi2 C_TeTeTeTe H_S H_S H_S
M  BCL BND NonConjugatedSingleBond NonConjugatedSingleBondInRing NonConjugatedSingleBondInRing NonConjugatedSingleBond NonConjugatedSingleBondInRing NonConjugatedSingleBond NonConjugatedSingleBondInRing NonConjugatedSingleBond NonConjugatedSingleBond NonConjugatedSingleBondInRing NonConjugatedSingleBond NonConjugatedSingleBond NonConjugatedSingleBond NonConjugatedSingleBond NonConjugatedSingleBond NonConjugatedSingleBond NonConjugatedSingleBond NonConjugatedSingleBond NonConjugatedSingleBond NonConjugatedSingleBond NonConjugatedSingleBond NonConjugatedSingleBond AmideSingleBond ConjugatedDoubleBond NonConjugatedSingleBond NonConjugatedSingleBond NonConjugatedSingleBond NonConjugatedSingleBond NonConjugatedSingleBond NonConjugatedSingleBond NonConjugatedSingleBond NonConjugatedSingleBond AmideSingleBond ConjugatedDoubleBond NonConjugatedSingleBond NonConjugatedSingleBond NonConjugatedSingleBond NonConjugatedSingleBond NonConjugatedSingleBond NonConjugatedSingleBond NonConjugatedSingleBond NonConjugatedSingleBond NonConjugatedSingleBond NonConjugatedSingleBond NonConjugatedSingleBond NonConjugatedSingleBond NonConjugatedSingleBond NonConjugatedSingleBond NonConjugatedSingleBond NonConjugatedSingleBond NonConjugatedSingleBond ConjugatedSingleBond ConjugatedSingleBond ConjugatedSingleBond ConjugatedSingleBond NonConjugatedSingleBond ConjugatedSingleBond ConjugatedDoubleBond ConjugatedSingleBond ConjugatedDoubleBond NonConjugatedSingleBond NonConjugatedSingleBond ConjugatedSingleBond ConjugatedDoubleBond ConjugatedSingleBond ConjugatedSingleBond AromaticSingleBond AromaticSingleBond AromaticDoubleBond AromaticSingleBond NonConjugatedSingleBond AromaticDoubleBond AromaticSingleBond AromaticSingleBond AromaticDoubleBond AromaticDoubleBond ConjugatedSingleBond NonConjugatedSingleBond AromaticSingleBond NonConjugatedSingleBond NonConjugatedSingleBond ConjugatedSingleBond ConjugatedDoubleBond ConjugatedSingleBond NonConjugatedSingleBond ConjugatedDoubleBond NonConjugatedSingleBond ConjugatedSingleBond AromaticSingleBond AromaticDoubleBond NonConjugatedSingleBond AromaticDoubleBond NonConjugatedSingleBond AromaticSingleBond NonConjugatedSingleBond AromaticSingleBond AromaticDoubleBond ConjugatedSingleBond ConjugatedSingleBond NonConjugatedSingleBond NonConjugatedSingleBond NonConjugatedSingleBond NonConjugatedSingleBond NonConjugatedSingleBond
M  BCL CHI   1   R   4   R   6   R   8   S  44   S  55   S  56   R
M  BCL DBI - - - - - - - - - - E - - -
M  END
> <ConfClashScore>
0.000103954 

> <ConfOneFourInteractionScore>
-0.975925 

> <ConfScore>
-0.00136365 

> <ConfScorePBest>
0.0098455 

> <ConfTolerance>
2.72978 

$$$$
L02.****
  PyMOL2.5          3D                             0

101104  0  0  0  0  0  0  0  0999 V2000
   15.2660   -4.4735   -5.5737 C   0  0  0  1  0  0  0  0  0  0  0  0
   14.7575   -4.7183   -6.4827 H   0  0  0  1  0  0  0  0  0  0  0  0
   15.2899   -5.6156   -4.6923 O   0  0  0  1  0  0  0  0  0  0  0  0
   14.5278   -3.3877   -4.8412 C   0  0  0  1  0  0  0  0  0  0  0  0
   15.0846   -2.4743   -4.8635 H   0  0  0  1  0  0  0  0  0  0  0  0
   14.4440   -5.3409   -3.5877 C   0  0  0  1  0  0  0  0  0  0  0  0
   14.8421   -5.7869   -2.7002 H   0  0  0  1  0  0  0  0  0  0  0  0
   14.3932   -3.8853   -3.4395 C   0  0  0  1  0  0  0  0  0  0  0  0
   13.4622   -3.5767   -3.0119 H   0  0  0  1  0  0  0  0  0  0  0  0
   13.2408   -3.1760   -5.4235 O   0  0  0  1  0  0  0  0  0  0  0  0
   13.3437   -2.7915   -6.2971 H   0  0  0  1  0  0  0  0  0  0  0  0
   16.9059  -12.6200   -6.5242 C   0  0  0  1  0  0  0  0  0  0  0  0
   17.7150  -12.9087   -5.8862 H   0  0  0  1  0  0  0  0  0  0  0  0
   17.2956  -12.1810   -7.4188 H   0  0  0  1  0  0  0  0  0  0  0  0
   16.0902  -11.5746   -5.8046 C   0  0  0  1  0  0  0  0  0  0  0  0
   15.7768  -11.9542   -4.8545 H   0  0  0  1  0  0  0  0  0  0  0  0
   15.2305  -11.3235   -6.3901 H   0  0  0  1  0  0  0  0  0  0  0  0
   16.1641  -13.8266   -6.8941 N   0  0  0  1  0  0  0  0  0  0  0  0
   15.4924  -14.1779   -6.2730 H   0  0  0  1  0  0  0  0  0  0  0  0
   16.3705  -14.4643   -8.0468 C   0  0  0  1  0  0  0  0  0  0  0  0
   17.1207  -14.0374   -8.9235 O   0  0  0  1  0  0  0  0  0  0  0  0
   14.6909  -15.7521   -9.4261 C   0  0  0  1  0  0  0  0  0  0  0  0
   14.1638  -16.6827   -9.4572 H   0  0  0  1  0  0  0  0  0  0  0  0
   15.2791  -15.6448  -10.3135 H   0  0  0  1  0  0  0  0  0  0  0  0
   15.6224  -15.7588   -8.2211 C   0  0  0  1  0  0  0  0  0  0  0  0
   15.0399  -15.9367   -7.3413 H   0  0  0  1  0  0  0  0  0  0  0  0
   16.3332  -16.5490   -8.3445 H   0  0  0  1  0  0  0  0  0  0  0  0
   13.7210  -14.6683   -9.3757 N   0  0  0  1  0  0  0  0  0  0  0  0
   12.8510  -14.8313   -8.9552 H   0  0  0  1  0  0  0  0  0  0  0  0
   15.0511  -13.1624  -10.4014 O   0  0  0  1  0  0  0  0  0  0  0  0
   13.9754  -13.4587   -9.8830 C   0  0  0  1  0  0  0  0  0  0  0  0
   12.3758  -10.1376   -9.0040 C   0  0  0  1  0  0  0  0  0  0  0  0
   11.3448  -10.4235   -9.0140 H   0  0  0  1  0  0  0  0  0  0  0  0
   12.6339   -9.6988   -9.9452 H   0  0  0  1  0  0  0  0  0  0  0  0
   12.9070  -11.9298   -7.3808 C   0  0  0  1  0  0  0  0  0  0  0  0
   11.8457  -12.0169   -7.2765 H   0  0  0  1  0  0  0  0  0  0  0  0
   13.2851  -11.2635   -6.6338 H   0  0  0  1  0  0  0  0  0  0  0  0
   13.3572  -12.8931   -7.2611 H   0  0  0  1  0  0  0  0  0  0  0  0
   13.2411  -11.3793   -8.7724 C   0  0  0  1  0  0  0  0  0  0  0  0
   14.7596  -11.0764   -8.7863 C   0  0  0  1  0  0  0  0  0  0  0  0
   14.9501  -10.1806   -8.2331 H   0  0  0  1  0  0  0  0  0  0  0  0
   15.0882  -10.9483   -9.7965 H   0  0  0  1  0  0  0  0  0  0  0  0
   15.2896  -11.8912   -8.3389 H   0  0  0  1  0  0  0  0  0  0  0  0
   12.8460  -12.4518   -9.7835 C   0  0  0  1  0  0  0  0  0  0  0  0
   11.9853  -12.9599   -9.4013 H   0  0  0  1  0  0  0  0  0  0  0  0
   12.5132  -11.8288  -11.0092 O   0  0  0  1  0  0  0  0  0  0  0  0
   12.5942  -12.4643  -11.7241 H   0  0  0  1  0  0  0  0  0  0  0  0
   12.5913   -9.1683   -7.9514 O   0  0  0  1  0  0  0  0  0  0  0  0
   11.9988   -7.6412   -6.0420 O   0  0  0  1  0  0  0  0  0  0  0  0
   12.5745   -5.3632   -5.0986 O   0  0  0  1  0  0  0  0  0  0  0  0
   10.1553   -8.4680   -7.4626 O   0  0  0  0  0  0  0  0  0  0  0  0
   11.3673  -10.0873   -6.0848 O   0  0  0  1  0  0  0  0  0  0  0  0
   14.1517   -6.6601   -6.5980 O   0  0  0  0  0  0  0  0  0  0  0  0
   12.0012   -5.5346   -7.4808 O   0  0  0  1  0  0  0  0  0  0  0  0
   11.4717   -8.8533   -6.9138 P   0  0  0  1  0  0  0  0  0  0  0  0
   12.7141   -6.2828   -6.4230 P   0  0  0  1  0  0  0  0  0  0  0  0
   13.0907   -5.8719   -3.8414 C   0  0  0  1  0  0  0  0  0  0  0  0
   12.4401   -5.5726   -3.0464 H   0  0  0  1  0  0  0  0  0  0  0  0
   13.1338   -6.9401   -3.8847 H   0  0  0  1  0  0  0  0  0  0  0  0
   15.4871   -3.4097   -2.6131 O   0  0  0  1  0  0  0  0  0  0  0  0
   13.8555   -2.6718   -0.8988 O   0  0  0  1  0  0  0  0  0  0  0  0
   15.3226   -0.8766   -2.0368 O   0  5  0  1  0  0  0  0  0  0  0  0
   15.2171   -2.3562   -1.3855 P   0  0  0  1  0  0  0  0  0  0  0  0
   16.1286   -2.6488   -0.0786 O   0  5  0  1  0  0  0  0  0  0  0  0
   16.6302   -4.0409   -5.8784 N   0  0  0  1  0  0  0  0  0  0  0  0
   17.6548   -3.8475   -4.9882 C   0  0  0  1  0  0  0  0  0  0  0  0
   17.1458   -3.7472   -7.1034 C   0  0  0  1  0  0  0  0  0  0  0  0
   16.5813   -3.8013   -7.9753 H   0  0  0  1  0  0  0  0  0  0  0  0
   18.7522   -3.4454   -5.7614 C   0  0  0  1  0  0  0  0  0  0  0  0
   17.6312   -4.0172   -3.6655 N   0  0  0  1  0  0  0  0  0  0  0  0
   18.4020   -3.3924   -7.1015 N   0  0  0  1  0  0  0  0  0  0  0  0
   19.9270   -3.2043   -5.0551 C   0  0  0  1  0  0  0  0  0  0  0  0
   18.8113   -3.7455   -3.1221 C   0  0  0  1  0  0  0  0  0  0  0  0
   18.8662   -3.8523   -2.0891 H   0  0  0  1  0  0  0  0  0  0  0  0
   19.9436   -3.3514   -3.7260 N   0  0  0  1  0  0  0  0  0  0  0  0
   21.0899   -2.8173   -5.6548 N   0  0  0  1  0  0  0  0  0  0  0  0
   21.1273   -2.7105   -6.6282 H   0  0  0  1  0  0  0  0  0  0  0  0
   21.8877   -2.6461   -5.1121 H   0  0  0  1  0  0  0  0  0  0  0  0
   17.1105  -10.1056   -5.5642 S   0  0  0  1  0  0  0  0  0  0  0  0
   18.0955  -11.8091   -3.8140 O   0  0  0  1  0  0  0  0  0  0  0  0
   18.1825  -10.6858   -4.2328 C   0  0  0  1  0  0  0  0  0  0  0  0
   19.1189   -9.6738   -3.7536 C   0  0  0  1  0  0  0  0  0  0  0  0
   18.9754   -8.7182   -4.1380 H   0  0  0  1  0  0  0  0  0  0  0  0
   20.1308   -9.7961   -2.8954 C   0  0  0  1  0  0  0  0  0  0  0  0
   20.3012  -10.7397   -2.4926 H   0  0  0  1  0  0  0  0  0  0  0  0
   21.0338   -8.7032   -2.4658 C   0  0  0  1  0  0  0  0  0  0  0  0
   20.8565   -7.4281   -2.9797 C   0  0  0  1  0  0  0  0  0  0  0  0
   20.0910   -7.2430   -3.6589 H   0  0  0  1  0  0  0  0  0  0  0  0
   22.0478   -8.9479   -1.5592 C   0  0  0  1  0  0  0  0  0  0  0  0
   22.1784   -9.9037   -1.1706 H   0  0  0  1  0  0  0  0  0  0  0  0
   21.6970   -6.4026   -2.5895 C   0  0  0  1  0  0  0  0  0  0  0  0
   21.5664   -5.4468   -2.9781 H   0  0  0  1  0  0  0  0  0  0  0  0
   22.8908   -7.9195   -1.1677 C   0  0  0  1  0  0  0  0  0  0  0  0
   22.7139   -6.6482   -1.6801 C   0  0  0  1  0  0  0  0  0  0  0  0
   23.4950   -5.5941   -1.3399 O   0  0  0  1  0  0  0  0  0  0  0  0
   23.0509   -4.7766   -1.5766 H   0  0  0  1  0  0  0  0  0  0  0  0
   23.8671   -8.2268   -0.2809 O   0  0  0  1  0  0  0  0  0  0  0  0
   23.7574   -9.4827    0.4069 C   0  0  0  1  0  0  0  0  0  0  0  0
   24.6598   -9.6729    0.9494 H   0  0  0  1  0  0  0  0  0  0  0  0
   23.5974  -10.2658   -0.3045 H   0  0  0  1  0  0  0  0  0  0  0  0
   22.9331   -9.4452    1.0881 H   0  0  0  1  0  0  0  0  0  0  0  0
  1  2  1  0  0  0  0
  1  3  1  0  0  0  0
  1  4  1  0  0  0  0
  1 65  1  0  0  0  0
  3  6  1  0  0  0  0
  4  5  1  0  0  0  0
  4  8  1  0  0  0  0
  4 10  1  0  0  0  0
  6  7  1  0  0  0  0
  6  8  1  0  0  0  0
  6 57  1  0  0  0  0
  8  9  1  0  0  0  0
  8 60  1  0  0  0  0
 10 11  1  0  0  0  0
 12 13  1  0  0  0  0
 12 14  1  0  0  0  0
 12 15  1  0  0  0  0
 12 18  1  0  0  0  0
 15 16  1  0  0  0  0
 15 17  1  0  0  0  0
 15 79  1  0  0  0  0
 18 19  1  0  0  0  0
 18 20  1  0  0  0  0
 20 21  2  0  0  0  0
 20 25  1  0  0  0  0
 22 23  1  0  0  0  0
 22 24  1  0  0  0  0
 22 25  1  0  0  0  0
 22 28  1  0  0  0  0
 25 26  1  0  0  0  0
 25 27  1  0  0  0  0
 28 29  1  0  0  0  0
 28 31  1  0  0  0  0
 30 31  2  0  0  0  0
 31 44  1  0  0  0  0
 32 33  1  0  0  0  0
 32 34  1  0  0  0  0
 32 39  1  0  0  0  0
 32 48  1  0  0  0  0
 35 36  1  0  0  0  0
 35 37  1  0  0  0  0
 35 38  1  0  0  0  0
 35 39  1  0  0  0  0
 39 40  1  0  0  0  0
 39 44  1  0  0  0  0
 40 41  1  0  0  0  0
 40 42  1  0  0  0  0
 40 43  1  0  0  0  0
 44 45  1  0  0  0  0
 44 46  1  0  0  0  0
 46 47  1  0  0  0  0
 48 55  1  0  0  0  0
 49 55  1  0  0  0  0
 49 56  1  0  0  0  0
 50 56  1  0  0  0  0
 50 57  1  0  0  0  0
 51 55  1  0  0  0  0
 52 55  2  0  0  0  0
 53 56  1  0  0  0  0
 54 56  2  0  0  0  0
 57 58  1  0  0  0  0
 57 59  1  0  0  0  0
 60 63  1  0  0  0  0
 61 63  2  0  0  0  0
 62 63  1  0  0  0  0
 63 64  1  0  0  0  0
 65 66  1  0  0  0  0
 65 67  1  0  0  0  0
 66 69  2  0  0  0  0
 66 70  1  0  0  0  0
 67 68  1  0  0  0  0
 67 71  2  0  0  0  0
 69 71  1  0  0  0  0
 69 72  1  0  0  0  0
 70 73  2  0  0  0  0
 72 75  2  0  0  0  0
 72 76  1  0  0  0  0
 73 74  1  0  0  0  0
 73 75  1  0  0  0  0
 76 77  1  0  0  0  0
 76 78  1  0  0  0  0
 79 81  1  0  0  0  0
 80 81  2  0  0  0  0
 81 82  1  0  0  0  0
 82 83  1  0  0  0  0
 82 84  2  0  0  0  0
 84 85  1  0  0  0  0
 84 86  1  0  0  0  0
 86 87  1  0  0  0  0
 86 89  2  0  0  0  0
 87 88  1  0  0  0  0
 87 91  2  0  0  0  0
 89 90  1  0  0  0  0
 89 93  1  0  0  0  0
 91 92  1  0  0  0  0
 91 94  1  0  0  0  0
 93 94  2  0  0  0  0
 93 97  1  0  0  0  0
 94 95  1  0  0  0  0
 95 96  1  0  0  0  0
 97 98  1  0  0  0  0
 98 99  1  0  0  0  0
 98100  1  0  0  0  0
 98101  1  0  0  0  0
M  BCL ATM C_TeTeTeTe H_S O_Te2Te2TeTe C_TeTeTeTe H_S C_TeTeTeTe H_S C_TeTeTeTe H_S O_Te2Te2TeTe H_S C_TeTeTeTe H_S H_S C_TeTeTeTe H_S H_S N_TrTrTrPi2 H_S C_TrTrTrPi O_Tr2Tr2TrPi C_TeTeTeTe H_S H_S C_TeTeTeTe H_S H_S N_TrTrTrPi2 H_S O_Tr2Tr2TrPi C_TrTrTrPi C_TeTeTeTe H_S H_S C_TeTeTeTe H_S H_S H_S C_TeTeTeTe C_TeTeTeTe H_S H_S H_S C_TeTeTeTe H_S O_Te2Te2TeTe H_S O_Tr2TrTrPi2 O_Tr2TrTrPi2 O_Tr2TrTrPi2 O_Te2Te2TeTe O_Tr2Tr2TrPi O_Te2Te2TeTe O_Tr2Tr2TrPi P_TeTeTeTePi P_TeTeTeTePi C_TeTeTeTe H_S H_S O_Tr2TrTrPi2 O_Tr2Tr2TrPi O_Te2Te2Te2Te P_TeTeTeTePi O_Te2Te2Te2Te N_TrTrTrPi2 C_TrTrTrPi C_TrTrTrPi H_S C_TrTrTrPi N_Tr2TrTrPi N_Tr2TrTrPi C_TrTrTrPi C_TrTrTrPi H_S N_Tr2TrTrPi N_TrTrTrPi2 H_S H_S S_Te2Te2TeTe O_Tr2Tr2TrPi C_TrTrTrPi C_TrTrTrPi H_S C_TrTrTrPi H_S C_TrTrTrPi C_TrTrTrPi H_S C_TrTrTrPi H_S C_TrTrTrPi H_S C_TrTrTrPi C_TrTrTrPi O_Te2Te2TeTe H_S O_Tr2TrTrPi2 C_TeTeTeTe H_S H_S H_S
M  BCL BND NonConjugatedSingleBond NonConjugatedSingleBondInRing NonConjugatedSingleBondInRing NonConjugatedSingleBond NonConjugatedSingleBondInRing NonConjugatedSingleBond NonConjugatedSingleBondInRing NonConjugatedSingleBond NonConjugatedSingleBond NonConjugatedSingleBondInRing NonConjugatedSingleBond NonConjugatedSingleBond NonConjugatedSingleBond NonConjugatedSingleBond NonConjugatedSingleBond NonConjugatedSingleBond NonConjugatedSingleBond NonConjugatedSingleBond NonConjugatedSingleBond NonConjugatedSingleBond NonConjugatedSingleBond NonConjugatedSingleBond AmideSingleBond ConjugatedDoubleBond NonConjugatedSingleBond NonConjugatedSingleBond NonConjugatedSingleBond NonConjugatedSingleBond NonConjugatedSingleBond NonConjugatedSingleBond NonConjugatedSingleBond NonConjugatedSingleBond AmideSingleBond ConjugatedDoubleBond NonConjugatedSingleBond NonConjugatedSingleBond NonConjugatedSingleBond NonConjugatedSingleBond NonConjugatedSingleBond NonConjugatedSingleBond NonConjugatedSingleBond NonConjugatedSingleBond NonConjugatedSingleBond NonConjugatedSingleBond NonConjugatedSingleBond NonConjugatedSingleBond NonConjugatedSingleBond NonConjugatedSingleBond NonConjugatedSingleBond NonConjugatedSingleBond NonConjugatedSingleBond ConjugatedSingleBond ConjugatedSingleBond ConjugatedSingleBond ConjugatedSingleBond NonConjugatedSingleBond ConjugatedSingleBond ConjugatedDoubleBond ConjugatedSingleBond ConjugatedDoubleBond NonConjugatedSingleBond NonConjugatedSingleBond ConjugatedSingleBond ConjugatedDoubleBond ConjugatedSingleBond ConjugatedSingleBond AromaticSingleBond AromaticSingleBond AromaticDoubleBond AromaticSingleBond NonConjugatedSingleBond AromaticDoubleBond AromaticSingleBond AromaticSingleBond AromaticDoubleBond AromaticDoubleBond ConjugatedSingleBond NonConjugatedSingleBond AromaticSingleBond NonConjugatedSingleBond NonConjugatedSingleBond ConjugatedSingleBond ConjugatedDoubleBond ConjugatedSingleBond NonConjugatedSingleBond ConjugatedDoubleBond NonConjugatedSingleBond ConjugatedSingleBond AromaticSingleBond AromaticDoubleBond NonConjugatedSingleBond AromaticDoubleBond NonConjugatedSingleBond AromaticSingleBond NonConjugatedSingleBond AromaticSingleBond AromaticDoubleBond ConjugatedSingleBond ConjugatedSingleBond NonConjugatedSingleBond NonConjugatedSingleBond NonConjugatedSingleBond NonConjugatedSingleBond NonConjugatedSingleBond
M  BCL CHI   1   R   4   R   6   R   8   S  44   S  55   S  56   R
M  BCL DBI - - - - - - - - - - E - - -
M  END
> <ConfClashScore>
0 

> <ConfOneFourInteractionScore>
-0.984203 

> <ConfScore>
-0.00125021 

> <ConfScorePBest>
0.0097425 

> <ConfTolerance>
2.79742 

$$$$
L02.****
  PyMOL2.5          3D                             0

101104  0  0  0  0  0  0  0  0999 V2000
   15.2653   -4.4744   -5.5737 C   0  0  0  1  0  0  0  0  0  0  0  0
   15.2941   -5.4146   -5.0638 H   0  0  0  1  0  0  0  0  0  0  0  0
   14.5720   -3.4715   -4.7703 O   0  0  0  1  0  0  0  0  0  0  0  0
   14.4413   -4.5756   -6.8368 C   0  0  0  1  0  0  0  0  0  0  0  0
   15.0489   -4.8690   -7.6672 H   0  0  0  1  0  0  0  0  0  0  0  0
   13.8073   -2.6290   -5.5857 C   0  0  0  1  0  0  0  0  0  0  0  0
   14.1888   -1.6306   -5.5353 H   0  0  0  1  0  0  0  0  0  0  0  0
   13.9023   -3.1515   -7.0279 C   0  0  0  1  0  0  0  0  0  0  0  0
   12.9411   -3.1629   -7.4980 H   0  0  0  1  0  0  0  0  0  0  0  0
   13.3719   -5.5086   -6.6752 O   0  0  0  1  0  0  0  0  0  0  0  0
   12.7086   -5.3562   -7.3522 H   0  0  0  1  0  0  0  0  0  0  0  0
   11.4048   -3.1322  -13.1086 C   0  0  0  1  0  0  0  0  0  0  0  0
   10.9966   -3.8754  -13.7613 H   0  0  0  1  0  0  0  0  0  0  0  0
   11.9618   -2.4207  -13.6816 H   0  0  0  1  0  0  0  0  0  0  0  0
   12.3384   -3.8051  -12.1342 C   0  0  0  1  0  0  0  0  0  0  0  0
   11.7796   -4.4469  -11.4855 H   0  0  0  1  0  0  0  0  0  0  0  0
   12.8463   -3.0642  -11.5528 H   0  0  0  1  0  0  0  0  0  0  0  0
   10.3089   -2.4414  -12.4454 N   0  0  0  1  0  0  0  0  0  0  0  0
   10.5176   -1.7524  -11.7805 H   0  0  0  1  0  0  0  0  0  0  0  0
    9.0283   -2.7140  -12.7115 C   0  0  0  1  0  0  0  0  0  0  0  0
    8.6794   -3.6174  -13.4702 O   0  0  0  1  0  0  0  0  0  0  0  0
    6.9612   -2.6328  -11.2659 C   0  0  0  1  0  0  0  0  0  0  0  0
    6.4823   -3.3026  -11.9492 H   0  0  0  1  0  0  0  0  0  0  0  0
    6.2388   -1.9508  -10.8687 H   0  0  0  1  0  0  0  0  0  0  0  0
    8.0164   -1.8400  -12.0200 C   0  0  0  1  0  0  0  0  0  0  0  0
    7.5276   -1.2368  -12.7563 H   0  0  0  1  0  0  0  0  0  0  0  0
    8.5297   -1.2091  -11.3248 H   0  0  0  1  0  0  0  0  0  0  0  0
    7.5263   -3.4125  -10.1631 N   0  0  0  1  0  0  0  0  0  0  0  0
    8.1134   -2.9642   -9.5192 H   0  0  0  1  0  0  0  0  0  0  0  0
    6.5059   -5.3405  -10.7377 O   0  0  0  1  0  0  0  0  0  0  0  0
    7.2693   -4.7139  -10.0041 C   0  0  0  1  0  0  0  0  0  0  0  0
    9.7643   -7.0116   -8.2062 C   0  0  0  1  0  0  0  0  0  0  0  0
   10.6603   -7.4993   -8.5293 H   0  0  0  1  0  0  0  0  0  0  0  0
    9.0184   -7.7458   -7.9837 H   0  0  0  1  0  0  0  0  0  0  0  0
    8.8562   -6.9880  -10.5092 C   0  0  0  1  0  0  0  0  0  0  0  0
    9.0376   -6.4656  -11.4252 H   0  0  0  1  0  0  0  0  0  0  0  0
    7.8167   -7.2314  -10.4375 H   0  0  0  1  0  0  0  0  0  0  0  0
    9.4357   -7.8873  -10.4909 H   0  0  0  1  0  0  0  0  0  0  0  0
    9.2554   -6.0990   -9.3253 C   0  0  0  1  0  0  0  0  0  0  0  0
   10.3295   -5.1114   -9.8435 C   0  0  0  1  0  0  0  0  0  0  0  0
    9.9887   -4.6563  -10.7499 H   0  0  0  1  0  0  0  0  0  0  0  0
   11.2400   -5.6413  -10.0311 H   0  0  0  1  0  0  0  0  0  0  0  0
   10.5022   -4.3542   -9.1075 H   0  0  0  1  0  0  0  0  0  0  0  0
    7.9834   -5.3908   -8.8474 C   0  0  0  1  0  0  0  0  0  0  0  0
    7.3271   -6.1499   -8.4759 H   0  0  0  1  0  0  0  0  0  0  0  0
    8.2821   -4.5004   -7.7788 O   0  0  0  1  0  0  0  0  0  0  0  0
    7.8320   -3.6648   -7.9227 H   0  0  0  1  0  0  0  0  0  0  0  0
   10.0447   -6.2409   -7.0141 O   0  0  0  1  0  0  0  0  0  0  0  0
   10.7708   -6.0852   -4.5697 O   0  0  0  1  0  0  0  0  0  0  0  0
   11.9361   -4.0225   -5.1290 O   0  0  0  1  0  0  0  0  0  0  0  0
    8.5632   -7.0039   -5.0996 O   0  0  0  0  0  0  0  0  0  0  0  0
   10.6071   -8.3212   -5.7979 O   0  0  0  1  0  0  0  0  0  0  0  0
    9.3788   -4.1550   -5.2134 O   0  0  0  0  0  0  0  0  0  0  0  0
   10.5692   -4.0747   -2.9781 O   0  0  0  1  0  0  0  0  0  0  0  0
   10.0013   -6.9715   -5.6115 P   0  0  0  1  0  0  0  0  0  0  0  0
   10.5917   -4.5030   -4.4086 P   0  0  0  1  0  0  0  0  0  0  0  0
   12.3839   -2.6422   -5.1345 C   0  0  0  1  0  0  0  0  0  0  0  0
   11.7830   -2.0668   -5.8074 H   0  0  0  1  0  0  0  0  0  0  0  0
   12.3101   -2.2312   -4.1493 H   0  0  0  1  0  0  0  0  0  0  0  0
   14.8175   -2.3474   -7.8163 O   0  0  0  1  0  0  0  0  0  0  0  0
   14.9468   -0.0982   -6.5745 O   0  0  0  1  0  0  0  0  0  0  0  0
   13.2624   -0.4187   -8.5281 O   0  5  0  1  0  0  0  0  0  0  0  0
   14.7279   -0.7122   -7.9032 P   0  0  0  1  0  0  0  0  0  0  0  0
   15.9059   -0.3163   -8.9425 O   0  5  0  1  0  0  0  0  0  0  0  0
   16.6295   -4.0418   -5.8783 N   0  0  0  1  0  0  0  0  0  0  0  0
   17.6538   -3.8478   -4.9878 C   0  0  0  1  0  0  0  0  0  0  0  0
   17.1453   -3.7484   -7.1033 C   0  0  0  1  0  0  0  0  0  0  0  0
   16.5811   -3.8030   -7.9752 H   0  0  0  1  0  0  0  0  0  0  0  0
   18.7514   -3.4459   -5.7609 C   0  0  0  1  0  0  0  0  0  0  0  0
   17.6299   -4.0170   -3.6650 N   0  0  0  1  0  0  0  0  0  0  0  0
   18.4015   -3.3935   -7.1012 N   0  0  0  1  0  0  0  0  0  0  0  0
   19.9259   -3.2043   -5.0545 C   0  0  0  1  0  0  0  0  0  0  0  0
   18.8099   -3.7449   -3.1215 C   0  0  0  1  0  0  0  0  0  0  0  0
   18.8645   -3.8512   -2.0884 H   0  0  0  1  0  0  0  0  0  0  0  0
   19.9422   -3.3509   -3.7252 N   0  0  0  1  0  0  0  0  0  0  0  0
   21.0937   -2.8158   -5.6564 N   0  0  0  1  0  0  0  0  0  0  0  0
   21.1338   -2.7181   -6.6307 H   0  0  0  1  0  0  0  0  0  0  0  0
   21.8889   -2.6357   -5.1127 H   0  0  0  1  0  0  0  0  0  0  0  0
   13.5449   -4.7810  -13.0631 S   0  0  0  1  0  0  0  0  0  0  0  0
   14.4420   -4.8129  -10.5585 O   0  0  0  1  0  0  0  0  0  0  0  0
   14.6398   -5.1655  -11.7022 C   0  0  0  1  0  0  0  0  0  0  0  0
   15.7819   -5.9495  -12.1621 C   0  0  0  1  0  0  0  0  0  0  0  0
   15.7994   -6.3155  -13.1354 H   0  0  0  1  0  0  0  0  0  0  0  0
   16.8029   -6.1993  -11.3416 C   0  0  0  1  0  0  0  0  0  0  0  0
   16.7253   -5.8060  -10.3819 H   0  0  0  1  0  0  0  0  0  0  0  0
   18.0372   -6.9712  -11.6333 C   0  0  0  1  0  0  0  0  0  0  0  0
   18.9237   -7.2763  -10.6123 C   0  0  0  1  0  0  0  0  0  0  0  0
   18.6907   -7.0274   -9.6297 H   0  0  0  1  0  0  0  0  0  0  0  0
   18.3445   -7.3068  -12.9383 C   0  0  0  1  0  0  0  0  0  0  0  0
   17.6776   -7.0815  -13.7039 H   0  0  0  1  0  0  0  0  0  0  0  0
   20.1172   -7.9113  -10.8998 C   0  0  0  1  0  0  0  0  0  0  0  0
   20.7840   -8.1366  -10.1342 H   0  0  0  1  0  0  0  0  0  0  0  0
   19.5414   -7.9437  -13.2269 C   0  0  0  1  0  0  0  0  0  0  0  0
   20.4252   -8.2479  -12.2088 C   0  0  0  1  0  0  0  0  0  0  0  0
   21.5800   -8.8755  -12.5395 O   0  0  0  1  0  0  0  0  0  0  0  0
   21.4166   -9.8163  -12.6378 H   0  0  0  1  0  0  0  0  0  0  0  0
   19.7349   -8.2174  -14.5390 O   0  0  0  1  0  0  0  0  0  0  0  0
   19.0435   -7.3930  -15.4902 C   0  0  0  1  0  0  0  0  0  0  0  0
   19.2810   -7.7162  -16.4822 H   0  0  0  1  0  0  0  0  0  0  0  0
   19.3459   -6.3743  -15.3652 H   0  0  0  1  0  0  0  0  0  0  0  0
   17.9884   -7.4744  -15.3319 H   0  0  0  1  0  0  0  0  0  0  0  0
  1  2  1  0  0  0  0
  1  3  1  0  0  0  0
  1  4  1  0  0  0  0
  1 65  1  0  0  0  0
  3  6  1  0  0  0  0
  4  5  1  0  0  0  0
  4  8  1  0  0  0  0
  4 10  1  0  0  0  0
  6  7  1  0  0  0  0
  6  8  1  0  0  0  0
  6 57  1  0  0  0  0
  8  9  1  0  0  0  0
  8 60  1  0  0  0  0
 10 11  1  0  0  0  0
 12 13  1  0  0  0  0
 12 14  1  0  0  0  0
 12 15  1  0  0  0  0
 12 18  1  0  0  0  0
 15 16  1  0  0  0  0
 15 17  1  0  0  0  0
 15 79  1  0  0  0  0
 18 19  1  0  0  0  0
 18 20  1  0  0  0  0
 20 21  2  0  0  0  0
 20 25  1  0  0  0  0
 22 23  1  0  0  0  0
 22 24  1  0  0  0  0
 22 25  1  0  0  0  0
 22 28  1  0  0  0  0
 25 26  1  0  0  0  0
 25 27  1  0  0  0  0
 28 29  1  0  0  0  0
 28 31  1  0  0  0  0
 30 31  2  0  0  0  0
 31 44  1  0  0  0  0
 32 33  1  0  0  0  0
 32 34  1  0  0  0  0
 32 39  1  0  0  0  0
 32 48  1  0  0  0  0
 35 36  1  0  0  0  0
 35 37  1  0  0  0  0
 35 38  1  0  0  0  0
 35 39  1  0  0  0  0
 39 40  1  0  0  0  0
 39 44  1  0  0  0  0
 40 41  1  0  0  0  0
 40 42  1  0  0  0  0
 40 43  1  0  0  0  0
 44 45  1  0  0  0  0
 44 46  1  0  0  0  0
 46 47  1  0  0  0  0
 48 55  1  0  0  0  0
 49 55  1  0  0  0  0
 49 56  1  0  0  0  0
 50 56  1  0  0  0  0
 50 57  1  0  0  0  0
 51 55  1  0  0  0  0
 52 55  2  0  0  0  0
 53 56  1  0  0  0  0
 54 56  2  0  0  0  0
 57 58  1  0  0  0  0
 57 59  1  0  0  0  0
 60 63  1  0  0  0  0
 61 63  2  0  0  0  0
 62 63  1  0  0  0  0
 63 64  1  0  0  0  0
 65 66  1  0  0  0  0
 65 67  1  0  0  0  0
 66 69  2  0  0  0  0
 66 70  1  0  0  0  0
 67 68  1  0  0  0  0
 67 71  2  0  0  0  0
 69 71  1  0  0  0  0
 69 72  1  0  0  0  0
 70 73  2  0  0  0  0
 72 75  2  0  0  0  0
 72 76  1  0  0  0  0
 73 74  1  0  0  0  0
 73 75  1  0  0  0  0
 76 77  1  0  0  0  0
 76 78  1  0  0  0  0
 79 81  1  0  0  0  0
 80 81  2  0  0  0  0
 81 82  1  0  0  0  0
 82 83  1  0  0  0  0
 82 84  2  0  0  0  0
 84 85  1  0  0  0  0
 84 86  1  0  0  0  0
 86 87  1  0  0  0  0
 86 89  2  0  0  0  0
 87 88  1  0  0  0  0
 87 91  2  0  0  0  0
 89 90  1  0  0  0  0
 89 93  1  0  0  0  0
 91 92  1  0  0  0  0
 91 94  1  0  0  0  0
 93 94  2  0  0  0  0
 93 97  1  0  0  0  0
 94 95  1  0  0  0  0
 95 96  1  0  0  0  0
 97 98  1  0  0  0  0
 98 99  1  0  0  0  0
 98100  1  0  0  0  0
 98101  1  0  0  0  0
M  BCL ATM C_TeTeTeTe H_S O_Te2Te2TeTe C_TeTeTeTe H_S C_TeTeTeTe H_S C_TeTeTeTe H_S O_Te2Te2TeTe H_S C_TeTeTeTe H_S H_S C_TeTeTeTe H_S H_S N_TrTrTrPi2 H_S C_TrTrTrPi O_Tr2Tr2TrPi C_TeTeTeTe H_S H_S C_TeTeTeTe H_S H_S N_TrTrTrPi2 H_S O_Tr2Tr2TrPi C_TrTrTrPi C_TeTeTeTe H_S H_S C_TeTeTeTe H_S H_S H_S C_TeTeTeTe C_TeTeTeTe H_S H_S H_S C_TeTeTeTe H_S O_Te2Te2TeTe H_S O_Tr2TrTrPi2 O_Tr2TrTrPi2 O_Tr2TrTrPi2 O_Te2Te2TeTe O_Tr2Tr2TrPi O_Te2Te2TeTe O_Tr2Tr2TrPi P_TeTeTeTePi P_TeTeTeTePi C_TeTeTeTe H_S H_S O_Tr2TrTrPi2 O_Tr2Tr2TrPi O_Te2Te2Te2Te P_TeTeTeTePi O_Te2Te2Te2Te N_TrTrTrPi2 C_TrTrTrPi C_TrTrTrPi H_S C_TrTrTrPi N_Tr2TrTrPi N_Tr2TrTrPi C_TrTrTrPi C_TrTrTrPi H_S N_Tr2TrTrPi N_TrTrTrPi2 H_S H_S S_Te2Te2TeTe O_Tr2Tr2TrPi C_TrTrTrPi C_TrTrTrPi H_S C_TrTrTrPi H_S C_TrTrTrPi C_TrTrTrPi H_S C_TrTrTrPi H_S C_TrTrTrPi H_S C_TrTrTrPi C_TrTrTrPi O_Te2Te2TeTe H_S O_Tr2TrTrPi2 C_TeTeTeTe H_S H_S H_S
M  BCL BND NonConjugatedSingleBond NonConjugatedSingleBondInRing NonConjugatedSingleBondInRing NonConjugatedSingleBond NonConjugatedSingleBondInRing NonConjugatedSingleBond NonConjugatedSingleBondInRing NonConjugatedSingleBond NonConjugatedSingleBond NonConjugatedSingleBondInRing NonConjugatedSingleBond NonConjugatedSingleBond NonConjugatedSingleBond NonConjugatedSingleBond NonConjugatedSingleBond NonConjugatedSingleBond NonConjugatedSingleBond NonConjugatedSingleBond NonConjugatedSingleBond NonConjugatedSingleBond NonConjugatedSingleBond NonConjugatedSingleBond AmideSingleBond ConjugatedDoubleBond NonConjugatedSingleBond NonConjugatedSingleBond NonConjugatedSingleBond NonConjugatedSingleBond NonConjugatedSingleBond NonConjugatedSingleBond NonConjugatedSingleBond NonConjugatedSingleBond AmideSingleBond ConjugatedDoubleBond NonConjugatedSingleBond NonConjugatedSingleBond NonConjugatedSingleBond NonConjugatedSingleBond NonConjugatedSingleBond NonConjugatedSingleBond NonConjugatedSingleBond NonConjugatedSingleBond NonConjugatedSingleBond NonConjugatedSingleBond NonConjugatedSingleBond NonConjugatedSingleBond NonConjugatedSingleBond NonConjugatedSingleBond NonConjugatedSingleBond NonConjugatedSingleBond NonConjugatedSingleBond ConjugatedSingleBond ConjugatedSingleBond ConjugatedSingleBond ConjugatedSingleBond NonConjugatedSingleBond ConjugatedSingleBond ConjugatedDoubleBond ConjugatedSingleBond ConjugatedDoubleBond NonConjugatedSingleBond NonConjugatedSingleBond ConjugatedSingleBond ConjugatedDoubleBond ConjugatedSingleBond ConjugatedSingleBond AromaticSingleBond AromaticSingleBond AromaticDoubleBond AromaticSingleBond NonConjugatedSingleBond AromaticDoubleBond AromaticSingleBond AromaticSingleBond AromaticDoubleBond AromaticDoubleBond ConjugatedSingleBond NonConjugatedSingleBond AromaticSingleBond NonConjugatedSingleBond NonConjugatedSingleBond ConjugatedSingleBond ConjugatedDoubleBond ConjugatedSingleBond NonConjugatedSingleBond ConjugatedDoubleBond NonConjugatedSingleBond ConjugatedSingleBond AromaticSingleBond AromaticDoubleBond NonConjugatedSingleBond AromaticDoubleBond NonConjugatedSingleBond AromaticSingleBond NonConjugatedSingleBond AromaticSingleBond AromaticDoubleBond ConjugatedSingleBond ConjugatedSingleBond NonConjugatedSingleBond NonConjugatedSingleBond NonConjugatedSingleBond NonConjugatedSingleBond NonConjugatedSingleBond
M  BCL CHI   1   R   4   R   6   R   8   S  44   S  55   S  56   R
M  BCL DBI - - - - - - - - - - E - - -
M  END
> <ConfClashScore>
0 

> <ConfOneFourInteractionScore>
-0.980982 

> <ConfScore>
0.0108803 

> <ConfScorePBest>
0.0096395 

> <ConfTolerance>
2.69917 

$$$$
L02.****
  PyMOL2.5          3D                             0

101104  0  0  0  0  0  0  0  0999 V2000
   15.2804   -4.5279   -5.5724 C   0  0  0  1  0  0  0  0  0  0  0  0
   14.9005   -5.1100   -6.3859 H   0  0  0  1  0  0  0  0  0  0  0  0
   15.2591   -5.2877   -4.3588 O   0  0  0  1  0  0  0  0  0  0  0  0
   14.3827   -3.3303   -5.3097 C   0  0  0  1  0  0  0  0  0  0  0  0
   14.6503   -2.4995   -5.9286 H   0  0  0  1  0  0  0  0  0  0  0  0
   14.8751   -4.4312   -3.2669 C   0  0  0  1  0  0  0  0  0  0  0  0
   15.6475   -4.4102   -2.5268 H   0  0  0  1  0  0  0  0  0  0  0  0
   14.6696   -3.0447   -3.8452 C   0  0  0  1  0  0  0  0  0  0  0  0
   13.8419   -2.5517   -3.3795 H   0  0  0  1  0  0  0  0  0  0  0  0
   13.0059   -3.6560   -5.5169 O   0  0  0  1  0  0  0  0  0  0  0  0
   12.5217   -2.8629   -5.7580 H   0  0  0  1  0  0  0  0  0  0  0  0
   10.7991    2.2289   -8.4612 C   0  0  0  1  0  0  0  0  0  0  0  0
   11.2664    3.0071   -9.0276 H   0  0  0  1  0  0  0  0  0  0  0  0
    9.7655    2.1629   -8.7299 H   0  0  0  1  0  0  0  0  0  0  0  0
   10.8821    2.5963   -7.0010 C   0  0  0  1  0  0  0  0  0  0  0  0
   11.9112    2.6634   -6.7156 H   0  0  0  1  0  0  0  0  0  0  0  0
   10.3995    1.8371   -6.4217 H   0  0  0  1  0  0  0  0  0  0  0  0
   11.4390    0.9688   -8.8082 N   0  0  0  1  0  0  0  0  0  0  0  0
   12.3411    0.9861   -9.1908 H   0  0  0  1  0  0  0  0  0  0  0  0
   10.8395   -0.2108   -8.6234 C   0  0  0  1  0  0  0  0  0  0  0  0
    9.6636   -0.3056   -8.2742 O   0  0  0  1  0  0  0  0  0  0  0  0
   10.9382   -2.7579   -8.6829 C   0  0  0  1  0  0  0  0  0  0  0  0
   10.0291   -2.8029   -9.2454 H   0  0  0  1  0  0  0  0  0  0  0  0
   10.7156   -2.8257   -7.6385 H   0  0  0  1  0  0  0  0  0  0  0  0
   11.6329   -1.4431   -8.9610 C   0  0  0  1  0  0  0  0  0  0  0  0
   12.5372   -1.4202   -8.3896 H   0  0  0  1  0  0  0  0  0  0  0  0
   11.8686   -1.4085  -10.0041 H   0  0  0  1  0  0  0  0  0  0  0  0
   11.7946   -3.8709   -9.0645 N   0  0  0  1  0  0  0  0  0  0  0  0
   12.6612   -3.9753   -8.6190 H   0  0  0  1  0  0  0  0  0  0  0  0
   10.3625   -4.7489  -10.5916 O   0  0  0  1  0  0  0  0  0  0  0  0
   11.4411   -4.7540   -9.9997 C   0  0  0  1  0  0  0  0  0  0  0  0
   12.4045   -6.4925   -7.7424 C   0  0  0  1  0  0  0  0  0  0  0  0
   11.7730   -5.6442   -7.5794 H   0  0  0  1  0  0  0  0  0  0  0  0
   13.4220   -6.2223   -7.5510 H   0  0  0  1  0  0  0  0  0  0  0  0
   10.8534   -7.5691   -9.3859 C   0  0  0  1  0  0  0  0  0  0  0  0
   10.8314   -8.1538  -10.2817 H   0  0  0  1  0  0  0  0  0  0  0  0
   10.1428   -6.7728   -9.4624 H   0  0  0  1  0  0  0  0  0  0  0  0
   10.6064   -8.1890   -8.5494 H   0  0  0  1  0  0  0  0  0  0  0  0
   12.2573   -6.9839   -9.1910 C   0  0  0  1  0  0  0  0  0  0  0  0
   13.2696   -8.1105   -9.4284 C   0  0  0  1  0  0  0  0  0  0  0  0
   13.1765   -8.8433   -8.6542 H   0  0  0  1  0  0  0  0  0  0  0  0
   14.2605   -7.7069   -9.4198 H   0  0  0  1  0  0  0  0  0  0  0  0
   13.0783   -8.5676  -10.3767 H   0  0  0  1  0  0  0  0  0  0  0  0
   12.4521   -5.8780  -10.2331 C   0  0  0  1  0  0  0  0  0  0  0  0
   13.4354   -5.4739  -10.1113 H   0  0  0  1  0  0  0  0  0  0  0  0
   12.3215   -6.4349  -11.5301 O   0  0  0  1  0  0  0  0  0  0  0  0
   11.3910   -6.5422  -11.7406 H   0  0  0  1  0  0  0  0  0  0  0  0
   12.0096   -7.5760   -6.8685 O   0  0  0  1  0  0  0  0  0  0  0  0
   10.7999   -6.4760   -4.9358 O   0  0  0  1  0  0  0  0  0  0  0  0
   12.6159   -5.2104   -3.6490 O   0  0  0  1  0  0  0  0  0  0  0  0
    9.7025   -6.8608   -7.1933 O   0  0  0  0  0  0  0  0  0  0  0  0
   10.2047   -8.7778   -5.5328 O   0  0  0  1  0  0  0  0  0  0  0  0
   11.0901   -6.9591   -2.5389 O   0  0  0  0  0  0  0  0  0  0  0  0
   12.9505   -7.5572   -4.1510 O   0  0  0  1  0  0  0  0  0  0  0  0
   10.5937   -7.5057   -6.1663 P   0  0  0  1  0  0  0  0  0  0  0  0
   11.8823   -6.6591   -3.7554 P   0  0  0  1  0  0  0  0  0  0  0  0
   13.6408   -4.9100   -2.6666 C   0  0  0  1  0  0  0  0  0  0  0  0
   13.2686   -4.1568   -2.0041 H   0  0  0  1  0  0  0  0  0  0  0  0
   13.8536   -5.8000   -2.1120 H   0  0  0  1  0  0  0  0  0  0  0  0
   15.8630   -2.2339   -3.6951 O   0  0  0  1  0  0  0  0  0  0  0  0
   14.5304   -0.1970   -4.7301 O   0  0  0  1  0  0  0  0  0  0  0  0
   16.9704   -0.7659   -5.4159 O   0  5  0  1  0  0  0  0  0  0  0  0
   15.8417   -0.6930   -4.2561 P   0  0  0  1  0  0  0  0  0  0  0  0
   16.5935    0.2004   -3.1331 O   0  5  0  1  0  0  0  0  0  0  0  0
   16.6425   -4.0901   -5.8793 N   0  0  0  1  0  0  0  0  0  0  0  0
   17.6544   -3.8482   -4.9864 C   0  0  0  1  0  0  0  0  0  0  0  0
   17.1681   -3.8386   -7.1094 C   0  0  0  1  0  0  0  0  0  0  0  0
   16.6144   -3.9346   -7.9844 H   0  0  0  1  0  0  0  0  0  0  0  0
   18.7554   -3.4629   -5.7631 C   0  0  0  1  0  0  0  0  0  0  0  0
   17.6179   -3.9656   -3.6583 N   0  0  0  1  0  0  0  0  0  0  0  0
   18.4197   -3.4678   -7.1080 N   0  0  0  1  0  0  0  0  0  0  0  0
   19.9189   -3.1787   -5.0544 C   0  0  0  1  0  0  0  0  0  0  0  0
   18.7883   -3.6572   -3.1135 C   0  0  0  1  0  0  0  0  0  0  0  0
   18.8328   -3.7222   -2.0765 H   0  0  0  1  0  0  0  0  0  0  0  0
   19.9223   -3.2727   -3.7203 N   0  0  0  1  0  0  0  0  0  0  0  0
   21.0883   -2.7993   -5.6588 N   0  0  0  1  0  0  0  0  0  0  0  0
   21.7426   -3.4770   -5.9290 H   0  0  0  1  0  0  0  0  0  0  0  0
   21.2706   -1.8501   -5.8210 H   0  0  0  1  0  0  0  0  0  0  0  0
   10.0762    4.1838   -6.6827 S   0  0  0  1  0  0  0  0  0  0  0  0
   12.4982    4.9745   -6.8864 O   0  0  0  1  0  0  0  0  0  0  0  0
   11.4456    5.3145   -6.7155 C   0  0  0  1  0  0  0  0  0  0  0  0
   10.9877    6.6827   -6.4941 C   0  0  0  1  0  0  0  0  0  0  0  0
   10.0038    6.7898   -6.1746 H   0  0  0  1  0  0  0  0  0  0  0  0
   11.6781    7.8101   -6.6520 C   0  0  0  1  0  0  0  0  0  0  0  0
   12.6641    7.7230   -6.9712 H   0  0  0  1  0  0  0  0  0  0  0  0
   11.1622    9.1777   -6.4120 C   0  0  0  1  0  0  0  0  0  0  0  0
    9.9611    9.3474   -5.7412 C   0  0  0  1  0  0  0  0  0  0  0  0
    9.4306    8.5178   -5.4067 H   0  0  0  1  0  0  0  0  0  0  0  0
   11.8697   10.2805   -6.8518 C   0  0  0  1  0  0  0  0  0  0  0  0
   12.7728   10.1534   -7.3515 H   0  0  0  1  0  0  0  0  0  0  0  0
    9.4683   10.6191   -5.5168 C   0  0  0  1  0  0  0  0  0  0  0  0
    8.5651   10.7462   -5.0171 H   0  0  0  1  0  0  0  0  0  0  0  0
   11.3757   11.5560   -6.6269 C   0  0  0  1  0  0  0  0  0  0  0  0
   10.1780   11.7251   -5.9580 C   0  0  0  1  0  0  0  0  0  0  0  0
    9.6768   12.9618   -5.7215 O   0  0  0  1  0  0  0  0  0  0  0  0
    9.0779   12.9269   -4.9720 H   0  0  0  1  0  0  0  0  0  0  0  0
   11.9737   12.7041   -7.0131 O   0  0  0  1  0  0  0  0  0  0  0  0
   13.1376   12.6475   -7.8525 C   0  0  0  1  0  0  0  0  0  0  0  0
   12.8455   12.4011   -8.8520 H   0  0  0  1  0  0  0  0  0  0  0  0
   13.8079   11.9000   -7.4826 H   0  0  0  1  0  0  0  0  0  0  0  0
   13.6266   13.5992   -7.8485 H   0  0  0  1  0  0  0  0  0  0  0  0
  1  2  1  0  0  0  0
  1  3  1  0  0  0  0
  1  4  1  0  0  0  0
  1 65  1  0  0  0  0
  3  6  1  0  0  0  0
  4  5  1  0  0  0  0
  4  8  1  0  0  0  0
  4 10  1  0  0  0  0
  6  7  1  0  0  0  0
  6  8  1  0  0  0  0
  6 57  1  0  0  0  0
  8  9  1  0  0  0  0
  8 60  1  0  0  0  0
 10 11  1  0  0  0  0
 12 13  1  0  0  0  0
 12 14  1  0  0  0  0
 12 15  1  0  0  0  0
 12 18  1  0  0  0  0
 15 16  1  0  0  0  0
 15 17  1  0  0  0  0
 15 79  1  0  0  0  0
 18 19  1  0  0  0  0
 18 20  1  0  0  0  0
 20 21  2  0  0  0  0
 20 25  1  0  0  0  0
 22 23  1  0  0  0  0
 22 24  1  0  0  0  0
 22 25  1  0  0  0  0
 22 28  1  0  0  0  0
 25 26  1  0  0  0  0
 25 27  1  0  0  0  0
 28 29  1  0  0  0  0
 28 31  1  0  0  0  0
 30 31  2  0  0  0  0
 31 44  1  0  0  0  0
 32 33  1  0  0  0  0
 32 34  1  0  0  0  0
 32 39  1  0  0  0  0
 32 48  1  0  0  0  0
 35 36  1  0  0  0  0
 35 37  1  0  0  0  0
 35 38  1  0  0  0  0
 35 39  1  0  0  0  0
 39 40  1  0  0  0  0
 39 44  1  0  0  0  0
 40 41  1  0  0  0  0
 40 42  1  0  0  0  0
 40 43  1  0  0  0  0
 44 45  1  0  0  0  0
 44 46  1  0  0  0  0
 46 47  1  0  0  0  0
 48 55  1  0  0  0  0
 49 55  1  0  0  0  0
 49 56  1  0  0  0  0
 50 56  1  0  0  0  0
 50 57  1  0  0  0  0
 51 55  1  0  0  0  0
 52 55  2  0  0  0  0
 53 56  1  0  0  0  0
 54 56  2  0  0  0  0
 57 58  1  0  0  0  0
 57 59  1  0  0  0  0
 60 63  1  0  0  0  0
 61 63  2  0  0  0  0
 62 63  1  0  0  0  0
 63 64  1  0  0  0  0
 65 66  1  0  0  0  0
 65 67  1  0  0  0  0
 66 69  2  0  0  0  0
 66 70  1  0  0  0  0
 67 68  1  0  0  0  0
 67 71  2  0  0  0  0
 69 71  1  0  0  0  0
 69 72  1  0  0  0  0
 70 73  2  0  0  0  0
 72 75  2  0  0  0  0
 72 76  1  0  0  0  0
 73 74  1  0  0  0  0
 73 75  1  0  0  0  0
 76 77  1  0  0  0  0
 76 78  1  0  0  0  0
 79 81  1  0  0  0  0
 80 81  2  0  0  0  0
 81 82  1  0  0  0  0
 82 83  1  0  0  0  0
 82 84  2  0  0  0  0
 84 85  1  0  0  0  0
 84 86  1  0  0  0  0
 86 87  1  0  0  0  0
 86 89  2  0  0  0  0
 87 88  1  0  0  0  0
 87 91  2  0  0  0  0
 89 90  1  0  0  0  0
 89 93  1  0  0  0  0
 91 92  1  0  0  0  0
 91 94  1  0  0  0  0
 93 94  2  0  0  0  0
 93 97  1  0  0  0  0
 94 95  1  0  0  0  0
 95 96  1  0  0  0  0
 97 98  1  0  0  0  0
 98 99  1  0  0  0  0
 98100  1  0  0  0  0
 98101  1  0  0  0  0
M  BCL ATM C_TeTeTeTe H_S O_Te2Te2TeTe C_TeTeTeTe H_S C_TeTeTeTe H_S C_TeTeTeTe H_S O_Te2Te2TeTe H_S C_TeTeTeTe H_S H_S C_TeTeTeTe H_S H_S N_TrTrTrPi2 H_S C_TrTrTrPi O_Tr2Tr2TrPi C_TeTeTeTe H_S H_S C_TeTeTeTe H_S H_S N_TrTrTrPi2 H_S O_Tr2Tr2TrPi C_TrTrTrPi C_TeTeTeTe H_S H_S C_TeTeTeTe H_S H_S H_S C_TeTeTeTe C_TeTeTeTe H_S H_S H_S C_TeTeTeTe H_S O_Te2Te2TeTe H_S O_Tr2TrTrPi2 O_Tr2TrTrPi2 O_Tr2TrTrPi2 O_Te2Te2TeTe O_Tr2Tr2TrPi O_Te2Te2TeTe O_Tr2Tr2TrPi P_TeTeTeTePi P_TeTeTeTePi C_TeTeTeTe H_S H_S O_Tr2TrTrPi2 O_Tr2Tr2TrPi O_Te2Te2Te2Te P_TeTeTeTePi O_Te2Te2Te2Te N_TrTrTrPi2 C_TrTrTrPi C_TrTrTrPi H_S C_TrTrTrPi N_Tr2TrTrPi N_Tr2TrTrPi C_TrTrTrPi C_TrTrTrPi H_S N_Tr2TrTrPi N_TrTrTrPi2 H_S H_S S_Te2Te2TeTe O_Tr2Tr2TrPi C_TrTrTrPi C_TrTrTrPi H_S C_TrTrTrPi H_S C_TrTrTrPi C_TrTrTrPi H_S C_TrTrTrPi H_S C_TrTrTrPi H_S C_TrTrTrPi C_TrTrTrPi O_Te2Te2TeTe H_S O_Tr2TrTrPi2 C_TeTeTeTe H_S H_S H_S
M  BCL BND NonConjugatedSingleBond NonConjugatedSingleBondInRing NonConjugatedSingleBondInRing NonConjugatedSingleBond NonConjugatedSingleBondInRing NonConjugatedSingleBond NonConjugatedSingleBondInRing NonConjugatedSingleBond NonConjugatedSingleBond NonConjugatedSingleBondInRing NonConjugatedSingleBond NonConjugatedSingleBond NonConjugatedSingleBond NonConjugatedSingleBond NonConjugatedSingleBond NonConjugatedSingleBond NonConjugatedSingleBond NonConjugatedSingleBond NonConjugatedSingleBond NonConjugatedSingleBond NonConjugatedSingleBond NonConjugatedSingleBond AmideSingleBond ConjugatedDoubleBond NonConjugatedSingleBond NonConjugatedSingleBond NonConjugatedSingleBond NonConjugatedSingleBond NonConjugatedSingleBond NonConjugatedSingleBond NonConjugatedSingleBond NonConjugatedSingleBond AmideSingleBond ConjugatedDoubleBond NonConjugatedSingleBond NonConjugatedSingleBond NonConjugatedSingleBond NonConjugatedSingleBond NonConjugatedSingleBond NonConjugatedSingleBond NonConjugatedSingleBond NonConjugatedSingleBond NonConjugatedSingleBond NonConjugatedSingleBond NonConjugatedSingleBond NonConjugatedSingleBond NonConjugatedSingleBond NonConjugatedSingleBond NonConjugatedSingleBond NonConjugatedSingleBond NonConjugatedSingleBond ConjugatedSingleBond ConjugatedSingleBond ConjugatedSingleBond ConjugatedSingleBond NonConjugatedSingleBond ConjugatedSingleBond ConjugatedDoubleBond ConjugatedSingleBond ConjugatedDoubleBond NonConjugatedSingleBond NonConjugatedSingleBond ConjugatedSingleBond ConjugatedDoubleBond ConjugatedSingleBond ConjugatedSingleBond AromaticSingleBond AromaticSingleBond AromaticDoubleBond AromaticSingleBond NonConjugatedSingleBond AromaticDoubleBond AromaticSingleBond AromaticSingleBond AromaticDoubleBond AromaticDoubleBond ConjugatedSingleBond NonConjugatedSingleBond AromaticSingleBond NonConjugatedSingleBond NonConjugatedSingleBond ConjugatedSingleBond ConjugatedDoubleBond ConjugatedSingleBond NonConjugatedSingleBond ConjugatedDoubleBond NonConjugatedSingleBond ConjugatedSingleBond AromaticSingleBond AromaticDoubleBond NonConjugatedSingleBond AromaticDoubleBond NonConjugatedSingleBond AromaticSingleBond NonConjugatedSingleBond AromaticSingleBond AromaticDoubleBond ConjugatedSingleBond ConjugatedSingleBond NonConjugatedSingleBond NonConjugatedSingleBond NonConjugatedSingleBond NonConjugatedSingleBond NonConjugatedSingleBond
M  BCL CHI   1   R   4   R   6   R   8   S  44   S  55   S  56   R
M  BCL DBI - - - - - - - - - - E - - -
M  END
> <ConfClashScore>
0 

> <ConfOneFourInteractionScore>
-0.976758 

> <ConfScore>
0.0136609 

> <ConfScorePBest>
0.0095365 

> <ConfTolerance>
0.25 

$$$$
L02.****
  PyMOL2.5          3D                             0

101104  0  0  0  0  0  0  0  0999 V2000
   15.2843   -4.4710   -5.5309 C   0  0  0  1  0  0  0  0  0  0  0  0
   15.3226   -5.0841   -4.6547 H   0  0  0  1  0  0  0  0  0  0  0  0
   14.4342   -3.3331   -5.3093 O   0  0  0  1  0  0  0  0  0  0  0  0
   14.6603   -5.2300   -6.6774 C   0  0  0  1  0  0  0  0  0  0  0  0
   15.0486   -4.8951   -7.6165 H   0  0  0  1  0  0  0  0  0  0  0  0
   13.2111   -3.4884   -6.0599 C   0  0  0  1  0  0  0  0  0  0  0  0
   13.1940   -2.8093   -6.8866 H   0  0  0  1  0  0  0  0  0  0  0  0
   13.2021   -4.8994   -6.5481 C   0  0  0  1  0  0  0  0  0  0  0  0
   12.7239   -5.5459   -5.8423 H   0  0  0  1  0  0  0  0  0  0  0  0
   14.8817   -6.6348   -6.5436 O   0  0  0  1  0  0  0  0  0  0  0  0
   14.0424   -7.0798   -6.4056 H   0  0  0  1  0  0  0  0  0  0  0  0
    3.3167   -0.2143   -9.0260 C   0  0  0  1  0  0  0  0  0  0  0  0
    3.0385    0.1304  -10.0000 H   0  0  0  1  0  0  0  0  0  0  0  0
    2.4387   -0.3413   -8.4278 H   0  0  0  1  0  0  0  0  0  0  0  0
    4.1963    0.8254   -8.3785 C   0  0  0  1  0  0  0  0  0  0  0  0
    3.9327    1.7856   -8.7704 H   0  0  0  1  0  0  0  0  0  0  0  0
    5.2153    0.6079   -8.6218 H   0  0  0  1  0  0  0  0  0  0  0  0
    3.9805   -1.5025   -9.1592 N   0  0  0  1  0  0  0  0  0  0  0  0
    4.1247   -1.8697  -10.0563 H   0  0  0  1  0  0  0  0  0  0  0  0
    4.4099   -2.2178   -8.0770 C   0  0  0  1  0  0  0  0  0  0  0  0
    4.1706   -1.8682   -6.9359 O   0  0  0  1  0  0  0  0  0  0  0  0
    5.1438   -4.5283   -7.3663 C   0  0  0  1  0  0  0  0  0  0  0  0
    5.5666   -5.4278   -7.7624 H   0  0  0  1  0  0  0  0  0  0  0  0
    4.1224   -4.7014   -7.0984 H   0  0  0  1  0  0  0  0  0  0  0  0
    5.1901   -3.4520   -8.4430 C   0  0  0  1  0  0  0  0  0  0  0  0
    6.2110   -3.1744   -8.6034 H   0  0  0  1  0  0  0  0  0  0  0  0
    4.7837   -3.8563   -9.3465 H   0  0  0  1  0  0  0  0  0  0  0  0
    5.8869   -4.1509   -6.1628 N   0  0  0  1  0  0  0  0  0  0  0  0
    6.7805   -3.7607   -6.2616 H   0  0  0  1  0  0  0  0  0  0  0  0
    4.2500   -4.7339   -4.7243 O   0  0  0  1  0  0  0  0  0  0  0  0
    5.3894   -4.3200   -4.9344 C   0  0  0  1  0  0  0  0  0  0  0  0
    6.8987   -2.2046   -2.1231 C   0  0  0  1  0  0  0  0  0  0  0  0
    6.7525   -2.8797   -1.3059 H   0  0  0  1  0  0  0  0  0  0  0  0
    6.7059   -1.2035   -1.7981 H   0  0  0  1  0  0  0  0  0  0  0  0
    6.1529   -1.5693   -4.4235 C   0  0  0  1  0  0  0  0  0  0  0  0
    6.7883   -0.7731   -4.0962 H   0  0  0  1  0  0  0  0  0  0  0  0
    5.2040   -1.1706   -4.7160 H   0  0  0  1  0  0  0  0  0  0  0  0
    6.6041   -2.0656   -5.2571 H   0  0  0  1  0  0  0  0  0  0  0  0
    5.9555   -2.5702   -3.2788 C   0  0  0  1  0  0  0  0  0  0  0  0
    4.4915   -2.5580   -2.8238 C   0  0  0  1  0  0  0  0  0  0  0  0
    4.3806   -3.1800   -1.9603 H   0  0  0  1  0  0  0  0  0  0  0  0
    3.8701   -2.9285   -3.6122 H   0  0  0  1  0  0  0  0  0  0  0  0
    4.2019   -1.5568   -2.5814 H   0  0  0  1  0  0  0  0  0  0  0  0
    6.3215   -3.9678   -3.7922 C   0  0  0  1  0  0  0  0  0  0  0  0
    7.3169   -3.9211   -4.1819 H   0  0  0  1  0  0  0  0  0  0  0  0
    6.2861   -4.8793   -2.7109 O   0  0  0  1  0  0  0  0  0  0  0  0
    6.2279   -4.3941   -1.8846 H   0  0  0  1  0  0  0  0  0  0  0  0
    8.2559   -2.3108   -2.6133 O   0  0  0  1  0  0  0  0  0  0  0  0
   10.6488   -2.7587   -2.5453 O   0  0  0  1  0  0  0  0  0  0  0  0
   12.3152   -3.8894   -3.9149 O   0  0  0  1  0  0  0  0  0  0  0  0
    9.8842   -0.7891   -1.3767 O   0  0  0  0  0  0  0  0  0  0  0  0
    9.2441   -3.0669   -0.4260 O   0  0  0  1  0  0  0  0  0  0  0  0
   11.7005   -4.7752   -1.5906 O   0  0  0  0  0  0  0  0  0  0  0  0
   10.0911   -5.0721   -3.5249 O   0  0  0  1  0  0  0  0  0  0  0  0
    9.5145   -2.2047   -1.6009 P   0  0  0  1  0  0  0  0  0  0  0  0
   11.1510   -4.2433   -2.8771 P   0  0  0  1  0  0  0  0  0  0  0  0
   12.0156   -3.2330   -5.1728 C   0  0  0  1  0  0  0  0  0  0  0  0
   11.1314   -3.6485   -5.6093 H   0  0  0  1  0  0  0  0  0  0  0  0
   11.8799   -2.1823   -5.0226 H   0  0  0  1  0  0  0  0  0  0  0  0
   12.5307   -5.0011   -7.8305 O   0  0  0  1  0  0  0  0  0  0  0  0
   10.1764   -5.9271   -7.1974 O   0  0  0  1  0  0  0  0  0  0  0  0
   10.3926   -5.0033   -9.4711 O   0  5  0  1  0  0  0  0  0  0  0  0
   10.8996   -4.8695   -7.9384 P   0  0  0  1  0  0  0  0  0  0  0  0
   10.4317   -3.3901   -7.4727 O   0  5  0  1  0  0  0  0  0  0  0  0
   16.6389   -4.0358   -5.8833 N   0  0  0  1  0  0  0  0  0  0  0  0
   17.6584   -3.8467   -4.9863 C   0  0  0  1  0  0  0  0  0  0  0  0
   17.1621   -3.7386   -7.1042 C   0  0  0  1  0  0  0  0  0  0  0  0
   16.6027   -3.7891   -7.9796 H   0  0  0  1  0  0  0  0  0  0  0  0
   18.7609   -3.4434   -5.7517 C   0  0  0  1  0  0  0  0  0  0  0  0
   17.6267   -4.0208   -3.6644 N   0  0  0  1  0  0  0  0  0  0  0  0
   18.4187   -3.3855   -7.0937 N   0  0  0  1  0  0  0  0  0  0  0  0
   19.9318   -3.2061   -5.0377 C   0  0  0  1  0  0  0  0  0  0  0  0
   18.8040   -3.7524   -3.1131 C   0  0  0  1  0  0  0  0  0  0  0  0
   18.8526   -3.8627   -2.0801 H   0  0  0  1  0  0  0  0  0  0  0  0
   19.9403   -3.3577   -3.7089 N   0  0  0  1  0  0  0  0  0  0  0  0
   21.0721   -2.8200   -5.6799 N   0  0  0  1  0  0  0  0  0  0  0  0
   21.8856   -2.6356   -5.1655 H   0  0  0  1  0  0  0  0  0  0  0  0
   21.0775   -2.7272   -6.6555 H   0  0  0  1  0  0  0  0  0  0  0  0
    4.0337    0.8751   -6.5819 S   0  0  0  1  0  0  0  0  0  0  0  0
    6.1597    2.4472   -6.7640 O   0  0  0  1  0  0  0  0  0  0  0  0
    5.3432    1.9240   -6.0539 C   0  0  0  1  0  0  0  0  0  0  0  0
    5.2853    2.1644   -4.6148 C   0  0  0  1  0  0  0  0  0  0  0  0
    4.4927    1.6980   -4.1291 H   0  0  0  1  0  0  0  0  0  0  0  0
    6.0787    2.8816   -3.8202 C   0  0  0  1  0  0  0  0  0  0  0  0
    6.8848    3.3657   -4.2648 H   0  0  0  1  0  0  0  0  0  0  0  0
    5.9111    3.0487   -2.3575 C   0  0  0  1  0  0  0  0  0  0  0  0
    4.8620    2.3675   -1.7601 C   0  0  0  1  0  0  0  0  0  0  0  0
    4.2365    1.7681   -2.3355 H   0  0  0  1  0  0  0  0  0  0  0  0
    6.7455    3.8410   -1.5919 C   0  0  0  1  0  0  0  0  0  0  0  0
    7.5350    4.3489   -2.0394 H   0  0  0  1  0  0  0  0  0  0  0  0
    4.6471    2.4848   -0.3998 C   0  0  0  1  0  0  0  0  0  0  0  0
    3.8576    1.9768    0.0477 H   0  0  0  1  0  0  0  0  0  0  0  0
    6.5302    3.9588   -0.2276 C   0  0  0  1  0  0  0  0  0  0  0  0
    5.4842    3.2795    0.3680 C   0  0  0  1  0  0  0  0  0  0  0  0
    5.2563    3.3743    1.7005 O   0  0  0  1  0  0  0  0  0  0  0  0
    4.6973    4.1346    1.8768 H   0  0  0  1  0  0  0  0  0  0  0  0
    7.3447    4.7392    0.5216 O   0  0  0  1  0  0  0  0  0  0  0  0
    8.3424    5.5036   -0.1732 C   0  0  0  1  0  0  0  0  0  0  0  0
    8.6389    6.3361    0.4301 H   0  0  0  1  0  0  0  0  0  0  0  0
    7.9386    5.8596   -1.0980 H   0  0  0  1  0  0  0  0  0  0  0  0
    9.1929    4.8848   -0.3695 H   0  0  0  1  0  0  0  0  0  0  0  0
  1  2  1  0  0  0  0
  1  3  1  0  0  0  0
  1  4  1  0  0  0  0
  1 65  1  0  0  0  0
  3  6  1  0  0  0  0
  4  5  1  0  0  0  0
  4  8  1  0  0  0  0
  4 10  1  0  0  0  0
  6  7  1  0  0  0  0
  6  8  1  0  0  0  0
  6 57  1  0  0  0  0
  8  9  1  0  0  0  0
  8 60  1  0  0  0  0
 10 11  1  0  0  0  0
 12 13  1  0  0  0  0
 12 14  1  0  0  0  0
 12 15  1  0  0  0  0
 12 18  1  0  0  0  0
 15 16  1  0  0  0  0
 15 17  1  0  0  0  0
 15 79  1  0  0  0  0
 18 19  1  0  0  0  0
 18 20  1  0  0  0  0
 20 21  2  0  0  0  0
 20 25  1  0  0  0  0
 22 23  1  0  0  0  0
 22 24  1  0  0  0  0
 22 25  1  0  0  0  0
 22 28  1  0  0  0  0
 25 26  1  0  0  0  0
 25 27  1  0  0  0  0
 28 29  1  0  0  0  0
 28 31  1  0  0  0  0
 30 31  2  0  0  0  0
 31 44  1  0  0  0  0
 32 33  1  0  0  0  0
 32 34  1  0  0  0  0
 32 39  1  0  0  0  0
 32 48  1  0  0  0  0
 35 36  1  0  0  0  0
 35 37  1  0  0  0  0
 35 38  1  0  0  0  0
 35 39  1  0  0  0  0
 39 40  1  0  0  0  0
 39 44  1  0  0  0  0
 40 41  1  0  0  0  0
 40 42  1  0  0  0  0
 40 43  1  0  0  0  0
 44 45  1  0  0  0  0
 44 46  1  0  0  0  0
 46 47  1  0  0  0  0
 48 55  1  0  0  0  0
 49 55  1  0  0  0  0
 49 56  1  0  0  0  0
 50 56  1  0  0  0  0
 50 57  1  0  0  0  0
 51 55  1  0  0  0  0
 52 55  2  0  0  0  0
 53 56  1  0  0  0  0
 54 56  2  0  0  0  0
 57 58  1  0  0  0  0
 57 59  1  0  0  0  0
 60 63  1  0  0  0  0
 61 63  2  0  0  0  0
 62 63  1  0  0  0  0
 63 64  1  0  0  0  0
 65 66  1  0  0  0  0
 65 67  1  0  0  0  0
 66 69  2  0  0  0  0
 66 70  1  0  0  0  0
 67 68  1  0  0  0  0
 67 71  2  0  0  0  0
 69 71  1  0  0  0  0
 69 72  1  0  0  0  0
 70 73  2  0  0  0  0
 72 75  2  0  0  0  0
 72 76  1  0  0  0  0
 73 74  1  0  0  0  0
 73 75  1  0  0  0  0
 76 77  1  0  0  0  0
 76 78  1  0  0  0  0
 79 81  1  0  0  0  0
 80 81  2  0  0  0  0
 81 82  1  0  0  0  0
 82 83  1  0  0  0  0
 82 84  2  0  0  0  0
 84 85  1  0  0  0  0
 84 86  1  0  0  0  0
 86 87  1  0  0  0  0
 86 89  2  0  0  0  0
 87 88  1  0  0  0  0
 87 91  2  0  0  0  0
 89 90  1  0  0  0  0
 89 93  1  0  0  0  0
 91 92  1  0  0  0  0
 91 94  1  0  0  0  0
 93 94  2  0  0  0  0
 93 97  1  0  0  0  0
 94 95  1  0  0  0  0
 95 96  1  0  0  0  0
 97 98  1  0  0  0  0
 98 99  1  0  0  0  0
 98100  1  0  0  0  0
 98101  1  0  0  0  0
M  BCL ATM C_TeTeTeTe H_S O_Te2Te2TeTe C_TeTeTeTe H_S C_TeTeTeTe H_S C_TeTeTeTe H_S O_Te2Te2TeTe H_S C_TeTeTeTe H_S H_S C_TeTeTeTe H_S H_S N_TrTrTrPi2 H_S C_TrTrTrPi O_Tr2Tr2TrPi C_TeTeTeTe H_S H_S C_TeTeTeTe H_S H_S N_TrTrTrPi2 H_S O_Tr2Tr2TrPi C_TrTrTrPi C_TeTeTeTe H_S H_S C_TeTeTeTe H_S H_S H_S C_TeTeTeTe C_TeTeTeTe H_S H_S H_S C_TeTeTeTe H_S O_Te2Te2TeTe H_S O_Tr2TrTrPi2 O_Tr2TrTrPi2 O_Tr2TrTrPi2 O_Te2Te2TeTe O_Tr2Tr2TrPi O_Te2Te2TeTe O_Tr2Tr2TrPi P_TeTeTeTePi P_TeTeTeTePi C_TeTeTeTe H_S H_S O_Tr2TrTrPi2 O_Tr2Tr2TrPi O_Te2Te2Te2Te P_TeTeTeTePi O_Te2Te2Te2Te N_TrTrTrPi2 C_TrTrTrPi C_TrTrTrPi H_S C_TrTrTrPi N_Tr2TrTrPi N_Tr2TrTrPi C_TrTrTrPi C_TrTrTrPi H_S N_Tr2TrTrPi N_TrTrTrPi2 H_S H_S S_Te2Te2TeTe O_Tr2Tr2TrPi C_TrTrTrPi C_TrTrTrPi H_S C_TrTrTrPi H_S C_TrTrTrPi C_TrTrTrPi H_S C_TrTrTrPi H_S C_TrTrTrPi H_S C_TrTrTrPi C_TrTrTrPi O_Te2Te2TeTe H_S O_Tr2TrTrPi2 C_TeTeTeTe H_S H_S H_S
M  BCL BND NonConjugatedSingleBond NonConjugatedSingleBondInRing NonConjugatedSingleBondInRing NonConjugatedSingleBond NonConjugatedSingleBondInRing NonConjugatedSingleBond NonConjugatedSingleBondInRing NonConjugatedSingleBond NonConjugatedSingleBond NonConjugatedSingleBondInRing NonConjugatedSingleBond NonConjugatedSingleBond NonConjugatedSingleBond NonConjugatedSingleBond NonConjugatedSingleBond NonConjugatedSingleBond NonConjugatedSingleBond NonConjugatedSingleBond NonConjugatedSingleBond NonConjugatedSingleBond NonConjugatedSingleBond NonConjugatedSingleBond AmideSingleBond ConjugatedDoubleBond NonConjugatedSingleBond NonConjugatedSingleBond NonConjugatedSingleBond NonConjugatedSingleBond NonConjugatedSingleBond NonConjugatedSingleBond NonConjugatedSingleBond NonConjugatedSingleBond AmideSingleBond ConjugatedDoubleBond NonConjugatedSingleBond NonConjugatedSingleBond NonConjugatedSingleBond NonConjugatedSingleBond NonConjugatedSingleBond NonConjugatedSingleBond NonConjugatedSingleBond NonConjugatedSingleBond NonConjugatedSingleBond NonConjugatedSingleBond NonConjugatedSingleBond NonConjugatedSingleBond NonConjugatedSingleBond NonConjugatedSingleBond NonConjugatedSingleBond NonConjugatedSingleBond NonConjugatedSingleBond ConjugatedSingleBond ConjugatedSingleBond ConjugatedSingleBond ConjugatedSingleBond NonConjugatedSingleBond ConjugatedSingleBond ConjugatedDoubleBond ConjugatedSingleBond ConjugatedDoubleBond NonConjugatedSingleBond NonConjugatedSingleBond ConjugatedSingleBond ConjugatedDoubleBond ConjugatedSingleBond ConjugatedSingleBond AromaticSingleBond AromaticSingleBond AromaticDoubleBond AromaticSingleBond NonConjugatedSingleBond AromaticDoubleBond AromaticSingleBond AromaticSingleBond AromaticDoubleBond AromaticDoubleBond ConjugatedSingleBond NonConjugatedSingleBond AromaticSingleBond NonConjugatedSingleBond NonConjugatedSingleBond ConjugatedSingleBond ConjugatedDoubleBond ConjugatedSingleBond NonConjugatedSingleBond ConjugatedDoubleBond NonConjugatedSingleBond ConjugatedSingleBond AromaticSingleBond AromaticDoubleBond NonConjugatedSingleBond AromaticDoubleBond NonConjugatedSingleBond AromaticSingleBond NonConjugatedSingleBond AromaticSingleBond AromaticDoubleBond ConjugatedSingleBond ConjugatedSingleBond NonConjugatedSingleBond NonConjugatedSingleBond NonConjugatedSingleBond NonConjugatedSingleBond NonConjugatedSingleBond
M  BCL CHI   1   R   4   R   6   R   8   S  44   S  55   S  56   R
M  BCL DBI - - - - - - - - - - E - - -
M  END
> <ConfClashScore>
0 

> <ConfOneFourInteractionScore>
-0.979986 

> <ConfScore>
0.0163721 

> <ConfScorePBest>
0.00943349 

> <ConfTolerance>
3.02807 

$$$$
L02.****
  PyMOL2.5          3D                             0

101104  0  0  0  0  0  0  0  0999 V2000
   15.2414   -4.4836   -5.5941 C   0  0  0  1  0  0  0  0  0  0  0  0
   15.2545   -5.4416   -5.1177 H   0  0  0  1  0  0  0  0  0  0  0  0
   14.5713   -3.5430   -4.7996 O   0  0  0  1  0  0  0  0  0  0  0  0
   14.4238   -4.5332   -6.8930 C   0  0  0  1  0  0  0  0  0  0  0  0
   14.7262   -3.7608   -7.5689 H   0  0  0  1  0  0  0  0  0  0  0  0
   13.2038   -3.3506   -5.2264 C   0  0  0  1  0  0  0  0  0  0  0  0
   13.0457   -2.3385   -5.5354 H   0  0  0  1  0  0  0  0  0  0  0  0
   13.0162   -4.3086   -6.4065 C   0  0  0  1  0  0  0  0  0  0  0  0
   12.5691   -5.2271   -6.0879 H   0  0  0  1  0  0  0  0  0  0  0  0
   14.5509   -5.8036   -7.5332 O   0  0  0  1  0  0  0  0  0  0  0  0
   13.9702   -6.4374   -7.1057 H   0  0  0  1  0  0  0  0  0  0  0  0
   13.0848  -11.3295    4.1938 C   0  0  0  1  0  0  0  0  0  0  0  0
   13.7265  -11.1118    5.0219 H   0  0  0  1  0  0  0  0  0  0  0  0
   13.0366  -12.3884    4.0480 H   0  0  0  1  0  0  0  0  0  0  0  0
   13.6882  -10.7118    2.9567 C   0  0  0  1  0  0  0  0  0  0  0  0
   13.7304   -9.6526    3.1021 H   0  0  0  1  0  0  0  0  0  0  0  0
   13.0470  -10.9335    2.1293 H   0  0  0  1  0  0  0  0  0  0  0  0
   11.7480  -10.8555    4.5197 N   0  0  0  1  0  0  0  0  0  0  0  0
   11.6293   -9.9795    4.9425 H   0  0  0  1  0  0  0  0  0  0  0  0
   10.6418  -11.6409    4.2330 C   0  0  0  1  0  0  0  0  0  0  0  0
   10.8198  -12.7385    3.7372 O   0  0  0  1  0  0  0  0  0  0  0  0
    8.2810  -11.4858    3.4421 C   0  0  0  1  0  0  0  0  0  0  0  0
    7.2793  -11.4142    3.8113 H   0  0  0  1  0  0  0  0  0  0  0  0
    8.4690  -12.4857    3.1108 H   0  0  0  1  0  0  0  0  0  0  0  0
    9.2677  -11.1105    4.5437 C   0  0  0  1  0  0  0  0  0  0  0  0
    9.3133  -10.0446    4.6256 H   0  0  0  1  0  0  0  0  0  0  0  0
    8.9327  -11.5259    5.4712 H   0  0  0  1  0  0  0  0  0  0  0  0
    8.4691  -10.5558    2.3386 N   0  0  0  1  0  0  0  0  0  0  0  0
    7.9536   -9.7223    2.3295 H   0  0  0  1  0  0  0  0  0  0  0  0
    9.8764  -11.8736    1.1849 O   0  0  0  1  0  0  0  0  0  0  0  0
    9.3200  -10.7987    1.3376 C   0  0  0  1  0  0  0  0  0  0  0  0
   10.8446   -7.5244   -0.0146 C   0  0  0  1  0  0  0  0  0  0  0  0
   11.0414   -6.5798    0.4479 H   0  0  0  1  0  0  0  0  0  0  0  0
   10.0761   -7.4087   -0.7502 H   0  0  0  1  0  0  0  0  0  0  0  0
    9.5709   -7.8435    2.1241 C   0  0  0  1  0  0  0  0  0  0  0  0
    8.7509   -7.3310    1.6661 H   0  0  0  1  0  0  0  0  0  0  0  0
   10.1836   -7.1396    2.6476 H   0  0  0  1  0  0  0  0  0  0  0  0
    9.1962   -8.5721    2.8124 H   0  0  0  1  0  0  0  0  0  0  0  0
   10.4050   -8.5428    1.0441 C   0  0  0  1  0  0  0  0  0  0  0  0
   11.6409   -9.1762    1.6829 C   0  0  0  1  0  0  0  0  0  0  0  0
   12.5029   -8.9559    1.0885 H   0  0  0  1  0  0  0  0  0  0  0  0
   11.5088  -10.2365    1.7400 H   0  0  0  1  0  0  0  0  0  0  0  0
   11.7761   -8.7796    2.6675 H   0  0  0  1  0  0  0  0  0  0  0  0
    9.5626   -9.6394    0.3792 C   0  0  0  1  0  0  0  0  0  0  0  0
    8.6176   -9.2209    0.1021 H   0  0  0  1  0  0  0  0  0  0  0  0
   10.2205  -10.1569   -0.7643 O   0  0  0  1  0  0  0  0  0  0  0  0
   10.0825   -9.5660   -1.5082 H   0  0  0  1  0  0  0  0  0  0  0  0
   12.0411   -8.0256   -0.6318 O   0  0  0  1  0  0  0  0  0  0  0  0
   12.9781   -5.8193   -1.2202 O   0  0  0  1  0  0  0  0  0  0  0  0
   12.9652   -4.3615   -3.0623 O   0  0  0  1  0  0  0  0  0  0  0  0
   14.2578   -7.8716   -1.8117 O   0  0  0  0  0  0  0  0  0  0  0  0
   12.0641   -7.3509   -3.0303 O   0  0  0  1  0  0  0  0  0  0  0  0
   10.8116   -4.5574   -1.7096 O   0  0  0  0  0  0  0  0  0  0  0  0
   12.8255   -3.3210   -0.7319 O   0  0  0  1  0  0  0  0  0  0  0  0
   12.8498   -7.3004   -1.7602 P   0  0  0  1  0  0  0  0  0  0  0  0
   12.2812   -4.3925   -1.5853 P   0  0  0  1  0  0  0  0  0  0  0  0
   12.2687   -3.6841   -4.1347 C   0  0  0  1  0  0  0  0  0  0  0  0
   11.4985   -4.3231   -4.5134 H   0  0  0  1  0  0  0  0  0  0  0  0
   11.8319   -2.7832   -3.7574 H   0  0  0  1  0  0  0  0  0  0  0  0
   12.1960   -3.7037   -7.4441 O   0  0  0  1  0  0  0  0  0  0  0  0
    9.9840   -3.7949   -8.7932 O   0  0  0  1  0  0  0  0  0  0  0  0
   10.2336   -5.1699   -6.6043 O   0  5  0  1  0  0  0  0  0  0  0  0
   10.9118   -4.5867   -7.9549 P   0  0  0  1  0  0  0  0  0  0  0  0
   11.4592   -5.8082   -8.8674 O   0  5  0  1  0  0  0  0  0  0  0  0
   16.6161   -4.0516   -5.8621 N   0  0  0  1  0  0  0  0  0  0  0  0
   17.6495   -3.8495   -4.9841 C   0  0  0  1  0  0  0  0  0  0  0  0
   17.1181   -3.7650   -7.0945 C   0  0  0  1  0  0  0  0  0  0  0  0
   16.5447   -3.8266   -7.9600 H   0  0  0  1  0  0  0  0  0  0  0  0
   18.7377   -3.4500   -5.7715 C   0  0  0  1  0  0  0  0  0  0  0  0
   17.6401   -4.0101   -3.6600 N   0  0  0  1  0  0  0  0  0  0  0  0
   18.3733   -3.4072   -7.1082 N   0  0  0  1  0  0  0  0  0  0  0  0
   19.9192   -3.2011   -5.0793 C   0  0  0  1  0  0  0  0  0  0  0  0
   18.8252   -3.7317   -3.1310 C   0  0  0  1  0  0  0  0  0  0  0  0
   18.8912   -3.8312   -2.0979 H   0  0  0  1  0  0  0  0  0  0  0  0
   19.9501   -3.3390   -3.7494 N   0  0  0  1  0  0  0  0  0  0  0  0
   21.1201   -2.8081   -5.6470 N   0  0  0  1  0  0  0  0  0  0  0  0
   21.9265   -2.7458   -5.0937 H   0  0  0  1  0  0  0  0  0  0  0  0
   21.1633   -2.5924   -6.6020 H   0  0  0  1  0  0  0  0  0  0  0  0
   15.3526  -11.2875    2.5454 S   0  0  0  1  0  0  0  0  0  0  0  0
   15.2502   -9.0876    1.0989 O   0  0  0  1  0  0  0  0  0  0  0  0
   15.9649   -9.9811    1.5717 C   0  0  0  1  0  0  0  0  0  0  0  0
   17.3700  -10.0470    1.1819 C   0  0  0  1  0  0  0  0  0  0  0  0
   17.9339  -10.7981    1.6285 H   0  0  0  1  0  0  0  0  0  0  0  0
   18.0171   -9.2605    0.3228 C   0  0  0  1  0  0  0  0  0  0  0  0
   17.5087   -8.4904   -0.1569 H   0  0  0  1  0  0  0  0  0  0  0  0
   19.4568   -9.4766    0.0468 C   0  0  0  1  0  0  0  0  0  0  0  0
   20.1236   -8.4791   -0.6472 C   0  0  0  1  0  0  0  0  0  0  0  0
   19.6133   -7.6237   -0.9464 H   0  0  0  1  0  0  0  0  0  0  0  0
   20.1363  -10.6109    0.4491 C   0  0  0  1  0  0  0  0  0  0  0  0
   19.6370  -11.3576    0.9733 H   0  0  0  1  0  0  0  0  0  0  0  0
   21.4665   -8.6210   -0.9416 C   0  0  0  1  0  0  0  0  0  0  0  0
   21.9658   -7.8743   -1.4658 H   0  0  0  1  0  0  0  0  0  0  0  0
   21.4831  -10.7535    0.1540 C   0  0  0  1  0  0  0  0  0  0  0  0
   22.1479   -9.7588   -0.5380 C   0  0  0  1  0  0  0  0  0  0  0  0
   23.4660   -9.9070   -0.8162 O   0  0  0  1  0  0  0  0  0  0  0  0
   23.5739  -10.1417   -1.7408 H   0  0  0  1  0  0  0  0  0  0  0  0
   22.2456  -11.8126    0.4887 O   0  0  0  1  0  0  0  0  0  0  0  0
   21.5653  -12.8426    1.2429 C   0  0  0  1  0  0  0  0  0  0  0  0
   20.7718  -13.2520    0.6532 H   0  0  0  1  0  0  0  0  0  0  0  0
   21.1618  -12.4203    2.1394 H   0  0  0  1  0  0  0  0  0  0  0  0
   22.2591  -13.6175    1.4940 H   0  0  0  1  0  0  0  0  0  0  0  0
  1  2  1  0  0  0  0
  1  3  1  0  0  0  0
  1  4  1  0  0  0  0
  1 65  1  0  0  0  0
  3  6  1  0  0  0  0
  4  5  1  0  0  0  0
  4  8  1  0  0  0  0
  4 10  1  0  0  0  0
  6  7  1  0  0  0  0
  6  8  1  0  0  0  0
  6 57  1  0  0  0  0
  8  9  1  0  0  0  0
  8 60  1  0  0  0  0
 10 11  1  0  0  0  0
 12 13  1  0  0  0  0
 12 14  1  0  0  0  0
 12 15  1  0  0  0  0
 12 18  1  0  0  0  0
 15 16  1  0  0  0  0
 15 17  1  0  0  0  0
 15 79  1  0  0  0  0
 18 19  1  0  0  0  0
 18 20  1  0  0  0  0
 20 21  2  0  0  0  0
 20 25  1  0  0  0  0
 22 23  1  0  0  0  0
 22 24  1  0  0  0  0
 22 25  1  0  0  0  0
 22 28  1  0  0  0  0
 25 26  1  0  0  0  0
 25 27  1  0  0  0  0
 28 29  1  0  0  0  0
 28 31  1  0  0  0  0
 30 31  2  0  0  0  0
 31 44  1  0  0  0  0
 32 33  1  0  0  0  0
 32 34  1  0  0  0  0
 32 39  1  0  0  0  0
 32 48  1  0  0  0  0
 35 36  1  0  0  0  0
 35 37  1  0  0  0  0
 35 38  1  0  0  0  0
 35 39  1  0  0  0  0
 39 40  1  0  0  0  0
 39 44  1  0  0  0  0
 40 41  1  0  0  0  0
 40 42  1  0  0  0  0
 40 43  1  0  0  0  0
 44 45  1  0  0  0  0
 44 46  1  0  0  0  0
 46 47  1  0  0  0  0
 48 55  1  0  0  0  0
 49 55  1  0  0  0  0
 49 56  1  0  0  0  0
 50 56  1  0  0  0  0
 50 57  1  0  0  0  0
 51 55  1  0  0  0  0
 52 55  2  0  0  0  0
 53 56  1  0  0  0  0
 54 56  2  0  0  0  0
 57 58  1  0  0  0  0
 57 59  1  0  0  0  0
 60 63  1  0  0  0  0
 61 63  2  0  0  0  0
 62 63  1  0  0  0  0
 63 64  1  0  0  0  0
 65 66  1  0  0  0  0
 65 67  1  0  0  0  0
 66 69  2  0  0  0  0
 66 70  1  0  0  0  0
 67 68  1  0  0  0  0
 67 71  2  0  0  0  0
 69 71  1  0  0  0  0
 69 72  1  0  0  0  0
 70 73  2  0  0  0  0
 72 75  2  0  0  0  0
 72 76  1  0  0  0  0
 73 74  1  0  0  0  0
 73 75  1  0  0  0  0
 76 77  1  0  0  0  0
 76 78  1  0  0  0  0
 79 81  1  0  0  0  0
 80 81  2  0  0  0  0
 81 82  1  0  0  0  0
 82 83  1  0  0  0  0
 82 84  2  0  0  0  0
 84 85  1  0  0  0  0
 84 86  1  0  0  0  0
 86 87  1  0  0  0  0
 86 89  2  0  0  0  0
 87 88  1  0  0  0  0
 87 91  2  0  0  0  0
 89 90  1  0  0  0  0
 89 93  1  0  0  0  0
 91 92  1  0  0  0  0
 91 94  1  0  0  0  0
 93 94  2  0  0  0  0
 93 97  1  0  0  0  0
 94 95  1  0  0  0  0
 95 96  1  0  0  0  0
 97 98  1  0  0  0  0
 98 99  1  0  0  0  0
 98100  1  0  0  0  0
 98101  1  0  0  0  0
M  BCL ATM C_TeTeTeTe H_S O_Te2Te2TeTe C_TeTeTeTe H_S C_TeTeTeTe H_S C_TeTeTeTe H_S O_Te2Te2TeTe H_S C_TeTeTeTe H_S H_S C_TeTeTeTe H_S H_S N_TrTrTrPi2 H_S C_TrTrTrPi O_Tr2Tr2TrPi C_TeTeTeTe H_S H_S C_TeTeTeTe H_S H_S N_TrTrTrPi2 H_S O_Tr2Tr2TrPi C_TrTrTrPi C_TeTeTeTe H_S H_S C_TeTeTeTe H_S H_S H_S C_TeTeTeTe C_TeTeTeTe H_S H_S H_S C_TeTeTeTe H_S O_Te2Te2TeTe H_S O_Tr2TrTrPi2 O_Tr2TrTrPi2 O_Tr2TrTrPi2 O_Te2Te2TeTe O_Tr2Tr2TrPi O_Te2Te2TeTe O_Tr2Tr2TrPi P_TeTeTeTePi P_TeTeTeTePi C_TeTeTeTe H_S H_S O_Tr2TrTrPi2 O_Tr2Tr2TrPi O_Te2Te2Te2Te P_TeTeTeTePi O_Te2Te2Te2Te N_TrTrTrPi2 C_TrTrTrPi C_TrTrTrPi H_S C_TrTrTrPi N_Tr2TrTrPi N_Tr2TrTrPi C_TrTrTrPi C_TrTrTrPi H_S N_Tr2TrTrPi N_TrTrTrPi2 H_S H_S S_Te2Te2TeTe O_Tr2Tr2TrPi C_TrTrTrPi C_TrTrTrPi H_S C_TrTrTrPi H_S C_TrTrTrPi C_TrTrTrPi H_S C_TrTrTrPi H_S C_TrTrTrPi H_S C_TrTrTrPi C_TrTrTrPi O_Te2Te2TeTe H_S O_Tr2TrTrPi2 C_TeTeTeTe H_S H_S H_S
M  BCL BND NonConjugatedSingleBond NonConjugatedSingleBondInRing NonConjugatedSingleBondInRing NonConjugatedSingleBond NonConjugatedSingleBondInRing NonConjugatedSingleBond NonConjugatedSingleBondInRing NonConjugatedSingleBond NonConjugatedSingleBond NonConjugatedSingleBondInRing NonConjugatedSingleBond NonConjugatedSingleBond NonConjugatedSingleBond NonConjugatedSingleBond NonConjugatedSingleBond NonConjugatedSingleBond NonConjugatedSingleBond NonConjugatedSingleBond NonConjugatedSingleBond NonConjugatedSingleBond NonConjugatedSingleBond NonConjugatedSingleBond AmideSingleBond ConjugatedDoubleBond NonConjugatedSingleBond NonConjugatedSingleBond NonConjugatedSingleBond NonConjugatedSingleBond NonConjugatedSingleBond NonConjugatedSingleBond NonConjugatedSingleBond NonConjugatedSingleBond AmideSingleBond ConjugatedDoubleBond NonConjugatedSingleBond NonConjugatedSingleBond NonConjugatedSingleBond NonConjugatedSingleBond NonConjugatedSingleBond NonConjugatedSingleBond NonConjugatedSingleBond NonConjugatedSingleBond NonConjugatedSingleBond NonConjugatedSingleBond NonConjugatedSingleBond NonConjugatedSingleBond NonConjugatedSingleBond NonConjugatedSingleBond NonConjugatedSingleBond NonConjugatedSingleBond NonConjugatedSingleBond ConjugatedSingleBond ConjugatedSingleBond ConjugatedSingleBond ConjugatedSingleBond NonConjugatedSingleBond ConjugatedSingleBond ConjugatedDoubleBond ConjugatedSingleBond ConjugatedDoubleBond NonConjugatedSingleBond NonConjugatedSingleBond ConjugatedSingleBond ConjugatedDoubleBond ConjugatedSingleBond ConjugatedSingleBond AromaticSingleBond AromaticSingleBond AromaticDoubleBond AromaticSingleBond NonConjugatedSingleBond AromaticDoubleBond AromaticSingleBond AromaticSingleBond AromaticDoubleBond AromaticDoubleBond ConjugatedSingleBond NonConjugatedSingleBond AromaticSingleBond NonConjugatedSingleBond NonConjugatedSingleBond ConjugatedSingleBond ConjugatedDoubleBond ConjugatedSingleBond NonConjugatedSingleBond ConjugatedDoubleBond NonConjugatedSingleBond ConjugatedSingleBond AromaticSingleBond AromaticDoubleBond NonConjugatedSingleBond AromaticDoubleBond NonConjugatedSingleBond AromaticSingleBond NonConjugatedSingleBond AromaticSingleBond AromaticDoubleBond ConjugatedSingleBond ConjugatedSingleBond NonConjugatedSingleBond NonConjugatedSingleBond NonConjugatedSingleBond NonConjugatedSingleBond NonConjugatedSingleBond
M  BCL CHI   1   R   4   R   6   R   8   S  44   S  55   S  56   R
M  BCL DBI - - - - - - - - - - E - - -
M  END
> <ConfClashScore>
0 

> <ConfOneFourInteractionScore>
-0.974562 

> <ConfScore>
0.0179135 

> <ConfScorePBest>
0.00933049 

> <ConfTolerance>
2.82258 

$$$$
L02.****
  PyMOL2.5          3D                             0

101104  0  0  0  0  0  0  0  0999 V2000
   15.2519   -4.4378   -5.5699 C   0  0  0  1  0  0  0  0  0  0  0  0
   14.7844   -4.8154   -6.4551 H   0  0  0  1  0  0  0  0  0  0  0  0
   15.2579   -5.4251   -4.5776 O   0  0  0  1  0  0  0  0  0  0  0  0
   14.4607   -3.2335   -5.0352 C   0  0  0  1  0  0  0  0  0  0  0  0
   14.9697   -2.3153   -5.2419 H   0  0  0  1  0  0  0  0  0  0  0  0
   14.4378   -5.0167   -3.4407 C   0  0  0  1  0  0  0  0  0  0  0  0
   14.8810   -5.3347   -2.5202 H   0  0  0  1  0  0  0  0  0  0  0  0
   14.4059   -3.5079   -3.5264 C   0  0  0  1  0  0  0  0  0  0  0  0
   13.5048   -3.1198   -3.0997 H   0  0  0  1  0  0  0  0  0  0  0  0
   13.1592   -3.1890   -5.5937 O   0  0  0  1  0  0  0  0  0  0  0  0
   12.7038   -4.0142   -5.4111 H   0  0  0  1  0  0  0  0  0  0  0  0
   18.0659  -10.6609    0.9689 C   0  0  0  1  0  0  0  0  0  0  0  0
   19.0493  -10.8286    0.5819 H   0  0  0  1  0  0  0  0  0  0  0  0
   17.6869   -9.7341    0.5917 H   0  0  0  1  0  0  0  0  0  0  0  0
   18.1465  -10.5740    2.4728 C   0  0  0  1  0  0  0  0  0  0  0  0
   18.3941  -11.5416    2.8565 H   0  0  0  1  0  0  0  0  0  0  0  0
   17.1900  -10.2750    2.8478 H   0  0  0  1  0  0  0  0  0  0  0  0
   17.1922  -11.7445    0.5151 N   0  0  0  1  0  0  0  0  0  0  0  0
   17.0915  -12.5389    1.0801 H   0  0  0  1  0  0  0  0  0  0  0  0
   16.5209  -11.6875   -0.6538 C   0  0  0  1  0  0  0  0  0  0  0  0
   16.6639  -10.7381   -1.4231 O   0  0  0  1  0  0  0  0  0  0  0  0
   14.4564  -12.9812    0.0138 C   0  0  0  1  0  0  0  0  0  0  0  0
   14.8759  -13.0495    0.9957 H   0  0  0  1  0  0  0  0  0  0  0  0
   13.9240  -13.8819   -0.2106 H   0  0  0  1  0  0  0  0  0  0  0  0
   15.5896  -12.8210   -0.9911 C   0  0  0  1  0  0  0  0  0  0  0  0
   16.1541  -13.7297   -1.0156 H   0  0  0  1  0  0  0  0  0  0  0  0
   15.1657  -12.6378   -1.9563 H   0  0  0  1  0  0  0  0  0  0  0  0
   13.5155  -11.8600   -0.0175 N   0  0  0  1  0  0  0  0  0  0  0  0
   13.6482  -11.1138    0.6038 H   0  0  0  1  0  0  0  0  0  0  0  0
   12.3224  -12.7147   -1.7130 O   0  0  0  1  0  0  0  0  0  0  0  0
   12.4432  -11.8172   -0.8955 C   0  0  0  1  0  0  0  0  0  0  0  0
   10.9527   -8.2963   -1.3132 C   0  0  0  1  0  0  0  0  0  0  0  0
   11.3541   -7.3408   -1.5794 H   0  0  0  1  0  0  0  0  0  0  0  0
   10.5306   -8.2454   -0.3313 H   0  0  0  1  0  0  0  0  0  0  0  0
   13.1944   -8.9350   -0.4117 C   0  0  0  1  0  0  0  0  0  0  0  0
   12.7893   -8.6715    0.5429 H   0  0  0  1  0  0  0  0  0  0  0  0
   13.7066   -8.0921   -0.8265 H   0  0  0  1  0  0  0  0  0  0  0  0
   13.8802   -9.7481   -0.2958 H   0  0  0  1  0  0  0  0  0  0  0  0
   12.0581   -9.3554   -1.3516 C   0  0  0  1  0  0  0  0  0  0  0  0
   12.5506   -9.6584   -2.7851 C   0  0  0  1  0  0  0  0  0  0  0  0
   12.4223  -10.6998   -2.9943 H   0  0  0  1  0  0  0  0  0  0  0  0
   13.5865   -9.4033   -2.8675 H   0  0  0  1  0  0  0  0  0  0  0  0
   11.9840   -9.0816   -3.4860 H   0  0  0  1  0  0  0  0  0  0  0  0
   11.4657  -10.6632   -0.8080 C   0  0  0  1  0  0  0  0  0  0  0  0
   11.1945  -10.5158    0.2165 H   0  0  0  1  0  0  0  0  0  0  0  0
   10.2966  -10.9218   -1.5924 O   0  0  0  1  0  0  0  0  0  0  0  0
    9.6054  -11.2780   -1.0294 H   0  0  0  1  0  0  0  0  0  0  0  0
    9.9345   -8.6877   -2.2688 O   0  0  0  1  0  0  0  0  0  0  0  0
   10.9679   -7.4266   -4.0038 O   0  0  0  1  0  0  0  0  0  0  0  0
   12.9784   -6.2959   -4.8084 O   0  0  0  1  0  0  0  0  0  0  0  0
    8.6862   -8.4379   -4.4454 O   0  0  0  0  0  0  0  0  0  0  0  0
    8.9552   -6.4514   -2.8838 O   0  0  0  1  0  0  0  0  0  0  0  0
   11.8074   -7.9268   -6.3611 O   0  0  0  0  0  0  0  0  0  0  0  0
   10.7085   -5.7165   -5.7762 O   0  0  0  1  0  0  0  0  0  0  0  0
    9.4945   -7.6956   -3.4605 P   0  0  0  1  0  0  0  0  0  0  0  0
   11.5809   -6.8543   -5.3434 P   0  0  0  1  0  0  0  0  0  0  0  0
   13.0601   -5.5820   -3.5522 C   0  0  0  1  0  0  0  0  0  0  0  0
   12.3394   -4.7913   -3.5348 H   0  0  0  1  0  0  0  0  0  0  0  0
   12.8745   -6.2524   -2.7393 H   0  0  0  1  0  0  0  0  0  0  0  0
   15.5538   -2.9247   -2.8501 O   0  0  0  1  0  0  0  0  0  0  0  0
   14.0554   -2.4143   -0.8072 O   0  0  0  1  0  0  0  0  0  0  0  0
   16.1546   -0.9936   -1.2789 O   0  5  0  1  0  0  0  0  0  0  0  0
   15.4566   -2.4556   -1.2816 P   0  0  0  1  0  0  0  0  0  0  0  0
   16.4207   -3.4196   -0.4067 O   0  5  0  1  0  0  0  0  0  0  0  0
   16.6244   -4.0337   -5.8766 N   0  0  0  1  0  0  0  0  0  0  0  0
   17.6505   -3.8481   -4.9865 C   0  0  0  1  0  0  0  0  0  0  0  0
   17.1477   -3.7641   -7.1039 C   0  0  0  1  0  0  0  0  0  0  0  0
   16.5842   -3.8185   -7.9763 H   0  0  0  1  0  0  0  0  0  0  0  0
   18.7566   -3.4753   -5.7619 C   0  0  0  1  0  0  0  0  0  0  0  0
   17.6210   -4.0014   -3.6619 N   0  0  0  1  0  0  0  0  0  0  0  0
   18.4101   -3.4321   -7.1034 N   0  0  0  1  0  0  0  0  0  0  0  0
   19.9340   -3.2469   -5.0560 C   0  0  0  1  0  0  0  0  0  0  0  0
   18.8048   -3.7445   -3.1191 C   0  0  0  1  0  0  0  0  0  0  0  0
   18.8556   -3.8399   -2.0848 H   0  0  0  1  0  0  0  0  0  0  0  0
   19.9453   -3.3783   -3.7251 N   0  0  0  1  0  0  0  0  0  0  0  0
   21.1024   -2.7965   -5.6610 N   0  0  0  1  0  0  0  0  0  0  0  0
   21.1548   -2.7310   -6.6374 H   0  0  0  1  0  0  0  0  0  0  0  0
   21.8733   -2.5445   -5.1109 H   0  0  0  1  0  0  0  0  0  0  0  0
   19.3862   -9.3915    3.0526 S   0  0  0  1  0  0  0  0  0  0  0  0
   18.3957  -10.2036    5.0378 O   0  0  0  1  0  0  0  0  0  0  0  0
   19.2120   -9.4947    4.7967 C   0  0  0  1  0  0  0  0  0  0  0  0
   19.9457   -8.4199    5.4538 C   0  0  0  1  0  0  0  0  0  0  0  0
   20.6616   -7.9188    4.8898 H   0  0  0  1  0  0  0  0  0  0  0  0
   19.7777   -8.0244    6.7151 C   0  0  0  1  0  0  0  0  0  0  0  0
   19.0726   -8.4975    7.3156 H   0  0  0  1  0  0  0  0  0  0  0  0
   20.5893   -6.9148    7.2669 C   0  0  0  1  0  0  0  0  0  0  0  0
   20.3135   -6.4319    8.5367 C   0  0  0  1  0  0  0  0  0  0  0  0
   19.5438   -6.8511    9.0966 H   0  0  0  1  0  0  0  0  0  0  0  0
   21.6156   -6.3613    6.5251 C   0  0  0  1  0  0  0  0  0  0  0  0
   21.8251   -6.7263    5.5740 H   0  0  0  1  0  0  0  0  0  0  0  0
   21.0613   -5.3934    9.0587 C   0  0  0  1  0  0  0  0  0  0  0  0
   20.8518   -5.0284   10.0097 H   0  0  0  1  0  0  0  0  0  0  0  0
   22.3657   -5.3197    7.0484 C   0  0  0  1  0  0  0  0  0  0  0  0
   22.0907   -4.8383    8.3144 C   0  0  0  1  0  0  0  0  0  0  0  0
   22.7842   -3.8274    8.8923 O   0  0  0  1  0  0  0  0  0  0  0  0
   23.4779   -3.5336    8.2974 H   0  0  0  1  0  0  0  0  0  0  0  0
   23.3884   -4.6970    6.4158 O   0  0  0  1  0  0  0  0  0  0  0  0
   23.7386   -5.1743    5.1074 C   0  0  0  1  0  0  0  0  0  0  0  0
   24.5249   -4.5701    4.7054 H   0  0  0  1  0  0  0  0  0  0  0  0
   22.8833   -5.1186    4.4668 H   0  0  0  1  0  0  0  0  0  0  0  0
   24.0686   -6.1899    5.1750 H   0  0  0  1  0  0  0  0  0  0  0  0
  1  2  1  0  0  0  0
  1  3  1  0  0  0  0
  1  4  1  0  0  0  0
  1 65  1  0  0  0  0
  3  6  1  0  0  0  0
  4  5  1  0  0  0  0
  4  8  1  0  0  0  0
  4 10  1  0  0  0  0
  6  7  1  0  0  0  0
  6  8  1  0  0  0  0
  6 57  1  0  0  0  0
  8  9  1  0  0  0  0
  8 60  1  0  0  0  0
 10 11  1  0  0  0  0
 12 13  1  0  0  0  0
 12 14  1  0  0  0  0
 12 15  1  0  0  0  0
 12 18  1  0  0  0  0
 15 16  1  0  0  0  0
 15 17  1  0  0  0  0
 15 79  1  0  0  0  0
 18 19  1  0  0  0  0
 18 20  1  0  0  0  0
 20 21  2  0  0  0  0
 20 25  1  0  0  0  0
 22 23  1  0  0  0  0
 22 24  1  0  0  0  0
 22 25  1  0  0  0  0
 22 28  1  0  0  0  0
 25 26  1  0  0  0  0
 25 27  1  0  0  0  0
 28 29  1  0  0  0  0
 28 31  1  0  0  0  0
 30 31  2  0  0  0  0
 31 44  1  0  0  0  0
 32 33  1  0  0  0  0
 32 34  1  0  0  0  0
 32 39  1  0  0  0  0
 32 48  1  0  0  0  0
 35 36  1  0  0  0  0
 35 37  1  0  0  0  0
 35 38  1  0  0  0  0
 35 39  1  0  0  0  0
 39 40  1  0  0  0  0
 39 44  1  0  0  0  0
 40 41  1  0  0  0  0
 40 42  1  0  0  0  0
 40 43  1  0  0  0  0
 44 45  1  0  0  0  0
 44 46  1  0  0  0  0
 46 47  1  0  0  0  0
 48 55  1  0  0  0  0
 49 55  1  0  0  0  0
 49 56  1  0  0  0  0
 50 56  1  0  0  0  0
 50 57  1  0  0  0  0
 51 55  1  0  0  0  0
 52 55  2  0  0  0  0
 53 56  1  0  0  0  0
 54 56  2  0  0  0  0
 57 58  1  0  0  0  0
 57 59  1  0  0  0  0
 60 63  1  0  0  0  0
 61 63  2  0  0  0  0
 62 63  1  0  0  0  0
 63 64  1  0  0  0  0
 65 66  1  0  0  0  0
 65 67  1  0  0  0  0
 66 69  2  0  0  0  0
 66 70  1  0  0  0  0
 67 68  1  0  0  0  0
 67 71  2  0  0  0  0
 69 71  1  0  0  0  0
 69 72  1  0  0  0  0
 70 73  2  0  0  0  0
 72 75  2  0  0  0  0
 72 76  1  0  0  0  0
 73 74  1  0  0  0  0
 73 75  1  0  0  0  0
 76 77  1  0  0  0  0
 76 78  1  0  0  0  0
 79 81  1  0  0  0  0
 80 81  2  0  0  0  0
 81 82  1  0  0  0  0
 82 83  1  0  0  0  0
 82 84  2  0  0  0  0
 84 85  1  0  0  0  0
 84 86  1  0  0  0  0
 86 87  1  0  0  0  0
 86 89  2  0  0  0  0
 87 88  1  0  0  0  0
 87 91  2  0  0  0  0
 89 90  1  0  0  0  0
 89 93  1  0  0  0  0
 91 92  1  0  0  0  0
 91 94  1  0  0  0  0
 93 94  2  0  0  0  0
 93 97  1  0  0  0  0
 94 95  1  0  0  0  0
 95 96  1  0  0  0  0
 97 98  1  0  0  0  0
 98 99  1  0  0  0  0
 98100  1  0  0  0  0
 98101  1  0  0  0  0
M  BCL ATM C_TeTeTeTe H_S O_Te2Te2TeTe C_TeTeTeTe H_S C_TeTeTeTe H_S C_TeTeTeTe H_S O_Te2Te2TeTe H_S C_TeTeTeTe H_S H_S C_TeTeTeTe H_S H_S N_TrTrTrPi2 H_S C_TrTrTrPi O_Tr2Tr2TrPi C_TeTeTeTe H_S H_S C_TeTeTeTe H_S H_S N_TrTrTrPi2 H_S O_Tr2Tr2TrPi C_TrTrTrPi C_TeTeTeTe H_S H_S C_TeTeTeTe H_S H_S H_S C_TeTeTeTe C_TeTeTeTe H_S H_S H_S C_TeTeTeTe H_S O_Te2Te2TeTe H_S O_Tr2TrTrPi2 O_Tr2TrTrPi2 O_Tr2TrTrPi2 O_Te2Te2TeTe O_Tr2Tr2TrPi O_Te2Te2TeTe O_Tr2Tr2TrPi P_TeTeTeTePi P_TeTeTeTePi C_TeTeTeTe H_S H_S O_Tr2TrTrPi2 O_Tr2Tr2TrPi O_Te2Te2Te2Te P_TeTeTeTePi O_Te2Te2Te2Te N_TrTrTrPi2 C_TrTrTrPi C_TrTrTrPi H_S C_TrTrTrPi N_Tr2TrTrPi N_Tr2TrTrPi C_TrTrTrPi C_TrTrTrPi H_S N_Tr2TrTrPi N_TrTrTrPi2 H_S H_S S_Te2Te2TeTe O_Tr2Tr2TrPi C_TrTrTrPi C_TrTrTrPi H_S C_TrTrTrPi H_S C_TrTrTrPi C_TrTrTrPi H_S C_TrTrTrPi H_S C_TrTrTrPi H_S C_TrTrTrPi C_TrTrTrPi O_Te2Te2TeTe H_S O_Tr2TrTrPi2 C_TeTeTeTe H_S H_S H_S
M  BCL BND NonConjugatedSingleBond NonConjugatedSingleBondInRing NonConjugatedSingleBondInRing NonConjugatedSingleBond NonConjugatedSingleBondInRing NonConjugatedSingleBond NonConjugatedSingleBondInRing NonConjugatedSingleBond NonConjugatedSingleBond NonConjugatedSingleBondInRing NonConjugatedSingleBond NonConjugatedSingleBond NonConjugatedSingleBond NonConjugatedSingleBond NonConjugatedSingleBond NonConjugatedSingleBond NonConjugatedSingleBond NonConjugatedSingleBond NonConjugatedSingleBond NonConjugatedSingleBond NonConjugatedSingleBond NonConjugatedSingleBond AmideSingleBond ConjugatedDoubleBond NonConjugatedSingleBond NonConjugatedSingleBond NonConjugatedSingleBond NonConjugatedSingleBond NonConjugatedSingleBond NonConjugatedSingleBond NonConjugatedSingleBond NonConjugatedSingleBond AmideSingleBond ConjugatedDoubleBond NonConjugatedSingleBond NonConjugatedSingleBond NonConjugatedSingleBond NonConjugatedSingleBond NonConjugatedSingleBond NonConjugatedSingleBond NonConjugatedSingleBond NonConjugatedSingleBond NonConjugatedSingleBond NonConjugatedSingleBond NonConjugatedSingleBond NonConjugatedSingleBond NonConjugatedSingleBond NonConjugatedSingleBond NonConjugatedSingleBond NonConjugatedSingleBond NonConjugatedSingleBond ConjugatedSingleBond ConjugatedSingleBond ConjugatedSingleBond ConjugatedSingleBond NonConjugatedSingleBond ConjugatedSingleBond ConjugatedDoubleBond ConjugatedSingleBond ConjugatedDoubleBond NonConjugatedSingleBond NonConjugatedSingleBond ConjugatedSingleBond ConjugatedDoubleBond ConjugatedSingleBond ConjugatedSingleBond AromaticSingleBond AromaticSingleBond AromaticDoubleBond AromaticSingleBond NonConjugatedSingleBond AromaticDoubleBond AromaticSingleBond AromaticSingleBond AromaticDoubleBond AromaticDoubleBond ConjugatedSingleBond NonConjugatedSingleBond AromaticSingleBond NonConjugatedSingleBond NonConjugatedSingleBond ConjugatedSingleBond ConjugatedDoubleBond ConjugatedSingleBond NonConjugatedSingleBond ConjugatedDoubleBond NonConjugatedSingleBond ConjugatedSingleBond AromaticSingleBond AromaticDoubleBond NonConjugatedSingleBond AromaticDoubleBond NonConjugatedSingleBond AromaticSingleBond NonConjugatedSingleBond AromaticSingleBond AromaticDoubleBond ConjugatedSingleBond ConjugatedSingleBond NonConjugatedSingleBond NonConjugatedSingleBond NonConjugatedSingleBond NonConjugatedSingleBond NonConjugatedSingleBond
M  BCL CHI   1   R   4   R   6   R   8   S  44   S  55   S  56   R
M  BCL DBI - - - - - - - - - - E - - -
M  END
> <ConfClashScore>
0.0004783 

> <ConfOneFourInteractionScore>
-0.968743 

> <ConfScore>
0.0181552 

> <ConfScorePBest>
0.00922749 

> <ConfTolerance>
2.72032 

$$$$
L02.****
  PyMOL2.5          3D                             0

101104  0  0  0  0  0  0  0  0999 V2000
   15.2365   -4.4230   -5.5442 C   0  0  0  1  0  0  0  0  0  0  0  0
   14.6146   -4.2920   -6.4050 H   0  0  0  1  0  0  0  0  0  0  0  0
   15.2153   -5.7969   -5.1298 O   0  0  0  1  0  0  0  0  0  0  0  0
   14.7142   -3.5975   -4.4056 C   0  0  0  1  0  0  0  0  0  0  0  0
   15.4475   -2.8847   -4.0906 H   0  0  0  1  0  0  0  0  0  0  0  0
   14.2836   -5.8847   -4.0252 C   0  0  0  1  0  0  0  0  0  0  0  0
   14.5345   -6.7037   -3.3839 H   0  0  0  1  0  0  0  0  0  0  0  0
   14.4303   -4.5879   -3.3041 C   0  0  0  1  0  0  0  0  0  0  0  0
   13.5286   -4.3349   -2.7865 H   0  0  0  1  0  0  0  0  0  0  0  0
   13.5190   -2.9150   -4.7873 O   0  0  0  1  0  0  0  0  0  0  0  0
   13.7358   -2.2052   -5.3961 H   0  0  0  1  0  0  0  0  0  0  0  0
   15.9741   -1.4705  -11.6336 C   0  0  0  1  0  0  0  0  0  0  0  0
   15.7682   -0.7948  -12.4373 H   0  0  0  1  0  0  0  0  0  0  0  0
   16.5095   -0.9564  -10.8630 H   0  0  0  1  0  0  0  0  0  0  0  0
   16.8362   -2.5926  -12.1547 C   0  0  0  1  0  0  0  0  0  0  0  0
   16.3370   -3.0837  -12.9637 H   0  0  0  1  0  0  0  0  0  0  0  0
   17.0233   -3.2962  -11.3706 H   0  0  0  1  0  0  0  0  0  0  0  0
   14.7111   -1.9444  -11.0876 N   0  0  0  1  0  0  0  0  0  0  0  0
   14.2328   -2.6379  -11.5882 H   0  0  0  1  0  0  0  0  0  0  0  0
   14.1556   -1.5060   -9.9569 C   0  0  0  1  0  0  0  0  0  0  0  0
   14.6919   -0.6987   -9.1991 O   0  0  0  1  0  0  0  0  0  0  0  0
   12.5739   -2.5724   -8.3007 C   0  0  0  1  0  0  0  0  0  0  0  0
   12.8983   -1.8369   -7.5945 H   0  0  0  1  0  0  0  0  0  0  0  0
   13.1873   -3.4449   -8.2150 H   0  0  0  1  0  0  0  0  0  0  0  0
   12.7569   -1.9996   -9.7001 C   0  0  0  1  0  0  0  0  0  0  0  0
   12.5291   -2.7639  -10.4134 H   0  0  0  1  0  0  0  0  0  0  0  0
   12.0787   -1.1814   -9.8245 H   0  0  0  1  0  0  0  0  0  0  0  0
   11.1983   -2.9477   -7.9687 N   0  0  0  1  0  0  0  0  0  0  0  0
   10.8189   -3.7786   -8.3238 H   0  0  0  1  0  0  0  0  0  0  0  0
   10.8838   -1.1658   -6.5977 O   0  0  0  1  0  0  0  0  0  0  0  0
   10.4603   -2.1612   -7.1838 C   0  0  0  1  0  0  0  0  0  0  0  0
    9.8067   -4.7608   -5.9017 C   0  0  0  1  0  0  0  0  0  0  0  0
    9.8483   -5.3044   -4.9810 H   0  0  0  1  0  0  0  0  0  0  0  0
   10.7946   -4.4646   -6.1865 H   0  0  0  1  0  0  0  0  0  0  0  0
    9.4759   -2.6931   -4.5310 C   0  0  0  1  0  0  0  0  0  0  0  0
    8.6719   -2.1477   -4.0826 H   0  0  0  1  0  0  0  0  0  0  0  0
   10.2199   -2.0081   -4.8805 H   0  0  0  1  0  0  0  0  0  0  0  0
    9.9082   -3.3509   -3.8063 H   0  0  0  1  0  0  0  0  0  0  0  0
    8.9422   -3.5136   -5.7114 C   0  0  0  1  0  0  0  0  0  0  0  0
    7.4941   -3.9656   -5.4902 C   0  0  0  1  0  0  0  0  0  0  0  0
    6.8633   -3.1071   -5.3901 H   0  0  0  1  0  0  0  0  0  0  0  0
    7.4370   -4.5557   -4.5994 H   0  0  0  1  0  0  0  0  0  0  0  0
    7.1712   -4.5495   -6.3267 H   0  0  0  1  0  0  0  0  0  0  0  0
    9.0380   -2.6377   -6.9662 C   0  0  0  1  0  0  0  0  0  0  0  0
    8.7482   -3.2300   -7.8089 H   0  0  0  1  0  0  0  0  0  0  0  0
    8.1158   -1.5758   -6.7891 O   0  0  0  1  0  0  0  0  0  0  0  0
    8.2009   -0.9531   -7.5148 H   0  0  0  1  0  0  0  0  0  0  0  0
    9.2484   -5.6100   -6.9316 O   0  0  0  1  0  0  0  0  0  0  0  0
   10.7692   -7.5681   -6.4130 O   0  0  0  1  0  0  0  0  0  0  0  0
   13.0393   -6.8114   -5.7593 O   0  0  0  1  0  0  0  0  0  0  0  0
    9.0306   -7.6347   -8.2564 O   0  0  0  0  0  0  0  0  0  0  0  0
   11.1774   -6.2616   -8.4317 O   0  0  0  1  0  0  0  0  0  0  0  0
   12.0554   -8.7527   -4.6886 O   0  0  0  0  0  0  0  0  0  0  0  0
   12.7854   -8.9016   -7.1308 O   0  0  0  1  0  0  0  0  0  0  0  0
   10.0682   -6.7977   -7.6279 P   0  0  0  1  0  0  0  0  0  0  0  0
   12.2082   -8.1218   -6.0202 P   0  0  0  1  0  0  0  0  0  0  0  0
   12.8709   -6.0556   -4.5320 C   0  0  0  1  0  0  0  0  0  0  0  0
   12.4174   -5.1063   -4.7269 H   0  0  0  1  0  0  0  0  0  0  0  0
   12.2754   -6.5981   -3.8278 H   0  0  0  1  0  0  0  0  0  0  0  0
   15.5261   -4.6419   -2.3651 O   0  0  0  1  0  0  0  0  0  0  0  0
   14.7994   -2.7197   -0.7331 O   0  0  0  1  0  0  0  0  0  0  0  0
   16.8673   -4.1714   -0.2787 O   0  5  0  1  0  0  0  0  0  0  0  0
   15.3464   -4.0914   -0.8308 P   0  0  0  1  0  0  0  0  0  0  0  0
   14.4935   -5.1954   -0.0072 O   0  5  0  1  0  0  0  0  0  0  0  0
   16.6061   -4.0200   -5.8653 N   0  0  0  1  0  0  0  0  0  0  0  0
   17.6453   -3.8493   -4.9874 C   0  0  0  1  0  0  0  0  0  0  0  0
   17.1131   -3.7369   -7.0963 C   0  0  0  1  0  0  0  0  0  0  0  0
   16.5371   -3.7783   -7.9613 H   0  0  0  1  0  0  0  0  0  0  0  0
   18.7417   -3.4708   -5.7737 C   0  0  0  1  0  0  0  0  0  0  0  0
   17.6339   -4.0191   -3.6645 N   0  0  0  1  0  0  0  0  0  0  0  0
   18.3766   -3.4096   -7.1095 N   0  0  0  1  0  0  0  0  0  0  0  0
   19.9299   -3.2555   -5.0816 C   0  0  0  1  0  0  0  0  0  0  0  0
   18.8262   -3.7733   -3.1354 C   0  0  0  1  0  0  0  0  0  0  0  0
   18.8911   -3.8818   -2.1031 H   0  0  0  1  0  0  0  0  0  0  0  0
   19.9594   -3.4037   -3.7528 N   0  0  0  1  0  0  0  0  0  0  0  0
   21.1279   -2.7971   -5.6535 N   0  0  0  1  0  0  0  0  0  0  0  0
   21.8205   -2.3983   -5.0863 H   0  0  0  1  0  0  0  0  0  0  0  0
   21.2713   -2.8759   -6.6198 H   0  0  0  1  0  0  0  0  0  0  0  0
   18.4025   -1.9010  -12.7373 S   0  0  0  1  0  0  0  0  0  0  0  0
   19.1442   -2.6340  -10.2876 O   0  0  0  1  0  0  0  0  0  0  0  0
   19.4695   -2.1752  -11.3566 C   0  0  0  1  0  0  0  0  0  0  0  0
   20.8530   -1.8493  -11.6813 C   0  0  0  1  0  0  0  0  0  0  0  0
   21.0214   -1.3026  -12.5499 H   0  0  0  1  0  0  0  0  0  0  0  0
   21.9208   -2.1921  -10.9600 C   0  0  0  1  0  0  0  0  0  0  0  0
   21.7326   -2.7383  -10.0953 H   0  0  0  1  0  0  0  0  0  0  0  0
   23.3429   -1.8884  -11.2423 C   0  0  0  1  0  0  0  0  0  0  0  0
   24.3261   -2.3642  -10.3888 C   0  0  0  1  0  0  0  0  0  0  0  0
   24.0633   -2.9335   -9.5591 H   0  0  0  1  0  0  0  0  0  0  0  0
   23.6926   -1.1362  -12.3478 C   0  0  0  1  0  0  0  0  0  0  0  0
   22.9553   -0.7826  -12.9904 H   0  0  0  1  0  0  0  0  0  0  0  0
   25.6555   -2.0820  -10.6402 C   0  0  0  1  0  0  0  0  0  0  0  0
   26.3928   -2.4356   -9.9975 H   0  0  0  1  0  0  0  0  0  0  0  0
   25.0259   -0.8531  -12.6002 C   0  0  0  1  0  0  0  0  0  0  0  0
   26.0060   -1.3275  -11.7490 C   0  0  0  1  0  0  0  0  0  0  0  0
   27.3166   -1.0686  -11.9772 O   0  0  0  1  0  0  0  0  0  0  0  0
   27.6039   -1.5382  -12.7636 H   0  0  0  1  0  0  0  0  0  0  0  0
   25.4008   -0.0298  -13.6079 O   0  0  0  1  0  0  0  0  0  0  0  0
   24.3638    0.4725  -14.4651 C   0  0  0  1  0  0  0  0  0  0  0  0
   24.7717    1.2091  -15.1254 H   0  0  0  1  0  0  0  0  0  0  0  0
   23.5927    0.9153  -13.8700 H   0  0  0  1  0  0  0  0  0  0  0  0
   23.9543   -0.3326  -15.0387 H   0  0  0  1  0  0  0  0  0  0  0  0
  1  2  1  0  0  0  0
  1  3  1  0  0  0  0
  1  4  1  0  0  0  0
  1 65  1  0  0  0  0
  3  6  1  0  0  0  0
  4  5  1  0  0  0  0
  4  8  1  0  0  0  0
  4 10  1  0  0  0  0
  6  7  1  0  0  0  0
  6  8  1  0  0  0  0
  6 57  1  0  0  0  0
  8  9  1  0  0  0  0
  8 60  1  0  0  0  0
 10 11  1  0  0  0  0
 12 13  1  0  0  0  0
 12 14  1  0  0  0  0
 12 15  1  0  0  0  0
 12 18  1  0  0  0  0
 15 16  1  0  0  0  0
 15 17  1  0  0  0  0
 15 79  1  0  0  0  0
 18 19  1  0  0  0  0
 18 20  1  0  0  0  0
 20 21  2  0  0  0  0
 20 25  1  0  0  0  0
 22 23  1  0  0  0  0
 22 24  1  0  0  0  0
 22 25  1  0  0  0  0
 22 28  1  0  0  0  0
 25 26  1  0  0  0  0
 25 27  1  0  0  0  0
 28 29  1  0  0  0  0
 28 31  1  0  0  0  0
 30 31  2  0  0  0  0
 31 44  1  0  0  0  0
 32 33  1  0  0  0  0
 32 34  1  0  0  0  0
 32 39  1  0  0  0  0
 32 48  1  0  0  0  0
 35 36  1  0  0  0  0
 35 37  1  0  0  0  0
 35 38  1  0  0  0  0
 35 39  1  0  0  0  0
 39 40  1  0  0  0  0
 39 44  1  0  0  0  0
 40 41  1  0  0  0  0
 40 42  1  0  0  0  0
 40 43  1  0  0  0  0
 44 45  1  0  0  0  0
 44 46  1  0  0  0  0
 46 47  1  0  0  0  0
 48 55  1  0  0  0  0
 49 55  1  0  0  0  0
 49 56  1  0  0  0  0
 50 56  1  0  0  0  0
 50 57  1  0  0  0  0
 51 55  1  0  0  0  0
 52 55  2  0  0  0  0
 53 56  1  0  0  0  0
 54 56  2  0  0  0  0
 57 58  1  0  0  0  0
 57 59  1  0  0  0  0
 60 63  1  0  0  0  0
 61 63  2  0  0  0  0
 62 63  1  0  0  0  0
 63 64  1  0  0  0  0
 65 66  1  0  0  0  0
 65 67  1  0  0  0  0
 66 69  2  0  0  0  0
 66 70  1  0  0  0  0
 67 68  1  0  0  0  0
 67 71  2  0  0  0  0
 69 71  1  0  0  0  0
 69 72  1  0  0  0  0
 70 73  2  0  0  0  0
 72 75  2  0  0  0  0
 72 76  1  0  0  0  0
 73 74  1  0  0  0  0
 73 75  1  0  0  0  0
 76 77  1  0  0  0  0
 76 78  1  0  0  0  0
 79 81  1  0  0  0  0
 80 81  2  0  0  0  0
 81 82  1  0  0  0  0
 82 83  1  0  0  0  0
 82 84  2  0  0  0  0
 84 85  1  0  0  0  0
 84 86  1  0  0  0  0
 86 87  1  0  0  0  0
 86 89  2  0  0  0  0
 87 88  1  0  0  0  0
 87 91  2  0  0  0  0
 89 90  1  0  0  0  0
 89 93  1  0  0  0  0
 91 92  1  0  0  0  0
 91 94  1  0  0  0  0
 93 94  2  0  0  0  0
 93 97  1  0  0  0  0
 94 95  1  0  0  0  0
 95 96  1  0  0  0  0
 97 98  1  0  0  0  0
 98 99  1  0  0  0  0
 98100  1  0  0  0  0
 98101  1  0  0  0  0
M  BCL ATM C_TeTeTeTe H_S O_Te2Te2TeTe C_TeTeTeTe H_S C_TeTeTeTe H_S C_TeTeTeTe H_S O_Te2Te2TeTe H_S C_TeTeTeTe H_S H_S C_TeTeTeTe H_S H_S N_TrTrTrPi2 H_S C_TrTrTrPi O_Tr2Tr2TrPi C_TeTeTeTe H_S H_S C_TeTeTeTe H_S H_S N_TrTrTrPi2 H_S O_Tr2Tr2TrPi C_TrTrTrPi C_TeTeTeTe H_S H_S C_TeTeTeTe H_S H_S H_S C_TeTeTeTe C_TeTeTeTe H_S H_S H_S C_TeTeTeTe H_S O_Te2Te2TeTe H_S O_Tr2TrTrPi2 O_Tr2TrTrPi2 O_Tr2TrTrPi2 O_Te2Te2TeTe O_Tr2Tr2TrPi O_Te2Te2TeTe O_Tr2Tr2TrPi P_TeTeTeTePi P_TeTeTeTePi C_TeTeTeTe H_S H_S O_Tr2TrTrPi2 O_Tr2Tr2TrPi O_Te2Te2Te2Te P_TeTeTeTePi O_Te2Te2Te2Te N_TrTrTrPi2 C_TrTrTrPi C_TrTrTrPi H_S C_TrTrTrPi N_Tr2TrTrPi N_Tr2TrTrPi C_TrTrTrPi C_TrTrTrPi H_S N_Tr2TrTrPi N_TrTrTrPi2 H_S H_S S_Te2Te2TeTe O_Tr2Tr2TrPi C_TrTrTrPi C_TrTrTrPi H_S C_TrTrTrPi H_S C_TrTrTrPi C_TrTrTrPi H_S C_TrTrTrPi H_S C_TrTrTrPi H_S C_TrTrTrPi C_TrTrTrPi O_Te2Te2TeTe H_S O_Tr2TrTrPi2 C_TeTeTeTe H_S H_S H_S
M  BCL BND NonConjugatedSingleBond NonConjugatedSingleBondInRing NonConjugatedSingleBondInRing NonConjugatedSingleBond NonConjugatedSingleBondInRing NonConjugatedSingleBond NonConjugatedSingleBondInRing NonConjugatedSingleBond NonConjugatedSingleBond NonConjugatedSingleBondInRing NonConjugatedSingleBond NonConjugatedSingleBond NonConjugatedSingleBond NonConjugatedSingleBond NonConjugatedSingleBond NonConjugatedSingleBond NonConjugatedSingleBond NonConjugatedSingleBond NonConjugatedSingleBond NonConjugatedSingleBond NonConjugatedSingleBond NonConjugatedSingleBond AmideSingleBond ConjugatedDoubleBond NonConjugatedSingleBond NonConjugatedSingleBond NonConjugatedSingleBond NonConjugatedSingleBond NonConjugatedSingleBond NonConjugatedSingleBond NonConjugatedSingleBond NonConjugatedSingleBond AmideSingleBond ConjugatedDoubleBond NonConjugatedSingleBond NonConjugatedSingleBond NonConjugatedSingleBond NonConjugatedSingleBond NonConjugatedSingleBond NonConjugatedSingleBond NonConjugatedSingleBond NonConjugatedSingleBond NonConjugatedSingleBond NonConjugatedSingleBond NonConjugatedSingleBond NonConjugatedSingleBond NonConjugatedSingleBond NonConjugatedSingleBond NonConjugatedSingleBond NonConjugatedSingleBond NonConjugatedSingleBond ConjugatedSingleBond ConjugatedSingleBond ConjugatedSingleBond ConjugatedSingleBond NonConjugatedSingleBond ConjugatedSingleBond ConjugatedDoubleBond ConjugatedSingleBond ConjugatedDoubleBond NonConjugatedSingleBond NonConjugatedSingleBond ConjugatedSingleBond ConjugatedDoubleBond ConjugatedSingleBond ConjugatedSingleBond AromaticSingleBond AromaticSingleBond AromaticDoubleBond AromaticSingleBond NonConjugatedSingleBond AromaticDoubleBond AromaticSingleBond AromaticSingleBond AromaticDoubleBond AromaticDoubleBond ConjugatedSingleBond NonConjugatedSingleBond AromaticSingleBond NonConjugatedSingleBond NonConjugatedSingleBond ConjugatedSingleBond ConjugatedDoubleBond ConjugatedSingleBond NonConjugatedSingleBond ConjugatedDoubleBond NonConjugatedSingleBond ConjugatedSingleBond AromaticSingleBond AromaticDoubleBond NonConjugatedSingleBond AromaticDoubleBond NonConjugatedSingleBond AromaticSingleBond NonConjugatedSingleBond AromaticSingleBond AromaticDoubleBond ConjugatedSingleBond ConjugatedSingleBond NonConjugatedSingleBond NonConjugatedSingleBond NonConjugatedSingleBond NonConjugatedSingleBond NonConjugatedSingleBond
M  BCL CHI   1   R   4   R   6   R   8   S  44   S  55   S  56   R
M  BCL DBI - - - - - - - - - - E - - -
M  END
> <ConfClashScore>
0 

> <ConfOneFourInteractionScore>
-0.980592 

> <ConfScore>
0.0202994 

> <ConfScorePBest>
0.00912449 

> <ConfTolerance>
2.75938 

$$$$
L02.****
  PyMOL2.5          3D                             0

101104  0  0  0  0  0  0  0  0999 V2000
   15.2756   -4.4706   -5.5174 C   0  0  0  1  0  0  0  0  0  0  0  0
   15.3178   -5.4536   -5.0968 H   0  0  0  1  0  0  0  0  0  0  0  0
   14.6645   -3.5328   -4.5799 O   0  0  0  1  0  0  0  0  0  0  0  0
   14.3629   -4.4425   -6.7219 C   0  0  0  1  0  0  0  0  0  0  0  0
   14.9037   -4.6700   -7.6168 H   0  0  0  1  0  0  0  0  0  0  0  0
   13.8648   -2.6067   -5.2598 C   0  0  0  1  0  0  0  0  0  0  0  0
   14.2725   -1.6238   -5.1481 H   0  0  0  1  0  0  0  0  0  0  0  0
   13.8459   -2.9979   -6.7459 C   0  0  0  1  0  0  0  0  0  0  0  0
   12.8541   -2.9499   -7.1447 H   0  0  0  1  0  0  0  0  0  0  0  0
   13.2856   -5.3676   -6.5676 O   0  0  0  1  0  0  0  0  0  0  0  0
   13.3411   -5.7830   -5.7039 H   0  0  0  1  0  0  0  0  0  0  0  0
   22.8019   -0.9305    1.9965 C   0  0  0  1  0  0  0  0  0  0  0  0
   22.5242   -0.7674    3.0169 H   0  0  0  1  0  0  0  0  0  0  0  0
   22.2795   -1.7834    1.6161 H   0  0  0  1  0  0  0  0  0  0  0  0
   24.2841   -1.2054    1.9370 C   0  0  0  1  0  0  0  0  0  0  0  0
   24.5289   -1.9592    2.6559 H   0  0  0  1  0  0  0  0  0  0  0  0
   24.8158   -0.3059    2.1675 H   0  0  0  1  0  0  0  0  0  0  0  0
   22.4167    0.2439    1.2120 N   0  0  0  1  0  0  0  0  0  0  0  0
   22.9754    1.0478    1.2584 H   0  0  0  1  0  0  0  0  0  0  0  0
   21.2956    0.2585    0.4103 C   0  0  0  1  0  0  0  0  0  0  0  0
   20.9941    1.2676   -0.1986 O   0  0  0  1  0  0  0  0  0  0  0  0
   19.2583   -0.8552   -0.5018 C   0  0  0  1  0  0  0  0  0  0  0  0
   18.7307   -1.7858   -0.5254 H   0  0  0  1  0  0  0  0  0  0  0  0
   19.5554   -0.5879   -1.4944 H   0  0  0  1  0  0  0  0  0  0  0  0
   20.5098   -1.0243    0.3543 C   0  0  0  1  0  0  0  0  0  0  0  0
   20.2213   -1.3025    1.3464 H   0  0  0  1  0  0  0  0  0  0  0  0
   21.1227   -1.7929   -0.0681 H   0  0  0  1  0  0  0  0  0  0  0  0
   18.3607    0.1800    0.0140 N   0  0  0  1  0  0  0  0  0  0  0  0
   18.6028    1.1255   -0.0744 H   0  0  0  1  0  0  0  0  0  0  0  0
   16.8726   -1.3321    0.7572 O   0  0  0  1  0  0  0  0  0  0  0  0
   17.2122   -0.1616    0.6050 C   0  0  0  1  0  0  0  0  0  0  0  0
   14.3157   -0.2246    0.4275 C   0  0  0  1  0  0  0  0  0  0  0  0
   14.9143   -1.0245    0.0446 H   0  0  0  1  0  0  0  0  0  0  0  0
   14.1480    0.4972   -0.3444 H   0  0  0  1  0  0  0  0  0  0  0  0
   15.2360   -0.6292    2.7168 C   0  0  0  1  0  0  0  0  0  0  0  0
   16.2632   -0.9286    2.7104 H   0  0  0  1  0  0  0  0  0  0  0  0
   14.6158   -1.4791    2.5218 H   0  0  0  1  0  0  0  0  0  0  0  0
   14.9900   -0.2197    3.6742 H   0  0  0  1  0  0  0  0  0  0  0  0
   15.0051    0.4309    1.6334 C   0  0  0  1  0  0  0  0  0  0  0  0
   14.1591    1.5773    2.1992 C   0  0  0  1  0  0  0  0  0  0  0  0
   14.1211    2.3772    1.4895 H   0  0  0  1  0  0  0  0  0  0  0  0
   14.5985    1.9290    3.1093 H   0  0  0  1  0  0  0  0  0  0  0  0
   13.1673    1.2261    2.3938 H   0  0  0  1  0  0  0  0  0  0  0  0
   16.3664    0.9697    1.1901 C   0  0  0  1  0  0  0  0  0  0  0  0
   16.2046    1.6981    0.4232 H   0  0  0  1  0  0  0  0  0  0  0  0
   17.0106    1.5828    2.3045 O   0  0  0  1  0  0  0  0  0  0  0  0
   17.6992    1.0020    2.6360 H   0  0  0  1  0  0  0  0  0  0  0  0
   13.0557   -0.7315    0.9269 O   0  0  0  1  0  0  0  0  0  0  0  0
   11.6654   -1.3729   -1.0873 O   0  0  0  1  0  0  0  0  0  0  0  0
   12.5504   -2.2731   -3.3071 O   0  0  0  1  0  0  0  0  0  0  0  0
   13.3566   -2.9278   -0.2387 O   0  0  0  0  0  0  0  0  0  0  0  0
   11.3290   -2.4570    1.1718 O   0  0  0  1  0  0  0  0  0  0  0  0
   10.6118   -3.3540   -2.2641 O   0  0  0  0  0  0  0  0  0  0  0  0
   10.3444   -1.0009   -3.1325 O   0  0  0  1  0  0  0  0  0  0  0  0
   12.3337   -1.9372    0.2191 P   0  0  0  1  0  0  0  0  0  0  0  0
   11.2442   -1.9812   -2.4796 P   0  0  0  1  0  0  0  0  0  0  0  0
   12.4766   -2.6359   -4.7102 C   0  0  0  1  0  0  0  0  0  0  0  0
   12.0653   -3.6185   -4.8113 H   0  0  0  1  0  0  0  0  0  0  0  0
   11.8618   -1.9355   -5.2359 H   0  0  0  1  0  0  0  0  0  0  0  0
   14.7222   -2.1419   -7.5230 O   0  0  0  1  0  0  0  0  0  0  0  0
   13.2690   -2.2426   -9.6354 O   0  0  0  1  0  0  0  0  0  0  0  0
   15.7186   -3.1465   -9.6712 O   0  5  0  1  0  0  0  0  0  0  0  0
   14.6549   -2.0375   -9.1582 P   0  0  0  1  0  0  0  0  0  0  0  0
   15.3483   -0.6052   -9.4617 O   0  5  0  1  0  0  0  0  0  0  0  0
   16.6275   -4.0352   -5.8802 N   0  0  0  1  0  0  0  0  0  0  0  0
   17.6542   -3.8472   -4.9913 C   0  0  0  1  0  0  0  0  0  0  0  0
   17.1409   -3.7367   -7.1050 C   0  0  0  1  0  0  0  0  0  0  0  0
   16.5745   -3.7861   -7.9759 H   0  0  0  1  0  0  0  0  0  0  0  0
   18.7505   -3.4433   -5.7650 C   0  0  0  1  0  0  0  0  0  0  0  0
   17.6331   -4.0229   -3.6693 N   0  0  0  1  0  0  0  0  0  0  0  0
   18.3976   -3.3838   -7.1041 N   0  0  0  1  0  0  0  0  0  0  0  0
   19.9271   -3.2069   -5.0602 C   0  0  0  1  0  0  0  0  0  0  0  0
   18.8148   -3.7552   -3.1272 C   0  0  0  1  0  0  0  0  0  0  0  0
   18.8717   -3.8667   -2.0948 H   0  0  0  1  0  0  0  0  0  0  0  0
   19.9464   -3.3601   -3.7317 N   0  0  0  1  0  0  0  0  0  0  0  0
   21.0894   -2.8189   -5.6605 N   0  0  0  1  0  0  0  0  0  0  0  0
   21.8669   -2.5796   -5.1142 H   0  0  0  1  0  0  0  0  0  0  0  0
   21.1465   -2.7796   -6.6381 H   0  0  0  1  0  0  0  0  0  0  0  0
   24.7745   -1.7763    0.2924 S   0  0  0  1  0  0  0  0  0  0  0  0
   24.3296   -4.1158    1.4788 O   0  0  0  1  0  0  0  0  0  0  0  0
   24.7141   -3.5544    0.4746 C   0  0  0  1  0  0  0  0  0  0  0  0
   25.1855   -4.2147   -0.7367 C   0  0  0  1  0  0  0  0  0  0  0  0
   25.3964   -3.6323   -1.5721 H   0  0  0  1  0  0  0  0  0  0  0  0
   25.3572   -5.5335   -0.8176 C   0  0  0  1  0  0  0  0  0  0  0  0
   25.1345   -6.0773    0.0405 H   0  0  0  1  0  0  0  0  0  0  0  0
   25.8273   -6.3183   -1.9827 C   0  0  0  1  0  0  0  0  0  0  0  0
   26.3196   -5.6584   -3.0979 C   0  0  0  1  0  0  0  0  0  0  0  0
   26.3608   -4.6193   -3.1110 H   0  0  0  1  0  0  0  0  0  0  0  0
   25.7774   -7.6994   -1.9632 C   0  0  0  1  0  0  0  0  0  0  0  0
   25.4118   -8.1947   -1.1250 H   0  0  0  1  0  0  0  0  0  0  0  0
   26.7556   -6.3812   -4.1923 C   0  0  0  1  0  0  0  0  0  0  0  0
   27.1213   -5.8859   -5.0305 H   0  0  0  1  0  0  0  0  0  0  0  0
   26.2147   -8.4245   -3.0607 C   0  0  0  1  0  0  0  0  0  0  0  0
   26.7056   -7.7663   -4.1726 C   0  0  0  1  0  0  0  0  0  0  0  0
   27.1438   -8.4529   -5.2557 O   0  0  0  1  0  0  0  0  0  0  0  0
   27.8226   -7.9438   -5.7047 H   0  0  0  1  0  0  0  0  0  0  0  0
   26.2096   -9.7751   -3.1588 O   0  0  0  1  0  0  0  0  0  0  0  0
   25.7203  -10.5133   -2.0282 C   0  0  0  1  0  0  0  0  0  0  0  0
   26.4352  -10.4649   -1.2335 H   0  0  0  1  0  0  0  0  0  0  0  0
   25.5674  -11.5345   -2.3084 H   0  0  0  1  0  0  0  0  0  0  0  0
   24.7937  -10.0903   -1.7003 H   0  0  0  1  0  0  0  0  0  0  0  0
  1  2  1  0  0  0  0
  1  3  1  0  0  0  0
  1  4  1  0  0  0  0
  1 65  1  0  0  0  0
  3  6  1  0  0  0  0
  4  5  1  0  0  0  0
  4  8  1  0  0  0  0
  4 10  1  0  0  0  0
  6  7  1  0  0  0  0
  6  8  1  0  0  0  0
  6 57  1  0  0  0  0
  8  9  1  0  0  0  0
  8 60  1  0  0  0  0
 10 11  1  0  0  0  0
 12 13  1  0  0  0  0
 12 14  1  0  0  0  0
 12 15  1  0  0  0  0
 12 18  1  0  0  0  0
 15 16  1  0  0  0  0
 15 17  1  0  0  0  0
 15 79  1  0  0  0  0
 18 19  1  0  0  0  0
 18 20  1  0  0  0  0
 20 21  2  0  0  0  0
 20 25  1  0  0  0  0
 22 23  1  0  0  0  0
 22 24  1  0  0  0  0
 22 25  1  0  0  0  0
 22 28  1  0  0  0  0
 25 26  1  0  0  0  0
 25 27  1  0  0  0  0
 28 29  1  0  0  0  0
 28 31  1  0  0  0  0
 30 31  2  0  0  0  0
 31 44  1  0  0  0  0
 32 33  1  0  0  0  0
 32 34  1  0  0  0  0
 32 39  1  0  0  0  0
 32 48  1  0  0  0  0
 35 36  1  0  0  0  0
 35 37  1  0  0  0  0
 35 38  1  0  0  0  0
 35 39  1  0  0  0  0
 39 40  1  0  0  0  0
 39 44  1  0  0  0  0
 40 41  1  0  0  0  0
 40 42  1  0  0  0  0
 40 43  1  0  0  0  0
 44 45  1  0  0  0  0
 44 46  1  0  0  0  0
 46 47  1  0  0  0  0
 48 55  1  0  0  0  0
 49 55  1  0  0  0  0
 49 56  1  0  0  0  0
 50 56  1  0  0  0  0
 50 57  1  0  0  0  0
 51 55  1  0  0  0  0
 52 55  2  0  0  0  0
 53 56  1  0  0  0  0
 54 56  2  0  0  0  0
 57 58  1  0  0  0  0
 57 59  1  0  0  0  0
 60 63  1  0  0  0  0
 61 63  2  0  0  0  0
 62 63  1  0  0  0  0
 63 64  1  0  0  0  0
 65 66  1  0  0  0  0
 65 67  1  0  0  0  0
 66 69  2  0  0  0  0
 66 70  1  0  0  0  0
 67 68  1  0  0  0  0
 67 71  2  0  0  0  0
 69 71  1  0  0  0  0
 69 72  1  0  0  0  0
 70 73  2  0  0  0  0
 72 75  2  0  0  0  0
 72 76  1  0  0  0  0
 73 74  1  0  0  0  0
 73 75  1  0  0  0  0
 76 77  1  0  0  0  0
 76 78  1  0  0  0  0
 79 81  1  0  0  0  0
 80 81  2  0  0  0  0
 81 82  1  0  0  0  0
 82 83  1  0  0  0  0
 82 84  2  0  0  0  0
 84 85  1  0  0  0  0
 84 86  1  0  0  0  0
 86 87  1  0  0  0  0
 86 89  2  0  0  0  0
 87 88  1  0  0  0  0
 87 91  2  0  0  0  0
 89 90  1  0  0  0  0
 89 93  1  0  0  0  0
 91 92  1  0  0  0  0
 91 94  1  0  0  0  0
 93 94  2  0  0  0  0
 93 97  1  0  0  0  0
 94 95  1  0  0  0  0
 95 96  1  0  0  0  0
 97 98  1  0  0  0  0
 98 99  1  0  0  0  0
 98100  1  0  0  0  0
 98101  1  0  0  0  0
M  BCL ATM C_TeTeTeTe H_S O_Te2Te2TeTe C_TeTeTeTe H_S C_TeTeTeTe H_S C_TeTeTeTe H_S O_Te2Te2TeTe H_S C_TeTeTeTe H_S H_S C_TeTeTeTe H_S H_S N_TrTrTrPi2 H_S C_TrTrTrPi O_Tr2Tr2TrPi C_TeTeTeTe H_S H_S C_TeTeTeTe H_S H_S N_TrTrTrPi2 H_S O_Tr2Tr2TrPi C_TrTrTrPi C_TeTeTeTe H_S H_S C_TeTeTeTe H_S H_S H_S C_TeTeTeTe C_TeTeTeTe H_S H_S H_S C_TeTeTeTe H_S O_Te2Te2TeTe H_S O_Tr2TrTrPi2 O_Tr2TrTrPi2 O_Tr2TrTrPi2 O_Te2Te2TeTe O_Tr2Tr2TrPi O_Te2Te2TeTe O_Tr2Tr2TrPi P_TeTeTeTePi P_TeTeTeTePi C_TeTeTeTe H_S H_S O_Tr2TrTrPi2 O_Tr2Tr2TrPi O_Te2Te2Te2Te P_TeTeTeTePi O_Te2Te2Te2Te N_TrTrTrPi2 C_TrTrTrPi C_TrTrTrPi H_S C_TrTrTrPi N_Tr2TrTrPi N_Tr2TrTrPi C_TrTrTrPi C_TrTrTrPi H_S N_Tr2TrTrPi N_TrTrTrPi2 H_S H_S S_Te2Te2TeTe O_Tr2Tr2TrPi C_TrTrTrPi C_TrTrTrPi H_S C_TrTrTrPi H_S C_TrTrTrPi C_TrTrTrPi H_S C_TrTrTrPi H_S C_TrTrTrPi H_S C_TrTrTrPi C_TrTrTrPi O_Te2Te2TeTe H_S O_Tr2TrTrPi2 C_TeTeTeTe H_S H_S H_S
M  BCL BND NonConjugatedSingleBond NonConjugatedSingleBondInRing NonConjugatedSingleBondInRing NonConjugatedSingleBond NonConjugatedSingleBondInRing NonConjugatedSingleBond NonConjugatedSingleBondInRing NonConjugatedSingleBond NonConjugatedSingleBond NonConjugatedSingleBondInRing NonConjugatedSingleBond NonConjugatedSingleBond NonConjugatedSingleBond NonConjugatedSingleBond NonConjugatedSingleBond NonConjugatedSingleBond NonConjugatedSingleBond NonConjugatedSingleBond NonConjugatedSingleBond NonConjugatedSingleBond NonConjugatedSingleBond NonConjugatedSingleBond AmideSingleBond ConjugatedDoubleBond NonConjugatedSingleBond NonConjugatedSingleBond NonConjugatedSingleBond NonConjugatedSingleBond NonConjugatedSingleBond NonConjugatedSingleBond NonConjugatedSingleBond NonConjugatedSingleBond AmideSingleBond ConjugatedDoubleBond NonConjugatedSingleBond NonConjugatedSingleBond NonConjugatedSingleBond NonConjugatedSingleBond NonConjugatedSingleBond NonConjugatedSingleBond NonConjugatedSingleBond NonConjugatedSingleBond NonConjugatedSingleBond NonConjugatedSingleBond NonConjugatedSingleBond NonConjugatedSingleBond NonConjugatedSingleBond NonConjugatedSingleBond NonConjugatedSingleBond NonConjugatedSingleBond NonConjugatedSingleBond ConjugatedSingleBond ConjugatedSingleBond ConjugatedSingleBond ConjugatedSingleBond NonConjugatedSingleBond ConjugatedSingleBond ConjugatedDoubleBond ConjugatedSingleBond ConjugatedDoubleBond NonConjugatedSingleBond NonConjugatedSingleBond ConjugatedSingleBond ConjugatedDoubleBond ConjugatedSingleBond ConjugatedSingleBond AromaticSingleBond AromaticSingleBond AromaticDoubleBond AromaticSingleBond NonConjugatedSingleBond AromaticDoubleBond AromaticSingleBond AromaticSingleBond AromaticDoubleBond AromaticDoubleBond ConjugatedSingleBond NonConjugatedSingleBond AromaticSingleBond NonConjugatedSingleBond NonConjugatedSingleBond ConjugatedSingleBond ConjugatedDoubleBond ConjugatedSingleBond NonConjugatedSingleBond ConjugatedDoubleBond NonConjugatedSingleBond ConjugatedSingleBond AromaticSingleBond AromaticDoubleBond NonConjugatedSingleBond AromaticDoubleBond NonConjugatedSingleBond AromaticSingleBond NonConjugatedSingleBond AromaticSingleBond AromaticDoubleBond ConjugatedSingleBond ConjugatedSingleBond NonConjugatedSingleBond NonConjugatedSingleBond NonConjugatedSingleBond NonConjugatedSingleBond NonConjugatedSingleBond
M  BCL CHI   1   R   4   R   6   R   8   S  44   S  55   S  56   R
M  BCL DBI - - - - - - - - - - E - - -
M  END
> <ConfClashScore>
0 

> <ConfOneFourInteractionScore>
-0.98131 

> <ConfScore>
0.0203421 

> <ConfScorePBest>
0.00902149 

> <ConfTolerance>
2.70869 

$$$$
L02.****
  PyMOL2.5          3D                             0

101104  0  0  0  0  0  0  0  0999 V2000
   15.2520   -4.4713   -5.5643 C   0  0  0  1  0  0  0  0  0  0  0  0
   14.7740   -3.7329   -4.9550 H   0  0  0  1  0  0  0  0  0  0  0  0
   14.4986   -4.6929   -6.7778 O   0  0  0  1  0  0  0  0  0  0  0  0
   15.2685   -5.8272   -4.8523 C   0  0  0  1  0  0  0  0  0  0  0  0
   16.1695   -6.3628   -5.0677 H   0  0  0  1  0  0  0  0  0  0  0  0
   14.0363   -6.0127   -6.8746 C   0  0  0  1  0  0  0  0  0  0  0  0
   14.6791   -6.5945   -7.5016 H   0  0  0  1  0  0  0  0  0  0  0  0
   14.0696   -6.5324   -5.4300 C   0  0  0  1  0  0  0  0  0  0  0  0
   13.1760   -6.2679   -4.9042 H   0  0  0  1  0  0  0  0  0  0  0  0
   15.1362   -5.6655   -3.4394 O   0  0  0  1  0  0  0  0  0  0  0  0
   16.0070   -5.6489   -3.0357 H   0  0  0  1  0  0  0  0  0  0  0  0
   15.9169   -3.1304  -11.4669 C   0  0  0  1  0  0  0  0  0  0  0  0
   15.5698   -2.4023  -12.1700 H   0  0  0  1  0  0  0  0  0  0  0  0
   16.9770   -3.2409  -11.5610 H   0  0  0  1  0  0  0  0  0  0  0  0
   15.2748   -4.4532  -11.8048 C   0  0  0  1  0  0  0  0  0  0  0  0
   14.2257   -4.3712  -11.6113 H   0  0  0  1  0  0  0  0  0  0  0  0
   15.6985   -5.1998  -11.1661 H   0  0  0  1  0  0  0  0  0  0  0  0
   15.6277   -2.6368  -10.1193 N   0  0  0  1  0  0  0  0  0  0  0  0
   16.2266   -2.9170   -9.3960 H   0  0  0  1  0  0  0  0  0  0  0  0
   14.5988   -1.8253   -9.7982 C   0  0  0  1  0  0  0  0  0  0  0  0
   13.8266   -1.4068  -10.6598 O   0  0  0  1  0  0  0  0  0  0  0  0
   14.6249    0.0187   -8.0391 C   0  0  0  1  0  0  0  0  0  0  0  0
   13.9632    0.5957   -8.6508 H   0  0  0  1  0  0  0  0  0  0  0  0
   15.6379    0.2803   -8.2633 H   0  0  0  1  0  0  0  0  0  0  0  0
   14.4218   -1.4457   -8.3537 C   0  0  0  1  0  0  0  0  0  0  0  0
   15.1253   -2.0081   -7.7761 H   0  0  0  1  0  0  0  0  0  0  0  0
   13.4271   -1.7111   -8.0622 H   0  0  0  1  0  0  0  0  0  0  0  0
   14.3591    0.3333   -6.6342 N   0  0  0  1  0  0  0  0  0  0  0  0
   14.9147   -0.0835   -5.9429 H   0  0  0  1  0  0  0  0  0  0  0  0
   12.6904    1.8207   -7.0397 O   0  0  0  1  0  0  0  0  0  0  0  0
   13.3854    1.1689   -6.2618 C   0  0  0  1  0  0  0  0  0  0  0  0
   11.3287   -0.2976   -4.5766 C   0  0  0  1  0  0  0  0  0  0  0  0
   10.4020   -0.4875   -4.0764 H   0  0  0  1  0  0  0  0  0  0  0  0
   12.0505   -1.0303   -4.2815 H   0  0  0  1  0  0  0  0  0  0  0  0
   11.8674    1.2440   -2.6946 C   0  0  0  1  0  0  0  0  0  0  0  0
   10.8743    1.4042   -2.3300 H   0  0  0  1  0  0  0  0  0  0  0  0
   12.4855    2.0737   -2.4216 H   0  0  0  1  0  0  0  0  0  0  0  0
   12.2639    0.3471   -2.2666 H   0  0  0  1  0  0  0  0  0  0  0  0
   11.8366    1.1108   -4.2219 C   0  0  0  1  0  0  0  0  0  0  0  0
   10.8800    2.1682   -4.7851 C   0  0  0  1  0  0  0  0  0  0  0  0
    9.8801    1.9462   -4.4758 H   0  0  0  1  0  0  0  0  0  0  0  0
   10.9321    2.1628   -5.8538 H   0  0  0  1  0  0  0  0  0  0  0  0
   11.1604    3.1337   -4.4188 H   0  0  0  1  0  0  0  0  0  0  0  0
   13.2461    1.3506   -4.7722 C   0  0  0  1  0  0  0  0  0  0  0  0
   13.5472    2.3447   -4.5153 H   0  0  0  1  0  0  0  0  0  0  0  0
   14.0743    0.3979   -4.0849 O   0  0  0  1  0  0  0  0  0  0  0  0
   13.5379   -0.3446   -3.7976 H   0  0  0  1  0  0  0  0  0  0  0  0
   11.1343   -0.3467   -6.0096 O   0  0  0  1  0  0  0  0  0  0  0  0
   11.3515   -2.4409   -7.3950 O   0  0  0  1  0  0  0  0  0  0  0  0
   12.0503   -4.7625   -7.0946 O   0  0  0  1  0  0  0  0  0  0  0  0
    9.6519   -2.4107   -5.6747 O   0  0  0  0  0  0  0  0  0  0  0  0
    9.4195   -0.8059   -7.6640 O   0  0  0  1  0  0  0  0  0  0  0  0
    9.7728   -4.3113   -8.1268 O   0  0  0  0  0  0  0  0  0  0  0  0
   11.8896   -3.7633   -9.4186 O   0  0  0  1  0  0  0  0  0  0  0  0
   10.2572   -1.5109   -6.6817 P   0  0  0  1  0  0  0  0  0  0  0  0
   11.1990   -3.8510   -8.0925 P   0  0  0  1  0  0  0  0  0  0  0  0
   12.6297   -6.0479   -7.4236 C   0  0  0  1  0  0  0  0  0  0  0  0
   12.0703   -6.8374   -6.9666 H   0  0  0  1  0  0  0  0  0  0  0  0
   12.6463   -6.1894   -8.4840 H   0  0  0  1  0  0  0  0  0  0  0  0
   14.2432   -7.9727   -5.3961 O   0  0  0  1  0  0  0  0  0  0  0  0
   16.7732   -8.2702   -5.0717 O   0  0  0  1  0  0  0  0  0  0  0  0
   15.2898  -10.2363   -4.8264 O   0  5  0  1  0  0  0  0  0  0  0  0
   15.4531   -8.6534   -4.5230 P   0  0  0  1  0  0  0  0  0  0  0  0
   15.1402   -8.3658   -2.9597 O   0  5  0  1  0  0  0  0  0  0  0  0
   16.6144   -4.0388   -5.8773 N   0  0  0  1  0  0  0  0  0  0  0  0
   17.6455   -3.8494   -4.9938 C   0  0  0  1  0  0  0  0  0  0  0  0
   17.1214   -3.7412   -7.1049 C   0  0  0  1  0  0  0  0  0  0  0  0
   16.5507   -3.7917   -7.9729 H   0  0  0  1  0  0  0  0  0  0  0  0
   18.7377   -3.4455   -5.7734 C   0  0  0  1  0  0  0  0  0  0  0  0
   17.6312   -4.0238   -3.6715 N   0  0  0  1  0  0  0  0  0  0  0  0
   18.3779   -3.3875   -7.1108 N   0  0  0  1  0  0  0  0  0  0  0  0
   19.9177   -3.2079   -5.0748 C   0  0  0  1  0  0  0  0  0  0  0  0
   18.8155   -3.7550   -3.1357 C   0  0  0  1  0  0  0  0  0  0  0  0
   18.8776   -3.8655   -2.1034 H   0  0  0  1  0  0  0  0  0  0  0  0
   19.9437   -3.3597   -3.7463 N   0  0  0  1  0  0  0  0  0  0  0  0
   21.1265   -2.8116   -5.6366 N   0  0  0  1  0  0  0  0  0  0  0  0
   21.1749   -2.5920   -6.5904 H   0  0  0  1  0  0  0  0  0  0  0  0
   21.9300   -2.7519   -5.0786 H   0  0  0  1  0  0  0  0  0  0  0  0
   15.4880   -4.9944  -13.5173 S   0  0  0  1  0  0  0  0  0  0  0  0
   16.6291   -2.6556  -13.8926 O   0  0  0  1  0  0  0  0  0  0  0  0
   16.7137   -3.8380  -14.1317 C   0  0  0  1  0  0  0  0  0  0  0  0
   17.8129   -4.3748  -14.9281 C   0  0  0  1  0  0  0  0  0  0  0  0
   17.8314   -5.4081  -15.0445 H   0  0  0  1  0  0  0  0  0  0  0  0
   18.7954   -3.7002  -15.5239 C   0  0  0  1  0  0  0  0  0  0  0  0
   18.7770   -2.6669  -15.4074 H   0  0  0  1  0  0  0  0  0  0  0  0
   19.9108   -4.2450  -16.3322 C   0  0  0  1  0  0  0  0  0  0  0  0
   20.6753   -3.3876  -17.1081 C   0  0  0  1  0  0  0  0  0  0  0  0
   20.4665   -2.3689  -17.1169 H   0  0  0  1  0  0  0  0  0  0  0  0
   20.1917   -5.5981  -16.3164 C   0  0  0  1  0  0  0  0  0  0  0  0
   19.6208   -6.2409  -15.7311 H   0  0  0  1  0  0  0  0  0  0  0  0
   21.7149   -3.8866  -17.8700 C   0  0  0  1  0  0  0  0  0  0  0  0
   22.2858   -3.2438  -18.4553 H   0  0  0  1  0  0  0  0  0  0  0  0
   21.2343   -6.0988  -17.0805 C   0  0  0  1  0  0  0  0  0  0  0  0
   21.9965   -5.2438  -17.8541 C   0  0  0  1  0  0  0  0  0  0  0  0
   23.0082   -5.7791  -18.5798 O   0  0  0  1  0  0  0  0  0  0  0  0
   23.3535   -6.5519  -18.1268 H   0  0  0  1  0  0  0  0  0  0  0  0
   21.4422   -7.4322  -17.1405 O   0  0  0  1  0  0  0  0  0  0  0  0
   20.5064   -8.3227  -16.5130 C   0  0  0  1  0  0  0  0  0  0  0  0
   20.8140   -8.5123  -15.5059 H   0  0  0  1  0  0  0  0  0  0  0  0
   20.4732   -9.2446  -17.0551 H   0  0  0  1  0  0  0  0  0  0  0  0
   19.5347   -7.8746  -16.5105 H   0  0  0  1  0  0  0  0  0  0  0  0
  1  2  1  0  0  0  0
  1  3  1  0  0  0  0
  1  4  1  0  0  0  0
  1 65  1  0  0  0  0
  3  6  1  0  0  0  0
  4  5  1  0  0  0  0
  4  8  1  0  0  0  0
  4 10  1  0  0  0  0
  6  7  1  0  0  0  0
  6  8  1  0  0  0  0
  6 57  1  0  0  0  0
  8  9  1  0  0  0  0
  8 60  1  0  0  0  0
 10 11  1  0  0  0  0
 12 13  1  0  0  0  0
 12 14  1  0  0  0  0
 12 15  1  0  0  0  0
 12 18  1  0  0  0  0
 15 16  1  0  0  0  0
 15 17  1  0  0  0  0
 15 79  1  0  0  0  0
 18 19  1  0  0  0  0
 18 20  1  0  0  0  0
 20 21  2  0  0  0  0
 20 25  1  0  0  0  0
 22 23  1  0  0  0  0
 22 24  1  0  0  0  0
 22 25  1  0  0  0  0
 22 28  1  0  0  0  0
 25 26  1  0  0  0  0
 25 27  1  0  0  0  0
 28 29  1  0  0  0  0
 28 31  1  0  0  0  0
 30 31  2  0  0  0  0
 31 44  1  0  0  0  0
 32 33  1  0  0  0  0
 32 34  1  0  0  0  0
 32 39  1  0  0  0  0
 32 48  1  0  0  0  0
 35 36  1  0  0  0  0
 35 37  1  0  0  0  0
 35 38  1  0  0  0  0
 35 39  1  0  0  0  0
 39 40  1  0  0  0  0
 39 44  1  0  0  0  0
 40 41  1  0  0  0  0
 40 42  1  0  0  0  0
 40 43  1  0  0  0  0
 44 45  1  0  0  0  0
 44 46  1  0  0  0  0
 46 47  1  0  0  0  0
 48 55  1  0  0  0  0
 49 55  1  0  0  0  0
 49 56  1  0  0  0  0
 50 56  1  0  0  0  0
 50 57  1  0  0  0  0
 51 55  1  0  0  0  0
 52 55  2  0  0  0  0
 53 56  1  0  0  0  0
 54 56  2  0  0  0  0
 57 58  1  0  0  0  0
 57 59  1  0  0  0  0
 60 63  1  0  0  0  0
 61 63  2  0  0  0  0
 62 63  1  0  0  0  0
 63 64  1  0  0  0  0
 65 66  1  0  0  0  0
 65 67  1  0  0  0  0
 66 69  2  0  0  0  0
 66 70  1  0  0  0  0
 67 68  1  0  0  0  0
 67 71  2  0  0  0  0
 69 71  1  0  0  0  0
 69 72  1  0  0  0  0
 70 73  2  0  0  0  0
 72 75  2  0  0  0  0
 72 76  1  0  0  0  0
 73 74  1  0  0  0  0
 73 75  1  0  0  0  0
 76 77  1  0  0  0  0
 76 78  1  0  0  0  0
 79 81  1  0  0  0  0
 80 81  2  0  0  0  0
 81 82  1  0  0  0  0
 82 83  1  0  0  0  0
 82 84  2  0  0  0  0
 84 85  1  0  0  0  0
 84 86  1  0  0  0  0
 86 87  1  0  0  0  0
 86 89  2  0  0  0  0
 87 88  1  0  0  0  0
 87 91  2  0  0  0  0
 89 90  1  0  0  0  0
 89 93  1  0  0  0  0
 91 92  1  0  0  0  0
 91 94  1  0  0  0  0
 93 94  2  0  0  0  0
 93 97  1  0  0  0  0
 94 95  1  0  0  0  0
 95 96  1  0  0  0  0
 97 98  1  0  0  0  0
 98 99  1  0  0  0  0
 98100  1  0  0  0  0
 98101  1  0  0  0  0
M  BCL ATM C_TeTeTeTe H_S O_Te2Te2TeTe C_TeTeTeTe H_S C_TeTeTeTe H_S C_TeTeTeTe H_S O_Te2Te2TeTe H_S C_TeTeTeTe H_S H_S C_TeTeTeTe H_S H_S N_TrTrTrPi2 H_S C_TrTrTrPi O_Tr2Tr2TrPi C_TeTeTeTe H_S H_S C_TeTeTeTe H_S H_S N_TrTrTrPi2 H_S O_Tr2Tr2TrPi C_TrTrTrPi C_TeTeTeTe H_S H_S C_TeTeTeTe H_S H_S H_S C_TeTeTeTe C_TeTeTeTe H_S H_S H_S C_TeTeTeTe H_S O_Te2Te2TeTe H_S O_Tr2TrTrPi2 O_Tr2TrTrPi2 O_Tr2TrTrPi2 O_Te2Te2TeTe O_Tr2Tr2TrPi O_Te2Te2TeTe O_Tr2Tr2TrPi P_TeTeTeTePi P_TeTeTeTePi C_TeTeTeTe H_S H_S O_Tr2TrTrPi2 O_Tr2Tr2TrPi O_Te2Te2Te2Te P_TeTeTeTePi O_Te2Te2Te2Te N_TrTrTrPi2 C_TrTrTrPi C_TrTrTrPi H_S C_TrTrTrPi N_Tr2TrTrPi N_Tr2TrTrPi C_TrTrTrPi C_TrTrTrPi H_S N_Tr2TrTrPi N_TrTrTrPi2 H_S H_S S_Te2Te2TeTe O_Tr2Tr2TrPi C_TrTrTrPi C_TrTrTrPi H_S C_TrTrTrPi H_S C_TrTrTrPi C_TrTrTrPi H_S C_TrTrTrPi H_S C_TrTrTrPi H_S C_TrTrTrPi C_TrTrTrPi O_Te2Te2TeTe H_S O_Tr2TrTrPi2 C_TeTeTeTe H_S H_S H_S
M  BCL BND NonConjugatedSingleBond NonConjugatedSingleBondInRing NonConjugatedSingleBondInRing NonConjugatedSingleBond NonConjugatedSingleBondInRing NonConjugatedSingleBond NonConjugatedSingleBondInRing NonConjugatedSingleBond NonConjugatedSingleBond NonConjugatedSingleBondInRing NonConjugatedSingleBond NonConjugatedSingleBond NonConjugatedSingleBond NonConjugatedSingleBond NonConjugatedSingleBond NonConjugatedSingleBond NonConjugatedSingleBond NonConjugatedSingleBond NonConjugatedSingleBond NonConjugatedSingleBond NonConjugatedSingleBond NonConjugatedSingleBond AmideSingleBond ConjugatedDoubleBond NonConjugatedSingleBond NonConjugatedSingleBond NonConjugatedSingleBond NonConjugatedSingleBond NonConjugatedSingleBond NonConjugatedSingleBond NonConjugatedSingleBond NonConjugatedSingleBond AmideSingleBond ConjugatedDoubleBond NonConjugatedSingleBond NonConjugatedSingleBond NonConjugatedSingleBond NonConjugatedSingleBond NonConjugatedSingleBond NonConjugatedSingleBond NonConjugatedSingleBond NonConjugatedSingleBond NonConjugatedSingleBond NonConjugatedSingleBond NonConjugatedSingleBond NonConjugatedSingleBond NonConjugatedSingleBond NonConjugatedSingleBond NonConjugatedSingleBond NonConjugatedSingleBond NonConjugatedSingleBond ConjugatedSingleBond ConjugatedSingleBond ConjugatedSingleBond ConjugatedSingleBond NonConjugatedSingleBond ConjugatedSingleBond ConjugatedDoubleBond ConjugatedSingleBond ConjugatedDoubleBond NonConjugatedSingleBond NonConjugatedSingleBond ConjugatedSingleBond ConjugatedDoubleBond ConjugatedSingleBond ConjugatedSingleBond AromaticSingleBond AromaticSingleBond AromaticDoubleBond AromaticSingleBond NonConjugatedSingleBond AromaticDoubleBond AromaticSingleBond AromaticSingleBond AromaticDoubleBond AromaticDoubleBond ConjugatedSingleBond NonConjugatedSingleBond AromaticSingleBond NonConjugatedSingleBond NonConjugatedSingleBond ConjugatedSingleBond ConjugatedDoubleBond ConjugatedSingleBond NonConjugatedSingleBond ConjugatedDoubleBond NonConjugatedSingleBond ConjugatedSingleBond AromaticSingleBond AromaticDoubleBond NonConjugatedSingleBond AromaticDoubleBond NonConjugatedSingleBond AromaticSingleBond NonConjugatedSingleBond AromaticSingleBond AromaticDoubleBond ConjugatedSingleBond ConjugatedSingleBond NonConjugatedSingleBond NonConjugatedSingleBond NonConjugatedSingleBond NonConjugatedSingleBond NonConjugatedSingleBond
M  BCL CHI   1   R   4   R   6   R   8   S  44   S  55   S  56   R
M  BCL DBI - - - - - - - - - - E - - -
M  END
> <ConfClashScore>
0 

> <ConfOneFourInteractionScore>
-0.974685 

> <ConfScore>
0.0248848 

> <ConfScorePBest>
0.00891849 

> <ConfTolerance>
2.918 

$$$$
L02.****
  PyMOL2.5          3D                             0

101104  0  0  0  0  0  0  0  0999 V2000
   15.2545   -4.4802   -5.5652 C   0  0  0  1  0  0  0  0  0  0  0  0
   14.6402   -3.6233   -5.3830 H   0  0  0  1  0  0  0  0  0  0  0  0
   14.7282   -5.2558   -6.6076 O   0  0  0  1  0  0  0  0  0  0  0  0
   15.2484   -5.4217   -4.3523 C   0  0  0  1  0  0  0  0  0  0  0  0
   16.1285   -6.0299   -4.3315 H   0  0  0  1  0  0  0  0  0  0  0  0
   13.9664   -6.3803   -6.1135 C   0  0  0  1  0  0  0  0  0  0  0  0
   14.4084   -7.3018   -6.4304 H   0  0  0  1  0  0  0  0  0  0  0  0
   14.0170   -6.2565   -4.5878 C   0  0  0  1  0  0  0  0  0  0  0  0
   13.1431   -5.7656   -4.2133 H   0  0  0  1  0  0  0  0  0  0  0  0
   15.1471   -4.6878   -3.1311 O   0  0  0  1  0  0  0  0  0  0  0  0
   15.0843   -5.2994   -2.3939 H   0  0  0  1  0  0  0  0  0  0  0  0
    8.9909  -12.5260   -4.5174 C   0  0  0  1  0  0  0  0  0  0  0  0
    8.1608  -12.6523   -5.1808 H   0  0  0  1  0  0  0  0  0  0  0  0
    9.4702  -13.4698   -4.3615 H   0  0  0  1  0  0  0  0  0  0  0  0
    8.4779  -12.0195   -3.1922 C   0  0  0  1  0  0  0  0  0  0  0  0
    7.7523  -12.7172   -2.8292 H   0  0  0  1  0  0  0  0  0  0  0  0
    8.0101  -11.0717   -3.3583 H   0  0  0  1  0  0  0  0  0  0  0  0
    9.9502  -11.6091   -5.1357 N   0  0  0  1  0  0  0  0  0  0  0  0
   10.9103  -11.7991   -5.0855 H   0  0  0  1  0  0  0  0  0  0  0  0
    9.5153  -10.5032   -5.7746 C   0  0  0  1  0  0  0  0  0  0  0  0
    8.3225  -10.2380   -5.9182 O   0  0  0  1  0  0  0  0  0  0  0  0
   10.4230   -9.3759   -7.8114 C   0  0  0  1  0  0  0  0  0  0  0  0
   10.4725  -10.3264   -8.3003 H   0  0  0  1  0  0  0  0  0  0  0  0
   11.2175   -8.7515   -8.1633 H   0  0  0  1  0  0  0  0  0  0  0  0
   10.5957   -9.5876   -6.3162 C   0  0  0  1  0  0  0  0  0  0  0  0
   11.5534  -10.0281   -6.1326 H   0  0  0  1  0  0  0  0  0  0  0  0
   10.5362   -8.6421   -5.8188 H   0  0  0  1  0  0  0  0  0  0  0  0
    9.1545   -8.7470   -8.1428 N   0  0  0  1  0  0  0  0  0  0  0  0
    8.5257   -8.5409   -7.4199 H   0  0  0  1  0  0  0  0  0  0  0  0
    9.5541   -8.6485  -10.3605 O   0  0  0  1  0  0  0  0  0  0  0  0
    8.8164   -8.4403   -9.3985 C   0  0  0  1  0  0  0  0  0  0  0  0
    8.2953   -5.6892   -8.6156 C   0  0  0  1  0  0  0  0  0  0  0  0
    8.2936   -4.6217   -8.6893 H   0  0  0  1  0  0  0  0  0  0  0  0
    9.3020   -6.0391   -8.5215 H   0  0  0  1  0  0  0  0  0  0  0  0
    8.5327   -6.1150  -11.0840 C   0  0  0  1  0  0  0  0  0  0  0  0
    9.5006   -6.5262  -10.8865 H   0  0  0  1  0  0  0  0  0  0  0  0
    8.6257   -5.0703  -11.2958 H   0  0  0  1  0  0  0  0  0  0  0  0
    8.0989   -6.6129  -11.9259 H   0  0  0  1  0  0  0  0  0  0  0  0
    7.6260   -6.3110   -9.8460 C   0  0  0  1  0  0  0  0  0  0  0  0
    6.2457   -5.6743  -10.0455 C   0  0  0  1  0  0  0  0  0  0  0  0
    5.4968   -6.4385  -10.0481 H   0  0  0  1  0  0  0  0  0  0  0  0
    6.2256   -5.1524  -10.9794 H   0  0  0  1  0  0  0  0  0  0  0  0
    6.0514   -4.9875   -9.2483 H   0  0  0  1  0  0  0  0  0  0  0  0
    7.4489   -7.8101   -9.5772 C   0  0  0  1  0  0  0  0  0  0  0  0
    6.8881   -7.9339   -8.6744 H   0  0  0  1  0  0  0  0  0  0  0  0
    6.7745   -8.4223  -10.6644 O   0  0  0  1  0  0  0  0  0  0  0  0
    5.9033   -8.0311  -10.7624 H   0  0  0  1  0  0  0  0  0  0  0  0
    7.5033   -6.1185   -7.4821 O   0  0  0  1  0  0  0  0  0  0  0  0
    9.5933   -5.5630   -6.1645 O   0  0  0  1  0  0  0  0  0  0  0  0
   11.9765   -5.0900   -6.0903 O   0  0  0  1  0  0  0  0  0  0  0  0
    7.3519   -4.4691   -5.7016 O   0  0  0  0  0  0  0  0  0  0  0  0
    7.8546   -6.9046   -5.1035 O   0  0  0  1  0  0  0  0  0  0  0  0
   10.3700   -3.6357   -4.8206 O   0  0  0  0  0  0  0  0  0  0  0  0
   10.9478   -6.0214   -4.0712 O   0  0  0  1  0  0  0  0  0  0  0  0
    8.0131   -5.7539   -6.0073 P   0  0  0  1  0  0  0  0  0  0  0  0
   10.6932   -5.0594   -5.1860 P   0  0  0  1  0  0  0  0  0  0  0  0
   12.5557   -6.3114   -6.5984 C   0  0  0  1  0  0  0  0  0  0  0  0
   12.0044   -7.1541   -6.2368 H   0  0  0  1  0  0  0  0  0  0  0  0
   12.5380   -6.3055   -7.6683 H   0  0  0  1  0  0  0  0  0  0  0  0
   14.1447   -7.5585   -3.9646 O   0  0  0  1  0  0  0  0  0  0  0  0
   11.7915   -8.5867   -4.2573 O   0  0  0  1  0  0  0  0  0  0  0  0
   12.3767   -7.3525   -2.1171 O   0  5  0  1  0  0  0  0  0  0  0  0
   12.8828   -8.3551   -3.2847 P   0  0  0  1  0  0  0  0  0  0  0  0
   13.3658   -9.7407   -2.5981 O   0  5  0  1  0  0  0  0  0  0  0  0
   16.6167   -4.0470   -5.8782 N   0  0  0  1  0  0  0  0  0  0  0  0
   17.6455   -3.8495   -4.9938 C   0  0  0  1  0  0  0  0  0  0  0  0
   17.1257   -3.7566   -7.1068 C   0  0  0  1  0  0  0  0  0  0  0  0
   16.5569   -3.8141   -7.9756 H   0  0  0  1  0  0  0  0  0  0  0  0
   18.7385   -3.4486   -5.7738 C   0  0  0  1  0  0  0  0  0  0  0  0
   17.6287   -4.0150   -3.6704 N   0  0  0  1  0  0  0  0  0  0  0  0
   18.3814   -3.4003   -7.1124 N   0  0  0  1  0  0  0  0  0  0  0  0
   19.9165   -3.2037   -5.0743 C   0  0  0  1  0  0  0  0  0  0  0  0
   18.8113   -3.7400   -3.1339 C   0  0  0  1  0  0  0  0  0  0  0  0
   18.8715   -3.8435   -2.1008 H   0  0  0  1  0  0  0  0  0  0  0  0
   19.9401   -3.3466   -3.7448 N   0  0  0  1  0  0  0  0  0  0  0  0
   21.1257   -2.8087   -5.6362 N   0  0  0  1  0  0  0  0  0  0  0  0
   21.2101   -2.7258   -6.6091 H   0  0  0  1  0  0  0  0  0  0  0  0
   21.8935   -2.6133   -5.0594 H   0  0  0  1  0  0  0  0  0  0  0  0
    9.7381  -11.8056   -1.9127 S   0  0  0  1  0  0  0  0  0  0  0  0
    7.5757  -11.2939   -0.4660 O   0  0  0  1  0  0  0  0  0  0  0  0
    8.7550  -11.4496   -0.4698 C   0  0  0  1  0  0  0  0  0  0  0  0
    9.5821  -11.3704    0.7281 C   0  0  0  1  0  0  0  0  0  0  0  0
   10.6070  -11.4993    0.6076 H   0  0  0  1  0  0  0  0  0  0  0  0
    9.1374  -11.1469    1.9641 C   0  0  0  1  0  0  0  0  0  0  0  0
    8.1074  -11.0241    2.0385 H   0  0  0  1  0  0  0  0  0  0  0  0
    9.8652  -11.0444    3.2488 C   0  0  0  1  0  0  0  0  0  0  0  0
   11.2481  -11.1172    3.3115 C   0  0  0  1  0  0  0  0  0  0  0  0
   11.8021  -11.2432    2.4404 H   0  0  0  1  0  0  0  0  0  0  0  0
    9.1293  -10.8716    4.4058 C   0  0  0  1  0  0  0  0  0  0  0  0
    8.0921  -10.8129    4.3583 H   0  0  0  1  0  0  0  0  0  0  0  0
   11.8906  -11.0225    4.5315 C   0  0  0  1  0  0  0  0  0  0  0  0
   12.9279  -11.0812    4.5789 H   0  0  0  1  0  0  0  0  0  0  0  0
    9.7735  -10.7766    5.6295 C   0  0  0  1  0  0  0  0  0  0  0  0
   11.1524  -10.8492    5.6919 C   0  0  0  1  0  0  0  0  0  0  0  0
   11.8499  -10.7592    6.8503 O   0  0  0  1  0  0  0  0  0  0  0  0
   11.9402  -11.6324    7.2388 H   0  0  0  1  0  0  0  0  0  0  0  0
    8.9516  -10.6148    6.6893 O   0  0  0  1  0  0  0  0  0  0  0  0
    7.6070  -10.1566    6.4779 C   0  0  0  1  0  0  0  0  0  0  0  0
    7.6233   -9.2547    5.9024 H   0  0  0  1  0  0  0  0  0  0  0  0
    7.1420   -9.9680    7.4229 H   0  0  0  1  0  0  0  0  0  0  0  0
    7.0539  -10.9058    5.9508 H   0  0  0  1  0  0  0  0  0  0  0  0
  1  2  1  0  0  0  0
  1  3  1  0  0  0  0
  1  4  1  0  0  0  0
  1 65  1  0  0  0  0
  3  6  1  0  0  0  0
  4  5  1  0  0  0  0
  4  8  1  0  0  0  0
  4 10  1  0  0  0  0
  6  7  1  0  0  0  0
  6  8  1  0  0  0  0
  6 57  1  0  0  0  0
  8  9  1  0  0  0  0
  8 60  1  0  0  0  0
 10 11  1  0  0  0  0
 12 13  1  0  0  0  0
 12 14  1  0  0  0  0
 12 15  1  0  0  0  0
 12 18  1  0  0  0  0
 15 16  1  0  0  0  0
 15 17  1  0  0  0  0
 15 79  1  0  0  0  0
 18 19  1  0  0  0  0
 18 20  1  0  0  0  0
 20 21  2  0  0  0  0
 20 25  1  0  0  0  0
 22 23  1  0  0  0  0
 22 24  1  0  0  0  0
 22 25  1  0  0  0  0
 22 28  1  0  0  0  0
 25 26  1  0  0  0  0
 25 27  1  0  0  0  0
 28 29  1  0  0  0  0
 28 31  1  0  0  0  0
 30 31  2  0  0  0  0
 31 44  1  0  0  0  0
 32 33  1  0  0  0  0
 32 34  1  0  0  0  0
 32 39  1  0  0  0  0
 32 48  1  0  0  0  0
 35 36  1  0  0  0  0
 35 37  1  0  0  0  0
 35 38  1  0  0  0  0
 35 39  1  0  0  0  0
 39 40  1  0  0  0  0
 39 44  1  0  0  0  0
 40 41  1  0  0  0  0
 40 42  1  0  0  0  0
 40 43  1  0  0  0  0
 44 45  1  0  0  0  0
 44 46  1  0  0  0  0
 46 47  1  0  0  0  0
 48 55  1  0  0  0  0
 49 55  1  0  0  0  0
 49 56  1  0  0  0  0
 50 56  1  0  0  0  0
 50 57  1  0  0  0  0
 51 55  1  0  0  0  0
 52 55  2  0  0  0  0
 53 56  1  0  0  0  0
 54 56  2  0  0  0  0
 57 58  1  0  0  0  0
 57 59  1  0  0  0  0
 60 63  1  0  0  0  0
 61 63  2  0  0  0  0
 62 63  1  0  0  0  0
 63 64  1  0  0  0  0
 65 66  1  0  0  0  0
 65 67  1  0  0  0  0
 66 69  2  0  0  0  0
 66 70  1  0  0  0  0
 67 68  1  0  0  0  0
 67 71  2  0  0  0  0
 69 71  1  0  0  0  0
 69 72  1  0  0  0  0
 70 73  2  0  0  0  0
 72 75  2  0  0  0  0
 72 76  1  0  0  0  0
 73 74  1  0  0  0  0
 73 75  1  0  0  0  0
 76 77  1  0  0  0  0
 76 78  1  0  0  0  0
 79 81  1  0  0  0  0
 80 81  2  0  0  0  0
 81 82  1  0  0  0  0
 82 83  1  0  0  0  0
 82 84  2  0  0  0  0
 84 85  1  0  0  0  0
 84 86  1  0  0  0  0
 86 87  1  0  0  0  0
 86 89  2  0  0  0  0
 87 88  1  0  0  0  0
 87 91  2  0  0  0  0
 89 90  1  0  0  0  0
 89 93  1  0  0  0  0
 91 92  1  0  0  0  0
 91 94  1  0  0  0  0
 93 94  2  0  0  0  0
 93 97  1  0  0  0  0
 94 95  1  0  0  0  0
 95 96  1  0  0  0  0
 97 98  1  0  0  0  0
 98 99  1  0  0  0  0
 98100  1  0  0  0  0
 98101  1  0  0  0  0
M  BCL ATM C_TeTeTeTe H_S O_Te2Te2TeTe C_TeTeTeTe H_S C_TeTeTeTe H_S C_TeTeTeTe H_S O_Te2Te2TeTe H_S C_TeTeTeTe H_S H_S C_TeTeTeTe H_S H_S N_TrTrTrPi2 H_S C_TrTrTrPi O_Tr2Tr2TrPi C_TeTeTeTe H_S H_S C_TeTeTeTe H_S H_S N_TrTrTrPi2 H_S O_Tr2Tr2TrPi C_TrTrTrPi C_TeTeTeTe H_S H_S C_TeTeTeTe H_S H_S H_S C_TeTeTeTe C_TeTeTeTe H_S H_S H_S C_TeTeTeTe H_S O_Te2Te2TeTe H_S O_Tr2TrTrPi2 O_Tr2TrTrPi2 O_Tr2TrTrPi2 O_Te2Te2TeTe O_Tr2Tr2TrPi O_Te2Te2TeTe O_Tr2Tr2TrPi P_TeTeTeTePi P_TeTeTeTePi C_TeTeTeTe H_S H_S O_Tr2TrTrPi2 O_Tr2Tr2TrPi O_Te2Te2Te2Te P_TeTeTeTePi O_Te2Te2Te2Te N_TrTrTrPi2 C_TrTrTrPi C_TrTrTrPi H_S C_TrTrTrPi N_Tr2TrTrPi N_Tr2TrTrPi C_TrTrTrPi C_TrTrTrPi H_S N_Tr2TrTrPi N_TrTrTrPi2 H_S H_S S_Te2Te2TeTe O_Tr2Tr2TrPi C_TrTrTrPi C_TrTrTrPi H_S C_TrTrTrPi H_S C_TrTrTrPi C_TrTrTrPi H_S C_TrTrTrPi H_S C_TrTrTrPi H_S C_TrTrTrPi C_TrTrTrPi O_Te2Te2TeTe H_S O_Tr2TrTrPi2 C_TeTeTeTe H_S H_S H_S
M  BCL BND NonConjugatedSingleBond NonConjugatedSingleBondInRing NonConjugatedSingleBondInRing NonConjugatedSingleBond NonConjugatedSingleBondInRing NonConjugatedSingleBond NonConjugatedSingleBondInRing NonConjugatedSingleBond NonConjugatedSingleBond NonConjugatedSingleBondInRing NonConjugatedSingleBond NonConjugatedSingleBond NonConjugatedSingleBond NonConjugatedSingleBond NonConjugatedSingleBond NonConjugatedSingleBond NonConjugatedSingleBond NonConjugatedSingleBond NonConjugatedSingleBond NonConjugatedSingleBond NonConjugatedSingleBond NonConjugatedSingleBond AmideSingleBond ConjugatedDoubleBond NonConjugatedSingleBond NonConjugatedSingleBond NonConjugatedSingleBond NonConjugatedSingleBond NonConjugatedSingleBond NonConjugatedSingleBond NonConjugatedSingleBond NonConjugatedSingleBond AmideSingleBond ConjugatedDoubleBond NonConjugatedSingleBond NonConjugatedSingleBond NonConjugatedSingleBond NonConjugatedSingleBond NonConjugatedSingleBond NonConjugatedSingleBond NonConjugatedSingleBond NonConjugatedSingleBond NonConjugatedSingleBond NonConjugatedSingleBond NonConjugatedSingleBond NonConjugatedSingleBond NonConjugatedSingleBond NonConjugatedSingleBond NonConjugatedSingleBond NonConjugatedSingleBond NonConjugatedSingleBond ConjugatedSingleBond ConjugatedSingleBond ConjugatedSingleBond ConjugatedSingleBond NonConjugatedSingleBond ConjugatedSingleBond ConjugatedDoubleBond ConjugatedSingleBond ConjugatedDoubleBond NonConjugatedSingleBond NonConjugatedSingleBond ConjugatedSingleBond ConjugatedDoubleBond ConjugatedSingleBond ConjugatedSingleBond AromaticSingleBond AromaticSingleBond AromaticDoubleBond AromaticSingleBond NonConjugatedSingleBond AromaticDoubleBond AromaticSingleBond AromaticSingleBond AromaticDoubleBond AromaticDoubleBond ConjugatedSingleBond NonConjugatedSingleBond AromaticSingleBond NonConjugatedSingleBond NonConjugatedSingleBond ConjugatedSingleBond ConjugatedDoubleBond ConjugatedSingleBond NonConjugatedSingleBond ConjugatedDoubleBond NonConjugatedSingleBond ConjugatedSingleBond AromaticSingleBond AromaticDoubleBond NonConjugatedSingleBond AromaticDoubleBond NonConjugatedSingleBond AromaticSingleBond NonConjugatedSingleBond AromaticSingleBond AromaticDoubleBond ConjugatedSingleBond ConjugatedSingleBond NonConjugatedSingleBond NonConjugatedSingleBond NonConjugatedSingleBond NonConjugatedSingleBond NonConjugatedSingleBond
M  BCL CHI   1   R   4   R   6   R   8   S  44   S  55   S  56   R
M  BCL DBI - - - - - - - - - - E - - -
M  END
> <ConfClashScore>
0 

> <ConfOneFourInteractionScore>
-0.977629 

> <ConfScore>
0.0306214 

> <ConfScorePBest>
0.00881549 

> <ConfTolerance>
2.9096 

$$$$
L02.****
  PyMOL2.5          3D                             0

101104  0  0  0  0  0  0  0  0999 V2000
   15.2395   -4.4755   -5.6084 C   0  0  0  1  0  0  0  0  0  0  0  0
   14.7214   -3.7090   -5.0709 H   0  0  0  1  0  0  0  0  0  0  0  0
   14.5577   -4.7761   -6.8469 O   0  0  0  1  0  0  0  0  0  0  0  0
   15.2280   -5.7877   -4.8185 C   0  0  0  1  0  0  0  0  0  0  0  0
   16.1443   -6.3238   -4.9517 H   0  0  0  1  0  0  0  0  0  0  0  0
   14.1133   -6.1048   -6.8920 C   0  0  0  1  0  0  0  0  0  0  0  0
   14.7955   -6.7141   -7.4472 H   0  0  0  1  0  0  0  0  0  0  0  0
   14.0698   -6.5397   -5.4199 C   0  0  0  1  0  0  0  0  0  0  0  0
   13.1457   -6.2560   -4.9611 H   0  0  0  1  0  0  0  0  0  0  0  0
   15.0143   -5.5456   -3.4238 O   0  0  0  1  0  0  0  0  0  0  0  0
   15.8548   -5.5759   -2.9609 H   0  0  0  1  0  0  0  0  0  0  0  0
   20.8882  -11.5639  -13.8754 C   0  0  0  1  0  0  0  0  0  0  0  0
   20.9793  -11.9905  -14.8524 H   0  0  0  1  0  0  0  0  0  0  0  0
   21.8613  -11.4369  -13.4489 H   0  0  0  1  0  0  0  0  0  0  0  0
   20.0993  -12.5113  -13.0059 C   0  0  0  1  0  0  0  0  0  0  0  0
   20.5329  -13.4851  -13.0986 H   0  0  0  1  0  0  0  0  0  0  0  0
   19.0925  -12.5327  -13.3677 H   0  0  0  1  0  0  0  0  0  0  0  0
   20.2568  -10.2581  -13.9938 N   0  0  0  1  0  0  0  0  0  0  0  0
   19.3398  -10.2053  -14.3353 H   0  0  0  1  0  0  0  0  0  0  0  0
   20.8840   -9.1286  -13.6531 C   0  0  0  1  0  0  0  0  0  0  0  0
   22.0658   -9.0950  -13.3130 O   0  0  0  1  0  0  0  0  0  0  0  0
   20.2653   -6.9052  -12.5689 C   0  0  0  1  0  0  0  0  0  0  0  0
   19.7916   -5.9752  -12.8045 H   0  0  0  1  0  0  0  0  0  0  0  0
   21.3146   -6.7469  -12.4318 H   0  0  0  1  0  0  0  0  0  0  0  0
   20.0519   -7.8770  -13.7087 C   0  0  0  1  0  0  0  0  0  0  0  0
   19.0215   -8.1653  -13.7080 H   0  0  0  1  0  0  0  0  0  0  0  0
   20.2802   -7.3692  -14.6224 H   0  0  0  1  0  0  0  0  0  0  0  0
   19.6918   -7.4401  -11.3327 N   0  0  0  1  0  0  0  0  0  0  0  0
   20.2521   -7.9584  -10.7179 H   0  0  0  1  0  0  0  0  0  0  0  0
   17.6460   -6.5826  -11.7711 O   0  0  0  1  0  0  0  0  0  0  0  0
   18.3770   -7.2182  -11.0341 C   0  0  0  1  0  0  0  0  0  0  0  0
   15.9822   -8.6889  -10.9863 C   0  0  0  1  0  0  0  0  0  0  0  0
   15.3623   -9.5446  -11.1547 H   0  0  0  1  0  0  0  0  0  0  0  0
   16.4720   -8.4176  -11.8981 H   0  0  0  1  0  0  0  0  0  0  0  0
   17.8344  -10.2542  -10.5218 C   0  0  0  1  0  0  0  0  0  0  0  0
   18.5551  -10.5849   -9.8034 H   0  0  0  1  0  0  0  0  0  0  0  0
   18.3361   -9.9561  -11.4187 H   0  0  0  1  0  0  0  0  0  0  0  0
   17.1566  -11.0528  -10.7402 H   0  0  0  1  0  0  0  0  0  0  0  0
   17.0482   -9.0542   -9.9488 C   0  0  0  1  0  0  0  0  0  0  0  0
   16.3422   -9.4211   -8.6383 C   0  0  0  1  0  0  0  0  0  0  0  0
   15.7511   -8.5930   -8.3070 H   0  0  0  1  0  0  0  0  0  0  0  0
   17.0733   -9.6577   -7.8937 H   0  0  0  1  0  0  0  0  0  0  0  0
   15.7094  -10.2688   -8.7996 H   0  0  0  1  0  0  0  0  0  0  0  0
   17.9406   -7.8369   -9.7147 C   0  0  0  1  0  0  0  0  0  0  0  0
   17.3433   -7.1064   -9.2104 H   0  0  0  1  0  0  0  0  0  0  0  0
   19.0304   -8.1763   -8.8727 O   0  0  0  1  0  0  0  0  0  0  0  0
   19.3926   -9.0233   -9.1429 H   0  0  0  1  0  0  0  0  0  0  0  0
   15.1501   -7.5946  -10.5696 O   0  0  0  1  0  0  0  0  0  0  0  0
   13.5909   -5.7602  -10.8098 O   0  0  0  1  0  0  0  0  0  0  0  0
   12.9047   -6.9789   -8.7221 O   0  0  0  1  0  0  0  0  0  0  0  0
   16.0111   -5.2527  -10.8147 O   0  0  0  0  0  0  0  0  0  0  0  0
   14.9136   -6.4240  -12.8167 O   0  0  0  1  0  0  0  0  0  0  0  0
   11.2893   -5.4966   -9.7251 O   0  0  0  0  0  0  0  0  0  0  0  0
   12.0120   -7.5883  -11.0212 O   0  0  0  1  0  0  0  0  0  0  0  0
   14.9545   -6.2440  -11.3622 P   0  0  0  1  0  0  0  0  0  0  0  0
   12.3292   -6.4676  -10.1213 P   0  0  0  1  0  0  0  0  0  0  0  0
   12.7387   -6.1890   -7.5161 C   0  0  0  1  0  0  0  0  0  0  0  0
   12.3778   -5.2110   -7.7572 H   0  0  0  1  0  0  0  0  0  0  0  0
   12.0539   -6.6677   -6.8477 H   0  0  0  1  0  0  0  0  0  0  0  0
   14.2545   -7.9771   -5.2920 O   0  0  0  1  0  0  0  0  0  0  0  0
   15.9984   -7.8086   -3.2937 O   0  0  0  1  0  0  0  0  0  0  0  0
   16.7446   -9.0037   -5.4437 O   0  5  0  1  0  0  0  0  0  0  0  0
   15.5269   -8.5903   -4.4585 P   0  0  0  1  0  0  0  0  0  0  0  0
   15.1097  -10.0581   -3.9145 O   0  5  0  1  0  0  0  0  0  0  0  0
   16.6158   -4.0447   -5.8702 N   0  0  0  1  0  0  0  0  0  0  0  0
   17.6471   -3.8496   -4.9881 C   0  0  0  1  0  0  0  0  0  0  0  0
   17.1216   -3.7519   -7.0995 C   0  0  0  1  0  0  0  0  0  0  0  0
   16.5504   -3.8073   -7.9668 H   0  0  0  1  0  0  0  0  0  0  0  0
   18.7382   -3.4478   -5.7703 C   0  0  0  1  0  0  0  0  0  0  0  0
   17.6338   -4.0180   -3.6651 N   0  0  0  1  0  0  0  0  0  0  0  0
   18.3776   -3.3964   -7.1077 N   0  0  0  1  0  0  0  0  0  0  0  0
   19.9183   -3.2051   -5.0735 C   0  0  0  1  0  0  0  0  0  0  0  0
   18.8181   -3.7449   -3.1312 C   0  0  0  1  0  0  0  0  0  0  0  0
   18.8810   -3.8506   -2.0985 H   0  0  0  1  0  0  0  0  0  0  0  0
   19.9454   -3.3508   -3.7443 N   0  0  0  1  0  0  0  0  0  0  0  0
   21.1262   -2.8096   -5.6378 N   0  0  0  1  0  0  0  0  0  0  0  0
   21.1933   -2.6731   -6.6059 H   0  0  0  1  0  0  0  0  0  0  0  0
   21.9103   -2.6674   -5.0674 H   0  0  0  1  0  0  0  0  0  0  0  0
   20.0540  -12.0833  -11.2492 S   0  0  0  1  0  0  0  0  0  0  0  0
   19.8804  -14.7209  -10.9846 O   0  0  0  1  0  0  0  0  0  0  0  0
   19.9336  -13.6589  -10.4114 C   0  0  0  1  0  0  0  0  0  0  0  0
   19.9096  -13.4748   -8.9631 C   0  0  0  1  0  0  0  0  0  0  0  0
   19.8646  -14.3574   -8.4147 H   0  0  0  1  0  0  0  0  0  0  0  0
   19.9358  -12.3645   -8.2270 C   0  0  0  1  0  0  0  0  0  0  0  0
   19.9808  -11.4682   -8.7526 H   0  0  0  1  0  0  0  0  0  0  0  0
   19.9086  -12.2531   -6.7492 C   0  0  0  1  0  0  0  0  0  0  0  0
   19.9664  -11.0489   -6.0650 C   0  0  0  1  0  0  0  0  0  0  0  0
   20.0291  -10.1542   -6.5915 H   0  0  0  1  0  0  0  0  0  0  0  0
   19.8199  -13.4417   -6.0496 C   0  0  0  1  0  0  0  0  0  0  0  0
   19.7725  -14.3449   -6.5630 H   0  0  0  1  0  0  0  0  0  0  0  0
   19.9407  -11.0372   -4.6831 C   0  0  0  1  0  0  0  0  0  0  0  0
   19.9881  -10.1339   -4.1698 H   0  0  0  1  0  0  0  0  0  0  0  0
   19.7941  -13.4301   -4.6637 C   0  0  0  1  0  0  0  0  0  0  0  0
   19.8518  -12.2294   -3.9816 C   0  0  0  1  0  0  0  0  0  0  0  0
   19.8261  -12.1405   -2.6295 O   0  0  0  1  0  0  0  0  0  0  0  0
   20.3320  -12.8633   -2.2511 H   0  0  0  1  0  0  0  0  0  0  0  0
   19.7137  -14.5384   -3.8650 O   0  0  0  1  0  0  0  0  0  0  0  0
   19.5891  -15.7574   -4.6141 C   0  0  0  1  0  0  0  0  0  0  0  0
   19.5399  -16.5872   -3.9405 H   0  0  0  1  0  0  0  0  0  0  0  0
   20.4376  -15.8694   -5.2563 H   0  0  0  1  0  0  0  0  0  0  0  0
   18.6968  -15.7237   -5.2038 H   0  0  0  1  0  0  0  0  0  0  0  0
  1  2  1  0  0  0  0
  1  3  1  0  0  0  0
  1  4  1  0  0  0  0
  1 65  1  0  0  0  0
  3  6  1  0  0  0  0
  4  5  1  0  0  0  0
  4  8  1  0  0  0  0
  4 10  1  0  0  0  0
  6  7  1  0  0  0  0
  6  8  1  0  0  0  0
  6 57  1  0  0  0  0
  8  9  1  0  0  0  0
  8 60  1  0  0  0  0
 10 11  1  0  0  0  0
 12 13  1  0  0  0  0
 12 14  1  0  0  0  0
 12 15  1  0  0  0  0
 12 18  1  0  0  0  0
 15 16  1  0  0  0  0
 15 17  1  0  0  0  0
 15 79  1  0  0  0  0
 18 19  1  0  0  0  0
 18 20  1  0  0  0  0
 20 21  2  0  0  0  0
 20 25  1  0  0  0  0
 22 23  1  0  0  0  0
 22 24  1  0  0  0  0
 22 25  1  0  0  0  0
 22 28  1  0  0  0  0
 25 26  1  0  0  0  0
 25 27  1  0  0  0  0
 28 29  1  0  0  0  0
 28 31  1  0  0  0  0
 30 31  2  0  0  0  0
 31 44  1  0  0  0  0
 32 33  1  0  0  0  0
 32 34  1  0  0  0  0
 32 39  1  0  0  0  0
 32 48  1  0  0  0  0
 35 36  1  0  0  0  0
 35 37  1  0  0  0  0
 35 38  1  0  0  0  0
 35 39  1  0  0  0  0
 39 40  1  0  0  0  0
 39 44  1  0  0  0  0
 40 41  1  0  0  0  0
 40 42  1  0  0  0  0
 40 43  1  0  0  0  0
 44 45  1  0  0  0  0
 44 46  1  0  0  0  0
 46 47  1  0  0  0  0
 48 55  1  0  0  0  0
 49 55  1  0  0  0  0
 49 56  1  0  0  0  0
 50 56  1  0  0  0  0
 50 57  1  0  0  0  0
 51 55  1  0  0  0  0
 52 55  2  0  0  0  0
 53 56  1  0  0  0  0
 54 56  2  0  0  0  0
 57 58  1  0  0  0  0
 57 59  1  0  0  0  0
 60 63  1  0  0  0  0
 61 63  2  0  0  0  0
 62 63  1  0  0  0  0
 63 64  1  0  0  0  0
 65 66  1  0  0  0  0
 65 67  1  0  0  0  0
 66 69  2  0  0  0  0
 66 70  1  0  0  0  0
 67 68  1  0  0  0  0
 67 71  2  0  0  0  0
 69 71  1  0  0  0  0
 69 72  1  0  0  0  0
 70 73  2  0  0  0  0
 72 75  2  0  0  0  0
 72 76  1  0  0  0  0
 73 74  1  0  0  0  0
 73 75  1  0  0  0  0
 76 77  1  0  0  0  0
 76 78  1  0  0  0  0
 79 81  1  0  0  0  0
 80 81  2  0  0  0  0
 81 82  1  0  0  0  0
 82 83  1  0  0  0  0
 82 84  2  0  0  0  0
 84 85  1  0  0  0  0
 84 86  1  0  0  0  0
 86 87  1  0  0  0  0
 86 89  2  0  0  0  0
 87 88  1  0  0  0  0
 87 91  2  0  0  0  0
 89 90  1  0  0  0  0
 89 93  1  0  0  0  0
 91 92  1  0  0  0  0
 91 94  1  0  0  0  0
 93 94  2  0  0  0  0
 93 97  1  0  0  0  0
 94 95  1  0  0  0  0
 95 96  1  0  0  0  0
 97 98  1  0  0  0  0
 98 99  1  0  0  0  0
 98100  1  0  0  0  0
 98101  1  0  0  0  0
M  BCL ATM C_TeTeTeTe H_S O_Te2Te2TeTe C_TeTeTeTe H_S C_TeTeTeTe H_S C_TeTeTeTe H_S O_Te2Te2TeTe H_S C_TeTeTeTe H_S H_S C_TeTeTeTe H_S H_S N_TrTrTrPi2 H_S C_TrTrTrPi O_Tr2Tr2TrPi C_TeTeTeTe H_S H_S C_TeTeTeTe H_S H_S N_TrTrTrPi2 H_S O_Tr2Tr2TrPi C_TrTrTrPi C_TeTeTeTe H_S H_S C_TeTeTeTe H_S H_S H_S C_TeTeTeTe C_TeTeTeTe H_S H_S H_S C_TeTeTeTe H_S O_Te2Te2TeTe H_S O_Tr2TrTrPi2 O_Tr2TrTrPi2 O_Tr2TrTrPi2 O_Te2Te2TeTe O_Tr2Tr2TrPi O_Te2Te2TeTe O_Tr2Tr2TrPi P_TeTeTeTePi P_TeTeTeTePi C_TeTeTeTe H_S H_S O_Tr2TrTrPi2 O_Tr2Tr2TrPi O_Te2Te2Te2Te P_TeTeTeTePi O_Te2Te2Te2Te N_TrTrTrPi2 C_TrTrTrPi C_TrTrTrPi H_S C_TrTrTrPi N_Tr2TrTrPi N_Tr2TrTrPi C_TrTrTrPi C_TrTrTrPi H_S N_Tr2TrTrPi N_TrTrTrPi2 H_S H_S S_Te2Te2TeTe O_Tr2Tr2TrPi C_TrTrTrPi C_TrTrTrPi H_S C_TrTrTrPi H_S C_TrTrTrPi C_TrTrTrPi H_S C_TrTrTrPi H_S C_TrTrTrPi H_S C_TrTrTrPi C_TrTrTrPi O_Te2Te2TeTe H_S O_Tr2TrTrPi2 C_TeTeTeTe H_S H_S H_S
M  BCL BND NonConjugatedSingleBond NonConjugatedSingleBondInRing NonConjugatedSingleBondInRing NonConjugatedSingleBond NonConjugatedSingleBondInRing NonConjugatedSingleBond NonConjugatedSingleBondInRing NonConjugatedSingleBond NonConjugatedSingleBond NonConjugatedSingleBondInRing NonConjugatedSingleBond NonConjugatedSingleBond NonConjugatedSingleBond NonConjugatedSingleBond NonConjugatedSingleBond NonConjugatedSingleBond NonConjugatedSingleBond NonConjugatedSingleBond NonConjugatedSingleBond NonConjugatedSingleBond NonConjugatedSingleBond NonConjugatedSingleBond AmideSingleBond ConjugatedDoubleBond NonConjugatedSingleBond NonConjugatedSingleBond NonConjugatedSingleBond NonConjugatedSingleBond NonConjugatedSingleBond NonConjugatedSingleBond NonConjugatedSingleBond NonConjugatedSingleBond AmideSingleBond ConjugatedDoubleBond NonConjugatedSingleBond NonConjugatedSingleBond NonConjugatedSingleBond NonConjugatedSingleBond NonConjugatedSingleBond NonConjugatedSingleBond NonConjugatedSingleBond NonConjugatedSingleBond NonConjugatedSingleBond NonConjugatedSingleBond NonConjugatedSingleBond NonConjugatedSingleBond NonConjugatedSingleBond NonConjugatedSingleBond NonConjugatedSingleBond NonConjugatedSingleBond NonConjugatedSingleBond ConjugatedSingleBond ConjugatedSingleBond ConjugatedSingleBond ConjugatedSingleBond NonConjugatedSingleBond ConjugatedSingleBond ConjugatedDoubleBond ConjugatedSingleBond ConjugatedDoubleBond NonConjugatedSingleBond NonConjugatedSingleBond ConjugatedSingleBond ConjugatedDoubleBond ConjugatedSingleBond ConjugatedSingleBond AromaticSingleBond AromaticSingleBond AromaticDoubleBond AromaticSingleBond NonConjugatedSingleBond AromaticDoubleBond AromaticSingleBond AromaticSingleBond AromaticDoubleBond AromaticDoubleBond ConjugatedSingleBond NonConjugatedSingleBond AromaticSingleBond NonConjugatedSingleBond NonConjugatedSingleBond ConjugatedSingleBond ConjugatedDoubleBond ConjugatedSingleBond NonConjugatedSingleBond ConjugatedDoubleBond NonConjugatedSingleBond ConjugatedSingleBond AromaticSingleBond AromaticDoubleBond NonConjugatedSingleBond AromaticDoubleBond NonConjugatedSingleBond AromaticSingleBond NonConjugatedSingleBond AromaticSingleBond AromaticDoubleBond ConjugatedSingleBond ConjugatedSingleBond NonConjugatedSingleBond NonConjugatedSingleBond NonConjugatedSingleBond NonConjugatedSingleBond NonConjugatedSingleBond
M  BCL CHI   1   R   4   R   6   R   8   S  44   S  55   S  56   R
M  BCL DBI - - - - - - - - - - E - - -
M  END
> <ConfClashScore>
0 

> <ConfOneFourInteractionScore>
-0.971396 

> <ConfScore>
0.0312609 

> <ConfScorePBest>
0.00871249 

> <ConfTolerance>
3.22534 

$$$$
L02.****
  PyMOL2.5          3D                             0

101104  0  0  0  0  0  0  0  0999 V2000
   15.2684   -4.4796   -5.5164 C   0  0  0  1  0  0  0  0  0  0  0  0
   14.9015   -3.8752   -4.7133 H   0  0  0  1  0  0  0  0  0  0  0  0
   14.3875   -4.4061   -6.6532 O   0  0  0  1  0  0  0  0  0  0  0  0
   15.2627   -5.9264   -5.1356 C   0  0  0  1  0  0  0  0  0  0  0  0
   15.9957   -6.4685   -5.6956 H   0  0  0  1  0  0  0  0  0  0  0  0
   13.4408   -5.4809   -6.5629 C   0  0  0  1  0  0  0  0  0  0  0  0
   13.4019   -6.0142   -7.4898 H   0  0  0  1  0  0  0  0  0  0  0  0
   13.9057   -6.3857   -5.4717 C   0  0  0  1  0  0  0  0  0  0  0  0
   13.2622   -6.3068   -4.6204 H   0  0  0  1  0  0  0  0  0  0  0  0
   15.5181   -6.0827   -3.7390 O   0  0  0  1  0  0  0  0  0  0  0  0
   16.4148   -5.8009   -3.5437 H   0  0  0  1  0  0  0  0  0  0  0  0
   13.2437  -12.9991   -5.2939 C   0  0  0  1  0  0  0  0  0  0  0  0
   14.1186  -12.5536   -5.7193 H   0  0  0  1  0  0  0  0  0  0  0  0
   13.5086  -13.5226   -4.3991 H   0  0  0  1  0  0  0  0  0  0  0  0
   12.6226  -13.9548   -6.2822 C   0  0  0  1  0  0  0  0  0  0  0  0
   11.6320  -14.1887   -5.9524 H   0  0  0  1  0  0  0  0  0  0  0  0
   13.2111  -14.8481   -6.3072 H   0  0  0  1  0  0  0  0  0  0  0  0
   12.2614  -11.9688   -4.9916 N   0  0  0  1  0  0  0  0  0  0  0  0
   12.4084  -11.0611   -5.3306 H   0  0  0  1  0  0  0  0  0  0  0  0
   11.1661  -12.2173   -4.2679 C   0  0  0  1  0  0  0  0  0  0  0  0
   10.7941  -13.3385   -3.9632 O   0  0  0  1  0  0  0  0  0  0  0  0
   10.9485  -10.4537   -2.4308 C   0  0  0  1  0  0  0  0  0  0  0  0
   12.0059  -10.3000   -2.4881 H   0  0  0  1  0  0  0  0  0  0  0  0
   10.7316  -11.1592   -1.6561 H   0  0  0  1  0  0  0  0  0  0  0  0
   10.4481  -10.9977   -3.7590 C   0  0  0  1  0  0  0  0  0  0  0  0
    9.4139  -11.2472   -3.6449 H   0  0  0  1  0  0  0  0  0  0  0  0
   10.5503  -10.2247   -4.4918 H   0  0  0  1  0  0  0  0  0  0  0  0
   10.2914   -9.1820   -2.1239 N   0  0  0  1  0  0  0  0  0  0  0  0
    9.6320   -9.1531   -1.3995 H   0  0  0  1  0  0  0  0  0  0  0  0
   11.3400   -7.9540   -3.7422 O   0  0  0  1  0  0  0  0  0  0  0  0
   10.5594   -8.0595   -2.7971 C   0  0  0  1  0  0  0  0  0  0  0  0
    9.3194   -6.0517   -4.6724 C   0  0  0  1  0  0  0  0  0  0  0  0
    9.9484   -6.8354   -5.0398 H   0  0  0  1  0  0  0  0  0  0  0  0
    9.8956   -5.1581   -4.5520 H   0  0  0  1  0  0  0  0  0  0  0  0
    7.8477   -7.7098   -3.5708 C   0  0  0  1  0  0  0  0  0  0  0  0
    7.1187   -7.5017   -4.3259 H   0  0  0  1  0  0  0  0  0  0  0  0
    7.3522   -7.9832   -2.6627 H   0  0  0  1  0  0  0  0  0  0  0  0
    8.4740   -8.5155   -3.8925 H   0  0  0  1  0  0  0  0  0  0  0  0
    8.7049   -6.4616   -3.3292 C   0  0  0  1  0  0  0  0  0  0  0  0
    7.8261   -5.3216   -2.8016 C   0  0  0  1  0  0  0  0  0  0  0  0
    6.8707   -5.7099   -2.5162 H   0  0  0  1  0  0  0  0  0  0  0  0
    7.6974   -4.5866   -3.5685 H   0  0  0  1  0  0  0  0  0  0  0  0
    8.2967   -4.8727   -1.9519 H   0  0  0  1  0  0  0  0  0  0  0  0
    9.8253   -6.8087   -2.3415 C   0  0  0  1  0  0  0  0  0  0  0  0
   10.5233   -5.9977   -2.3394 H   0  0  0  1  0  0  0  0  0  0  0  0
    9.3212   -6.9981   -1.0214 O   0  0  0  1  0  0  0  0  0  0  0  0
    9.9601   -7.4919   -0.5022 H   0  0  0  1  0  0  0  0  0  0  0  0
    8.2331   -5.8164   -5.5989 O   0  0  0  1  0  0  0  0  0  0  0  0
    9.0863   -3.9635   -6.9797 O   0  0  0  1  0  0  0  0  0  0  0  0
   11.5825   -4.2796   -7.4229 O   0  0  0  1  0  0  0  0  0  0  0  0
    9.8832   -6.2781   -7.4343 O   0  0  0  0  0  0  0  0  0  0  0  0
    7.4537   -5.6493   -7.9543 O   0  0  0  1  0  0  0  0  0  0  0  0
   10.1538   -2.7873   -8.8539 O   0  0  0  0  0  0  0  0  0  0  0  0
   10.7072   -2.0876   -6.4813 O   0  0  0  1  0  0  0  0  0  0  0  0
    8.6432   -5.4793   -7.0659 P   0  0  0  1  0  0  0  0  0  0  0  0
   10.4940   -3.2320   -7.4402 P   0  0  0  1  0  0  0  0  0  0  0  0
   12.0856   -4.9435   -6.2397 C   0  0  0  1  0  0  0  0  0  0  0  0
   12.1535   -4.2457   -5.4314 H   0  0  0  1  0  0  0  0  0  0  0  0
   11.4316   -5.7449   -5.9657 H   0  0  0  1  0  0  0  0  0  0  0  0
   13.9345   -7.7480   -5.9264 O   0  0  0  1  0  0  0  0  0  0  0  0
   15.6141   -8.8686   -4.2563 O   0  0  0  1  0  0  0  0  0  0  0  0
   14.3133  -10.3507   -5.9691 O   0  5  0  1  0  0  0  0  0  0  0  0
   14.3542   -9.0437   -5.0128 P   0  0  0  1  0  0  0  0  0  0  0  0
   13.1459   -9.3757   -3.9861 O   0  5  0  1  0  0  0  0  0  0  0  0
   16.6272   -4.0416   -5.8805 N   0  0  0  1  0  0  0  0  0  0  0  0
   17.6520   -3.8480   -4.9905 C   0  0  0  1  0  0  0  0  0  0  0  0
   17.1425   -3.7480   -7.1057 C   0  0  0  1  0  0  0  0  0  0  0  0
   16.5778   -3.8022   -7.9774 H   0  0  0  1  0  0  0  0  0  0  0  0
   18.7492   -3.4460   -5.7640 C   0  0  0  1  0  0  0  0  0  0  0  0
   17.6287   -4.0176   -3.6678 N   0  0  0  1  0  0  0  0  0  0  0  0
   18.3986   -3.3932   -7.1041 N   0  0  0  1  0  0  0  0  0  0  0  0
   19.9241   -3.2046   -5.0581 C   0  0  0  1  0  0  0  0  0  0  0  0
   18.8089   -3.7457   -3.1247 C   0  0  0  1  0  0  0  0  0  0  0  0
   18.8640   -3.8524   -2.0917 H   0  0  0  1  0  0  0  0  0  0  0  0
   19.9411   -3.3516   -3.7289 N   0  0  0  1  0  0  0  0  0  0  0  0
   21.0996   -2.8134   -5.6646 N   0  0  0  1  0  0  0  0  0  0  0  0
   21.9052   -2.6701   -5.1253 H   0  0  0  1  0  0  0  0  0  0  0  0
   21.1292   -2.6788   -6.6349 H   0  0  0  1  0  0  0  0  0  0  0  0
   12.5264  -13.2830   -7.9587 S   0  0  0  1  0  0  0  0  0  0  0  0
   15.1192  -13.4137   -7.5163 O   0  0  0  1  0  0  0  0  0  0  0  0
   14.2854  -13.1365   -8.3366 C   0  0  0  1  0  0  0  0  0  0  0  0
   14.5547  -12.6642   -9.6912 C   0  0  0  1  0  0  0  0  0  0  0  0
   13.7335  -12.3160  -10.2260 H   0  0  0  1  0  0  0  0  0  0  0  0
   15.7261  -12.6255  -10.3250 C   0  0  0  1  0  0  0  0  0  0  0  0
   16.5591  -12.9698   -9.8061 H   0  0  0  1  0  0  0  0  0  0  0  0
   15.9441  -12.1329  -11.7091 C   0  0  0  1  0  0  0  0  0  0  0  0
   14.8204  -11.5964  -12.3180 C   0  0  0  1  0  0  0  0  0  0  0  0
   13.9175  -11.5598  -11.8031 H   0  0  0  1  0  0  0  0  0  0  0  0
   17.1452  -12.1767  -12.3915 C   0  0  0  1  0  0  0  0  0  0  0  0
   17.9893  -12.5755  -11.9333 H   0  0  0  1  0  0  0  0  0  0  0  0
   14.8996  -11.1102  -13.6094 C   0  0  0  1  0  0  0  0  0  0  0  0
   14.0554  -10.7113  -14.0676 H   0  0  0  1  0  0  0  0  0  0  0  0
   17.2249  -11.6891  -13.6867 C   0  0  0  1  0  0  0  0  0  0  0  0
   16.1043  -11.1542  -14.2937 C   0  0  0  1  0  0  0  0  0  0  0  0
   16.0601  -10.6441  -15.5485 O   0  0  0  1  0  0  0  0  0  0  0  0
   15.3379  -10.0150  -15.6135 H   0  0  0  1  0  0  0  0  0  0  0  0
   18.4404  -11.6596  -14.2829 O   0  0  0  1  0  0  0  0  0  0  0  0
   19.4920  -12.4193  -13.6668 C   0  0  0  1  0  0  0  0  0  0  0  0
   19.3216  -13.4629  -13.8301 H   0  0  0  1  0  0  0  0  0  0  0  0
   19.5064  -12.2207  -12.6155 H   0  0  0  1  0  0  0  0  0  0  0  0
   20.4317  -12.1402  -14.0959 H   0  0  0  1  0  0  0  0  0  0  0  0
  1  2  1  0  0  0  0
  1  3  1  0  0  0  0
  1  4  1  0  0  0  0
  1 65  1  0  0  0  0
  3  6  1  0  0  0  0
  4  5  1  0  0  0  0
  4  8  1  0  0  0  0
  4 10  1  0  0  0  0
  6  7  1  0  0  0  0
  6  8  1  0  0  0  0
  6 57  1  0  0  0  0
  8  9  1  0  0  0  0
  8 60  1  0  0  0  0
 10 11  1  0  0  0  0
 12 13  1  0  0  0  0
 12 14  1  0  0  0  0
 12 15  1  0  0  0  0
 12 18  1  0  0  0  0
 15 16  1  0  0  0  0
 15 17  1  0  0  0  0
 15 79  1  0  0  0  0
 18 19  1  0  0  0  0
 18 20  1  0  0  0  0
 20 21  2  0  0  0  0
 20 25  1  0  0  0  0
 22 23  1  0  0  0  0
 22 24  1  0  0  0  0
 22 25  1  0  0  0  0
 22 28  1  0  0  0  0
 25 26  1  0  0  0  0
 25 27  1  0  0  0  0
 28 29  1  0  0  0  0
 28 31  1  0  0  0  0
 30 31  2  0  0  0  0
 31 44  1  0  0  0  0
 32 33  1  0  0  0  0
 32 34  1  0  0  0  0
 32 39  1  0  0  0  0
 32 48  1  0  0  0  0
 35 36  1  0  0  0  0
 35 37  1  0  0  0  0
 35 38  1  0  0  0  0
 35 39  1  0  0  0  0
 39 40  1  0  0  0  0
 39 44  1  0  0  0  0
 40 41  1  0  0  0  0
 40 42  1  0  0  0  0
 40 43  1  0  0  0  0
 44 45  1  0  0  0  0
 44 46  1  0  0  0  0
 46 47  1  0  0  0  0
 48 55  1  0  0  0  0
 49 55  1  0  0  0  0
 49 56  1  0  0  0  0
 50 56  1  0  0  0  0
 50 57  1  0  0  0  0
 51 55  1  0  0  0  0
 52 55  2  0  0  0  0
 53 56  1  0  0  0  0
 54 56  2  0  0  0  0
 57 58  1  0  0  0  0
 57 59  1  0  0  0  0
 60 63  1  0  0  0  0
 61 63  2  0  0  0  0
 62 63  1  0  0  0  0
 63 64  1  0  0  0  0
 65 66  1  0  0  0  0
 65 67  1  0  0  0  0
 66 69  2  0  0  0  0
 66 70  1  0  0  0  0
 67 68  1  0  0  0  0
 67 71  2  0  0  0  0
 69 71  1  0  0  0  0
 69 72  1  0  0  0  0
 70 73  2  0  0  0  0
 72 75  2  0  0  0  0
 72 76  1  0  0  0  0
 73 74  1  0  0  0  0
 73 75  1  0  0  0  0
 76 77  1  0  0  0  0
 76 78  1  0  0  0  0
 79 81  1  0  0  0  0
 80 81  2  0  0  0  0
 81 82  1  0  0  0  0
 82 83  1  0  0  0  0
 82 84  2  0  0  0  0
 84 85  1  0  0  0  0
 84 86  1  0  0  0  0
 86 87  1  0  0  0  0
 86 89  2  0  0  0  0
 87 88  1  0  0  0  0
 87 91  2  0  0  0  0
 89 90  1  0  0  0  0
 89 93  1  0  0  0  0
 91 92  1  0  0  0  0
 91 94  1  0  0  0  0
 93 94  2  0  0  0  0
 93 97  1  0  0  0  0
 94 95  1  0  0  0  0
 95 96  1  0  0  0  0
 97 98  1  0  0  0  0
 98 99  1  0  0  0  0
 98100  1  0  0  0  0
 98101  1  0  0  0  0
M  BCL ATM C_TeTeTeTe H_S O_Te2Te2TeTe C_TeTeTeTe H_S C_TeTeTeTe H_S C_TeTeTeTe H_S O_Te2Te2TeTe H_S C_TeTeTeTe H_S H_S C_TeTeTeTe H_S H_S N_TrTrTrPi2 H_S C_TrTrTrPi O_Tr2Tr2TrPi C_TeTeTeTe H_S H_S C_TeTeTeTe H_S H_S N_TrTrTrPi2 H_S O_Tr2Tr2TrPi C_TrTrTrPi C_TeTeTeTe H_S H_S C_TeTeTeTe H_S H_S H_S C_TeTeTeTe C_TeTeTeTe H_S H_S H_S C_TeTeTeTe H_S O_Te2Te2TeTe H_S O_Tr2TrTrPi2 O_Tr2TrTrPi2 O_Tr2TrTrPi2 O_Te2Te2TeTe O_Tr2Tr2TrPi O_Te2Te2TeTe O_Tr2Tr2TrPi P_TeTeTeTePi P_TeTeTeTePi C_TeTeTeTe H_S H_S O_Tr2TrTrPi2 O_Tr2Tr2TrPi O_Te2Te2Te2Te P_TeTeTeTePi O_Te2Te2Te2Te N_TrTrTrPi2 C_TrTrTrPi C_TrTrTrPi H_S C_TrTrTrPi N_Tr2TrTrPi N_Tr2TrTrPi C_TrTrTrPi C_TrTrTrPi H_S N_Tr2TrTrPi N_TrTrTrPi2 H_S H_S S_Te2Te2TeTe O_Tr2Tr2TrPi C_TrTrTrPi C_TrTrTrPi H_S C_TrTrTrPi H_S C_TrTrTrPi C_TrTrTrPi H_S C_TrTrTrPi H_S C_TrTrTrPi H_S C_TrTrTrPi C_TrTrTrPi O_Te2Te2TeTe H_S O_Tr2TrTrPi2 C_TeTeTeTe H_S H_S H_S
M  BCL BND NonConjugatedSingleBond NonConjugatedSingleBondInRing NonConjugatedSingleBondInRing NonConjugatedSingleBond NonConjugatedSingleBondInRing NonConjugatedSingleBond NonConjugatedSingleBondInRing NonConjugatedSingleBond NonConjugatedSingleBond NonConjugatedSingleBondInRing NonConjugatedSingleBond NonConjugatedSingleBond NonConjugatedSingleBond NonConjugatedSingleBond NonConjugatedSingleBond NonConjugatedSingleBond NonConjugatedSingleBond NonConjugatedSingleBond NonConjugatedSingleBond NonConjugatedSingleBond NonConjugatedSingleBond NonConjugatedSingleBond AmideSingleBond ConjugatedDoubleBond NonConjugatedSingleBond NonConjugatedSingleBond NonConjugatedSingleBond NonConjugatedSingleBond NonConjugatedSingleBond NonConjugatedSingleBond NonConjugatedSingleBond NonConjugatedSingleBond AmideSingleBond ConjugatedDoubleBond NonConjugatedSingleBond NonConjugatedSingleBond NonConjugatedSingleBond NonConjugatedSingleBond NonConjugatedSingleBond NonConjugatedSingleBond NonConjugatedSingleBond NonConjugatedSingleBond NonConjugatedSingleBond NonConjugatedSingleBond NonConjugatedSingleBond NonConjugatedSingleBond NonConjugatedSingleBond NonConjugatedSingleBond NonConjugatedSingleBond NonConjugatedSingleBond NonConjugatedSingleBond ConjugatedSingleBond ConjugatedSingleBond ConjugatedSingleBond ConjugatedSingleBond NonConjugatedSingleBond ConjugatedSingleBond ConjugatedDoubleBond ConjugatedSingleBond ConjugatedDoubleBond NonConjugatedSingleBond NonConjugatedSingleBond ConjugatedSingleBond ConjugatedDoubleBond ConjugatedSingleBond ConjugatedSingleBond AromaticSingleBond AromaticSingleBond AromaticDoubleBond AromaticSingleBond NonConjugatedSingleBond AromaticDoubleBond AromaticSingleBond AromaticSingleBond AromaticDoubleBond AromaticDoubleBond ConjugatedSingleBond NonConjugatedSingleBond AromaticSingleBond NonConjugatedSingleBond NonConjugatedSingleBond ConjugatedSingleBond ConjugatedDoubleBond ConjugatedSingleBond NonConjugatedSingleBond ConjugatedDoubleBond NonConjugatedSingleBond ConjugatedSingleBond AromaticSingleBond AromaticDoubleBond NonConjugatedSingleBond AromaticDoubleBond NonConjugatedSingleBond AromaticSingleBond NonConjugatedSingleBond AromaticSingleBond AromaticDoubleBond ConjugatedSingleBond ConjugatedSingleBond NonConjugatedSingleBond NonConjugatedSingleBond NonConjugatedSingleBond NonConjugatedSingleBond NonConjugatedSingleBond
M  BCL CHI   1   R   4   R   6   R   8   S  44   S  55   S  56   R
M  BCL DBI - - - - - - - - - - E - - -
M  END
> <ConfClashScore>
0 

> <ConfOneFourInteractionScore>
-0.972129 

> <ConfScore>
0.0315317 

> <ConfScorePBest>
0.00860949 

> <ConfTolerance>
2.95748 

$$$$
L02.****
  PyMOL2.5          3D                             0

101104  0  0  0  0  0  0  0  0999 V2000
   15.2304   -4.4178   -5.5287 C   0  0  0  1  0  0  0  0  0  0  0  0
   14.5948   -4.2168   -6.3656 H   0  0  0  1  0  0  0  0  0  0  0  0
   15.1362   -5.8074   -5.1423 O   0  0  0  1  0  0  0  0  0  0  0  0
   14.7667   -3.6300   -4.2999 C   0  0  0  1  0  0  0  0  0  0  0  0
   15.6013   -3.3084   -3.7127 H   0  0  0  1  0  0  0  0  0  0  0  0
   14.6481   -5.9568   -3.8367 C   0  0  0  1  0  0  0  0  0  0  0  0
   15.4516   -6.1114   -3.1471 H   0  0  0  1  0  0  0  0  0  0  0  0
   13.9300   -4.6308   -3.5468 C   0  0  0  1  0  0  0  0  0  0  0  0
   12.9253   -4.6479   -3.9143 H   0  0  0  1  0  0  0  0  0  0  0  0
   13.9876   -2.4957   -4.6826 O   0  0  0  1  0  0  0  0  0  0  0  0
   14.4783   -1.9696   -5.3182 H   0  0  0  1  0  0  0  0  0  0  0  0
   23.5082   -2.2012   -0.5770 C   0  0  0  1  0  0  0  0  0  0  0  0
   24.3534   -1.9297   -1.1743 H   0  0  0  1  0  0  0  0  0  0  0  0
   22.8497   -1.3626   -0.4878 H   0  0  0  1  0  0  0  0  0  0  0  0
   23.9922   -2.5843    0.7996 C   0  0  0  1  0  0  0  0  0  0  0  0
   24.6854   -3.3937    0.7032 H   0  0  0  1  0  0  0  0  0  0  0  0
   23.1509   -2.9017    1.3796 H   0  0  0  1  0  0  0  0  0  0  0  0
   22.7928   -3.2905   -1.2440 N   0  0  0  1  0  0  0  0  0  0  0  0
   21.9543   -3.6144   -0.8537 H   0  0  0  1  0  0  0  0  0  0  0  0
   23.2434   -3.8583   -2.3663 C   0  0  0  1  0  0  0  0  0  0  0  0
   24.2383   -3.4585   -2.9653 O   0  0  0  1  0  0  0  0  0  0  0  0
   23.1193   -6.3817   -2.7017 C   0  0  0  1  0  0  0  0  0  0  0  0
   23.3472   -6.5272   -1.6664 H   0  0  0  1  0  0  0  0  0  0  0  0
   24.0252   -6.3872   -3.2710 H   0  0  0  1  0  0  0  0  0  0  0  0
   22.4520   -5.0355   -2.8662 C   0  0  0  1  0  0  0  0  0  0  0  0
   22.2617   -4.8866   -3.9086 H   0  0  0  1  0  0  0  0  0  0  0  0
   21.5243   -5.0597   -2.3337 H   0  0  0  1  0  0  0  0  0  0  0  0
   22.2783   -7.4804   -3.1529 N   0  0  0  1  0  0  0  0  0  0  0  0
   22.2293   -7.6755   -4.1120 H   0  0  0  1  0  0  0  0  0  0  0  0
   21.6171   -8.0893   -1.0839 O   0  0  0  1  0  0  0  0  0  0  0  0
   21.5708   -8.2324   -2.3050 C   0  0  0  1  0  0  0  0  0  0  0  0
   18.4056  -10.2678   -3.2102 C   0  0  0  1  0  0  0  0  0  0  0  0
   18.8275  -11.2511   -3.1999 H   0  0  0  1  0  0  0  0  0  0  0  0
   18.3795   -9.9008   -4.2150 H   0  0  0  1  0  0  0  0  0  0  0  0
   19.3070   -9.8055   -0.8944 C   0  0  0  1  0  0  0  0  0  0  0  0
   19.9863   -9.1950   -0.3370 H   0  0  0  1  0  0  0  0  0  0  0  0
   19.6299  -10.8249   -0.8554 H   0  0  0  1  0  0  0  0  0  0  0  0
   18.3270   -9.7249   -0.4725 H   0  0  0  1  0  0  0  0  0  0  0  0
   19.2753   -9.3353   -2.3535 C   0  0  0  1  0  0  0  0  0  0  0  0
   18.6616   -7.9323   -2.4270 C   0  0  0  1  0  0  0  0  0  0  0  0
   18.0451   -7.8573   -3.2984 H   0  0  0  1  0  0  0  0  0  0  0  0
   19.4433   -7.2036   -2.4797 H   0  0  0  1  0  0  0  0  0  0  0  0
   18.0679   -7.7568   -1.5543 H   0  0  0  1  0  0  0  0  0  0  0  0
   20.6911   -9.2915   -2.9404 C   0  0  0  1  0  0  0  0  0  0  0  0
   21.1433  -10.2413   -2.7448 H   0  0  0  1  0  0  0  0  0  0  0  0
   20.5273   -9.1505   -4.3513 O   0  0  0  1  0  0  0  0  0  0  0  0
   20.5359   -8.2190   -4.5834 H   0  0  0  1  0  0  0  0  0  0  0  0
   17.0573  -10.3224   -2.6878 O   0  0  0  1  0  0  0  0  0  0  0  0
   15.7518  -10.3064   -4.6408 O   0  0  0  1  0  0  0  0  0  0  0  0
   14.4770   -8.3215   -3.6716 O   0  0  0  1  0  0  0  0  0  0  0  0
   16.5638  -12.5707   -3.7943 O   0  0  0  0  0  0  0  0  0  0  0  0
   14.7178  -11.3260   -2.5374 O   0  0  0  1  0  0  0  0  0  0  0  0
   15.5369   -8.1005   -5.8684 O   0  0  0  0  0  0  0  0  0  0  0  0
   13.5789   -9.6858   -5.6381 O   0  0  0  1  0  0  0  0  0  0  0  0
   15.9389  -11.2967   -3.3623 P   0  0  0  1  0  0  0  0  0  0  0  0
   14.7922   -9.1062   -4.9937 P   0  0  0  1  0  0  0  0  0  0  0  0
   13.6947   -7.1033   -3.7563 C   0  0  0  1  0  0  0  0  0  0  0  0
   13.0780   -7.1264   -4.6304 H   0  0  0  1  0  0  0  0  0  0  0  0
   13.0786   -7.0047   -2.8871 H   0  0  0  1  0  0  0  0  0  0  0  0
   13.9209   -4.3407   -2.1250 O   0  0  0  1  0  0  0  0  0  0  0  0
   11.8324   -5.8162   -1.6056 O   0  0  0  1  0  0  0  0  0  0  0  0
   12.8878   -4.3827    0.2337 O   0  5  0  1  0  0  0  0  0  0  0  0
   13.1179   -5.3105   -1.0742 P   0  0  0  1  0  0  0  0  0  0  0  0
   14.0709   -6.5143   -0.5575 O   0  5  0  1  0  0  0  0  0  0  0  0
   16.6117   -4.0718   -5.8699 N   0  0  0  1  0  0  0  0  0  0  0  0
   17.6464   -3.8634   -4.9949 C   0  0  0  1  0  0  0  0  0  0  0  0
   17.1079   -3.7813   -7.1036 C   0  0  0  1  0  0  0  0  0  0  0  0
   16.5322   -3.8460   -7.9673 H   0  0  0  1  0  0  0  0  0  0  0  0
   18.7295   -3.4564   -5.7854 C   0  0  0  1  0  0  0  0  0  0  0  0
   17.6422   -4.0248   -3.6709 N   0  0  0  1  0  0  0  0  0  0  0  0
   18.3607   -3.4152   -7.1210 N   0  0  0  1  0  0  0  0  0  0  0  0
   19.9115   -3.2002   -5.0968 C   0  0  0  1  0  0  0  0  0  0  0  0
   18.8271   -3.7389   -3.1454 C   0  0  0  1  0  0  0  0  0  0  0  0
   18.8969   -3.8386   -2.1125 H   0  0  0  1  0  0  0  0  0  0  0  0
   19.9475   -3.3386   -3.7670 N   0  0  0  1  0  0  0  0  0  0  0  0
   21.1376   -2.7947   -5.6320 N   0  0  0  1  0  0  0  0  0  0  0  0
   21.9252   -2.7228   -5.0532 H   0  0  0  1  0  0  0  0  0  0  0  0
   21.2096   -2.5823   -6.5860 H   0  0  0  1  0  0  0  0  0  0  0  0
   24.8094   -1.2299    1.6682 S   0  0  0  1  0  0  0  0  0  0  0  0
   26.0733   -1.5687    3.9575 O   0  0  0  1  0  0  0  0  0  0  0  0
   25.4000   -2.0986    3.1041 C   0  0  0  1  0  0  0  0  0  0  0  0
   24.9999   -3.4996    3.1570 C   0  0  0  1  0  0  0  0  0  0  0  0
   24.9763   -4.0215    2.2578 H   0  0  0  1  0  0  0  0  0  0  0  0
   24.6582   -4.1757    4.2706 C   0  0  0  1  0  0  0  0  0  0  0  0
   24.7043   -3.5921    5.1302 H   0  0  0  1  0  0  0  0  0  0  0  0
   24.2311   -5.5684    4.5394 C   0  0  0  1  0  0  0  0  0  0  0  0
   24.1206   -6.4647    3.4878 C   0  0  0  1  0  0  0  0  0  0  0  0
   24.3409   -6.1587    2.5185 H   0  0  0  1  0  0  0  0  0  0  0  0
   23.9434   -5.9766    5.8281 C   0  0  0  1  0  0  0  0  0  0  0  0
   24.0301   -5.3053    6.6177 H   0  0  0  1  0  0  0  0  0  0  0  0
   23.7177   -7.7650    3.7271 C   0  0  0  1  0  0  0  0  0  0  0  0
   23.6310   -8.4363    2.9375 H   0  0  0  1  0  0  0  0  0  0  0  0
   23.5393   -7.2807    6.0684 C   0  0  0  1  0  0  0  0  0  0  0  0
   23.4293   -8.1742    5.0197 C   0  0  0  1  0  0  0  0  0  0  0  0
   23.0358   -9.4394    5.3048 O   0  0  0  1  0  0  0  0  0  0  0  0
   23.4967  -10.0554    4.7307 H   0  0  0  1  0  0  0  0  0  0  0  0
   23.2285   -7.7892    7.2766 O   0  0  0  1  0  0  0  0  0  0  0  0
   23.4166   -6.8836    8.3888 C   0  0  0  1  0  0  0  0  0  0  0  0
   22.8408   -5.9962    8.2281 H   0  0  0  1  0  0  0  0  0  0  0  0
   24.4523   -6.6270    8.4682 H   0  0  0  1  0  0  0  0  0  0  0  0
   23.0958   -7.3578    9.2927 H   0  0  0  1  0  0  0  0  0  0  0  0
  1  2  1  0  0  0  0
  1  3  1  0  0  0  0
  1  4  1  0  0  0  0
  1 65  1  0  0  0  0
  3  6  1  0  0  0  0
  4  5  1  0  0  0  0
  4  8  1  0  0  0  0
  4 10  1  0  0  0  0
  6  7  1  0  0  0  0
  6  8  1  0  0  0  0
  6 57  1  0  0  0  0
  8  9  1  0  0  0  0
  8 60  1  0  0  0  0
 10 11  1  0  0  0  0
 12 13  1  0  0  0  0
 12 14  1  0  0  0  0
 12 15  1  0  0  0  0
 12 18  1  0  0  0  0
 15 16  1  0  0  0  0
 15 17  1  0  0  0  0
 15 79  1  0  0  0  0
 18 19  1  0  0  0  0
 18 20  1  0  0  0  0
 20 21  2  0  0  0  0
 20 25  1  0  0  0  0
 22 23  1  0  0  0  0
 22 24  1  0  0  0  0
 22 25  1  0  0  0  0
 22 28  1  0  0  0  0
 25 26  1  0  0  0  0
 25 27  1  0  0  0  0
 28 29  1  0  0  0  0
 28 31  1  0  0  0  0
 30 31  2  0  0  0  0
 31 44  1  0  0  0  0
 32 33  1  0  0  0  0
 32 34  1  0  0  0  0
 32 39  1  0  0  0  0
 32 48  1  0  0  0  0
 35 36  1  0  0  0  0
 35 37  1  0  0  0  0
 35 38  1  0  0  0  0
 35 39  1  0  0  0  0
 39 40  1  0  0  0  0
 39 44  1  0  0  0  0
 40 41  1  0  0  0  0
 40 42  1  0  0  0  0
 40 43  1  0  0  0  0
 44 45  1  0  0  0  0
 44 46  1  0  0  0  0
 46 47  1  0  0  0  0
 48 55  1  0  0  0  0
 49 55  1  0  0  0  0
 49 56  1  0  0  0  0
 50 56  1  0  0  0  0
 50 57  1  0  0  0  0
 51 55  1  0  0  0  0
 52 55  2  0  0  0  0
 53 56  1  0  0  0  0
 54 56  2  0  0  0  0
 57 58  1  0  0  0  0
 57 59  1  0  0  0  0
 60 63  1  0  0  0  0
 61 63  2  0  0  0  0
 62 63  1  0  0  0  0
 63 64  1  0  0  0  0
 65 66  1  0  0  0  0
 65 67  1  0  0  0  0
 66 69  2  0  0  0  0
 66 70  1  0  0  0  0
 67 68  1  0  0  0  0
 67 71  2  0  0  0  0
 69 71  1  0  0  0  0
 69 72  1  0  0  0  0
 70 73  2  0  0  0  0
 72 75  2  0  0  0  0
 72 76  1  0  0  0  0
 73 74  1  0  0  0  0
 73 75  1  0  0  0  0
 76 77  1  0  0  0  0
 76 78  1  0  0  0  0
 79 81  1  0  0  0  0
 80 81  2  0  0  0  0
 81 82  1  0  0  0  0
 82 83  1  0  0  0  0
 82 84  2  0  0  0  0
 84 85  1  0  0  0  0
 84 86  1  0  0  0  0
 86 87  1  0  0  0  0
 86 89  2  0  0  0  0
 87 88  1  0  0  0  0
 87 91  2  0  0  0  0
 89 90  1  0  0  0  0
 89 93  1  0  0  0  0
 91 92  1  0  0  0  0
 91 94  1  0  0  0  0
 93 94  2  0  0  0  0
 93 97  1  0  0  0  0
 94 95  1  0  0  0  0
 95 96  1  0  0  0  0
 97 98  1  0  0  0  0
 98 99  1  0  0  0  0
 98100  1  0  0  0  0
 98101  1  0  0  0  0
M  BCL ATM C_TeTeTeTe H_S O_Te2Te2TeTe C_TeTeTeTe H_S C_TeTeTeTe H_S C_TeTeTeTe H_S O_Te2Te2TeTe H_S C_TeTeTeTe H_S H_S C_TeTeTeTe H_S H_S N_TrTrTrPi2 H_S C_TrTrTrPi O_Tr2Tr2TrPi C_TeTeTeTe H_S H_S C_TeTeTeTe H_S H_S N_TrTrTrPi2 H_S O_Tr2Tr2TrPi C_TrTrTrPi C_TeTeTeTe H_S H_S C_TeTeTeTe H_S H_S H_S C_TeTeTeTe C_TeTeTeTe H_S H_S H_S C_TeTeTeTe H_S O_Te2Te2TeTe H_S O_Tr2TrTrPi2 O_Tr2TrTrPi2 O_Tr2TrTrPi2 O_Te2Te2TeTe O_Tr2Tr2TrPi O_Te2Te2TeTe O_Tr2Tr2TrPi P_TeTeTeTePi P_TeTeTeTePi C_TeTeTeTe H_S H_S O_Tr2TrTrPi2 O_Tr2Tr2TrPi O_Te2Te2Te2Te P_TeTeTeTePi O_Te2Te2Te2Te N_TrTrTrPi2 C_TrTrTrPi C_TrTrTrPi H_S C_TrTrTrPi N_Tr2TrTrPi N_Tr2TrTrPi C_TrTrTrPi C_TrTrTrPi H_S N_Tr2TrTrPi N_TrTrTrPi2 H_S H_S S_Te2Te2TeTe O_Tr2Tr2TrPi C_TrTrTrPi C_TrTrTrPi H_S C_TrTrTrPi H_S C_TrTrTrPi C_TrTrTrPi H_S C_TrTrTrPi H_S C_TrTrTrPi H_S C_TrTrTrPi C_TrTrTrPi O_Te2Te2TeTe H_S O_Tr2TrTrPi2 C_TeTeTeTe H_S H_S H_S
M  BCL BND NonConjugatedSingleBond NonConjugatedSingleBondInRing NonConjugatedSingleBondInRing NonConjugatedSingleBond NonConjugatedSingleBondInRing NonConjugatedSingleBond NonConjugatedSingleBondInRing NonConjugatedSingleBond NonConjugatedSingleBond NonConjugatedSingleBondInRing NonConjugatedSingleBond NonConjugatedSingleBond NonConjugatedSingleBond NonConjugatedSingleBond NonConjugatedSingleBond NonConjugatedSingleBond NonConjugatedSingleBond NonConjugatedSingleBond NonConjugatedSingleBond NonConjugatedSingleBond NonConjugatedSingleBond NonConjugatedSingleBond AmideSingleBond ConjugatedDoubleBond NonConjugatedSingleBond NonConjugatedSingleBond NonConjugatedSingleBond NonConjugatedSingleBond NonConjugatedSingleBond NonConjugatedSingleBond NonConjugatedSingleBond NonConjugatedSingleBond AmideSingleBond ConjugatedDoubleBond NonConjugatedSingleBond NonConjugatedSingleBond NonConjugatedSingleBond NonConjugatedSingleBond NonConjugatedSingleBond NonConjugatedSingleBond NonConjugatedSingleBond NonConjugatedSingleBond NonConjugatedSingleBond NonConjugatedSingleBond NonConjugatedSingleBond NonConjugatedSingleBond NonConjugatedSingleBond NonConjugatedSingleBond NonConjugatedSingleBond NonConjugatedSingleBond NonConjugatedSingleBond ConjugatedSingleBond ConjugatedSingleBond ConjugatedSingleBond ConjugatedSingleBond NonConjugatedSingleBond ConjugatedSingleBond ConjugatedDoubleBond ConjugatedSingleBond ConjugatedDoubleBond NonConjugatedSingleBond NonConjugatedSingleBond ConjugatedSingleBond ConjugatedDoubleBond ConjugatedSingleBond ConjugatedSingleBond AromaticSingleBond AromaticSingleBond AromaticDoubleBond AromaticSingleBond NonConjugatedSingleBond AromaticDoubleBond AromaticSingleBond AromaticSingleBond AromaticDoubleBond AromaticDoubleBond ConjugatedSingleBond NonConjugatedSingleBond AromaticSingleBond NonConjugatedSingleBond NonConjugatedSingleBond ConjugatedSingleBond ConjugatedDoubleBond ConjugatedSingleBond NonConjugatedSingleBond ConjugatedDoubleBond NonConjugatedSingleBond ConjugatedSingleBond AromaticSingleBond AromaticDoubleBond NonConjugatedSingleBond AromaticDoubleBond NonConjugatedSingleBond AromaticSingleBond NonConjugatedSingleBond AromaticSingleBond AromaticDoubleBond ConjugatedSingleBond ConjugatedSingleBond NonConjugatedSingleBond NonConjugatedSingleBond NonConjugatedSingleBond NonConjugatedSingleBond NonConjugatedSingleBond
M  BCL CHI   1   R   4   R   6   R   8   S  44   S  55   S  56   R
M  BCL DBI - - - - - - - - - - E - - -
M  END
> <ConfClashScore>
0 

> <ConfOneFourInteractionScore>
-0.976872 

> <ConfScore>
0.0329401 

> <ConfScorePBest>
0.00850649 

> <ConfTolerance>
3.66462 

$$$$
L02.****
  PyMOL2.5          3D                             0

101104  0  0  0  0  0  0  0  0999 V2000
   15.2681   -4.4018   -5.5261 C   0  0  0  1  0  0  0  0  0  0  0  0
   14.8225   -3.5853   -4.9973 H   0  0  0  1  0  0  0  0  0  0  0  0
   14.5197   -4.7219   -6.6673 O   0  0  0  1  0  0  0  0  0  0  0  0
   15.2333   -5.6821   -4.6790 C   0  0  0  1  0  0  0  0  0  0  0  0
   16.0008   -6.3644   -4.9795 H   0  0  0  1  0  0  0  0  0  0  0  0
   13.6402   -5.8460   -6.4396 C   0  0  0  1  0  0  0  0  0  0  0  0
   13.8925   -6.6580   -7.0892 H   0  0  0  1  0  0  0  0  0  0  0  0
   13.8655   -6.2383   -4.9763 C   0  0  0  1  0  0  0  0  0  0  0  0
   13.1254   -5.7965   -4.3422 H   0  0  0  1  0  0  0  0  0  0  0  0
   15.3773   -5.3844   -3.2895 O   0  0  0  1  0  0  0  0  0  0  0  0
   16.1465   -5.8415   -2.9418 H   0  0  0  1  0  0  0  0  0  0  0  0
   11.4241   -5.6397  -15.1017 C   0  0  0  1  0  0  0  0  0  0  0  0
   11.4544   -6.2175  -14.2017 H   0  0  0  1  0  0  0  0  0  0  0  0
   11.1527   -6.2707  -15.9222 H   0  0  0  1  0  0  0  0  0  0  0  0
   12.8094   -5.0709  -15.3622 C   0  0  0  1  0  0  0  0  0  0  0  0
   12.8522   -4.7308  -16.3758 H   0  0  0  1  0  0  0  0  0  0  0  0
   13.5294   -5.8488  -15.2158 H   0  0  0  1  0  0  0  0  0  0  0  0
   10.4072   -4.5968  -14.9557 N   0  0  0  1  0  0  0  0  0  0  0  0
   10.0160   -4.4382  -14.0712 H   0  0  0  1  0  0  0  0  0  0  0  0
    9.9940   -3.8535  -15.9861 C   0  0  0  1  0  0  0  0  0  0  0  0
   10.5765   -3.8211  -17.0576 O   0  0  0  1  0  0  0  0  0  0  0  0
    8.9300   -1.9635  -14.6909 C   0  0  0  1  0  0  0  0  0  0  0  0
    8.0245   -1.3963  -14.6340 H   0  0  0  1  0  0  0  0  0  0  0  0
    9.7320   -1.3261  -14.9995 H   0  0  0  1  0  0  0  0  0  0  0  0
    8.7477   -3.0431  -15.7497 C   0  0  0  1  0  0  0  0  0  0  0  0
    7.9674   -3.7029  -15.4325 H   0  0  0  1  0  0  0  0  0  0  0  0
    8.4669   -2.5740  -16.6695 H   0  0  0  1  0  0  0  0  0  0  0  0
    9.2375   -2.4669  -13.3510 N   0  0  0  1  0  0  0  0  0  0  0  0
   10.1673   -2.4515  -13.0418 H   0  0  0  1  0  0  0  0  0  0  0  0
    7.1105   -3.0205  -12.8848 O   0  0  0  1  0  0  0  0  0  0  0  0
    8.2853   -2.9514  -12.5270 C   0  0  0  1  0  0  0  0  0  0  0  0
    8.8606   -5.4711   -9.6476 C   0  0  0  1  0  0  0  0  0  0  0  0
    8.3081   -4.9582   -8.8883 H   0  0  0  1  0  0  0  0  0  0  0  0
    9.9086   -5.3367   -9.4792 H   0  0  0  1  0  0  0  0  0  0  0  0
    6.9871   -5.1695  -11.2967 C   0  0  0  1  0  0  0  0  0  0  0  0
    6.4514   -4.2476  -11.2063 H   0  0  0  1  0  0  0  0  0  0  0  0
    6.6113   -5.8716  -10.5821 H   0  0  0  1  0  0  0  0  0  0  0  0
    6.8583   -5.5611  -12.2841 H   0  0  0  1  0  0  0  0  0  0  0  0
    8.4778   -4.9230  -11.0355 C   0  0  0  1  0  0  0  0  0  0  0  0
    9.3094   -5.6082  -12.1260 C   0  0  0  1  0  0  0  0  0  0  0  0
    8.9222   -5.3456  -13.0883 H   0  0  0  1  0  0  0  0  0  0  0  0
    9.2588   -6.6694  -11.9990 H   0  0  0  1  0  0  0  0  0  0  0  0
   10.3276   -5.2877  -12.0520 H   0  0  0  1  0  0  0  0  0  0  0  0
    8.7072   -3.4117  -11.1374 C   0  0  0  1  0  0  0  0  0  0  0  0
    8.0661   -2.9356  -10.4253 H   0  0  0  1  0  0  0  0  0  0  0  0
   10.0552   -3.1280  -10.8154 O   0  0  0  1  0  0  0  0  0  0  0  0
   10.0917   -2.3689  -10.2290 H   0  0  0  1  0  0  0  0  0  0  0  0
    8.5349   -6.8808   -9.6268 O   0  0  0  1  0  0  0  0  0  0  0  0
   10.7769   -6.9783   -8.6454 O   0  0  0  1  0  0  0  0  0  0  0  0
   12.0249   -5.0802   -8.0465 O   0  0  0  1  0  0  0  0  0  0  0  0
    9.1335   -8.5979   -7.8624 O   0  0  0  0  0  0  0  0  0  0  0  0
   10.0783   -8.8223  -10.2362 O   0  0  0  1  0  0  0  0  0  0  0  0
   13.3104   -7.0874   -8.9545 O   0  0  0  0  0  0  0  0  0  0  0  0
   11.8842   -5.6655  -10.5306 O   0  0  0  1  0  0  0  0  0  0  0  0
    9.6175   -7.9767   -9.1203 P   0  0  0  1  0  0  0  0  0  0  0  0
   12.1197   -6.2339   -9.1912 P   0  0  0  1  0  0  0  0  0  0  0  0
   12.2341   -5.4568   -6.6608 C   0  0  0  1  0  0  0  0  0  0  0  0
   11.9950   -4.6262   -6.0301 H   0  0  0  1  0  0  0  0  0  0  0  0
   11.5978   -6.2828   -6.4203 H   0  0  0  1  0  0  0  0  0  0  0  0
   13.8436   -7.6817   -4.8145 O   0  0  0  1  0  0  0  0  0  0  0  0
   14.7830   -7.5700   -2.3357 O   0  0  0  1  0  0  0  0  0  0  0  0
   15.6468   -9.1724   -4.1363 O   0  5  0  1  0  0  0  0  0  0  0  0
   14.3700   -8.4404   -3.4593 P   0  0  0  1  0  0  0  0  0  0  0  0
   13.3177   -9.5605   -2.9469 O   0  5  0  1  0  0  0  0  0  0  0  0
   16.6444   -4.0567   -5.8882 N   0  0  0  1  0  0  0  0  0  0  0  0
   17.6605   -3.8604   -4.9889 C   0  0  0  1  0  0  0  0  0  0  0  0
   17.1684   -3.7561   -7.1080 C   0  0  0  1  0  0  0  0  0  0  0  0
   16.6115   -3.8106   -7.9847 H   0  0  0  1  0  0  0  0  0  0  0  0
   18.7620   -3.4497   -5.7517 C   0  0  0  1  0  0  0  0  0  0  0  0
   17.6269   -4.0345   -3.6670 N   0  0  0  1  0  0  0  0  0  0  0  0
   18.4225   -3.3944   -7.0946 N   0  0  0  1  0  0  0  0  0  0  0  0
   19.9295   -3.2042   -5.0351 C   0  0  0  1  0  0  0  0  0  0  0  0
   18.8010   -3.7578   -3.1131 C   0  0  0  1  0  0  0  0  0  0  0  0
   18.8479   -3.8676   -2.0799 H   0  0  0  1  0  0  0  0  0  0  0  0
   19.9360   -3.3555   -3.7063 N   0  0  0  1  0  0  0  0  0  0  0  0
   21.0732   -2.8088   -5.6772 N   0  0  0  1  0  0  0  0  0  0  0  0
   21.0770   -2.7045   -6.6517 H   0  0  0  1  0  0  0  0  0  0  0  0
   21.8876   -2.6303   -5.1622 H   0  0  0  1  0  0  0  0  0  0  0  0
   13.2280   -3.6883  -14.2739 S   0  0  0  1  0  0  0  0  0  0  0  0
   12.2206   -2.3800  -16.3381 O   0  0  0  1  0  0  0  0  0  0  0  0
   12.6313   -2.2887  -15.1959 C   0  0  0  1  0  0  0  0  0  0  0  0
   12.6792   -1.0299  -14.4619 C   0  0  0  1  0  0  0  0  0  0  0  0
   13.0569   -1.0583  -13.4934 H   0  0  0  1  0  0  0  0  0  0  0  0
   12.2805    0.1539  -14.9257 C   0  0  0  1  0  0  0  0  0  0  0  0
   11.9026    0.1823  -15.8942 H   0  0  0  1  0  0  0  0  0  0  0  0
   12.3293    1.4329  -14.1800 C   0  0  0  1  0  0  0  0  0  0  0  0
   11.8625    2.5922  -14.7797 C   0  0  0  1  0  0  0  0  0  0  0  0
   11.4776    2.5594  -15.7453 H   0  0  0  1  0  0  0  0  0  0  0  0
   12.8358    1.4756  -12.8948 C   0  0  0  1  0  0  0  0  0  0  0  0
   13.1824    0.6051  -12.4434 H   0  0  0  1  0  0  0  0  0  0  0  0
   11.9085    3.7916  -14.0945 C   0  0  0  1  0  0  0  0  0  0  0  0
   11.5619    4.6621  -14.5459 H   0  0  0  1  0  0  0  0  0  0  0  0
   12.8821    2.6784  -12.2074 C   0  0  0  1  0  0  0  0  0  0  0  0
   12.4166    3.8343  -12.8055 C   0  0  0  1  0  0  0  0  0  0  0  0
   12.4776    4.9849  -12.0919 O   0  0  0  1  0  0  0  0  0  0  0  0
   13.2970    5.4431  -12.2924 H   0  0  0  1  0  0  0  0  0  0  0  0
   13.5348    2.6899  -10.9496 O   0  0  0  1  0  0  0  0  0  0  0  0
   13.8975    1.3791  -10.3634 C   0  0  0  1  0  0  0  0  0  0  0  0
   13.0147    0.8906  -10.0072 H   0  0  0  1  0  0  0  0  0  0  0  0
   14.5756    1.5282   -9.5493 H   0  0  0  1  0  0  0  0  0  0  0  0
   14.3643    0.7716  -11.1104 H   0  0  0  1  0  0  0  0  0  0  0  0
  1  2  1  0  0  0  0
  1  3  1  0  0  0  0
  1  4  1  0  0  0  0
  1 65  1  0  0  0  0
  3  6  1  0  0  0  0
  4  5  1  0  0  0  0
  4  8  1  0  0  0  0
  4 10  1  0  0  0  0
  6  7  1  0  0  0  0
  6  8  1  0  0  0  0
  6 57  1  0  0  0  0
  8  9  1  0  0  0  0
  8 60  1  0  0  0  0
 10 11  1  0  0  0  0
 12 13  1  0  0  0  0
 12 14  1  0  0  0  0
 12 15  1  0  0  0  0
 12 18  1  0  0  0  0
 15 16  1  0  0  0  0
 15 17  1  0  0  0  0
 15 79  1  0  0  0  0
 18 19  1  0  0  0  0
 18 20  1  0  0  0  0
 20 21  2  0  0  0  0
 20 25  1  0  0  0  0
 22 23  1  0  0  0  0
 22 24  1  0  0  0  0
 22 25  1  0  0  0  0
 22 28  1  0  0  0  0
 25 26  1  0  0  0  0
 25 27  1  0  0  0  0
 28 29  1  0  0  0  0
 28 31  1  0  0  0  0
 30 31  2  0  0  0  0
 31 44  1  0  0  0  0
 32 33  1  0  0  0  0
 32 34  1  0  0  0  0
 32 39  1  0  0  0  0
 32 48  1  0  0  0  0
 35 36  1  0  0  0  0
 35 37  1  0  0  0  0
 35 38  1  0  0  0  0
 35 39  1  0  0  0  0
 39 40  1  0  0  0  0
 39 44  1  0  0  0  0
 40 41  1  0  0  0  0
 40 42  1  0  0  0  0
 40 43  1  0  0  0  0
 44 45  1  0  0  0  0
 44 46  1  0  0  0  0
 46 47  1  0  0  0  0
 48 55  1  0  0  0  0
 49 55  1  0  0  0  0
 49 56  1  0  0  0  0
 50 56  1  0  0  0  0
 50 57  1  0  0  0  0
 51 55  1  0  0  0  0
 52 55  2  0  0  0  0
 53 56  1  0  0  0  0
 54 56  2  0  0  0  0
 57 58  1  0  0  0  0
 57 59  1  0  0  0  0
 60 63  1  0  0  0  0
 61 63  2  0  0  0  0
 62 63  1  0  0  0  0
 63 64  1  0  0  0  0
 65 66  1  0  0  0  0
 65 67  1  0  0  0  0
 66 69  2  0  0  0  0
 66 70  1  0  0  0  0
 67 68  1  0  0  0  0
 67 71  2  0  0  0  0
 69 71  1  0  0  0  0
 69 72  1  0  0  0  0
 70 73  2  0  0  0  0
 72 75  2  0  0  0  0
 72 76  1  0  0  0  0
 73 74  1  0  0  0  0
 73 75  1  0  0  0  0
 76 77  1  0  0  0  0
 76 78  1  0  0  0  0
 79 81  1  0  0  0  0
 80 81  2  0  0  0  0
 81 82  1  0  0  0  0
 82 83  1  0  0  0  0
 82 84  2  0  0  0  0
 84 85  1  0  0  0  0
 84 86  1  0  0  0  0
 86 87  1  0  0  0  0
 86 89  2  0  0  0  0
 87 88  1  0  0  0  0
 87 91  2  0  0  0  0
 89 90  1  0  0  0  0
 89 93  1  0  0  0  0
 91 92  1  0  0  0  0
 91 94  1  0  0  0  0
 93 94  2  0  0  0  0
 93 97  1  0  0  0  0
 94 95  1  0  0  0  0
 95 96  1  0  0  0  0
 97 98  1  0  0  0  0
 98 99  1  0  0  0  0
 98100  1  0  0  0  0
 98101  1  0  0  0  0
M  BCL ATM C_TeTeTeTe H_S O_Te2Te2TeTe C_TeTeTeTe H_S C_TeTeTeTe H_S C_TeTeTeTe H_S O_Te2Te2TeTe H_S C_TeTeTeTe H_S H_S C_TeTeTeTe H_S H_S N_TrTrTrPi2 H_S C_TrTrTrPi O_Tr2Tr2TrPi C_TeTeTeTe H_S H_S C_TeTeTeTe H_S H_S N_TrTrTrPi2 H_S O_Tr2Tr2TrPi C_TrTrTrPi C_TeTeTeTe H_S H_S C_TeTeTeTe H_S H_S H_S C_TeTeTeTe C_TeTeTeTe H_S H_S H_S C_TeTeTeTe H_S O_Te2Te2TeTe H_S O_Tr2TrTrPi2 O_Tr2TrTrPi2 O_Tr2TrTrPi2 O_Te2Te2TeTe O_Tr2Tr2TrPi O_Te2Te2TeTe O_Tr2Tr2TrPi P_TeTeTeTePi P_TeTeTeTePi C_TeTeTeTe H_S H_S O_Tr2TrTrPi2 O_Tr2Tr2TrPi O_Te2Te2Te2Te P_TeTeTeTePi O_Te2Te2Te2Te N_TrTrTrPi2 C_TrTrTrPi C_TrTrTrPi H_S C_TrTrTrPi N_Tr2TrTrPi N_Tr2TrTrPi C_TrTrTrPi C_TrTrTrPi H_S N_Tr2TrTrPi N_TrTrTrPi2 H_S H_S S_Te2Te2TeTe O_Tr2Tr2TrPi C_TrTrTrPi C_TrTrTrPi H_S C_TrTrTrPi H_S C_TrTrTrPi C_TrTrTrPi H_S C_TrTrTrPi H_S C_TrTrTrPi H_S C_TrTrTrPi C_TrTrTrPi O_Te2Te2TeTe H_S O_Tr2TrTrPi2 C_TeTeTeTe H_S H_S H_S
M  BCL BND NonConjugatedSingleBond NonConjugatedSingleBondInRing NonConjugatedSingleBondInRing NonConjugatedSingleBond NonConjugatedSingleBondInRing NonConjugatedSingleBond NonConjugatedSingleBondInRing NonConjugatedSingleBond NonConjugatedSingleBond NonConjugatedSingleBondInRing NonConjugatedSingleBond NonConjugatedSingleBond NonConjugatedSingleBond NonConjugatedSingleBond NonConjugatedSingleBond NonConjugatedSingleBond NonConjugatedSingleBond NonConjugatedSingleBond NonConjugatedSingleBond NonConjugatedSingleBond NonConjugatedSingleBond NonConjugatedSingleBond AmideSingleBond ConjugatedDoubleBond NonConjugatedSingleBond NonConjugatedSingleBond NonConjugatedSingleBond NonConjugatedSingleBond NonConjugatedSingleBond NonConjugatedSingleBond NonConjugatedSingleBond NonConjugatedSingleBond AmideSingleBond ConjugatedDoubleBond NonConjugatedSingleBond NonConjugatedSingleBond NonConjugatedSingleBond NonConjugatedSingleBond NonConjugatedSingleBond NonConjugatedSingleBond NonConjugatedSingleBond NonConjugatedSingleBond NonConjugatedSingleBond NonConjugatedSingleBond NonConjugatedSingleBond NonConjugatedSingleBond NonConjugatedSingleBond NonConjugatedSingleBond NonConjugatedSingleBond NonConjugatedSingleBond NonConjugatedSingleBond ConjugatedSingleBond ConjugatedSingleBond ConjugatedSingleBond ConjugatedSingleBond NonConjugatedSingleBond ConjugatedSingleBond ConjugatedDoubleBond ConjugatedSingleBond ConjugatedDoubleBond NonConjugatedSingleBond NonConjugatedSingleBond ConjugatedSingleBond ConjugatedDoubleBond ConjugatedSingleBond ConjugatedSingleBond AromaticSingleBond AromaticSingleBond AromaticDoubleBond AromaticSingleBond NonConjugatedSingleBond AromaticDoubleBond AromaticSingleBond AromaticSingleBond AromaticDoubleBond AromaticDoubleBond ConjugatedSingleBond NonConjugatedSingleBond AromaticSingleBond NonConjugatedSingleBond NonConjugatedSingleBond ConjugatedSingleBond ConjugatedDoubleBond ConjugatedSingleBond NonConjugatedSingleBond ConjugatedDoubleBond NonConjugatedSingleBond ConjugatedSingleBond AromaticSingleBond AromaticDoubleBond NonConjugatedSingleBond AromaticDoubleBond NonConjugatedSingleBond AromaticSingleBond NonConjugatedSingleBond AromaticSingleBond AromaticDoubleBond ConjugatedSingleBond ConjugatedSingleBond NonConjugatedSingleBond NonConjugatedSingleBond NonConjugatedSingleBond NonConjugatedSingleBond NonConjugatedSingleBond
M  BCL CHI   1   R   4   R   6   R   8   S  44   S  55   S  56   R
M  BCL DBI - - - - - - - - - - E - - -
M  END
> <ConfClashScore>
0 

> <ConfOneFourInteractionScore>
-0.9783 

> <ConfScore>
0.0365988 

> <ConfScorePBest>
0.00840348 

> <ConfTolerance>
3.11482 

$$$$
L02.****
  PyMOL2.5          3D                             0

101104  0  0  0  0  0  0  0  0999 V2000
   15.2359   -4.4080   -5.6013 C   0  0  0  1  0  0  0  0  0  0  0  0
   14.6613   -4.3050   -6.4980 H   0  0  0  1  0  0  0  0  0  0  0  0
   15.1484   -5.7454   -5.1173 O   0  0  0  1  0  0  0  0  0  0  0  0
   14.6876   -3.5130   -4.5371 C   0  0  0  1  0  0  0  0  0  0  0  0
   15.3882   -2.7391   -4.3025 H   0  0  0  1  0  0  0  0  0  0  0  0
   15.1514   -5.6758   -3.7032 C   0  0  0  1  0  0  0  0  0  0  0  0
   16.1558   -5.6729   -3.3342 H   0  0  0  1  0  0  0  0  0  0  0  0
   14.4635   -4.3933   -3.3467 C   0  0  0  1  0  0  0  0  0  0  0  0
   13.4181   -4.5555   -3.1862 H   0  0  0  1  0  0  0  0  0  0  0  0
   13.4562   -2.9282   -4.9634 O   0  0  0  1  0  0  0  0  0  0  0  0
   12.7217   -3.4463   -4.6261 H   0  0  0  1  0  0  0  0  0  0  0  0
    7.9271   -0.6124   -9.6467 C   0  0  0  1  0  0  0  0  0  0  0  0
    7.2886   -0.7212  -10.4984 H   0  0  0  1  0  0  0  0  0  0  0  0
    7.9751    0.4189   -9.3657 H   0  0  0  1  0  0  0  0  0  0  0  0
    9.3159   -1.0778  -10.0199 C   0  0  0  1  0  0  0  0  0  0  0  0
    9.5744   -0.6512  -10.9665 H   0  0  0  1  0  0  0  0  0  0  0  0
    9.3069   -2.1448  -10.0995 H   0  0  0  1  0  0  0  0  0  0  0  0
    7.3591   -1.3757   -8.5340 N   0  0  0  1  0  0  0  0  0  0  0  0
    7.4075   -0.9774   -7.6399 H   0  0  0  1  0  0  0  0  0  0  0  0
    6.7799   -2.5745   -8.6457 C   0  0  0  1  0  0  0  0  0  0  0  0
    6.5632   -3.1155   -9.7292 O   0  0  0  1  0  0  0  0  0  0  0  0
    5.8617   -4.6524   -7.5407 C   0  0  0  1  0  0  0  0  0  0  0  0
    6.4549   -5.1484   -8.2803 H   0  0  0  1  0  0  0  0  0  0  0  0
    4.8482   -4.5908   -7.8782 H   0  0  0  1  0  0  0  0  0  0  0  0
    6.3995   -3.2402   -7.3503 C   0  0  0  1  0  0  0  0  0  0  0  0
    5.6454   -2.6501   -6.8727 H   0  0  0  1  0  0  0  0  0  0  0  0
    7.2660   -3.2873   -6.7243 H   0  0  0  1  0  0  0  0  0  0  0  0
    5.8980   -5.4383   -6.3060 N   0  0  0  1  0  0  0  0  0  0  0  0
    6.1904   -5.0042   -5.4775 H   0  0  0  1  0  0  0  0  0  0  0  0
    5.2803   -7.3761   -7.2773 O   0  0  0  1  0  0  0  0  0  0  0  0
    5.5463   -6.7267   -6.2694 C   0  0  0  1  0  0  0  0  0  0  0  0
    7.9074   -7.9439   -5.1487 C   0  0  0  1  0  0  0  0  0  0  0  0
    7.8834   -7.5156   -6.1289 H   0  0  0  1  0  0  0  0  0  0  0  0
    8.6098   -8.7508   -5.1286 H   0  0  0  1  0  0  0  0  0  0  0  0
    6.4994   -9.1632   -3.4398 C   0  0  0  1  0  0  0  0  0  0  0  0
    7.4732   -9.0959   -3.0017 H   0  0  0  1  0  0  0  0  0  0  0  0
    6.2245  -10.1923   -3.5413 H   0  0  0  1  0  0  0  0  0  0  0  0
    5.7909   -8.6646   -2.8119 H   0  0  0  1  0  0  0  0  0  0  0  0
    6.5129   -8.4995   -4.8220 C   0  0  0  1  0  0  0  0  0  0  0  0
    6.1646   -9.5427   -5.8973 C   0  0  0  1  0  0  0  0  0  0  0  0
    5.9330  -10.4758   -5.4279 H   0  0  0  1  0  0  0  0  0  0  0  0
    7.0003   -9.6713   -6.5530 H   0  0  0  1  0  0  0  0  0  0  0  0
    5.3183   -9.2065   -6.4591 H   0  0  0  1  0  0  0  0  0  0  0  0
    5.4918   -7.3582   -4.8856 C   0  0  0  1  0  0  0  0  0  0  0  0
    4.5137   -7.7619   -4.7268 H   0  0  0  1  0  0  0  0  0  0  0  0
    5.7899   -6.3845   -3.8996 O   0  0  0  1  0  0  0  0  0  0  0  0
    5.4069   -6.6505   -3.0604 H   0  0  0  1  0  0  0  0  0  0  0  0
    8.3387   -6.9374   -4.2189 O   0  0  0  1  0  0  0  0  0  0  0  0
   10.7128   -6.9999   -4.4624 O   0  0  0  1  0  0  0  0  0  0  0  0
   13.0031   -6.7147   -3.4198 O   0  0  0  1  0  0  0  0  0  0  0  0
    9.4342   -5.1868   -5.7070 O   0  0  0  0  0  0  0  0  0  0  0  0
    9.6870   -5.2291   -3.1813 O   0  0  0  1  0  0  0  0  0  0  0  0
   12.6150   -8.0772   -5.5225 O   0  0  0  0  0  0  0  0  0  0  0  0
   12.4934   -5.5233   -5.4883 O   0  0  0  1  0  0  0  0  0  0  0  0
    9.5017   -5.9888   -4.4316 P   0  0  0  1  0  0  0  0  0  0  0  0
   12.2610   -6.8225   -4.8335 P   0  0  0  1  0  0  0  0  0  0  0  0
   14.4205   -6.8240   -3.1330 C   0  0  0  1  0  0  0  0  0  0  0  0
   14.5650   -6.8424   -2.0730 H   0  0  0  1  0  0  0  0  0  0  0  0
   14.7977   -7.7293   -3.5607 H   0  0  0  1  0  0  0  0  0  0  0  0
   15.0500   -3.8091   -2.1585 O   0  0  0  1  0  0  0  0  0  0  0  0
   13.0327   -2.5267   -1.1798 O   0  0  0  1  0  0  0  0  0  0  0  0
   15.2172   -2.7152    0.1986 O   0  5  0  1  0  0  0  0  0  0  0  0
   14.1741   -3.4025   -0.8329 P   0  0  0  1  0  0  0  0  0  0  0  0
   13.8787   -4.8301   -0.1264 O   0  5  0  1  0  0  0  0  0  0  0  0
   16.6339   -4.0642   -5.8741 N   0  0  0  1  0  0  0  0  0  0  0  0
   17.6570   -3.8615   -4.9841 C   0  0  0  1  0  0  0  0  0  0  0  0
   17.1474   -3.7692   -7.0996 C   0  0  0  1  0  0  0  0  0  0  0  0
   16.5835   -3.8291   -7.9714 H   0  0  0  1  0  0  0  0  0  0  0  0
   18.7515   -3.4530   -5.7580 C   0  0  0  1  0  0  0  0  0  0  0  0
   17.6344   -4.0288   -3.6611 N   0  0  0  1  0  0  0  0  0  0  0  0
   18.4010   -3.4053   -7.0983 N   0  0  0  1  0  0  0  0  0  0  0  0
   19.9244   -3.2018   -5.0522 C   0  0  0  1  0  0  0  0  0  0  0  0
   18.8126   -3.7473   -3.1182 C   0  0  0  1  0  0  0  0  0  0  0  0
   18.8681   -3.8517   -2.0849 H   0  0  0  1  0  0  0  0  0  0  0  0
   19.9420   -3.3462   -3.7227 N   0  0  0  1  0  0  0  0  0  0  0  0
   21.0973   -2.8033   -5.6591 N   0  0  0  1  0  0  0  0  0  0  0  0
   21.1480   -2.7443   -6.6361 H   0  0  0  1  0  0  0  0  0  0  0  0
   21.8798   -2.5791   -5.1134 H   0  0  0  1  0  0  0  0  0  0  0  0
   10.5752   -0.6023   -8.8120 S   0  0  0  1  0  0  0  0  0  0  0  0
   10.4137    1.6132  -10.2326 O   0  0  0  1  0  0  0  0  0  0  0  0
   10.9511    1.0677   -9.2967 C   0  0  0  1  0  0  0  0  0  0  0  0
   11.9617    1.7148   -8.4657 C   0  0  0  1  0  0  0  0  0  0  0  0
   12.2678    1.1872   -7.6234 H   0  0  0  1  0  0  0  0  0  0  0  0
   12.5393    2.9003   -8.6566 C   0  0  0  1  0  0  0  0  0  0  0  0
   12.2459    3.4429   -9.4939 H   0  0  0  1  0  0  0  0  0  0  0  0
   13.5627    3.5111   -7.7790 C   0  0  0  1  0  0  0  0  0  0  0  0
   14.0078    4.8096   -7.9716 C   0  0  0  1  0  0  0  0  0  0  0  0
   13.6183    5.3831   -8.7469 H   0  0  0  1  0  0  0  0  0  0  0  0
   14.0764    2.7509   -6.7454 C   0  0  0  1  0  0  0  0  0  0  0  0
   13.7397    1.7779   -6.5984 H   0  0  0  1  0  0  0  0  0  0  0  0
   14.9690    5.3424   -7.1335 C   0  0  0  1  0  0  0  0  0  0  0  0
   15.3058    6.3153   -7.2805 H   0  0  0  1  0  0  0  0  0  0  0  0
   15.0405    3.2850   -5.9047 C   0  0  0  1  0  0  0  0  0  0  0  0
   15.4841    4.5798   -6.0968 C   0  0  0  1  0  0  0  0  0  0  0  0
   16.4219    5.1262   -5.2852 O   0  0  0  1  0  0  0  0  0  0  0  0
   15.9908    5.5785   -4.5565 H   0  0  0  1  0  0  0  0  0  0  0  0
   15.5038    2.4904   -4.9203 O   0  0  0  1  0  0  0  0  0  0  0  0
   15.3419    1.0716   -5.1515 C   0  0  0  1  0  0  0  0  0  0  0  0
   14.2996    0.8326   -5.1898 H   0  0  0  1  0  0  0  0  0  0  0  0
   15.8038    0.5258   -4.3555 H   0  0  0  1  0  0  0  0  0  0  0  0
   15.8026    0.8070   -6.0804 H   0  0  0  1  0  0  0  0  0  0  0  0
  1  2  1  0  0  0  0
  1  3  1  0  0  0  0
  1  4  1  0  0  0  0
  1 65  1  0  0  0  0
  3  6  1  0  0  0  0
  4  5  1  0  0  0  0
  4  8  1  0  0  0  0
  4 10  1  0  0  0  0
  6  7  1  0  0  0  0
  6  8  1  0  0  0  0
  6 57  1  0  0  0  0
  8  9  1  0  0  0  0
  8 60  1  0  0  0  0
 10 11  1  0  0  0  0
 12 13  1  0  0  0  0
 12 14  1  0  0  0  0
 12 15  1  0  0  0  0
 12 18  1  0  0  0  0
 15 16  1  0  0  0  0
 15 17  1  0  0  0  0
 15 79  1  0  0  0  0
 18 19  1  0  0  0  0
 18 20  1  0  0  0  0
 20 21  2  0  0  0  0
 20 25  1  0  0  0  0
 22 23  1  0  0  0  0
 22 24  1  0  0  0  0
 22 25  1  0  0  0  0
 22 28  1  0  0  0  0
 25 26  1  0  0  0  0
 25 27  1  0  0  0  0
 28 29  1  0  0  0  0
 28 31  1  0  0  0  0
 30 31  2  0  0  0  0
 31 44  1  0  0  0  0
 32 33  1  0  0  0  0
 32 34  1  0  0  0  0
 32 39  1  0  0  0  0
 32 48  1  0  0  0  0
 35 36  1  0  0  0  0
 35 37  1  0  0  0  0
 35 38  1  0  0  0  0
 35 39  1  0  0  0  0
 39 40  1  0  0  0  0
 39 44  1  0  0  0  0
 40 41  1  0  0  0  0
 40 42  1  0  0  0  0
 40 43  1  0  0  0  0
 44 45  1  0  0  0  0
 44 46  1  0  0  0  0
 46 47  1  0  0  0  0
 48 55  1  0  0  0  0
 49 55  1  0  0  0  0
 49 56  1  0  0  0  0
 50 56  1  0  0  0  0
 50 57  1  0  0  0  0
 51 55  1  0  0  0  0
 52 55  2  0  0  0  0
 53 56  1  0  0  0  0
 54 56  2  0  0  0  0
 57 58  1  0  0  0  0
 57 59  1  0  0  0  0
 60 63  1  0  0  0  0
 61 63  2  0  0  0  0
 62 63  1  0  0  0  0
 63 64  1  0  0  0  0
 65 66  1  0  0  0  0
 65 67  1  0  0  0  0
 66 69  2  0  0  0  0
 66 70  1  0  0  0  0
 67 68  1  0  0  0  0
 67 71  2  0  0  0  0
 69 71  1  0  0  0  0
 69 72  1  0  0  0  0
 70 73  2  0  0  0  0
 72 75  2  0  0  0  0
 72 76  1  0  0  0  0
 73 74  1  0  0  0  0
 73 75  1  0  0  0  0
 76 77  1  0  0  0  0
 76 78  1  0  0  0  0
 79 81  1  0  0  0  0
 80 81  2  0  0  0  0
 81 82  1  0  0  0  0
 82 83  1  0  0  0  0
 82 84  2  0  0  0  0
 84 85  1  0  0  0  0
 84 86  1  0  0  0  0
 86 87  1  0  0  0  0
 86 89  2  0  0  0  0
 87 88  1  0  0  0  0
 87 91  2  0  0  0  0
 89 90  1  0  0  0  0
 89 93  1  0  0  0  0
 91 92  1  0  0  0  0
 91 94  1  0  0  0  0
 93 94  2  0  0  0  0
 93 97  1  0  0  0  0
 94 95  1  0  0  0  0
 95 96  1  0  0  0  0
 97 98  1  0  0  0  0
 98 99  1  0  0  0  0
 98100  1  0  0  0  0
 98101  1  0  0  0  0
M  BCL ATM C_TeTeTeTe H_S O_Te2Te2TeTe C_TeTeTeTe H_S C_TeTeTeTe H_S C_TeTeTeTe H_S O_Te2Te2TeTe H_S C_TeTeTeTe H_S H_S C_TeTeTeTe H_S H_S N_TrTrTrPi2 H_S C_TrTrTrPi O_Tr2Tr2TrPi C_TeTeTeTe H_S H_S C_TeTeTeTe H_S H_S N_TrTrTrPi2 H_S O_Tr2Tr2TrPi C_TrTrTrPi C_TeTeTeTe H_S H_S C_TeTeTeTe H_S H_S H_S C_TeTeTeTe C_TeTeTeTe H_S H_S H_S C_TeTeTeTe H_S O_Te2Te2TeTe H_S O_Tr2TrTrPi2 O_Tr2TrTrPi2 O_Tr2TrTrPi2 O_Te2Te2TeTe O_Tr2Tr2TrPi O_Te2Te2TeTe O_Tr2Tr2TrPi P_TeTeTeTePi P_TeTeTeTePi C_TeTeTeTe H_S H_S O_Tr2TrTrPi2 O_Tr2Tr2TrPi O_Te2Te2Te2Te P_TeTeTeTePi O_Te2Te2Te2Te N_TrTrTrPi2 C_TrTrTrPi C_TrTrTrPi H_S C_TrTrTrPi N_Tr2TrTrPi N_Tr2TrTrPi C_TrTrTrPi C_TrTrTrPi H_S N_Tr2TrTrPi N_TrTrTrPi2 H_S H_S S_Te2Te2TeTe O_Tr2Tr2TrPi C_TrTrTrPi C_TrTrTrPi H_S C_TrTrTrPi H_S C_TrTrTrPi C_TrTrTrPi H_S C_TrTrTrPi H_S C_TrTrTrPi H_S C_TrTrTrPi C_TrTrTrPi O_Te2Te2TeTe H_S O_Tr2TrTrPi2 C_TeTeTeTe H_S H_S H_S
M  BCL BND NonConjugatedSingleBond NonConjugatedSingleBondInRing NonConjugatedSingleBondInRing NonConjugatedSingleBond NonConjugatedSingleBondInRing NonConjugatedSingleBond NonConjugatedSingleBondInRing NonConjugatedSingleBond NonConjugatedSingleBond NonConjugatedSingleBondInRing NonConjugatedSingleBond NonConjugatedSingleBond NonConjugatedSingleBond NonConjugatedSingleBond NonConjugatedSingleBond NonConjugatedSingleBond NonConjugatedSingleBond NonConjugatedSingleBond NonConjugatedSingleBond NonConjugatedSingleBond NonConjugatedSingleBond NonConjugatedSingleBond AmideSingleBond ConjugatedDoubleBond NonConjugatedSingleBond NonConjugatedSingleBond NonConjugatedSingleBond NonConjugatedSingleBond NonConjugatedSingleBond NonConjugatedSingleBond NonConjugatedSingleBond NonConjugatedSingleBond AmideSingleBond ConjugatedDoubleBond NonConjugatedSingleBond NonConjugatedSingleBond NonConjugatedSingleBond NonConjugatedSingleBond NonConjugatedSingleBond NonConjugatedSingleBond NonConjugatedSingleBond NonConjugatedSingleBond NonConjugatedSingleBond NonConjugatedSingleBond NonConjugatedSingleBond NonConjugatedSingleBond NonConjugatedSingleBond NonConjugatedSingleBond NonConjugatedSingleBond NonConjugatedSingleBond NonConjugatedSingleBond ConjugatedSingleBond ConjugatedSingleBond ConjugatedSingleBond ConjugatedSingleBond NonConjugatedSingleBond ConjugatedSingleBond ConjugatedDoubleBond ConjugatedSingleBond ConjugatedDoubleBond NonConjugatedSingleBond NonConjugatedSingleBond ConjugatedSingleBond ConjugatedDoubleBond ConjugatedSingleBond ConjugatedSingleBond AromaticSingleBond AromaticSingleBond AromaticDoubleBond AromaticSingleBond NonConjugatedSingleBond AromaticDoubleBond AromaticSingleBond AromaticSingleBond AromaticDoubleBond AromaticDoubleBond ConjugatedSingleBond NonConjugatedSingleBond AromaticSingleBond NonConjugatedSingleBond NonConjugatedSingleBond ConjugatedSingleBond ConjugatedDoubleBond ConjugatedSingleBond NonConjugatedSingleBond ConjugatedDoubleBond NonConjugatedSingleBond ConjugatedSingleBond AromaticSingleBond AromaticDoubleBond NonConjugatedSingleBond AromaticDoubleBond NonConjugatedSingleBond AromaticSingleBond NonConjugatedSingleBond AromaticSingleBond AromaticDoubleBond ConjugatedSingleBond ConjugatedSingleBond NonConjugatedSingleBond NonConjugatedSingleBond NonConjugatedSingleBond NonConjugatedSingleBond NonConjugatedSingleBond
M  BCL CHI   1   R   4   R   6   R   8   S  44   S  55   S  56   R
M  BCL DBI - - - - - - - - - - E - - -
M  END
> <ConfClashScore>
0 

> <ConfOneFourInteractionScore>
-0.977968 

> <ConfScore>
0.0374336 

> <ConfScorePBest>
0.00830048 

> <ConfTolerance>
2.7378 

$$$$
L02.****
  PyMOL2.5          3D                             0

101104  0  0  0  0  0  0  0  0999 V2000
   15.2503   -4.4320   -5.5688 C   0  0  0  1  0  0  0  0  0  0  0  0
   14.7332   -3.6169   -5.1072 H   0  0  0  1  0  0  0  0  0  0  0  0
   14.5840   -4.8493   -6.7294 O   0  0  0  1  0  0  0  0  0  0  0  0
   15.2376   -5.6692   -4.6593 C   0  0  0  1  0  0  0  0  0  0  0  0
   16.0560   -6.3211   -4.8834 H   0  0  0  1  0  0  0  0  0  0  0  0
   13.7548   -6.0087   -6.4897 C   0  0  0  1  0  0  0  0  0  0  0  0
   14.0856   -6.8360   -7.0822 H   0  0  0  1  0  0  0  0  0  0  0  0
   13.9200   -6.3154   -4.9983 C   0  0  0  1  0  0  0  0  0  0  0  0
   13.1236   -5.8855   -4.4275 H   0  0  0  1  0  0  0  0  0  0  0  0
   15.2888   -5.2960   -3.2816 O   0  0  0  1  0  0  0  0  0  0  0  0
   14.4048   -5.0816   -2.9746 H   0  0  0  1  0  0  0  0  0  0  0  0
   15.6420   -9.8878   -9.5554 C   0  0  0  1  0  0  0  0  0  0  0  0
   15.0036   -9.9651   -8.7002 H   0  0  0  1  0  0  0  0  0  0  0  0
   16.1974  -10.7951   -9.6698 H   0  0  0  1  0  0  0  0  0  0  0  0
   16.6107   -8.7526   -9.3344 C   0  0  0  1  0  0  0  0  0  0  0  0
   17.1566   -8.9419   -8.4338 H   0  0  0  1  0  0  0  0  0  0  0  0
   16.0532   -7.8453   -9.2302 H   0  0  0  1  0  0  0  0  0  0  0  0
   14.8110   -9.6933  -10.7449 N   0  0  0  1  0  0  0  0  0  0  0  0
   14.5933   -8.7800  -11.0256 H   0  0  0  1  0  0  0  0  0  0  0  0
   14.3392  -10.7177  -11.4611 C   0  0  0  1  0  0  0  0  0  0  0  0
   14.5895  -11.8926  -11.1952 O   0  0  0  1  0  0  0  0  0  0  0  0
   12.2368  -11.2371  -12.7621 C   0  0  0  1  0  0  0  0  0  0  0  0
   12.5544  -12.2559  -12.8391 H   0  0  0  1  0  0  0  0  0  0  0  0
   11.7067  -10.9602  -13.6494 H   0  0  0  1  0  0  0  0  0  0  0  0
   13.4685  -10.3504  -12.6328 C   0  0  0  1  0  0  0  0  0  0  0  0
   14.0474  -10.4390  -13.5283 H   0  0  0  1  0  0  0  0  0  0  0  0
   13.1473   -9.3367  -12.5139 H   0  0  0  1  0  0  0  0  0  0  0  0
   11.3328  -11.1127  -11.6174 N   0  0  0  1  0  0  0  0  0  0  0  0
   10.8979  -10.2506  -11.4496 H   0  0  0  1  0  0  0  0  0  0  0  0
   11.4967  -13.2717  -10.9914 O   0  0  0  1  0  0  0  0  0  0  0  0
   11.0800  -12.1335  -10.7934 C   0  0  0  1  0  0  0  0  0  0  0  0
   10.1907  -11.8176   -7.0717 C   0  0  0  1  0  0  0  0  0  0  0  0
   10.6877  -12.1791   -6.1958 H   0  0  0  1  0  0  0  0  0  0  0  0
    9.2128  -12.2477   -7.1306 H   0  0  0  1  0  0  0  0  0  0  0  0
   11.1378  -13.7489   -8.2973 C   0  0  0  1  0  0  0  0  0  0  0  0
   11.6639  -14.0501   -7.4156 H   0  0  0  1  0  0  0  0  0  0  0  0
   11.6823  -14.0646   -9.1626 H   0  0  0  1  0  0  0  0  0  0  0  0
   10.1663  -14.1974   -8.3033 H   0  0  0  1  0  0  0  0  0  0  0  0
   10.9957  -12.2222   -8.3120 C   0  0  0  1  0  0  0  0  0  0  0  0
   12.3865  -11.5685   -8.2545 C   0  0  0  1  0  0  0  0  0  0  0  0
   12.7370  -11.3865   -9.2490 H   0  0  0  1  0  0  0  0  0  0  0  0
   13.0672  -12.2225   -7.7508 H   0  0  0  1  0  0  0  0  0  0  0  0
   12.3230  -10.6416   -7.7238 H   0  0  0  1  0  0  0  0  0  0  0  0
   10.2318  -11.8041   -9.5732 C   0  0  0  1  0  0  0  0  0  0  0  0
    9.3197  -12.3611   -9.6241 H   0  0  0  1  0  0  0  0  0  0  0  0
    9.9593  -10.4134   -9.5372 O   0  0  0  1  0  0  0  0  0  0  0  0
   10.7711   -9.9238   -9.6883 H   0  0  0  1  0  0  0  0  0  0  0  0
   10.0739  -10.3775   -6.9931 O   0  0  0  1  0  0  0  0  0  0  0  0
    9.4228   -8.2245   -6.0359 O   0  0  0  1  0  0  0  0  0  0  0  0
   11.4974   -6.8311   -6.4430 O   0  0  0  1  0  0  0  0  0  0  0  0
    9.2364  -10.3047   -4.5941 O   0  0  0  0  0  0  0  0  0  0  0  0
   11.5447   -9.3708   -5.2631 O   0  0  0  1  0  0  0  0  0  0  0  0
    9.1834   -6.0744   -7.1434 O   0  0  0  0  0  0  0  0  0  0  0  0
    9.9427   -6.1323   -4.6804 O   0  0  0  1  0  0  0  0  0  0  0  0
   10.1151   -9.6280   -5.5823 P   0  0  0  1  0  0  0  0  0  0  0  0
    9.9365   -6.7284   -6.0277 P   0  0  0  1  0  0  0  0  0  0  0  0
   12.3442   -5.7106   -6.8041 C   0  0  0  1  0  0  0  0  0  0  0  0
   12.2495   -5.5209   -7.8529 H   0  0  0  1  0  0  0  0  0  0  0  0
   12.0363   -4.8451   -6.2553 H   0  0  0  1  0  0  0  0  0  0  0  0
   13.9664   -7.7437   -4.7638 O   0  0  0  1  0  0  0  0  0  0  0  0
   16.1559   -7.9387   -3.2893 O   0  0  0  1  0  0  0  0  0  0  0  0
   14.4878   -9.8953   -3.3392 O   0  5  0  1  0  0  0  0  0  0  0  0
   14.7252   -8.2947   -3.4183 P   0  0  0  1  0  0  0  0  0  0  0  0
   13.8880   -7.6836   -2.1732 O   0  5  0  1  0  0  0  0  0  0  0  0
   16.6229   -4.0285   -5.8758 N   0  0  0  1  0  0  0  0  0  0  0  0
   17.6505   -3.8481   -4.9863 C   0  0  0  1  0  0  0  0  0  0  0  0
   17.1448   -3.7544   -7.1027 C   0  0  0  1  0  0  0  0  0  0  0  0
   16.5799   -3.8043   -7.9745 H   0  0  0  1  0  0  0  0  0  0  0  0
   18.7560   -3.4735   -5.7618 C   0  0  0  1  0  0  0  0  0  0  0  0
   17.6227   -4.0070   -3.6624 N   0  0  0  1  0  0  0  0  0  0  0  0
   18.4076   -3.4241   -7.1026 N   0  0  0  1  0  0  0  0  0  0  0  0
   19.9348   -3.2497   -5.0566 C   0  0  0  1  0  0  0  0  0  0  0  0
   18.8077   -3.7540   -3.1203 C   0  0  0  1  0  0  0  0  0  0  0  0
   18.8598   -3.8538   -2.0864 H   0  0  0  1  0  0  0  0  0  0  0  0
   19.9478   -3.3868   -3.7263 N   0  0  0  1  0  0  0  0  0  0  0  0
   21.1029   -2.7983   -5.6613 N   0  0  0  1  0  0  0  0  0  0  0  0
   21.1266   -2.6468   -6.6293 H   0  0  0  1  0  0  0  0  0  0  0  0
   21.9023   -2.6316   -5.1195 H   0  0  0  1  0  0  0  0  0  0  0  0
   17.7910   -8.5492  -10.6897 S   0  0  0  1  0  0  0  0  0  0  0  0
   17.3865   -6.0291  -10.0279 O   0  0  0  1  0  0  0  0  0  0  0  0
   18.0082   -6.7841  -10.7391 C   0  0  0  1  0  0  0  0  0  0  0  0
   18.9998   -6.3340  -11.7110 C   0  0  0  1  0  0  0  0  0  0  0  0
   19.4688   -7.0791  -12.2646 H   0  0  0  1  0  0  0  0  0  0  0  0
   19.3763   -5.0833  -11.9743 C   0  0  0  1  0  0  0  0  0  0  0  0
   18.9183   -4.3244  -11.4305 H   0  0  0  1  0  0  0  0  0  0  0  0
   20.3916   -4.6813  -12.9754 C   0  0  0  1  0  0  0  0  0  0  0  0
   21.0141   -5.6513  -13.7454 C   0  0  0  1  0  0  0  0  0  0  0  0
   20.7644   -6.6532  -13.6210 H   0  0  0  1  0  0  0  0  0  0  0  0
   20.7195   -3.3494  -13.1444 C   0  0  0  1  0  0  0  0  0  0  0  0
   20.2496   -2.6212  -12.5696 H   0  0  0  1  0  0  0  0  0  0  0  0
   21.9665   -5.2873  -14.6784 C   0  0  0  1  0  0  0  0  0  0  0  0
   22.4365   -6.0155  -15.2533 H   0  0  0  1  0  0  0  0  0  0  0  0
   21.6748   -2.9840  -14.0802 C   0  0  0  1  0  0  0  0  0  0  0  0
   22.2954   -3.9513  -14.8479 C   0  0  0  1  0  0  0  0  0  0  0  0
   23.2285   -3.6189  -15.7727 O   0  0  0  1  0  0  0  0  0  0  0  0
   23.1022   -4.1516  -16.5613 H   0  0  0  1  0  0  0  0  0  0  0  0
   21.9163   -1.6535  -14.1526 O   0  0  0  1  0  0  0  0  0  0  0  0
   23.1316   -1.2413  -14.7974 C   0  0  0  1  0  0  0  0  0  0  0  0
   23.1255   -1.5711  -15.8152 H   0  0  0  1  0  0  0  0  0  0  0  0
   23.9687   -1.6714  -14.2883 H   0  0  0  1  0  0  0  0  0  0  0  0
   23.2060   -0.1743  -14.7689 H   0  0  0  1  0  0  0  0  0  0  0  0
  1  2  1  0  0  0  0
  1  3  1  0  0  0  0
  1  4  1  0  0  0  0
  1 65  1  0  0  0  0
  3  6  1  0  0  0  0
  4  5  1  0  0  0  0
  4  8  1  0  0  0  0
  4 10  1  0  0  0  0
  6  7  1  0  0  0  0
  6  8  1  0  0  0  0
  6 57  1  0  0  0  0
  8  9  1  0  0  0  0
  8 60  1  0  0  0  0
 10 11  1  0  0  0  0
 12 13  1  0  0  0  0
 12 14  1  0  0  0  0
 12 15  1  0  0  0  0
 12 18  1  0  0  0  0
 15 16  1  0  0  0  0
 15 17  1  0  0  0  0
 15 79  1  0  0  0  0
 18 19  1  0  0  0  0
 18 20  1  0  0  0  0
 20 21  2  0  0  0  0
 20 25  1  0  0  0  0
 22 23  1  0  0  0  0
 22 24  1  0  0  0  0
 22 25  1  0  0  0  0
 22 28  1  0  0  0  0
 25 26  1  0  0  0  0
 25 27  1  0  0  0  0
 28 29  1  0  0  0  0
 28 31  1  0  0  0  0
 30 31  2  0  0  0  0
 31 44  1  0  0  0  0
 32 33  1  0  0  0  0
 32 34  1  0  0  0  0
 32 39  1  0  0  0  0
 32 48  1  0  0  0  0
 35 36  1  0  0  0  0
 35 37  1  0  0  0  0
 35 38  1  0  0  0  0
 35 39  1  0  0  0  0
 39 40  1  0  0  0  0
 39 44  1  0  0  0  0
 40 41  1  0  0  0  0
 40 42  1  0  0  0  0
 40 43  1  0  0  0  0
 44 45  1  0  0  0  0
 44 46  1  0  0  0  0
 46 47  1  0  0  0  0
 48 55  1  0  0  0  0
 49 55  1  0  0  0  0
 49 56  1  0  0  0  0
 50 56  1  0  0  0  0
 50 57  1  0  0  0  0
 51 55  1  0  0  0  0
 52 55  2  0  0  0  0
 53 56  1  0  0  0  0
 54 56  2  0  0  0  0
 57 58  1  0  0  0  0
 57 59  1  0  0  0  0
 60 63  1  0  0  0  0
 61 63  2  0  0  0  0
 62 63  1  0  0  0  0
 63 64  1  0  0  0  0
 65 66  1  0  0  0  0
 65 67  1  0  0  0  0
 66 69  2  0  0  0  0
 66 70  1  0  0  0  0
 67 68  1  0  0  0  0
 67 71  2  0  0  0  0
 69 71  1  0  0  0  0
 69 72  1  0  0  0  0
 70 73  2  0  0  0  0
 72 75  2  0  0  0  0
 72 76  1  0  0  0  0
 73 74  1  0  0  0  0
 73 75  1  0  0  0  0
 76 77  1  0  0  0  0
 76 78  1  0  0  0  0
 79 81  1  0  0  0  0
 80 81  2  0  0  0  0
 81 82  1  0  0  0  0
 82 83  1  0  0  0  0
 82 84  2  0  0  0  0
 84 85  1  0  0  0  0
 84 86  1  0  0  0  0
 86 87  1  0  0  0  0
 86 89  2  0  0  0  0
 87 88  1  0  0  0  0
 87 91  2  0  0  0  0
 89 90  1  0  0  0  0
 89 93  1  0  0  0  0
 91 92  1  0  0  0  0
 91 94  1  0  0  0  0
 93 94  2  0  0  0  0
 93 97  1  0  0  0  0
 94 95  1  0  0  0  0
 95 96  1  0  0  0  0
 97 98  1  0  0  0  0
 98 99  1  0  0  0  0
 98100  1  0  0  0  0
 98101  1  0  0  0  0
M  BCL ATM C_TeTeTeTe H_S O_Te2Te2TeTe C_TeTeTeTe H_S C_TeTeTeTe H_S C_TeTeTeTe H_S O_Te2Te2TeTe H_S C_TeTeTeTe H_S H_S C_TeTeTeTe H_S H_S N_TrTrTrPi2 H_S C_TrTrTrPi O_Tr2Tr2TrPi C_TeTeTeTe H_S H_S C_TeTeTeTe H_S H_S N_TrTrTrPi2 H_S O_Tr2Tr2TrPi C_TrTrTrPi C_TeTeTeTe H_S H_S C_TeTeTeTe H_S H_S H_S C_TeTeTeTe C_TeTeTeTe H_S H_S H_S C_TeTeTeTe H_S O_Te2Te2TeTe H_S O_Tr2TrTrPi2 O_Tr2TrTrPi2 O_Tr2TrTrPi2 O_Te2Te2TeTe O_Tr2Tr2TrPi O_Te2Te2TeTe O_Tr2Tr2TrPi P_TeTeTeTePi P_TeTeTeTePi C_TeTeTeTe H_S H_S O_Tr2TrTrPi2 O_Tr2Tr2TrPi O_Te2Te2Te2Te P_TeTeTeTePi O_Te2Te2Te2Te N_TrTrTrPi2 C_TrTrTrPi C_TrTrTrPi H_S C_TrTrTrPi N_Tr2TrTrPi N_Tr2TrTrPi C_TrTrTrPi C_TrTrTrPi H_S N_Tr2TrTrPi N_TrTrTrPi2 H_S H_S S_Te2Te2TeTe O_Tr2Tr2TrPi C_TrTrTrPi C_TrTrTrPi H_S C_TrTrTrPi H_S C_TrTrTrPi C_TrTrTrPi H_S C_TrTrTrPi H_S C_TrTrTrPi H_S C_TrTrTrPi C_TrTrTrPi O_Te2Te2TeTe H_S O_Tr2TrTrPi2 C_TeTeTeTe H_S H_S H_S
M  BCL BND NonConjugatedSingleBond NonConjugatedSingleBondInRing NonConjugatedSingleBondInRing NonConjugatedSingleBond NonConjugatedSingleBondInRing NonConjugatedSingleBond NonConjugatedSingleBondInRing NonConjugatedSingleBond NonConjugatedSingleBond NonConjugatedSingleBondInRing NonConjugatedSingleBond NonConjugatedSingleBond NonConjugatedSingleBond NonConjugatedSingleBond NonConjugatedSingleBond NonConjugatedSingleBond NonConjugatedSingleBond NonConjugatedSingleBond NonConjugatedSingleBond NonConjugatedSingleBond NonConjugatedSingleBond NonConjugatedSingleBond AmideSingleBond ConjugatedDoubleBond NonConjugatedSingleBond NonConjugatedSingleBond NonConjugatedSingleBond NonConjugatedSingleBond NonConjugatedSingleBond NonConjugatedSingleBond NonConjugatedSingleBond NonConjugatedSingleBond AmideSingleBond ConjugatedDoubleBond NonConjugatedSingleBond NonConjugatedSingleBond NonConjugatedSingleBond NonConjugatedSingleBond NonConjugatedSingleBond NonConjugatedSingleBond NonConjugatedSingleBond NonConjugatedSingleBond NonConjugatedSingleBond NonConjugatedSingleBond NonConjugatedSingleBond NonConjugatedSingleBond NonConjugatedSingleBond NonConjugatedSingleBond NonConjugatedSingleBond NonConjugatedSingleBond NonConjugatedSingleBond ConjugatedSingleBond ConjugatedSingleBond ConjugatedSingleBond ConjugatedSingleBond NonConjugatedSingleBond ConjugatedSingleBond ConjugatedDoubleBond ConjugatedSingleBond ConjugatedDoubleBond NonConjugatedSingleBond NonConjugatedSingleBond ConjugatedSingleBond ConjugatedDoubleBond ConjugatedSingleBond ConjugatedSingleBond AromaticSingleBond AromaticSingleBond AromaticDoubleBond AromaticSingleBond NonConjugatedSingleBond AromaticDoubleBond AromaticSingleBond AromaticSingleBond AromaticDoubleBond AromaticDoubleBond ConjugatedSingleBond NonConjugatedSingleBond AromaticSingleBond NonConjugatedSingleBond NonConjugatedSingleBond ConjugatedSingleBond ConjugatedDoubleBond ConjugatedSingleBond NonConjugatedSingleBond ConjugatedDoubleBond NonConjugatedSingleBond ConjugatedSingleBond AromaticSingleBond AromaticDoubleBond NonConjugatedSingleBond AromaticDoubleBond NonConjugatedSingleBond AromaticSingleBond NonConjugatedSingleBond AromaticSingleBond AromaticDoubleBond ConjugatedSingleBond ConjugatedSingleBond NonConjugatedSingleBond NonConjugatedSingleBond NonConjugatedSingleBond NonConjugatedSingleBond NonConjugatedSingleBond
M  BCL CHI   1   R   4   R   6   R   8   S  44   S  55   S  56   R
M  BCL DBI - - - - - - - - - - E - - -
M  END
> <ConfClashScore>
0 

> <ConfOneFourInteractionScore>
-0.976413 

> <ConfScore>
0.0391652 

> <ConfScorePBest>
0.00819748 

> <ConfTolerance>
2.87061 

$$$$
L02.****
  PyMOL2.5          3D                             0

101104  0  0  0  0  0  0  0  0999 V2000
   15.2521   -4.4731   -5.6082 C   0  0  0  1  0  0  0  0  0  0  0  0
   14.6524   -3.6226   -5.3594 H   0  0  0  1  0  0  0  0  0  0  0  0
   14.7255   -5.1434   -6.7211 O   0  0  0  1  0  0  0  0  0  0  0  0
   15.2096   -5.5167   -4.4826 C   0  0  0  1  0  0  0  0  0  0  0  0
   16.0770   -6.1428   -4.5041 H   0  0  0  1  0  0  0  0  0  0  0  0
   13.9343   -6.2905   -6.3371 C   0  0  0  1  0  0  0  0  0  0  0  0
   14.3624   -7.1899   -6.7279 H   0  0  0  1  0  0  0  0  0  0  0  0
   13.9654   -6.3015   -4.8059 C   0  0  0  1  0  0  0  0  0  0  0  0
   13.0961   -5.8267   -4.4010 H   0  0  0  1  0  0  0  0  0  0  0  0
   15.1054   -4.8902   -3.2033 O   0  0  0  1  0  0  0  0  0  0  0  0
   14.3949   -4.2447   -3.2194 H   0  0  0  1  0  0  0  0  0  0  0  0
   18.7121   -0.5000   -7.6107 C   0  0  0  1  0  0  0  0  0  0  0  0
   19.7514   -0.4636   -7.3586 H   0  0  0  1  0  0  0  0  0  0  0  0
   18.2068   -1.1702   -6.9470 H   0  0  0  1  0  0  0  0  0  0  0  0
   18.5747   -1.0200   -9.0195 C   0  0  0  1  0  0  0  0  0  0  0  0
   17.5364   -1.0721   -9.2729 H   0  0  0  1  0  0  0  0  0  0  0  0
   19.0053   -1.9980   -9.0745 H   0  0  0  1  0  0  0  0  0  0  0  0
   18.1462    0.8310   -7.4493 N   0  0  0  1  0  0  0  0  0  0  0  0
   18.5277    1.5727   -7.9639 H   0  0  0  1  0  0  0  0  0  0  0  0
   17.1283    1.0761   -6.6268 C   0  0  0  1  0  0  0  0  0  0  0  0
   16.4121    0.2299   -6.0932 O   0  0  0  1  0  0  0  0  0  0  0  0
   15.4074    2.9253   -6.6561 C   0  0  0  1  0  0  0  0  0  0  0  0
   15.3300    3.9913   -6.6055 H   0  0  0  1  0  0  0  0  0  0  0  0
   14.7566    2.4851   -5.9299 H   0  0  0  1  0  0  0  0  0  0  0  0
   16.8409    2.5243   -6.3335 C   0  0  0  1  0  0  0  0  0  0  0  0
   17.5032    3.1281   -6.9180 H   0  0  0  1  0  0  0  0  0  0  0  0
   17.0188    2.7030   -5.2936 H   0  0  0  1  0  0  0  0  0  0  0  0
   14.9881    2.4873   -7.9886 N   0  0  0  1  0  0  0  0  0  0  0  0
   15.2355    3.0143   -8.7769 H   0  0  0  1  0  0  0  0  0  0  0  0
   14.0144    0.6128   -7.1970 O   0  0  0  1  0  0  0  0  0  0  0  0
   14.2690    1.3705   -8.1322 C   0  0  0  1  0  0  0  0  0  0  0  0
   11.5755    0.0089   -9.1810 C   0  0  0  1  0  0  0  0  0  0  0  0
   11.8604   -0.7781   -9.8476 H   0  0  0  1  0  0  0  0  0  0  0  0
   10.5128    0.1310   -9.2059 H   0  0  0  1  0  0  0  0  0  0  0  0
   11.9223    2.4079   -8.5721 C   0  0  0  1  0  0  0  0  0  0  0  0
   12.1750    2.0688   -7.5892 H   0  0  0  1  0  0  0  0  0  0  0  0
   10.8756    2.6253   -8.6160 H   0  0  0  1  0  0  0  0  0  0  0  0
   12.4806    3.2922   -8.7985 H   0  0  0  1  0  0  0  0  0  0  0  0
   12.2603    1.3151   -9.5933 C   0  0  0  1  0  0  0  0  0  0  0  0
   11.9328    1.7331  -11.0450 C   0  0  0  1  0  0  0  0  0  0  0  0
   12.4093    2.6657  -11.2643 H   0  0  0  1  0  0  0  0  0  0  0  0
   10.8738    1.8395  -11.1550 H   0  0  0  1  0  0  0  0  0  0  0  0
   12.2885    0.9835  -11.7206 H   0  0  0  1  0  0  0  0  0  0  0  0
   13.7733    1.0813   -9.5382 C   0  0  0  1  0  0  0  0  0  0  0  0
   13.9423    0.0425   -9.7312 H   0  0  0  1  0  0  0  0  0  0  0  0
   14.4521    1.8443  -10.5212 O   0  0  0  1  0  0  0  0  0  0  0  0
   14.2638    2.7764  -10.3898 H   0  0  0  1  0  0  0  0  0  0  0  0
   12.0008   -0.3037   -7.8449 O   0  0  0  1  0  0  0  0  0  0  0  0
   11.2101   -2.6160   -7.7871 O   0  0  0  1  0  0  0  0  0  0  0  0
   12.2046   -4.7360   -6.8308 O   0  0  0  1  0  0  0  0  0  0  0  0
   12.0736   -1.5701   -5.6420 O   0  0  0  0  0  0  0  0  0  0  0  0
    9.8569   -0.7811   -6.6900 O   0  0  0  1  0  0  0  0  0  0  0  0
   11.4348   -4.5466   -9.2384 O   0  0  0  0  0  0  0  0  0  0  0  0
   13.5413   -3.3940   -8.3673 O   0  0  0  1  0  0  0  0  0  0  0  0
   11.2431   -1.2897   -6.8412 P   0  0  0  1  0  0  0  0  0  0  0  0
   12.1573   -3.8474   -8.1608 P   0  0  0  1  0  0  0  0  0  0  0  0
   12.5324   -6.1496   -6.8320 C   0  0  0  1  0  0  0  0  0  0  0  0
   11.8632   -6.6794   -6.1866 H   0  0  0  1  0  0  0  0  0  0  0  0
   12.4555   -6.5407   -7.8250 H   0  0  0  1  0  0  0  0  0  0  0  0
   14.0582   -7.6573   -4.2969 O   0  0  0  1  0  0  0  0  0  0  0  0
   11.4970   -7.7558   -3.6179 O   0  0  0  1  0  0  0  0  0  0  0  0
   12.9026   -9.6958   -3.0043 O   0  5  0  1  0  0  0  0  0  0  0  0
   12.6760   -8.5154   -4.0905 P   0  0  0  1  0  0  0  0  0  0  0  0
   12.3917   -9.2270   -5.5178 O   0  5  0  1  0  0  0  0  0  0  0  0
   16.6279   -4.0429   -5.8650 N   0  0  0  1  0  0  0  0  0  0  0  0
   17.6562   -3.8481   -4.9794 C   0  0  0  1  0  0  0  0  0  0  0  0
   17.1379   -3.7501   -7.0926 C   0  0  0  1  0  0  0  0  0  0  0  0
   16.5697   -3.8053   -7.9619 H   0  0  0  1  0  0  0  0  0  0  0  0
   18.7501   -3.4463   -5.7578 C   0  0  0  1  0  0  0  0  0  0  0  0
   17.6384   -4.0166   -3.6565 N   0  0  0  1  0  0  0  0  0  0  0  0
   18.3940   -3.3948   -7.0965 N   0  0  0  1  0  0  0  0  0  0  0  0
   19.9278   -3.2040   -5.0569 C   0  0  0  1  0  0  0  0  0  0  0  0
   18.8208   -3.7438   -3.1185 C   0  0  0  1  0  0  0  0  0  0  0  0
   18.8802   -3.8495   -2.0856 H   0  0  0  1  0  0  0  0  0  0  0  0
   19.9503   -3.3498   -3.7277 N   0  0  0  1  0  0  0  0  0  0  0  0
   21.0926   -2.8155   -5.6645 N   0  0  0  1  0  0  0  0  0  0  0  0
   21.8988   -2.6656   -5.1278 H   0  0  0  1  0  0  0  0  0  0  0  0
   21.1197   -2.6876   -6.6357 H   0  0  0  1  0  0  0  0  0  0  0  0
   19.4167    0.0632  -10.1979 S   0  0  0  1  0  0  0  0  0  0  0  0
   21.5317   -1.1025   -9.1032 O   0  0  0  1  0  0  0  0  0  0  0  0
   21.1310   -0.3345   -9.9184 C   0  0  0  1  0  0  0  0  0  0  0  0
   22.0008    0.4065  -10.8238 C   0  0  0  1  0  0  0  0  0  0  0  0
   21.5449    1.0567  -11.4953 H   0  0  0  1  0  0  0  0  0  0  0  0
   23.3309    0.3220  -10.8646 C   0  0  0  1  0  0  0  0  0  0  0  0
   23.7869   -0.3283  -10.1932 H   0  0  0  1  0  0  0  0  0  0  0  0
   24.2148    1.0750  -11.7845 C   0  0  0  1  0  0  0  0  0  0  0  0
   23.6670    2.0189  -12.6392 C   0  0  0  1  0  0  0  0  0  0  0  0
   22.6424    2.1972  -12.6289 H   0  0  0  1  0  0  0  0  0  0  0  0
   25.5770    0.8419  -11.7946 C   0  0  0  1  0  0  0  0  0  0  0  0
   25.9886    0.1366  -11.1505 H   0  0  0  1  0  0  0  0  0  0  0  0
   24.4822    2.7230  -13.5051 C   0  0  0  1  0  0  0  0  0  0  0  0
   24.0706    3.4283  -14.1492 H   0  0  0  1  0  0  0  0  0  0  0  0
   26.3948    1.5480  -12.6630 C   0  0  0  1  0  0  0  0  0  0  0  0
   25.8485    2.4891  -13.5151 C   0  0  0  1  0  0  0  0  0  0  0  0
   26.5857    3.2201  -14.3863 O   0  0  0  1  0  0  0  0  0  0  0  0
   26.0018    3.7475  -14.9362 H   0  0  0  1  0  0  0  0  0  0  0  0
   27.7060    1.2316  -12.5868 O   0  0  0  1  0  0  0  0  0  0  0  0
   28.6432    1.8873  -13.4552 C   0  0  0  1  0  0  0  0  0  0  0  0
   28.3313    1.7690  -14.4719 H   0  0  0  1  0  0  0  0  0  0  0  0
   29.6124    1.4526  -13.3268 H   0  0  0  1  0  0  0  0  0  0  0  0
   28.6841    2.9290  -13.2139 H   0  0  0  1  0  0  0  0  0  0  0  0
  1  2  1  0  0  0  0
  1  3  1  0  0  0  0
  1  4  1  0  0  0  0
  1 65  1  0  0  0  0
  3  6  1  0  0  0  0
  4  5  1  0  0  0  0
  4  8  1  0  0  0  0
  4 10  1  0  0  0  0
  6  7  1  0  0  0  0
  6  8  1  0  0  0  0
  6 57  1  0  0  0  0
  8  9  1  0  0  0  0
  8 60  1  0  0  0  0
 10 11  1  0  0  0  0
 12 13  1  0  0  0  0
 12 14  1  0  0  0  0
 12 15  1  0  0  0  0
 12 18  1  0  0  0  0
 15 16  1  0  0  0  0
 15 17  1  0  0  0  0
 15 79  1  0  0  0  0
 18 19  1  0  0  0  0
 18 20  1  0  0  0  0
 20 21  2  0  0  0  0
 20 25  1  0  0  0  0
 22 23  1  0  0  0  0
 22 24  1  0  0  0  0
 22 25  1  0  0  0  0
 22 28  1  0  0  0  0
 25 26  1  0  0  0  0
 25 27  1  0  0  0  0
 28 29  1  0  0  0  0
 28 31  1  0  0  0  0
 30 31  2  0  0  0  0
 31 44  1  0  0  0  0
 32 33  1  0  0  0  0
 32 34  1  0  0  0  0
 32 39  1  0  0  0  0
 32 48  1  0  0  0  0
 35 36  1  0  0  0  0
 35 37  1  0  0  0  0
 35 38  1  0  0  0  0
 35 39  1  0  0  0  0
 39 40  1  0  0  0  0
 39 44  1  0  0  0  0
 40 41  1  0  0  0  0
 40 42  1  0  0  0  0
 40 43  1  0  0  0  0
 44 45  1  0  0  0  0
 44 46  1  0  0  0  0
 46 47  1  0  0  0  0
 48 55  1  0  0  0  0
 49 55  1  0  0  0  0
 49 56  1  0  0  0  0
 50 56  1  0  0  0  0
 50 57  1  0  0  0  0
 51 55  1  0  0  0  0
 52 55  2  0  0  0  0
 53 56  1  0  0  0  0
 54 56  2  0  0  0  0
 57 58  1  0  0  0  0
 57 59  1  0  0  0  0
 60 63  1  0  0  0  0
 61 63  2  0  0  0  0
 62 63  1  0  0  0  0
 63 64  1  0  0  0  0
 65 66  1  0  0  0  0
 65 67  1  0  0  0  0
 66 69  2  0  0  0  0
 66 70  1  0  0  0  0
 67 68  1  0  0  0  0
 67 71  2  0  0  0  0
 69 71  1  0  0  0  0
 69 72  1  0  0  0  0
 70 73  2  0  0  0  0
 72 75  2  0  0  0  0
 72 76  1  0  0  0  0
 73 74  1  0  0  0  0
 73 75  1  0  0  0  0
 76 77  1  0  0  0  0
 76 78  1  0  0  0  0
 79 81  1  0  0  0  0
 80 81  2  0  0  0  0
 81 82  1  0  0  0  0
 82 83  1  0  0  0  0
 82 84  2  0  0  0  0
 84 85  1  0  0  0  0
 84 86  1  0  0  0  0
 86 87  1  0  0  0  0
 86 89  2  0  0  0  0
 87 88  1  0  0  0  0
 87 91  2  0  0  0  0
 89 90  1  0  0  0  0
 89 93  1  0  0  0  0
 91 92  1  0  0  0  0
 91 94  1  0  0  0  0
 93 94  2  0  0  0  0
 93 97  1  0  0  0  0
 94 95  1  0  0  0  0
 95 96  1  0  0  0  0
 97 98  1  0  0  0  0
 98 99  1  0  0  0  0
 98100  1  0  0  0  0
 98101  1  0  0  0  0
M  BCL ATM C_TeTeTeTe H_S O_Te2Te2TeTe C_TeTeTeTe H_S C_TeTeTeTe H_S C_TeTeTeTe H_S O_Te2Te2TeTe H_S C_TeTeTeTe H_S H_S C_TeTeTeTe H_S H_S N_TrTrTrPi2 H_S C_TrTrTrPi O_Tr2Tr2TrPi C_TeTeTeTe H_S H_S C_TeTeTeTe H_S H_S N_TrTrTrPi2 H_S O_Tr2Tr2TrPi C_TrTrTrPi C_TeTeTeTe H_S H_S C_TeTeTeTe H_S H_S H_S C_TeTeTeTe C_TeTeTeTe H_S H_S H_S C_TeTeTeTe H_S O_Te2Te2TeTe H_S O_Tr2TrTrPi2 O_Tr2TrTrPi2 O_Tr2TrTrPi2 O_Te2Te2TeTe O_Tr2Tr2TrPi O_Te2Te2TeTe O_Tr2Tr2TrPi P_TeTeTeTePi P_TeTeTeTePi C_TeTeTeTe H_S H_S O_Tr2TrTrPi2 O_Tr2Tr2TrPi O_Te2Te2Te2Te P_TeTeTeTePi O_Te2Te2Te2Te N_TrTrTrPi2 C_TrTrTrPi C_TrTrTrPi H_S C_TrTrTrPi N_Tr2TrTrPi N_Tr2TrTrPi C_TrTrTrPi C_TrTrTrPi H_S N_Tr2TrTrPi N_TrTrTrPi2 H_S H_S S_Te2Te2TeTe O_Tr2Tr2TrPi C_TrTrTrPi C_TrTrTrPi H_S C_TrTrTrPi H_S C_TrTrTrPi C_TrTrTrPi H_S C_TrTrTrPi H_S C_TrTrTrPi H_S C_TrTrTrPi C_TrTrTrPi O_Te2Te2TeTe H_S O_Tr2TrTrPi2 C_TeTeTeTe H_S H_S H_S
M  BCL BND NonConjugatedSingleBond NonConjugatedSingleBondInRing NonConjugatedSingleBondInRing NonConjugatedSingleBond NonConjugatedSingleBondInRing NonConjugatedSingleBond NonConjugatedSingleBondInRing NonConjugatedSingleBond NonConjugatedSingleBond NonConjugatedSingleBondInRing NonConjugatedSingleBond NonConjugatedSingleBond NonConjugatedSingleBond NonConjugatedSingleBond NonConjugatedSingleBond NonConjugatedSingleBond NonConjugatedSingleBond NonConjugatedSingleBond NonConjugatedSingleBond NonConjugatedSingleBond NonConjugatedSingleBond NonConjugatedSingleBond AmideSingleBond ConjugatedDoubleBond NonConjugatedSingleBond NonConjugatedSingleBond NonConjugatedSingleBond NonConjugatedSingleBond NonConjugatedSingleBond NonConjugatedSingleBond NonConjugatedSingleBond NonConjugatedSingleBond AmideSingleBond ConjugatedDoubleBond NonConjugatedSingleBond NonConjugatedSingleBond NonConjugatedSingleBond NonConjugatedSingleBond NonConjugatedSingleBond NonConjugatedSingleBond NonConjugatedSingleBond NonConjugatedSingleBond NonConjugatedSingleBond NonConjugatedSingleBond NonConjugatedSingleBond NonConjugatedSingleBond NonConjugatedSingleBond NonConjugatedSingleBond NonConjugatedSingleBond NonConjugatedSingleBond NonConjugatedSingleBond ConjugatedSingleBond ConjugatedSingleBond ConjugatedSingleBond ConjugatedSingleBond NonConjugatedSingleBond ConjugatedSingleBond ConjugatedDoubleBond ConjugatedSingleBond ConjugatedDoubleBond NonConjugatedSingleBond NonConjugatedSingleBond ConjugatedSingleBond ConjugatedDoubleBond ConjugatedSingleBond ConjugatedSingleBond AromaticSingleBond AromaticSingleBond AromaticDoubleBond AromaticSingleBond NonConjugatedSingleBond AromaticDoubleBond AromaticSingleBond AromaticSingleBond AromaticDoubleBond AromaticDoubleBond ConjugatedSingleBond NonConjugatedSingleBond AromaticSingleBond NonConjugatedSingleBond NonConjugatedSingleBond ConjugatedSingleBond ConjugatedDoubleBond ConjugatedSingleBond NonConjugatedSingleBond ConjugatedDoubleBond NonConjugatedSingleBond ConjugatedSingleBond AromaticSingleBond AromaticDoubleBond NonConjugatedSingleBond AromaticDoubleBond NonConjugatedSingleBond AromaticSingleBond NonConjugatedSingleBond AromaticSingleBond AromaticDoubleBond ConjugatedSingleBond ConjugatedSingleBond NonConjugatedSingleBond NonConjugatedSingleBond NonConjugatedSingleBond NonConjugatedSingleBond NonConjugatedSingleBond
M  BCL CHI   1   R   4   R   6   R   8   S  44   S  55   S  56   R
M  BCL DBI - - - - - - - - - - E - - -
M  END
> <ConfClashScore>
0 

> <ConfOneFourInteractionScore>
-0.980163 

> <ConfScore>
0.0406375 

> <ConfScorePBest>
0.00809448 

> <ConfTolerance>
3.2866 

$$$$
L02.****
  PyMOL2.5          3D                             0

101104  0  0  0  0  0  0  0  0999 V2000
   15.2401   -4.4826   -5.5939 C   0  0  0  1  0  0  0  0  0  0  0  0
   14.7728   -3.7914   -4.9240 H   0  0  0  1  0  0  0  0  0  0  0  0
   14.5114   -4.5879   -6.7868 O   0  0  0  1  0  0  0  0  0  0  0  0
   15.2200   -5.9031   -5.0112 C   0  0  0  1  0  0  0  0  0  0  0  0
   16.0039   -6.5015   -5.4262 H   0  0  0  1  0  0  0  0  0  0  0  0
   13.6510   -5.7494   -6.7942 C   0  0  0  1  0  0  0  0  0  0  0  0
   13.9265   -6.4158   -7.5846 H   0  0  0  1  0  0  0  0  0  0  0  0
   13.8667   -6.4138   -5.4312 C   0  0  0  1  0  0  0  0  0  0  0  0
   13.1109   -6.1155   -4.7349 H   0  0  0  1  0  0  0  0  0  0  0  0
   15.3419   -5.8777   -3.5883 O   0  0  0  1  0  0  0  0  0  0  0  0
   15.1983   -4.9834   -3.2702 H   0  0  0  1  0  0  0  0  0  0  0  0
   12.2239   -0.6587  -10.2434 C   0  0  0  1  0  0  0  0  0  0  0  0
   11.6835   -1.5717  -10.1047 H   0  0  0  1  0  0  0  0  0  0  0  0
   12.9836   -0.5760   -9.4944 H   0  0  0  1  0  0  0  0  0  0  0  0
   11.2611    0.4889  -10.0648 C   0  0  0  1  0  0  0  0  0  0  0  0
   10.4989    0.4126  -10.8119 H   0  0  0  1  0  0  0  0  0  0  0  0
   11.7974    1.4058  -10.1940 H   0  0  0  1  0  0  0  0  0  0  0  0
   12.8779   -0.7103  -11.5522 N   0  0  0  1  0  0  0  0  0  0  0  0
   12.9770    0.1193  -12.0644 H   0  0  0  1  0  0  0  0  0  0  0  0
   13.3603   -1.8885  -12.0907 C   0  0  0  1  0  0  0  0  0  0  0  0
   13.3303   -2.9615  -11.4895 O   0  0  0  1  0  0  0  0  0  0  0  0
   13.8835   -3.1653  -14.1477 C   0  0  0  1  0  0  0  0  0  0  0  0
   14.1724   -3.0925  -15.1753 H   0  0  0  1  0  0  0  0  0  0  0  0
   12.8899   -3.5572  -14.0829 H   0  0  0  1  0  0  0  0  0  0  0  0
   13.9412   -1.7851  -13.4927 C   0  0  0  1  0  0  0  0  0  0  0  0
   14.9574   -1.4544  -13.4382 H   0  0  0  1  0  0  0  0  0  0  0  0
   13.3693   -1.0885  -14.0693 H   0  0  0  1  0  0  0  0  0  0  0  0
   14.8081   -4.0384  -13.4335 N   0  0  0  1  0  0  0  0  0  0  0  0
   15.5959   -3.6249  -13.0226 H   0  0  0  1  0  0  0  0  0  0  0  0
   13.6687   -5.9601  -13.6724 O   0  0  0  1  0  0  0  0  0  0  0  0
   14.6621   -5.3595  -13.2973 C   0  0  0  1  0  0  0  0  0  0  0  0
   14.4692   -6.2763  -10.5844 C   0  0  0  1  0  0  0  0  0  0  0  0
   14.5037   -6.2529   -9.5152 H   0  0  0  1  0  0  0  0  0  0  0  0
   14.2661   -7.2740  -10.9134 H   0  0  0  1  0  0  0  0  0  0  0  0
   16.9454   -6.6415  -10.4888 C   0  0  0  1  0  0  0  0  0  0  0  0
   16.9321   -6.4825   -9.4307 H   0  0  0  1  0  0  0  0  0  0  0  0
   17.8895   -6.3298  -10.8842 H   0  0  0  1  0  0  0  0  0  0  0  0
   16.7976   -7.6810  -10.6948 H   0  0  0  1  0  0  0  0  0  0  0  0
   15.8235   -5.8265  -11.1430 C   0  0  0  1  0  0  0  0  0  0  0  0
   15.9960   -4.3229  -10.8985 C   0  0  0  1  0  0  0  0  0  0  0  0
   15.1571   -3.7966  -11.3036 H   0  0  0  1  0  0  0  0  0  0  0  0
   16.8926   -3.9850  -11.3746 H   0  0  0  1  0  0  0  0  0  0  0  0
   16.0587   -4.1378   -9.8465 H   0  0  0  1  0  0  0  0  0  0  0  0
   15.8190   -6.0857  -12.6390 C   0  0  0  1  0  0  0  0  0  0  0  0
   16.7377   -5.7312  -13.0575 H   0  0  0  1  0  0  0  0  0  0  0  0
   15.7340   -7.5090  -12.7648 O   0  0  0  1  0  0  0  0  0  0  0  0
   14.8856   -7.8101  -12.4314 H   0  0  0  1  0  0  0  0  0  0  0  0
   13.4156   -5.3986  -11.0464 O   0  0  0  1  0  0  0  0  0  0  0  0
   11.0839   -4.6731  -10.5775 O   0  0  0  1  0  0  0  0  0  0  0  0
   11.9694   -5.3191   -8.3925 O   0  0  0  1  0  0  0  0  0  0  0  0
   11.5783   -5.9772  -12.5684 O   0  0  0  0  0  0  0  0  0  0  0  0
   11.7147   -7.0925  -10.2780 O   0  0  0  1  0  0  0  0  0  0  0  0
   11.0728   -2.9581   -8.6935 O   0  0  0  0  0  0  0  0  0  0  0  0
    9.4827   -4.9898   -8.7105 O   0  0  0  1  0  0  0  0  0  0  0  0
   11.9093   -5.9046  -11.1274 P   0  0  0  1  0  0  0  0  0  0  0  0
   10.7972   -4.3853   -9.0319 P   0  0  0  1  0  0  0  0  0  0  0  0
   12.2072   -5.3385   -6.9612 C   0  0  0  1  0  0  0  0  0  0  0  0
   12.0447   -4.3673   -6.5426 H   0  0  0  1  0  0  0  0  0  0  0  0
   11.5605   -6.0455   -6.4849 H   0  0  0  1  0  0  0  0  0  0  0  0
   13.8706   -7.8613   -5.5520 O   0  0  0  1  0  0  0  0  0  0  0  0
   15.5841   -7.9862   -7.4899 O   0  0  0  1  0  0  0  0  0  0  0  0
   14.6812  -10.1761   -6.5077 O   0  5  0  1  0  0  0  0  0  0  0  0
   15.1357   -8.6440   -6.2422 P   0  0  0  1  0  0  0  0  0  0  0  0
   16.3489   -8.7658   -5.1756 O   0  5  0  1  0  0  0  0  0  0  0  0
   16.6149   -4.0507   -5.8618 N   0  0  0  1  0  0  0  0  0  0  0  0
   17.6485   -3.8498   -4.9837 C   0  0  0  1  0  0  0  0  0  0  0  0
   17.1167   -3.7632   -7.0940 C   0  0  0  1  0  0  0  0  0  0  0  0
   16.5431   -3.8237   -7.9594 H   0  0  0  1  0  0  0  0  0  0  0  0
   18.7367   -3.4499   -5.7710 C   0  0  0  1  0  0  0  0  0  0  0  0
   17.6394   -4.0117   -3.6598 N   0  0  0  1  0  0  0  0  0  0  0  0
   18.3721   -3.4057   -7.1076 N   0  0  0  1  0  0  0  0  0  0  0  0
   19.9184   -3.2020   -5.0788 C   0  0  0  1  0  0  0  0  0  0  0  0
   18.8247   -3.7341   -3.1308 C   0  0  0  1  0  0  0  0  0  0  0  0
   18.8908   -3.8346   -2.0977 H   0  0  0  1  0  0  0  0  0  0  0  0
   19.9496   -3.3412   -3.7490 N   0  0  0  1  0  0  0  0  0  0  0  0
   21.1240   -2.8073   -5.6486 N   0  0  0  1  0  0  0  0  0  0  0  0
   21.9260   -2.7261   -5.0913 H   0  0  0  1  0  0  0  0  0  0  0  0
   21.1716   -2.6103   -6.6074 H   0  0  0  1  0  0  0  0  0  0  0  0
   10.4712    0.5096   -8.4380 S   0  0  0  1  0  0  0  0  0  0  0  0
    8.5052   -0.7107   -9.7327 O   0  0  0  1  0  0  0  0  0  0  0  0
    8.8609   -0.1998   -8.7192 C   0  0  0  1  0  0  0  0  0  0  0  0
    8.0140   -0.0775   -7.5367 C   0  0  0  1  0  0  0  0  0  0  0  0
    8.4493    0.3736   -6.7069 H   0  0  0  1  0  0  0  0  0  0  0  0
    6.7502   -0.4743   -7.3925 C   0  0  0  1  0  0  0  0  0  0  0  0
    6.3377   -0.9222   -8.2357 H   0  0  0  1  0  0  0  0  0  0  0  0
    5.8357   -0.3839   -6.2324 C   0  0  0  1  0  0  0  0  0  0  0  0
    4.9308   -1.3914   -5.9366 C   0  0  0  1  0  0  0  0  0  0  0  0
    4.8848   -2.2410   -6.5347 H   0  0  0  1  0  0  0  0  0  0  0  0
    5.9004    0.7427   -5.4344 C   0  0  0  1  0  0  0  0  0  0  0  0
    6.5821    1.4968   -5.6539 H   0  0  0  1  0  0  0  0  0  0  0  0
    4.0896   -1.2671   -4.8470 C   0  0  0  1  0  0  0  0  0  0  0  0
    3.4079   -2.0213   -4.6275 H   0  0  0  1  0  0  0  0  0  0  0  0
    5.0569    0.8676   -4.3415 C   0  0  0  1  0  0  0  0  0  0  0  0
    4.1547   -0.1371   -4.0467 C   0  0  0  1  0  0  0  0  0  0  0  0
    3.3036   -0.0865   -2.9932 O   0  0  0  1  0  0  0  0  0  0  0  0
    2.3994   -0.0473   -3.3133 H   0  0  0  1  0  0  0  0  0  0  0  0
    5.0255    1.9232   -3.4938 O   0  0  0  1  0  0  0  0  0  0  0  0
    6.0592    2.9100   -3.6362 C   0  0  0  1  0  0  0  0  0  0  0  0
    6.1290    3.2088   -4.6612 H   0  0  0  1  0  0  0  0  0  0  0  0
    6.9938    2.4952   -3.3213 H   0  0  0  1  0  0  0  0  0  0  0  0
    5.8247    3.7614   -3.0320 H   0  0  0  1  0  0  0  0  0  0  0  0
  1  2  1  0  0  0  0
  1  3  1  0  0  0  0
  1  4  1  0  0  0  0
  1 65  1  0  0  0  0
  3  6  1  0  0  0  0
  4  5  1  0  0  0  0
  4  8  1  0  0  0  0
  4 10  1  0  0  0  0
  6  7  1  0  0  0  0
  6  8  1  0  0  0  0
  6 57  1  0  0  0  0
  8  9  1  0  0  0  0
  8 60  1  0  0  0  0
 10 11  1  0  0  0  0
 12 13  1  0  0  0  0
 12 14  1  0  0  0  0
 12 15  1  0  0  0  0
 12 18  1  0  0  0  0
 15 16  1  0  0  0  0
 15 17  1  0  0  0  0
 15 79  1  0  0  0  0
 18 19  1  0  0  0  0
 18 20  1  0  0  0  0
 20 21  2  0  0  0  0
 20 25  1  0  0  0  0
 22 23  1  0  0  0  0
 22 24  1  0  0  0  0
 22 25  1  0  0  0  0
 22 28  1  0  0  0  0
 25 26  1  0  0  0  0
 25 27  1  0  0  0  0
 28 29  1  0  0  0  0
 28 31  1  0  0  0  0
 30 31  2  0  0  0  0
 31 44  1  0  0  0  0
 32 33  1  0  0  0  0
 32 34  1  0  0  0  0
 32 39  1  0  0  0  0
 32 48  1  0  0  0  0
 35 36  1  0  0  0  0
 35 37  1  0  0  0  0
 35 38  1  0  0  0  0
 35 39  1  0  0  0  0
 39 40  1  0  0  0  0
 39 44  1  0  0  0  0
 40 41  1  0  0  0  0
 40 42  1  0  0  0  0
 40 43  1  0  0  0  0
 44 45  1  0  0  0  0
 44 46  1  0  0  0  0
 46 47  1  0  0  0  0
 48 55  1  0  0  0  0
 49 55  1  0  0  0  0
 49 56  1  0  0  0  0
 50 56  1  0  0  0  0
 50 57  1  0  0  0  0
 51 55  1  0  0  0  0
 52 55  2  0  0  0  0
 53 56  1  0  0  0  0
 54 56  2  0  0  0  0
 57 58  1  0  0  0  0
 57 59  1  0  0  0  0
 60 63  1  0  0  0  0
 61 63  2  0  0  0  0
 62 63  1  0  0  0  0
 63 64  1  0  0  0  0
 65 66  1  0  0  0  0
 65 67  1  0  0  0  0
 66 69  2  0  0  0  0
 66 70  1  0  0  0  0
 67 68  1  0  0  0  0
 67 71  2  0  0  0  0
 69 71  1  0  0  0  0
 69 72  1  0  0  0  0
 70 73  2  0  0  0  0
 72 75  2  0  0  0  0
 72 76  1  0  0  0  0
 73 74  1  0  0  0  0
 73 75  1  0  0  0  0
 76 77  1  0  0  0  0
 76 78  1  0  0  0  0
 79 81  1  0  0  0  0
 80 81  2  0  0  0  0
 81 82  1  0  0  0  0
 82 83  1  0  0  0  0
 82 84  2  0  0  0  0
 84 85  1  0  0  0  0
 84 86  1  0  0  0  0
 86 87  1  0  0  0  0
 86 89  2  0  0  0  0
 87 88  1  0  0  0  0
 87 91  2  0  0  0  0
 89 90  1  0  0  0  0
 89 93  1  0  0  0  0
 91 92  1  0  0  0  0
 91 94  1  0  0  0  0
 93 94  2  0  0  0  0
 93 97  1  0  0  0  0
 94 95  1  0  0  0  0
 95 96  1  0  0  0  0
 97 98  1  0  0  0  0
 98 99  1  0  0  0  0
 98100  1  0  0  0  0
 98101  1  0  0  0  0
M  BCL ATM C_TeTeTeTe H_S O_Te2Te2TeTe C_TeTeTeTe H_S C_TeTeTeTe H_S C_TeTeTeTe H_S O_Te2Te2TeTe H_S C_TeTeTeTe H_S H_S C_TeTeTeTe H_S H_S N_TrTrTrPi2 H_S C_TrTrTrPi O_Tr2Tr2TrPi C_TeTeTeTe H_S H_S C_TeTeTeTe H_S H_S N_TrTrTrPi2 H_S O_Tr2Tr2TrPi C_TrTrTrPi C_TeTeTeTe H_S H_S C_TeTeTeTe H_S H_S H_S C_TeTeTeTe C_TeTeTeTe H_S H_S H_S C_TeTeTeTe H_S O_Te2Te2TeTe H_S O_Tr2TrTrPi2 O_Tr2TrTrPi2 O_Tr2TrTrPi2 O_Te2Te2TeTe O_Tr2Tr2TrPi O_Te2Te2TeTe O_Tr2Tr2TrPi P_TeTeTeTePi P_TeTeTeTePi C_TeTeTeTe H_S H_S O_Tr2TrTrPi2 O_Tr2Tr2TrPi O_Te2Te2Te2Te P_TeTeTeTePi O_Te2Te2Te2Te N_TrTrTrPi2 C_TrTrTrPi C_TrTrTrPi H_S C_TrTrTrPi N_Tr2TrTrPi N_Tr2TrTrPi C_TrTrTrPi C_TrTrTrPi H_S N_Tr2TrTrPi N_TrTrTrPi2 H_S H_S S_Te2Te2TeTe O_Tr2Tr2TrPi C_TrTrTrPi C_TrTrTrPi H_S C_TrTrTrPi H_S C_TrTrTrPi C_TrTrTrPi H_S C_TrTrTrPi H_S C_TrTrTrPi H_S C_TrTrTrPi C_TrTrTrPi O_Te2Te2TeTe H_S O_Tr2TrTrPi2 C_TeTeTeTe H_S H_S H_S
M  BCL BND NonConjugatedSingleBond NonConjugatedSingleBondInRing NonConjugatedSingleBondInRing NonConjugatedSingleBond NonConjugatedSingleBondInRing NonConjugatedSingleBond NonConjugatedSingleBondInRing NonConjugatedSingleBond NonConjugatedSingleBond NonConjugatedSingleBondInRing NonConjugatedSingleBond NonConjugatedSingleBond NonConjugatedSingleBond NonConjugatedSingleBond NonConjugatedSingleBond NonConjugatedSingleBond NonConjugatedSingleBond NonConjugatedSingleBond NonConjugatedSingleBond NonConjugatedSingleBond NonConjugatedSingleBond NonConjugatedSingleBond AmideSingleBond ConjugatedDoubleBond NonConjugatedSingleBond NonConjugatedSingleBond NonConjugatedSingleBond NonConjugatedSingleBond NonConjugatedSingleBond NonConjugatedSingleBond NonConjugatedSingleBond NonConjugatedSingleBond AmideSingleBond ConjugatedDoubleBond NonConjugatedSingleBond NonConjugatedSingleBond NonConjugatedSingleBond NonConjugatedSingleBond NonConjugatedSingleBond NonConjugatedSingleBond NonConjugatedSingleBond NonConjugatedSingleBond NonConjugatedSingleBond NonConjugatedSingleBond NonConjugatedSingleBond NonConjugatedSingleBond NonConjugatedSingleBond NonConjugatedSingleBond NonConjugatedSingleBond NonConjugatedSingleBond NonConjugatedSingleBond ConjugatedSingleBond ConjugatedSingleBond ConjugatedSingleBond ConjugatedSingleBond NonConjugatedSingleBond ConjugatedSingleBond ConjugatedDoubleBond ConjugatedSingleBond ConjugatedDoubleBond NonConjugatedSingleBond NonConjugatedSingleBond ConjugatedSingleBond ConjugatedDoubleBond ConjugatedSingleBond ConjugatedSingleBond AromaticSingleBond AromaticSingleBond AromaticDoubleBond AromaticSingleBond NonConjugatedSingleBond AromaticDoubleBond AromaticSingleBond AromaticSingleBond AromaticDoubleBond AromaticDoubleBond ConjugatedSingleBond NonConjugatedSingleBond AromaticSingleBond NonConjugatedSingleBond NonConjugatedSingleBond ConjugatedSingleBond ConjugatedDoubleBond ConjugatedSingleBond NonConjugatedSingleBond ConjugatedDoubleBond NonConjugatedSingleBond ConjugatedSingleBond AromaticSingleBond AromaticDoubleBond NonConjugatedSingleBond AromaticDoubleBond NonConjugatedSingleBond AromaticSingleBond NonConjugatedSingleBond AromaticSingleBond AromaticDoubleBond ConjugatedSingleBond ConjugatedSingleBond NonConjugatedSingleBond NonConjugatedSingleBond NonConjugatedSingleBond NonConjugatedSingleBond NonConjugatedSingleBond
M  BCL CHI   1   R   4   R   6   R   8   S  44   S  55   S  56   R
M  BCL DBI - - - - - - - - - - E - - -
M  END
> <ConfClashScore>
0 

> <ConfOneFourInteractionScore>
-0.963379 

> <ConfScore>
0.044199 

> <ConfScorePBest>
0.00799148 

> <ConfTolerance>
2.89375 

$$$$
L02.****
  PyMOL2.5          3D                             0

101104  0  0  0  0  0  0  0  0999 V2000
   15.2605   -4.4720   -5.6216 C   0  0  0  1  0  0  0  0  0  0  0  0
   14.8028   -3.8149   -4.9119 H   0  0  0  1  0  0  0  0  0  0  0  0
   14.5215   -4.4606   -6.8426 O   0  0  0  1  0  0  0  0  0  0  0  0
   15.2493   -5.8697   -5.1013 C   0  0  0  1  0  0  0  0  0  0  0  0
   16.1685   -6.1050   -4.6066 H   0  0  0  1  0  0  0  0  0  0  0  0
   14.2197   -5.8175   -7.2111 C   0  0  0  1  0  0  0  0  0  0  0  0
   14.4437   -5.9802   -8.2447 H   0  0  0  1  0  0  0  0  0  0  0  0
   15.0838   -6.6819   -6.3508 C   0  0  0  1  0  0  0  0  0  0  0  0
   14.6040   -7.6149   -6.1406 H   0  0  0  1  0  0  0  0  0  0  0  0
   14.1689   -6.0748   -4.2123 O   0  0  0  1  0  0  0  0  0  0  0  0
   13.9277   -5.2405   -3.8032 H   0  0  0  1  0  0  0  0  0  0  0  0
   10.3042   -0.7545  -15.5960 C   0  0  0  1  0  0  0  0  0  0  0  0
   10.3567    0.0347  -16.3166 H   0  0  0  1  0  0  0  0  0  0  0  0
   11.1845   -1.3590  -15.6636 H   0  0  0  1  0  0  0  0  0  0  0  0
    9.1096   -1.6219  -15.9327 C   0  0  0  1  0  0  0  0  0  0  0  0
    8.2601   -0.9881  -16.0799 H   0  0  0  1  0  0  0  0  0  0  0  0
    8.9254   -2.2809  -15.1102 H   0  0  0  1  0  0  0  0  0  0  0  0
   10.2660   -0.1523  -14.2621 N   0  0  0  1  0  0  0  0  0  0  0  0
    9.8398    0.7204  -14.1317 H   0  0  0  1  0  0  0  0  0  0  0  0
   10.8164   -0.7963  -13.2121 C   0  0  0  1  0  0  0  0  0  0  0  0
   11.3472   -1.8978  -13.3492 O   0  0  0  1  0  0  0  0  0  0  0  0
   11.1028   -1.0681  -10.7206 C   0  0  0  1  0  0  0  0  0  0  0  0
   12.0310   -1.5534  -10.9394 H   0  0  0  1  0  0  0  0  0  0  0  0
   10.3276   -1.8010  -10.6369 H   0  0  0  1  0  0  0  0  0  0  0  0
   10.7629   -0.1282  -11.8657 C   0  0  0  1  0  0  0  0  0  0  0  0
    9.7741    0.2512  -11.7129 H   0  0  0  1  0  0  0  0  0  0  0  0
   11.4613    0.6824  -11.8598 H   0  0  0  1  0  0  0  0  0  0  0  0
   11.2288   -0.3702   -9.4398 N   0  0  0  1  0  0  0  0  0  0  0  0
   11.0574    0.5941   -9.4078 H   0  0  0  1  0  0  0  0  0  0  0  0
   11.6466   -2.2158   -8.2327 O   0  0  0  1  0  0  0  0  0  0  0  0
   11.5688   -1.0010   -8.3154 C   0  0  0  1  0  0  0  0  0  0  0  0
   11.5383   -1.9832   -5.5045 C   0  0  0  1  0  0  0  0  0  0  0  0
   11.2349   -2.6157   -6.3125 H   0  0  0  1  0  0  0  0  0  0  0  0
   10.6792   -1.5024   -5.0854 H   0  0  0  1  0  0  0  0  0  0  0  0
   13.7615   -1.6219   -6.6176 C   0  0  0  1  0  0  0  0  0  0  0  0
   13.6115   -2.6812   -6.6038 H   0  0  0  1  0  0  0  0  0  0  0  0
   14.6307   -1.3774   -6.0434 H   0  0  0  1  0  0  0  0  0  0  0  0
   13.8966   -1.2942   -7.6272 H   0  0  0  1  0  0  0  0  0  0  0  0
   12.5373   -0.9236   -6.0135 C   0  0  0  1  0  0  0  0  0  0  0  0
   13.0373    0.0726   -4.9423 C   0  0  0  1  0  0  0  0  0  0  0  0
   13.9544    0.5171   -5.2684 H   0  0  0  1  0  0  0  0  0  0  0  0
   13.2007   -0.4468   -4.0212 H   0  0  0  1  0  0  0  0  0  0  0  0
   12.3030    0.8369   -4.7960 H   0  0  0  1  0  0  0  0  0  0  0  0
   11.8590   -0.1109   -7.1227 C   0  0  0  1  0  0  0  0  0  0  0  0
   10.9289    0.2584   -6.7438 H   0  0  0  1  0  0  0  0  0  0  0  0
   12.6974    0.9821   -7.4779 O   0  0  0  1  0  0  0  0  0  0  0  0
   13.2593    0.7289   -8.2140 H   0  0  0  1  0  0  0  0  0  0  0  0
   12.2084   -2.7672   -4.4897 O   0  0  0  1  0  0  0  0  0  0  0  0
   11.0043   -4.8766   -3.8257 O   0  0  0  1  0  0  0  0  0  0  0  0
   12.4078   -5.3689   -5.7657 O   0  0  0  1  0  0  0  0  0  0  0  0
   12.3221   -3.6871   -2.0492 O   0  0  0  0  0  0  0  0  0  0  0  0
   10.2263   -2.7040   -2.9184 O   0  0  0  1  0  0  0  0  0  0  0  0
   10.3975   -6.8491   -5.3099 O   0  0  0  0  0  0  0  0  0  0  0  0
   10.0873   -4.4122   -6.0844 O   0  0  0  1  0  0  0  0  0  0  0  0
   11.4392   -3.4333   -3.2393 P   0  0  0  1  0  0  0  0  0  0  0  0
   10.8432   -5.4322   -5.3154 P   0  0  0  1  0  0  0  0  0  0  0  0
   12.7598   -6.1177   -6.9578 C   0  0  0  1  0  0  0  0  0  0  0  0
   12.6168   -7.1657   -6.7961 H   0  0  0  1  0  0  0  0  0  0  0  0
   12.1639   -5.7998   -7.7878 H   0  0  0  1  0  0  0  0  0  0  0  0
   16.3451   -6.9245   -6.9735 O   0  0  0  1  0  0  0  0  0  0  0  0
   15.8085   -8.5752   -8.8538 O   0  0  0  1  0  0  0  0  0  0  0  0
   17.2125   -9.4076   -6.7823 O   0  5  0  1  0  0  0  0  0  0  0  0
   16.8247   -8.2366   -7.8325 P   0  0  0  1  0  0  0  0  0  0  0  0
   18.1889   -7.6868   -8.5114 O   0  5  0  1  0  0  0  0  0  0  0  0
   16.6398   -4.0416   -5.8682 N   0  0  0  1  0  0  0  0  0  0  0  0
   17.6615   -3.8472   -4.9749 C   0  0  0  1  0  0  0  0  0  0  0  0
   17.1591   -3.7487   -7.0918 C   0  0  0  1  0  0  0  0  0  0  0  0
   16.5974   -3.8037   -7.9654 H   0  0  0  1  0  0  0  0  0  0  0  0
   18.7612   -3.4455   -5.7449 C   0  0  0  1  0  0  0  0  0  0  0  0
   17.6337   -4.0158   -3.6521 N   0  0  0  1  0  0  0  0  0  0  0  0
   18.4152   -3.3938   -7.0863 N   0  0  0  1  0  0  0  0  0  0  0  0
   19.9337   -3.2035   -5.0352 C   0  0  0  1  0  0  0  0  0  0  0  0
   18.8121   -3.7433   -3.1053 C   0  0  0  1  0  0  0  0  0  0  0  0
   18.8637   -3.8492   -2.0720 H   0  0  0  1  0  0  0  0  0  0  0  0
   19.9462   -3.3495   -3.7059 N   0  0  0  1  0  0  0  0  0  0  0  0
   21.0717   -2.8185   -5.6822 N   0  0  0  1  0  0  0  0  0  0  0  0
   21.9042   -2.6977   -5.1794 H   0  0  0  1  0  0  0  0  0  0  0  0
   21.0565   -2.6627   -6.6496 H   0  0  0  1  0  0  0  0  0  0  0  0
    9.3495   -2.6175  -17.4247 S   0  0  0  1  0  0  0  0  0  0  0  0
   10.4250   -4.2058  -15.6155 O   0  0  0  1  0  0  0  0  0  0  0  0
   10.1113   -4.0892  -16.7776 C   0  0  0  1  0  0  0  0  0  0  0  0
   10.3216   -5.1365  -17.7723 C   0  0  0  1  0  0  0  0  0  0  0  0
   10.0275   -4.9104  -18.7439 H   0  0  0  1  0  0  0  0  0  0  0  0
   10.8450   -6.3475  -17.5853 C   0  0  0  1  0  0  0  0  0  0  0  0
   11.1450   -6.5919  -16.6199 H   0  0  0  1  0  0  0  0  0  0  0  0
   11.0362   -7.3755  -18.6346 C   0  0  0  1  0  0  0  0  0  0  0  0
   11.5009   -8.6332  -18.2829 C   0  0  0  1  0  0  0  0  0  0  0  0
   11.7089   -8.8511  -17.2875 H   0  0  0  1  0  0  0  0  0  0  0  0
   10.7548   -7.0877  -19.9567 C   0  0  0  1  0  0  0  0  0  0  0  0
   10.4023   -6.1454  -20.2201 H   0  0  0  1  0  0  0  0  0  0  0  0
   11.6878   -9.5978  -19.2550 C   0  0  0  1  0  0  0  0  0  0  0  0
   12.0403  -10.5401  -18.9916 H   0  0  0  1  0  0  0  0  0  0  0  0
   10.9422   -8.0550  -20.9319 C   0  0  0  1  0  0  0  0  0  0  0  0
   11.4055   -9.3090  -20.5811 C   0  0  0  1  0  0  0  0  0  0  0  0
   11.5678  -10.2229  -21.5686 O   0  0  0  1  0  0  0  0  0  0  0  0
   10.7104  -10.5639  -21.8337 H   0  0  0  1  0  0  0  0  0  0  0  0
   10.6385   -7.6566  -22.1900 O   0  0  0  1  0  0  0  0  0  0  0  0
   10.7145   -6.2499  -22.4693 C   0  0  0  1  0  0  0  0  0  0  0  0
   10.5910   -6.0871  -23.5196 H   0  0  0  1  0  0  0  0  0  0  0  0
   11.6684   -5.8763  -22.1604 H   0  0  0  1  0  0  0  0  0  0  0  0
    9.9407   -5.7384  -21.9359 H   0  0  0  1  0  0  0  0  0  0  0  0
  1  2  1  0  0  0  0
  1  3  1  0  0  0  0
  1  4  1  0  0  0  0
  1 65  1  0  0  0  0
  3  6  1  0  0  0  0
  4  5  1  0  0  0  0
  4  8  1  0  0  0  0
  4 10  1  0  0  0  0
  6  7  1  0  0  0  0
  6  8  1  0  0  0  0
  6 57  1  0  0  0  0
  8  9  1  0  0  0  0
  8 60  1  0  0  0  0
 10 11  1  0  0  0  0
 12 13  1  0  0  0  0
 12 14  1  0  0  0  0
 12 15  1  0  0  0  0
 12 18  1  0  0  0  0
 15 16  1  0  0  0  0
 15 17  1  0  0  0  0
 15 79  1  0  0  0  0
 18 19  1  0  0  0  0
 18 20  1  0  0  0  0
 20 21  2  0  0  0  0
 20 25  1  0  0  0  0
 22 23  1  0  0  0  0
 22 24  1  0  0  0  0
 22 25  1  0  0  0  0
 22 28  1  0  0  0  0
 25 26  1  0  0  0  0
 25 27  1  0  0  0  0
 28 29  1  0  0  0  0
 28 31  1  0  0  0  0
 30 31  2  0  0  0  0
 31 44  1  0  0  0  0
 32 33  1  0  0  0  0
 32 34  1  0  0  0  0
 32 39  1  0  0  0  0
 32 48  1  0  0  0  0
 35 36  1  0  0  0  0
 35 37  1  0  0  0  0
 35 38  1  0  0  0  0
 35 39  1  0  0  0  0
 39 40  1  0  0  0  0
 39 44  1  0  0  0  0
 40 41  1  0  0  0  0
 40 42  1  0  0  0  0
 40 43  1  0  0  0  0
 44 45  1  0  0  0  0
 44 46  1  0  0  0  0
 46 47  1  0  0  0  0
 48 55  1  0  0  0  0
 49 55  1  0  0  0  0
 49 56  1  0  0  0  0
 50 56  1  0  0  0  0
 50 57  1  0  0  0  0
 51 55  1  0  0  0  0
 52 55  2  0  0  0  0
 53 56  1  0  0  0  0
 54 56  2  0  0  0  0
 57 58  1  0  0  0  0
 57 59  1  0  0  0  0
 60 63  1  0  0  0  0
 61 63  2  0  0  0  0
 62 63  1  0  0  0  0
 63 64  1  0  0  0  0
 65 66  1  0  0  0  0
 65 67  1  0  0  0  0
 66 69  2  0  0  0  0
 66 70  1  0  0  0  0
 67 68  1  0  0  0  0
 67 71  2  0  0  0  0
 69 71  1  0  0  0  0
 69 72  1  0  0  0  0
 70 73  2  0  0  0  0
 72 75  2  0  0  0  0
 72 76  1  0  0  0  0
 73 74  1  0  0  0  0
 73 75  1  0  0  0  0
 76 77  1  0  0  0  0
 76 78  1  0  0  0  0
 79 81  1  0  0  0  0
 80 81  2  0  0  0  0
 81 82  1  0  0  0  0
 82 83  1  0  0  0  0
 82 84  2  0  0  0  0
 84 85  1  0  0  0  0
 84 86  1  0  0  0  0
 86 87  1  0  0  0  0
 86 89  2  0  0  0  0
 87 88  1  0  0  0  0
 87 91  2  0  0  0  0
 89 90  1  0  0  0  0
 89 93  1  0  0  0  0
 91 92  1  0  0  0  0
 91 94  1  0  0  0  0
 93 94  2  0  0  0  0
 93 97  1  0  0  0  0
 94 95  1  0  0  0  0
 95 96  1  0  0  0  0
 97 98  1  0  0  0  0
 98 99  1  0  0  0  0
 98100  1  0  0  0  0
 98101  1  0  0  0  0
M  BCL ATM C_TeTeTeTe H_S O_Te2Te2TeTe C_TeTeTeTe H_S C_TeTeTeTe H_S C_TeTeTeTe H_S O_Te2Te2TeTe H_S C_TeTeTeTe H_S H_S C_TeTeTeTe H_S H_S N_TrTrTrPi2 H_S C_TrTrTrPi O_Tr2Tr2TrPi C_TeTeTeTe H_S H_S C_TeTeTeTe H_S H_S N_TrTrTrPi2 H_S O_Tr2Tr2TrPi C_TrTrTrPi C_TeTeTeTe H_S H_S C_TeTeTeTe H_S H_S H_S C_TeTeTeTe C_TeTeTeTe H_S H_S H_S C_TeTeTeTe H_S O_Te2Te2TeTe H_S O_Tr2TrTrPi2 O_Tr2TrTrPi2 O_Tr2TrTrPi2 O_Te2Te2TeTe O_Tr2Tr2TrPi O_Te2Te2TeTe O_Tr2Tr2TrPi P_TeTeTeTePi P_TeTeTeTePi C_TeTeTeTe H_S H_S O_Tr2TrTrPi2 O_Tr2Tr2TrPi O_Te2Te2Te2Te P_TeTeTeTePi O_Te2Te2Te2Te N_TrTrTrPi2 C_TrTrTrPi C_TrTrTrPi H_S C_TrTrTrPi N_Tr2TrTrPi N_Tr2TrTrPi C_TrTrTrPi C_TrTrTrPi H_S N_Tr2TrTrPi N_TrTrTrPi2 H_S H_S S_Te2Te2TeTe O_Tr2Tr2TrPi C_TrTrTrPi C_TrTrTrPi H_S C_TrTrTrPi H_S C_TrTrTrPi C_TrTrTrPi H_S C_TrTrTrPi H_S C_TrTrTrPi H_S C_TrTrTrPi C_TrTrTrPi O_Te2Te2TeTe H_S O_Tr2TrTrPi2 C_TeTeTeTe H_S H_S H_S
M  BCL BND NonConjugatedSingleBond NonConjugatedSingleBondInRing NonConjugatedSingleBondInRing NonConjugatedSingleBond NonConjugatedSingleBondInRing NonConjugatedSingleBond NonConjugatedSingleBondInRing NonConjugatedSingleBond NonConjugatedSingleBond NonConjugatedSingleBondInRing NonConjugatedSingleBond NonConjugatedSingleBond NonConjugatedSingleBond NonConjugatedSingleBond NonConjugatedSingleBond NonConjugatedSingleBond NonConjugatedSingleBond NonConjugatedSingleBond NonConjugatedSingleBond NonConjugatedSingleBond NonConjugatedSingleBond NonConjugatedSingleBond AmideSingleBond ConjugatedDoubleBond NonConjugatedSingleBond NonConjugatedSingleBond NonConjugatedSingleBond NonConjugatedSingleBond NonConjugatedSingleBond NonConjugatedSingleBond NonConjugatedSingleBond NonConjugatedSingleBond AmideSingleBond ConjugatedDoubleBond NonConjugatedSingleBond NonConjugatedSingleBond NonConjugatedSingleBond NonConjugatedSingleBond NonConjugatedSingleBond NonConjugatedSingleBond NonConjugatedSingleBond NonConjugatedSingleBond NonConjugatedSingleBond NonConjugatedSingleBond NonConjugatedSingleBond NonConjugatedSingleBond NonConjugatedSingleBond NonConjugatedSingleBond NonConjugatedSingleBond NonConjugatedSingleBond NonConjugatedSingleBond ConjugatedSingleBond ConjugatedSingleBond ConjugatedSingleBond ConjugatedSingleBond NonConjugatedSingleBond ConjugatedSingleBond ConjugatedDoubleBond ConjugatedSingleBond ConjugatedDoubleBond NonConjugatedSingleBond NonConjugatedSingleBond ConjugatedSingleBond ConjugatedDoubleBond ConjugatedSingleBond ConjugatedSingleBond AromaticSingleBond AromaticSingleBond AromaticDoubleBond AromaticSingleBond NonConjugatedSingleBond AromaticDoubleBond AromaticSingleBond AromaticSingleBond AromaticDoubleBond AromaticDoubleBond ConjugatedSingleBond NonConjugatedSingleBond AromaticSingleBond NonConjugatedSingleBond NonConjugatedSingleBond ConjugatedSingleBond ConjugatedDoubleBond ConjugatedSingleBond NonConjugatedSingleBond ConjugatedDoubleBond NonConjugatedSingleBond ConjugatedSingleBond AromaticSingleBond AromaticDoubleBond NonConjugatedSingleBond AromaticDoubleBond NonConjugatedSingleBond AromaticSingleBond NonConjugatedSingleBond AromaticSingleBond AromaticDoubleBond ConjugatedSingleBond ConjugatedSingleBond NonConjugatedSingleBond NonConjugatedSingleBond NonConjugatedSingleBond NonConjugatedSingleBond NonConjugatedSingleBond
M  BCL CHI   1   R   4   R   6   R   8   S  44   S  55   S  56   R
M  BCL DBI - - - - - - - - - - E - - -
M  END
> <ConfClashScore>
0 

> <ConfOneFourInteractionScore>
-0.980807 

> <ConfScore>
0.0446533 

> <ConfScorePBest>
0.00788848 

> <ConfTolerance>
3.36804 

$$$$
L02.****
  PyMOL2.5          3D                             0

101104  0  0  0  0  0  0  0  0999 V2000
   15.2495   -4.4454   -5.5528 C   0  0  0  1  0  0  0  0  0  0  0  0
   14.7936   -3.6661   -4.9786 H   0  0  0  1  0  0  0  0  0  0  0  0
   14.4956   -4.6930   -6.7609 O   0  0  0  1  0  0  0  0  0  0  0  0
   15.2162   -5.7696   -4.7839 C   0  0  0  1  0  0  0  0  0  0  0  0
   16.0995   -6.3439   -4.9702 H   0  0  0  1  0  0  0  0  0  0  0  0
   13.9892   -5.9994   -6.8047 C   0  0  0  1  0  0  0  0  0  0  0  0
   14.6152   -6.6287   -7.4022 H   0  0  0  1  0  0  0  0  0  0  0  0
   13.9970   -6.4579   -5.3393 C   0  0  0  1  0  0  0  0  0  0  0  0
   13.1102   -6.1412   -4.8312 H   0  0  0  1  0  0  0  0  0  0  0  0
   15.0818   -5.5435   -3.3799 O   0  0  0  1  0  0  0  0  0  0  0  0
   15.8929   -5.1603   -3.0380 H   0  0  0  1  0  0  0  0  0  0  0  0
    4.8352   -5.1044  -13.8876 C   0  0  0  1  0  0  0  0  0  0  0  0
    4.6103   -6.1372  -14.0541 H   0  0  0  1  0  0  0  0  0  0  0  0
    4.0399   -4.4995  -14.2704 H   0  0  0  1  0  0  0  0  0  0  0  0
    6.1037   -4.7603  -14.6281 C   0  0  0  1  0  0  0  0  0  0  0  0
    6.4378   -3.7923  -14.3178 H   0  0  0  1  0  0  0  0  0  0  0  0
    5.9027   -4.7489  -15.6790 H   0  0  0  1  0  0  0  0  0  0  0  0
    4.9467   -4.8751  -12.4460 N   0  0  0  1  0  0  0  0  0  0  0  0
    5.1768   -5.6290  -11.8636 H   0  0  0  1  0  0  0  0  0  0  0  0
    4.7457   -3.6739  -11.8967 C   0  0  0  1  0  0  0  0  0  0  0  0
    4.3894   -2.6915  -12.5460 O   0  0  0  1  0  0  0  0  0  0  0  0
    5.6849   -2.2992   -9.9966 C   0  0  0  1  0  0  0  0  0  0  0  0
    5.6446   -2.2162   -8.9306 H   0  0  0  1  0  0  0  0  0  0  0  0
    5.1725   -1.4705  -10.4390 H   0  0  0  1  0  0  0  0  0  0  0  0
    4.9831   -3.5853  -10.4129 C   0  0  0  1  0  0  0  0  0  0  0  0
    5.5887   -4.4155  -10.1147 H   0  0  0  1  0  0  0  0  0  0  0  0
    4.0382   -3.6348   -9.9132 H   0  0  0  1  0  0  0  0  0  0  0  0
    7.0866   -2.2629  -10.4174 N   0  0  0  1  0  0  0  0  0  0  0  0
    7.7740   -2.5925   -9.8016 H   0  0  0  1  0  0  0  0  0  0  0  0
    6.6612   -1.3925  -12.4543 O   0  0  0  1  0  0  0  0  0  0  0  0
    7.4614   -1.7960  -11.6118 C   0  0  0  1  0  0  0  0  0  0  0  0
   10.2104   -3.1744  -10.1042 C   0  0  0  1  0  0  0  0  0  0  0  0
    9.4906   -2.7798   -9.4179 H   0  0  0  1  0  0  0  0  0  0  0  0
   11.1167   -2.6098  -10.0351 H   0  0  0  1  0  0  0  0  0  0  0  0
    8.6131   -4.2714  -11.6707 C   0  0  0  1  0  0  0  0  0  0  0  0
    7.8850   -3.9912  -12.4030 H   0  0  0  1  0  0  0  0  0  0  0  0
    8.1312   -4.4171  -10.7265 H   0  0  0  1  0  0  0  0  0  0  0  0
    9.0903   -5.1804  -11.9722 H   0  0  0  1  0  0  0  0  0  0  0  0
    9.6633   -3.1615  -11.5423 C   0  0  0  1  0  0  0  0  0  0  0  0
   10.7969   -3.4446  -12.5349 C   0  0  0  1  0  0  0  0  0  0  0  0
   11.6976   -3.6564  -11.9976 H   0  0  0  1  0  0  0  0  0  0  0  0
   10.9468   -2.5880  -13.1584 H   0  0  0  1  0  0  0  0  0  0  0  0
   10.5373   -4.2869  -13.1416 H   0  0  0  1  0  0  0  0  0  0  0  0
    8.9988   -1.7899  -11.8859 C   0  0  0  1  0  0  0  0  0  0  0  0
    9.4406   -1.0454  -11.2572 H   0  0  0  1  0  0  0  0  0  0  0  0
    9.2546   -1.4488  -13.2832 O   0  0  0  1  0  0  0  0  0  0  0  0
    8.6398   -1.9241  -13.8469 H   0  0  0  1  0  0  0  0  0  0  0  0
   10.4552   -4.5804   -9.8465 O   0  0  0  1  0  0  0  0  0  0  0  0
    9.9622   -4.5356   -7.3844 O   0  0  0  1  0  0  0  0  0  0  0  0
   12.2779   -4.6591   -7.7595 O   0  0  0  1  0  0  0  0  0  0  0  0
    8.2423   -5.4040   -8.9316 O   0  0  0  0  0  0  0  0  0  0  0  0
   10.4088   -6.7054   -8.5867 O   0  0  0  1  0  0  0  0  0  0  0  0
   11.2952   -2.3609   -7.2537 O   0  0  0  0  0  0  0  0  0  0  0  0
   11.4932   -4.1019   -5.3917 O   0  0  0  1  0  0  0  0  0  0  0  0
    9.7033   -5.4092   -8.6808 P   0  0  0  1  0  0  0  0  0  0  0  0
   11.2874   -3.7779   -6.8148 P   0  0  0  1  0  0  0  0  0  0  0  0
   12.6009   -6.0104   -7.3550 C   0  0  0  1  0  0  0  0  0  0  0  0
   11.9138   -6.3400   -6.6039 H   0  0  0  1  0  0  0  0  0  0  0  0
   12.5488   -6.6658   -8.1992 H   0  0  0  1  0  0  0  0  0  0  0  0
   14.1214   -7.9000   -5.2432 O   0  0  0  1  0  0  0  0  0  0  0  0
   11.5299   -8.3577   -5.5765 O   0  0  0  1  0  0  0  0  0  0  0  0
   12.6166   -8.7086   -3.2998 O   0  5  0  1  0  0  0  0  0  0  0  0
   12.7807   -8.7837   -4.9097 P   0  0  0  1  0  0  0  0  0  0  0  0
   12.9636  -10.3543   -5.2619 O   0  5  0  1  0  0  0  0  0  0  0  0
   16.6284   -4.0727   -5.8748 N   0  0  0  1  0  0  0  0  0  0  0  0
   17.6516   -3.8636   -4.9865 C   0  0  0  1  0  0  0  0  0  0  0  0
   17.1315   -3.7536   -7.0986 C   0  0  0  1  0  0  0  0  0  0  0  0
   16.5650   -3.8123   -7.9688 H   0  0  0  1  0  0  0  0  0  0  0  0
   18.7357   -3.4268   -5.7597 C   0  0  0  1  0  0  0  0  0  0  0  0
   17.6376   -4.0477   -3.6656 N   0  0  0  1  0  0  0  0  0  0  0  0
   18.3787   -3.3684   -7.0979 N   0  0  0  1  0  0  0  0  0  0  0  0
   19.9072   -3.1645   -5.0556 C   0  0  0  1  0  0  0  0  0  0  0  0
   18.8131   -3.7530   -3.1240 C   0  0  0  1  0  0  0  0  0  0  0  0
   18.8748   -3.8692   -2.0924 H   0  0  0  1  0  0  0  0  0  0  0  0
   19.9329   -3.3251   -3.7281 N   0  0  0  1  0  0  0  0  0  0  0  0
   21.1211   -2.8121   -5.6676 N   0  0  0  1  0  0  0  0  0  0  0  0
   21.9167   -2.6478   -5.1194 H   0  0  0  1  0  0  0  0  0  0  0  0
   21.1727   -2.7306   -6.6428 H   0  0  0  1  0  0  0  0  0  0  0  0
    7.4040   -5.9708  -14.2886 S   0  0  0  1  0  0  0  0  0  0  0  0
    8.5437   -4.3584  -16.0332 O   0  0  0  1  0  0  0  0  0  0  0  0
    8.6256   -5.4180  -15.3984 C   0  0  0  1  0  0  0  0  0  0  0  0
    9.7200   -6.3384  -15.6917 C   0  0  0  1  0  0  0  0  0  0  0  0
    9.7012   -7.2473  -15.1866 H   0  0  0  1  0  0  0  0  0  0  0  0
   10.7401   -6.1541  -16.5288 C   0  0  0  1  0  0  0  0  0  0  0  0
   10.7759   -5.2509  -17.0431 H   0  0  0  1  0  0  0  0  0  0  0  0
   11.8266   -7.1247  -16.7895 C   0  0  0  1  0  0  0  0  0  0  0  0
   11.8778   -8.3520  -16.1472 C   0  0  0  1  0  0  0  0  0  0  0  0
   11.1379   -8.6129  -15.4645 H   0  0  0  1  0  0  0  0  0  0  0  0
   12.8070   -6.7804  -17.7007 C   0  0  0  1  0  0  0  0  0  0  0  0
   12.7664   -5.8612  -18.1856 H   0  0  0  1  0  0  0  0  0  0  0  0
   12.9121   -9.2292  -16.4140 C   0  0  0  1  0  0  0  0  0  0  0  0
   12.9527  -10.1483  -15.9290 H   0  0  0  1  0  0  0  0  0  0  0  0
   13.8444   -7.6599  -17.9684 C   0  0  0  1  0  0  0  0  0  0  0  0
   13.8954   -8.8836  -17.3280 C   0  0  0  1  0  0  0  0  0  0  0  0
   14.9258   -9.7118  -17.6264 O   0  0  0  1  0  0  0  0  0  0  0  0
   14.9048  -10.4730  -17.0418 H   0  0  0  1  0  0  0  0  0  0  0  0
   14.8604   -7.4314  -18.8341 O   0  0  0  1  0  0  0  0  0  0  0  0
   14.7544   -6.2755  -19.6798 C   0  0  0  1  0  0  0  0  0  0  0  0
   15.1136   -5.4149  -19.1551 H   0  0  0  1  0  0  0  0  0  0  0  0
   13.7305   -6.1254  -19.9517 H   0  0  0  1  0  0  0  0  0  0  0  0
   15.3402   -6.4248  -20.5626 H   0  0  0  1  0  0  0  0  0  0  0  0
  1  2  1  0  0  0  0
  1  3  1  0  0  0  0
  1  4  1  0  0  0  0
  1 65  1  0  0  0  0
  3  6  1  0  0  0  0
  4  5  1  0  0  0  0
  4  8  1  0  0  0  0
  4 10  1  0  0  0  0
  6  7  1  0  0  0  0
  6  8  1  0  0  0  0
  6 57  1  0  0  0  0
  8  9  1  0  0  0  0
  8 60  1  0  0  0  0
 10 11  1  0  0  0  0
 12 13  1  0  0  0  0
 12 14  1  0  0  0  0
 12 15  1  0  0  0  0
 12 18  1  0  0  0  0
 15 16  1  0  0  0  0
 15 17  1  0  0  0  0
 15 79  1  0  0  0  0
 18 19  1  0  0  0  0
 18 20  1  0  0  0  0
 20 21  2  0  0  0  0
 20 25  1  0  0  0  0
 22 23  1  0  0  0  0
 22 24  1  0  0  0  0
 22 25  1  0  0  0  0
 22 28  1  0  0  0  0
 25 26  1  0  0  0  0
 25 27  1  0  0  0  0
 28 29  1  0  0  0  0
 28 31  1  0  0  0  0
 30 31  2  0  0  0  0
 31 44  1  0  0  0  0
 32 33  1  0  0  0  0
 32 34  1  0  0  0  0
 32 39  1  0  0  0  0
 32 48  1  0  0  0  0
 35 36  1  0  0  0  0
 35 37  1  0  0  0  0
 35 38  1  0  0  0  0
 35 39  1  0  0  0  0
 39 40  1  0  0  0  0
 39 44  1  0  0  0  0
 40 41  1  0  0  0  0
 40 42  1  0  0  0  0
 40 43  1  0  0  0  0
 44 45  1  0  0  0  0
 44 46  1  0  0  0  0
 46 47  1  0  0  0  0
 48 55  1  0  0  0  0
 49 55  1  0  0  0  0
 49 56  1  0  0  0  0
 50 56  1  0  0  0  0
 50 57  1  0  0  0  0
 51 55  1  0  0  0  0
 52 55  2  0  0  0  0
 53 56  1  0  0  0  0
 54 56  2  0  0  0  0
 57 58  1  0  0  0  0
 57 59  1  0  0  0  0
 60 63  1  0  0  0  0
 61 63  2  0  0  0  0
 62 63  1  0  0  0  0
 63 64  1  0  0  0  0
 65 66  1  0  0  0  0
 65 67  1  0  0  0  0
 66 69  2  0  0  0  0
 66 70  1  0  0  0  0
 67 68  1  0  0  0  0
 67 71  2  0  0  0  0
 69 71  1  0  0  0  0
 69 72  1  0  0  0  0
 70 73  2  0  0  0  0
 72 75  2  0  0  0  0
 72 76  1  0  0  0  0
 73 74  1  0  0  0  0
 73 75  1  0  0  0  0
 76 77  1  0  0  0  0
 76 78  1  0  0  0  0
 79 81  1  0  0  0  0
 80 81  2  0  0  0  0
 81 82  1  0  0  0  0
 82 83  1  0  0  0  0
 82 84  2  0  0  0  0
 84 85  1  0  0  0  0
 84 86  1  0  0  0  0
 86 87  1  0  0  0  0
 86 89  2  0  0  0  0
 87 88  1  0  0  0  0
 87 91  2  0  0  0  0
 89 90  1  0  0  0  0
 89 93  1  0  0  0  0
 91 92  1  0  0  0  0
 91 94  1  0  0  0  0
 93 94  2  0  0  0  0
 93 97  1  0  0  0  0
 94 95  1  0  0  0  0
 95 96  1  0  0  0  0
 97 98  1  0  0  0  0
 98 99  1  0  0  0  0
 98100  1  0  0  0  0
 98101  1  0  0  0  0
M  BCL ATM C_TeTeTeTe H_S O_Te2Te2TeTe C_TeTeTeTe H_S C_TeTeTeTe H_S C_TeTeTeTe H_S O_Te2Te2TeTe H_S C_TeTeTeTe H_S H_S C_TeTeTeTe H_S H_S N_TrTrTrPi2 H_S C_TrTrTrPi O_Tr2Tr2TrPi C_TeTeTeTe H_S H_S C_TeTeTeTe H_S H_S N_TrTrTrPi2 H_S O_Tr2Tr2TrPi C_TrTrTrPi C_TeTeTeTe H_S H_S C_TeTeTeTe H_S H_S H_S C_TeTeTeTe C_TeTeTeTe H_S H_S H_S C_TeTeTeTe H_S O_Te2Te2TeTe H_S O_Tr2TrTrPi2 O_Tr2TrTrPi2 O_Tr2TrTrPi2 O_Te2Te2TeTe O_Tr2Tr2TrPi O_Te2Te2TeTe O_Tr2Tr2TrPi P_TeTeTeTePi P_TeTeTeTePi C_TeTeTeTe H_S H_S O_Tr2TrTrPi2 O_Tr2Tr2TrPi O_Te2Te2Te2Te P_TeTeTeTePi O_Te2Te2Te2Te N_TrTrTrPi2 C_TrTrTrPi C_TrTrTrPi H_S C_TrTrTrPi N_Tr2TrTrPi N_Tr2TrTrPi C_TrTrTrPi C_TrTrTrPi H_S N_Tr2TrTrPi N_TrTrTrPi2 H_S H_S S_Te2Te2TeTe O_Tr2Tr2TrPi C_TrTrTrPi C_TrTrTrPi H_S C_TrTrTrPi H_S C_TrTrTrPi C_TrTrTrPi H_S C_TrTrTrPi H_S C_TrTrTrPi H_S C_TrTrTrPi C_TrTrTrPi O_Te2Te2TeTe H_S O_Tr2TrTrPi2 C_TeTeTeTe H_S H_S H_S
M  BCL BND NonConjugatedSingleBond NonConjugatedSingleBondInRing NonConjugatedSingleBondInRing NonConjugatedSingleBond NonConjugatedSingleBondInRing NonConjugatedSingleBond NonConjugatedSingleBondInRing NonConjugatedSingleBond NonConjugatedSingleBond NonConjugatedSingleBondInRing NonConjugatedSingleBond NonConjugatedSingleBond NonConjugatedSingleBond NonConjugatedSingleBond NonConjugatedSingleBond NonConjugatedSingleBond NonConjugatedSingleBond NonConjugatedSingleBond NonConjugatedSingleBond NonConjugatedSingleBond NonConjugatedSingleBond NonConjugatedSingleBond AmideSingleBond ConjugatedDoubleBond NonConjugatedSingleBond NonConjugatedSingleBond NonConjugatedSingleBond NonConjugatedSingleBond NonConjugatedSingleBond NonConjugatedSingleBond NonConjugatedSingleBond NonConjugatedSingleBond AmideSingleBond ConjugatedDoubleBond NonConjugatedSingleBond NonConjugatedSingleBond NonConjugatedSingleBond NonConjugatedSingleBond NonConjugatedSingleBond NonConjugatedSingleBond NonConjugatedSingleBond NonConjugatedSingleBond NonConjugatedSingleBond NonConjugatedSingleBond NonConjugatedSingleBond NonConjugatedSingleBond NonConjugatedSingleBond NonConjugatedSingleBond NonConjugatedSingleBond NonConjugatedSingleBond NonConjugatedSingleBond ConjugatedSingleBond ConjugatedSingleBond ConjugatedSingleBond ConjugatedSingleBond NonConjugatedSingleBond ConjugatedSingleBond ConjugatedDoubleBond ConjugatedSingleBond ConjugatedDoubleBond NonConjugatedSingleBond NonConjugatedSingleBond ConjugatedSingleBond ConjugatedDoubleBond ConjugatedSingleBond ConjugatedSingleBond AromaticSingleBond AromaticSingleBond AromaticDoubleBond AromaticSingleBond NonConjugatedSingleBond AromaticDoubleBond AromaticSingleBond AromaticSingleBond AromaticDoubleBond AromaticDoubleBond ConjugatedSingleBond NonConjugatedSingleBond AromaticSingleBond NonConjugatedSingleBond NonConjugatedSingleBond ConjugatedSingleBond ConjugatedDoubleBond ConjugatedSingleBond NonConjugatedSingleBond ConjugatedDoubleBond NonConjugatedSingleBond ConjugatedSingleBond AromaticSingleBond AromaticDoubleBond NonConjugatedSingleBond AromaticDoubleBond NonConjugatedSingleBond AromaticSingleBond NonConjugatedSingleBond AromaticSingleBond AromaticDoubleBond ConjugatedSingleBond ConjugatedSingleBond NonConjugatedSingleBond NonConjugatedSingleBond NonConjugatedSingleBond NonConjugatedSingleBond NonConjugatedSingleBond
M  BCL CHI   1   R   4   R   6   R   8   S  44   S  55   S  56   R
M  BCL DBI - - - - - - - - - - E - - -
M  END
> <ConfClashScore>
0 

> <ConfOneFourInteractionScore>
-0.971079 

> <ConfScore>
0.0453131 

> <ConfScorePBest>
0.00778548 

> <ConfTolerance>
3.12788 

$$$$
L02.****
  PyMOL2.5          3D                             0

101104  0  0  0  0  0  0  0  0999 V2000
   15.2439   -4.4021   -5.5611 C   0  0  0  1  0  0  0  0  0  0  0  0
   15.2264   -5.2677   -4.9323 H   0  0  0  1  0  0  0  0  0  0  0  0
   14.6037   -3.3153   -4.9179 O   0  0  0  1  0  0  0  0  0  0  0  0
   14.4700   -4.6579   -6.8184 C   0  0  0  1  0  0  0  0  0  0  0  0
   14.8923   -4.1182   -7.6402 H   0  0  0  1  0  0  0  0  0  0  0  0
   13.2150   -3.4087   -5.2232 C   0  0  0  1  0  0  0  0  0  0  0  0
   12.7972   -2.4295   -5.3305 H   0  0  0  1  0  0  0  0  0  0  0  0
   13.0918   -4.1608   -6.5091 C   0  0  0  1  0  0  0  0  0  0  0  0
   12.4149   -4.9820   -6.3979 H   0  0  0  1  0  0  0  0  0  0  0  0
   14.4483   -6.0500   -7.1242 O   0  0  0  1  0  0  0  0  0  0  0  0
   14.8318   -6.1934   -7.9925 H   0  0  0  1  0  0  0  0  0  0  0  0
   17.3854  -18.1855    1.3673 C   0  0  0  1  0  0  0  0  0  0  0  0
   18.2959  -18.0788    1.9191 H   0  0  0  1  0  0  0  0  0  0  0  0
   16.6633  -18.7006    1.9657 H   0  0  0  1  0  0  0  0  0  0  0  0
   17.6808  -19.0515    0.1608 C   0  0  0  1  0  0  0  0  0  0  0  0
   17.9073  -20.0408    0.4998 H   0  0  0  1  0  0  0  0  0  0  0  0
   18.5294  -18.6457   -0.3493 H   0  0  0  1  0  0  0  0  0  0  0  0
   16.8692  -16.8496    1.1087 N   0  0  0  1  0  0  0  0  0  0  0  0
   17.1587  -16.4035    0.2855 H   0  0  0  1  0  0  0  0  0  0  0  0
   16.0333  -16.1880    1.9061 C   0  0  0  1  0  0  0  0  0  0  0  0
   15.5604  -16.6558    2.9410 O   0  0  0  1  0  0  0  0  0  0  0  0
   14.5313  -14.6127    0.6237 C   0  0  0  1  0  0  0  0  0  0  0  0
   13.6683  -14.8941    1.1901 H   0  0  0  1  0  0  0  0  0  0  0  0
   14.6325  -15.2632   -0.2199 H   0  0  0  1  0  0  0  0  0  0  0  0
   15.7640  -14.7621    1.5057 C   0  0  0  1  0  0  0  0  0  0  0  0
   16.6131  -14.3926    0.9697 H   0  0  0  1  0  0  0  0  0  0  0  0
   15.6207  -14.1806    2.3925 H   0  0  0  1  0  0  0  0  0  0  0  0
   14.3492  -13.2428    0.1406 N   0  0  0  1  0  0  0  0  0  0  0  0
   13.8081  -12.6220    0.6717 H   0  0  0  1  0  0  0  0  0  0  0  0
   15.7303  -13.4530   -1.6333 O   0  0  0  1  0  0  0  0  0  0  0  0
   14.8951  -12.8095   -0.9993 C   0  0  0  1  0  0  0  0  0  0  0  0
   15.0645   -8.9433   -1.2401 C   0  0  0  1  0  0  0  0  0  0  0  0
   15.5511   -8.2224   -0.6169 H   0  0  0  1  0  0  0  0  0  0  0  0
   14.0175   -8.7276   -1.2853 H   0  0  0  1  0  0  0  0  0  0  0  0
   14.7361  -10.3441    0.7942 C   0  0  0  1  0  0  0  0  0  0  0  0
   15.0138  -11.2563    1.2796 H   0  0  0  1  0  0  0  0  0  0  0  0
   13.6696  -10.2582    0.7802 H   0  0  0  1  0  0  0  0  0  0  0  0
   15.1541   -9.5154    1.3267 H   0  0  0  1  0  0  0  0  0  0  0  0
   15.2673  -10.3473   -0.6442 C   0  0  0  1  0  0  0  0  0  0  0  0
   16.7611  -10.6905   -0.6123 C   0  0  0  1  0  0  0  0  0  0  0  0
   17.0737  -10.8312    0.4013 H   0  0  0  1  0  0  0  0  0  0  0  0
   17.3201   -9.8899   -1.0498 H   0  0  0  1  0  0  0  0  0  0  0  0
   16.9321  -11.5899   -1.1661 H   0  0  0  1  0  0  0  0  0  0  0  0
   14.5144  -11.4109   -1.4521 C   0  0  0  1  0  0  0  0  0  0  0  0
   13.4644  -11.2746   -1.2972 H   0  0  0  1  0  0  0  0  0  0  0  0
   14.8203  -11.3070   -2.8287 O   0  0  0  1  0  0  0  0  0  0  0  0
   14.2366  -11.8803   -3.3309 H   0  0  0  1  0  0  0  0  0  0  0  0
   15.6231   -8.8750   -2.5732 O   0  0  0  1  0  0  0  0  0  0  0  0
   13.5557   -7.7772   -3.3407 O   0  0  0  1  0  0  0  0  0  0  0  0
   13.0334   -5.4868   -4.0844 O   0  0  0  1  0  0  0  0  0  0  0  0
   15.7025   -6.5201   -3.4408 O   0  0  0  0  0  0  0  0  0  0  0  0
   15.3221   -8.5044   -5.0077 O   0  0  0  1  0  0  0  0  0  0  0  0
   11.3035   -6.7641   -2.7900 O   0  0  0  0  0  0  0  0  0  0  0  0
   13.4440   -5.9940   -1.6724 O   0  0  0  1  0  0  0  0  0  0  0  0
   15.0983   -7.8964   -3.6691 P   0  0  0  1  0  0  0  0  0  0  0  0
   12.7601   -6.4944   -2.8655 P   0  0  0  1  0  0  0  0  0  0  0  0
   12.5006   -4.1389   -4.1339 C   0  0  0  1  0  0  0  0  0  0  0  0
   11.4516   -4.1692   -4.3427 H   0  0  0  1  0  0  0  0  0  0  0  0
   12.6644   -3.6477   -3.1976 H   0  0  0  1  0  0  0  0  0  0  0  0
   12.6230   -3.2885   -7.5601 O   0  0  0  1  0  0  0  0  0  0  0  0
   11.6535   -1.1477   -6.3580 O   0  0  0  1  0  0  0  0  0  0  0  0
   10.1355   -3.2643   -6.8181 O   0  5  0  1  0  0  0  0  0  0  0  0
   11.3580   -2.2923   -7.2486 P   0  0  0  1  0  0  0  0  0  0  0  0
   10.8940   -1.7769   -8.7126 O   0  5  0  1  0  0  0  0  0  0  0  0
   16.6340   -4.0569   -5.8808 N   0  0  0  1  0  0  0  0  0  0  0  0
   17.6575   -3.8608   -4.9899 C   0  0  0  1  0  0  0  0  0  0  0  0
   17.1479   -3.7559   -7.1048 C   0  0  0  1  0  0  0  0  0  0  0  0
   16.5838   -3.8101   -7.9768 H   0  0  0  1  0  0  0  0  0  0  0  0
   18.7526   -3.4499   -5.7616 C   0  0  0  1  0  0  0  0  0  0  0  0
   17.6348   -4.0353   -3.6678 N   0  0  0  1  0  0  0  0  0  0  0  0
   18.4021   -3.3942   -7.1016 N   0  0  0  1  0  0  0  0  0  0  0  0
   19.9260   -3.2047   -5.0546 C   0  0  0  1  0  0  0  0  0  0  0  0
   18.8134   -3.7589   -3.1235 C   0  0  0  1  0  0  0  0  0  0  0  0
   18.8689   -3.8690   -2.0908 H   0  0  0  1  0  0  0  0  0  0  0  0
   19.9435   -3.3564   -3.7259 N   0  0  0  1  0  0  0  0  0  0  0  0
   21.0915   -2.8075   -5.6553 N   0  0  0  1  0  0  0  0  0  0  0  0
   21.1141   -2.6450   -6.6214 H   0  0  0  1  0  0  0  0  0  0  0  0
   21.9026   -2.6860   -5.1188 H   0  0  0  1  0  0  0  0  0  0  0  0
   16.3006  -19.1451   -1.0041 S   0  0  0  1  0  0  0  0  0  0  0  0
   17.2581  -16.8720   -1.6740 O   0  0  0  1  0  0  0  0  0  0  0  0
   16.4158  -17.5878   -1.8504 C   0  0  0  1  0  0  0  0  0  0  0  0
   15.2898  -17.4136   -2.7607 C   0  0  0  1  0  0  0  0  0  0  0  0
   14.5615  -18.1549   -2.8005 H   0  0  0  1  0  0  0  0  0  0  0  0
   15.1557  -16.3437   -3.5436 C   0  0  0  1  0  0  0  0  0  0  0  0
   16.0025  -15.7507   -3.6569 H   0  0  0  1  0  0  0  0  0  0  0  0
   13.9455  -15.8974   -4.2720 C   0  0  0  1  0  0  0  0  0  0  0  0
   12.9292  -16.8042   -4.5295 C   0  0  0  1  0  0  0  0  0  0  0  0
   13.0177  -17.7894   -4.2083 H   0  0  0  1  0  0  0  0  0  0  0  0
   13.8254  -14.5869   -4.6942 C   0  0  0  1  0  0  0  0  0  0  0  0
   14.5861  -13.9056   -4.4976 H   0  0  0  1  0  0  0  0  0  0  0  0
   11.7982  -16.3993   -5.2131 C   0  0  0  1  0  0  0  0  0  0  0  0
   11.0375  -17.0807   -5.4098 H   0  0  0  1  0  0  0  0  0  0  0  0
   12.6913  -14.1805   -5.3798 C   0  0  0  1  0  0  0  0  0  0  0  0
   11.6780  -15.0848   -5.6365 C   0  0  0  1  0  0  0  0  0  0  0  0
   10.5397  -14.7586   -6.2958 O   0  0  0  1  0  0  0  0  0  0  0  0
   10.3633  -15.4143   -6.9744 H   0  0  0  1  0  0  0  0  0  0  0  0
   12.4646  -12.9292   -5.8454 O   0  0  0  1  0  0  0  0  0  0  0  0
   13.4486  -11.9280   -5.5421 C   0  0  0  1  0  0  0  0  0  0  0  0
   13.6085  -11.3123   -6.4024 H   0  0  0  1  0  0  0  0  0  0  0  0
   14.3674  -12.4029   -5.2679 H   0  0  0  1  0  0  0  0  0  0  0  0
   13.1029  -11.3231   -4.7301 H   0  0  0  1  0  0  0  0  0  0  0  0
  1  2  1  0  0  0  0
  1  3  1  0  0  0  0
  1  4  1  0  0  0  0
  1 65  1  0  0  0  0
  3  6  1  0  0  0  0
  4  5  1  0  0  0  0
  4  8  1  0  0  0  0
  4 10  1  0  0  0  0
  6  7  1  0  0  0  0
  6  8  1  0  0  0  0
  6 57  1  0  0  0  0
  8  9  1  0  0  0  0
  8 60  1  0  0  0  0
 10 11  1  0  0  0  0
 12 13  1  0  0  0  0
 12 14  1  0  0  0  0
 12 15  1  0  0  0  0
 12 18  1  0  0  0  0
 15 16  1  0  0  0  0
 15 17  1  0  0  0  0
 15 79  1  0  0  0  0
 18 19  1  0  0  0  0
 18 20  1  0  0  0  0
 20 21  2  0  0  0  0
 20 25  1  0  0  0  0
 22 23  1  0  0  0  0
 22 24  1  0  0  0  0
 22 25  1  0  0  0  0
 22 28  1  0  0  0  0
 25 26  1  0  0  0  0
 25 27  1  0  0  0  0
 28 29  1  0  0  0  0
 28 31  1  0  0  0  0
 30 31  2  0  0  0  0
 31 44  1  0  0  0  0
 32 33  1  0  0  0  0
 32 34  1  0  0  0  0
 32 39  1  0  0  0  0
 32 48  1  0  0  0  0
 35 36  1  0  0  0  0
 35 37  1  0  0  0  0
 35 38  1  0  0  0  0
 35 39  1  0  0  0  0
 39 40  1  0  0  0  0
 39 44  1  0  0  0  0
 40 41  1  0  0  0  0
 40 42  1  0  0  0  0
 40 43  1  0  0  0  0
 44 45  1  0  0  0  0
 44 46  1  0  0  0  0
 46 47  1  0  0  0  0
 48 55  1  0  0  0  0
 49 55  1  0  0  0  0
 49 56  1  0  0  0  0
 50 56  1  0  0  0  0
 50 57  1  0  0  0  0
 51 55  1  0  0  0  0
 52 55  2  0  0  0  0
 53 56  1  0  0  0  0
 54 56  2  0  0  0  0
 57 58  1  0  0  0  0
 57 59  1  0  0  0  0
 60 63  1  0  0  0  0
 61 63  2  0  0  0  0
 62 63  1  0  0  0  0
 63 64  1  0  0  0  0
 65 66  1  0  0  0  0
 65 67  1  0  0  0  0
 66 69  2  0  0  0  0
 66 70  1  0  0  0  0
 67 68  1  0  0  0  0
 67 71  2  0  0  0  0
 69 71  1  0  0  0  0
 69 72  1  0  0  0  0
 70 73  2  0  0  0  0
 72 75  2  0  0  0  0
 72 76  1  0  0  0  0
 73 74  1  0  0  0  0
 73 75  1  0  0  0  0
 76 77  1  0  0  0  0
 76 78  1  0  0  0  0
 79 81  1  0  0  0  0
 80 81  2  0  0  0  0
 81 82  1  0  0  0  0
 82 83  1  0  0  0  0
 82 84  2  0  0  0  0
 84 85  1  0  0  0  0
 84 86  1  0  0  0  0
 86 87  1  0  0  0  0
 86 89  2  0  0  0  0
 87 88  1  0  0  0  0
 87 91  2  0  0  0  0
 89 90  1  0  0  0  0
 89 93  1  0  0  0  0
 91 92  1  0  0  0  0
 91 94  1  0  0  0  0
 93 94  2  0  0  0  0
 93 97  1  0  0  0  0
 94 95  1  0  0  0  0
 95 96  1  0  0  0  0
 97 98  1  0  0  0  0
 98 99  1  0  0  0  0
 98100  1  0  0  0  0
 98101  1  0  0  0  0
M  BCL ATM C_TeTeTeTe H_S O_Te2Te2TeTe C_TeTeTeTe H_S C_TeTeTeTe H_S C_TeTeTeTe H_S O_Te2Te2TeTe H_S C_TeTeTeTe H_S H_S C_TeTeTeTe H_S H_S N_TrTrTrPi2 H_S C_TrTrTrPi O_Tr2Tr2TrPi C_TeTeTeTe H_S H_S C_TeTeTeTe H_S H_S N_TrTrTrPi2 H_S O_Tr2Tr2TrPi C_TrTrTrPi C_TeTeTeTe H_S H_S C_TeTeTeTe H_S H_S H_S C_TeTeTeTe C_TeTeTeTe H_S H_S H_S C_TeTeTeTe H_S O_Te2Te2TeTe H_S O_Tr2TrTrPi2 O_Tr2TrTrPi2 O_Tr2TrTrPi2 O_Te2Te2TeTe O_Tr2Tr2TrPi O_Te2Te2TeTe O_Tr2Tr2TrPi P_TeTeTeTePi P_TeTeTeTePi C_TeTeTeTe H_S H_S O_Tr2TrTrPi2 O_Tr2Tr2TrPi O_Te2Te2Te2Te P_TeTeTeTePi O_Te2Te2Te2Te N_TrTrTrPi2 C_TrTrTrPi C_TrTrTrPi H_S C_TrTrTrPi N_Tr2TrTrPi N_Tr2TrTrPi C_TrTrTrPi C_TrTrTrPi H_S N_Tr2TrTrPi N_TrTrTrPi2 H_S H_S S_Te2Te2TeTe O_Tr2Tr2TrPi C_TrTrTrPi C_TrTrTrPi H_S C_TrTrTrPi H_S C_TrTrTrPi C_TrTrTrPi H_S C_TrTrTrPi H_S C_TrTrTrPi H_S C_TrTrTrPi C_TrTrTrPi O_Te2Te2TeTe H_S O_Tr2TrTrPi2 C_TeTeTeTe H_S H_S H_S
M  BCL BND NonConjugatedSingleBond NonConjugatedSingleBondInRing NonConjugatedSingleBondInRing NonConjugatedSingleBond NonConjugatedSingleBondInRing NonConjugatedSingleBond NonConjugatedSingleBondInRing NonConjugatedSingleBond NonConjugatedSingleBond NonConjugatedSingleBondInRing NonConjugatedSingleBond NonConjugatedSingleBond NonConjugatedSingleBond NonConjugatedSingleBond NonConjugatedSingleBond NonConjugatedSingleBond NonConjugatedSingleBond NonConjugatedSingleBond NonConjugatedSingleBond NonConjugatedSingleBond NonConjugatedSingleBond NonConjugatedSingleBond AmideSingleBond ConjugatedDoubleBond NonConjugatedSingleBond NonConjugatedSingleBond NonConjugatedSingleBond NonConjugatedSingleBond NonConjugatedSingleBond NonConjugatedSingleBond NonConjugatedSingleBond NonConjugatedSingleBond AmideSingleBond ConjugatedDoubleBond NonConjugatedSingleBond NonConjugatedSingleBond NonConjugatedSingleBond NonConjugatedSingleBond NonConjugatedSingleBond NonConjugatedSingleBond NonConjugatedSingleBond NonConjugatedSingleBond NonConjugatedSingleBond NonConjugatedSingleBond NonConjugatedSingleBond NonConjugatedSingleBond NonConjugatedSingleBond NonConjugatedSingleBond NonConjugatedSingleBond NonConjugatedSingleBond NonConjugatedSingleBond ConjugatedSingleBond ConjugatedSingleBond ConjugatedSingleBond ConjugatedSingleBond NonConjugatedSingleBond ConjugatedSingleBond ConjugatedDoubleBond ConjugatedSingleBond ConjugatedDoubleBond NonConjugatedSingleBond NonConjugatedSingleBond ConjugatedSingleBond ConjugatedDoubleBond ConjugatedSingleBond ConjugatedSingleBond AromaticSingleBond AromaticSingleBond AromaticDoubleBond AromaticSingleBond NonConjugatedSingleBond AromaticDoubleBond AromaticSingleBond AromaticSingleBond AromaticDoubleBond AromaticDoubleBond ConjugatedSingleBond NonConjugatedSingleBond AromaticSingleBond NonConjugatedSingleBond NonConjugatedSingleBond ConjugatedSingleBond ConjugatedDoubleBond ConjugatedSingleBond NonConjugatedSingleBond ConjugatedDoubleBond NonConjugatedSingleBond ConjugatedSingleBond AromaticSingleBond AromaticDoubleBond NonConjugatedSingleBond AromaticDoubleBond NonConjugatedSingleBond AromaticSingleBond NonConjugatedSingleBond AromaticSingleBond AromaticDoubleBond ConjugatedSingleBond ConjugatedSingleBond NonConjugatedSingleBond NonConjugatedSingleBond NonConjugatedSingleBond NonConjugatedSingleBond NonConjugatedSingleBond
M  BCL CHI   1   R   4   R   6   R   8   S  44   S  55   S  56   R
M  BCL DBI - - - - - - - - - - E - - -
M  END
> <ConfClashScore>
0 

> <ConfOneFourInteractionScore>
-0.972842 

> <ConfScore>
0.0453785 

> <ConfScorePBest>
0.00768248 

> <ConfTolerance>
3.12722 

$$$$
L02.****
  PyMOL2.5          3D                             0

101104  0  0  0  0  0  0  0  0999 V2000
   15.2507   -4.4326   -5.5595 C   0  0  0  1  0  0  0  0  0  0  0  0
   14.7695   -3.6595   -4.9976 H   0  0  0  1  0  0  0  0  0  0  0  0
   14.5071   -4.7223   -6.7821 O   0  0  0  1  0  0  0  0  0  0  0  0
   15.2367   -5.7370   -4.7960 C   0  0  0  1  0  0  0  0  0  0  0  0
   16.1001   -5.8228   -4.1699 H   0  0  0  1  0  0  0  0  0  0  0  0
   14.5335   -6.0936   -7.0619 C   0  0  0  1  0  0  0  0  0  0  0  0
   15.0603   -6.2676   -7.9769 H   0  0  0  1  0  0  0  0  0  0  0  0
   15.2541   -6.8000   -5.9027 C   0  0  0  1  0  0  0  0  0  0  0  0
   14.7266   -7.6803   -5.6000 H   0  0  0  1  0  0  0  0  0  0  0  0
   14.0662   -5.8484   -4.0054 O   0  0  0  1  0  0  0  0  0  0  0  0
   13.6485   -4.9874   -3.9281 H   0  0  0  1  0  0  0  0  0  0  0  0
   18.6428   -5.6994  -16.1349 C   0  0  0  1  0  0  0  0  0  0  0  0
   17.8690   -6.2099  -16.6692 H   0  0  0  1  0  0  0  0  0  0  0  0
   18.3737   -4.6711  -16.0124 H   0  0  0  1  0  0  0  0  0  0  0  0
   19.9027   -5.7599  -16.9613 C   0  0  0  1  0  0  0  0  0  0  0  0
   19.7088   -5.3055  -17.9104 H   0  0  0  1  0  0  0  0  0  0  0  0
   20.1664   -6.7870  -17.1043 H   0  0  0  1  0  0  0  0  0  0  0  0
   18.7531   -6.2995  -14.8137 N   0  0  0  1  0  0  0  0  0  0  0  0
   19.2597   -5.8270  -14.1204 H   0  0  0  1  0  0  0  0  0  0  0  0
   18.1879   -7.4721  -14.5129 C   0  0  0  1  0  0  0  0  0  0  0  0
   17.5071   -8.1106  -15.3112 O   0  0  0  1  0  0  0  0  0  0  0  0
   17.3435   -7.5794  -12.1371 C   0  0  0  1  0  0  0  0  0  0  0  0
   17.7965   -7.3411  -11.1976 H   0  0  0  1  0  0  0  0  0  0  0  0
   16.6760   -8.4064  -12.0122 H   0  0  0  1  0  0  0  0  0  0  0  0
   18.4349   -7.9783  -13.1169 C   0  0  0  1  0  0  0  0  0  0  0  0
   19.3658   -7.5805  -12.7702 H   0  0  0  1  0  0  0  0  0  0  0  0
   18.4919   -9.0463  -13.1470 H   0  0  0  1  0  0  0  0  0  0  0  0
   16.5744   -6.4207  -12.5945 N   0  0  0  1  0  0  0  0  0  0  0  0
   16.9674   -5.8286  -13.2693 H   0  0  0  1  0  0  0  0  0  0  0  0
   14.8492   -6.7438  -11.1773 O   0  0  0  1  0  0  0  0  0  0  0  0
   15.3553   -6.1424  -12.1239 C   0  0  0  1  0  0  0  0  0  0  0  0
   12.3717   -4.9651  -11.6817 C   0  0  0  1  0  0  0  0  0  0  0  0
   11.9040   -5.1358  -12.6288 H   0  0  0  1  0  0  0  0  0  0  0  0
   11.7286   -4.3696  -11.0680 H   0  0  0  1  0  0  0  0  0  0  0  0
   14.3681   -3.9852  -10.5418 C   0  0  0  1  0  0  0  0  0  0  0  0
   13.6195   -3.8376   -9.7917 H   0  0  0  1  0  0  0  0  0  0  0  0
   14.9913   -3.1173  -10.5991 H   0  0  0  1  0  0  0  0  0  0  0  0
   14.9642   -4.8367  -10.2876 H   0  0  0  1  0  0  0  0  0  0  0  0
   13.6938   -4.2204  -11.8987 C   0  0  0  1  0  0  0  0  0  0  0  0
   13.3891   -2.8574  -12.5309 C   0  0  0  1  0  0  0  0  0  0  0  0
   12.7285   -2.3077  -11.8935 H   0  0  0  1  0  0  0  0  0  0  0  0
   12.9258   -3.0024  -13.4844 H   0  0  0  1  0  0  0  0  0  0  0  0
   14.3004   -2.3108  -12.6561 H   0  0  0  1  0  0  0  0  0  0  0  0
   14.6151   -5.0246  -12.8323 C   0  0  0  1  0  0  0  0  0  0  0  0
   14.0004   -5.4674  -13.5880 H   0  0  0  1  0  0  0  0  0  0  0  0
   15.5110   -4.1012  -13.4465 O   0  0  0  1  0  0  0  0  0  0  0  0
   15.3279   -4.0549  -14.3877 H   0  0  0  1  0  0  0  0  0  0  0  0
   12.6090   -6.2386  -11.0299 O   0  0  0  1  0  0  0  0  0  0  0  0
   10.6872   -6.1592   -9.4910 O   0  0  0  1  0  0  0  0  0  0  0  0
   12.2546   -5.5476   -7.5973 O   0  0  0  1  0  0  0  0  0  0  0  0
   10.4481   -7.3478  -11.6657 O   0  0  0  0  0  0  0  0  0  0  0  0
   11.9635   -8.3277   -9.8459 O   0  0  0  1  0  0  0  0  0  0  0  0
    9.9994   -4.5980   -7.6507 O   0  0  0  0  0  0  0  0  0  0  0  0
   10.2695   -7.0556   -7.2508 O   0  0  0  1  0  0  0  0  0  0  0  0
   11.4197   -7.1104  -10.5207 P   0  0  0  1  0  0  0  0  0  0  0  0
   10.7542   -5.8559   -7.9425 P   0  0  0  1  0  0  0  0  0  0  0  0
   13.1552   -6.6069   -7.1820 C   0  0  0  1  0  0  0  0  0  0  0  0
   12.8374   -6.9881   -6.2340 H   0  0  0  1  0  0  0  0  0  0  0  0
   13.1338   -7.3925   -7.9081 H   0  0  0  1  0  0  0  0  0  0  0  0
   16.6131   -7.1515   -6.2685 O   0  0  0  1  0  0  0  0  0  0  0  0
   18.4917   -8.9178   -6.7289 O   0  0  0  1  0  0  0  0  0  0  0  0
   16.0619   -9.6775   -6.9271 O   0  5  0  1  0  0  0  0  0  0  0  0
   17.1293   -8.7062   -6.1911 P   0  0  0  1  0  0  0  0  0  0  0  0
   17.1667   -9.2373   -4.6611 O   0  5  0  1  0  0  0  0  0  0  0  0
   16.6223   -4.0288   -5.8705 N   0  0  0  1  0  0  0  0  0  0  0  0
   17.6523   -3.8478   -4.9839 C   0  0  0  1  0  0  0  0  0  0  0  0
   17.1407   -3.7550   -7.0989 C   0  0  0  1  0  0  0  0  0  0  0  0
   16.5734   -3.8053   -7.9691 H   0  0  0  1  0  0  0  0  0  0  0  0
   18.7556   -3.4733   -5.7626 C   0  0  0  1  0  0  0  0  0  0  0  0
   17.6283   -4.0063   -3.6598 N   0  0  0  1  0  0  0  0  0  0  0  0
   18.4035   -3.4245   -7.1025 N   0  0  0  1  0  0  0  0  0  0  0  0
   19.9363   -3.2490   -5.0608 C   0  0  0  1  0  0  0  0  0  0  0  0
   18.8147   -3.7529   -3.1211 C   0  0  0  1  0  0  0  0  0  0  0  0
   18.8697   -3.8523   -2.0873 H   0  0  0  1  0  0  0  0  0  0  0  0
   19.9530   -3.3856   -3.7305 N   0  0  0  1  0  0  0  0  0  0  0  0
   21.0981   -2.7992   -5.6666 N   0  0  0  1  0  0  0  0  0  0  0  0
   21.8893   -2.6017   -5.1231 H   0  0  0  1  0  0  0  0  0  0  0  0
   21.1288   -2.6786   -6.6386 H   0  0  0  1  0  0  0  0  0  0  0  0
   21.3010   -4.9092  -16.1918 S   0  0  0  1  0  0  0  0  0  0  0  0
   21.7143   -7.2749  -15.3171 O   0  0  0  1  0  0  0  0  0  0  0  0
   22.1086   -6.2274  -15.3172 C   0  0  0  1  0  0  0  0  0  0  0  0
   23.3048   -5.7368  -14.6385 C   0  0  0  1  0  0  0  0  0  0  0  0
   23.8697   -6.4733  -14.1693 H   0  0  0  1  0  0  0  0  0  0  0  0
   23.7929   -4.5038  -14.5204 C   0  0  0  1  0  0  0  0  0  0  0  0
   23.2455   -3.7491  -14.9813 H   0  0  0  1  0  0  0  0  0  0  0  0
   25.0217   -4.0776  -13.8115 C   0  0  0  1  0  0  0  0  0  0  0  0
   25.3291   -2.7286  -13.7268 C   0  0  0  1  0  0  0  0  0  0  0  0
   24.6966   -2.0233  -14.1559 H   0  0  0  1  0  0  0  0  0  0  0  0
   25.8595   -5.0145  -13.2367 C   0  0  0  1  0  0  0  0  0  0  0  0
   25.6269   -6.0264  -13.2967 H   0  0  0  1  0  0  0  0  0  0  0  0
   26.4760   -2.3208  -13.0722 C   0  0  0  1  0  0  0  0  0  0  0  0
   26.7087   -1.3089  -13.0122 H   0  0  0  1  0  0  0  0  0  0  0  0
   27.0099   -4.6057  -12.5801 C   0  0  0  1  0  0  0  0  0  0  0  0
   27.3162   -3.2606  -12.4957 C   0  0  0  1  0  0  0  0  0  0  0  0
   28.4192   -2.7874  -11.8662 O   0  0  0  1  0  0  0  0  0  0  0  0
   29.0870   -2.5601  -12.5173 H   0  0  0  1  0  0  0  0  0  0  0  0
   27.9058   -5.4287  -11.9852 O   0  0  0  1  0  0  0  0  0  0  0  0
   27.6625   -6.8410  -12.0790 C   0  0  0  1  0  0  0  0  0  0  0  0
   27.6937   -7.1414  -13.1055 H   0  0  0  1  0  0  0  0  0  0  0  0
   26.6988   -7.0645  -11.6713 H   0  0  0  1  0  0  0  0  0  0  0  0
   28.4138   -7.3693  -11.5301 H   0  0  0  1  0  0  0  0  0  0  0  0
  1  2  1  0  0  0  0
  1  3  1  0  0  0  0
  1  4  1  0  0  0  0
  1 65  1  0  0  0  0
  3  6  1  0  0  0  0
  4  5  1  0  0  0  0
  4  8  1  0  0  0  0
  4 10  1  0  0  0  0
  6  7  1  0  0  0  0
  6  8  1  0  0  0  0
  6 57  1  0  0  0  0
  8  9  1  0  0  0  0
  8 60  1  0  0  0  0
 10 11  1  0  0  0  0
 12 13  1  0  0  0  0
 12 14  1  0  0  0  0
 12 15  1  0  0  0  0
 12 18  1  0  0  0  0
 15 16  1  0  0  0  0
 15 17  1  0  0  0  0
 15 79  1  0  0  0  0
 18 19  1  0  0  0  0
 18 20  1  0  0  0  0
 20 21  2  0  0  0  0
 20 25  1  0  0  0  0
 22 23  1  0  0  0  0
 22 24  1  0  0  0  0
 22 25  1  0  0  0  0
 22 28  1  0  0  0  0
 25 26  1  0  0  0  0
 25 27  1  0  0  0  0
 28 29  1  0  0  0  0
 28 31  1  0  0  0  0
 30 31  2  0  0  0  0
 31 44  1  0  0  0  0
 32 33  1  0  0  0  0
 32 34  1  0  0  0  0
 32 39  1  0  0  0  0
 32 48  1  0  0  0  0
 35 36  1  0  0  0  0
 35 37  1  0  0  0  0
 35 38  1  0  0  0  0
 35 39  1  0  0  0  0
 39 40  1  0  0  0  0
 39 44  1  0  0  0  0
 40 41  1  0  0  0  0
 40 42  1  0  0  0  0
 40 43  1  0  0  0  0
 44 45  1  0  0  0  0
 44 46  1  0  0  0  0
 46 47  1  0  0  0  0
 48 55  1  0  0  0  0
 49 55  1  0  0  0  0
 49 56  1  0  0  0  0
 50 56  1  0  0  0  0
 50 57  1  0  0  0  0
 51 55  1  0  0  0  0
 52 55  2  0  0  0  0
 53 56  1  0  0  0  0
 54 56  2  0  0  0  0
 57 58  1  0  0  0  0
 57 59  1  0  0  0  0
 60 63  1  0  0  0  0
 61 63  2  0  0  0  0
 62 63  1  0  0  0  0
 63 64  1  0  0  0  0
 65 66  1  0  0  0  0
 65 67  1  0  0  0  0
 66 69  2  0  0  0  0
 66 70  1  0  0  0  0
 67 68  1  0  0  0  0
 67 71  2  0  0  0  0
 69 71  1  0  0  0  0
 69 72  1  0  0  0  0
 70 73  2  0  0  0  0
 72 75  2  0  0  0  0
 72 76  1  0  0  0  0
 73 74  1  0  0  0  0
 73 75  1  0  0  0  0
 76 77  1  0  0  0  0
 76 78  1  0  0  0  0
 79 81  1  0  0  0  0
 80 81  2  0  0  0  0
 81 82  1  0  0  0  0
 82 83  1  0  0  0  0
 82 84  2  0  0  0  0
 84 85  1  0  0  0  0
 84 86  1  0  0  0  0
 86 87  1  0  0  0  0
 86 89  2  0  0  0  0
 87 88  1  0  0  0  0
 87 91  2  0  0  0  0
 89 90  1  0  0  0  0
 89 93  1  0  0  0  0
 91 92  1  0  0  0  0
 91 94  1  0  0  0  0
 93 94  2  0  0  0  0
 93 97  1  0  0  0  0
 94 95  1  0  0  0  0
 95 96  1  0  0  0  0
 97 98  1  0  0  0  0
 98 99  1  0  0  0  0
 98100  1  0  0  0  0
 98101  1  0  0  0  0
M  BCL ATM C_TeTeTeTe H_S O_Te2Te2TeTe C_TeTeTeTe H_S C_TeTeTeTe H_S C_TeTeTeTe H_S O_Te2Te2TeTe H_S C_TeTeTeTe H_S H_S C_TeTeTeTe H_S H_S N_TrTrTrPi2 H_S C_TrTrTrPi O_Tr2Tr2TrPi C_TeTeTeTe H_S H_S C_TeTeTeTe H_S H_S N_TrTrTrPi2 H_S O_Tr2Tr2TrPi C_TrTrTrPi C_TeTeTeTe H_S H_S C_TeTeTeTe H_S H_S H_S C_TeTeTeTe C_TeTeTeTe H_S H_S H_S C_TeTeTeTe H_S O_Te2Te2TeTe H_S O_Tr2TrTrPi2 O_Tr2TrTrPi2 O_Tr2TrTrPi2 O_Te2Te2TeTe O_Tr2Tr2TrPi O_Te2Te2TeTe O_Tr2Tr2TrPi P_TeTeTeTePi P_TeTeTeTePi C_TeTeTeTe H_S H_S O_Tr2TrTrPi2 O_Tr2Tr2TrPi O_Te2Te2Te2Te P_TeTeTeTePi O_Te2Te2Te2Te N_TrTrTrPi2 C_TrTrTrPi C_TrTrTrPi H_S C_TrTrTrPi N_Tr2TrTrPi N_Tr2TrTrPi C_TrTrTrPi C_TrTrTrPi H_S N_Tr2TrTrPi N_TrTrTrPi2 H_S H_S S_Te2Te2TeTe O_Tr2Tr2TrPi C_TrTrTrPi C_TrTrTrPi H_S C_TrTrTrPi H_S C_TrTrTrPi C_TrTrTrPi H_S C_TrTrTrPi H_S C_TrTrTrPi H_S C_TrTrTrPi C_TrTrTrPi O_Te2Te2TeTe H_S O_Tr2TrTrPi2 C_TeTeTeTe H_S H_S H_S
M  BCL BND NonConjugatedSingleBond NonConjugatedSingleBondInRing NonConjugatedSingleBondInRing NonConjugatedSingleBond NonConjugatedSingleBondInRing NonConjugatedSingleBond NonConjugatedSingleBondInRing NonConjugatedSingleBond NonConjugatedSingleBond NonConjugatedSingleBondInRing NonConjugatedSingleBond NonConjugatedSingleBond NonConjugatedSingleBond NonConjugatedSingleBond NonConjugatedSingleBond NonConjugatedSingleBond NonConjugatedSingleBond NonConjugatedSingleBond NonConjugatedSingleBond NonConjugatedSingleBond NonConjugatedSingleBond NonConjugatedSingleBond AmideSingleBond ConjugatedDoubleBond NonConjugatedSingleBond NonConjugatedSingleBond NonConjugatedSingleBond NonConjugatedSingleBond NonConjugatedSingleBond NonConjugatedSingleBond NonConjugatedSingleBond NonConjugatedSingleBond AmideSingleBond ConjugatedDoubleBond NonConjugatedSingleBond NonConjugatedSingleBond NonConjugatedSingleBond NonConjugatedSingleBond NonConjugatedSingleBond NonConjugatedSingleBond NonConjugatedSingleBond NonConjugatedSingleBond NonConjugatedSingleBond NonConjugatedSingleBond NonConjugatedSingleBond NonConjugatedSingleBond NonConjugatedSingleBond NonConjugatedSingleBond NonConjugatedSingleBond NonConjugatedSingleBond NonConjugatedSingleBond ConjugatedSingleBond ConjugatedSingleBond ConjugatedSingleBond ConjugatedSingleBond NonConjugatedSingleBond ConjugatedSingleBond ConjugatedDoubleBond ConjugatedSingleBond ConjugatedDoubleBond NonConjugatedSingleBond NonConjugatedSingleBond ConjugatedSingleBond ConjugatedDoubleBond ConjugatedSingleBond ConjugatedSingleBond AromaticSingleBond AromaticSingleBond AromaticDoubleBond AromaticSingleBond NonConjugatedSingleBond AromaticDoubleBond AromaticSingleBond AromaticSingleBond AromaticDoubleBond AromaticDoubleBond ConjugatedSingleBond NonConjugatedSingleBond AromaticSingleBond NonConjugatedSingleBond NonConjugatedSingleBond ConjugatedSingleBond ConjugatedDoubleBond ConjugatedSingleBond NonConjugatedSingleBond ConjugatedDoubleBond NonConjugatedSingleBond ConjugatedSingleBond AromaticSingleBond AromaticDoubleBond NonConjugatedSingleBond AromaticDoubleBond NonConjugatedSingleBond AromaticSingleBond NonConjugatedSingleBond AromaticSingleBond AromaticDoubleBond ConjugatedSingleBond ConjugatedSingleBond NonConjugatedSingleBond NonConjugatedSingleBond NonConjugatedSingleBond NonConjugatedSingleBond NonConjugatedSingleBond
M  BCL CHI   1   R   4   R   6   R   8   S  44   S  55   S  56   R
M  BCL DBI - - - - - - - - - - E - - -
M  END
> <ConfClashScore>
0 

> <ConfOneFourInteractionScore>
-0.979502 

> <ConfScore>
0.0493263 

> <ConfScorePBest>
0.00757948 

> <ConfTolerance>
2.99237 

$$$$
L02.****
  PyMOL2.5          3D                             0

101104  0  0  0  0  0  0  0  0999 V2000
   15.2489   -4.2962   -5.5667 C   0  0  0  1  0  0  0  0  0  0  0  0
   15.1671   -5.0292   -4.7916 H   0  0  0  1  0  0  0  0  0  0  0  0
   14.6196   -3.0590   -5.1634 O   0  0  0  1  0  0  0  0  0  0  0  0
   14.4821   -4.7451   -6.8142 C   0  0  0  1  0  0  0  0  0  0  0  0
   14.9874   -4.4387   -7.7062 H   0  0  0  1  0  0  0  0  0  0  0  0
   13.5490   -2.7175   -6.0015 C   0  0  0  1  0  0  0  0  0  0  0  0
   13.8538   -1.9968   -6.7312 H   0  0  0  1  0  0  0  0  0  0  0  0
   13.1579   -4.0411   -6.6746 C   0  0  0  1  0  0  0  0  0  0  0  0
   12.4855   -4.6025   -6.0600 H   0  0  0  1  0  0  0  0  0  0  0  0
   14.3097   -6.1629   -6.8270 O   0  0  0  1  0  0  0  0  0  0  0  0
   15.1499   -6.5896   -6.6433 H   0  0  0  1  0  0  0  0  0  0  0  0
   17.3326  -14.1922   -3.2318 C   0  0  0  1  0  0  0  0  0  0  0  0
   18.3850  -14.1415   -3.0452 H   0  0  0  1  0  0  0  0  0  0  0  0
   16.8523  -14.7127   -2.4297 H   0  0  0  1  0  0  0  0  0  0  0  0
   17.0893  -14.9406   -4.5322 C   0  0  0  1  0  0  0  0  0  0  0  0
   16.0343  -15.0638   -4.6613 H   0  0  0  1  0  0  0  0  0  0  0  0
   17.5553  -15.9014   -4.4639 H   0  0  0  1  0  0  0  0  0  0  0  0
   16.7915  -12.8347   -3.3193 N   0  0  0  1  0  0  0  0  0  0  0  0
   16.3146  -12.5891   -4.1394 H   0  0  0  1  0  0  0  0  0  0  0  0
   16.8998  -11.8977   -2.3573 C   0  0  0  1  0  0  0  0  0  0  0  0
   17.4502  -12.0671   -1.2818 O   0  0  0  1  0  0  0  0  0  0  0  0
   15.9803   -9.7546   -1.4774 C   0  0  0  1  0  0  0  0  0  0  0  0
   16.9024   -9.5745   -0.9654 H   0  0  0  1  0  0  0  0  0  0  0  0
   15.3222  -10.3108   -0.8430 H   0  0  0  1  0  0  0  0  0  0  0  0
   16.2673  -10.5777   -2.7226 C   0  0  0  1  0  0  0  0  0  0  0  0
   15.3497  -10.7601   -3.2418 H   0  0  0  1  0  0  0  0  0  0  0  0
   16.9345  -10.0327   -3.3573 H   0  0  0  1  0  0  0  0  0  0  0  0
   15.3564   -8.4669   -1.7870 N   0  0  0  1  0  0  0  0  0  0  0  0
   15.9162   -7.7415   -2.1346 H   0  0  0  1  0  0  0  0  0  0  0  0
   13.2635   -9.1261   -1.3034 O   0  0  0  1  0  0  0  0  0  0  0  0
   14.0503   -8.2463   -1.6120 C   0  0  0  1  0  0  0  0  0  0  0  0
   12.5254   -4.9366   -0.6088 C   0  0  0  1  0  0  0  0  0  0  0  0
   12.4454   -4.4128    0.3208 H   0  0  0  1  0  0  0  0  0  0  0  0
   11.5576   -5.2797   -0.9098 H   0  0  0  1  0  0  0  0  0  0  0  0
   12.9045   -7.1159    0.5666 C   0  0  0  1  0  0  0  0  0  0  0  0
   11.8993   -7.3656    0.2980 H   0  0  0  1  0  0  0  0  0  0  0  0
   12.9129   -6.6679    1.5383 H   0  0  0  1  0  0  0  0  0  0  0  0
   13.5015   -8.0038    0.5776 H   0  0  0  1  0  0  0  0  0  0  0  0
   13.4774   -6.1278   -0.4565 C   0  0  0  1  0  0  0  0  0  0  0  0
   14.8619   -5.6174   -0.0405 C   0  0  0  1  0  0  0  0  0  0  0  0
   15.2396   -4.9565   -0.7925 H   0  0  0  1  0  0  0  0  0  0  0  0
   15.5283   -6.4468    0.0725 H   0  0  0  1  0  0  0  0  0  0  0  0
   14.7839   -5.0926    0.8886 H   0  0  0  1  0  0  0  0  0  0  0  0
   13.5899   -6.8169   -1.8216 C   0  0  0  1  0  0  0  0  0  0  0  0
   12.6238   -6.8272   -2.2816 H   0  0  0  1  0  0  0  0  0  0  0  0
   14.5146   -6.1299   -2.6346 O   0  0  0  1  0  0  0  0  0  0  0  0
   14.5406   -5.2049   -2.3792 H   0  0  0  1  0  0  0  0  0  0  0  0
   13.0750   -4.0616   -1.6217 O   0  0  0  1  0  0  0  0  0  0  0  0
   11.2014   -2.4681   -2.2756 O   0  0  0  1  0  0  0  0  0  0  0  0
   11.6984   -3.2947   -4.6253 O   0  0  0  1  0  0  0  0  0  0  0  0
   12.6335   -1.9105   -0.3686 O   0  0  0  0  0  0  0  0  0  0  0  0
   13.6644   -1.9145   -2.6789 O   0  0  0  1  0  0  0  0  0  0  0  0
    9.8818   -4.3232   -3.2046 O   0  0  0  0  0  0  0  0  0  0  0  0
    9.6360   -2.0332   -4.2274 O   0  0  0  1  0  0  0  0  0  0  0  0
   12.6800   -2.5478   -1.7552 P   0  0  0  1  0  0  0  0  0  0  0  0
   10.5586   -3.0087   -3.6049 P   0  0  0  1  0  0  0  0  0  0  0  0
   12.4088   -2.1710   -5.2070 C   0  0  0  1  0  0  0  0  0  0  0  0
   11.7530   -1.6161   -5.8449 H   0  0  0  1  0  0  0  0  0  0  0  0
   12.7778   -1.5324   -4.4318 H   0  0  0  1  0  0  0  0  0  0  0  0
   12.5498   -3.8089   -7.9709 O   0  0  0  1  0  0  0  0  0  0  0  0
   10.0288   -3.9520   -7.1457 O   0  0  0  1  0  0  0  0  0  0  0  0
   10.9146   -5.5132   -9.0649 O   0  5  0  1  0  0  0  0  0  0  0  0
   10.9654   -4.0955   -8.2826 P   0  0  0  1  0  0  0  0  0  0  0  0
   10.6846   -3.0582   -9.4949 O   0  5  0  1  0  0  0  0  0  0  0  0
   16.6579   -4.0755   -5.8826 N   0  0  0  1  0  0  0  0  0  0  0  0
   17.6705   -3.8776   -4.9797 C   0  0  0  1  0  0  0  0  0  0  0  0
   17.1827   -3.7639   -7.0993 C   0  0  0  1  0  0  0  0  0  0  0  0
   16.6283   -3.8169   -7.9776 H   0  0  0  1  0  0  0  0  0  0  0  0
   18.7709   -3.4547   -5.7373 C   0  0  0  1  0  0  0  0  0  0  0  0
   17.6349   -4.0600   -3.6589 N   0  0  0  1  0  0  0  0  0  0  0  0
   18.4343   -3.3936   -7.0807 N   0  0  0  1  0  0  0  0  0  0  0  0
   19.9350   -3.2056   -5.0164 C   0  0  0  1  0  0  0  0  0  0  0  0
   18.8057   -3.7786   -3.1005 C   0  0  0  1  0  0  0  0  0  0  0  0
   18.8510   -3.8944   -2.0679 H   0  0  0  1  0  0  0  0  0  0  0  0
   19.9393   -3.3649   -3.6885 N   0  0  0  1  0  0  0  0  0  0  0  0
   21.0526   -2.8003   -5.6972 N   0  0  0  1  0  0  0  0  0  0  0  0
   21.8606   -2.5450   -5.2049 H   0  0  0  1  0  0  0  0  0  0  0  0
   21.0441   -2.7656   -6.6765 H   0  0  0  1  0  0  0  0  0  0  0  0
   17.7494  -14.0836   -5.9816 S   0  0  0  1  0  0  0  0  0  0  0  0
   20.0602  -14.7123   -4.8592 O   0  0  0  1  0  0  0  0  0  0  0  0
   19.5311  -14.1020   -5.7380 C   0  0  0  1  0  0  0  0  0  0  0  0
   20.2320  -13.4632   -6.8476 C   0  0  0  1  0  0  0  0  0  0  0  0
   19.6325  -13.0450   -7.5874 H   0  0  0  1  0  0  0  0  0  0  0  0
   21.5476  -13.3513   -7.0267 C   0  0  0  1  0  0  0  0  0  0  0  0
   22.2009  -13.7491   -6.3220 H   0  0  0  1  0  0  0  0  0  0  0  0
   22.0851  -12.6636   -8.2235 C   0  0  0  1  0  0  0  0  0  0  0  0
   23.4462  -12.4183   -8.3175 C   0  0  0  1  0  0  0  0  0  0  0  0
   24.0829  -12.7202   -7.5526 H   0  0  0  1  0  0  0  0  0  0  0  0
   21.2397  -12.2671   -9.2424 C   0  0  0  1  0  0  0  0  0  0  0  0
   20.2191  -12.4547   -9.1738 H   0  0  0  1  0  0  0  0  0  0  0  0
   23.9572  -11.7726   -9.4276 C   0  0  0  1  0  0  0  0  0  0  0  0
   24.9778  -11.5850   -9.4962 H   0  0  0  1  0  0  0  0  0  0  0  0
   21.7519  -11.6195  -10.3559 C   0  0  0  1  0  0  0  0  0  0  0  0
   23.1091  -11.3750  -10.4494 C   0  0  0  1  0  0  0  0  0  0  0  0
   23.6810  -10.7524  -11.5087 O   0  0  0  1  0  0  0  0  0  0  0  0
   24.5631  -11.1044  -11.6492 H   0  0  0  1  0  0  0  0  0  0  0  0
   21.0276  -11.1839  -11.4049 O   0  0  0  1  0  0  0  0  0  0  0  0
   21.3031   -9.8249  -11.8169 C   0  0  0  1  0  0  0  0  0  0  0  0
   20.4689   -9.4424  -12.3671 H   0  0  0  1  0  0  0  0  0  0  0  0
   22.1755   -9.8101  -12.4362 H   0  0  0  1  0  0  0  0  0  0  0  0
   21.4687   -9.2169  -10.9521 H   0  0  0  1  0  0  0  0  0  0  0  0
  1  2  1  0  0  0  0
  1  3  1  0  0  0  0
  1  4  1  0  0  0  0
  1 65  1  0  0  0  0
  3  6  1  0  0  0  0
  4  5  1  0  0  0  0
  4  8  1  0  0  0  0
  4 10  1  0  0  0  0
  6  7  1  0  0  0  0
  6  8  1  0  0  0  0
  6 57  1  0  0  0  0
  8  9  1  0  0  0  0
  8 60  1  0  0  0  0
 10 11  1  0  0  0  0
 12 13  1  0  0  0  0
 12 14  1  0  0  0  0
 12 15  1  0  0  0  0
 12 18  1  0  0  0  0
 15 16  1  0  0  0  0
 15 17  1  0  0  0  0
 15 79  1  0  0  0  0
 18 19  1  0  0  0  0
 18 20  1  0  0  0  0
 20 21  2  0  0  0  0
 20 25  1  0  0  0  0
 22 23  1  0  0  0  0
 22 24  1  0  0  0  0
 22 25  1  0  0  0  0
 22 28  1  0  0  0  0
 25 26  1  0  0  0  0
 25 27  1  0  0  0  0
 28 29  1  0  0  0  0
 28 31  1  0  0  0  0
 30 31  2  0  0  0  0
 31 44  1  0  0  0  0
 32 33  1  0  0  0  0
 32 34  1  0  0  0  0
 32 39  1  0  0  0  0
 32 48  1  0  0  0  0
 35 36  1  0  0  0  0
 35 37  1  0  0  0  0
 35 38  1  0  0  0  0
 35 39  1  0  0  0  0
 39 40  1  0  0  0  0
 39 44  1  0  0  0  0
 40 41  1  0  0  0  0
 40 42  1  0  0  0  0
 40 43  1  0  0  0  0
 44 45  1  0  0  0  0
 44 46  1  0  0  0  0
 46 47  1  0  0  0  0
 48 55  1  0  0  0  0
 49 55  1  0  0  0  0
 49 56  1  0  0  0  0
 50 56  1  0  0  0  0
 50 57  1  0  0  0  0
 51 55  1  0  0  0  0
 52 55  2  0  0  0  0
 53 56  1  0  0  0  0
 54 56  2  0  0  0  0
 57 58  1  0  0  0  0
 57 59  1  0  0  0  0
 60 63  1  0  0  0  0
 61 63  2  0  0  0  0
 62 63  1  0  0  0  0
 63 64  1  0  0  0  0
 65 66  1  0  0  0  0
 65 67  1  0  0  0  0
 66 69  2  0  0  0  0
 66 70  1  0  0  0  0
 67 68  1  0  0  0  0
 67 71  2  0  0  0  0
 69 71  1  0  0  0  0
 69 72  1  0  0  0  0
 70 73  2  0  0  0  0
 72 75  2  0  0  0  0
 72 76  1  0  0  0  0
 73 74  1  0  0  0  0
 73 75  1  0  0  0  0
 76 77  1  0  0  0  0
 76 78  1  0  0  0  0
 79 81  1  0  0  0  0
 80 81  2  0  0  0  0
 81 82  1  0  0  0  0
 82 83  1  0  0  0  0
 82 84  2  0  0  0  0
 84 85  1  0  0  0  0
 84 86  1  0  0  0  0
 86 87  1  0  0  0  0
 86 89  2  0  0  0  0
 87 88  1  0  0  0  0
 87 91  2  0  0  0  0
 89 90  1  0  0  0  0
 89 93  1  0  0  0  0
 91 92  1  0  0  0  0
 91 94  1  0  0  0  0
 93 94  2  0  0  0  0
 93 97  1  0  0  0  0
 94 95  1  0  0  0  0
 95 96  1  0  0  0  0
 97 98  1  0  0  0  0
 98 99  1  0  0  0  0
 98100  1  0  0  0  0
 98101  1  0  0  0  0
M  BCL ATM C_TeTeTeTe H_S O_Te2Te2TeTe C_TeTeTeTe H_S C_TeTeTeTe H_S C_TeTeTeTe H_S O_Te2Te2TeTe H_S C_TeTeTeTe H_S H_S C_TeTeTeTe H_S H_S N_TrTrTrPi2 H_S C_TrTrTrPi O_Tr2Tr2TrPi C_TeTeTeTe H_S H_S C_TeTeTeTe H_S H_S N_TrTrTrPi2 H_S O_Tr2Tr2TrPi C_TrTrTrPi C_TeTeTeTe H_S H_S C_TeTeTeTe H_S H_S H_S C_TeTeTeTe C_TeTeTeTe H_S H_S H_S C_TeTeTeTe H_S O_Te2Te2TeTe H_S O_Tr2TrTrPi2 O_Tr2TrTrPi2 O_Tr2TrTrPi2 O_Te2Te2TeTe O_Tr2Tr2TrPi O_Te2Te2TeTe O_Tr2Tr2TrPi P_TeTeTeTePi P_TeTeTeTePi C_TeTeTeTe H_S H_S O_Tr2TrTrPi2 O_Tr2Tr2TrPi O_Te2Te2Te2Te P_TeTeTeTePi O_Te2Te2Te2Te N_TrTrTrPi2 C_TrTrTrPi C_TrTrTrPi H_S C_TrTrTrPi N_Tr2TrTrPi N_Tr2TrTrPi C_TrTrTrPi C_TrTrTrPi H_S N_Tr2TrTrPi N_TrTrTrPi2 H_S H_S S_Te2Te2TeTe O_Tr2Tr2TrPi C_TrTrTrPi C_TrTrTrPi H_S C_TrTrTrPi H_S C_TrTrTrPi C_TrTrTrPi H_S C_TrTrTrPi H_S C_TrTrTrPi H_S C_TrTrTrPi C_TrTrTrPi O_Te2Te2TeTe H_S O_Tr2TrTrPi2 C_TeTeTeTe H_S H_S H_S
M  BCL BND NonConjugatedSingleBond NonConjugatedSingleBondInRing NonConjugatedSingleBondInRing NonConjugatedSingleBond NonConjugatedSingleBondInRing NonConjugatedSingleBond NonConjugatedSingleBondInRing NonConjugatedSingleBond NonConjugatedSingleBond NonConjugatedSingleBondInRing NonConjugatedSingleBond NonConjugatedSingleBond NonConjugatedSingleBond NonConjugatedSingleBond NonConjugatedSingleBond NonConjugatedSingleBond NonConjugatedSingleBond NonConjugatedSingleBond NonConjugatedSingleBond NonConjugatedSingleBond NonConjugatedSingleBond NonConjugatedSingleBond AmideSingleBond ConjugatedDoubleBond NonConjugatedSingleBond NonConjugatedSingleBond NonConjugatedSingleBond NonConjugatedSingleBond NonConjugatedSingleBond NonConjugatedSingleBond NonConjugatedSingleBond NonConjugatedSingleBond AmideSingleBond ConjugatedDoubleBond NonConjugatedSingleBond NonConjugatedSingleBond NonConjugatedSingleBond NonConjugatedSingleBond NonConjugatedSingleBond NonConjugatedSingleBond NonConjugatedSingleBond NonConjugatedSingleBond NonConjugatedSingleBond NonConjugatedSingleBond NonConjugatedSingleBond NonConjugatedSingleBond NonConjugatedSingleBond NonConjugatedSingleBond NonConjugatedSingleBond NonConjugatedSingleBond NonConjugatedSingleBond ConjugatedSingleBond ConjugatedSingleBond ConjugatedSingleBond ConjugatedSingleBond NonConjugatedSingleBond ConjugatedSingleBond ConjugatedDoubleBond ConjugatedSingleBond ConjugatedDoubleBond NonConjugatedSingleBond NonConjugatedSingleBond ConjugatedSingleBond ConjugatedDoubleBond ConjugatedSingleBond ConjugatedSingleBond AromaticSingleBond AromaticSingleBond AromaticDoubleBond AromaticSingleBond NonConjugatedSingleBond AromaticDoubleBond AromaticSingleBond AromaticSingleBond AromaticDoubleBond AromaticDoubleBond ConjugatedSingleBond NonConjugatedSingleBond AromaticSingleBond NonConjugatedSingleBond NonConjugatedSingleBond ConjugatedSingleBond ConjugatedDoubleBond ConjugatedSingleBond NonConjugatedSingleBond ConjugatedDoubleBond NonConjugatedSingleBond ConjugatedSingleBond AromaticSingleBond AromaticDoubleBond NonConjugatedSingleBond AromaticDoubleBond NonConjugatedSingleBond AromaticSingleBond NonConjugatedSingleBond AromaticSingleBond AromaticDoubleBond ConjugatedSingleBond ConjugatedSingleBond NonConjugatedSingleBond NonConjugatedSingleBond NonConjugatedSingleBond NonConjugatedSingleBond NonConjugatedSingleBond
M  BCL CHI   1   R   4   R   6   R   8   S  44   S  55   S  56   R
M  BCL DBI - - - - - - - - - - E - - -
M  END
> <ConfClashScore>
0 

> <ConfOneFourInteractionScore>
-0.976671 

> <ConfScore>
0.0505686 

> <ConfScorePBest>
0.00747648 

> <ConfTolerance>
2.92065 

$$$$
L02.****
  PyMOL2.5          3D                             0

101104  0  0  0  0  0  0  0  0999 V2000
   15.2379   -4.4056   -5.6012 C   0  0  0  1  0  0  0  0  0  0  0  0
   14.9317   -3.9516   -4.6819 H   0  0  0  1  0  0  0  0  0  0  0  0
   14.3877   -3.9747   -6.6878 O   0  0  0  1  0  0  0  0  0  0  0  0
   15.0609   -5.9254   -5.5352 C   0  0  0  1  0  0  0  0  0  0  0  0
   15.8411   -6.4262   -6.0694 H   0  0  0  1  0  0  0  0  0  0  0  0
   13.6987   -5.0468   -7.2716 C   0  0  0  1  0  0  0  0  0  0  0  0
   14.1931   -5.3753   -8.1618 H   0  0  0  1  0  0  0  0  0  0  0  0
   13.7260   -6.1441   -6.1978 C   0  0  0  1  0  0  0  0  0  0  0  0
   12.9243   -6.0211   -5.5000 H   0  0  0  1  0  0  0  0  0  0  0  0
   15.0416   -6.3807   -4.1815 O   0  0  0  1  0  0  0  0  0  0  0  0
   14.3810   -7.0705   -4.0848 H   0  0  0  1  0  0  0  0  0  0  0  0
    8.1208    4.8695   -4.9855 C   0  0  0  1  0  0  0  0  0  0  0  0
    8.5449    5.8459   -4.8776 H   0  0  0  1  0  0  0  0  0  0  0  0
    7.6057    4.6025   -4.0864 H   0  0  0  1  0  0  0  0  0  0  0  0
    9.2479    3.8704   -5.2177 C   0  0  0  1  0  0  0  0  0  0  0  0
   10.1568    4.2366   -4.7880 H   0  0  0  1  0  0  0  0  0  0  0  0
    9.3872    3.7121   -6.2668 H   0  0  0  1  0  0  0  0  0  0  0  0
    7.1634    4.8955   -6.0812 N   0  0  0  1  0  0  0  0  0  0  0  0
    7.4571    5.1486   -6.9813 H   0  0  0  1  0  0  0  0  0  0  0  0
    5.8849    4.5751   -5.8627 C   0  0  0  1  0  0  0  0  0  0  0  0
    5.4447    4.2988   -4.7476 O   0  0  0  1  0  0  0  0  0  0  0  0
    4.1067    3.3659   -7.2867 C   0  0  0  1  0  0  0  0  0  0  0  0
    3.5492    3.5048   -8.1894 H   0  0  0  1  0  0  0  0  0  0  0  0
    3.4329    3.2883   -6.4591 H   0  0  0  1  0  0  0  0  0  0  0  0
    4.9956    4.5702   -7.0763 C   0  0  0  1  0  0  0  0  0  0  0  0
    5.6267    4.6564   -7.9360 H   0  0  0  1  0  0  0  0  0  0  0  0
    4.3609    5.4292   -7.0116 H   0  0  0  1  0  0  0  0  0  0  0  0
    4.8663    2.1188   -7.3917 N   0  0  0  1  0  0  0  0  0  0  0  0
    5.0616    1.6138   -6.5749 H   0  0  0  1  0  0  0  0  0  0  0  0
    5.0962    2.2094   -9.6361 O   0  0  0  1  0  0  0  0  0  0  0  0
    5.3025    1.6453   -8.5624 C   0  0  0  1  0  0  0  0  0  0  0  0
    8.0473   -0.9318   -9.2875 C   0  0  0  1  0  0  0  0  0  0  0  0
    7.4585   -1.7854   -9.5514 H   0  0  0  1  0  0  0  0  0  0  0  0
    8.3445   -1.0060   -8.2623 H   0  0  0  1  0  0  0  0  0  0  0  0
    6.7501    0.4808  -10.9503 C   0  0  0  1  0  0  0  0  0  0  0  0
    7.4090    1.1462  -11.4679 H   0  0  0  1  0  0  0  0  0  0  0  0
    5.7546    0.8722  -10.9775 H   0  0  0  1  0  0  0  0  0  0  0  0
    6.7695   -0.4791  -11.4228 H   0  0  0  1  0  0  0  0  0  0  0  0
    7.2084    0.3406   -9.4802 C   0  0  0  1  0  0  0  0  0  0  0  0
    8.0882    1.5374   -9.1008 C   0  0  0  1  0  0  0  0  0  0  0  0
    8.9095    1.2016   -8.5027 H   0  0  0  1  0  0  0  0  0  0  0  0
    7.5081    2.2442   -8.5450 H   0  0  0  1  0  0  0  0  0  0  0  0
    8.4610    2.0017   -9.9898 H   0  0  0  1  0  0  0  0  0  0  0  0
    6.0009    0.2914   -8.5381 C   0  0  0  1  0  0  0  0  0  0  0  0
    5.3203   -0.4560   -8.8890 H   0  0  0  1  0  0  0  0  0  0  0  0
    6.4256   -0.0078   -7.2197 O   0  0  0  1  0  0  0  0  0  0  0  0
    7.3074    0.3448   -7.0793 H   0  0  0  1  0  0  0  0  0  0  0  0
    9.2189   -0.8905  -10.1177 O   0  0  0  1  0  0  0  0  0  0  0  0
   10.0825   -3.0981   -9.5646 O   0  0  0  1  0  0  0  0  0  0  0  0
   12.2827   -4.1328   -8.9472 O   0  0  0  1  0  0  0  0  0  0  0  0
   11.4272   -1.4894  -11.0406 O   0  0  0  0  0  0  0  0  0  0  0  0
   11.2486   -1.0707   -8.5423 O   0  0  0  1  0  0  0  0  0  0  0  0
   10.3399   -5.6034   -9.3329 O   0  0  0  0  0  0  0  0  0  0  0  0
   11.3638   -4.3233  -11.2843 O   0  0  0  1  0  0  0  0  0  0  0  0
   10.6121   -1.6057   -9.7879 P   0  0  0  1  0  0  0  0  0  0  0  0
   11.0091   -4.3892   -9.8501 P   0  0  0  1  0  0  0  0  0  0  0  0
   12.2936   -4.6589   -7.5958 C   0  0  0  1  0  0  0  0  0  0  0  0
   11.9549   -3.9101   -6.9106 H   0  0  0  1  0  0  0  0  0  0  0  0
   11.6554   -5.5154   -7.5331 H   0  0  0  1  0  0  0  0  0  0  0  0
   13.6491   -7.4619   -6.7955 O   0  0  0  1  0  0  0  0  0  0  0  0
   11.9261   -8.1094   -5.0533 O   0  0  0  1  0  0  0  0  0  0  0  0
   14.2401   -9.0545   -4.9896 O   0  5  0  1  0  0  0  0  0  0  0  0
   12.9744   -8.6797   -5.9286 P   0  0  0  1  0  0  0  0  0  0  0  0
   12.6201   -9.9056   -6.9266 O   0  5  0  1  0  0  0  0  0  0  0  0
   16.6358   -4.0620   -5.8745 N   0  0  0  1  0  0  0  0  0  0  0  0
   17.6596   -3.8607   -4.9851 C   0  0  0  1  0  0  0  0  0  0  0  0
   17.1486   -3.7656   -7.1001 C   0  0  0  1  0  0  0  0  0  0  0  0
   16.5840   -3.8244   -7.9715 H   0  0  0  1  0  0  0  0  0  0  0  0
   18.7537   -3.4516   -5.7593 C   0  0  0  1  0  0  0  0  0  0  0  0
   17.6380   -4.0295   -3.6622 N   0  0  0  1  0  0  0  0  0  0  0  0
   18.4023   -3.4022   -7.0993 N   0  0  0  1  0  0  0  0  0  0  0  0
   19.9272   -3.2017   -5.0541 C   0  0  0  1  0  0  0  0  0  0  0  0
   18.8166   -3.7491   -3.1199 C   0  0  0  1  0  0  0  0  0  0  0  0
   18.8729   -3.8546   -2.0868 H   0  0  0  1  0  0  0  0  0  0  0  0
   19.9458   -3.3477   -3.7248 N   0  0  0  1  0  0  0  0  0  0  0  0
   21.0871   -2.8072   -5.6548 N   0  0  0  1  0  0  0  0  0  0  0  0
   21.1295   -2.7226   -6.6302 H   0  0  0  1  0  0  0  0  0  0  0  0
   21.8776   -2.6084   -5.1109 H   0  0  0  1  0  0  0  0  0  0  0  0
    8.7625    2.3234   -4.4165 S   0  0  0  1  0  0  0  0  0  0  0  0
   11.1409    1.7466   -5.3979 O   0  0  0  1  0  0  0  0  0  0  0  0
   10.1703    1.3136   -4.8211 C   0  0  0  1  0  0  0  0  0  0  0  0
   10.0466   -0.0770   -4.3952 C   0  0  0  1  0  0  0  0  0  0  0  0
    9.1443   -0.3407   -3.9503 H   0  0  0  1  0  0  0  0  0  0  0  0
   10.9507   -1.0493   -4.5079 C   0  0  0  1  0  0  0  0  0  0  0  0
   11.8674   -0.8292   -4.9469 H   0  0  0  1  0  0  0  0  0  0  0  0
   10.7041   -2.4296   -4.0340 C   0  0  0  1  0  0  0  0  0  0  0  0
   11.4987   -3.4918   -4.4365 C   0  0  0  1  0  0  0  0  0  0  0  0
   12.2951   -3.3288   -5.0851 H   0  0  0  1  0  0  0  0  0  0  0  0
    9.6491   -2.6454   -3.1678 C   0  0  0  1  0  0  0  0  0  0  0  0
    9.0554   -1.8479   -2.8627 H   0  0  0  1  0  0  0  0  0  0  0  0
   11.2326   -4.7674   -3.9758 C   0  0  0  1  0  0  0  0  0  0  0  0
   11.8263   -5.5649   -4.2809 H   0  0  0  1  0  0  0  0  0  0  0  0
    9.3820   -3.9247   -2.7056 C   0  0  0  1  0  0  0  0  0  0  0  0
   10.1743   -4.9837   -3.1069 C   0  0  0  1  0  0  0  0  0  0  0  0
    9.8774   -6.2148   -2.6243 O   0  0  0  1  0  0  0  0  0  0  0  0
    9.5156   -6.7567   -3.3293 H   0  0  0  1  0  0  0  0  0  0  0  0
    8.3769   -4.2578   -1.8614 O   0  0  0  1  0  0  0  0  0  0  0  0
    7.6960   -3.1830   -1.1953 C   0  0  0  1  0  0  0  0  0  0  0  0
    8.2706   -2.8655   -0.3503 H   0  0  0  1  0  0  0  0  0  0  0  0
    6.7349   -3.5193   -0.8667 H   0  0  0  1  0  0  0  0  0  0  0  0
    7.5754   -2.3635   -1.8726 H   0  0  0  1  0  0  0  0  0  0  0  0
  1  2  1  0  0  0  0
  1  3  1  0  0  0  0
  1  4  1  0  0  0  0
  1 65  1  0  0  0  0
  3  6  1  0  0  0  0
  4  5  1  0  0  0  0
  4  8  1  0  0  0  0
  4 10  1  0  0  0  0
  6  7  1  0  0  0  0
  6  8  1  0  0  0  0
  6 57  1  0  0  0  0
  8  9  1  0  0  0  0
  8 60  1  0  0  0  0
 10 11  1  0  0  0  0
 12 13  1  0  0  0  0
 12 14  1  0  0  0  0
 12 15  1  0  0  0  0
 12 18  1  0  0  0  0
 15 16  1  0  0  0  0
 15 17  1  0  0  0  0
 15 79  1  0  0  0  0
 18 19  1  0  0  0  0
 18 20  1  0  0  0  0
 20 21  2  0  0  0  0
 20 25  1  0  0  0  0
 22 23  1  0  0  0  0
 22 24  1  0  0  0  0
 22 25  1  0  0  0  0
 22 28  1  0  0  0  0
 25 26  1  0  0  0  0
 25 27  1  0  0  0  0
 28 29  1  0  0  0  0
 28 31  1  0  0  0  0
 30 31  2  0  0  0  0
 31 44  1  0  0  0  0
 32 33  1  0  0  0  0
 32 34  1  0  0  0  0
 32 39  1  0  0  0  0
 32 48  1  0  0  0  0
 35 36  1  0  0  0  0
 35 37  1  0  0  0  0
 35 38  1  0  0  0  0
 35 39  1  0  0  0  0
 39 40  1  0  0  0  0
 39 44  1  0  0  0  0
 40 41  1  0  0  0  0
 40 42  1  0  0  0  0
 40 43  1  0  0  0  0
 44 45  1  0  0  0  0
 44 46  1  0  0  0  0
 46 47  1  0  0  0  0
 48 55  1  0  0  0  0
 49 55  1  0  0  0  0
 49 56  1  0  0  0  0
 50 56  1  0  0  0  0
 50 57  1  0  0  0  0
 51 55  1  0  0  0  0
 52 55  2  0  0  0  0
 53 56  1  0  0  0  0
 54 56  2  0  0  0  0
 57 58  1  0  0  0  0
 57 59  1  0  0  0  0
 60 63  1  0  0  0  0
 61 63  2  0  0  0  0
 62 63  1  0  0  0  0
 63 64  1  0  0  0  0
 65 66  1  0  0  0  0
 65 67  1  0  0  0  0
 66 69  2  0  0  0  0
 66 70  1  0  0  0  0
 67 68  1  0  0  0  0
 67 71  2  0  0  0  0
 69 71  1  0  0  0  0
 69 72  1  0  0  0  0
 70 73  2  0  0  0  0
 72 75  2  0  0  0  0
 72 76  1  0  0  0  0
 73 74  1  0  0  0  0
 73 75  1  0  0  0  0
 76 77  1  0  0  0  0
 76 78  1  0  0  0  0
 79 81  1  0  0  0  0
 80 81  2  0  0  0  0
 81 82  1  0  0  0  0
 82 83  1  0  0  0  0
 82 84  2  0  0  0  0
 84 85  1  0  0  0  0
 84 86  1  0  0  0  0
 86 87  1  0  0  0  0
 86 89  2  0  0  0  0
 87 88  1  0  0  0  0
 87 91  2  0  0  0  0
 89 90  1  0  0  0  0
 89 93  1  0  0  0  0
 91 92  1  0  0  0  0
 91 94  1  0  0  0  0
 93 94  2  0  0  0  0
 93 97  1  0  0  0  0
 94 95  1  0  0  0  0
 95 96  1  0  0  0  0
 97 98  1  0  0  0  0
 98 99  1  0  0  0  0
 98100  1  0  0  0  0
 98101  1  0  0  0  0
M  BCL ATM C_TeTeTeTe H_S O_Te2Te2TeTe C_TeTeTeTe H_S C_TeTeTeTe H_S C_TeTeTeTe H_S O_Te2Te2TeTe H_S C_TeTeTeTe H_S H_S C_TeTeTeTe H_S H_S N_TrTrTrPi2 H_S C_TrTrTrPi O_Tr2Tr2TrPi C_TeTeTeTe H_S H_S C_TeTeTeTe H_S H_S N_TrTrTrPi2 H_S O_Tr2Tr2TrPi C_TrTrTrPi C_TeTeTeTe H_S H_S C_TeTeTeTe H_S H_S H_S C_TeTeTeTe C_TeTeTeTe H_S H_S H_S C_TeTeTeTe H_S O_Te2Te2TeTe H_S O_Tr2TrTrPi2 O_Tr2TrTrPi2 O_Tr2TrTrPi2 O_Te2Te2TeTe O_Tr2Tr2TrPi O_Te2Te2TeTe O_Tr2Tr2TrPi P_TeTeTeTePi P_TeTeTeTePi C_TeTeTeTe H_S H_S O_Tr2TrTrPi2 O_Tr2Tr2TrPi O_Te2Te2Te2Te P_TeTeTeTePi O_Te2Te2Te2Te N_TrTrTrPi2 C_TrTrTrPi C_TrTrTrPi H_S C_TrTrTrPi N_Tr2TrTrPi N_Tr2TrTrPi C_TrTrTrPi C_TrTrTrPi H_S N_Tr2TrTrPi N_TrTrTrPi2 H_S H_S S_Te2Te2TeTe O_Tr2Tr2TrPi C_TrTrTrPi C_TrTrTrPi H_S C_TrTrTrPi H_S C_TrTrTrPi C_TrTrTrPi H_S C_TrTrTrPi H_S C_TrTrTrPi H_S C_TrTrTrPi C_TrTrTrPi O_Te2Te2TeTe H_S O_Tr2TrTrPi2 C_TeTeTeTe H_S H_S H_S
M  BCL BND NonConjugatedSingleBond NonConjugatedSingleBondInRing NonConjugatedSingleBondInRing NonConjugatedSingleBond NonConjugatedSingleBondInRing NonConjugatedSingleBond NonConjugatedSingleBondInRing NonConjugatedSingleBond NonConjugatedSingleBond NonConjugatedSingleBondInRing NonConjugatedSingleBond NonConjugatedSingleBond NonConjugatedSingleBond NonConjugatedSingleBond NonConjugatedSingleBond NonConjugatedSingleBond NonConjugatedSingleBond NonConjugatedSingleBond NonConjugatedSingleBond NonConjugatedSingleBond NonConjugatedSingleBond NonConjugatedSingleBond AmideSingleBond ConjugatedDoubleBond NonConjugatedSingleBond NonConjugatedSingleBond NonConjugatedSingleBond NonConjugatedSingleBond NonConjugatedSingleBond NonConjugatedSingleBond NonConjugatedSingleBond NonConjugatedSingleBond AmideSingleBond ConjugatedDoubleBond NonConjugatedSingleBond NonConjugatedSingleBond NonConjugatedSingleBond NonConjugatedSingleBond NonConjugatedSingleBond NonConjugatedSingleBond NonConjugatedSingleBond NonConjugatedSingleBond NonConjugatedSingleBond NonConjugatedSingleBond NonConjugatedSingleBond NonConjugatedSingleBond NonConjugatedSingleBond NonConjugatedSingleBond NonConjugatedSingleBond NonConjugatedSingleBond NonConjugatedSingleBond ConjugatedSingleBond ConjugatedSingleBond ConjugatedSingleBond ConjugatedSingleBond NonConjugatedSingleBond ConjugatedSingleBond ConjugatedDoubleBond ConjugatedSingleBond ConjugatedDoubleBond NonConjugatedSingleBond NonConjugatedSingleBond ConjugatedSingleBond ConjugatedDoubleBond ConjugatedSingleBond ConjugatedSingleBond AromaticSingleBond AromaticSingleBond AromaticDoubleBond AromaticSingleBond NonConjugatedSingleBond AromaticDoubleBond AromaticSingleBond AromaticSingleBond AromaticDoubleBond AromaticDoubleBond ConjugatedSingleBond NonConjugatedSingleBond AromaticSingleBond NonConjugatedSingleBond NonConjugatedSingleBond ConjugatedSingleBond ConjugatedDoubleBond ConjugatedSingleBond NonConjugatedSingleBond ConjugatedDoubleBond NonConjugatedSingleBond ConjugatedSingleBond AromaticSingleBond AromaticDoubleBond NonConjugatedSingleBond AromaticDoubleBond NonConjugatedSingleBond AromaticSingleBond NonConjugatedSingleBond AromaticSingleBond AromaticDoubleBond ConjugatedSingleBond ConjugatedSingleBond NonConjugatedSingleBond NonConjugatedSingleBond NonConjugatedSingleBond NonConjugatedSingleBond NonConjugatedSingleBond
M  BCL CHI   1   R   4   R   6   R   8   S  44   S  55   S  56   R
M  BCL DBI - - - - - - - - - - E - - -
M  END
> <ConfClashScore>
0 

> <ConfOneFourInteractionScore>
-0.973712 

> <ConfScore>
0.0579499 

> <ConfScorePBest>
0.00737347 

> <ConfTolerance>
3.24519 

$$$$
L02.****
  PyMOL2.5          3D                             0

101104  0  0  0  0  0  0  0  0999 V2000
   15.2700   -4.4936   -5.5662 C   0  0  0  1  0  0  0  0  0  0  0  0
   15.2976   -5.4648   -5.1178 H   0  0  0  1  0  0  0  0  0  0  0  0
   14.6433   -3.5622   -4.6857 O   0  0  0  1  0  0  0  0  0  0  0  0
   14.4418   -4.5233   -6.8140 C   0  0  0  1  0  0  0  0  0  0  0  0
   14.8660   -3.8899   -7.5649 H   0  0  0  1  0  0  0  0  0  0  0  0
   13.2390   -3.7366   -4.8919 C   0  0  0  1  0  0  0  0  0  0  0  0
   12.7065   -2.8515   -4.6125 H   0  0  0  1  0  0  0  0  0  0  0  0
   13.0829   -4.0042   -6.3785 C   0  0  0  1  0  0  0  0  0  0  0  0
   12.3238   -4.7378   -6.5533 H   0  0  0  1  0  0  0  0  0  0  0  0
   14.3358   -5.8555   -7.3183 O   0  0  0  1  0  0  0  0  0  0  0  0
   14.9434   -5.9695   -8.0527 H   0  0  0  1  0  0  0  0  0  0  0  0
    9.1495   -3.6210  -14.2169 C   0  0  0  1  0  0  0  0  0  0  0  0
    8.6000   -3.1422  -15.0003 H   0  0  0  1  0  0  0  0  0  0  0  0
   10.1848   -3.3627  -14.2973 H   0  0  0  1  0  0  0  0  0  0  0  0
    8.9981   -5.1166  -14.3448 C   0  0  0  1  0  0  0  0  0  0  0  0
    9.2272   -5.3876  -15.3542 H   0  0  0  1  0  0  0  0  0  0  0  0
    7.9800   -5.3661  -14.1302 H   0  0  0  1  0  0  0  0  0  0  0  0
    8.6380   -3.1687  -12.9218 N   0  0  0  1  0  0  0  0  0  0  0  0
    7.7095   -2.8610  -12.8613 H   0  0  0  1  0  0  0  0  0  0  0  0
    9.4005   -3.1606  -11.8088 C   0  0  0  1  0  0  0  0  0  0  0  0
   10.5154   -3.6806  -11.7984 O   0  0  0  1  0  0  0  0  0  0  0  0
    9.9233   -2.0979   -9.5711 C   0  0  0  1  0  0  0  0  0  0  0  0
   10.5105   -1.3095   -9.9936 H   0  0  0  1  0  0  0  0  0  0  0  0
   10.5466   -2.9476   -9.3857 H   0  0  0  1  0  0  0  0  0  0  0  0
    8.8447   -2.4929  -10.5714 C   0  0  0  1  0  0  0  0  0  0  0  0
    8.1685   -3.1705  -10.0933 H   0  0  0  1  0  0  0  0  0  0  0  0
    8.3163   -1.6111  -10.8684 H   0  0  0  1  0  0  0  0  0  0  0  0
    9.3667   -1.6376   -8.2977 N   0  0  0  1  0  0  0  0  0  0  0  0
    9.0710   -0.7065   -8.2197 H   0  0  0  1  0  0  0  0  0  0  0  0
    9.6522   -3.6046   -7.2309 O   0  0  0  1  0  0  0  0  0  0  0  0
    9.2478   -2.4427   -7.2381 C   0  0  0  1  0  0  0  0  0  0  0  0
    7.1783   -3.9163   -5.6756 C   0  0  0  1  0  0  0  0  0  0  0  0
    7.5494   -4.3618   -6.5749 H   0  0  0  1  0  0  0  0  0  0  0  0
    6.1787   -4.2531   -5.4963 H   0  0  0  1  0  0  0  0  0  0  0  0
    6.4986   -1.7841   -4.6131 C   0  0  0  1  0  0  0  0  0  0  0  0
    6.3840   -0.7292   -4.7508 H   0  0  0  1  0  0  0  0  0  0  0  0
    7.1148   -1.9671   -3.7577 H   0  0  0  1  0  0  0  0  0  0  0  0
    5.5378   -2.2304   -4.4632 H   0  0  0  1  0  0  0  0  0  0  0  0
    7.1568   -2.3940   -5.8565 C   0  0  0  1  0  0  0  0  0  0  0  0
    6.2910   -2.0780   -7.0803 C   0  0  0  1  0  0  0  0  0  0  0  0
    6.5346   -1.1031   -7.4480 H   0  0  0  1  0  0  0  0  0  0  0  0
    5.2579   -2.1064   -6.8029 H   0  0  0  1  0  0  0  0  0  0  0  0
    6.4757   -2.8036   -7.8446 H   0  0  0  1  0  0  0  0  0  0  0  0
    8.5707   -1.8323   -6.0144 C   0  0  0  1  0  0  0  0  0  0  0  0
    8.4892   -0.7776   -6.1749 H   0  0  0  1  0  0  0  0  0  0  0  0
    9.3616   -2.0716   -4.8563 O   0  0  0  1  0  0  0  0  0  0  0  0
    8.8175   -2.4707   -4.1735 H   0  0  0  1  0  0  0  0  0  0  0  0
    8.0133   -4.3392   -4.5719 O   0  0  0  1  0  0  0  0  0  0  0  0
    9.6549   -5.8518   -3.3631 O   0  0  0  1  0  0  0  0  0  0  0  0
   11.6718   -4.3692   -3.2528 O   0  0  0  1  0  0  0  0  0  0  0  0
    8.7822   -6.3545   -5.7022 O   0  0  0  0  0  0  0  0  0  0  0  0
   10.4627   -4.4703   -5.2219 O   0  0  0  1  0  0  0  0  0  0  0  0
   10.0387   -4.4256   -1.3328 O   0  0  0  0  0  0  0  0  0  0  0  0
   11.5585   -6.4346   -1.8804 O   0  0  0  1  0  0  0  0  0  0  0  0
    9.2881   -5.2783   -4.8190 P   0  0  0  1  0  0  0  0  0  0  0  0
   10.7431   -5.2856   -2.3259 P   0  0  0  1  0  0  0  0  0  0  0  0
   12.7298   -4.9027   -4.0905 C   0  0  0  1  0  0  0  0  0  0  0  0
   13.5133   -5.3115   -3.4872 H   0  0  0  1  0  0  0  0  0  0  0  0
   12.3453   -5.6619   -4.7392 H   0  0  0  1  0  0  0  0  0  0  0  0
   12.7492   -2.7847   -7.0865 O   0  0  0  1  0  0  0  0  0  0  0  0
   14.8497   -1.6561   -6.3227 O   0  0  0  1  0  0  0  0  0  0  0  0
   13.1455   -0.2740   -7.6729 O   0  5  0  1  0  0  0  0  0  0  0  0
   13.9084   -1.6878   -7.4643 P   0  0  0  1  0  0  0  0  0  0  0  0
   14.5834   -2.0203   -8.8990 O   0  5  0  1  0  0  0  0  0  0  0  0
   16.6328   -4.0591   -5.8745 N   0  0  0  1  0  0  0  0  0  0  0  0
   17.6547   -3.8480   -4.9852 C   0  0  0  1  0  0  0  0  0  0  0  0
   17.1494   -3.7806   -7.1026 C   0  0  0  1  0  0  0  0  0  0  0  0
   16.5870   -3.8499   -7.9747 H   0  0  0  1  0  0  0  0  0  0  0  0
   18.7517   -3.4520   -5.7620 C   0  0  0  1  0  0  0  0  0  0  0  0
   17.6292   -3.9988   -3.6602 N   0  0  0  1  0  0  0  0  0  0  0  0
   18.4039   -3.4200   -7.1034 N   0  0  0  1  0  0  0  0  0  0  0  0
   19.9240   -3.1951   -5.0571 C   0  0  0  1  0  0  0  0  0  0  0  0
   18.8071   -3.7136   -3.1186 C   0  0  0  1  0  0  0  0  0  0  0  0
   18.8604   -3.8053   -2.0840 H   0  0  0  1  0  0  0  0  0  0  0  0
   19.9387   -3.3230   -3.7259 N   0  0  0  1  0  0  0  0  0  0  0  0
   21.0910   -2.8098   -5.6625 N   0  0  0  1  0  0  0  0  0  0  0  0
   21.9477   -2.9466   -5.2068 H   0  0  0  1  0  0  0  0  0  0  0  0
   21.0690   -2.3973   -6.5512 H   0  0  0  1  0  0  0  0  0  0  0  0
   10.0566   -6.0914  -13.2492 S   0  0  0  1  0  0  0  0  0  0  0  0
    8.1020   -5.5188  -11.5425 O   0  0  0  1  0  0  0  0  0  0  0  0
    9.1147   -6.1301  -11.7555 C   0  0  0  1  0  0  0  0  0  0  0  0
    9.6748   -7.0793  -10.7976 C   0  0  0  1  0  0  0  0  0  0  0  0
   10.5949   -7.4793  -11.0713 H   0  0  0  1  0  0  0  0  0  0  0  0
    9.2033   -7.5183   -9.6313 C   0  0  0  1  0  0  0  0  0  0  0  0
    8.2865   -7.1586   -9.2969 H   0  0  0  1  0  0  0  0  0  0  0  0
    9.9311   -8.4976   -8.7912 C   0  0  0  1  0  0  0  0  0  0  0  0
   11.1691   -8.9654   -9.2034 C   0  0  0  1  0  0  0  0  0  0  0  0
   11.5827   -8.6256  -10.0950 H   0  0  0  1  0  0  0  0  0  0  0  0
    9.3838   -8.9451   -7.6036 C   0  0  0  1  0  0  0  0  0  0  0  0
    8.4568   -8.5912   -7.2923 H   0  0  0  1  0  0  0  0  0  0  0  0
   11.8539   -9.8832   -8.4295 C   0  0  0  1  0  0  0  0  0  0  0  0
   12.7810  -10.2371   -8.7408 H   0  0  0  1  0  0  0  0  0  0  0  0
   10.0705   -9.8657   -6.8272 C   0  0  0  1  0  0  0  0  0  0  0  0
   11.3049  -10.3320   -7.2383 C   0  0  0  1  0  0  0  0  0  0  0  0
   11.9980  -11.2280   -6.4944 O   0  0  0  1  0  0  0  0  0  0  0  0
   11.4551  -12.0046   -6.3403 H   0  0  0  1  0  0  0  0  0  0  0  0
    9.6291  -10.3845   -5.6382 O   0  0  0  1  0  0  0  0  0  0  0  0
    8.3124  -10.0076   -5.2062 C   0  0  0  1  0  0  0  0  0  0  0  0
    8.3459   -9.0322   -4.7677 H   0  0  0  1  0  0  0  0  0  0  0  0
    7.9596  -10.7120   -4.4821 H   0  0  0  1  0  0  0  0  0  0  0  0
    7.6506   -9.9979   -6.0470 H   0  0  0  1  0  0  0  0  0  0  0  0
  1  2  1  0  0  0  0
  1  3  1  0  0  0  0
  1  4  1  0  0  0  0
  1 65  1  0  0  0  0
  3  6  1  0  0  0  0
  4  5  1  0  0  0  0
  4  8  1  0  0  0  0
  4 10  1  0  0  0  0
  6  7  1  0  0  0  0
  6  8  1  0  0  0  0
  6 57  1  0  0  0  0
  8  9  1  0  0  0  0
  8 60  1  0  0  0  0
 10 11  1  0  0  0  0
 12 13  1  0  0  0  0
 12 14  1  0  0  0  0
 12 15  1  0  0  0  0
 12 18  1  0  0  0  0
 15 16  1  0  0  0  0
 15 17  1  0  0  0  0
 15 79  1  0  0  0  0
 18 19  1  0  0  0  0
 18 20  1  0  0  0  0
 20 21  2  0  0  0  0
 20 25  1  0  0  0  0
 22 23  1  0  0  0  0
 22 24  1  0  0  0  0
 22 25  1  0  0  0  0
 22 28  1  0  0  0  0
 25 26  1  0  0  0  0
 25 27  1  0  0  0  0
 28 29  1  0  0  0  0
 28 31  1  0  0  0  0
 30 31  2  0  0  0  0
 31 44  1  0  0  0  0
 32 33  1  0  0  0  0
 32 34  1  0  0  0  0
 32 39  1  0  0  0  0
 32 48  1  0  0  0  0
 35 36  1  0  0  0  0
 35 37  1  0  0  0  0
 35 38  1  0  0  0  0
 35 39  1  0  0  0  0
 39 40  1  0  0  0  0
 39 44  1  0  0  0  0
 40 41  1  0  0  0  0
 40 42  1  0  0  0  0
 40 43  1  0  0  0  0
 44 45  1  0  0  0  0
 44 46  1  0  0  0  0
 46 47  1  0  0  0  0
 48 55  1  0  0  0  0
 49 55  1  0  0  0  0
 49 56  1  0  0  0  0
 50 56  1  0  0  0  0
 50 57  1  0  0  0  0
 51 55  1  0  0  0  0
 52 55  2  0  0  0  0
 53 56  1  0  0  0  0
 54 56  2  0  0  0  0
 57 58  1  0  0  0  0
 57 59  1  0  0  0  0
 60 63  1  0  0  0  0
 61 63  2  0  0  0  0
 62 63  1  0  0  0  0
 63 64  1  0  0  0  0
 65 66  1  0  0  0  0
 65 67  1  0  0  0  0
 66 69  2  0  0  0  0
 66 70  1  0  0  0  0
 67 68  1  0  0  0  0
 67 71  2  0  0  0  0
 69 71  1  0  0  0  0
 69 72  1  0  0  0  0
 70 73  2  0  0  0  0
 72 75  2  0  0  0  0
 72 76  1  0  0  0  0
 73 74  1  0  0  0  0
 73 75  1  0  0  0  0
 76 77  1  0  0  0  0
 76 78  1  0  0  0  0
 79 81  1  0  0  0  0
 80 81  2  0  0  0  0
 81 82  1  0  0  0  0
 82 83  1  0  0  0  0
 82 84  2  0  0  0  0
 84 85  1  0  0  0  0
 84 86  1  0  0  0  0
 86 87  1  0  0  0  0
 86 89  2  0  0  0  0
 87 88  1  0  0  0  0
 87 91  2  0  0  0  0
 89 90  1  0  0  0  0
 89 93  1  0  0  0  0
 91 92  1  0  0  0  0
 91 94  1  0  0  0  0
 93 94  2  0  0  0  0
 93 97  1  0  0  0  0
 94 95  1  0  0  0  0
 95 96  1  0  0  0  0
 97 98  1  0  0  0  0
 98 99  1  0  0  0  0
 98100  1  0  0  0  0
 98101  1  0  0  0  0
M  BCL ATM C_TeTeTeTe H_S O_Te2Te2TeTe C_TeTeTeTe H_S C_TeTeTeTe H_S C_TeTeTeTe H_S O_Te2Te2TeTe H_S C_TeTeTeTe H_S H_S C_TeTeTeTe H_S H_S N_TrTrTrPi2 H_S C_TrTrTrPi O_Tr2Tr2TrPi C_TeTeTeTe H_S H_S C_TeTeTeTe H_S H_S N_TrTrTrPi2 H_S O_Tr2Tr2TrPi C_TrTrTrPi C_TeTeTeTe H_S H_S C_TeTeTeTe H_S H_S H_S C_TeTeTeTe C_TeTeTeTe H_S H_S H_S C_TeTeTeTe H_S O_Te2Te2TeTe H_S O_Tr2TrTrPi2 O_Tr2TrTrPi2 O_Tr2TrTrPi2 O_Te2Te2TeTe O_Tr2Tr2TrPi O_Te2Te2TeTe O_Tr2Tr2TrPi P_TeTeTeTePi P_TeTeTeTePi C_TeTeTeTe H_S H_S O_Tr2TrTrPi2 O_Tr2Tr2TrPi O_Te2Te2Te2Te P_TeTeTeTePi O_Te2Te2Te2Te N_TrTrTrPi2 C_TrTrTrPi C_TrTrTrPi H_S C_TrTrTrPi N_Tr2TrTrPi N_Tr2TrTrPi C_TrTrTrPi C_TrTrTrPi H_S N_Tr2TrTrPi N_TrTrTrPi2 H_S H_S S_Te2Te2TeTe O_Tr2Tr2TrPi C_TrTrTrPi C_TrTrTrPi H_S C_TrTrTrPi H_S C_TrTrTrPi C_TrTrTrPi H_S C_TrTrTrPi H_S C_TrTrTrPi H_S C_TrTrTrPi C_TrTrTrPi O_Te2Te2TeTe H_S O_Tr2TrTrPi2 C_TeTeTeTe H_S H_S H_S
M  BCL BND NonConjugatedSingleBond NonConjugatedSingleBondInRing NonConjugatedSingleBondInRing NonConjugatedSingleBond NonConjugatedSingleBondInRing NonConjugatedSingleBond NonConjugatedSingleBondInRing NonConjugatedSingleBond NonConjugatedSingleBond NonConjugatedSingleBondInRing NonConjugatedSingleBond NonConjugatedSingleBond NonConjugatedSingleBond NonConjugatedSingleBond NonConjugatedSingleBond NonConjugatedSingleBond NonConjugatedSingleBond NonConjugatedSingleBond NonConjugatedSingleBond NonConjugatedSingleBond NonConjugatedSingleBond NonConjugatedSingleBond AmideSingleBond ConjugatedDoubleBond NonConjugatedSingleBond NonConjugatedSingleBond NonConjugatedSingleBond NonConjugatedSingleBond NonConjugatedSingleBond NonConjugatedSingleBond NonConjugatedSingleBond NonConjugatedSingleBond AmideSingleBond ConjugatedDoubleBond NonConjugatedSingleBond NonConjugatedSingleBond NonConjugatedSingleBond NonConjugatedSingleBond NonConjugatedSingleBond NonConjugatedSingleBond NonConjugatedSingleBond NonConjugatedSingleBond NonConjugatedSingleBond NonConjugatedSingleBond NonConjugatedSingleBond NonConjugatedSingleBond NonConjugatedSingleBond NonConjugatedSingleBond NonConjugatedSingleBond NonConjugatedSingleBond NonConjugatedSingleBond ConjugatedSingleBond ConjugatedSingleBond ConjugatedSingleBond ConjugatedSingleBond NonConjugatedSingleBond ConjugatedSingleBond ConjugatedDoubleBond ConjugatedSingleBond ConjugatedDoubleBond NonConjugatedSingleBond NonConjugatedSingleBond ConjugatedSingleBond ConjugatedDoubleBond ConjugatedSingleBond ConjugatedSingleBond AromaticSingleBond AromaticSingleBond AromaticDoubleBond AromaticSingleBond NonConjugatedSingleBond AromaticDoubleBond AromaticSingleBond AromaticSingleBond AromaticDoubleBond AromaticDoubleBond ConjugatedSingleBond NonConjugatedSingleBond AromaticSingleBond NonConjugatedSingleBond NonConjugatedSingleBond ConjugatedSingleBond ConjugatedDoubleBond ConjugatedSingleBond NonConjugatedSingleBond ConjugatedDoubleBond NonConjugatedSingleBond ConjugatedSingleBond AromaticSingleBond AromaticDoubleBond NonConjugatedSingleBond AromaticDoubleBond NonConjugatedSingleBond AromaticSingleBond NonConjugatedSingleBond AromaticSingleBond AromaticDoubleBond ConjugatedSingleBond ConjugatedSingleBond NonConjugatedSingleBond NonConjugatedSingleBond NonConjugatedSingleBond NonConjugatedSingleBond NonConjugatedSingleBond
M  BCL CHI   1   R   4   R   6   R   8   S  44   S  55   S  56   R
M  BCL DBI - - - - - - - - - - E - - -
M  END
> <ConfClashScore>
0 

> <ConfOneFourInteractionScore>
-0.971445 

> <ConfScore>
0.0580436 

> <ConfScorePBest>
0.00727047 

> <ConfTolerance>
3.07965 

$$$$
L02.****
  PyMOL2.5          3D                             0

101104  0  0  0  0  0  0  0  0999 V2000
   15.2374   -4.4072   -5.6013 C   0  0  0  1  0  0  0  0  0  0  0  0
   15.0275   -5.3829   -5.9873 H   0  0  0  1  0  0  0  0  0  0  0  0
   14.9604   -4.3472   -4.1690 O   0  0  0  1  0  0  0  0  0  0  0  0
   14.3061   -3.3811   -6.2050 C   0  0  0  1  0  0  0  0  0  0  0  0
   14.7146   -2.9785   -7.1082 H   0  0  0  1  0  0  0  0  0  0  0  0
   14.4141   -3.1054   -3.8242 C   0  0  0  1  0  0  0  0  0  0  0  0
   15.0836   -2.5820   -3.1739 H   0  0  0  1  0  0  0  0  0  0  0  0
   14.2092   -2.3020   -5.1183 C   0  0  0  1  0  0  0  0  0  0  0  0
   13.2500   -1.8280   -5.1300 H   0  0  0  1  0  0  0  0  0  0  0  0
   13.0227   -3.9517   -6.4744 O   0  0  0  1  0  0  0  0  0  0  0  0
   13.1121   -4.6455   -7.1318 H   0  0  0  1  0  0  0  0  0  0  0  0
    2.9882    2.8466   -3.1709 C   0  0  0  1  0  0  0  0  0  0  0  0
    2.1882    2.5507   -2.5249 H   0  0  0  1  0  0  0  0  0  0  0  0
    3.9121    2.4575   -2.7967 H   0  0  0  1  0  0  0  0  0  0  0  0
    3.0678    4.3531   -3.1829 C   0  0  0  1  0  0  0  0  0  0  0  0
    3.0982    4.7001   -2.1712 H   0  0  0  1  0  0  0  0  0  0  0  0
    2.1929    4.7359   -3.6656 H   0  0  0  1  0  0  0  0  0  0  0  0
    2.7480    2.2864   -4.5020 N   0  0  0  1  0  0  0  0  0  0  0  0
    1.8350    2.0304   -4.7496 H   0  0  0  1  0  0  0  0  0  0  0  0
    3.7384    2.1105   -5.3982 C   0  0  0  1  0  0  0  0  0  0  0  0
    4.8809    2.5501   -5.2747 O   0  0  0  1  0  0  0  0  0  0  0  0
    4.3366    1.2682   -7.7281 C   0  0  0  1  0  0  0  0  0  0  0  0
    4.6253    2.2707   -7.9660 H   0  0  0  1  0  0  0  0  0  0  0  0
    3.8784    0.8160   -8.5828 H   0  0  0  1  0  0  0  0  0  0  0  0
    3.3283    1.3087   -6.6028 C   0  0  0  1  0  0  0  0  0  0  0  0
    2.4223    1.7293   -6.9864 H   0  0  0  1  0  0  0  0  0  0  0  0
    3.1484    0.3032   -6.2843 H   0  0  0  1  0  0  0  0  0  0  0  0
    5.5362    0.5047   -7.3799 N   0  0  0  1  0  0  0  0  0  0  0  0
    5.5503   -0.4475   -7.6115 H   0  0  0  1  0  0  0  0  0  0  0  0
    6.8106    2.1958   -6.5249 O   0  0  0  1  0  0  0  0  0  0  0  0
    6.6110    1.0071   -6.7715 C   0  0  0  1  0  0  0  0  0  0  0  0
    8.6933   -1.2624   -4.4774 C   0  0  0  1  0  0  0  0  0  0  0  0
    9.6410   -0.8690   -4.7808 H   0  0  0  1  0  0  0  0  0  0  0  0
    8.5109   -2.1863   -4.9855 H   0  0  0  1  0  0  0  0  0  0  0  0
    7.8584    1.0632   -4.1232 C   0  0  0  1  0  0  0  0  0  0  0  0
    8.0252    0.8789   -3.0825 H   0  0  0  1  0  0  0  0  0  0  0  0
    7.0123    1.7077   -4.2400 H   0  0  0  1  0  0  0  0  0  0  0  0
    8.7238    1.5296   -4.5457 H   0  0  0  1  0  0  0  0  0  0  0  0
    7.5925   -0.2616   -4.8402 C   0  0  0  1  0  0  0  0  0  0  0  0
    6.1720   -0.8088   -4.5748 C   0  0  0  1  0  0  0  0  0  0  0  0
    6.0850   -1.0933   -3.5470 H   0  0  0  1  0  0  0  0  0  0  0  0
    5.9966   -1.6616   -5.1968 H   0  0  0  1  0  0  0  0  0  0  0  0
    5.4506   -0.0503   -4.7969 H   0  0  0  1  0  0  0  0  0  0  0  0
    7.6840    0.0005   -6.3481 C   0  0  0  1  0  0  0  0  0  0  0  0
    8.6430    0.4279   -6.5547 H   0  0  0  1  0  0  0  0  0  0  0  0
    7.5482   -1.2258   -7.0401 O   0  0  0  1  0  0  0  0  0  0  0  0
    7.0973   -1.8617   -6.4798 H   0  0  0  1  0  0  0  0  0  0  0  0
    8.7105   -1.4990   -3.0500 O   0  0  0  1  0  0  0  0  0  0  0  0
    9.8469   -3.7870   -3.0198 O   0  0  0  1  0  0  0  0  0  0  0  0
   12.0685   -3.3081   -4.1540 O   0  0  0  1  0  0  0  0  0  0  0  0
   11.1419   -1.6524   -2.7327 O   0  0  0  0  0  0  0  0  0  0  0  0
    9.6027   -2.4399   -0.8790 O   0  0  0  1  0  0  0  0  0  0  0  0
   11.3062   -5.6624   -3.6517 O   0  0  0  0  0  0  0  0  0  0  0  0
   10.2518   -4.2825   -5.4765 O   0  0  0  1  0  0  0  0  0  0  0  0
    9.8887   -2.4286   -2.3598 P   0  0  0  1  0  0  0  0  0  0  0  0
   10.8519   -4.2783   -4.1249 P   0  0  0  1  0  0  0  0  0  0  0  0
   13.1031   -3.3018   -3.1366 C   0  0  0  1  0  0  0  0  0  0  0  0
   12.9304   -2.5027   -2.4462 H   0  0  0  1  0  0  0  0  0  0  0  0
   13.1032   -4.2339   -2.6112 H   0  0  0  1  0  0  0  0  0  0  0  0
   15.2451   -1.3020   -5.2816 O   0  0  0  1  0  0  0  0  0  0  0  0
   16.6804   -1.3751   -3.1113 O   0  0  0  1  0  0  0  0  0  0  0  0
   14.8355    0.5247   -3.3779 O   0  5  0  1  0  0  0  0  0  0  0  0
   15.9177   -0.4936   -4.0232 P   0  0  0  1  0  0  0  0  0  0  0  0
   17.0059    0.4632   -4.7476 O   0  5  0  1  0  0  0  0  0  0  0  0
   16.6353   -4.0635   -5.8744 N   0  0  0  1  0  0  0  0  0  0  0  0
   17.6586   -3.8610   -4.9847 C   0  0  0  1  0  0  0  0  0  0  0  0
   17.1485   -3.7682   -7.1001 C   0  0  0  1  0  0  0  0  0  0  0  0
   16.5843   -3.8280   -7.9717 H   0  0  0  1  0  0  0  0  0  0  0  0
   18.7530   -3.4524   -5.7589 C   0  0  0  1  0  0  0  0  0  0  0  0
   17.6365   -4.0285   -3.6617 N   0  0  0  1  0  0  0  0  0  0  0  0
   18.4021   -3.4044   -7.0991 N   0  0  0  1  0  0  0  0  0  0  0  0
   19.9261   -3.2014   -5.0534 C   0  0  0  1  0  0  0  0  0  0  0  0
   18.8148   -3.7472   -3.1191 C   0  0  0  1  0  0  0  0  0  0  0  0
   18.8706   -3.8517   -2.0859 H   0  0  0  1  0  0  0  0  0  0  0  0
   19.9441   -3.3460   -3.7239 N   0  0  0  1  0  0  0  0  0  0  0  0
   21.0908   -2.8055   -5.6564 N   0  0  0  1  0  0  0  0  0  0  0  0
   21.1397   -2.7416   -6.6331 H   0  0  0  1  0  0  0  0  0  0  0  0
   21.8750   -2.5863   -5.1111 H   0  0  0  1  0  0  0  0  0  0  0  0
    4.5246    4.9827   -4.0504 S   0  0  0  1  0  0  0  0  0  0  0  0
    5.6320    4.1209   -1.8180 O   0  0  0  1  0  0  0  0  0  0  0  0
    5.8296    4.6471   -2.8887 C   0  0  0  1  0  0  0  0  0  0  0  0
    7.1526    5.0628   -3.3442 C   0  0  0  1  0  0  0  0  0  0  0  0
    7.2108    5.4122   -4.3220 H   0  0  0  1  0  0  0  0  0  0  0  0
    8.2936    5.0485   -2.6585 C   0  0  0  1  0  0  0  0  0  0  0  0
    8.1930    4.6927   -1.6864 H   0  0  0  1  0  0  0  0  0  0  0  0
    9.6785    5.4402   -3.0092 C   0  0  0  1  0  0  0  0  0  0  0  0
    9.9756    5.8089   -4.3120 C   0  0  0  1  0  0  0  0  0  0  0  0
    9.2276    5.8131   -5.0346 H   0  0  0  1  0  0  0  0  0  0  0  0
   10.6714    5.4397   -2.0478 C   0  0  0  1  0  0  0  0  0  0  0  0
   10.4477    5.1670   -1.0695 H   0  0  0  1  0  0  0  0  0  0  0  0
   11.2657    6.1709   -4.6508 C   0  0  0  1  0  0  0  0  0  0  0  0
   11.4894    6.4437   -5.6292 H   0  0  0  1  0  0  0  0  0  0  0  0
   11.9654    5.8028   -2.3874 C   0  0  0  1  0  0  0  0  0  0  0  0
   12.2615    6.1704   -3.6864 C   0  0  0  1  0  0  0  0  0  0  0  0
   13.5009    6.5417   -4.0899 O   0  0  0  1  0  0  0  0  0  0  0  0
   14.1256    6.4039   -3.3741 H   0  0  0  1  0  0  0  0  0  0  0  0
   13.0154    5.8353   -1.5380 O   0  0  0  1  0  0  0  0  0  0  0  0
   13.0832    4.8815   -0.4525 C   0  0  0  1  0  0  0  0  0  0  0  0
   12.2608    4.2007   -0.5234 H   0  0  0  1  0  0  0  0  0  0  0  0
   13.0365    5.4010    0.4817 H   0  0  0  1  0  0  0  0  0  0  0  0
   14.0026    4.3375   -0.5131 H   0  0  0  1  0  0  0  0  0  0  0  0
  1  2  1  0  0  0  0
  1  3  1  0  0  0  0
  1  4  1  0  0  0  0
  1 65  1  0  0  0  0
  3  6  1  0  0  0  0
  4  5  1  0  0  0  0
  4  8  1  0  0  0  0
  4 10  1  0  0  0  0
  6  7  1  0  0  0  0
  6  8  1  0  0  0  0
  6 57  1  0  0  0  0
  8  9  1  0  0  0  0
  8 60  1  0  0  0  0
 10 11  1  0  0  0  0
 12 13  1  0  0  0  0
 12 14  1  0  0  0  0
 12 15  1  0  0  0  0
 12 18  1  0  0  0  0
 15 16  1  0  0  0  0
 15 17  1  0  0  0  0
 15 79  1  0  0  0  0
 18 19  1  0  0  0  0
 18 20  1  0  0  0  0
 20 21  2  0  0  0  0
 20 25  1  0  0  0  0
 22 23  1  0  0  0  0
 22 24  1  0  0  0  0
 22 25  1  0  0  0  0
 22 28  1  0  0  0  0
 25 26  1  0  0  0  0
 25 27  1  0  0  0  0
 28 29  1  0  0  0  0
 28 31  1  0  0  0  0
 30 31  2  0  0  0  0
 31 44  1  0  0  0  0
 32 33  1  0  0  0  0
 32 34  1  0  0  0  0
 32 39  1  0  0  0  0
 32 48  1  0  0  0  0
 35 36  1  0  0  0  0
 35 37  1  0  0  0  0
 35 38  1  0  0  0  0
 35 39  1  0  0  0  0
 39 40  1  0  0  0  0
 39 44  1  0  0  0  0
 40 41  1  0  0  0  0
 40 42  1  0  0  0  0
 40 43  1  0  0  0  0
 44 45  1  0  0  0  0
 44 46  1  0  0  0  0
 46 47  1  0  0  0  0
 48 55  1  0  0  0  0
 49 55  1  0  0  0  0
 49 56  1  0  0  0  0
 50 56  1  0  0  0  0
 50 57  1  0  0  0  0
 51 55  1  0  0  0  0
 52 55  2  0  0  0  0
 53 56  1  0  0  0  0
 54 56  2  0  0  0  0
 57 58  1  0  0  0  0
 57 59  1  0  0  0  0
 60 63  1  0  0  0  0
 61 63  2  0  0  0  0
 62 63  1  0  0  0  0
 63 64  1  0  0  0  0
 65 66  1  0  0  0  0
 65 67  1  0  0  0  0
 66 69  2  0  0  0  0
 66 70  1  0  0  0  0
 67 68  1  0  0  0  0
 67 71  2  0  0  0  0
 69 71  1  0  0  0  0
 69 72  1  0  0  0  0
 70 73  2  0  0  0  0
 72 75  2  0  0  0  0
 72 76  1  0  0  0  0
 73 74  1  0  0  0  0
 73 75  1  0  0  0  0
 76 77  1  0  0  0  0
 76 78  1  0  0  0  0
 79 81  1  0  0  0  0
 80 81  2  0  0  0  0
 81 82  1  0  0  0  0
 82 83  1  0  0  0  0
 82 84  2  0  0  0  0
 84 85  1  0  0  0  0
 84 86  1  0  0  0  0
 86 87  1  0  0  0  0
 86 89  2  0  0  0  0
 87 88  1  0  0  0  0
 87 91  2  0  0  0  0
 89 90  1  0  0  0  0
 89 93  1  0  0  0  0
 91 92  1  0  0  0  0
 91 94  1  0  0  0  0
 93 94  2  0  0  0  0
 93 97  1  0  0  0  0
 94 95  1  0  0  0  0
 95 96  1  0  0  0  0
 97 98  1  0  0  0  0
 98 99  1  0  0  0  0
 98100  1  0  0  0  0
 98101  1  0  0  0  0
M  BCL ATM C_TeTeTeTe H_S O_Te2Te2TeTe C_TeTeTeTe H_S C_TeTeTeTe H_S C_TeTeTeTe H_S O_Te2Te2TeTe H_S C_TeTeTeTe H_S H_S C_TeTeTeTe H_S H_S N_TrTrTrPi2 H_S C_TrTrTrPi O_Tr2Tr2TrPi C_TeTeTeTe H_S H_S C_TeTeTeTe H_S H_S N_TrTrTrPi2 H_S O_Tr2Tr2TrPi C_TrTrTrPi C_TeTeTeTe H_S H_S C_TeTeTeTe H_S H_S H_S C_TeTeTeTe C_TeTeTeTe H_S H_S H_S C_TeTeTeTe H_S O_Te2Te2TeTe H_S O_Tr2TrTrPi2 O_Tr2TrTrPi2 O_Tr2TrTrPi2 O_Te2Te2TeTe O_Tr2Tr2TrPi O_Te2Te2TeTe O_Tr2Tr2TrPi P_TeTeTeTePi P_TeTeTeTePi C_TeTeTeTe H_S H_S O_Tr2TrTrPi2 O_Tr2Tr2TrPi O_Te2Te2Te2Te P_TeTeTeTePi O_Te2Te2Te2Te N_TrTrTrPi2 C_TrTrTrPi C_TrTrTrPi H_S C_TrTrTrPi N_Tr2TrTrPi N_Tr2TrTrPi C_TrTrTrPi C_TrTrTrPi H_S N_Tr2TrTrPi N_TrTrTrPi2 H_S H_S S_Te2Te2TeTe O_Tr2Tr2TrPi C_TrTrTrPi C_TrTrTrPi H_S C_TrTrTrPi H_S C_TrTrTrPi C_TrTrTrPi H_S C_TrTrTrPi H_S C_TrTrTrPi H_S C_TrTrTrPi C_TrTrTrPi O_Te2Te2TeTe H_S O_Tr2TrTrPi2 C_TeTeTeTe H_S H_S H_S
M  BCL BND NonConjugatedSingleBond NonConjugatedSingleBondInRing NonConjugatedSingleBondInRing NonConjugatedSingleBond NonConjugatedSingleBondInRing NonConjugatedSingleBond NonConjugatedSingleBondInRing NonConjugatedSingleBond NonConjugatedSingleBond NonConjugatedSingleBondInRing NonConjugatedSingleBond NonConjugatedSingleBond NonConjugatedSingleBond NonConjugatedSingleBond NonConjugatedSingleBond NonConjugatedSingleBond NonConjugatedSingleBond NonConjugatedSingleBond NonConjugatedSingleBond NonConjugatedSingleBond NonConjugatedSingleBond NonConjugatedSingleBond AmideSingleBond ConjugatedDoubleBond NonConjugatedSingleBond NonConjugatedSingleBond NonConjugatedSingleBond NonConjugatedSingleBond NonConjugatedSingleBond NonConjugatedSingleBond NonConjugatedSingleBond NonConjugatedSingleBond AmideSingleBond ConjugatedDoubleBond NonConjugatedSingleBond NonConjugatedSingleBond NonConjugatedSingleBond NonConjugatedSingleBond NonConjugatedSingleBond NonConjugatedSingleBond NonConjugatedSingleBond NonConjugatedSingleBond NonConjugatedSingleBond NonConjugatedSingleBond NonConjugatedSingleBond NonConjugatedSingleBond NonConjugatedSingleBond NonConjugatedSingleBond NonConjugatedSingleBond NonConjugatedSingleBond NonConjugatedSingleBond ConjugatedSingleBond ConjugatedSingleBond ConjugatedSingleBond ConjugatedSingleBond NonConjugatedSingleBond ConjugatedSingleBond ConjugatedDoubleBond ConjugatedSingleBond ConjugatedDoubleBond NonConjugatedSingleBond NonConjugatedSingleBond ConjugatedSingleBond ConjugatedDoubleBond ConjugatedSingleBond ConjugatedSingleBond AromaticSingleBond AromaticSingleBond AromaticDoubleBond AromaticSingleBond NonConjugatedSingleBond AromaticDoubleBond AromaticSingleBond AromaticSingleBond AromaticDoubleBond AromaticDoubleBond ConjugatedSingleBond NonConjugatedSingleBond AromaticSingleBond NonConjugatedSingleBond NonConjugatedSingleBond ConjugatedSingleBond ConjugatedDoubleBond ConjugatedSingleBond NonConjugatedSingleBond ConjugatedDoubleBond NonConjugatedSingleBond ConjugatedSingleBond AromaticSingleBond AromaticDoubleBond NonConjugatedSingleBond AromaticDoubleBond NonConjugatedSingleBond AromaticSingleBond NonConjugatedSingleBond AromaticSingleBond AromaticDoubleBond ConjugatedSingleBond ConjugatedSingleBond NonConjugatedSingleBond NonConjugatedSingleBond NonConjugatedSingleBond NonConjugatedSingleBond NonConjugatedSingleBond
M  BCL CHI   1   R   4   R   6   R   8   S  44   S  55   S  56   R
M  BCL DBI - - - - - - - - - - E - - -
M  END
> <ConfClashScore>
0 

> <ConfOneFourInteractionScore>
-0.974629 

> <ConfScore>
0.0696523 

> <ConfScorePBest>
0.00716747 

> <ConfTolerance>
2.82986 

$$$$
L02.****
  PyMOL2.5          3D                             0

101104  0  0  0  0  0  0  0  0999 V2000
   15.2579   -4.4961   -5.5516 C   0  0  0  1  0  0  0  0  0  0  0  0
   14.9261   -5.1995   -6.2865 H   0  0  0  1  0  0  0  0  0  0  0  0
   15.2197   -5.0916   -4.2379 O   0  0  0  1  0  0  0  0  0  0  0  0
   14.3310   -3.3132   -5.5083 C   0  0  0  1  0  0  0  0  0  0  0  0
   14.8151   -2.4424   -5.8984 H   0  0  0  1  0  0  0  0  0  0  0  0
   14.1849   -4.4656   -3.4973 C   0  0  0  1  0  0  0  0  0  0  0  0
   14.4625   -4.3941   -2.4664 H   0  0  0  1  0  0  0  0  0  0  0  0
   14.0035   -3.1275   -4.0630 C   0  0  0  1  0  0  0  0  0  0  0  0
   12.9944   -2.7937   -3.9394 H   0  0  0  1  0  0  0  0  0  0  0  0
   13.1459   -3.5773   -6.2607 O   0  0  0  1  0  0  0  0  0  0  0  0
   12.4185   -3.7566   -5.6604 H   0  0  0  1  0  0  0  0  0  0  0  0
   11.6777    1.0593  -10.6744 C   0  0  0  1  0  0  0  0  0  0  0  0
   11.6371    0.2602   -9.9640 H   0  0  0  1  0  0  0  0  0  0  0  0
   12.6940    1.2300  -10.9623 H   0  0  0  1  0  0  0  0  0  0  0  0
   11.1412    2.3140  -10.0234 C   0  0  0  1  0  0  0  0  0  0  0  0
   10.1955    2.1066   -9.5677 H   0  0  0  1  0  0  0  0  0  0  0  0
   11.0218    3.0793  -10.7616 H   0  0  0  1  0  0  0  0  0  0  0  0
   10.9175    0.6737  -11.8540 N   0  0  0  1  0  0  0  0  0  0  0  0
   10.1169    1.1876  -12.0895 H   0  0  0  1  0  0  0  0  0  0  0  0
   11.2842   -0.3891  -12.6513 C   0  0  0  1  0  0  0  0  0  0  0  0
   12.2166   -1.1007  -12.3285 O   0  0  0  1  0  0  0  0  0  0  0  0
   10.2995   -2.0494  -14.2771 C   0  0  0  1  0  0  0  0  0  0  0  0
   11.2672   -2.4752  -14.4414 H   0  0  0  1  0  0  0  0  0  0  0  0
    9.7258   -2.1076  -15.1784 H   0  0  0  1  0  0  0  0  0  0  0  0
   10.4687   -0.5863  -13.9012 C   0  0  0  1  0  0  0  0  0  0  0  0
   10.9559   -0.0813  -14.7089 H   0  0  0  1  0  0  0  0  0  0  0  0
    9.4995   -0.1602  -13.7462 H   0  0  0  1  0  0  0  0  0  0  0  0
    9.6179   -2.8213  -13.2365 N   0  0  0  1  0  0  0  0  0  0  0  0
    8.7801   -2.4895  -12.8512 H   0  0  0  1  0  0  0  0  0  0  0  0
   11.1319   -4.4946  -13.3141 O   0  0  0  1  0  0  0  0  0  0  0  0
   10.1355   -3.9771  -12.8110 C   0  0  0  1  0  0  0  0  0  0  0  0
    9.3379   -5.3752   -9.3128 C   0  0  0  1  0  0  0  0  0  0  0  0
    9.5418   -6.4016   -9.5363 H   0  0  0  1  0  0  0  0  0  0  0  0
    8.2808   -5.2099   -9.3263 H   0  0  0  1  0  0  0  0  0  0  0  0
   11.5052   -4.8468  -10.4421 C   0  0  0  1  0  0  0  0  0  0  0  0
   12.0478   -4.0501  -10.9066 H   0  0  0  1  0  0  0  0  0  0  0  0
   11.6092   -5.7370  -11.0267 H   0  0  0  1  0  0  0  0  0  0  0  0
   11.8935   -5.0173   -9.4597 H   0  0  0  1  0  0  0  0  0  0  0  0
   10.0223   -4.4688  -10.3468 C   0  0  0  1  0  0  0  0  0  0  0  0
    9.8858   -2.9906   -9.9638 C   0  0  0  1  0  0  0  0  0  0  0  0
    9.6739   -2.4129  -10.8392 H   0  0  0  1  0  0  0  0  0  0  0  0
   10.8004   -2.6503   -9.5249 H   0  0  0  1  0  0  0  0  0  0  0  0
    9.0879   -2.8770   -9.2600 H   0  0  0  1  0  0  0  0  0  0  0  0
    9.3755   -4.7057  -11.7166 C   0  0  0  1  0  0  0  0  0  0  0  0
    9.3961   -5.7550  -11.9250 H   0  0  0  1  0  0  0  0  0  0  0  0
    8.0398   -4.2326  -11.7321 O   0  0  0  1  0  0  0  0  0  0  0  0
    7.6997   -4.2035  -10.8348 H   0  0  0  1  0  0  0  0  0  0  0  0
    9.8728   -5.0387   -8.0111 O   0  0  0  1  0  0  0  0  0  0  0  0
   10.8132   -5.7062   -5.8591 O   0  0  0  1  0  0  0  0  0  0  0  0
   13.0404   -6.1004   -4.7893 O   0  0  0  1  0  0  0  0  0  0  0  0
    8.3109   -5.2764   -6.0008 O   0  0  0  0  0  0  0  0  0  0  0  0
    9.4407   -7.2652   -7.1355 O   0  0  0  1  0  0  0  0  0  0  0  0
   11.1381   -7.6919   -4.3749 O   0  0  0  0  0  0  0  0  0  0  0  0
   12.2817   -7.5300   -6.6715 O   0  0  0  1  0  0  0  0  0  0  0  0
    9.4663   -5.9044   -6.6917 P   0  0  0  1  0  0  0  0  0  0  0  0
   11.8034   -6.8894   -5.4288 P   0  0  0  1  0  0  0  0  0  0  0  0
   12.9201   -5.2499   -3.6197 C   0  0  0  1  0  0  0  0  0  0  0  0
   12.0893   -4.5857   -3.7360 H   0  0  0  1  0  0  0  0  0  0  0  0
   12.7776   -5.8504   -2.7456 H   0  0  0  1  0  0  0  0  0  0  0  0
   14.8987   -2.1855   -3.4507 O   0  0  0  1  0  0  0  0  0  0  0  0
   13.1717   -0.2231   -3.4948 O   0  0  0  1  0  0  0  0  0  0  0  0
   15.6607    0.2394   -4.0127 O   0  5  0  1  0  0  0  0  0  0  0  0
   14.5643   -0.6046   -3.1700 P   0  0  0  1  0  0  0  0  0  0  0  0
   15.0688   -0.4499   -1.6384 O   0  5  0  1  0  0  0  0  0  0  0  0
   16.6182   -4.0615   -5.8707 N   0  0  0  1  0  0  0  0  0  0  0  0
   17.6469   -3.8497   -4.9894 C   0  0  0  1  0  0  0  0  0  0  0  0
   17.1252   -3.7836   -7.1030 C   0  0  0  1  0  0  0  0  0  0  0  0
   16.5561   -3.8535   -7.9706 H   0  0  0  1  0  0  0  0  0  0  0  0
   18.7378   -3.4539   -5.7749 C   0  0  0  1  0  0  0  0  0  0  0  0
   17.6317   -3.9997   -3.6642 N   0  0  0  1  0  0  0  0  0  0  0  0
   18.3796   -3.4227   -7.1137 N   0  0  0  1  0  0  0  0  0  0  0  0
   19.9154   -3.1964   -5.0792 C   0  0  0  1  0  0  0  0  0  0  0  0
   18.8136   -3.7140   -3.1319 C   0  0  0  1  0  0  0  0  0  0  0  0
   18.8749   -3.8050   -2.0977 H   0  0  0  1  0  0  0  0  0  0  0  0
   19.9404   -3.3235   -3.7481 N   0  0  0  1  0  0  0  0  0  0  0  0
   21.1227   -2.8034   -5.6467 N   0  0  0  1  0  0  0  0  0  0  0  0
   21.9585   -2.9169   -5.1478 H   0  0  0  1  0  0  0  0  0  0  0  0
   21.1376   -2.4130   -6.5454 H   0  0  0  1  0  0  0  0  0  0  0  0
   12.3158    2.8636   -8.7626 S   0  0  0  1  0  0  0  0  0  0  0  0
   13.2069    3.8961  -11.0193 O   0  0  0  1  0  0  0  0  0  0  0  0
   13.4220    3.7490   -9.8385 C   0  0  0  1  0  0  0  0  0  0  0  0
   14.6051    4.2778   -9.1693 C   0  0  0  1  0  0  0  0  0  0  0  0
   14.6999    4.1414   -8.1426 H   0  0  0  1  0  0  0  0  0  0  0  0
   15.5694    4.9283   -9.8189 C   0  0  0  1  0  0  0  0  0  0  0  0
   15.4518    5.0521  -10.8448 H   0  0  0  1  0  0  0  0  0  0  0  0
   16.7938    5.4900   -9.2057 C   0  0  0  1  0  0  0  0  0  0  0  0
   16.9337    5.6066   -7.8315 C   0  0  0  1  0  0  0  0  0  0  0  0
   16.1679    5.2915   -7.2023 H   0  0  0  1  0  0  0  0  0  0  0  0
   17.8137    5.9038  -10.0416 C   0  0  0  1  0  0  0  0  0  0  0  0
   17.7104    5.8126  -11.0724 H   0  0  0  1  0  0  0  0  0  0  0  0
   18.0909    6.1415   -7.2975 C   0  0  0  1  0  0  0  0  0  0  0  0
   18.1942    6.2326   -6.2666 H   0  0  0  1  0  0  0  0  0  0  0  0
   18.9743    6.4403   -9.5062 C   0  0  0  1  0  0  0  0  0  0  0  0
   19.1137    6.5564   -8.1360 C   0  0  0  1  0  0  0  0  0  0  0  0
   20.2685    7.0821   -7.6596 O   0  0  0  1  0  0  0  0  0  0  0  0
   20.2315    8.0398   -7.7152 H   0  0  0  1  0  0  0  0  0  0  0  0
   20.0349    6.8827  -10.2226 O   0  0  0  1  0  0  0  0  0  0  0  0
   20.0762    6.5363  -11.6158 C   0  0  0  1  0  0  0  0  0  0  0  0
   20.9603    5.9681  -11.8165 H   0  0  0  1  0  0  0  0  0  0  0  0
   20.0851    7.4294  -12.2050 H   0  0  0  1  0  0  0  0  0  0  0  0
   19.2139    5.9534  -11.8638 H   0  0  0  1  0  0  0  0  0  0  0  0
  1  2  1  0  0  0  0
  1  3  1  0  0  0  0
  1  4  1  0  0  0  0
  1 65  1  0  0  0  0
  3  6  1  0  0  0  0
  4  5  1  0  0  0  0
  4  8  1  0  0  0  0
  4 10  1  0  0  0  0
  6  7  1  0  0  0  0
  6  8  1  0  0  0  0
  6 57  1  0  0  0  0
  8  9  1  0  0  0  0
  8 60  1  0  0  0  0
 10 11  1  0  0  0  0
 12 13  1  0  0  0  0
 12 14  1  0  0  0  0
 12 15  1  0  0  0  0
 12 18  1  0  0  0  0
 15 16  1  0  0  0  0
 15 17  1  0  0  0  0
 15 79  1  0  0  0  0
 18 19  1  0  0  0  0
 18 20  1  0  0  0  0
 20 21  2  0  0  0  0
 20 25  1  0  0  0  0
 22 23  1  0  0  0  0
 22 24  1  0  0  0  0
 22 25  1  0  0  0  0
 22 28  1  0  0  0  0
 25 26  1  0  0  0  0
 25 27  1  0  0  0  0
 28 29  1  0  0  0  0
 28 31  1  0  0  0  0
 30 31  2  0  0  0  0
 31 44  1  0  0  0  0
 32 33  1  0  0  0  0
 32 34  1  0  0  0  0
 32 39  1  0  0  0  0
 32 48  1  0  0  0  0
 35 36  1  0  0  0  0
 35 37  1  0  0  0  0
 35 38  1  0  0  0  0
 35 39  1  0  0  0  0
 39 40  1  0  0  0  0
 39 44  1  0  0  0  0
 40 41  1  0  0  0  0
 40 42  1  0  0  0  0
 40 43  1  0  0  0  0
 44 45  1  0  0  0  0
 44 46  1  0  0  0  0
 46 47  1  0  0  0  0
 48 55  1  0  0  0  0
 49 55  1  0  0  0  0
 49 56  1  0  0  0  0
 50 56  1  0  0  0  0
 50 57  1  0  0  0  0
 51 55  1  0  0  0  0
 52 55  2  0  0  0  0
 53 56  1  0  0  0  0
 54 56  2  0  0  0  0
 57 58  1  0  0  0  0
 57 59  1  0  0  0  0
 60 63  1  0  0  0  0
 61 63  2  0  0  0  0
 62 63  1  0  0  0  0
 63 64  1  0  0  0  0
 65 66  1  0  0  0  0
 65 67  1  0  0  0  0
 66 69  2  0  0  0  0
 66 70  1  0  0  0  0
 67 68  1  0  0  0  0
 67 71  2  0  0  0  0
 69 71  1  0  0  0  0
 69 72  1  0  0  0  0
 70 73  2  0  0  0  0
 72 75  2  0  0  0  0
 72 76  1  0  0  0  0
 73 74  1  0  0  0  0
 73 75  1  0  0  0  0
 76 77  1  0  0  0  0
 76 78  1  0  0  0  0
 79 81  1  0  0  0  0
 80 81  2  0  0  0  0
 81 82  1  0  0  0  0
 82 83  1  0  0  0  0
 82 84  2  0  0  0  0
 84 85  1  0  0  0  0
 84 86  1  0  0  0  0
 86 87  1  0  0  0  0
 86 89  2  0  0  0  0
 87 88  1  0  0  0  0
 87 91  2  0  0  0  0
 89 90  1  0  0  0  0
 89 93  1  0  0  0  0
 91 92  1  0  0  0  0
 91 94  1  0  0  0  0
 93 94  2  0  0  0  0
 93 97  1  0  0  0  0
 94 95  1  0  0  0  0
 95 96  1  0  0  0  0
 97 98  1  0  0  0  0
 98 99  1  0  0  0  0
 98100  1  0  0  0  0
 98101  1  0  0  0  0
M  BCL ATM C_TeTeTeTe H_S O_Te2Te2TeTe C_TeTeTeTe H_S C_TeTeTeTe H_S C_TeTeTeTe H_S O_Te2Te2TeTe H_S C_TeTeTeTe H_S H_S C_TeTeTeTe H_S H_S N_TrTrTrPi2 H_S C_TrTrTrPi O_Tr2Tr2TrPi C_TeTeTeTe H_S H_S C_TeTeTeTe H_S H_S N_TrTrTrPi2 H_S O_Tr2Tr2TrPi C_TrTrTrPi C_TeTeTeTe H_S H_S C_TeTeTeTe H_S H_S H_S C_TeTeTeTe C_TeTeTeTe H_S H_S H_S C_TeTeTeTe H_S O_Te2Te2TeTe H_S O_Tr2TrTrPi2 O_Tr2TrTrPi2 O_Tr2TrTrPi2 O_Te2Te2TeTe O_Tr2Tr2TrPi O_Te2Te2TeTe O_Tr2Tr2TrPi P_TeTeTeTePi P_TeTeTeTePi C_TeTeTeTe H_S H_S O_Tr2TrTrPi2 O_Tr2Tr2TrPi O_Te2Te2Te2Te P_TeTeTeTePi O_Te2Te2Te2Te N_TrTrTrPi2 C_TrTrTrPi C_TrTrTrPi H_S C_TrTrTrPi N_Tr2TrTrPi N_Tr2TrTrPi C_TrTrTrPi C_TrTrTrPi H_S N_Tr2TrTrPi N_TrTrTrPi2 H_S H_S S_Te2Te2TeTe O_Tr2Tr2TrPi C_TrTrTrPi C_TrTrTrPi H_S C_TrTrTrPi H_S C_TrTrTrPi C_TrTrTrPi H_S C_TrTrTrPi H_S C_TrTrTrPi H_S C_TrTrTrPi C_TrTrTrPi O_Te2Te2TeTe H_S O_Tr2TrTrPi2 C_TeTeTeTe H_S H_S H_S
M  BCL BND NonConjugatedSingleBond NonConjugatedSingleBondInRing NonConjugatedSingleBondInRing NonConjugatedSingleBond NonConjugatedSingleBondInRing NonConjugatedSingleBond NonConjugatedSingleBondInRing NonConjugatedSingleBond NonConjugatedSingleBond NonConjugatedSingleBondInRing NonConjugatedSingleBond NonConjugatedSingleBond NonConjugatedSingleBond NonConjugatedSingleBond NonConjugatedSingleBond NonConjugatedSingleBond NonConjugatedSingleBond NonConjugatedSingleBond NonConjugatedSingleBond NonConjugatedSingleBond NonConjugatedSingleBond NonConjugatedSingleBond AmideSingleBond ConjugatedDoubleBond NonConjugatedSingleBond NonConjugatedSingleBond NonConjugatedSingleBond NonConjugatedSingleBond NonConjugatedSingleBond NonConjugatedSingleBond NonConjugatedSingleBond NonConjugatedSingleBond AmideSingleBond ConjugatedDoubleBond NonConjugatedSingleBond NonConjugatedSingleBond NonConjugatedSingleBond NonConjugatedSingleBond NonConjugatedSingleBond NonConjugatedSingleBond NonConjugatedSingleBond NonConjugatedSingleBond NonConjugatedSingleBond NonConjugatedSingleBond NonConjugatedSingleBond NonConjugatedSingleBond NonConjugatedSingleBond NonConjugatedSingleBond NonConjugatedSingleBond NonConjugatedSingleBond NonConjugatedSingleBond ConjugatedSingleBond ConjugatedSingleBond ConjugatedSingleBond ConjugatedSingleBond NonConjugatedSingleBond ConjugatedSingleBond ConjugatedDoubleBond ConjugatedSingleBond ConjugatedDoubleBond NonConjugatedSingleBond NonConjugatedSingleBond ConjugatedSingleBond ConjugatedDoubleBond ConjugatedSingleBond ConjugatedSingleBond AromaticSingleBond AromaticSingleBond AromaticDoubleBond AromaticSingleBond NonConjugatedSingleBond AromaticDoubleBond AromaticSingleBond AromaticSingleBond AromaticDoubleBond AromaticDoubleBond ConjugatedSingleBond NonConjugatedSingleBond AromaticSingleBond NonConjugatedSingleBond NonConjugatedSingleBond ConjugatedSingleBond ConjugatedDoubleBond ConjugatedSingleBond NonConjugatedSingleBond ConjugatedDoubleBond NonConjugatedSingleBond ConjugatedSingleBond AromaticSingleBond AromaticDoubleBond NonConjugatedSingleBond AromaticDoubleBond NonConjugatedSingleBond AromaticSingleBond NonConjugatedSingleBond AromaticSingleBond AromaticDoubleBond ConjugatedSingleBond ConjugatedSingleBond NonConjugatedSingleBond NonConjugatedSingleBond NonConjugatedSingleBond NonConjugatedSingleBond NonConjugatedSingleBond
M  BCL CHI   1   R   4   R   6   R   8   S  44   S  55   S  56   R
M  BCL DBI - - - - - - - - - - E - - -
M  END
> <ConfClashScore>
0 

> <ConfOneFourInteractionScore>
-0.982193 

> <ConfScore>
0.0710751 

> <ConfScorePBest>
0.00706447 

> <ConfTolerance>
2.98996 

$$$$
L02.****
  PyMOL2.5          3D                             0

101104  0  0  0  0  0  0  0  0999 V2000
   15.2401   -4.3612   -5.5019 C   0  0  0  1  0  0  0  0  0  0  0  0
   15.0342   -3.9602   -4.5315 H   0  0  0  1  0  0  0  0  0  0  0  0
   14.3363   -3.8130   -6.4576 O   0  0  0  1  0  0  0  0  0  0  0  0
   15.0378   -5.8421   -5.4967 C   0  0  0  1  0  0  0  0  0  0  0  0
   15.9703   -6.3469   -5.6397 H   0  0  0  1  0  0  0  0  0  0  0  0
   14.0550   -4.8350   -7.3962 C   0  0  0  1  0  0  0  0  0  0  0  0
   14.7863   -4.8328   -8.1773 H   0  0  0  1  0  0  0  0  0  0  0  0
   14.1099   -6.1258   -6.6372 C   0  0  0  1  0  0  0  0  0  0  0  0
   13.1389   -6.3962   -6.2780 H   0  0  0  1  0  0  0  0  0  0  0  0
   14.4533   -6.2610   -4.2626 O   0  0  0  1  0  0  0  0  0  0  0  0
   15.1359   -6.6171   -3.6892 H   0  0  0  1  0  0  0  0  0  0  0  0
   16.4429  -10.8954  -11.4081 C   0  0  0  1  0  0  0  0  0  0  0  0
   15.4329  -11.1793  -11.6181 H   0  0  0  1  0  0  0  0  0  0  0  0
   17.0922  -11.3097  -12.1507 H   0  0  0  1  0  0  0  0  0  0  0  0
   16.8315  -11.4525  -10.0610 C   0  0  0  1  0  0  0  0  0  0  0  0
   16.7003  -12.5140  -10.0912 H   0  0  0  1  0  0  0  0  0  0  0  0
   16.1760  -11.0324   -9.3271 H   0  0  0  1  0  0  0  0  0  0  0  0
   16.5399   -9.4443  -11.4610 N   0  0  0  1  0  0  0  0  0  0  0  0
   17.4274   -9.0288  -11.4457 H   0  0  0  1  0  0  0  0  0  0  0  0
   15.4613   -8.6589  -11.5298 C   0  0  0  1  0  0  0  0  0  0  0  0
   14.3138   -9.0997  -11.5796 O   0  0  0  1  0  0  0  0  0  0  0  0
   15.0749   -6.4629  -12.7174 C   0  0  0  1  0  0  0  0  0  0  0  0
   15.1338   -7.0942  -13.5794 H   0  0  0  1  0  0  0  0  0  0  0  0
   15.6056   -5.5528  -12.9043 H   0  0  0  1  0  0  0  0  0  0  0  0
   15.7305   -7.1779  -11.5432 C   0  0  0  1  0  0  0  0  0  0  0  0
   16.7880   -7.0245  -11.5985 H   0  0  0  1  0  0  0  0  0  0  0  0
   15.3554   -6.7553  -10.6346 H   0  0  0  1  0  0  0  0  0  0  0  0
   13.6687   -6.1428  -12.4656 N   0  0  0  1  0  0  0  0  0  0  0  0
   13.0357   -6.8762  -12.3182 H   0  0  0  1  0  0  0  0  0  0  0  0
   13.8527   -3.8894  -12.7366 O   0  0  0  1  0  0  0  0  0  0  0  0
   13.2184   -4.8854  -12.4299 C   0  0  0  1  0  0  0  0  0  0  0  0
   11.6800   -2.2715  -12.5499 C   0  0  0  1  0  0  0  0  0  0  0  0
   11.1359   -1.5172  -13.0789 H   0  0  0  1  0  0  0  0  0  0  0  0
   12.7048   -2.2545  -12.8571 H   0  0  0  1  0  0  0  0  0  0  0  0
   11.3108   -4.0125  -14.3062 C   0  0  0  1  0  0  0  0  0  0  0  0
   10.8583   -3.2728  -14.9331 H   0  0  0  1  0  0  0  0  0  0  0  0
   10.8783   -4.9688  -14.5141 H   0  0  0  1  0  0  0  0  0  0  0  0
   12.3629   -4.0469  -14.4980 H   0  0  0  1  0  0  0  0  0  0  0  0
   11.0713   -3.6525  -12.8350 C   0  0  0  1  0  0  0  0  0  0  0  0
    9.5726   -3.6681  -12.5346 C   0  0  0  1  0  0  0  0  0  0  0  0
    9.1011   -4.4376  -13.1094 H   0  0  0  1  0  0  0  0  0  0  0  0
    9.1477   -2.7203  -12.7914 H   0  0  0  1  0  0  0  0  0  0  0  0
    9.4200   -3.8574  -11.4926 H   0  0  0  1  0  0  0  0  0  0  0  0
   11.7809   -4.6957  -11.9617 C   0  0  0  1  0  0  0  0  0  0  0  0
   11.8074   -4.3204  -10.9600 H   0  0  0  1  0  0  0  0  0  0  0  0
   11.1021   -5.9394  -11.9791 O   0  0  0  1  0  0  0  0  0  0  0  0
   10.6119   -6.0485  -11.1609 H   0  0  0  1  0  0  0  0  0  0  0  0
   11.5888   -2.0369  -11.1249 O   0  0  0  1  0  0  0  0  0  0  0  0
   11.9899   -0.9325   -8.9053 O   0  0  0  1  0  0  0  0  0  0  0  0
   12.7097   -3.3270   -8.6081 O   0  0  0  1  0  0  0  0  0  0  0  0
   13.7845   -0.8997  -10.5980 O   0  0  0  0  0  0  0  0  0  0  0  0
   11.6522    0.4260  -10.9967 O   0  0  0  1  0  0  0  0  0  0  0  0
   12.0801   -2.0421   -6.5440 O   0  0  0  0  0  0  0  0  0  0  0  0
   10.3474   -2.7122   -8.1750 O   0  0  0  1  0  0  0  0  0  0  0  0
   12.3210   -0.7665  -10.4460 P   0  0  0  1  0  0  0  0  0  0  0  0
   11.7009   -2.2256   -7.9872 P   0  0  0  1  0  0  0  0  0  0  0  0
   12.6811   -4.6356   -7.9912 C   0  0  0  1  0  0  0  0  0  0  0  0
   11.9342   -4.6713   -7.2259 H   0  0  0  1  0  0  0  0  0  0  0  0
   12.4786   -5.3891   -8.7234 H   0  0  0  1  0  0  0  0  0  0  0  0
   14.6329   -7.1942   -7.4739 O   0  0  0  1  0  0  0  0  0  0  0  0
   14.0244   -9.1991   -5.9481 O   0  0  0  1  0  0  0  0  0  0  0  0
   14.7836   -9.6850   -8.3312 O   0  5  0  1  0  0  0  0  0  0  0  0
   13.9776   -8.6914   -7.3375 P   0  0  0  1  0  0  0  0  0  0  0  0
   12.4196   -8.6917   -7.7812 O   0  5  0  1  0  0  0  0  0  0  0  0
   16.6270   -4.0437   -5.8806 N   0  0  0  1  0  0  0  0  0  0  0  0
   17.6547   -3.8609   -4.9916 C   0  0  0  1  0  0  0  0  0  0  0  0
   17.1459   -3.7620   -7.1070 C   0  0  0  1  0  0  0  0  0  0  0  0
   16.5803   -3.8117   -7.9783 H   0  0  0  1  0  0  0  0  0  0  0  0
   18.7571   -3.4770   -5.7669 C   0  0  0  1  0  0  0  0  0  0  0  0
   17.6294   -4.0250   -3.6682 N   0  0  0  1  0  0  0  0  0  0  0  0
   18.4069   -3.4246   -7.1071 N   0  0  0  1  0  0  0  0  0  0  0  0
   19.9354   -3.2493   -5.0622 C   0  0  0  1  0  0  0  0  0  0  0  0
   18.8135   -3.7674   -3.1265 C   0  0  0  1  0  0  0  0  0  0  0  0
   18.8674   -3.8708   -2.0931 H   0  0  0  1  0  0  0  0  0  0  0  0
   19.9508   -3.3914   -3.7325 N   0  0  0  1  0  0  0  0  0  0  0  0
   21.0957   -2.7907   -5.6642 N   0  0  0  1  0  0  0  0  0  0  0  0
   21.8651   -2.5347   -5.1139 H   0  0  0  1  0  0  0  0  0  0  0  0
   21.1472   -2.7224   -6.6405 H   0  0  0  1  0  0  0  0  0  0  0  0
   18.5334  -11.1127   -9.5521 S   0  0  0  1  0  0  0  0  0  0  0  0
   19.5438  -12.2465   -7.3989 O   0  0  0  1  0  0  0  0  0  0  0  0
   18.5403  -12.0788   -8.1042 C   0  0  0  1  0  0  0  0  0  0  0  0
   17.3316  -12.8401   -7.8102 C   0  0  0  1  0  0  0  0  0  0  0  0
   16.4093  -12.4235   -8.0499 H   0  0  0  1  0  0  0  0  0  0  0  0
   17.3601  -14.0474   -7.2473 C   0  0  0  1  0  0  0  0  0  0  0  0
   18.2824  -14.4641   -7.0075 H   0  0  0  1  0  0  0  0  0  0  0  0
   16.1335  -14.8201   -6.9491 C   0  0  0  1  0  0  0  0  0  0  0  0
   14.8733  -14.3406   -7.2705 C   0  0  0  1  0  0  0  0  0  0  0  0
   14.7719  -13.4169   -7.7374 H   0  0  0  1  0  0  0  0  0  0  0  0
   16.2684  -16.0501   -6.3334 C   0  0  0  1  0  0  0  0  0  0  0  0
   17.2142  -16.4117   -6.0958 H   0  0  0  1  0  0  0  0  0  0  0  0
   13.7513  -15.0900   -6.9707 C   0  0  0  1  0  0  0  0  0  0  0  0
   12.8056  -14.7285   -7.2083 H   0  0  0  1  0  0  0  0  0  0  0  0
   15.1433  -16.8019   -6.0326 C   0  0  0  1  0  0  0  0  0  0  0  0
   13.8868  -16.3237   -6.3532 C   0  0  0  1  0  0  0  0  0  0  0  0
   12.7183  -16.9674   -6.1146 O   0  0  0  1  0  0  0  0  0  0  0  0
   12.0638  -16.3382   -5.8025 H   0  0  0  1  0  0  0  0  0  0  0  0
   15.3990  -17.9854   -5.4261 O   0  0  0  1  0  0  0  0  0  0  0  0
   14.2683  -18.7723   -5.0200 C   0  0  0  1  0  0  0  0  0  0  0  0
   13.5320  -18.7669   -5.7963 H   0  0  0  1  0  0  0  0  0  0  0  0
   13.8481  -18.3583   -4.1273 H   0  0  0  1  0  0  0  0  0  0  0  0
   14.5825  -19.7781   -4.8337 H   0  0  0  1  0  0  0  0  0  0  0  0
  1  2  1  0  0  0  0
  1  3  1  0  0  0  0
  1  4  1  0  0  0  0
  1 65  1  0  0  0  0
  3  6  1  0  0  0  0
  4  5  1  0  0  0  0
  4  8  1  0  0  0  0
  4 10  1  0  0  0  0
  6  7  1  0  0  0  0
  6  8  1  0  0  0  0
  6 57  1  0  0  0  0
  8  9  1  0  0  0  0
  8 60  1  0  0  0  0
 10 11  1  0  0  0  0
 12 13  1  0  0  0  0
 12 14  1  0  0  0  0
 12 15  1  0  0  0  0
 12 18  1  0  0  0  0
 15 16  1  0  0  0  0
 15 17  1  0  0  0  0
 15 79  1  0  0  0  0
 18 19  1  0  0  0  0
 18 20  1  0  0  0  0
 20 21  2  0  0  0  0
 20 25  1  0  0  0  0
 22 23  1  0  0  0  0
 22 24  1  0  0  0  0
 22 25  1  0  0  0  0
 22 28  1  0  0  0  0
 25 26  1  0  0  0  0
 25 27  1  0  0  0  0
 28 29  1  0  0  0  0
 28 31  1  0  0  0  0
 30 31  2  0  0  0  0
 31 44  1  0  0  0  0
 32 33  1  0  0  0  0
 32 34  1  0  0  0  0
 32 39  1  0  0  0  0
 32 48  1  0  0  0  0
 35 36  1  0  0  0  0
 35 37  1  0  0  0  0
 35 38  1  0  0  0  0
 35 39  1  0  0  0  0
 39 40  1  0  0  0  0
 39 44  1  0  0  0  0
 40 41  1  0  0  0  0
 40 42  1  0  0  0  0
 40 43  1  0  0  0  0
 44 45  1  0  0  0  0
 44 46  1  0  0  0  0
 46 47  1  0  0  0  0
 48 55  1  0  0  0  0
 49 55  1  0  0  0  0
 49 56  1  0  0  0  0
 50 56  1  0  0  0  0
 50 57  1  0  0  0  0
 51 55  1  0  0  0  0
 52 55  2  0  0  0  0
 53 56  1  0  0  0  0
 54 56  2  0  0  0  0
 57 58  1  0  0  0  0
 57 59  1  0  0  0  0
 60 63  1  0  0  0  0
 61 63  2  0  0  0  0
 62 63  1  0  0  0  0
 63 64  1  0  0  0  0
 65 66  1  0  0  0  0
 65 67  1  0  0  0  0
 66 69  2  0  0  0  0
 66 70  1  0  0  0  0
 67 68  1  0  0  0  0
 67 71  2  0  0  0  0
 69 71  1  0  0  0  0
 69 72  1  0  0  0  0
 70 73  2  0  0  0  0
 72 75  2  0  0  0  0
 72 76  1  0  0  0  0
 73 74  1  0  0  0  0
 73 75  1  0  0  0  0
 76 77  1  0  0  0  0
 76 78  1  0  0  0  0
 79 81  1  0  0  0  0
 80 81  2  0  0  0  0
 81 82  1  0  0  0  0
 82 83  1  0  0  0  0
 82 84  2  0  0  0  0
 84 85  1  0  0  0  0
 84 86  1  0  0  0  0
 86 87  1  0  0  0  0
 86 89  2  0  0  0  0
 87 88  1  0  0  0  0
 87 91  2  0  0  0  0
 89 90  1  0  0  0  0
 89 93  1  0  0  0  0
 91 92  1  0  0  0  0
 91 94  1  0  0  0  0
 93 94  2  0  0  0  0
 93 97  1  0  0  0  0
 94 95  1  0  0  0  0
 95 96  1  0  0  0  0
 97 98  1  0  0  0  0
 98 99  1  0  0  0  0
 98100  1  0  0  0  0
 98101  1  0  0  0  0
M  BCL ATM C_TeTeTeTe H_S O_Te2Te2TeTe C_TeTeTeTe H_S C_TeTeTeTe H_S C_TeTeTeTe H_S O_Te2Te2TeTe H_S C_TeTeTeTe H_S H_S C_TeTeTeTe H_S H_S N_TrTrTrPi2 H_S C_TrTrTrPi O_Tr2Tr2TrPi C_TeTeTeTe H_S H_S C_TeTeTeTe H_S H_S N_TrTrTrPi2 H_S O_Tr2Tr2TrPi C_TrTrTrPi C_TeTeTeTe H_S H_S C_TeTeTeTe H_S H_S H_S C_TeTeTeTe C_TeTeTeTe H_S H_S H_S C_TeTeTeTe H_S O_Te2Te2TeTe H_S O_Tr2TrTrPi2 O_Tr2TrTrPi2 O_Tr2TrTrPi2 O_Te2Te2TeTe O_Tr2Tr2TrPi O_Te2Te2TeTe O_Tr2Tr2TrPi P_TeTeTeTePi P_TeTeTeTePi C_TeTeTeTe H_S H_S O_Tr2TrTrPi2 O_Tr2Tr2TrPi O_Te2Te2Te2Te P_TeTeTeTePi O_Te2Te2Te2Te N_TrTrTrPi2 C_TrTrTrPi C_TrTrTrPi H_S C_TrTrTrPi N_Tr2TrTrPi N_Tr2TrTrPi C_TrTrTrPi C_TrTrTrPi H_S N_Tr2TrTrPi N_TrTrTrPi2 H_S H_S S_Te2Te2TeTe O_Tr2Tr2TrPi C_TrTrTrPi C_TrTrTrPi H_S C_TrTrTrPi H_S C_TrTrTrPi C_TrTrTrPi H_S C_TrTrTrPi H_S C_TrTrTrPi H_S C_TrTrTrPi C_TrTrTrPi O_Te2Te2TeTe H_S O_Tr2TrTrPi2 C_TeTeTeTe H_S H_S H_S
M  BCL BND NonConjugatedSingleBond NonConjugatedSingleBondInRing NonConjugatedSingleBondInRing NonConjugatedSingleBond NonConjugatedSingleBondInRing NonConjugatedSingleBond NonConjugatedSingleBondInRing NonConjugatedSingleBond NonConjugatedSingleBond NonConjugatedSingleBondInRing NonConjugatedSingleBond NonConjugatedSingleBond NonConjugatedSingleBond NonConjugatedSingleBond NonConjugatedSingleBond NonConjugatedSingleBond NonConjugatedSingleBond NonConjugatedSingleBond NonConjugatedSingleBond NonConjugatedSingleBond NonConjugatedSingleBond NonConjugatedSingleBond AmideSingleBond ConjugatedDoubleBond NonConjugatedSingleBond NonConjugatedSingleBond NonConjugatedSingleBond NonConjugatedSingleBond NonConjugatedSingleBond NonConjugatedSingleBond NonConjugatedSingleBond NonConjugatedSingleBond AmideSingleBond ConjugatedDoubleBond NonConjugatedSingleBond NonConjugatedSingleBond NonConjugatedSingleBond NonConjugatedSingleBond NonConjugatedSingleBond NonConjugatedSingleBond NonConjugatedSingleBond NonConjugatedSingleBond NonConjugatedSingleBond NonConjugatedSingleBond NonConjugatedSingleBond NonConjugatedSingleBond NonConjugatedSingleBond NonConjugatedSingleBond NonConjugatedSingleBond NonConjugatedSingleBond NonConjugatedSingleBond ConjugatedSingleBond ConjugatedSingleBond ConjugatedSingleBond ConjugatedSingleBond NonConjugatedSingleBond ConjugatedSingleBond ConjugatedDoubleBond ConjugatedSingleBond ConjugatedDoubleBond NonConjugatedSingleBond NonConjugatedSingleBond ConjugatedSingleBond ConjugatedDoubleBond ConjugatedSingleBond ConjugatedSingleBond AromaticSingleBond AromaticSingleBond AromaticDoubleBond AromaticSingleBond NonConjugatedSingleBond AromaticDoubleBond AromaticSingleBond AromaticSingleBond AromaticDoubleBond AromaticDoubleBond ConjugatedSingleBond NonConjugatedSingleBond AromaticSingleBond NonConjugatedSingleBond NonConjugatedSingleBond ConjugatedSingleBond ConjugatedDoubleBond ConjugatedSingleBond NonConjugatedSingleBond ConjugatedDoubleBond NonConjugatedSingleBond ConjugatedSingleBond AromaticSingleBond AromaticDoubleBond NonConjugatedSingleBond AromaticDoubleBond NonConjugatedSingleBond AromaticSingleBond NonConjugatedSingleBond AromaticSingleBond AromaticDoubleBond ConjugatedSingleBond ConjugatedSingleBond NonConjugatedSingleBond NonConjugatedSingleBond NonConjugatedSingleBond NonConjugatedSingleBond NonConjugatedSingleBond
M  BCL CHI   1   R   4   R   6   R   8   S  44   S  55   S  56   R
M  BCL DBI - - - - - - - - - - E - - -
M  END
> <ConfClashScore>
0 

> <ConfOneFourInteractionScore>
-0.986065 

> <ConfScore>
0.0741952 

> <ConfScorePBest>
0.00696147 

> <ConfTolerance>
3.4007 

$$$$
L02.****
  PyMOL2.5          3D                             0

101104  0  0  0  0  0  0  0  0999 V2000
   15.2486   -4.4847   -5.5592 C   0  0  0  1  0  0  0  0  0  0  0  0
   15.2725   -5.4843   -5.1783 H   0  0  0  1  0  0  0  0  0  0  0  0
   14.6545   -3.6149   -4.6342 O   0  0  0  1  0  0  0  0  0  0  0  0
   14.3446   -4.3958   -6.7972 C   0  0  0  1  0  0  0  0  0  0  0  0
   14.6179   -3.5666   -7.4157 H   0  0  0  1  0  0  0  0  0  0  0  0
   13.2660   -3.3609   -4.9452 C   0  0  0  1  0  0  0  0  0  0  0  0
   13.1099   -2.3213   -5.1447 H   0  0  0  1  0  0  0  0  0  0  0  0
   12.9782   -4.1974   -6.1955 C   0  0  0  1  0  0  0  0  0  0  0  0
   12.5333   -5.1352   -5.9358 H   0  0  0  1  0  0  0  0  0  0  0  0
   14.4001   -5.6003   -7.5629 O   0  0  0  1  0  0  0  0  0  0  0  0
   15.1817   -5.5901   -8.1202 H   0  0  0  1  0  0  0  0  0  0  0  0
    6.5678   -6.5070   -3.0507 C   0  0  0  1  0  0  0  0  0  0  0  0
    7.6048   -6.2441   -3.0303 H   0  0  0  1  0  0  0  0  0  0  0  0
    6.2535   -6.6425   -4.0645 H   0  0  0  1  0  0  0  0  0  0  0  0
    5.7710   -5.3785   -2.4443 C   0  0  0  1  0  0  0  0  0  0  0  0
    5.5661   -4.6581   -3.2085 H   0  0  0  1  0  0  0  0  0  0  0  0
    6.3575   -4.9243   -1.6732 H   0  0  0  1  0  0  0  0  0  0  0  0
    6.3897   -7.7697   -2.3316 N   0  0  0  1  0  0  0  0  0  0  0  0
    5.4926   -7.9883   -2.0034 H   0  0  0  1  0  0  0  0  0  0  0  0
    7.3725   -8.6432   -2.0944 C   0  0  0  1  0  0  0  0  0  0  0  0
    8.5230   -8.4886   -2.4695 O   0  0  0  1  0  0  0  0  0  0  0  0
    8.0834  -10.2265   -0.2587 C   0  0  0  1  0  0  0  0  0  0  0  0
    9.0085  -10.2700   -0.7946 H   0  0  0  1  0  0  0  0  0  0  0  0
    7.8451  -11.1978    0.1219 H   0  0  0  1  0  0  0  0  0  0  0  0
    6.9882   -9.8180   -1.2352 C   0  0  0  1  0  0  0  0  0  0  0  0
    6.7726  -10.6500   -1.8726 H   0  0  0  1  0  0  0  0  0  0  0  0
    6.1129   -9.5597   -0.6767 H   0  0  0  1  0  0  0  0  0  0  0  0
    8.2559   -9.3290    0.8689 N   0  0  0  1  0  0  0  0  0  0  0  0
    7.9272   -9.5703    1.7600 H   0  0  0  1  0  0  0  0  0  0  0  0
    9.3587   -7.8442   -0.4223 O   0  0  0  1  0  0  0  0  0  0  0  0
    8.8801   -8.1558    0.6558 C   0  0  0  1  0  0  0  0  0  0  0  0
    9.1910   -5.1810    0.4368 C   0  0  0  1  0  0  0  0  0  0  0  0
    9.3927   -5.8434   -0.3790 H   0  0  0  1  0  0  0  0  0  0  0  0
   10.1132   -4.8771    0.8865 H   0  0  0  1  0  0  0  0  0  0  0  0
    6.9357   -6.1725    0.8602 C   0  0  0  1  0  0  0  0  0  0  0  0
    6.5310   -7.0661    1.2877 H   0  0  0  1  0  0  0  0  0  0  0  0
    7.0396   -6.2987   -0.1972 H   0  0  0  1  0  0  0  0  0  0  0  0
    6.2776   -5.3525    1.0591 H   0  0  0  1  0  0  0  0  0  0  0  0
    8.3090   -5.8864    1.4776 C   0  0  0  1  0  0  0  0  0  0  0  0
    8.1449   -5.0304    2.7336 C   0  0  0  1  0  0  0  0  0  0  0  0
    7.5746   -5.5693    3.4611 H   0  0  0  1  0  0  0  0  0  0  0  0
    7.6362   -4.1232    2.4826 H   0  0  0  1  0  0  0  0  0  0  0  0
    9.1091   -4.7996    3.1361 H   0  0  0  1  0  0  0  0  0  0  0  0
    8.9581   -7.2247    1.8500 C   0  0  0  1  0  0  0  0  0  0  0  0
    9.9864   -7.0533    2.0915 H   0  0  0  1  0  0  0  0  0  0  0  0
    8.2805   -7.8031    2.9591 O   0  0  0  1  0  0  0  0  0  0  0  0
    7.4227   -7.3851    3.0641 H   0  0  0  1  0  0  0  0  0  0  0  0
    8.4683   -4.0207   -0.0377 O   0  0  0  1  0  0  0  0  0  0  0  0
   10.0856   -3.3746   -1.9194 O   0  0  0  1  0  0  0  0  0  0  0  0
   11.0099   -3.8411   -4.2128 O   0  0  0  1  0  0  0  0  0  0  0  0
    8.2938   -1.7632   -1.0166 O   0  0  0  0  0  0  0  0  0  0  0  0
   10.3839   -2.3880    0.2742 O   0  0  0  1  0  0  0  0  0  0  0  0
    8.7192   -3.0914   -4.0721 O   0  0  0  0  0  0  0  0  0  0  0  0
   10.5919   -1.4861   -3.3584 O   0  0  0  1  0  0  0  0  0  0  0  0
    9.3093   -2.7703   -0.6231 P   0  0  0  1  0  0  0  0  0  0  0  0
   10.0336   -2.8449   -3.4350 P   0  0  0  1  0  0  0  0  0  0  0  0
   12.4122   -3.7774   -3.8450 C   0  0  0  1  0  0  0  0  0  0  0  0
   12.5234   -3.0781   -3.0428 H   0  0  0  1  0  0  0  0  0  0  0  0
   12.7242   -4.7475   -3.5189 H   0  0  0  1  0  0  0  0  0  0  0  0
   12.1098   -3.4874   -7.1051 O   0  0  0  1  0  0  0  0  0  0  0  0
   10.2435   -3.5402   -8.9696 O   0  0  0  1  0  0  0  0  0  0  0  0
    9.6430   -3.7027   -6.5535 O   0  5  0  1  0  0  0  0  0  0  0  0
   10.7160   -4.1209   -7.6929 P   0  0  0  1  0  0  0  0  0  0  0  0
   10.6918   -5.7406   -7.6733 O   0  5  0  1  0  0  0  0  0  0  0  0
   16.6091   -4.0511   -5.8786 N   0  0  0  1  0  0  0  0  0  0  0  0
   17.6412   -3.8501   -4.9987 C   0  0  0  1  0  0  0  0  0  0  0  0
   17.1131   -3.7636   -7.1099 C   0  0  0  1  0  0  0  0  0  0  0  0
   16.5411   -3.8241   -7.9763 H   0  0  0  1  0  0  0  0  0  0  0  0
   18.7308   -3.4504   -5.7840 C   0  0  0  1  0  0  0  0  0  0  0  0
   17.6296   -4.0120   -3.6748 N   0  0  0  1  0  0  0  0  0  0  0  0
   18.3685   -3.4062   -7.1213 N   0  0  0  1  0  0  0  0  0  0  0  0
   19.9112   -3.2025   -5.0897 C   0  0  0  1  0  0  0  0  0  0  0  0
   18.8140   -3.7344   -3.1436 C   0  0  0  1  0  0  0  0  0  0  0  0
   18.8783   -3.8349   -2.1105 H   0  0  0  1  0  0  0  0  0  0  0  0
   19.9400   -3.3416   -3.7599 N   0  0  0  1  0  0  0  0  0  0  0  0
   21.1426   -2.8053   -5.6190 N   0  0  0  1  0  0  0  0  0  0  0  0
   21.2626   -2.7466   -6.5899 H   0  0  0  1  0  0  0  0  0  0  0  0
   21.8858   -2.5855   -5.0192 H   0  0  0  1  0  0  0  0  0  0  0  0
    4.2006   -5.9195   -1.7286 S   0  0  0  1  0  0  0  0  0  0  0  0
    3.7695   -6.3674   -4.2827 O   0  0  0  1  0  0  0  0  0  0  0  0
    3.2822   -6.4439   -3.1786 C   0  0  0  1  0  0  0  0  0  0  0  0
    1.9134   -6.8643   -2.8924 C   0  0  0  1  0  0  0  0  0  0  0  0
    1.6326   -6.7761   -1.8949 H   0  0  0  1  0  0  0  0  0  0  0  0
    0.9643   -7.3419   -3.6963 C   0  0  0  1  0  0  0  0  0  0  0  0
    1.2209   -7.4396   -4.6994 H   0  0  0  1  0  0  0  0  0  0  0  0
   -0.4161   -7.7517   -3.3323 C   0  0  0  1  0  0  0  0  0  0  0  0
   -0.5354   -8.3457   -2.0856 C   0  0  0  1  0  0  0  0  0  0  0  0
    0.3052   -8.4693   -1.4859 H   0  0  0  1  0  0  0  0  0  0  0  0
   -1.5342   -7.5826   -4.1269 C   0  0  0  1  0  0  0  0  0  0  0  0
   -1.4453   -7.1333   -5.0606 H   0  0  0  1  0  0  0  0  0  0  0  0
   -1.7715   -8.7739   -1.6393 C   0  0  0  1  0  0  0  0  0  0  0  0
   -1.8603   -9.2232   -0.7056 H   0  0  0  1  0  0  0  0  0  0  0  0
   -2.7740   -8.0119   -3.6796 C   0  0  0  1  0  0  0  0  0  0  0  0
   -2.8928   -8.6043   -2.4365 C   0  0  0  1  0  0  0  0  0  0  0  0
   -4.1262   -9.0028   -2.0406 O   0  0  0  1  0  0  0  0  0  0  0  0
   -4.2466   -8.7964   -1.1108 H   0  0  0  1  0  0  0  0  0  0  0  0
   -3.8659   -7.8514   -4.4586 O   0  0  0  1  0  0  0  0  0  0  0  0
   -3.7184   -7.3068   -5.7793 C   0  0  0  1  0  0  0  0  0  0  0  0
   -3.0075   -6.5074   -5.7587 H   0  0  0  1  0  0  0  0  0  0  0  0
   -4.6626   -6.9354   -6.1191 H   0  0  0  1  0  0  0  0  0  0  0  0
   -3.3754   -8.0719   -6.4441 H   0  0  0  1  0  0  0  0  0  0  0  0
  1  2  1  0  0  0  0
  1  3  1  0  0  0  0
  1  4  1  0  0  0  0
  1 65  1  0  0  0  0
  3  6  1  0  0  0  0
  4  5  1  0  0  0  0
  4  8  1  0  0  0  0
  4 10  1  0  0  0  0
  6  7  1  0  0  0  0
  6  8  1  0  0  0  0
  6 57  1  0  0  0  0
  8  9  1  0  0  0  0
  8 60  1  0  0  0  0
 10 11  1  0  0  0  0
 12 13  1  0  0  0  0
 12 14  1  0  0  0  0
 12 15  1  0  0  0  0
 12 18  1  0  0  0  0
 15 16  1  0  0  0  0
 15 17  1  0  0  0  0
 15 79  1  0  0  0  0
 18 19  1  0  0  0  0
 18 20  1  0  0  0  0
 20 21  2  0  0  0  0
 20 25  1  0  0  0  0
 22 23  1  0  0  0  0
 22 24  1  0  0  0  0
 22 25  1  0  0  0  0
 22 28  1  0  0  0  0
 25 26  1  0  0  0  0
 25 27  1  0  0  0  0
 28 29  1  0  0  0  0
 28 31  1  0  0  0  0
 30 31  2  0  0  0  0
 31 44  1  0  0  0  0
 32 33  1  0  0  0  0
 32 34  1  0  0  0  0
 32 39  1  0  0  0  0
 32 48  1  0  0  0  0
 35 36  1  0  0  0  0
 35 37  1  0  0  0  0
 35 38  1  0  0  0  0
 35 39  1  0  0  0  0
 39 40  1  0  0  0  0
 39 44  1  0  0  0  0
 40 41  1  0  0  0  0
 40 42  1  0  0  0  0
 40 43  1  0  0  0  0
 44 45  1  0  0  0  0
 44 46  1  0  0  0  0
 46 47  1  0  0  0  0
 48 55  1  0  0  0  0
 49 55  1  0  0  0  0
 49 56  1  0  0  0  0
 50 56  1  0  0  0  0
 50 57  1  0  0  0  0
 51 55  1  0  0  0  0
 52 55  2  0  0  0  0
 53 56  1  0  0  0  0
 54 56  2  0  0  0  0
 57 58  1  0  0  0  0
 57 59  1  0  0  0  0
 60 63  1  0  0  0  0
 61 63  2  0  0  0  0
 62 63  1  0  0  0  0
 63 64  1  0  0  0  0
 65 66  1  0  0  0  0
 65 67  1  0  0  0  0
 66 69  2  0  0  0  0
 66 70  1  0  0  0  0
 67 68  1  0  0  0  0
 67 71  2  0  0  0  0
 69 71  1  0  0  0  0
 69 72  1  0  0  0  0
 70 73  2  0  0  0  0
 72 75  2  0  0  0  0
 72 76  1  0  0  0  0
 73 74  1  0  0  0  0
 73 75  1  0  0  0  0
 76 77  1  0  0  0  0
 76 78  1  0  0  0  0
 79 81  1  0  0  0  0
 80 81  2  0  0  0  0
 81 82  1  0  0  0  0
 82 83  1  0  0  0  0
 82 84  2  0  0  0  0
 84 85  1  0  0  0  0
 84 86  1  0  0  0  0
 86 87  1  0  0  0  0
 86 89  2  0  0  0  0
 87 88  1  0  0  0  0
 87 91  2  0  0  0  0
 89 90  1  0  0  0  0
 89 93  1  0  0  0  0
 91 92  1  0  0  0  0
 91 94  1  0  0  0  0
 93 94  2  0  0  0  0
 93 97  1  0  0  0  0
 94 95  1  0  0  0  0
 95 96  1  0  0  0  0
 97 98  1  0  0  0  0
 98 99  1  0  0  0  0
 98100  1  0  0  0  0
 98101  1  0  0  0  0
M  BCL ATM C_TeTeTeTe H_S O_Te2Te2TeTe C_TeTeTeTe H_S C_TeTeTeTe H_S C_TeTeTeTe H_S O_Te2Te2TeTe H_S C_TeTeTeTe H_S H_S C_TeTeTeTe H_S H_S N_TrTrTrPi2 H_S C_TrTrTrPi O_Tr2Tr2TrPi C_TeTeTeTe H_S H_S C_TeTeTeTe H_S H_S N_TrTrTrPi2 H_S O_Tr2Tr2TrPi C_TrTrTrPi C_TeTeTeTe H_S H_S C_TeTeTeTe H_S H_S H_S C_TeTeTeTe C_TeTeTeTe H_S H_S H_S C_TeTeTeTe H_S O_Te2Te2TeTe H_S O_Tr2TrTrPi2 O_Tr2TrTrPi2 O_Tr2TrTrPi2 O_Te2Te2TeTe O_Tr2Tr2TrPi O_Te2Te2TeTe O_Tr2Tr2TrPi P_TeTeTeTePi P_TeTeTeTePi C_TeTeTeTe H_S H_S O_Tr2TrTrPi2 O_Tr2Tr2TrPi O_Te2Te2Te2Te P_TeTeTeTePi O_Te2Te2Te2Te N_TrTrTrPi2 C_TrTrTrPi C_TrTrTrPi H_S C_TrTrTrPi N_Tr2TrTrPi N_Tr2TrTrPi C_TrTrTrPi C_TrTrTrPi H_S N_Tr2TrTrPi N_TrTrTrPi2 H_S H_S S_Te2Te2TeTe O_Tr2Tr2TrPi C_TrTrTrPi C_TrTrTrPi H_S C_TrTrTrPi H_S C_TrTrTrPi C_TrTrTrPi H_S C_TrTrTrPi H_S C_TrTrTrPi H_S C_TrTrTrPi C_TrTrTrPi O_Te2Te2TeTe H_S O_Tr2TrTrPi2 C_TeTeTeTe H_S H_S H_S
M  BCL BND NonConjugatedSingleBond NonConjugatedSingleBondInRing NonConjugatedSingleBondInRing NonConjugatedSingleBond NonConjugatedSingleBondInRing NonConjugatedSingleBond NonConjugatedSingleBondInRing NonConjugatedSingleBond NonConjugatedSingleBond NonConjugatedSingleBondInRing NonConjugatedSingleBond NonConjugatedSingleBond NonConjugatedSingleBond NonConjugatedSingleBond NonConjugatedSingleBond NonConjugatedSingleBond NonConjugatedSingleBond NonConjugatedSingleBond NonConjugatedSingleBond NonConjugatedSingleBond NonConjugatedSingleBond NonConjugatedSingleBond AmideSingleBond ConjugatedDoubleBond NonConjugatedSingleBond NonConjugatedSingleBond NonConjugatedSingleBond NonConjugatedSingleBond NonConjugatedSingleBond NonConjugatedSingleBond NonConjugatedSingleBond NonConjugatedSingleBond AmideSingleBond ConjugatedDoubleBond NonConjugatedSingleBond NonConjugatedSingleBond NonConjugatedSingleBond NonConjugatedSingleBond NonConjugatedSingleBond NonConjugatedSingleBond NonConjugatedSingleBond NonConjugatedSingleBond NonConjugatedSingleBond NonConjugatedSingleBond NonConjugatedSingleBond NonConjugatedSingleBond NonConjugatedSingleBond NonConjugatedSingleBond NonConjugatedSingleBond NonConjugatedSingleBond NonConjugatedSingleBond ConjugatedSingleBond ConjugatedSingleBond ConjugatedSingleBond ConjugatedSingleBond NonConjugatedSingleBond ConjugatedSingleBond ConjugatedDoubleBond ConjugatedSingleBond ConjugatedDoubleBond NonConjugatedSingleBond NonConjugatedSingleBond ConjugatedSingleBond ConjugatedDoubleBond ConjugatedSingleBond ConjugatedSingleBond AromaticSingleBond AromaticSingleBond AromaticDoubleBond AromaticSingleBond NonConjugatedSingleBond AromaticDoubleBond AromaticSingleBond AromaticSingleBond AromaticDoubleBond AromaticDoubleBond ConjugatedSingleBond NonConjugatedSingleBond AromaticSingleBond NonConjugatedSingleBond NonConjugatedSingleBond ConjugatedSingleBond ConjugatedDoubleBond ConjugatedSingleBond NonConjugatedSingleBond ConjugatedDoubleBond NonConjugatedSingleBond ConjugatedSingleBond AromaticSingleBond AromaticDoubleBond NonConjugatedSingleBond AromaticDoubleBond NonConjugatedSingleBond AromaticSingleBond NonConjugatedSingleBond AromaticSingleBond AromaticDoubleBond ConjugatedSingleBond ConjugatedSingleBond NonConjugatedSingleBond NonConjugatedSingleBond NonConjugatedSingleBond NonConjugatedSingleBond NonConjugatedSingleBond
M  BCL CHI   1   R   4   R   6   R   8   S  44   S  55   S  56   R
M  BCL DBI - - - - - - - - - - E - - -
M  END
> <ConfClashScore>
0 

> <ConfOneFourInteractionScore>
-0.979636 

> <ConfScore>
0.0744654 

> <ConfScorePBest>
0.00685847 

> <ConfTolerance>
3.04846 

$$$$
L02.****
  PyMOL2.5          3D                             0

101104  0  0  0  0  0  0  0  0999 V2000
   15.2856   -4.5938   -5.5618 C   0  0  0  1  0  0  0  0  0  0  0  0
   14.6258   -4.4319   -6.3884 H   0  0  0  1  0  0  0  0  0  0  0  0
   15.4112   -5.9995   -5.2888 O   0  0  0  1  0  0  0  0  0  0  0  0
   14.7140   -3.9830   -4.3047 C   0  0  0  1  0  0  0  0  0  0  0  0
   15.4928   -3.6726   -3.6398 H   0  0  0  1  0  0  0  0  0  0  0  0
   14.7201   -6.3188   -4.0624 C   0  0  0  1  0  0  0  0  0  0  0  0
   15.4232   -6.5348   -3.2853 H   0  0  0  1  0  0  0  0  0  0  0  0
   13.9174   -5.1091   -3.7135 C   0  0  0  1  0  0  0  0  0  0  0  0
   12.9415   -5.1581   -4.1495 H   0  0  0  1  0  0  0  0  0  0  0  0
   13.8762   -2.8676   -4.6114 O   0  0  0  1  0  0  0  0  0  0  0  0
   12.9690   -3.0736   -4.3746 H   0  0  0  1  0  0  0  0  0  0  0  0
    7.7252   -2.5226  -10.6961 C   0  0  0  1  0  0  0  0  0  0  0  0
    7.9032   -2.0948   -9.7317 H   0  0  0  1  0  0  0  0  0  0  0  0
    8.2313   -1.9457  -11.4417 H   0  0  0  1  0  0  0  0  0  0  0  0
    6.2434   -2.5121  -10.9795 C   0  0  0  1  0  0  0  0  0  0  0  0
    6.0805   -2.9257  -11.9528 H   0  0  0  1  0  0  0  0  0  0  0  0
    5.9008   -1.4986  -10.9602 H   0  0  0  1  0  0  0  0  0  0  0  0
    8.2357   -3.8945  -10.7178 N   0  0  0  1  0  0  0  0  0  0  0  0
    8.2229   -4.3961   -9.8760 H   0  0  0  1  0  0  0  0  0  0  0  0
    8.7168   -4.5133  -11.7971 C   0  0  0  1  0  0  0  0  0  0  0  0
    8.8044   -3.9910  -12.8962 O   0  0  0  1  0  0  0  0  0  0  0  0
   10.7230   -5.9948  -11.9258 C   0  0  0  1  0  0  0  0  0  0  0  0
   10.8328   -5.8296  -12.9773 H   0  0  0  1  0  0  0  0  0  0  0  0
   11.0913   -6.9681  -11.6769 H   0  0  0  1  0  0  0  0  0  0  0  0
    9.2461   -5.9049  -11.5536 C   0  0  0  1  0  0  0  0  0  0  0  0
    8.6914   -6.6003  -12.1483 H   0  0  0  1  0  0  0  0  0  0  0  0
    9.1299   -6.1482  -10.5181 H   0  0  0  1  0  0  0  0  0  0  0  0
   11.4928   -4.9851  -11.1948 N   0  0  0  1  0  0  0  0  0  0  0  0
   11.4872   -5.0040  -10.2150 H   0  0  0  1  0  0  0  0  0  0  0  0
   12.3475   -4.0062  -13.0387 O   0  0  0  1  0  0  0  0  0  0  0  0
   12.2021   -4.0395  -11.8174 C   0  0  0  1  0  0  0  0  0  0  0  0
   13.9288   -4.7417   -9.5513 C   0  0  0  1  0  0  0  0  0  0  0  0
   13.4718   -5.4973  -10.1556 H   0  0  0  1  0  0  0  0  0  0  0  0
   13.2868   -4.5059   -8.7284 H   0  0  0  1  0  0  0  0  0  0  0  0
   15.0380   -3.8806  -11.5997 C   0  0  0  1  0  0  0  0  0  0  0  0
   16.0468   -4.0493  -11.2853 H   0  0  0  1  0  0  0  0  0  0  0  0
   15.0169   -3.0908  -12.3213 H   0  0  0  1  0  0  0  0  0  0  0  0
   14.6469   -4.7751  -12.0376 H   0  0  0  1  0  0  0  0  0  0  0  0
   14.1832   -3.4889  -10.3885 C   0  0  0  1  0  0  0  0  0  0  0  0
   14.8215   -2.3851   -9.5117 C   0  0  0  1  0  0  0  0  0  0  0  0
   15.7236   -2.7558   -9.0716 H   0  0  0  1  0  0  0  0  0  0  0  0
   14.1373   -2.1037   -8.7388 H   0  0  0  1  0  0  0  0  0  0  0  0
   15.0451   -1.5327  -10.1186 H   0  0  0  1  0  0  0  0  0  0  0  0
   12.8316   -2.9874  -10.9192 C   0  0  0  1  0  0  0  0  0  0  0  0
   12.1839   -2.8286  -10.0824 H   0  0  0  1  0  0  0  0  0  0  0  0
   13.0291   -1.7639  -11.6090 O   0  0  0  1  0  0  0  0  0  0  0  0
   12.5767   -1.0568  -11.1433 H   0  0  0  1  0  0  0  0  0  0  0  0
   15.2072   -5.2094   -9.0607 O   0  0  0  1  0  0  0  0  0  0  0  0
   14.0843   -6.3397   -7.2160 O   0  0  0  1  0  0  0  0  0  0  0  0
   12.7743   -7.0969   -5.1794 O   0  0  0  1  0  0  0  0  0  0  0  0
   15.0403   -7.6654   -9.1938 O   0  0  0  0  0  0  0  0  0  0  0  0
   16.6101   -6.6683   -7.4631 O   0  0  0  1  0  0  0  0  0  0  0  0
   11.7224   -6.8759   -7.4778 O   0  0  0  0  0  0  0  0  0  0  0  0
   13.3605   -8.7400   -6.8786 O   0  0  0  1  0  0  0  0  0  0  0  0
   15.3162   -6.5653   -8.2174 P   0  0  0  1  0  0  0  0  0  0  0  0
   12.9200   -7.3472   -6.7532 P   0  0  0  1  0  0  0  0  0  0  0  0
   13.8231   -7.4955   -4.2642 C   0  0  0  1  0  0  0  0  0  0  0  0
   13.3969   -7.7935   -3.3291 H   0  0  0  1  0  0  0  0  0  0  0  0
   14.3787   -8.3103   -4.6793 H   0  0  0  1  0  0  0  0  0  0  0  0
   13.7983   -4.9618   -2.2737 O   0  0  0  1  0  0  0  0  0  0  0  0
   16.3907   -5.0212   -1.8093 O   0  0  0  1  0  0  0  0  0  0  0  0
   14.8627   -6.9108   -0.8963 O   0  5  0  1  0  0  0  0  0  0  0  0
   15.0467   -5.3484   -1.2828 P   0  0  0  1  0  0  0  0  0  0  0  0
   14.8361   -4.6284    0.1530 O   0  5  0  1  0  0  0  0  0  0  0  0
   16.5959   -4.0129   -5.8612 N   0  0  0  1  0  0  0  0  0  0  0  0
   17.6378   -3.8276   -4.9896 C   0  0  0  1  0  0  0  0  0  0  0  0
   17.0927   -3.7273   -7.0959 C   0  0  0  1  0  0  0  0  0  0  0  0
   16.5126   -3.7779   -7.9575 H   0  0  0  1  0  0  0  0  0  0  0  0
   18.7254   -3.4384   -5.7829 C   0  0  0  1  0  0  0  0  0  0  0  0
   17.6357   -3.9939   -3.6662 N   0  0  0  1  0  0  0  0  0  0  0  0
   18.3522   -3.3852   -7.1169 N   0  0  0  1  0  0  0  0  0  0  0  0
   19.9148   -3.2073   -5.0981 C   0  0  0  1  0  0  0  0  0  0  0  0
   18.8279   -3.7327   -3.1444 C   0  0  0  1  0  0  0  0  0  0  0  0
   18.8998   -3.8375   -2.1122 H   0  0  0  1  0  0  0  0  0  0  0  0
   19.9533   -3.3514   -3.7690 N   0  0  0  1  0  0  0  0  0  0  0  0
   21.1399   -2.8253   -5.6338 N   0  0  0  1  0  0  0  0  0  0  0  0
   21.8960   -2.6343   -5.0404 H   0  0  0  1  0  0  0  0  0  0  0  0
   21.2471   -2.7472   -6.6048 H   0  0  0  1  0  0  0  0  0  0  0  0
    5.2821   -3.4666   -9.7813 S   0  0  0  1  0  0  0  0  0  0  0  0
    5.9358   -5.3427  -11.5072 O   0  0  0  1  0  0  0  0  0  0  0  0
    5.3978   -5.1318  -10.4407 C   0  0  0  1  0  0  0  0  0  0  0  0
    4.7207   -6.1372   -9.6298 C   0  0  0  1  0  0  0  0  0  0  0  0
    4.1045   -5.7951   -8.8650 H   0  0  0  1  0  0  0  0  0  0  0  0
    4.8240   -7.4566   -9.7847 C   0  0  0  1  0  0  0  0  0  0  0  0
    5.4403   -7.7987  -10.5494 H   0  0  0  1  0  0  0  0  0  0  0  0
    4.1343   -8.4807   -8.9587 C   0  0  0  1  0  0  0  0  0  0  0  0
    3.3598   -8.1348   -7.8624 C   0  0  0  1  0  0  0  0  0  0  0  0
    3.3096   -7.1430   -7.5534 H   0  0  0  1  0  0  0  0  0  0  0  0
    4.1967   -9.7979   -9.3725 C   0  0  0  1  0  0  0  0  0  0  0  0
    4.7746  -10.0570  -10.1975 H   0  0  0  1  0  0  0  0  0  0  0  0
    2.6541   -9.1077   -7.1799 C   0  0  0  1  0  0  0  0  0  0  0  0
    2.0762   -8.8487   -6.3549 H   0  0  0  1  0  0  0  0  0  0  0  0
    3.4890  -10.7739   -8.6882 C   0  0  0  1  0  0  0  0  0  0  0  0
    2.7168  -10.4288   -7.5951 C   0  0  0  1  0  0  0  0  0  0  0  0
    1.9949  -11.3268   -6.8815 O   0  0  0  1  0  0  0  0  0  0  0  0
    1.9022  -12.1376   -7.3870 H   0  0  0  1  0  0  0  0  0  0  0  0
    3.4769  -12.0925   -8.9961 O   0  0  0  1  0  0  0  0  0  0  0  0
    3.9173  -13.0076   -7.9806 C   0  0  0  1  0  0  0  0  0  0  0  0
    3.6524  -14.0059   -8.2602 H   0  0  0  1  0  0  0  0  0  0  0  0
    3.4479  -12.7614   -7.0512 H   0  0  0  1  0  0  0  0  0  0  0  0
    4.9796  -12.9374   -7.8739 H   0  0  0  1  0  0  0  0  0  0  0  0
  1  2  1  0  0  0  0
  1  3  1  0  0  0  0
  1  4  1  0  0  0  0
  1 65  1  0  0  0  0
  3  6  1  0  0  0  0
  4  5  1  0  0  0  0
  4  8  1  0  0  0  0
  4 10  1  0  0  0  0
  6  7  1  0  0  0  0
  6  8  1  0  0  0  0
  6 57  1  0  0  0  0
  8  9  1  0  0  0  0
  8 60  1  0  0  0  0
 10 11  1  0  0  0  0
 12 13  1  0  0  0  0
 12 14  1  0  0  0  0
 12 15  1  0  0  0  0
 12 18  1  0  0  0  0
 15 16  1  0  0  0  0
 15 17  1  0  0  0  0
 15 79  1  0  0  0  0
 18 19  1  0  0  0  0
 18 20  1  0  0  0  0
 20 21  2  0  0  0  0
 20 25  1  0  0  0  0
 22 23  1  0  0  0  0
 22 24  1  0  0  0  0
 22 25  1  0  0  0  0
 22 28  1  0  0  0  0
 25 26  1  0  0  0  0
 25 27  1  0  0  0  0
 28 29  1  0  0  0  0
 28 31  1  0  0  0  0
 30 31  2  0  0  0  0
 31 44  1  0  0  0  0
 32 33  1  0  0  0  0
 32 34  1  0  0  0  0
 32 39  1  0  0  0  0
 32 48  1  0  0  0  0
 35 36  1  0  0  0  0
 35 37  1  0  0  0  0
 35 38  1  0  0  0  0
 35 39  1  0  0  0  0
 39 40  1  0  0  0  0
 39 44  1  0  0  0  0
 40 41  1  0  0  0  0
 40 42  1  0  0  0  0
 40 43  1  0  0  0  0
 44 45  1  0  0  0  0
 44 46  1  0  0  0  0
 46 47  1  0  0  0  0
 48 55  1  0  0  0  0
 49 55  1  0  0  0  0
 49 56  1  0  0  0  0
 50 56  1  0  0  0  0
 50 57  1  0  0  0  0
 51 55  1  0  0  0  0
 52 55  2  0  0  0  0
 53 56  1  0  0  0  0
 54 56  2  0  0  0  0
 57 58  1  0  0  0  0
 57 59  1  0  0  0  0
 60 63  1  0  0  0  0
 61 63  2  0  0  0  0
 62 63  1  0  0  0  0
 63 64  1  0  0  0  0
 65 66  1  0  0  0  0
 65 67  1  0  0  0  0
 66 69  2  0  0  0  0
 66 70  1  0  0  0  0
 67 68  1  0  0  0  0
 67 71  2  0  0  0  0
 69 71  1  0  0  0  0
 69 72  1  0  0  0  0
 70 73  2  0  0  0  0
 72 75  2  0  0  0  0
 72 76  1  0  0  0  0
 73 74  1  0  0  0  0
 73 75  1  0  0  0  0
 76 77  1  0  0  0  0
 76 78  1  0  0  0  0
 79 81  1  0  0  0  0
 80 81  2  0  0  0  0
 81 82  1  0  0  0  0
 82 83  1  0  0  0  0
 82 84  2  0  0  0  0
 84 85  1  0  0  0  0
 84 86  1  0  0  0  0
 86 87  1  0  0  0  0
 86 89  2  0  0  0  0
 87 88  1  0  0  0  0
 87 91  2  0  0  0  0
 89 90  1  0  0  0  0
 89 93  1  0  0  0  0
 91 92  1  0  0  0  0
 91 94  1  0  0  0  0
 93 94  2  0  0  0  0
 93 97  1  0  0  0  0
 94 95  1  0  0  0  0
 95 96  1  0  0  0  0
 97 98  1  0  0  0  0
 98 99  1  0  0  0  0
 98100  1  0  0  0  0
 98101  1  0  0  0  0
M  BCL ATM C_TeTeTeTe H_S O_Te2Te2TeTe C_TeTeTeTe H_S C_TeTeTeTe H_S C_TeTeTeTe H_S O_Te2Te2TeTe H_S C_TeTeTeTe H_S H_S C_TeTeTeTe H_S H_S N_TrTrTrPi2 H_S C_TrTrTrPi O_Tr2Tr2TrPi C_TeTeTeTe H_S H_S C_TeTeTeTe H_S H_S N_TrTrTrPi2 H_S O_Tr2Tr2TrPi C_TrTrTrPi C_TeTeTeTe H_S H_S C_TeTeTeTe H_S H_S H_S C_TeTeTeTe C_TeTeTeTe H_S H_S H_S C_TeTeTeTe H_S O_Te2Te2TeTe H_S O_Tr2TrTrPi2 O_Tr2TrTrPi2 O_Tr2TrTrPi2 O_Te2Te2TeTe O_Tr2Tr2TrPi O_Te2Te2TeTe O_Tr2Tr2TrPi P_TeTeTeTePi P_TeTeTeTePi C_TeTeTeTe H_S H_S O_Tr2TrTrPi2 O_Tr2Tr2TrPi O_Te2Te2Te2Te P_TeTeTeTePi O_Te2Te2Te2Te N_TrTrTrPi2 C_TrTrTrPi C_TrTrTrPi H_S C_TrTrTrPi N_Tr2TrTrPi N_Tr2TrTrPi C_TrTrTrPi C_TrTrTrPi H_S N_Tr2TrTrPi N_TrTrTrPi2 H_S H_S S_Te2Te2TeTe O_Tr2Tr2TrPi C_TrTrTrPi C_TrTrTrPi H_S C_TrTrTrPi H_S C_TrTrTrPi C_TrTrTrPi H_S C_TrTrTrPi H_S C_TrTrTrPi H_S C_TrTrTrPi C_TrTrTrPi O_Te2Te2TeTe H_S O_Tr2TrTrPi2 C_TeTeTeTe H_S H_S H_S
M  BCL BND NonConjugatedSingleBond NonConjugatedSingleBondInRing NonConjugatedSingleBondInRing NonConjugatedSingleBond NonConjugatedSingleBondInRing NonConjugatedSingleBond NonConjugatedSingleBondInRing NonConjugatedSingleBond NonConjugatedSingleBond NonConjugatedSingleBondInRing NonConjugatedSingleBond NonConjugatedSingleBond NonConjugatedSingleBond NonConjugatedSingleBond NonConjugatedSingleBond NonConjugatedSingleBond NonConjugatedSingleBond NonConjugatedSingleBond NonConjugatedSingleBond NonConjugatedSingleBond NonConjugatedSingleBond NonConjugatedSingleBond AmideSingleBond ConjugatedDoubleBond NonConjugatedSingleBond NonConjugatedSingleBond NonConjugatedSingleBond NonConjugatedSingleBond NonConjugatedSingleBond NonConjugatedSingleBond NonConjugatedSingleBond NonConjugatedSingleBond AmideSingleBond ConjugatedDoubleBond NonConjugatedSingleBond NonConjugatedSingleBond NonConjugatedSingleBond NonConjugatedSingleBond NonConjugatedSingleBond NonConjugatedSingleBond NonConjugatedSingleBond NonConjugatedSingleBond NonConjugatedSingleBond NonConjugatedSingleBond NonConjugatedSingleBond NonConjugatedSingleBond NonConjugatedSingleBond NonConjugatedSingleBond NonConjugatedSingleBond NonConjugatedSingleBond NonConjugatedSingleBond ConjugatedSingleBond ConjugatedSingleBond ConjugatedSingleBond ConjugatedSingleBond NonConjugatedSingleBond ConjugatedSingleBond ConjugatedDoubleBond ConjugatedSingleBond ConjugatedDoubleBond NonConjugatedSingleBond NonConjugatedSingleBond ConjugatedSingleBond ConjugatedDoubleBond ConjugatedSingleBond ConjugatedSingleBond AromaticSingleBond AromaticSingleBond AromaticDoubleBond AromaticSingleBond NonConjugatedSingleBond AromaticDoubleBond AromaticSingleBond AromaticSingleBond AromaticDoubleBond AromaticDoubleBond ConjugatedSingleBond NonConjugatedSingleBond AromaticSingleBond NonConjugatedSingleBond NonConjugatedSingleBond ConjugatedSingleBond ConjugatedDoubleBond ConjugatedSingleBond NonConjugatedSingleBond ConjugatedDoubleBond NonConjugatedSingleBond ConjugatedSingleBond AromaticSingleBond AromaticDoubleBond NonConjugatedSingleBond AromaticDoubleBond NonConjugatedSingleBond AromaticSingleBond NonConjugatedSingleBond AromaticSingleBond AromaticDoubleBond ConjugatedSingleBond ConjugatedSingleBond NonConjugatedSingleBond NonConjugatedSingleBond NonConjugatedSingleBond NonConjugatedSingleBond NonConjugatedSingleBond
M  BCL CHI   1   R   4   R   6   R   8   S  44   S  55   S  56   R
M  BCL DBI - - - - - - - - - - E - - -
M  END
> <ConfClashScore>
0.000417859 

> <ConfOneFourInteractionScore>
-0.970954 

> <ConfScore>
0.0780028 

> <ConfScorePBest>
0.00675547 

> <ConfTolerance>
3.16319 

$$$$
L02.****
  PyMOL2.5          3D                             0

101104  0  0  0  0  0  0  0  0999 V2000
   15.2456   -4.4522   -5.6148 C   0  0  0  1  0  0  0  0  0  0  0  0
   15.0875   -5.4201   -6.0427 H   0  0  0  1  0  0  0  0  0  0  0  0
   14.9759   -4.4751   -4.2011 O   0  0  0  1  0  0  0  0  0  0  0  0
   14.2674   -3.4538   -6.1873 C   0  0  0  1  0  0  0  0  0  0  0  0
   14.6459   -2.4556   -6.1152 H   0  0  0  1  0  0  0  0  0  0  0  0
   13.6598   -3.9495   -3.9481 C   0  0  0  1  0  0  0  0  0  0  0  0
   13.7234   -3.0568   -3.3617 H   0  0  0  1  0  0  0  0  0  0  0  0
   13.0589   -3.6449   -5.3041 C   0  0  0  1  0  0  0  0  0  0  0  0
   12.4583   -4.4606   -5.6486 H   0  0  0  1  0  0  0  0  0  0  0  0
   13.9636   -3.7511   -7.5509 O   0  0  0  1  0  0  0  0  0  0  0  0
   14.7477   -4.0927   -7.9868 H   0  0  0  1  0  0  0  0  0  0  0  0
    4.6318   -2.3086    0.2692 C   0  0  0  1  0  0  0  0  0  0  0  0
    5.2024   -2.5188    1.1496 H   0  0  0  1  0  0  0  0  0  0  0  0
    3.6282   -2.6546    0.4030 H   0  0  0  1  0  0  0  0  0  0  0  0
    5.2426   -3.0718   -0.8799 C   0  0  0  1  0  0  0  0  0  0  0  0
    6.2437   -2.7322   -1.0454 H   0  0  0  1  0  0  0  0  0  0  0  0
    4.6616   -2.9155   -1.7646 H   0  0  0  1  0  0  0  0  0  0  0  0
    4.5930   -0.8565    0.0870 N   0  0  0  1  0  0  0  0  0  0  0  0
    4.3251   -0.4791   -0.7769 H   0  0  0  1  0  0  0  0  0  0  0  0
    4.9251   -0.0367    1.1058 C   0  0  0  1  0  0  0  0  0  0  0  0
    5.3003   -0.4492    2.2024 O   0  0  0  1  0  0  0  0  0  0  0  0
    6.0712    2.2134    1.1793 C   0  0  0  1  0  0  0  0  0  0  0  0
    6.2850    2.0817    2.2194 H   0  0  0  1  0  0  0  0  0  0  0  0
    5.9160    3.2522    0.9753 H   0  0  0  1  0  0  0  0  0  0  0  0
    4.8100    1.4373    0.8232 C   0  0  0  1  0  0  0  0  0  0  0  0
    3.9953    1.8309    1.3944 H   0  0  0  1  0  0  0  0  0  0  0  0
    4.6117    1.5697   -0.2199 H   0  0  0  1  0  0  0  0  0  0  0  0
    7.2050    1.7294    0.3876 N   0  0  0  1  0  0  0  0  0  0  0  0
    7.1870    1.9384   -0.5697 H   0  0  0  1  0  0  0  0  0  0  0  0
    8.4402    0.8141    2.0263 O   0  0  0  1  0  0  0  0  0  0  0  0
    8.2711    1.0288    0.8268 C   0  0  0  1  0  0  0  0  0  0  0  0
   10.4095   -1.5254   -1.1817 C   0  0  0  1  0  0  0  0  0  0  0  0
   11.3319   -0.9896   -1.2647 H   0  0  0  1  0  0  0  0  0  0  0  0
    9.8558   -1.4265   -2.0919 H   0  0  0  1  0  0  0  0  0  0  0  0
   10.4081   -1.1355    1.2794 C   0  0  0  1  0  0  0  0  0  0  0  0
   11.3809   -0.7133    1.1371 H   0  0  0  1  0  0  0  0  0  0  0  0
   10.5017   -2.1755    1.5130 H   0  0  0  1  0  0  0  0  0  0  0  0
    9.9150   -0.6316    2.0842 H   0  0  0  1  0  0  0  0  0  0  0  0
    9.5865   -0.9726   -0.0050 C   0  0  0  1  0  0  0  0  0  0  0  0
    8.2865   -1.7698    0.1428 C   0  0  0  1  0  0  0  0  0  0  0  0
    8.2311   -2.5089   -0.6288 H   0  0  0  1  0  0  0  0  0  0  0  0
    7.4507   -1.1067    0.0619 H   0  0  0  1  0  0  0  0  0  0  0  0
    8.2699   -2.2504    1.0987 H   0  0  0  1  0  0  0  0  0  0  0  0
    9.2575    0.5119   -0.2024 C   0  0  0  1  0  0  0  0  0  0  0  0
   10.1689    1.0575   -0.0738 H   0  0  0  1  0  0  0  0  0  0  0  0
    8.7495    0.7776   -1.4988 O   0  0  0  1  0  0  0  0  0  0  0  0
    9.3346    0.3952   -2.1568 H   0  0  0  1  0  0  0  0  0  0  0  0
   10.6736   -2.9229   -0.9149 O   0  0  0  1  0  0  0  0  0  0  0  0
   11.8786   -4.9109   -0.1932 O   0  0  0  1  0  0  0  0  0  0  0  0
   13.4825   -5.2531   -1.9719 O   0  0  0  1  0  0  0  0  0  0  0  0
   13.0731   -3.0372   -1.4687 O   0  0  0  0  0  0  0  0  0  0  0  0
   12.4234   -2.7025    0.9574 O   0  0  0  1  0  0  0  0  0  0  0  0
   13.9091   -6.3236    0.2160 O   0  0  0  0  0  0  0  0  0  0  0  0
   12.0455   -7.1849   -1.3233 O   0  0  0  1  0  0  0  0  0  0  0  0
   12.1156   -3.3380   -0.3585 P   0  0  0  1  0  0  0  0  0  0  0  0
   12.7969   -6.0303   -0.8211 P   0  0  0  1  0  0  0  0  0  0  0  0
   12.8284   -4.9603   -3.2289 C   0  0  0  1  0  0  0  0  0  0  0  0
   12.7504   -5.8518   -3.8154 H   0  0  0  1  0  0  0  0  0  0  0  0
   11.8506   -4.5653   -3.0476 H   0  0  0  1  0  0  0  0  0  0  0  0
   12.2550   -2.4377   -5.2562 O   0  0  0  1  0  0  0  0  0  0  0  0
   11.6679   -0.0199   -6.1875 O   0  0  0  1  0  0  0  0  0  0  0  0
   12.8280   -1.5401   -7.7231 O   0  5  0  1  0  0  0  0  0  0  0  0
   12.6458   -1.1306   -6.1663 P   0  0  0  1  0  0  0  0  0  0  0  0
   14.0991   -0.4922   -5.8427 O   0  5  0  1  0  0  0  0  0  0  0  0
   16.6243   -4.0244   -5.8682 N   0  0  0  1  0  0  0  0  0  0  0  0
   17.6555   -3.8480   -4.9820 C   0  0  0  1  0  0  0  0  0  0  0  0
   17.1333   -3.7155   -7.0923 C   0  0  0  1  0  0  0  0  0  0  0  0
   16.5630   -3.7548   -7.9611 H   0  0  0  1  0  0  0  0  0  0  0  0
   18.7497   -3.4398   -5.7566 C   0  0  0  1  0  0  0  0  0  0  0  0
   17.6396   -4.0363   -3.6617 N   0  0  0  1  0  0  0  0  0  0  0  0
   18.3910   -3.3663   -7.0936 N   0  0  0  1  0  0  0  0  0  0  0  0
   19.9300   -3.2138   -5.0547 C   0  0  0  1  0  0  0  0  0  0  0  0
   18.8244   -3.7775   -3.1223 C   0  0  0  1  0  0  0  0  0  0  0  0
   18.8855   -3.8991   -2.0912 H   0  0  0  1  0  0  0  0  0  0  0  0
   19.9546   -3.3798   -3.7278 N   0  0  0  1  0  0  0  0  0  0  0  0
   21.0955   -2.8219   -5.6588 N   0  0  0  1  0  0  0  0  0  0  0  0
   21.0728   -2.4163   -6.5506 H   0  0  0  1  0  0  0  0  0  0  0  0
   21.9519   -2.9471   -5.1991 H   0  0  0  1  0  0  0  0  0  0  0  0
    5.2587   -4.8324   -0.4664 S   0  0  0  1  0  0  0  0  0  0  0  0
    7.5394   -4.0574    0.6123 O   0  0  0  1  0  0  0  0  0  0  0  0
    6.7637   -4.9804    0.5192 C   0  0  0  1  0  0  0  0  0  0  0  0
    6.9191   -6.2845    1.1562 C   0  0  0  1  0  0  0  0  0  0  0  0
    6.2209   -7.0086    0.8923 H   0  0  0  1  0  0  0  0  0  0  0  0
    7.8481   -6.6587    2.0351 C   0  0  0  1  0  0  0  0  0  0  0  0
    8.5749   -5.9801    2.3396 H   0  0  0  1  0  0  0  0  0  0  0  0
    7.8515   -8.0358    2.5810 C   0  0  0  1  0  0  0  0  0  0  0  0
    6.7388   -8.8436    2.4057 C   0  0  0  1  0  0  0  0  0  0  0  0
    5.9106   -8.4830    1.8903 H   0  0  0  1  0  0  0  0  0  0  0  0
    8.9542   -8.5168    3.2614 C   0  0  0  1  0  0  0  0  0  0  0  0
    9.7906   -7.9122    3.3894 H   0  0  0  1  0  0  0  0  0  0  0  0
    6.7298  -10.1281    2.9158 C   0  0  0  1  0  0  0  0  0  0  0  0
    5.8934  -10.7327    2.7877 H   0  0  0  1  0  0  0  0  0  0  0  0
    8.9455   -9.8051    3.7731 C   0  0  0  1  0  0  0  0  0  0  0  0
    7.8359  -10.6104    3.5982 C   0  0  0  1  0  0  0  0  0  0  0  0
    7.8764  -11.8639    4.1117 O   0  0  0  1  0  0  0  0  0  0  0  0
    8.5729  -11.9182    4.7701 H   0  0  0  1  0  0  0  0  0  0  0  0
    9.9609  -10.3816    4.4588 O   0  0  0  1  0  0  0  0  0  0  0  0
   11.0960   -9.5574    4.7667 C   0  0  0  1  0  0  0  0  0  0  0  0
   11.6413   -9.3508    3.8695 H   0  0  0  1  0  0  0  0  0  0  0  0
   11.7307  -10.0692    5.4596 H   0  0  0  1  0  0  0  0  0  0  0  0
   10.7619   -8.6381    5.2003 H   0  0  0  1  0  0  0  0  0  0  0  0
  1  2  1  0  0  0  0
  1  3  1  0  0  0  0
  1  4  1  0  0  0  0
  1 65  1  0  0  0  0
  3  6  1  0  0  0  0
  4  5  1  0  0  0  0
  4  8  1  0  0  0  0
  4 10  1  0  0  0  0
  6  7  1  0  0  0  0
  6  8  1  0  0  0  0
  6 57  1  0  0  0  0
  8  9  1  0  0  0  0
  8 60  1  0  0  0  0
 10 11  1  0  0  0  0
 12 13  1  0  0  0  0
 12 14  1  0  0  0  0
 12 15  1  0  0  0  0
 12 18  1  0  0  0  0
 15 16  1  0  0  0  0
 15 17  1  0  0  0  0
 15 79  1  0  0  0  0
 18 19  1  0  0  0  0
 18 20  1  0  0  0  0
 20 21  2  0  0  0  0
 20 25  1  0  0  0  0
 22 23  1  0  0  0  0
 22 24  1  0  0  0  0
 22 25  1  0  0  0  0
 22 28  1  0  0  0  0
 25 26  1  0  0  0  0
 25 27  1  0  0  0  0
 28 29  1  0  0  0  0
 28 31  1  0  0  0  0
 30 31  2  0  0  0  0
 31 44  1  0  0  0  0
 32 33  1  0  0  0  0
 32 34  1  0  0  0  0
 32 39  1  0  0  0  0
 32 48  1  0  0  0  0
 35 36  1  0  0  0  0
 35 37  1  0  0  0  0
 35 38  1  0  0  0  0
 35 39  1  0  0  0  0
 39 40  1  0  0  0  0
 39 44  1  0  0  0  0
 40 41  1  0  0  0  0
 40 42  1  0  0  0  0
 40 43  1  0  0  0  0
 44 45  1  0  0  0  0
 44 46  1  0  0  0  0
 46 47  1  0  0  0  0
 48 55  1  0  0  0  0
 49 55  1  0  0  0  0
 49 56  1  0  0  0  0
 50 56  1  0  0  0  0
 50 57  1  0  0  0  0
 51 55  1  0  0  0  0
 52 55  2  0  0  0  0
 53 56  1  0  0  0  0
 54 56  2  0  0  0  0
 57 58  1  0  0  0  0
 57 59  1  0  0  0  0
 60 63  1  0  0  0  0
 61 63  2  0  0  0  0
 62 63  1  0  0  0  0
 63 64  1  0  0  0  0
 65 66  1  0  0  0  0
 65 67  1  0  0  0  0
 66 69  2  0  0  0  0
 66 70  1  0  0  0  0
 67 68  1  0  0  0  0
 67 71  2  0  0  0  0
 69 71  1  0  0  0  0
 69 72  1  0  0  0  0
 70 73  2  0  0  0  0
 72 75  2  0  0  0  0
 72 76  1  0  0  0  0
 73 74  1  0  0  0  0
 73 75  1  0  0  0  0
 76 77  1  0  0  0  0
 76 78  1  0  0  0  0
 79 81  1  0  0  0  0
 80 81  2  0  0  0  0
 81 82  1  0  0  0  0
 82 83  1  0  0  0  0
 82 84  2  0  0  0  0
 84 85  1  0  0  0  0
 84 86  1  0  0  0  0
 86 87  1  0  0  0  0
 86 89  2  0  0  0  0
 87 88  1  0  0  0  0
 87 91  2  0  0  0  0
 89 90  1  0  0  0  0
 89 93  1  0  0  0  0
 91 92  1  0  0  0  0
 91 94  1  0  0  0  0
 93 94  2  0  0  0  0
 93 97  1  0  0  0  0
 94 95  1  0  0  0  0
 95 96  1  0  0  0  0
 97 98  1  0  0  0  0
 98 99  1  0  0  0  0
 98100  1  0  0  0  0
 98101  1  0  0  0  0
M  BCL ATM C_TeTeTeTe H_S O_Te2Te2TeTe C_TeTeTeTe H_S C_TeTeTeTe H_S C_TeTeTeTe H_S O_Te2Te2TeTe H_S C_TeTeTeTe H_S H_S C_TeTeTeTe H_S H_S N_TrTrTrPi2 H_S C_TrTrTrPi O_Tr2Tr2TrPi C_TeTeTeTe H_S H_S C_TeTeTeTe H_S H_S N_TrTrTrPi2 H_S O_Tr2Tr2TrPi C_TrTrTrPi C_TeTeTeTe H_S H_S C_TeTeTeTe H_S H_S H_S C_TeTeTeTe C_TeTeTeTe H_S H_S H_S C_TeTeTeTe H_S O_Te2Te2TeTe H_S O_Tr2TrTrPi2 O_Tr2TrTrPi2 O_Tr2TrTrPi2 O_Te2Te2TeTe O_Tr2Tr2TrPi O_Te2Te2TeTe O_Tr2Tr2TrPi P_TeTeTeTePi P_TeTeTeTePi C_TeTeTeTe H_S H_S O_Tr2TrTrPi2 O_Tr2Tr2TrPi O_Te2Te2Te2Te P_TeTeTeTePi O_Te2Te2Te2Te N_TrTrTrPi2 C_TrTrTrPi C_TrTrTrPi H_S C_TrTrTrPi N_Tr2TrTrPi N_Tr2TrTrPi C_TrTrTrPi C_TrTrTrPi H_S N_Tr2TrTrPi N_TrTrTrPi2 H_S H_S S_Te2Te2TeTe O_Tr2Tr2TrPi C_TrTrTrPi C_TrTrTrPi H_S C_TrTrTrPi H_S C_TrTrTrPi C_TrTrTrPi H_S C_TrTrTrPi H_S C_TrTrTrPi H_S C_TrTrTrPi C_TrTrTrPi O_Te2Te2TeTe H_S O_Tr2TrTrPi2 C_TeTeTeTe H_S H_S H_S
M  BCL BND NonConjugatedSingleBond NonConjugatedSingleBondInRing NonConjugatedSingleBondInRing NonConjugatedSingleBond NonConjugatedSingleBondInRing NonConjugatedSingleBond NonConjugatedSingleBondInRing NonConjugatedSingleBond NonConjugatedSingleBond NonConjugatedSingleBondInRing NonConjugatedSingleBond NonConjugatedSingleBond NonConjugatedSingleBond NonConjugatedSingleBond NonConjugatedSingleBond NonConjugatedSingleBond NonConjugatedSingleBond NonConjugatedSingleBond NonConjugatedSingleBond NonConjugatedSingleBond NonConjugatedSingleBond NonConjugatedSingleBond AmideSingleBond ConjugatedDoubleBond NonConjugatedSingleBond NonConjugatedSingleBond NonConjugatedSingleBond NonConjugatedSingleBond NonConjugatedSingleBond NonConjugatedSingleBond NonConjugatedSingleBond NonConjugatedSingleBond AmideSingleBond ConjugatedDoubleBond NonConjugatedSingleBond NonConjugatedSingleBond NonConjugatedSingleBond NonConjugatedSingleBond NonConjugatedSingleBond NonConjugatedSingleBond NonConjugatedSingleBond NonConjugatedSingleBond NonConjugatedSingleBond NonConjugatedSingleBond NonConjugatedSingleBond NonConjugatedSingleBond NonConjugatedSingleBond NonConjugatedSingleBond NonConjugatedSingleBond NonConjugatedSingleBond NonConjugatedSingleBond ConjugatedSingleBond ConjugatedSingleBond ConjugatedSingleBond ConjugatedSingleBond NonConjugatedSingleBond ConjugatedSingleBond ConjugatedDoubleBond ConjugatedSingleBond ConjugatedDoubleBond NonConjugatedSingleBond NonConjugatedSingleBond ConjugatedSingleBond ConjugatedDoubleBond ConjugatedSingleBond ConjugatedSingleBond AromaticSingleBond AromaticSingleBond AromaticDoubleBond AromaticSingleBond NonConjugatedSingleBond AromaticDoubleBond AromaticSingleBond AromaticSingleBond AromaticDoubleBond AromaticDoubleBond ConjugatedSingleBond NonConjugatedSingleBond AromaticSingleBond NonConjugatedSingleBond NonConjugatedSingleBond ConjugatedSingleBond ConjugatedDoubleBond ConjugatedSingleBond NonConjugatedSingleBond ConjugatedDoubleBond NonConjugatedSingleBond ConjugatedSingleBond AromaticSingleBond AromaticDoubleBond NonConjugatedSingleBond AromaticDoubleBond NonConjugatedSingleBond AromaticSingleBond NonConjugatedSingleBond AromaticSingleBond AromaticDoubleBond ConjugatedSingleBond ConjugatedSingleBond NonConjugatedSingleBond NonConjugatedSingleBond NonConjugatedSingleBond NonConjugatedSingleBond NonConjugatedSingleBond
M  BCL CHI   1   R   4   R   6   R   8   S  44   S  55   S  56   R
M  BCL DBI - - - - - - - - - - E - - -
M  END
> <ConfClashScore>
0.00117157 

> <ConfOneFourInteractionScore>
-0.97879 

> <ConfScore>
0.0865782 

> <ConfScorePBest>
0.00665247 

> <ConfTolerance>
3.04489 

$$$$
L02.****
  PyMOL2.5          3D                             0

101104  0  0  0  0  0  0  0  0999 V2000
   15.2642   -4.4708   -5.5734 C   0  0  0  1  0  0  0  0  0  0  0  0
   15.2894   -5.2244   -4.8142 H   0  0  0  1  0  0  0  0  0  0  0  0
   14.5068   -3.3787   -5.1338 O   0  0  0  1  0  0  0  0  0  0  0  0
   14.5988   -5.0294   -6.8411 C   0  0  0  1  0  0  0  0  0  0  0  0
   15.3253   -5.2356   -7.5991 H   0  0  0  1  0  0  0  0  0  0  0  0
   13.3121   -3.2167   -5.9574 C   0  0  0  1  0  0  0  0  0  0  0  0
   13.0944   -2.1802   -6.1094 H   0  0  0  1  0  0  0  0  0  0  0  0
   13.6665   -3.8866   -7.2651 C   0  0  0  1  0  0  0  0  0  0  0  0
   12.7913   -4.2669   -7.7494 H   0  0  0  1  0  0  0  0  0  0  0  0
   13.8594   -6.2171   -6.5536 O   0  0  0  1  0  0  0  0  0  0  0  0
   13.2732   -6.4152   -7.2876 H   0  0  0  1  0  0  0  0  0  0  0  0
   15.5772    2.2277    4.1276 C   0  0  0  1  0  0  0  0  0  0  0  0
   16.1803    3.0932    4.3061 H   0  0  0  1  0  0  0  0  0  0  0  0
   14.8876    2.4302    3.3348 H   0  0  0  1  0  0  0  0  0  0  0  0
   14.7959    1.9162    5.3800 C   0  0  0  1  0  0  0  0  0  0  0  0
   14.2689    2.7901    5.7018 H   0  0  0  1  0  0  0  0  0  0  0  0
   15.4654    1.5984    6.1518 H   0  0  0  1  0  0  0  0  0  0  0  0
   16.4431    1.1317    3.7234 N   0  0  0  1  0  0  0  0  0  0  0  0
   17.3834    1.1728    3.9964 H   0  0  0  1  0  0  0  0  0  0  0  0
   16.0533    0.0728    3.0078 C   0  0  0  1  0  0  0  0  0  0  0  0
   14.9053   -0.0660    2.5878 O   0  0  0  1  0  0  0  0  0  0  0  0
   16.9711   -1.6202    1.3727 C   0  0  0  1  0  0  0  0  0  0  0  0
   16.1546   -2.3101    1.4199 H   0  0  0  1  0  0  0  0  0  0  0  0
   17.8759   -2.1514    1.1628 H   0  0  0  1  0  0  0  0  0  0  0  0
   17.1142   -0.9605    2.7381 C   0  0  0  1  0  0  0  0  0  0  0  0
   17.0506   -1.7184    3.4908 H   0  0  0  1  0  0  0  0  0  0  0  0
   18.0721   -0.4864    2.7886 H   0  0  0  1  0  0  0  0  0  0  0  0
   16.7206   -0.6921    0.2685 N   0  0  0  1  0  0  0  0  0  0  0  0
   15.7941   -0.4918    0.0200 H   0  0  0  1  0  0  0  0  0  0  0  0
   18.8970   -0.2339   -0.1086 O   0  0  0  1  0  0  0  0  0  0  0  0
   17.7113   -0.1088   -0.4122 C   0  0  0  1  0  0  0  0  0  0  0  0
   17.0761   -1.3288   -2.9920 C   0  0  0  1  0  0  0  0  0  0  0  0
   17.2392   -1.8860   -2.0932 H   0  0  0  1  0  0  0  0  0  0  0  0
   17.4724   -1.8709   -3.8252 H   0  0  0  1  0  0  0  0  0  0  0  0
   17.3951    0.8230   -4.1562 C   0  0  0  1  0  0  0  0  0  0  0  0
   16.3731    0.6356   -4.4116 H   0  0  0  1  0  0  0  0  0  0  0  0
   18.0268    0.5099   -4.9611 H   0  0  0  1  0  0  0  0  0  0  0  0
   17.5325    1.8695   -3.9807 H   0  0  0  1  0  0  0  0  0  0  0  0
   17.7577    0.0406   -2.8883 C   0  0  0  1  0  0  0  0  0  0  0  0
   19.2729   -0.1930   -2.8843 C   0  0  0  1  0  0  0  0  0  0  0  0
   19.4819   -1.1752   -2.5148 H   0  0  0  1  0  0  0  0  0  0  0  0
   19.7437    0.5325   -2.2544 H   0  0  0  1  0  0  0  0  0  0  0  0
   19.6505   -0.0994   -3.8811 H   0  0  0  1  0  0  0  0  0  0  0  0
   17.2879    0.7313   -1.6013 C   0  0  0  1  0  0  0  0  0  0  0  0
   17.7565    1.6910   -1.5346 H   0  0  0  1  0  0  0  0  0  0  0  0
   15.8694    0.8739   -1.6134 O   0  0  0  1  0  0  0  0  0  0  0  0
   15.5611    1.0857   -0.7292 H   0  0  0  1  0  0  0  0  0  0  0  0
   15.6596   -1.1015   -3.1808 O   0  0  0  1  0  0  0  0  0  0  0  0
   13.2546   -1.7973   -3.3274 O   0  0  0  1  0  0  0  0  0  0  0  0
   11.4228   -2.8827   -4.5535 O   0  0  0  1  0  0  0  0  0  0  0  0
   14.9186   -3.4549   -2.5978 O   0  0  0  0  0  0  0  0  0  0  0  0
   14.4103   -1.4187   -1.1106 O   0  0  0  1  0  0  0  0  0  0  0  0
   12.1122   -3.8110   -2.3558 O   0  0  0  0  0  0  0  0  0  0  0  0
   10.9381   -1.5353   -2.4624 O   0  0  0  1  0  0  0  0  0  0  0  0
   14.5628   -2.0336   -2.4381 P   0  0  0  1  0  0  0  0  0  0  0  0
   11.8828   -2.5036   -3.0972 P   0  0  0  1  0  0  0  0  0  0  0  0
   12.1373   -3.8849   -5.3222 C   0  0  0  1  0  0  0  0  0  0  0  0
   12.4701   -4.6705   -4.6764 H   0  0  0  1  0  0  0  0  0  0  0  0
   11.4966   -4.2904   -6.0771 H   0  0  0  1  0  0  0  0  0  0  0  0
   14.3466   -2.9658   -8.1501 O   0  0  0  1  0  0  0  0  0  0  0  0
   12.4185   -1.3685   -8.1884 O   0  0  0  1  0  0  0  0  0  0  0  0
   13.0233   -2.7521  -10.3365 O   0  5  0  1  0  0  0  0  0  0  0  0
   13.5019   -1.8880   -9.0525 P   0  0  0  1  0  0  0  0  0  0  0  0
   14.5030   -0.7478   -9.6201 O   0  5  0  1  0  0  0  0  0  0  0  0
   16.6286   -4.0385   -5.8779 N   0  0  0  1  0  0  0  0  0  0  0  0
   17.6538   -3.8478   -4.9878 C   0  0  0  1  0  0  0  0  0  0  0  0
   17.1437   -3.7424   -7.1026 C   0  0  0  1  0  0  0  0  0  0  0  0
   16.5787   -3.7941   -7.9742 H   0  0  0  1  0  0  0  0  0  0  0  0
   18.7511   -3.4448   -5.7607 C   0  0  0  1  0  0  0  0  0  0  0  0
   17.6308   -4.0205   -3.6655 N   0  0  0  1  0  0  0  0  0  0  0  0
   18.4001   -3.3885   -7.1006 N   0  0  0  1  0  0  0  0  0  0  0  0
   19.9264   -3.2060   -5.0546 C   0  0  0  1  0  0  0  0  0  0  0  0
   18.8115   -3.7508   -3.1222 C   0  0  0  1  0  0  0  0  0  0  0  0
   18.8669   -3.8599   -2.0894 H   0  0  0  1  0  0  0  0  0  0  0  0
   19.9437   -3.3562   -3.7258 N   0  0  0  1  0  0  0  0  0  0  0  0
   21.0940   -2.8170   -5.6565 N   0  0  0  1  0  0  0  0  0  0  0  0
   21.1194   -2.6652   -6.6244 H   0  0  0  1  0  0  0  0  0  0  0  0
   21.9037   -2.6904   -5.1192 H   0  0  0  1  0  0  0  0  0  0  0  0
   13.6161    0.5944    5.0166 S   0  0  0  1  0  0  0  0  0  0  0  0
   13.5301    0.4693    7.6490 O   0  0  0  1  0  0  0  0  0  0  0  0
   13.1228   -0.0092    6.6158 C   0  0  0  1  0  0  0  0  0  0  0  0
   12.1868   -1.1283    6.5662 C   0  0  0  1  0  0  0  0  0  0  0  0
   11.1879   -0.8393    6.5844 H   0  0  0  1  0  0  0  0  0  0  0  0
   12.3619   -2.4477    6.5023 C   0  0  0  1  0  0  0  0  0  0  0  0
   13.3478   -2.7779    6.4824 H   0  0  0  1  0  0  0  0  0  0  0  0
   11.3184   -3.5033    6.4562 C   0  0  0  1  0  0  0  0  0  0  0  0
    9.9974   -3.1050    6.5893 C   0  0  0  1  0  0  0  0  0  0  0  0
    9.7717   -2.1076    6.7788 H   0  0  0  1  0  0  0  0  0  0  0  0
   11.6181   -4.8278    6.1991 C   0  0  0  1  0  0  0  0  0  0  0  0
   12.6090   -5.1260    6.0952 H   0  0  0  1  0  0  0  0  0  0  0  0
    8.9802   -4.0331    6.4703 C   0  0  0  1  0  0  0  0  0  0  0  0
    7.9893   -3.7349    6.5742 H   0  0  0  1  0  0  0  0  0  0  0  0
   10.5981   -5.7588    6.0797 C   0  0  0  1  0  0  0  0  0  0  0  0
    9.2809   -5.3615    6.2125 C   0  0  0  1  0  0  0  0  0  0  0  0
    8.2659   -6.2518    6.0949 O   0  0  0  1  0  0  0  0  0  0  0  0
    7.7603   -6.2710    6.9108 H   0  0  0  1  0  0  0  0  0  0  0  0
   10.9593   -7.0404    5.8329 O   0  0  0  1  0  0  0  0  0  0  0  0
   12.3135   -7.2716    5.4145 C   0  0  0  1  0  0  0  0  0  0  0  0
   12.4564   -6.8739    4.4315 H   0  0  0  1  0  0  0  0  0  0  0  0
   12.5091   -8.3235    5.4053 H   0  0  0  1  0  0  0  0  0  0  0  0
   12.9840   -6.7895    6.0949 H   0  0  0  1  0  0  0  0  0  0  0  0
  1  2  1  0  0  0  0
  1  3  1  0  0  0  0
  1  4  1  0  0  0  0
  1 65  1  0  0  0  0
  3  6  1  0  0  0  0
  4  5  1  0  0  0  0
  4  8  1  0  0  0  0
  4 10  1  0  0  0  0
  6  7  1  0  0  0  0
  6  8  1  0  0  0  0
  6 57  1  0  0  0  0
  8  9  1  0  0  0  0
  8 60  1  0  0  0  0
 10 11  1  0  0  0  0
 12 13  1  0  0  0  0
 12 14  1  0  0  0  0
 12 15  1  0  0  0  0
 12 18  1  0  0  0  0
 15 16  1  0  0  0  0
 15 17  1  0  0  0  0
 15 79  1  0  0  0  0
 18 19  1  0  0  0  0
 18 20  1  0  0  0  0
 20 21  2  0  0  0  0
 20 25  1  0  0  0  0
 22 23  1  0  0  0  0
 22 24  1  0  0  0  0
 22 25  1  0  0  0  0
 22 28  1  0  0  0  0
 25 26  1  0  0  0  0
 25 27  1  0  0  0  0
 28 29  1  0  0  0  0
 28 31  1  0  0  0  0
 30 31  2  0  0  0  0
 31 44  1  0  0  0  0
 32 33  1  0  0  0  0
 32 34  1  0  0  0  0
 32 39  1  0  0  0  0
 32 48  1  0  0  0  0
 35 36  1  0  0  0  0
 35 37  1  0  0  0  0
 35 38  1  0  0  0  0
 35 39  1  0  0  0  0
 39 40  1  0  0  0  0
 39 44  1  0  0  0  0
 40 41  1  0  0  0  0
 40 42  1  0  0  0  0
 40 43  1  0  0  0  0
 44 45  1  0  0  0  0
 44 46  1  0  0  0  0
 46 47  1  0  0  0  0
 48 55  1  0  0  0  0
 49 55  1  0  0  0  0
 49 56  1  0  0  0  0
 50 56  1  0  0  0  0
 50 57  1  0  0  0  0
 51 55  1  0  0  0  0
 52 55  2  0  0  0  0
 53 56  1  0  0  0  0
 54 56  2  0  0  0  0
 57 58  1  0  0  0  0
 57 59  1  0  0  0  0
 60 63  1  0  0  0  0
 61 63  2  0  0  0  0
 62 63  1  0  0  0  0
 63 64  1  0  0  0  0
 65 66  1  0  0  0  0
 65 67  1  0  0  0  0
 66 69  2  0  0  0  0
 66 70  1  0  0  0  0
 67 68  1  0  0  0  0
 67 71  2  0  0  0  0
 69 71  1  0  0  0  0
 69 72  1  0  0  0  0
 70 73  2  0  0  0  0
 72 75  2  0  0  0  0
 72 76  1  0  0  0  0
 73 74  1  0  0  0  0
 73 75  1  0  0  0  0
 76 77  1  0  0  0  0
 76 78  1  0  0  0  0
 79 81  1  0  0  0  0
 80 81  2  0  0  0  0
 81 82  1  0  0  0  0
 82 83  1  0  0  0  0
 82 84  2  0  0  0  0
 84 85  1  0  0  0  0
 84 86  1  0  0  0  0
 86 87  1  0  0  0  0
 86 89  2  0  0  0  0
 87 88  1  0  0  0  0
 87 91  2  0  0  0  0
 89 90  1  0  0  0  0
 89 93  1  0  0  0  0
 91 92  1  0  0  0  0
 91 94  1  0  0  0  0
 93 94  2  0  0  0  0
 93 97  1  0  0  0  0
 94 95  1  0  0  0  0
 95 96  1  0  0  0  0
 97 98  1  0  0  0  0
 98 99  1  0  0  0  0
 98100  1  0  0  0  0
 98101  1  0  0  0  0
M  BCL ATM C_TeTeTeTe H_S O_Te2Te2TeTe C_TeTeTeTe H_S C_TeTeTeTe H_S C_TeTeTeTe H_S O_Te2Te2TeTe H_S C_TeTeTeTe H_S H_S C_TeTeTeTe H_S H_S N_TrTrTrPi2 H_S C_TrTrTrPi O_Tr2Tr2TrPi C_TeTeTeTe H_S H_S C_TeTeTeTe H_S H_S N_TrTrTrPi2 H_S O_Tr2Tr2TrPi C_TrTrTrPi C_TeTeTeTe H_S H_S C_TeTeTeTe H_S H_S H_S C_TeTeTeTe C_TeTeTeTe H_S H_S H_S C_TeTeTeTe H_S O_Te2Te2TeTe H_S O_Tr2TrTrPi2 O_Tr2TrTrPi2 O_Tr2TrTrPi2 O_Te2Te2TeTe O_Tr2Tr2TrPi O_Te2Te2TeTe O_Tr2Tr2TrPi P_TeTeTeTePi P_TeTeTeTePi C_TeTeTeTe H_S H_S O_Tr2TrTrPi2 O_Tr2Tr2TrPi O_Te2Te2Te2Te P_TeTeTeTePi O_Te2Te2Te2Te N_TrTrTrPi2 C_TrTrTrPi C_TrTrTrPi H_S C_TrTrTrPi N_Tr2TrTrPi N_Tr2TrTrPi C_TrTrTrPi C_TrTrTrPi H_S N_Tr2TrTrPi N_TrTrTrPi2 H_S H_S S_Te2Te2TeTe O_Tr2Tr2TrPi C_TrTrTrPi C_TrTrTrPi H_S C_TrTrTrPi H_S C_TrTrTrPi C_TrTrTrPi H_S C_TrTrTrPi H_S C_TrTrTrPi H_S C_TrTrTrPi C_TrTrTrPi O_Te2Te2TeTe H_S O_Tr2TrTrPi2 C_TeTeTeTe H_S H_S H_S
M  BCL BND NonConjugatedSingleBond NonConjugatedSingleBondInRing NonConjugatedSingleBondInRing NonConjugatedSingleBond NonConjugatedSingleBondInRing NonConjugatedSingleBond NonConjugatedSingleBondInRing NonConjugatedSingleBond NonConjugatedSingleBond NonConjugatedSingleBondInRing NonConjugatedSingleBond NonConjugatedSingleBond NonConjugatedSingleBond NonConjugatedSingleBond NonConjugatedSingleBond NonConjugatedSingleBond NonConjugatedSingleBond NonConjugatedSingleBond NonConjugatedSingleBond NonConjugatedSingleBond NonConjugatedSingleBond NonConjugatedSingleBond AmideSingleBond ConjugatedDoubleBond NonConjugatedSingleBond NonConjugatedSingleBond NonConjugatedSingleBond NonConjugatedSingleBond NonConjugatedSingleBond NonConjugatedSingleBond NonConjugatedSingleBond NonConjugatedSingleBond AmideSingleBond ConjugatedDoubleBond NonConjugatedSingleBond NonConjugatedSingleBond NonConjugatedSingleBond NonConjugatedSingleBond NonConjugatedSingleBond NonConjugatedSingleBond NonConjugatedSingleBond NonConjugatedSingleBond NonConjugatedSingleBond NonConjugatedSingleBond NonConjugatedSingleBond NonConjugatedSingleBond NonConjugatedSingleBond NonConjugatedSingleBond NonConjugatedSingleBond NonConjugatedSingleBond NonConjugatedSingleBond ConjugatedSingleBond ConjugatedSingleBond ConjugatedSingleBond ConjugatedSingleBond NonConjugatedSingleBond ConjugatedSingleBond ConjugatedDoubleBond ConjugatedSingleBond ConjugatedDoubleBond NonConjugatedSingleBond NonConjugatedSingleBond ConjugatedSingleBond ConjugatedDoubleBond ConjugatedSingleBond ConjugatedSingleBond AromaticSingleBond AromaticSingleBond AromaticDoubleBond AromaticSingleBond NonConjugatedSingleBond AromaticDoubleBond AromaticSingleBond AromaticSingleBond AromaticDoubleBond AromaticDoubleBond ConjugatedSingleBond NonConjugatedSingleBond AromaticSingleBond NonConjugatedSingleBond NonConjugatedSingleBond ConjugatedSingleBond ConjugatedDoubleBond ConjugatedSingleBond NonConjugatedSingleBond ConjugatedDoubleBond NonConjugatedSingleBond ConjugatedSingleBond AromaticSingleBond AromaticDoubleBond NonConjugatedSingleBond AromaticDoubleBond NonConjugatedSingleBond AromaticSingleBond NonConjugatedSingleBond AromaticSingleBond AromaticDoubleBond ConjugatedSingleBond ConjugatedSingleBond NonConjugatedSingleBond NonConjugatedSingleBond NonConjugatedSingleBond NonConjugatedSingleBond NonConjugatedSingleBond
M  BCL CHI   1   R   4   R   6   R   8   S  44   S  55   S  56   R
M  BCL DBI - - - - - - - - - - E - - -
M  END
> <ConfClashScore>
0 

> <ConfOneFourInteractionScore>
-0.974129 

> <ConfScore>
0.0881897 

> <ConfScorePBest>
0.00654947 

> <ConfTolerance>
3.38882 

$$$$
L02.****
  PyMOL2.5          3D                             0

101104  0  0  0  0  0  0  0  0999 V2000
   15.2978   -4.4886   -5.6039 C   0  0  0  1  0  0  0  0  0  0  0  0
   14.7873   -4.6747   -6.5257 H   0  0  0  1  0  0  0  0  0  0  0  0
   15.2952   -5.6335   -4.7949 O   0  0  0  1  0  0  0  0  0  0  0  0
   14.5518   -3.4354   -4.7719 C   0  0  0  1  0  0  0  0  0  0  0  0
   15.2132   -2.9434   -4.0898 H   0  0  0  1  0  0  0  0  0  0  0  0
   14.2573   -5.5834   -3.7902 C   0  0  0  1  0  0  0  0  0  0  0  0
   14.6834   -5.6006   -2.8089 H   0  0  0  1  0  0  0  0  0  0  0  0
   13.5278   -4.2595   -4.0365 C   0  0  0  1  0  0  0  0  0  0  0  0
   12.6535   -4.4086   -4.6350 H   0  0  0  1  0  0  0  0  0  0  0  0
   13.9250   -2.4651   -5.6120 O   0  0  0  1  0  0  0  0  0  0  0  0
   13.1065   -2.1706   -5.2060 H   0  0  0  1  0  0  0  0  0  0  0  0
   17.2959   -3.4289  -12.7358 C   0  0  0  1  0  0  0  0  0  0  0  0
   17.3135   -2.5854  -12.0777 H   0  0  0  1  0  0  0  0  0  0  0  0
   18.2787   -3.8455  -12.8087 H   0  0  0  1  0  0  0  0  0  0  0  0
   16.8860   -2.9463  -14.1088 C   0  0  0  1  0  0  0  0  0  0  0  0
   17.6456   -2.2837  -14.4677 H   0  0  0  1  0  0  0  0  0  0  0  0
   15.9637   -2.4127  -14.0108 H   0  0  0  1  0  0  0  0  0  0  0  0
   16.4190   -4.4352  -12.1588 N   0  0  0  1  0  0  0  0  0  0  0  0
   15.4649   -4.2326  -12.0636 H   0  0  0  1  0  0  0  0  0  0  0  0
   16.8689   -5.6263  -11.7540 C   0  0  0  1  0  0  0  0  0  0  0  0
   18.0543   -5.9503  -11.8137 O   0  0  0  1  0  0  0  0  0  0  0  0
   15.8019   -7.9065  -11.9312 C   0  0  0  1  0  0  0  0  0  0  0  0
   16.0450   -7.7463  -12.9608 H   0  0  0  1  0  0  0  0  0  0  0  0
   14.8166   -8.3169  -11.8565 H   0  0  0  1  0  0  0  0  0  0  0  0
   15.8280   -6.5683  -11.2108 C   0  0  0  1  0  0  0  0  0  0  0  0
   14.8670   -6.1086  -11.3113 H   0  0  0  1  0  0  0  0  0  0  0  0
   16.0338   -6.7429  -10.1754 H   0  0  0  1  0  0  0  0  0  0  0  0
   16.7537   -8.8659  -11.3682 N   0  0  0  1  0  0  0  0  0  0  0  0
   17.7169   -8.7136  -11.4655 H   0  0  0  1  0  0  0  0  0  0  0  0
   15.1033  -10.1807  -10.5960 O   0  0  0  1  0  0  0  0  0  0  0  0
   16.3075   -9.9593  -10.7157 C   0  0  0  1  0  0  0  0  0  0  0  0
   15.7946  -10.5442   -8.1331 C   0  0  0  1  0  0  0  0  0  0  0  0
   15.6797  -10.7563   -7.0907 H   0  0  0  1  0  0  0  0  0  0  0  0
   15.0371  -11.0576   -8.6877 H   0  0  0  1  0  0  0  0  0  0  0  0
   17.4925  -12.4282   -8.1575 C   0  0  0  1  0  0  0  0  0  0  0  0
   18.2077  -12.8689   -8.8202 H   0  0  0  1  0  0  0  0  0  0  0  0
   16.5906  -13.0038   -8.1725 H   0  0  0  1  0  0  0  0  0  0  0  0
   17.8896  -12.4123   -7.1641 H   0  0  0  1  0  0  0  0  0  0  0  0
   17.1909  -10.9945   -8.6100 C   0  0  0  1  0  0  0  0  0  0  0  0
   18.2131  -10.0489   -7.9686 C   0  0  0  1  0  0  0  0  0  0  0  0
   18.1366  -10.1100   -6.9031 H   0  0  0  1  0  0  0  0  0  0  0  0
   18.0165   -9.0453   -8.2831 H   0  0  0  1  0  0  0  0  0  0  0  0
   19.1995  -10.3316   -8.2719 H   0  0  0  1  0  0  0  0  0  0  0  0
   17.3318  -10.9073  -10.1343 C   0  0  0  1  0  0  0  0  0  0  0  0
   18.3077  -10.5301  -10.3583 H   0  0  0  1  0  0  0  0  0  0  0  0
   17.2084  -12.2396  -10.6312 O   0  0  0  1  0  0  0  0  0  0  0  0
   18.0290  -12.5008  -11.0554 H   0  0  0  1  0  0  0  0  0  0  0  0
   15.6912   -9.1189   -8.3604 O   0  0  0  1  0  0  0  0  0  0  0  0
   13.8674   -8.4284   -6.8177 O   0  0  0  1  0  0  0  0  0  0  0  0
   12.7823   -6.6858   -5.2939 O   0  0  0  1  0  0  0  0  0  0  0  0
   14.5466   -6.9620   -8.6367 O   0  0  0  0  0  0  0  0  0  0  0  0
   13.3083   -9.1256   -9.1667 O   0  0  0  1  0  0  0  0  0  0  0  0
   11.4937   -7.6138   -7.1665 O   0  0  0  0  0  0  0  0  0  0  0  0
   12.0988   -9.1556   -5.2541 O   0  0  0  1  0  0  0  0  0  0  0  0
   14.2764   -8.3910   -8.3446 P   0  0  0  1  0  0  0  0  0  0  0  0
   12.5221   -8.0101   -6.1098 P   0  0  0  1  0  0  0  0  0  0  0  0
   13.3201   -6.7354   -3.9470 C   0  0  0  1  0  0  0  0  0  0  0  0
   12.5256   -6.6584   -3.2344 H   0  0  0  1  0  0  0  0  0  0  0  0
   13.8455   -7.6555   -3.7981 H   0  0  0  1  0  0  0  0  0  0  0  0
   13.1553   -3.6295   -2.7834 O   0  0  0  1  0  0  0  0  0  0  0  0
   11.5114   -2.1507   -1.3677 O   0  0  0  1  0  0  0  0  0  0  0  0
   10.7369   -3.1030   -3.5880 O   0  5  0  1  0  0  0  0  0  0  0  0
   11.9709   -2.4964   -2.7314 P   0  0  0  1  0  0  0  0  0  0  0  0
   12.3714   -1.1643   -3.5618 O   0  5  0  1  0  0  0  0  0  0  0  0
   16.6670   -4.0542   -5.8829 N   0  0  0  1  0  0  0  0  0  0  0  0
   17.6702   -3.8453   -4.9720 C   0  0  0  1  0  0  0  0  0  0  0  0
   17.2092   -3.7736   -7.0994 C   0  0  0  1  0  0  0  0  0  0  0  0
   16.6651   -3.8410   -7.9831 H   0  0  0  1  0  0  0  0  0  0  0  0
   18.7834   -3.4483   -5.7250 C   0  0  0  1  0  0  0  0  0  0  0  0
   17.6170   -3.9986   -3.6481 N   0  0  0  1  0  0  0  0  0  0  0  0
   18.4636   -3.4136   -7.0733 N   0  0  0  1  0  0  0  0  0  0  0  0
   19.9407   -3.1934   -4.9952 C   0  0  0  1  0  0  0  0  0  0  0  0
   18.7833   -3.7151   -3.0815 C   0  0  0  1  0  0  0  0  0  0  0  0
   18.8150   -3.8087   -2.0462 H   0  0  0  1  0  0  0  0  0  0  0  0
   19.9276   -3.3238   -3.6643 N   0  0  0  1  0  0  0  0  0  0  0  0
   21.0301   -2.8195   -5.7137 N   0  0  0  1  0  0  0  0  0  0  0  0
   21.9296   -3.0173   -5.3786 H   0  0  0  1  0  0  0  0  0  0  0  0
   20.9172   -2.3520   -6.5675 H   0  0  0  1  0  0  0  0  0  0  0  0
   16.6511   -4.2489  -15.3414 S   0  0  0  1  0  0  0  0  0  0  0  0
   14.6734   -4.8587  -13.8416 O   0  0  0  1  0  0  0  0  0  0  0  0
   15.2041   -5.1201  -14.7918 C   0  0  0  1  0  0  0  0  0  0  0  0
   14.8486   -6.1720  -15.7366 C   0  0  0  1  0  0  0  0  0  0  0  0
   15.5451   -6.4052  -16.4728 H   0  0  0  1  0  0  0  0  0  0  0  0
   13.7076   -6.8602  -15.7375 C   0  0  0  1  0  0  0  0  0  0  0  0
   13.0236   -6.6130  -14.9942 H   0  0  0  1  0  0  0  0  0  0  0  0
   13.2963   -7.9351  -16.6701 C   0  0  0  1  0  0  0  0  0  0  0  0
   11.9764   -8.3585  -16.6859 C   0  0  0  1  0  0  0  0  0  0  0  0
   11.2818   -7.9192  -16.0487 H   0  0  0  1  0  0  0  0  0  0  0  0
   14.2182   -8.5153  -17.5207 C   0  0  0  1  0  0  0  0  0  0  0  0
   15.2075   -8.1949  -17.5118 H   0  0  0  1  0  0  0  0  0  0  0  0
   11.5835   -9.3644  -17.5484 C   0  0  0  1  0  0  0  0  0  0  0  0
   10.5941   -9.6848  -17.5574 H   0  0  0  1  0  0  0  0  0  0  0  0
   13.8243   -9.5242  -18.3859 C   0  0  0  1  0  0  0  0  0  0  0  0
   12.5083   -9.9463  -18.4016 C   0  0  0  1  0  0  0  0  0  0  0  0
   12.1699  -10.9317  -19.2682 O   0  0  0  1  0  0  0  0  0  0  0  0
   12.8699  -11.5880  -19.2965 H   0  0  0  1  0  0  0  0  0  0  0  0
   14.6357  -10.1684  -19.2580 O   0  0  0  1  0  0  0  0  0  0  0  0
   16.0416   -9.8864  -19.1770 C   0  0  0  1  0  0  0  0  0  0  0  0
   16.3527   -9.9121  -18.1536 H   0  0  0  1  0  0  0  0  0  0  0  0
   16.2345   -8.9158  -19.5840 H   0  0  0  1  0  0  0  0  0  0  0  0
   16.5851  -10.6214  -19.7332 H   0  0  0  1  0  0  0  0  0  0  0  0
  1  2  1  0  0  0  0
  1  3  1  0  0  0  0
  1  4  1  0  0  0  0
  1 65  1  0  0  0  0
  3  6  1  0  0  0  0
  4  5  1  0  0  0  0
  4  8  1  0  0  0  0
  4 10  1  0  0  0  0
  6  7  1  0  0  0  0
  6  8  1  0  0  0  0
  6 57  1  0  0  0  0
  8  9  1  0  0  0  0
  8 60  1  0  0  0  0
 10 11  1  0  0  0  0
 12 13  1  0  0  0  0
 12 14  1  0  0  0  0
 12 15  1  0  0  0  0
 12 18  1  0  0  0  0
 15 16  1  0  0  0  0
 15 17  1  0  0  0  0
 15 79  1  0  0  0  0
 18 19  1  0  0  0  0
 18 20  1  0  0  0  0
 20 21  2  0  0  0  0
 20 25  1  0  0  0  0
 22 23  1  0  0  0  0
 22 24  1  0  0  0  0
 22 25  1  0  0  0  0
 22 28  1  0  0  0  0
 25 26  1  0  0  0  0
 25 27  1  0  0  0  0
 28 29  1  0  0  0  0
 28 31  1  0  0  0  0
 30 31  2  0  0  0  0
 31 44  1  0  0  0  0
 32 33  1  0  0  0  0
 32 34  1  0  0  0  0
 32 39  1  0  0  0  0
 32 48  1  0  0  0  0
 35 36  1  0  0  0  0
 35 37  1  0  0  0  0
 35 38  1  0  0  0  0
 35 39  1  0  0  0  0
 39 40  1  0  0  0  0
 39 44  1  0  0  0  0
 40 41  1  0  0  0  0
 40 42  1  0  0  0  0
 40 43  1  0  0  0  0
 44 45  1  0  0  0  0
 44 46  1  0  0  0  0
 46 47  1  0  0  0  0
 48 55  1  0  0  0  0
 49 55  1  0  0  0  0
 49 56  1  0  0  0  0
 50 56  1  0  0  0  0
 50 57  1  0  0  0  0
 51 55  1  0  0  0  0
 52 55  2  0  0  0  0
 53 56  1  0  0  0  0
 54 56  2  0  0  0  0
 57 58  1  0  0  0  0
 57 59  1  0  0  0  0
 60 63  1  0  0  0  0
 61 63  2  0  0  0  0
 62 63  1  0  0  0  0
 63 64  1  0  0  0  0
 65 66  1  0  0  0  0
 65 67  1  0  0  0  0
 66 69  2  0  0  0  0
 66 70  1  0  0  0  0
 67 68  1  0  0  0  0
 67 71  2  0  0  0  0
 69 71  1  0  0  0  0
 69 72  1  0  0  0  0
 70 73  2  0  0  0  0
 72 75  2  0  0  0  0
 72 76  1  0  0  0  0
 73 74  1  0  0  0  0
 73 75  1  0  0  0  0
 76 77  1  0  0  0  0
 76 78  1  0  0  0  0
 79 81  1  0  0  0  0
 80 81  2  0  0  0  0
 81 82  1  0  0  0  0
 82 83  1  0  0  0  0
 82 84  2  0  0  0  0
 84 85  1  0  0  0  0
 84 86  1  0  0  0  0
 86 87  1  0  0  0  0
 86 89  2  0  0  0  0
 87 88  1  0  0  0  0
 87 91  2  0  0  0  0
 89 90  1  0  0  0  0
 89 93  1  0  0  0  0
 91 92  1  0  0  0  0
 91 94  1  0  0  0  0
 93 94  2  0  0  0  0
 93 97  1  0  0  0  0
 94 95  1  0  0  0  0
 95 96  1  0  0  0  0
 97 98  1  0  0  0  0
 98 99  1  0  0  0  0
 98100  1  0  0  0  0
 98101  1  0  0  0  0
M  BCL ATM C_TeTeTeTe H_S O_Te2Te2TeTe C_TeTeTeTe H_S C_TeTeTeTe H_S C_TeTeTeTe H_S O_Te2Te2TeTe H_S C_TeTeTeTe H_S H_S C_TeTeTeTe H_S H_S N_TrTrTrPi2 H_S C_TrTrTrPi O_Tr2Tr2TrPi C_TeTeTeTe H_S H_S C_TeTeTeTe H_S H_S N_TrTrTrPi2 H_S O_Tr2Tr2TrPi C_TrTrTrPi C_TeTeTeTe H_S H_S C_TeTeTeTe H_S H_S H_S C_TeTeTeTe C_TeTeTeTe H_S H_S H_S C_TeTeTeTe H_S O_Te2Te2TeTe H_S O_Tr2TrTrPi2 O_Tr2TrTrPi2 O_Tr2TrTrPi2 O_Te2Te2TeTe O_Tr2Tr2TrPi O_Te2Te2TeTe O_Tr2Tr2TrPi P_TeTeTeTePi P_TeTeTeTePi C_TeTeTeTe H_S H_S O_Tr2TrTrPi2 O_Tr2Tr2TrPi O_Te2Te2Te2Te P_TeTeTeTePi O_Te2Te2Te2Te N_TrTrTrPi2 C_TrTrTrPi C_TrTrTrPi H_S C_TrTrTrPi N_Tr2TrTrPi N_Tr2TrTrPi C_TrTrTrPi C_TrTrTrPi H_S N_Tr2TrTrPi N_TrTrTrPi2 H_S H_S S_Te2Te2TeTe O_Tr2Tr2TrPi C_TrTrTrPi C_TrTrTrPi H_S C_TrTrTrPi H_S C_TrTrTrPi C_TrTrTrPi H_S C_TrTrTrPi H_S C_TrTrTrPi H_S C_TrTrTrPi C_TrTrTrPi O_Te2Te2TeTe H_S O_Tr2TrTrPi2 C_TeTeTeTe H_S H_S H_S
M  BCL BND NonConjugatedSingleBond NonConjugatedSingleBondInRing NonConjugatedSingleBondInRing NonConjugatedSingleBond NonConjugatedSingleBondInRing NonConjugatedSingleBond NonConjugatedSingleBondInRing NonConjugatedSingleBond NonConjugatedSingleBond NonConjugatedSingleBondInRing NonConjugatedSingleBond NonConjugatedSingleBond NonConjugatedSingleBond NonConjugatedSingleBond NonConjugatedSingleBond NonConjugatedSingleBond NonConjugatedSingleBond NonConjugatedSingleBond NonConjugatedSingleBond NonConjugatedSingleBond NonConjugatedSingleBond NonConjugatedSingleBond AmideSingleBond ConjugatedDoubleBond NonConjugatedSingleBond NonConjugatedSingleBond NonConjugatedSingleBond NonConjugatedSingleBond NonConjugatedSingleBond NonConjugatedSingleBond NonConjugatedSingleBond NonConjugatedSingleBond AmideSingleBond ConjugatedDoubleBond NonConjugatedSingleBond NonConjugatedSingleBond NonConjugatedSingleBond NonConjugatedSingleBond NonConjugatedSingleBond NonConjugatedSingleBond NonConjugatedSingleBond NonConjugatedSingleBond NonConjugatedSingleBond NonConjugatedSingleBond NonConjugatedSingleBond NonConjugatedSingleBond NonConjugatedSingleBond NonConjugatedSingleBond NonConjugatedSingleBond NonConjugatedSingleBond NonConjugatedSingleBond ConjugatedSingleBond ConjugatedSingleBond ConjugatedSingleBond ConjugatedSingleBond NonConjugatedSingleBond ConjugatedSingleBond ConjugatedDoubleBond ConjugatedSingleBond ConjugatedDoubleBond NonConjugatedSingleBond NonConjugatedSingleBond ConjugatedSingleBond ConjugatedDoubleBond ConjugatedSingleBond ConjugatedSingleBond AromaticSingleBond AromaticSingleBond AromaticDoubleBond AromaticSingleBond NonConjugatedSingleBond AromaticDoubleBond AromaticSingleBond AromaticSingleBond AromaticDoubleBond AromaticDoubleBond ConjugatedSingleBond NonConjugatedSingleBond AromaticSingleBond NonConjugatedSingleBond NonConjugatedSingleBond ConjugatedSingleBond ConjugatedDoubleBond ConjugatedSingleBond NonConjugatedSingleBond ConjugatedDoubleBond NonConjugatedSingleBond ConjugatedSingleBond AromaticSingleBond AromaticDoubleBond NonConjugatedSingleBond AromaticDoubleBond NonConjugatedSingleBond AromaticSingleBond NonConjugatedSingleBond AromaticSingleBond AromaticDoubleBond ConjugatedSingleBond ConjugatedSingleBond NonConjugatedSingleBond NonConjugatedSingleBond NonConjugatedSingleBond NonConjugatedSingleBond NonConjugatedSingleBond
M  BCL CHI   1   R   4   R   6   R   8   S  44   S  55   S  56   R
M  BCL DBI - - - - - - - - - - E - - -
M  END
> <ConfClashScore>
0 

> <ConfOneFourInteractionScore>
-0.979591 

> <ConfScore>
0.0887722 

> <ConfScorePBest>
0.00644647 

> <ConfTolerance>
3.36923 

$$$$
L02.****
  PyMOL2.5          3D                             0

101104  0  0  0  0  0  0  0  0999 V2000
   15.2799   -4.4683   -5.5883 C   0  0  0  1  0  0  0  0  0  0  0  0
   14.8626   -4.9369   -6.4550 H   0  0  0  1  0  0  0  0  0  0  0  0
   15.2551   -5.3777   -4.4463 O   0  0  0  1  0  0  0  0  0  0  0  0
   14.4299   -3.2972   -5.1515 C   0  0  0  1  0  0  0  0  0  0  0  0
   14.7409   -2.3965   -5.6383 H   0  0  0  1  0  0  0  0  0  0  0  0
   14.9694   -4.6802   -3.2667 C   0  0  0  1  0  0  0  0  0  0  0  0
   15.8089   -4.7268   -2.6049 H   0  0  0  1  0  0  0  0  0  0  0  0
   14.6796   -3.2176   -3.6395 C   0  0  0  1  0  0  0  0  0  0  0  0
   13.8155   -2.8525   -3.1247 H   0  0  0  1  0  0  0  0  0  0  0  0
   13.0495   -3.5369   -5.4289 O   0  0  0  1  0  0  0  0  0  0  0  0
   12.5383   -3.4356   -4.6227 H   0  0  0  1  0  0  0  0  0  0  0  0
   16.6159  -14.1576   -2.0628 C   0  0  0  1  0  0  0  0  0  0  0  0
   16.8520  -14.1687   -1.0192 H   0  0  0  1  0  0  0  0  0  0  0  0
   15.9077  -14.9306   -2.2770 H   0  0  0  1  0  0  0  0  0  0  0  0
   17.8766  -14.4262   -2.8466 C   0  0  0  1  0  0  0  0  0  0  0  0
   18.3569  -15.2813   -2.4187 H   0  0  0  1  0  0  0  0  0  0  0  0
   18.5147  -13.5727   -2.7505 H   0  0  0  1  0  0  0  0  0  0  0  0
   16.0137  -12.8649   -2.3938 N   0  0  0  1  0  0  0  0  0  0  0  0
   16.5070  -12.0451   -2.1816 H   0  0  0  1  0  0  0  0  0  0  0  0
   14.8031  -12.7629   -2.9806 C   0  0  0  1  0  0  0  0  0  0  0  0
   14.2072  -13.7600   -3.3858 O   0  0  0  1  0  0  0  0  0  0  0  0
   13.6189  -11.1388   -4.5109 C   0  0  0  1  0  0  0  0  0  0  0  0
   13.1355  -10.1842   -4.5110 H   0  0  0  1  0  0  0  0  0  0  0  0
   12.9010  -11.9026   -4.7257 H   0  0  0  1  0  0  0  0  0  0  0  0
   14.2005  -11.3911   -3.1261 C   0  0  0  1  0  0  0  0  0  0  0  0
   14.9619  -10.6630   -2.9386 H   0  0  0  1  0  0  0  0  0  0  0  0
   13.4185  -11.2843   -2.4036 H   0  0  0  1  0  0  0  0  0  0  0  0
   14.6408  -11.1472   -5.5592 N   0  0  0  1  0  0  0  0  0  0  0  0
   15.4513  -10.6061   -5.4563 H   0  0  0  1  0  0  0  0  0  0  0  0
   13.4945  -12.6184   -6.8802 O   0  0  0  1  0  0  0  0  0  0  0  0
   14.4690  -11.8984   -6.6667 C   0  0  0  1  0  0  0  0  0  0  0  0
   15.2314   -9.2945   -8.1995 C   0  0  0  1  0  0  0  0  0  0  0  0
   14.9962   -8.6350   -9.0086 H   0  0  0  1  0  0  0  0  0  0  0  0
   16.1978   -9.0513   -7.8099 H   0  0  0  1  0  0  0  0  0  0  0  0
   16.3841  -10.7810   -9.7839 C   0  0  0  1  0  0  0  0  0  0  0  0
   16.2112  -10.0209  -10.5169 H   0  0  0  1  0  0  0  0  0  0  0  0
   16.3976  -11.7390  -10.2603 H   0  0  0  1  0  0  0  0  0  0  0  0
   17.3251  -10.6070   -9.3051 H   0  0  0  1  0  0  0  0  0  0  0  0
   15.2670  -10.7470   -8.7395 C   0  0  0  1  0  0  0  0  0  0  0  0
   13.9682  -11.1535   -9.4356 C   0  0  0  1  0  0  0  0  0  0  0  0
   13.3787  -10.2818   -9.6292 H   0  0  0  1  0  0  0  0  0  0  0  0
   13.4198  -11.8217   -8.8049 H   0  0  0  1  0  0  0  0  0  0  0  0
   14.1968  -11.6416  -10.3599 H   0  0  0  1  0  0  0  0  0  0  0  0
   15.6065  -11.7845   -7.6628 C   0  0  0  1  0  0  0  0  0  0  0  0
   15.7184  -12.7325   -8.1463 H   0  0  0  1  0  0  0  0  0  0  0  0
   16.8055  -11.4595   -6.9862 O   0  0  0  1  0  0  0  0  0  0  0  0
   16.8372  -10.5134   -6.8267 H   0  0  0  1  0  0  0  0  0  0  0  0
   14.2508   -9.1084   -7.1519 O   0  0  0  1  0  0  0  0  0  0  0  0
   13.7537   -8.3271   -4.9515 O   0  0  0  1  0  0  0  0  0  0  0  0
   13.2817   -6.3440   -3.4540 O   0  0  0  1  0  0  0  0  0  0  0  0
   15.2900   -6.9095   -6.4011 O   0  0  0  0  0  0  0  0  0  0  0  0
   12.8203   -7.2009   -6.8613 O   0  0  0  1  0  0  0  0  0  0  0  0
   13.0090   -8.7444   -2.6784 O   0  0  0  0  0  0  0  0  0  0  0  0
   15.2955   -7.6646   -3.0636 O   0  0  0  1  0  0  0  0  0  0  0  0
   14.0741   -7.8016   -6.4044 P   0  0  0  1  0  0  0  0  0  0  0  0
   13.8817   -7.8274   -3.4391 P   0  0  0  1  0  0  0  0  0  0  0  0
   13.7752   -5.2796   -2.6000 C   0  0  0  1  0  0  0  0  0  0  0  0
   13.0177   -4.5349   -2.4711 H   0  0  0  1  0  0  0  0  0  0  0  0
   14.0517   -5.6767   -1.6457 H   0  0  0  1  0  0  0  0  0  0  0  0
   15.8150   -2.3680   -3.3417 O   0  0  0  1  0  0  0  0  0  0  0  0
   14.6135   -0.0327   -3.5010 O   0  0  0  1  0  0  0  0  0  0  0  0
   16.3946   -0.7019   -5.2654 O   0  5  0  1  0  0  0  0  0  0  0  0
   15.8716   -0.7766   -3.7339 P   0  0  0  1  0  0  0  0  0  0  0  0
   16.9885   -0.0497   -2.8127 O   0  5  0  1  0  0  0  0  0  0  0  0
   16.6478   -4.0365   -5.8773 N   0  0  0  1  0  0  0  0  0  0  0  0
   17.6630   -3.8467   -4.9756 C   0  0  0  1  0  0  0  0  0  0  0  0
   17.1767   -3.7400   -7.0959 C   0  0  0  1  0  0  0  0  0  0  0  0
   16.6215   -3.7911   -7.9739 H   0  0  0  1  0  0  0  0  0  0  0  0
   18.7691   -3.4438   -5.7360 C   0  0  0  1  0  0  0  0  0  0  0  0
   17.6251   -4.0200   -3.6537 N   0  0  0  1  0  0  0  0  0  0  0  0
   18.4332   -3.3868   -7.0797 N   0  0  0  1  0  0  0  0  0  0  0  0
   19.9365   -3.2059   -5.0166 C   0  0  0  1  0  0  0  0  0  0  0  0
   18.7997   -3.7510   -3.0971 C   0  0  0  1  0  0  0  0  0  0  0  0
   18.8434   -3.8607   -2.0638 H   0  0  0  1  0  0  0  0  0  0  0  0
   19.9388   -3.3567   -3.6877 N   0  0  0  1  0  0  0  0  0  0  0  0
   21.0595   -2.8204   -5.7001 N   0  0  0  1  0  0  0  0  0  0  0  0
   21.0345   -2.7367   -6.6762 H   0  0  0  1  0  0  0  0  0  0  0  0
   21.8878   -2.6283   -5.2128 H   0  0  0  1  0  0  0  0  0  0  0  0
   17.6306  -14.7459   -4.6096 S   0  0  0  1  0  0  0  0  0  0  0  0
   20.1938  -15.3369   -4.4272 O   0  0  0  1  0  0  0  0  0  0  0  0
   19.1861  -15.4683   -5.0826 C   0  0  0  1  0  0  0  0  0  0  0  0
   19.1343  -16.2288   -6.3260 C   0  0  0  1  0  0  0  0  0  0  0  0
   18.2556  -16.2158   -6.8822 H   0  0  0  1  0  0  0  0  0  0  0  0
   20.1663  -16.9397   -6.7787 C   0  0  0  1  0  0  0  0  0  0  0  0
   21.0337  -16.9372   -6.2048 H   0  0  0  1  0  0  0  0  0  0  0  0
   20.1840  -17.7327   -8.0282 C   0  0  0  1  0  0  0  0  0  0  0  0
   21.2534  -18.5508   -8.3579 C   0  0  0  1  0  0  0  0  0  0  0  0
   22.0701  -18.6221   -7.7179 H   0  0  0  1  0  0  0  0  0  0  0  0
   19.0964  -17.6421   -8.8762 C   0  0  0  1  0  0  0  0  0  0  0  0
   18.2923  -17.0315   -8.6270 H   0  0  0  1  0  0  0  0  0  0  0  0
   21.2345  -19.2716   -9.5370 C   0  0  0  1  0  0  0  0  0  0  0  0
   22.0387  -19.8823   -9.7862 H   0  0  0  1  0  0  0  0  0  0  0  0
   19.0773  -18.3650  -10.0588 C   0  0  0  1  0  0  0  0  0  0  0  0
   20.1436  -19.1806  -10.3874 C   0  0  0  1  0  0  0  0  0  0  0  0
   20.1923  -19.9196  -11.5224 O   0  0  0  1  0  0  0  0  0  0  0  0
   19.5315  -20.6146  -11.4809 H   0  0  0  1  0  0  0  0  0  0  0  0
   18.0731  -18.3527  -10.9673 O   0  0  0  1  0  0  0  0  0  0  0  0
   17.0198  -17.3969  -10.7682 C   0  0  0  1  0  0  0  0  0  0  0  0
   16.1115  -17.9105  -10.5315 H   0  0  0  1  0  0  0  0  0  0  0  0
   16.8834  -16.8254  -11.6625 H   0  0  0  1  0  0  0  0  0  0  0  0
   17.2798  -16.7427   -9.9624 H   0  0  0  1  0  0  0  0  0  0  0  0
  1  2  1  0  0  0  0
  1  3  1  0  0  0  0
  1  4  1  0  0  0  0
  1 65  1  0  0  0  0
  3  6  1  0  0  0  0
  4  5  1  0  0  0  0
  4  8  1  0  0  0  0
  4 10  1  0  0  0  0
  6  7  1  0  0  0  0
  6  8  1  0  0  0  0
  6 57  1  0  0  0  0
  8  9  1  0  0  0  0
  8 60  1  0  0  0  0
 10 11  1  0  0  0  0
 12 13  1  0  0  0  0
 12 14  1  0  0  0  0
 12 15  1  0  0  0  0
 12 18  1  0  0  0  0
 15 16  1  0  0  0  0
 15 17  1  0  0  0  0
 15 79  1  0  0  0  0
 18 19  1  0  0  0  0
 18 20  1  0  0  0  0
 20 21  2  0  0  0  0
 20 25  1  0  0  0  0
 22 23  1  0  0  0  0
 22 24  1  0  0  0  0
 22 25  1  0  0  0  0
 22 28  1  0  0  0  0
 25 26  1  0  0  0  0
 25 27  1  0  0  0  0
 28 29  1  0  0  0  0
 28 31  1  0  0  0  0
 30 31  2  0  0  0  0
 31 44  1  0  0  0  0
 32 33  1  0  0  0  0
 32 34  1  0  0  0  0
 32 39  1  0  0  0  0
 32 48  1  0  0  0  0
 35 36  1  0  0  0  0
 35 37  1  0  0  0  0
 35 38  1  0  0  0  0
 35 39  1  0  0  0  0
 39 40  1  0  0  0  0
 39 44  1  0  0  0  0
 40 41  1  0  0  0  0
 40 42  1  0  0  0  0
 40 43  1  0  0  0  0
 44 45  1  0  0  0  0
 44 46  1  0  0  0  0
 46 47  1  0  0  0  0
 48 55  1  0  0  0  0
 49 55  1  0  0  0  0
 49 56  1  0  0  0  0
 50 56  1  0  0  0  0
 50 57  1  0  0  0  0
 51 55  1  0  0  0  0
 52 55  2  0  0  0  0
 53 56  1  0  0  0  0
 54 56  2  0  0  0  0
 57 58  1  0  0  0  0
 57 59  1  0  0  0  0
 60 63  1  0  0  0  0
 61 63  2  0  0  0  0
 62 63  1  0  0  0  0
 63 64  1  0  0  0  0
 65 66  1  0  0  0  0
 65 67  1  0  0  0  0
 66 69  2  0  0  0  0
 66 70  1  0  0  0  0
 67 68  1  0  0  0  0
 67 71  2  0  0  0  0
 69 71  1  0  0  0  0
 69 72  1  0  0  0  0
 70 73  2  0  0  0  0
 72 75  2  0  0  0  0
 72 76  1  0  0  0  0
 73 74  1  0  0  0  0
 73 75  1  0  0  0  0
 76 77  1  0  0  0  0
 76 78  1  0  0  0  0
 79 81  1  0  0  0  0
 80 81  2  0  0  0  0
 81 82  1  0  0  0  0
 82 83  1  0  0  0  0
 82 84  2  0  0  0  0
 84 85  1  0  0  0  0
 84 86  1  0  0  0  0
 86 87  1  0  0  0  0
 86 89  2  0  0  0  0
 87 88  1  0  0  0  0
 87 91  2  0  0  0  0
 89 90  1  0  0  0  0
 89 93  1  0  0  0  0
 91 92  1  0  0  0  0
 91 94  1  0  0  0  0
 93 94  2  0  0  0  0
 93 97  1  0  0  0  0
 94 95  1  0  0  0  0
 95 96  1  0  0  0  0
 97 98  1  0  0  0  0
 98 99  1  0  0  0  0
 98100  1  0  0  0  0
 98101  1  0  0  0  0
M  BCL ATM C_TeTeTeTe H_S O_Te2Te2TeTe C_TeTeTeTe H_S C_TeTeTeTe H_S C_TeTeTeTe H_S O_Te2Te2TeTe H_S C_TeTeTeTe H_S H_S C_TeTeTeTe H_S H_S N_TrTrTrPi2 H_S C_TrTrTrPi O_Tr2Tr2TrPi C_TeTeTeTe H_S H_S C_TeTeTeTe H_S H_S N_TrTrTrPi2 H_S O_Tr2Tr2TrPi C_TrTrTrPi C_TeTeTeTe H_S H_S C_TeTeTeTe H_S H_S H_S C_TeTeTeTe C_TeTeTeTe H_S H_S H_S C_TeTeTeTe H_S O_Te2Te2TeTe H_S O_Tr2TrTrPi2 O_Tr2TrTrPi2 O_Tr2TrTrPi2 O_Te2Te2TeTe O_Tr2Tr2TrPi O_Te2Te2TeTe O_Tr2Tr2TrPi P_TeTeTeTePi P_TeTeTeTePi C_TeTeTeTe H_S H_S O_Tr2TrTrPi2 O_Tr2Tr2TrPi O_Te2Te2Te2Te P_TeTeTeTePi O_Te2Te2Te2Te N_TrTrTrPi2 C_TrTrTrPi C_TrTrTrPi H_S C_TrTrTrPi N_Tr2TrTrPi N_Tr2TrTrPi C_TrTrTrPi C_TrTrTrPi H_S N_Tr2TrTrPi N_TrTrTrPi2 H_S H_S S_Te2Te2TeTe O_Tr2Tr2TrPi C_TrTrTrPi C_TrTrTrPi H_S C_TrTrTrPi H_S C_TrTrTrPi C_TrTrTrPi H_S C_TrTrTrPi H_S C_TrTrTrPi H_S C_TrTrTrPi C_TrTrTrPi O_Te2Te2TeTe H_S O_Tr2TrTrPi2 C_TeTeTeTe H_S H_S H_S
M  BCL BND NonConjugatedSingleBond NonConjugatedSingleBondInRing NonConjugatedSingleBondInRing NonConjugatedSingleBond NonConjugatedSingleBondInRing NonConjugatedSingleBond NonConjugatedSingleBondInRing NonConjugatedSingleBond NonConjugatedSingleBond NonConjugatedSingleBondInRing NonConjugatedSingleBond NonConjugatedSingleBond NonConjugatedSingleBond NonConjugatedSingleBond NonConjugatedSingleBond NonConjugatedSingleBond NonConjugatedSingleBond NonConjugatedSingleBond NonConjugatedSingleBond NonConjugatedSingleBond NonConjugatedSingleBond NonConjugatedSingleBond AmideSingleBond ConjugatedDoubleBond NonConjugatedSingleBond NonConjugatedSingleBond NonConjugatedSingleBond NonConjugatedSingleBond NonConjugatedSingleBond NonConjugatedSingleBond NonConjugatedSingleBond NonConjugatedSingleBond AmideSingleBond ConjugatedDoubleBond NonConjugatedSingleBond NonConjugatedSingleBond NonConjugatedSingleBond NonConjugatedSingleBond NonConjugatedSingleBond NonConjugatedSingleBond NonConjugatedSingleBond NonConjugatedSingleBond NonConjugatedSingleBond NonConjugatedSingleBond NonConjugatedSingleBond NonConjugatedSingleBond NonConjugatedSingleBond NonConjugatedSingleBond NonConjugatedSingleBond NonConjugatedSingleBond NonConjugatedSingleBond ConjugatedSingleBond ConjugatedSingleBond ConjugatedSingleBond ConjugatedSingleBond NonConjugatedSingleBond ConjugatedSingleBond ConjugatedDoubleBond ConjugatedSingleBond ConjugatedDoubleBond NonConjugatedSingleBond NonConjugatedSingleBond ConjugatedSingleBond ConjugatedDoubleBond ConjugatedSingleBond ConjugatedSingleBond AromaticSingleBond AromaticSingleBond AromaticDoubleBond AromaticSingleBond NonConjugatedSingleBond AromaticDoubleBond AromaticSingleBond AromaticSingleBond AromaticDoubleBond AromaticDoubleBond ConjugatedSingleBond NonConjugatedSingleBond AromaticSingleBond NonConjugatedSingleBond NonConjugatedSingleBond ConjugatedSingleBond ConjugatedDoubleBond ConjugatedSingleBond NonConjugatedSingleBond ConjugatedDoubleBond NonConjugatedSingleBond ConjugatedSingleBond AromaticSingleBond AromaticDoubleBond NonConjugatedSingleBond AromaticDoubleBond NonConjugatedSingleBond AromaticSingleBond NonConjugatedSingleBond AromaticSingleBond AromaticDoubleBond ConjugatedSingleBond ConjugatedSingleBond NonConjugatedSingleBond NonConjugatedSingleBond NonConjugatedSingleBond NonConjugatedSingleBond NonConjugatedSingleBond
M  BCL CHI   1   R   4   R   6   R   8   S  44   S  55   S  56   R
M  BCL DBI - - - - - - - - - - E - - -
M  END
> <ConfClashScore>
0 

> <ConfOneFourInteractionScore>
-0.983549 

> <ConfScore>
0.0911464 

> <ConfScorePBest>
0.00634346 

> <ConfTolerance>
3.31106 

$$$$
L02.****
  PyMOL2.5          3D                             0

101104  0  0  0  0  0  0  0  0999 V2000
   15.2363   -4.3890   -5.5396 C   0  0  0  1  0  0  0  0  0  0  0  0
   14.8565   -3.6129   -4.9084 H   0  0  0  1  0  0  0  0  0  0  0  0
   14.4459   -4.5004   -6.7285 O   0  0  0  1  0  0  0  0  0  0  0  0
   15.1178   -5.7394   -4.8531 C   0  0  0  1  0  0  0  0  0  0  0  0
   15.9657   -5.9361   -4.2309 H   0  0  0  1  0  0  0  0  0  0  0  0
   14.2984   -5.8904   -7.0742 C   0  0  0  1  0  0  0  0  0  0  0  0
   14.6972   -6.0708   -8.0505 H   0  0  0  1  0  0  0  0  0  0  0  0
   15.0710   -6.6864   -6.0404 C   0  0  0  1  0  0  0  0  0  0  0  0
   14.5596   -7.5925   -5.7907 H   0  0  0  1  0  0  0  0  0  0  0  0
   13.9242   -5.8236   -4.0731 O   0  0  0  1  0  0  0  0  0  0  0  0
   13.7790   -4.9906   -3.6186 H   0  0  0  1  0  0  0  0  0  0  0  0
    9.6771   -7.9882   -1.3318 C   0  0  0  1  0  0  0  0  0  0  0  0
    9.4227   -8.2708   -0.3317 H   0  0  0  1  0  0  0  0  0  0  0  0
   10.2953   -7.1151   -1.3099 H   0  0  0  1  0  0  0  0  0  0  0  0
    8.4030   -7.6432   -2.0608 C   0  0  0  1  0  0  0  0  0  0  0  0
    8.6663   -7.1494   -2.9728 H   0  0  0  1  0  0  0  0  0  0  0  0
    7.8383   -6.9761   -1.4436 H   0  0  0  1  0  0  0  0  0  0  0  0
   10.4441   -9.0718   -1.9278 N   0  0  0  1  0  0  0  0  0  0  0  0
    9.9948   -9.7379   -2.4889 H   0  0  0  1  0  0  0  0  0  0  0  0
   11.7652   -9.1608   -1.7108 C   0  0  0  1  0  0  0  0  0  0  0  0
   12.3928   -8.4439   -0.9529 O   0  0  0  1  0  0  0  0  0  0  0  0
   13.4152  -11.0735   -1.6742 C   0  0  0  1  0  0  0  0  0  0  0  0
   12.8858  -11.5145   -0.8555 H   0  0  0  1  0  0  0  0  0  0  0  0
   14.1768  -10.4228   -1.2980 H   0  0  0  1  0  0  0  0  0  0  0  0
   12.4362  -10.2514   -2.5022 C   0  0  0  1  0  0  0  0  0  0  0  0
   12.9694   -9.8038   -3.3147 H   0  0  0  1  0  0  0  0  0  0  0  0
   11.6823  -10.9060   -2.8871 H   0  0  0  1  0  0  0  0  0  0  0  0
   14.0506  -12.1395   -2.4508 N   0  0  0  1  0  0  0  0  0  0  0  0
   13.5474  -12.9623   -2.6246 H   0  0  0  1  0  0  0  0  0  0  0  0
   16.0382  -11.0813   -2.6893 O   0  0  0  1  0  0  0  0  0  0  0  0
   15.2925  -12.0295   -2.9310 C   0  0  0  1  0  0  0  0  0  0  0  0
   13.8064  -13.0305   -5.2763 C   0  0  0  1  0  0  0  0  0  0  0  0
   13.3868  -13.2362   -4.3137 H   0  0  0  1  0  0  0  0  0  0  0  0
   13.4447  -13.7470   -5.9840 H   0  0  0  1  0  0  0  0  0  0  0  0
   15.8999  -11.7718   -5.7391 C   0  0  0  1  0  0  0  0  0  0  0  0
   15.3304  -11.4617   -6.5902 H   0  0  0  1  0  0  0  0  0  0  0  0
   16.9224  -11.9064   -6.0242 H   0  0  0  1  0  0  0  0  0  0  0  0
   15.8373  -11.0237   -4.9766 H   0  0  0  1  0  0  0  0  0  0  0  0
   15.3405  -13.0952   -5.2034 C   0  0  0  1  0  0  0  0  0  0  0  0
   15.9279  -14.2851   -5.9951 C   0  0  0  1  0  0  0  0  0  0  0  0
   16.8768  -14.0081   -6.4045 H   0  0  0  1  0  0  0  0  0  0  0  0
   15.2606  -14.5492   -6.7888 H   0  0  0  1  0  0  0  0  0  0  0  0
   16.0528  -15.1220   -5.3402 H   0  0  0  1  0  0  0  0  0  0  0  0
   15.7765  -13.2174   -3.7385 C   0  0  0  1  0  0  0  0  0  0  0  0
   15.3353  -14.1035   -3.3323 H   0  0  0  1  0  0  0  0  0  0  0  0
   17.1880  -13.3474   -3.7466 O   0  0  0  1  0  0  0  0  0  0  0  0
   17.5572  -12.7898   -4.4354 H   0  0  0  1  0  0  0  0  0  0  0  0
   13.4424  -11.6949   -5.6974 O   0  0  0  1  0  0  0  0  0  0  0  0
   11.9827   -9.9868   -6.8838 O   0  0  0  1  0  0  0  0  0  0  0  0
   12.7813   -7.7154   -7.2142 O   0  0  0  1  0  0  0  0  0  0  0  0
   11.6358  -12.4709   -7.1753 O   0  0  0  0  0  0  0  0  0  0  0  0
   11.0226  -11.2827   -5.0378 O   0  0  0  1  0  0  0  0  0  0  0  0
   10.6322   -8.1203   -5.9805 O   0  0  0  0  0  0  0  0  0  0  0  0
   12.9228   -8.6427   -4.9543 O   0  0  0  1  0  0  0  0  0  0  0  0
   11.9767  -11.3687   -6.1679 P   0  0  0  1  0  0  0  0  0  0  0  0
   12.0435   -8.6118   -6.1581 P   0  0  0  1  0  0  0  0  0  0  0  0
   12.8560   -6.2760   -7.0458 C   0  0  0  1  0  0  0  0  0  0  0  0
   12.3327   -5.7884   -7.8416 H   0  0  0  1  0  0  0  0  0  0  0  0
   12.4222   -5.9957   -6.1087 H   0  0  0  1  0  0  0  0  0  0  0  0
   16.4071   -6.9986   -6.5128 O   0  0  0  1  0  0  0  0  0  0  0  0
   17.0978   -7.5775   -4.0425 O   0  0  0  1  0  0  0  0  0  0  0  0
   18.9716   -7.1847   -5.7879 O   0  5  0  1  0  0  0  0  0  0  0  0
   17.4664   -7.6932   -5.4712 P   0  0  0  1  0  0  0  0  0  0  0  0
   17.4374   -9.2537   -5.9053 O   0  5  0  1  0  0  0  0  0  0  0  0
   16.6308   -4.1059   -5.8761 N   0  0  0  1  0  0  0  0  0  0  0  0
   17.6526   -3.8723   -4.9923 C   0  0  0  1  0  0  0  0  0  0  0  0
   17.1392   -3.8312   -7.1085 C   0  0  0  1  0  0  0  0  0  0  0  0
   16.5749   -3.9164   -7.9779 H   0  0  0  1  0  0  0  0  0  0  0  0
   18.7413   -3.4678   -5.7765 C   0  0  0  1  0  0  0  0  0  0  0  0
   17.6338   -4.0114   -3.6660 N   0  0  0  1  0  0  0  0  0  0  0  0
   18.3885   -3.4529   -7.1170 N   0  0  0  1  0  0  0  0  0  0  0  0
   19.9121   -3.1880   -5.0781 C   0  0  0  1  0  0  0  0  0  0  0  0
   18.8093   -3.7048   -3.1311 C   0  0  0  1  0  0  0  0  0  0  0  0
   18.8674   -3.7863   -2.0959 H   0  0  0  1  0  0  0  0  0  0  0  0
   19.9332   -3.3036   -3.7459 N   0  0  0  1  0  0  0  0  0  0  0  0
   21.1162   -2.7829   -5.6437 N   0  0  0  1  0  0  0  0  0  0  0  0
   21.9648   -3.0929   -5.2639 H   0  0  0  1  0  0  0  0  0  0  0  0
   21.1162   -2.1875   -6.4221 H   0  0  0  1  0  0  0  0  0  0  0  0
    7.3483   -9.0538   -2.4720 S   0  0  0  1  0  0  0  0  0  0  0  0
    9.2272   -9.3305   -4.2925 O   0  0  0  1  0  0  0  0  0  0  0  0
    8.1626   -9.7294   -3.9022 C   0  0  0  1  0  0  0  0  0  0  0  0
    7.4235  -10.8061   -4.5541 C   0  0  0  1  0  0  0  0  0  0  0  0
    7.8491  -11.1941   -5.4201 H   0  0  0  1  0  0  0  0  0  0  0  0
    6.2700  -11.3511   -4.1736 C   0  0  0  1  0  0  0  0  0  0  0  0
    5.8094  -10.9929   -3.3127 H   0  0  0  1  0  0  0  0  0  0  0  0
    5.6156  -12.4467   -4.9257 C   0  0  0  1  0  0  0  0  0  0  0  0
    6.1541  -12.8639   -6.1329 C   0  0  0  1  0  0  0  0  0  0  0  0
    7.0142  -12.4111   -6.5028 H   0  0  0  1  0  0  0  0  0  0  0  0
    4.4756  -13.0521   -4.4317 C   0  0  0  1  0  0  0  0  0  0  0  0
    4.0738  -12.7418   -3.5240 H   0  0  0  1  0  0  0  0  0  0  0  0
    5.5481  -13.8817   -6.8452 C   0  0  0  1  0  0  0  0  0  0  0  0
    5.9499  -14.1920   -7.7529 H   0  0  0  1  0  0  0  0  0  0  0  0
    3.8677  -14.0729   -5.1458 C   0  0  0  1  0  0  0  0  0  0  0  0
    4.4048  -14.4888   -6.3495 C   0  0  0  1  0  0  0  0  0  0  0  0
    3.7465  -15.4955   -6.9741 O   0  0  0  1  0  0  0  0  0  0  0  0
    3.8328  -15.3935   -7.9247 H   0  0  0  1  0  0  0  0  0  0  0  0
    2.7489  -14.7348   -4.7663 O   0  0  0  1  0  0  0  0  0  0  0  0
    2.0603  -14.2471   -3.6042 C   0  0  0  1  0  0  0  0  0  0  0  0
    1.6134  -15.0678   -3.0832 H   0  0  0  1  0  0  0  0  0  0  0  0
    1.2986  -13.5581   -3.9042 H   0  0  0  1  0  0  0  0  0  0  0  0
    2.7560  -13.7519   -2.9594 H   0  0  0  1  0  0  0  0  0  0  0  0
  1  2  1  0  0  0  0
  1  3  1  0  0  0  0
  1  4  1  0  0  0  0
  1 65  1  0  0  0  0
  3  6  1  0  0  0  0
  4  5  1  0  0  0  0
  4  8  1  0  0  0  0
  4 10  1  0  0  0  0
  6  7  1  0  0  0  0
  6  8  1  0  0  0  0
  6 57  1  0  0  0  0
  8  9  1  0  0  0  0
  8 60  1  0  0  0  0
 10 11  1  0  0  0  0
 12 13  1  0  0  0  0
 12 14  1  0  0  0  0
 12 15  1  0  0  0  0
 12 18  1  0  0  0  0
 15 16  1  0  0  0  0
 15 17  1  0  0  0  0
 15 79  1  0  0  0  0
 18 19  1  0  0  0  0
 18 20  1  0  0  0  0
 20 21  2  0  0  0  0
 20 25  1  0  0  0  0
 22 23  1  0  0  0  0
 22 24  1  0  0  0  0
 22 25  1  0  0  0  0
 22 28  1  0  0  0  0
 25 26  1  0  0  0  0
 25 27  1  0  0  0  0
 28 29  1  0  0  0  0
 28 31  1  0  0  0  0
 30 31  2  0  0  0  0
 31 44  1  0  0  0  0
 32 33  1  0  0  0  0
 32 34  1  0  0  0  0
 32 39  1  0  0  0  0
 32 48  1  0  0  0  0
 35 36  1  0  0  0  0
 35 37  1  0  0  0  0
 35 38  1  0  0  0  0
 35 39  1  0  0  0  0
 39 40  1  0  0  0  0
 39 44  1  0  0  0  0
 40 41  1  0  0  0  0
 40 42  1  0  0  0  0
 40 43  1  0  0  0  0
 44 45  1  0  0  0  0
 44 46  1  0  0  0  0
 46 47  1  0  0  0  0
 48 55  1  0  0  0  0
 49 55  1  0  0  0  0
 49 56  1  0  0  0  0
 50 56  1  0  0  0  0
 50 57  1  0  0  0  0
 51 55  1  0  0  0  0
 52 55  2  0  0  0  0
 53 56  1  0  0  0  0
 54 56  2  0  0  0  0
 57 58  1  0  0  0  0
 57 59  1  0  0  0  0
 60 63  1  0  0  0  0
 61 63  2  0  0  0  0
 62 63  1  0  0  0  0
 63 64  1  0  0  0  0
 65 66  1  0  0  0  0
 65 67  1  0  0  0  0
 66 69  2  0  0  0  0
 66 70  1  0  0  0  0
 67 68  1  0  0  0  0
 67 71  2  0  0  0  0
 69 71  1  0  0  0  0
 69 72  1  0  0  0  0
 70 73  2  0  0  0  0
 72 75  2  0  0  0  0
 72 76  1  0  0  0  0
 73 74  1  0  0  0  0
 73 75  1  0  0  0  0
 76 77  1  0  0  0  0
 76 78  1  0  0  0  0
 79 81  1  0  0  0  0
 80 81  2  0  0  0  0
 81 82  1  0  0  0  0
 82 83  1  0  0  0  0
 82 84  2  0  0  0  0
 84 85  1  0  0  0  0
 84 86  1  0  0  0  0
 86 87  1  0  0  0  0
 86 89  2  0  0  0  0
 87 88  1  0  0  0  0
 87 91  2  0  0  0  0
 89 90  1  0  0  0  0
 89 93  1  0  0  0  0
 91 92  1  0  0  0  0
 91 94  1  0  0  0  0
 93 94  2  0  0  0  0
 93 97  1  0  0  0  0
 94 95  1  0  0  0  0
 95 96  1  0  0  0  0
 97 98  1  0  0  0  0
 98 99  1  0  0  0  0
 98100  1  0  0  0  0
 98101  1  0  0  0  0
M  BCL ATM C_TeTeTeTe H_S O_Te2Te2TeTe C_TeTeTeTe H_S C_TeTeTeTe H_S C_TeTeTeTe H_S O_Te2Te2TeTe H_S C_TeTeTeTe H_S H_S C_TeTeTeTe H_S H_S N_TrTrTrPi2 H_S C_TrTrTrPi O_Tr2Tr2TrPi C_TeTeTeTe H_S H_S C_TeTeTeTe H_S H_S N_TrTrTrPi2 H_S O_Tr2Tr2TrPi C_TrTrTrPi C_TeTeTeTe H_S H_S C_TeTeTeTe H_S H_S H_S C_TeTeTeTe C_TeTeTeTe H_S H_S H_S C_TeTeTeTe H_S O_Te2Te2TeTe H_S O_Tr2TrTrPi2 O_Tr2TrTrPi2 O_Tr2TrTrPi2 O_Te2Te2TeTe O_Tr2Tr2TrPi O_Te2Te2TeTe O_Tr2Tr2TrPi P_TeTeTeTePi P_TeTeTeTePi C_TeTeTeTe H_S H_S O_Tr2TrTrPi2 O_Tr2Tr2TrPi O_Te2Te2Te2Te P_TeTeTeTePi O_Te2Te2Te2Te N_TrTrTrPi2 C_TrTrTrPi C_TrTrTrPi H_S C_TrTrTrPi N_Tr2TrTrPi N_Tr2TrTrPi C_TrTrTrPi C_TrTrTrPi H_S N_Tr2TrTrPi N_TrTrTrPi2 H_S H_S S_Te2Te2TeTe O_Tr2Tr2TrPi C_TrTrTrPi C_TrTrTrPi H_S C_TrTrTrPi H_S C_TrTrTrPi C_TrTrTrPi H_S C_TrTrTrPi H_S C_TrTrTrPi H_S C_TrTrTrPi C_TrTrTrPi O_Te2Te2TeTe H_S O_Tr2TrTrPi2 C_TeTeTeTe H_S H_S H_S
M  BCL BND NonConjugatedSingleBond NonConjugatedSingleBondInRing NonConjugatedSingleBondInRing NonConjugatedSingleBond NonConjugatedSingleBondInRing NonConjugatedSingleBond NonConjugatedSingleBondInRing NonConjugatedSingleBond NonConjugatedSingleBond NonConjugatedSingleBondInRing NonConjugatedSingleBond NonConjugatedSingleBond NonConjugatedSingleBond NonConjugatedSingleBond NonConjugatedSingleBond NonConjugatedSingleBond NonConjugatedSingleBond NonConjugatedSingleBond NonConjugatedSingleBond NonConjugatedSingleBond NonConjugatedSingleBond NonConjugatedSingleBond AmideSingleBond ConjugatedDoubleBond NonConjugatedSingleBond NonConjugatedSingleBond NonConjugatedSingleBond NonConjugatedSingleBond NonConjugatedSingleBond NonConjugatedSingleBond NonConjugatedSingleBond NonConjugatedSingleBond AmideSingleBond ConjugatedDoubleBond NonConjugatedSingleBond NonConjugatedSingleBond NonConjugatedSingleBond NonConjugatedSingleBond NonConjugatedSingleBond NonConjugatedSingleBond NonConjugatedSingleBond NonConjugatedSingleBond NonConjugatedSingleBond NonConjugatedSingleBond NonConjugatedSingleBond NonConjugatedSingleBond NonConjugatedSingleBond NonConjugatedSingleBond NonConjugatedSingleBond NonConjugatedSingleBond NonConjugatedSingleBond ConjugatedSingleBond ConjugatedSingleBond ConjugatedSingleBond ConjugatedSingleBond NonConjugatedSingleBond ConjugatedSingleBond ConjugatedDoubleBond ConjugatedSingleBond ConjugatedDoubleBond NonConjugatedSingleBond NonConjugatedSingleBond ConjugatedSingleBond ConjugatedDoubleBond ConjugatedSingleBond ConjugatedSingleBond AromaticSingleBond AromaticSingleBond AromaticDoubleBond AromaticSingleBond NonConjugatedSingleBond AromaticDoubleBond AromaticSingleBond AromaticSingleBond AromaticDoubleBond AromaticDoubleBond ConjugatedSingleBond NonConjugatedSingleBond AromaticSingleBond NonConjugatedSingleBond NonConjugatedSingleBond ConjugatedSingleBond ConjugatedDoubleBond ConjugatedSingleBond NonConjugatedSingleBond ConjugatedDoubleBond NonConjugatedSingleBond ConjugatedSingleBond AromaticSingleBond AromaticDoubleBond NonConjugatedSingleBond AromaticDoubleBond NonConjugatedSingleBond AromaticSingleBond NonConjugatedSingleBond AromaticSingleBond AromaticDoubleBond ConjugatedSingleBond ConjugatedSingleBond NonConjugatedSingleBond NonConjugatedSingleBond NonConjugatedSingleBond NonConjugatedSingleBond NonConjugatedSingleBond
M  BCL CHI   1   R   4   R   6   R   8   S  44   S  55   S  56   R
M  BCL DBI - - - - - - - - - - E - - -
M  END
> <ConfClashScore>
0 

> <ConfOneFourInteractionScore>
-0.968689 

> <ConfScore>
0.0936621 

> <ConfScorePBest>
0.00624046 

> <ConfTolerance>
3.53882 

$$$$
L02.****
  PyMOL2.5          3D                             0

101104  0  0  0  0  0  0  0  0999 V2000
   15.2931   -4.5389   -5.5952 C   0  0  0  1  0  0  0  0  0  0  0  0
   14.7020   -4.4993   -6.4862 H   0  0  0  1  0  0  0  0  0  0  0  0
   15.3761   -5.9006   -5.1123 O   0  0  0  1  0  0  0  0  0  0  0  0
   14.6378   -3.7267   -4.4980 C   0  0  0  1  0  0  0  0  0  0  0  0
   15.3047   -2.9695   -4.1419 H   0  0  0  1  0  0  0  0  0  0  0  0
   15.2912   -5.8393   -3.6800 C   0  0  0  1  0  0  0  0  0  0  0  0
   16.2497   -5.6265   -3.2547 H   0  0  0  1  0  0  0  0  0  0  0  0
   14.3302   -4.7235   -3.3998 C   0  0  0  1  0  0  0  0  0  0  0  0
   13.3175   -5.0634   -3.4616 H   0  0  0  1  0  0  0  0  0  0  0  0
   13.4359   -3.1183   -4.9741 O   0  0  0  1  0  0  0  0  0  0  0  0
   12.8614   -2.9194   -4.2311 H   0  0  0  1  0  0  0  0  0  0  0  0
    6.1639   -9.4362   -1.3986 C   0  0  0  1  0  0  0  0  0  0  0  0
    5.6809  -10.0154   -2.1575 H   0  0  0  1  0  0  0  0  0  0  0  0
    5.9280   -9.8403   -0.4364 H   0  0  0  1  0  0  0  0  0  0  0  0
    5.5918   -8.0355   -1.4589 C   0  0  0  1  0  0  0  0  0  0  0  0
    5.7447   -7.6480   -2.4445 H   0  0  0  1  0  0  0  0  0  0  0  0
    6.1117   -7.4251   -0.7505 H   0  0  0  1  0  0  0  0  0  0  0  0
    7.6088   -9.5707   -1.5923 N   0  0  0  1  0  0  0  0  0  0  0  0
    8.1218   -8.7881   -1.8835 H   0  0  0  1  0  0  0  0  0  0  0  0
    8.2766  -10.7668   -1.3781 C   0  0  0  1  0  0  0  0  0  0  0  0
    7.6510  -11.7110   -0.9315 O   0  0  0  1  0  0  0  0  0  0  0  0
   10.3702  -12.2266   -1.5220 C   0  0  0  1  0  0  0  0  0  0  0  0
   10.0482  -12.8593   -2.3226 H   0  0  0  1  0  0  0  0  0  0  0  0
   10.0393  -12.6341   -0.5896 H   0  0  0  1  0  0  0  0  0  0  0  0
    9.7430  -10.8540   -1.7036 C   0  0  0  1  0  0  0  0  0  0  0  0
   10.2633  -10.1669   -1.0696 H   0  0  0  1  0  0  0  0  0  0  0  0
    9.8720  -10.5648   -2.7257 H   0  0  0  1  0  0  0  0  0  0  0  0
   11.8334  -12.1797   -1.5205 N   0  0  0  1  0  0  0  0  0  0  0  0
   12.2587  -11.3032   -1.6273 H   0  0  0  1  0  0  0  0  0  0  0  0
   12.2076  -14.3786   -1.1859 O   0  0  0  1  0  0  0  0  0  0  0  0
   12.6326  -13.2416   -1.3846 C   0  0  0  1  0  0  0  0  0  0  0  0
   14.1047  -12.0751    0.8433 C   0  0  0  1  0  0  0  0  0  0  0  0
   14.6437  -12.0425    1.7670 H   0  0  0  1  0  0  0  0  0  0  0  0
   13.0863  -12.3426    1.0332 H   0  0  0  1  0  0  0  0  0  0  0  0
   14.5694  -14.5262    0.4366 C   0  0  0  1  0  0  0  0  0  0  0  0
   13.7397  -14.9918   -0.0531 H   0  0  0  1  0  0  0  0  0  0  0  0
   14.3862  -14.4889    1.4901 H   0  0  0  1  0  0  0  0  0  0  0  0
   15.4578  -15.0922    0.2484 H   0  0  0  1  0  0  0  0  0  0  0  0
   14.7478  -13.1015   -0.1016 C   0  0  0  1  0  0  0  0  0  0  0  0
   16.2421  -12.7721   -0.1957 C   0  0  0  1  0  0  0  0  0  0  0  0
   16.3695  -11.8256   -0.6783 H   0  0  0  1  0  0  0  0  0  0  0  0
   16.7394  -13.5310   -0.7628 H   0  0  0  1  0  0  0  0  0  0  0  0
   16.6604  -12.7297    0.7882 H   0  0  0  1  0  0  0  0  0  0  0  0
   14.1197  -12.9647   -1.4904 C   0  0  0  1  0  0  0  0  0  0  0  0
   14.2629  -11.9623   -1.8360 H   0  0  0  1  0  0  0  0  0  0  0  0
   14.7187  -13.8854   -2.3873 O   0  0  0  1  0  0  0  0  0  0  0  0
   15.6708  -13.7622   -2.3845 H   0  0  0  1  0  0  0  0  0  0  0  0
   14.1621  -10.7806    0.1920 O   0  0  0  1  0  0  0  0  0  0  0  0
   14.6570   -8.4638   -0.2673 O   0  0  0  1  0  0  0  0  0  0  0  0
   13.9203   -6.8136   -2.0046 O   0  0  0  1  0  0  0  0  0  0  0  0
   14.4805   -9.1852    2.0913 O   0  0  0  0  0  0  0  0  0  0  0  0
   16.4907   -9.8811    0.6548 O   0  0  0  1  0  0  0  0  0  0  0  0
   12.6699   -8.9836   -1.7133 O   0  0  0  0  0  0  0  0  0  0  0  0
   12.5934   -7.1240    0.0704 O   0  0  0  1  0  0  0  0  0  0  0  0
   15.0525   -9.5964    0.7120 P   0  0  0  1  0  0  0  0  0  0  0  0
   13.3318   -7.8778   -0.9641 P   0  0  0  1  0  0  0  0  0  0  0  0
   14.7759   -7.1278   -3.1284 C   0  0  0  1  0  0  0  0  0  0  0  0
   15.5929   -7.7383   -2.8048 H   0  0  0  1  0  0  0  0  0  0  0  0
   14.2167   -7.6474   -3.8781 H   0  0  0  1  0  0  0  0  0  0  0  0
   14.5660   -4.1522   -2.1030 O   0  0  0  1  0  0  0  0  0  0  0  0
   14.3338   -1.5964   -2.7687 O   0  0  0  1  0  0  0  0  0  0  0  0
   16.5107   -2.5890   -1.6905 O   0  5  0  1  0  0  0  0  0  0  0  0
   14.8951   -2.5728   -1.8085 P   0  0  0  1  0  0  0  0  0  0  0  0
   14.4789   -2.3959   -0.2529 O   0  5  0  1  0  0  0  0  0  0  0  0
   16.6336   -4.0203   -5.8745 N   0  0  0  1  0  0  0  0  0  0  0  0
   17.6550   -3.8343   -4.9790 C   0  0  0  1  0  0  0  0  0  0  0  0
   17.1573   -3.7297   -7.0968 C   0  0  0  1  0  0  0  0  0  0  0  0
   16.5970   -3.7796   -7.9715 H   0  0  0  1  0  0  0  0  0  0  0  0
   18.7590   -3.4396   -5.7465 C   0  0  0  1  0  0  0  0  0  0  0  0
   17.6234   -4.0043   -3.6565 N   0  0  0  1  0  0  0  0  0  0  0  0
   18.4159   -3.3837   -7.0884 N   0  0  0  1  0  0  0  0  0  0  0  0
   19.9319   -3.2068   -5.0343 C   0  0  0  1  0  0  0  0  0  0  0  0
   18.8027   -3.7409   -3.1071 C   0  0  0  1  0  0  0  0  0  0  0  0
   18.8516   -3.8484   -2.0738 H   0  0  0  1  0  0  0  0  0  0  0  0
   19.9408   -3.3545   -3.7051 N   0  0  0  1  0  0  0  0  0  0  0  0
   21.0784   -2.8276   -5.6812 N   0  0  0  1  0  0  0  0  0  0  0  0
   21.0845   -2.7411   -6.6573 H   0  0  0  1  0  0  0  0  0  0  0  0
   21.8925   -2.6429   -5.1678 H   0  0  0  1  0  0  0  0  0  0  0  0
    3.8236   -7.9715   -1.0842 S   0  0  0  1  0  0  0  0  0  0  0  0
    2.2280   -9.0479   -2.7659 O   0  0  0  1  0  0  0  0  0  0  0  0
    3.0912   -8.3434   -2.6590 C   0  0  0  1  0  0  0  0  0  0  0  0
    3.7688   -7.6153   -3.7250 C   0  0  0  1  0  0  0  0  0  0  0  0
    4.5452   -6.9810   -3.4485 H   0  0  0  1  0  0  0  0  0  0  0  0
    3.4785   -7.6928   -5.0231 C   0  0  0  1  0  0  0  0  0  0  0  0
    2.6994   -8.3319   -5.2802 H   0  0  0  1  0  0  0  0  0  0  0  0
    4.1315   -6.9789   -6.1431 C   0  0  0  1  0  0  0  0  0  0  0  0
    4.9712   -5.8972   -5.9279 C   0  0  0  1  0  0  0  0  0  0  0  0
    5.1596   -5.5700   -4.9589 H   0  0  0  1  0  0  0  0  0  0  0  0
    3.8854   -7.4171   -7.4306 C   0  0  0  1  0  0  0  0  0  0  0  0
    3.2586   -8.2311   -7.5918 H   0  0  0  1  0  0  0  0  0  0  0  0
    5.5580   -5.2535   -7.0010 C   0  0  0  1  0  0  0  0  0  0  0  0
    6.1848   -4.4394   -6.8397 H   0  0  0  1  0  0  0  0  0  0  0  0
    4.4738   -6.7716   -8.5070 C   0  0  0  1  0  0  0  0  0  0  0  0
    5.3110   -5.6931   -8.2923 C   0  0  0  1  0  0  0  0  0  0  0  0
    5.9246   -5.0172   -9.2940 O   0  0  0  1  0  0  0  0  0  0  0  0
    5.8498   -5.5167  -10.1104 H   0  0  0  1  0  0  0  0  0  0  0  0
    4.1551   -7.2859   -9.7185 O   0  0  0  1  0  0  0  0  0  0  0  0
    2.9118   -7.9970   -9.8231 C   0  0  0  1  0  0  0  0  0  0  0  0
    2.7866   -8.3521  -10.8246 H   0  0  0  1  0  0  0  0  0  0  0  0
    2.1040   -7.3411   -9.5739 H   0  0  0  1  0  0  0  0  0  0  0  0
    2.9185   -8.8276   -9.1486 H   0  0  0  1  0  0  0  0  0  0  0  0
  1  2  1  0  0  0  0
  1  3  1  0  0  0  0
  1  4  1  0  0  0  0
  1 65  1  0  0  0  0
  3  6  1  0  0  0  0
  4  5  1  0  0  0  0
  4  8  1  0  0  0  0
  4 10  1  0  0  0  0
  6  7  1  0  0  0  0
  6  8  1  0  0  0  0
  6 57  1  0  0  0  0
  8  9  1  0  0  0  0
  8 60  1  0  0  0  0
 10 11  1  0  0  0  0
 12 13  1  0  0  0  0
 12 14  1  0  0  0  0
 12 15  1  0  0  0  0
 12 18  1  0  0  0  0
 15 16  1  0  0  0  0
 15 17  1  0  0  0  0
 15 79  1  0  0  0  0
 18 19  1  0  0  0  0
 18 20  1  0  0  0  0
 20 21  2  0  0  0  0
 20 25  1  0  0  0  0
 22 23  1  0  0  0  0
 22 24  1  0  0  0  0
 22 25  1  0  0  0  0
 22 28  1  0  0  0  0
 25 26  1  0  0  0  0
 25 27  1  0  0  0  0
 28 29  1  0  0  0  0
 28 31  1  0  0  0  0
 30 31  2  0  0  0  0
 31 44  1  0  0  0  0
 32 33  1  0  0  0  0
 32 34  1  0  0  0  0
 32 39  1  0  0  0  0
 32 48  1  0  0  0  0
 35 36  1  0  0  0  0
 35 37  1  0  0  0  0
 35 38  1  0  0  0  0
 35 39  1  0  0  0  0
 39 40  1  0  0  0  0
 39 44  1  0  0  0  0
 40 41  1  0  0  0  0
 40 42  1  0  0  0  0
 40 43  1  0  0  0  0
 44 45  1  0  0  0  0
 44 46  1  0  0  0  0
 46 47  1  0  0  0  0
 48 55  1  0  0  0  0
 49 55  1  0  0  0  0
 49 56  1  0  0  0  0
 50 56  1  0  0  0  0
 50 57  1  0  0  0  0
 51 55  1  0  0  0  0
 52 55  2  0  0  0  0
 53 56  1  0  0  0  0
 54 56  2  0  0  0  0
 57 58  1  0  0  0  0
 57 59  1  0  0  0  0
 60 63  1  0  0  0  0
 61 63  2  0  0  0  0
 62 63  1  0  0  0  0
 63 64  1  0  0  0  0
 65 66  1  0  0  0  0
 65 67  1  0  0  0  0
 66 69  2  0  0  0  0
 66 70  1  0  0  0  0
 67 68  1  0  0  0  0
 67 71  2  0  0  0  0
 69 71  1  0  0  0  0
 69 72  1  0  0  0  0
 70 73  2  0  0  0  0
 72 75  2  0  0  0  0
 72 76  1  0  0  0  0
 73 74  1  0  0  0  0
 73 75  1  0  0  0  0
 76 77  1  0  0  0  0
 76 78  1  0  0  0  0
 79 81  1  0  0  0  0
 80 81  2  0  0  0  0
 81 82  1  0  0  0  0
 82 83  1  0  0  0  0
 82 84  2  0  0  0  0
 84 85  1  0  0  0  0
 84 86  1  0  0  0  0
 86 87  1  0  0  0  0
 86 89  2  0  0  0  0
 87 88  1  0  0  0  0
 87 91  2  0  0  0  0
 89 90  1  0  0  0  0
 89 93  1  0  0  0  0
 91 92  1  0  0  0  0
 91 94  1  0  0  0  0
 93 94  2  0  0  0  0
 93 97  1  0  0  0  0
 94 95  1  0  0  0  0
 95 96  1  0  0  0  0
 97 98  1  0  0  0  0
 98 99  1  0  0  0  0
 98100  1  0  0  0  0
 98101  1  0  0  0  0
M  BCL ATM C_TeTeTeTe H_S O_Te2Te2TeTe C_TeTeTeTe H_S C_TeTeTeTe H_S C_TeTeTeTe H_S O_Te2Te2TeTe H_S C_TeTeTeTe H_S H_S C_TeTeTeTe H_S H_S N_TrTrTrPi2 H_S C_TrTrTrPi O_Tr2Tr2TrPi C_TeTeTeTe H_S H_S C_TeTeTeTe H_S H_S N_TrTrTrPi2 H_S O_Tr2Tr2TrPi C_TrTrTrPi C_TeTeTeTe H_S H_S C_TeTeTeTe H_S H_S H_S C_TeTeTeTe C_TeTeTeTe H_S H_S H_S C_TeTeTeTe H_S O_Te2Te2TeTe H_S O_Tr2TrTrPi2 O_Tr2TrTrPi2 O_Tr2TrTrPi2 O_Te2Te2TeTe O_Tr2Tr2TrPi O_Te2Te2TeTe O_Tr2Tr2TrPi P_TeTeTeTePi P_TeTeTeTePi C_TeTeTeTe H_S H_S O_Tr2TrTrPi2 O_Tr2Tr2TrPi O_Te2Te2Te2Te P_TeTeTeTePi O_Te2Te2Te2Te N_TrTrTrPi2 C_TrTrTrPi C_TrTrTrPi H_S C_TrTrTrPi N_Tr2TrTrPi N_Tr2TrTrPi C_TrTrTrPi C_TrTrTrPi H_S N_Tr2TrTrPi N_TrTrTrPi2 H_S H_S S_Te2Te2TeTe O_Tr2Tr2TrPi C_TrTrTrPi C_TrTrTrPi H_S C_TrTrTrPi H_S C_TrTrTrPi C_TrTrTrPi H_S C_TrTrTrPi H_S C_TrTrTrPi H_S C_TrTrTrPi C_TrTrTrPi O_Te2Te2TeTe H_S O_Tr2TrTrPi2 C_TeTeTeTe H_S H_S H_S
M  BCL BND NonConjugatedSingleBond NonConjugatedSingleBondInRing NonConjugatedSingleBondInRing NonConjugatedSingleBond NonConjugatedSingleBondInRing NonConjugatedSingleBond NonConjugatedSingleBondInRing NonConjugatedSingleBond NonConjugatedSingleBond NonConjugatedSingleBondInRing NonConjugatedSingleBond NonConjugatedSingleBond NonConjugatedSingleBond NonConjugatedSingleBond NonConjugatedSingleBond NonConjugatedSingleBond NonConjugatedSingleBond NonConjugatedSingleBond NonConjugatedSingleBond NonConjugatedSingleBond NonConjugatedSingleBond NonConjugatedSingleBond AmideSingleBond ConjugatedDoubleBond NonConjugatedSingleBond NonConjugatedSingleBond NonConjugatedSingleBond NonConjugatedSingleBond NonConjugatedSingleBond NonConjugatedSingleBond NonConjugatedSingleBond NonConjugatedSingleBond AmideSingleBond ConjugatedDoubleBond NonConjugatedSingleBond NonConjugatedSingleBond NonConjugatedSingleBond NonConjugatedSingleBond NonConjugatedSingleBond NonConjugatedSingleBond NonConjugatedSingleBond NonConjugatedSingleBond NonConjugatedSingleBond NonConjugatedSingleBond NonConjugatedSingleBond NonConjugatedSingleBond NonConjugatedSingleBond NonConjugatedSingleBond NonConjugatedSingleBond NonConjugatedSingleBond NonConjugatedSingleBond ConjugatedSingleBond ConjugatedSingleBond ConjugatedSingleBond ConjugatedSingleBond NonConjugatedSingleBond ConjugatedSingleBond ConjugatedDoubleBond ConjugatedSingleBond ConjugatedDoubleBond NonConjugatedSingleBond NonConjugatedSingleBond ConjugatedSingleBond ConjugatedDoubleBond ConjugatedSingleBond ConjugatedSingleBond AromaticSingleBond AromaticSingleBond AromaticDoubleBond AromaticSingleBond NonConjugatedSingleBond AromaticDoubleBond AromaticSingleBond AromaticSingleBond AromaticDoubleBond AromaticDoubleBond ConjugatedSingleBond NonConjugatedSingleBond AromaticSingleBond NonConjugatedSingleBond NonConjugatedSingleBond ConjugatedSingleBond ConjugatedDoubleBond ConjugatedSingleBond NonConjugatedSingleBond ConjugatedDoubleBond NonConjugatedSingleBond ConjugatedSingleBond AromaticSingleBond AromaticDoubleBond NonConjugatedSingleBond AromaticDoubleBond NonConjugatedSingleBond AromaticSingleBond NonConjugatedSingleBond AromaticSingleBond AromaticDoubleBond ConjugatedSingleBond ConjugatedSingleBond NonConjugatedSingleBond NonConjugatedSingleBond NonConjugatedSingleBond NonConjugatedSingleBond NonConjugatedSingleBond
M  BCL CHI   1   R   4   R   6   R   8   S  44   S  55   S  56   R
M  BCL DBI - - - - - - - - - - E - - -
M  END
> <ConfClashScore>
0 

> <ConfOneFourInteractionScore>
-0.970049 

> <ConfScore>
0.0947786 

> <ConfScorePBest>
0.00613746 

> <ConfTolerance>
3.23862 

$$$$
L02.****
  PyMOL2.5          3D                             0

101104  0  0  0  0  0  0  0  0999 V2000
   15.2464   -4.5041   -5.5966 C   0  0  0  1  0  0  0  0  0  0  0  0
   14.8711   -5.0427   -6.4415 H   0  0  0  1  0  0  0  0  0  0  0  0
   15.1980   -5.3193   -4.4202 O   0  0  0  1  0  0  0  0  0  0  0  0
   14.3600   -3.3084   -5.2907 C   0  0  0  1  0  0  0  0  0  0  0  0
   14.6469   -2.4532   -5.8663 H   0  0  0  1  0  0  0  0  0  0  0  0
   14.8088   -4.5095   -3.2950 C   0  0  0  1  0  0  0  0  0  0  0  0
   15.5707   -4.5331   -2.5440 H   0  0  0  1  0  0  0  0  0  0  0  0
   14.6291   -3.0950   -3.8107 C   0  0  0  1  0  0  0  0  0  0  0  0
   13.8010   -2.6133   -3.3340 H   0  0  0  1  0  0  0  0  0  0  0  0
   12.9839   -3.6057   -5.5318 O   0  0  0  1  0  0  0  0  0  0  0  0
   12.7739   -3.4276   -6.4515 H   0  0  0  1  0  0  0  0  0  0  0  0
   14.5581   -3.0518  -15.4564 C   0  0  0  1  0  0  0  0  0  0  0  0
   13.5434   -2.7291  -15.5621 H   0  0  0  1  0  0  0  0  0  0  0  0
   15.1249   -2.7323  -16.3058 H   0  0  0  1  0  0  0  0  0  0  0  0
   14.5827   -4.5704  -15.3977 C   0  0  0  1  0  0  0  0  0  0  0  0
   15.6015   -4.8919  -15.3389 H   0  0  0  1  0  0  0  0  0  0  0  0
   14.1387   -4.9525  -16.2931 H   0  0  0  1  0  0  0  0  0  0  0  0
   15.1240   -2.4342  -14.2557 N   0  0  0  1  0  0  0  0  0  0  0  0
   16.0144   -2.0282  -14.3075 H   0  0  0  1  0  0  0  0  0  0  0  0
   14.4632   -2.4047  -13.0819 C   0  0  0  1  0  0  0  0  0  0  0  0
   13.3055   -2.7885  -12.9202 O   0  0  0  1  0  0  0  0  0  0  0  0
   15.0936   -2.6203  -10.6478 C   0  0  0  1  0  0  0  0  0  0  0  0
   14.0578   -2.6011  -10.3800 H   0  0  0  1  0  0  0  0  0  0  0  0
   15.6695   -2.1451   -9.8814 H   0  0  0  1  0  0  0  0  0  0  0  0
   15.2760   -1.8476  -11.9439 C   0  0  0  1  0  0  0  0  0  0  0  0
   14.9807   -0.8323  -11.7796 H   0  0  0  1  0  0  0  0  0  0  0  0
   16.3101   -1.8791  -12.2166 H   0  0  0  1  0  0  0  0  0  0  0  0
   15.5232   -4.0153  -10.7605 N   0  0  0  1  0  0  0  0  0  0  0  0
   16.3447   -4.2034  -11.2607 H   0  0  0  1  0  0  0  0  0  0  0  0
   13.8196   -4.8902   -9.5853 O   0  0  0  1  0  0  0  0  0  0  0  0
   14.8601   -5.0585  -10.2197 C   0  0  0  1  0  0  0  0  0  0  0  0
   15.7988   -6.4031   -7.9470 C   0  0  0  1  0  0  0  0  0  0  0  0
   15.3374   -5.4411   -8.0279 H   0  0  0  1  0  0  0  0  0  0  0  0
   16.5624   -6.3712   -7.1982 H   0  0  0  1  0  0  0  0  0  0  0  0
   16.9386   -8.2358   -9.3324 C   0  0  0  1  0  0  0  0  0  0  0  0
   16.7022   -8.7222   -8.4092 H   0  0  0  1  0  0  0  0  0  0  0  0
   17.9990   -8.2384   -9.4753 H   0  0  0  1  0  0  0  0  0  0  0  0
   16.4680   -8.7562  -10.1402 H   0  0  0  1  0  0  0  0  0  0  0  0
   16.4274   -6.7755   -9.2926 C   0  0  0  1  0  0  0  0  0  0  0  0
   17.6718   -5.8788   -9.4903 C   0  0  0  1  0  0  0  0  0  0  0  0
   18.2087   -6.1994  -10.3585 H   0  0  0  1  0  0  0  0  0  0  0  0
   18.3054   -5.9542   -8.6314 H   0  0  0  1  0  0  0  0  0  0  0  0
   17.3622   -4.8626   -9.6177 H   0  0  0  1  0  0  0  0  0  0  0  0
   15.4372   -6.4530  -10.4171 C   0  0  0  1  0  0  0  0  0  0  0  0
   15.9694   -6.4684  -11.3452 H   0  0  0  1  0  0  0  0  0  0  0  0
   14.4138   -7.4455  -10.4362 O   0  0  0  1  0  0  0  0  0  0  0  0
   14.8065   -8.3078  -10.5906 H   0  0  0  1  0  0  0  0  0  0  0  0
   14.8007   -7.3799   -7.5682 O   0  0  0  1  0  0  0  0  0  0  0  0
   13.4261   -6.5478   -5.6232 O   0  0  0  1  0  0  0  0  0  0  0  0
   12.5450   -5.0416   -3.7885 O   0  0  0  1  0  0  0  0  0  0  0  0
   13.7317   -8.9398   -5.8379 O   0  0  0  0  0  0  0  0  0  0  0  0
   15.7799   -7.4769   -5.3532 O   0  0  0  1  0  0  0  0  0  0  0  0
   11.0252   -6.4299   -5.2652 O   0  0  0  0  0  0  0  0  0  0  0  0
   12.5113   -7.4673   -3.4318 O   0  0  0  1  0  0  0  0  0  0  0  0
   14.4907   -7.6828   -6.0228 P   0  0  0  1  0  0  0  0  0  0  0  0
   12.3120   -6.4753   -4.5026 P   0  0  0  1  0  0  0  0  0  0  0  0
   13.5260   -5.0129   -2.7196 C   0  0  0  1  0  0  0  0  0  0  0  0
   13.1955   -4.3597   -1.9392 H   0  0  0  1  0  0  0  0  0  0  0  0
   13.6650   -5.9981   -2.3260 H   0  0  0  1  0  0  0  0  0  0  0  0
   15.8307   -2.3075   -3.6062 O   0  0  0  1  0  0  0  0  0  0  0  0
   14.4676   -0.2840   -2.7122 O   0  0  0  1  0  0  0  0  0  0  0  0
   16.7429    0.1469   -3.4453 O   0  5  0  1  0  0  0  0  0  0  0  0
   15.7952   -0.9382   -2.7044 P   0  0  0  1  0  0  0  0  0  0  0  0
   16.3856   -1.2052   -1.2196 O   0  5  0  1  0  0  0  0  0  0  0  0
   16.6205   -4.0697   -5.8641 N   0  0  0  1  0  0  0  0  0  0  0  0
   17.6484   -3.8498   -4.9840 C   0  0  0  1  0  0  0  0  0  0  0  0
   17.1273   -3.7992   -7.0981 C   0  0  0  1  0  0  0  0  0  0  0  0
   16.5586   -3.8762   -7.9654 H   0  0  0  1  0  0  0  0  0  0  0  0
   18.7388   -3.4570   -5.7718 C   0  0  0  1  0  0  0  0  0  0  0  0
   17.6331   -3.9908   -3.6578 N   0  0  0  1  0  0  0  0  0  0  0  0
   18.3809   -3.4357   -7.1109 N   0  0  0  1  0  0  0  0  0  0  0  0
   19.9156   -3.1923   -5.0776 C   0  0  0  1  0  0  0  0  0  0  0  0
   18.8143   -3.6990   -3.1271 C   0  0  0  1  0  0  0  0  0  0  0  0
   18.8755   -3.7828   -2.0923 H   0  0  0  1  0  0  0  0  0  0  0  0
   19.9404   -3.3103   -3.7456 N   0  0  0  1  0  0  0  0  0  0  0  0
   21.1222   -2.8006   -5.6473 N   0  0  0  1  0  0  0  0  0  0  0  0
   21.9687   -3.0431   -5.2172 H   0  0  0  1  0  0  0  0  0  0  0  0
   21.1260   -2.2822   -6.4789 H   0  0  0  1  0  0  0  0  0  0  0  0
   13.6851   -5.2432  -13.9789 S   0  0  0  1  0  0  0  0  0  0  0  0
   13.8445   -7.5422  -15.3085 O   0  0  0  1  0  0  0  0  0  0  0  0
   13.4643   -6.9890  -14.2982 C   0  0  0  1  0  0  0  0  0  0  0  0
   12.7737   -7.6354  -13.1865 C   0  0  0  1  0  0  0  0  0  0  0  0
   12.5969   -7.0181  -12.3684 H   0  0  0  1  0  0  0  0  0  0  0  0
   12.3324   -8.8834  -13.0454 C   0  0  0  1  0  0  0  0  0  0  0  0
   12.4766   -9.5545  -13.8267 H   0  0  0  1  0  0  0  0  0  0  0  0
   11.6445   -9.3557  -11.8215 C   0  0  0  1  0  0  0  0  0  0  0  0
   11.0386  -10.6025  -11.8157 C   0  0  0  1  0  0  0  0  0  0  0  0
   11.0724  -11.2010  -12.6655 H   0  0  0  1  0  0  0  0  0  0  0  0
   11.6041   -8.5627  -10.6903 C   0  0  0  1  0  0  0  0  0  0  0  0
   12.0621   -7.6290  -10.6933 H   0  0  0  1  0  0  0  0  0  0  0  0
   10.3895  -11.0503  -10.6805 C   0  0  0  1  0  0  0  0  0  0  0  0
    9.9315  -11.9840  -10.6775 H   0  0  0  1  0  0  0  0  0  0  0  0
   10.9532   -9.0116   -9.5518 C   0  0  0  1  0  0  0  0  0  0  0  0
   10.3491  -10.2547   -9.5461 C   0  0  0  1  0  0  0  0  0  0  0  0
    9.7418  -10.6115   -8.3882 O   0  0  0  1  0  0  0  0  0  0  0  0
   10.3438  -11.1418   -7.8609 H   0  0  0  1  0  0  0  0  0  0  0  0
   10.8439   -8.3238   -8.3903 O   0  0  0  1  0  0  0  0  0  0  0  0
   11.3593   -6.9835   -8.3704 C   0  0  0  1  0  0  0  0  0  0  0  0
   12.1299   -6.8862   -9.1064 H   0  0  0  1  0  0  0  0  0  0  0  0
   11.7623   -6.7710   -7.4023 H   0  0  0  1  0  0  0  0  0  0  0  0
   10.5698   -6.2948   -8.5878 H   0  0  0  1  0  0  0  0  0  0  0  0
  1  2  1  0  0  0  0
  1  3  1  0  0  0  0
  1  4  1  0  0  0  0
  1 65  1  0  0  0  0
  3  6  1  0  0  0  0
  4  5  1  0  0  0  0
  4  8  1  0  0  0  0
  4 10  1  0  0  0  0
  6  7  1  0  0  0  0
  6  8  1  0  0  0  0
  6 57  1  0  0  0  0
  8  9  1  0  0  0  0
  8 60  1  0  0  0  0
 10 11  1  0  0  0  0
 12 13  1  0  0  0  0
 12 14  1  0  0  0  0
 12 15  1  0  0  0  0
 12 18  1  0  0  0  0
 15 16  1  0  0  0  0
 15 17  1  0  0  0  0
 15 79  1  0  0  0  0
 18 19  1  0  0  0  0
 18 20  1  0  0  0  0
 20 21  2  0  0  0  0
 20 25  1  0  0  0  0
 22 23  1  0  0  0  0
 22 24  1  0  0  0  0
 22 25  1  0  0  0  0
 22 28  1  0  0  0  0
 25 26  1  0  0  0  0
 25 27  1  0  0  0  0
 28 29  1  0  0  0  0
 28 31  1  0  0  0  0
 30 31  2  0  0  0  0
 31 44  1  0  0  0  0
 32 33  1  0  0  0  0
 32 34  1  0  0  0  0
 32 39  1  0  0  0  0
 32 48  1  0  0  0  0
 35 36  1  0  0  0  0
 35 37  1  0  0  0  0
 35 38  1  0  0  0  0
 35 39  1  0  0  0  0
 39 40  1  0  0  0  0
 39 44  1  0  0  0  0
 40 41  1  0  0  0  0
 40 42  1  0  0  0  0
 40 43  1  0  0  0  0
 44 45  1  0  0  0  0
 44 46  1  0  0  0  0
 46 47  1  0  0  0  0
 48 55  1  0  0  0  0
 49 55  1  0  0  0  0
 49 56  1  0  0  0  0
 50 56  1  0  0  0  0
 50 57  1  0  0  0  0
 51 55  1  0  0  0  0
 52 55  2  0  0  0  0
 53 56  1  0  0  0  0
 54 56  2  0  0  0  0
 57 58  1  0  0  0  0
 57 59  1  0  0  0  0
 60 63  1  0  0  0  0
 61 63  2  0  0  0  0
 62 63  1  0  0  0  0
 63 64  1  0  0  0  0
 65 66  1  0  0  0  0
 65 67  1  0  0  0  0
 66 69  2  0  0  0  0
 66 70  1  0  0  0  0
 67 68  1  0  0  0  0
 67 71  2  0  0  0  0
 69 71  1  0  0  0  0
 69 72  1  0  0  0  0
 70 73  2  0  0  0  0
 72 75  2  0  0  0  0
 72 76  1  0  0  0  0
 73 74  1  0  0  0  0
 73 75  1  0  0  0  0
 76 77  1  0  0  0  0
 76 78  1  0  0  0  0
 79 81  1  0  0  0  0
 80 81  2  0  0  0  0
 81 82  1  0  0  0  0
 82 83  1  0  0  0  0
 82 84  2  0  0  0  0
 84 85  1  0  0  0  0
 84 86  1  0  0  0  0
 86 87  1  0  0  0  0
 86 89  2  0  0  0  0
 87 88  1  0  0  0  0
 87 91  2  0  0  0  0
 89 90  1  0  0  0  0
 89 93  1  0  0  0  0
 91 92  1  0  0  0  0
 91 94  1  0  0  0  0
 93 94  2  0  0  0  0
 93 97  1  0  0  0  0
 94 95  1  0  0  0  0
 95 96  1  0  0  0  0
 97 98  1  0  0  0  0
 98 99  1  0  0  0  0
 98100  1  0  0  0  0
 98101  1  0  0  0  0
M  BCL ATM C_TeTeTeTe H_S O_Te2Te2TeTe C_TeTeTeTe H_S C_TeTeTeTe H_S C_TeTeTeTe H_S O_Te2Te2TeTe H_S C_TeTeTeTe H_S H_S C_TeTeTeTe H_S H_S N_TrTrTrPi2 H_S C_TrTrTrPi O_Tr2Tr2TrPi C_TeTeTeTe H_S H_S C_TeTeTeTe H_S H_S N_TrTrTrPi2 H_S O_Tr2Tr2TrPi C_TrTrTrPi C_TeTeTeTe H_S H_S C_TeTeTeTe H_S H_S H_S C_TeTeTeTe C_TeTeTeTe H_S H_S H_S C_TeTeTeTe H_S O_Te2Te2TeTe H_S O_Tr2TrTrPi2 O_Tr2TrTrPi2 O_Tr2TrTrPi2 O_Te2Te2TeTe O_Tr2Tr2TrPi O_Te2Te2TeTe O_Tr2Tr2TrPi P_TeTeTeTePi P_TeTeTeTePi C_TeTeTeTe H_S H_S O_Tr2TrTrPi2 O_Tr2Tr2TrPi O_Te2Te2Te2Te P_TeTeTeTePi O_Te2Te2Te2Te N_TrTrTrPi2 C_TrTrTrPi C_TrTrTrPi H_S C_TrTrTrPi N_Tr2TrTrPi N_Tr2TrTrPi C_TrTrTrPi C_TrTrTrPi H_S N_Tr2TrTrPi N_TrTrTrPi2 H_S H_S S_Te2Te2TeTe O_Tr2Tr2TrPi C_TrTrTrPi C_TrTrTrPi H_S C_TrTrTrPi H_S C_TrTrTrPi C_TrTrTrPi H_S C_TrTrTrPi H_S C_TrTrTrPi H_S C_TrTrTrPi C_TrTrTrPi O_Te2Te2TeTe H_S O_Tr2TrTrPi2 C_TeTeTeTe H_S H_S H_S
M  BCL BND NonConjugatedSingleBond NonConjugatedSingleBondInRing NonConjugatedSingleBondInRing NonConjugatedSingleBond NonConjugatedSingleBondInRing NonConjugatedSingleBond NonConjugatedSingleBondInRing NonConjugatedSingleBond NonConjugatedSingleBond NonConjugatedSingleBondInRing NonConjugatedSingleBond NonConjugatedSingleBond NonConjugatedSingleBond NonConjugatedSingleBond NonConjugatedSingleBond NonConjugatedSingleBond NonConjugatedSingleBond NonConjugatedSingleBond NonConjugatedSingleBond NonConjugatedSingleBond NonConjugatedSingleBond NonConjugatedSingleBond AmideSingleBond ConjugatedDoubleBond NonConjugatedSingleBond NonConjugatedSingleBond NonConjugatedSingleBond NonConjugatedSingleBond NonConjugatedSingleBond NonConjugatedSingleBond NonConjugatedSingleBond NonConjugatedSingleBond AmideSingleBond ConjugatedDoubleBond NonConjugatedSingleBond NonConjugatedSingleBond NonConjugatedSingleBond NonConjugatedSingleBond NonConjugatedSingleBond NonConjugatedSingleBond NonConjugatedSingleBond NonConjugatedSingleBond NonConjugatedSingleBond NonConjugatedSingleBond NonConjugatedSingleBond NonConjugatedSingleBond NonConjugatedSingleBond NonConjugatedSingleBond NonConjugatedSingleBond NonConjugatedSingleBond NonConjugatedSingleBond ConjugatedSingleBond ConjugatedSingleBond ConjugatedSingleBond ConjugatedSingleBond NonConjugatedSingleBond ConjugatedSingleBond ConjugatedDoubleBond ConjugatedSingleBond ConjugatedDoubleBond NonConjugatedSingleBond NonConjugatedSingleBond ConjugatedSingleBond ConjugatedDoubleBond ConjugatedSingleBond ConjugatedSingleBond AromaticSingleBond AromaticSingleBond AromaticDoubleBond AromaticSingleBond NonConjugatedSingleBond AromaticDoubleBond AromaticSingleBond AromaticSingleBond AromaticDoubleBond AromaticDoubleBond ConjugatedSingleBond NonConjugatedSingleBond AromaticSingleBond NonConjugatedSingleBond NonConjugatedSingleBond ConjugatedSingleBond ConjugatedDoubleBond ConjugatedSingleBond NonConjugatedSingleBond ConjugatedDoubleBond NonConjugatedSingleBond ConjugatedSingleBond AromaticSingleBond AromaticDoubleBond NonConjugatedSingleBond AromaticDoubleBond NonConjugatedSingleBond AromaticSingleBond NonConjugatedSingleBond AromaticSingleBond AromaticDoubleBond ConjugatedSingleBond ConjugatedSingleBond NonConjugatedSingleBond NonConjugatedSingleBond NonConjugatedSingleBond NonConjugatedSingleBond NonConjugatedSingleBond
M  BCL CHI   1   R   4   R   6   R   8   S  44   S  55   S  56   R
M  BCL DBI - - - - - - - - - - E - - -
M  END
> <ConfClashScore>
0.000385461 

> <ConfOneFourInteractionScore>
-0.980008 

> <ConfScore>
0.0949172 

> <ConfScorePBest>
0.00603446 

> <ConfTolerance>
3.8954 

$$$$
L02.****
  PyMOL2.5          3D                             0

101104  0  0  0  0  0  0  0  0999 V2000
   15.2791   -4.5352   -5.5365 C   0  0  0  1  0  0  0  0  0  0  0  0
   14.7215   -4.6909   -6.4364 H   0  0  0  1  0  0  0  0  0  0  0  0
   15.4222   -5.7749   -4.8073 O   0  0  0  1  0  0  0  0  0  0  0  0
   14.5209   -3.6007   -4.5891 C   0  0  0  1  0  0  0  0  0  0  0  0
   15.1962   -2.9668   -4.0535 H   0  0  0  1  0  0  0  0  0  0  0  0
   14.8208   -5.7120   -3.5426 C   0  0  0  1  0  0  0  0  0  0  0  0
   15.5498   -5.5099   -2.7859 H   0  0  0  1  0  0  0  0  0  0  0  0
   13.8196   -4.5533   -3.6567 C   0  0  0  1  0  0  0  0  0  0  0  0
   12.8908   -4.8854   -4.0714 H   0  0  0  1  0  0  0  0  0  0  0  0
   13.5803   -2.7987   -5.3048 O   0  0  0  1  0  0  0  0  0  0  0  0
   14.0464   -2.2403   -5.9313 H   0  0  0  1  0  0  0  0  0  0  0  0
    8.5417  -12.7215    2.7790 C   0  0  0  1  0  0  0  0  0  0  0  0
    8.3812  -11.9320    3.4831 H   0  0  0  1  0  0  0  0  0  0  0  0
    7.6087  -12.9995    2.3352 H   0  0  0  1  0  0  0  0  0  0  0  0
    9.1535  -13.9123    3.4747 C   0  0  0  1  0  0  0  0  0  0  0  0
    8.4510  -14.2704    4.1980 H   0  0  0  1  0  0  0  0  0  0  0  0
   10.0426  -13.5848    3.9719 H   0  0  0  1  0  0  0  0  0  0  0  0
    9.4683  -12.2830    1.7477 N   0  0  0  1  0  0  0  0  0  0  0  0
    9.2125  -12.3416    0.8035 H   0  0  0  1  0  0  0  0  0  0  0  0
   10.6795  -11.7957    2.0880 C   0  0  0  1  0  0  0  0  0  0  0  0
   11.0674  -11.7186    3.2530 O   0  0  0  1  0  0  0  0  0  0  0  0
   12.9113  -10.7941    1.3345 C   0  0  0  1  0  0  0  0  0  0  0  0
   13.4610  -11.5661    1.8312 H   0  0  0  1  0  0  0  0  0  0  0  0
   12.7701   -9.9701    2.0023 H   0  0  0  1  0  0  0  0  0  0  0  0
   11.5490  -11.3418    0.9417 C   0  0  0  1  0  0  0  0  0  0  0  0
   11.0242  -10.5735    0.4134 H   0  0  0  1  0  0  0  0  0  0  0  0
   11.7042  -12.1789    0.2936 H   0  0  0  1  0  0  0  0  0  0  0  0
   13.6860  -10.3351    0.1802 N   0  0  0  1  0  0  0  0  0  0  0  0
   13.2827  -10.3879   -0.7114 H   0  0  0  1  0  0  0  0  0  0  0  0
   15.5093   -9.7753    1.3680 O   0  0  0  1  0  0  0  0  0  0  0  0
   14.9238   -9.8465    0.3000 C   0  0  0  1  0  0  0  0  0  0  0  0
   17.3843   -9.7773   -2.6390 C   0  0  0  1  0  0  0  0  0  0  0  0
   18.2917  -10.3087   -2.8367 H   0  0  0  1  0  0  0  0  0  0  0  0
   17.5687   -8.7245   -2.6895 H   0  0  0  1  0  0  0  0  0  0  0  0
   17.9256   -9.7030   -0.1943 C   0  0  0  1  0  0  0  0  0  0  0  0
   18.8030  -10.3072   -0.2939 H   0  0  0  1  0  0  0  0  0  0  0  0
   17.5188   -9.8243    0.7879 H   0  0  0  1  0  0  0  0  0  0  0  0
   18.1806   -8.6757   -0.3509 H   0  0  0  1  0  0  0  0  0  0  0  0
   16.8856  -10.1353   -1.2348 C   0  0  0  1  0  0  0  0  0  0  0  0
   16.6057  -11.6412   -1.1675 C   0  0  0  1  0  0  0  0  0  0  0  0
   16.2350  -11.8924   -0.1957 H   0  0  0  1  0  0  0  0  0  0  0  0
   17.5108  -12.1806   -1.3541 H   0  0  0  1  0  0  0  0  0  0  0  0
   15.8761  -11.9015   -1.9056 H   0  0  0  1  0  0  0  0  0  0  0  0
   15.5771   -9.3743   -0.9929 C   0  0  0  1  0  0  0  0  0  0  0  0
   15.8171   -8.3376   -0.8812 H   0  0  0  1  0  0  0  0  0  0  0  0
   14.6743   -9.5331   -2.0725 O   0  0  0  1  0  0  0  0  0  0  0  0
   14.7907  -10.4026   -2.4623 H   0  0  0  1  0  0  0  0  0  0  0  0
   16.3957  -10.1361   -3.6329 O   0  0  0  1  0  0  0  0  0  0  0  0
   15.4265   -9.6189   -5.8232 O   0  0  0  1  0  0  0  0  0  0  0  0
   14.7959   -8.0907   -3.8634 O   0  0  0  1  0  0  0  0  0  0  0  0
   17.7422   -8.9671   -5.4322 O   0  0  0  0  0  0  0  0  0  0  0  0
   17.1706  -11.4605   -5.6814 O   0  0  0  1  0  0  0  0  0  0  0  0
   13.8708   -7.7514   -6.2397 O   0  0  0  0  0  0  0  0  0  0  0  0
   13.1433   -9.6434   -4.7192 O   0  0  0  1  0  0  0  0  0  0  0  0
   16.8205  -10.1054   -5.1975 P   0  0  0  1  0  0  0  0  0  0  0  0
   14.1927   -8.7711   -5.2130 P   0  0  0  1  0  0  0  0  0  0  0  0
   14.1248   -6.9754   -3.2313 C   0  0  0  1  0  0  0  0  0  0  0  0
   13.1182   -6.9208   -3.5898 H   0  0  0  1  0  0  0  0  0  0  0  0
   14.1190   -7.1225   -2.1714 H   0  0  0  1  0  0  0  0  0  0  0  0
   13.5818   -3.9421   -2.3701 O   0  0  0  1  0  0  0  0  0  0  0  0
   15.1541   -1.9027   -2.3597 O   0  0  0  1  0  0  0  0  0  0  0  0
   13.1919   -1.9138   -0.6372 O   0  5  0  1  0  0  0  0  0  0  0  0
   13.7645   -2.3361   -2.0926 P   0  0  0  1  0  0  0  0  0  0  0  0
   12.8065   -1.7125   -3.2405 O   0  5  0  1  0  0  0  0  0  0  0  0
   16.5956   -3.9768   -5.8665 N   0  0  0  1  0  0  0  0  0  0  0  0
   17.6403   -3.8301   -4.9908 C   0  0  0  1  0  0  0  0  0  0  0  0
   17.0935   -3.6548   -7.0917 C   0  0  0  1  0  0  0  0  0  0  0  0
   16.5118   -3.6714   -7.9537 H   0  0  0  1  0  0  0  0  0  0  0  0
   18.7304   -3.4247   -5.7725 C   0  0  0  1  0  0  0  0  0  0  0  0
   17.6384   -4.0402   -3.6737 N   0  0  0  1  0  0  0  0  0  0  0  0
   18.3561   -3.3237   -7.1034 N   0  0  0  1  0  0  0  0  0  0  0  0
   19.9227   -3.2274   -5.0822 C   0  0  0  1  0  0  0  0  0  0  0  0
   18.8336   -3.8074   -3.1454 C   0  0  0  1  0  0  0  0  0  0  0  0
   18.9059   -3.9472   -2.1173 H   0  0  0  1  0  0  0  0  0  0  0  0
   19.9616   -3.4159   -3.7588 N   0  0  0  1  0  0  0  0  0  0  0  0
   21.1319   -2.8376   -5.6479 N   0  0  0  1  0  0  0  0  0  0  0  0
   21.5751   -2.0191   -5.3411 H   0  0  0  1  0  0  0  0  0  0  0  0
   21.5408   -3.3814   -6.3532 H   0  0  0  1  0  0  0  0  0  0  0  0
    9.5936  -15.2916    2.3908 S   0  0  0  1  0  0  0  0  0  0  0  0
   12.0473  -14.3611    2.6729 O   0  0  0  1  0  0  0  0  0  0  0  0
   11.3949  -15.2977    2.2737 C   0  0  0  1  0  0  0  0  0  0  0  0
   11.9365  -16.5095    1.6693 C   0  0  0  1  0  0  0  0  0  0  0  0
   12.9669  -16.6500    1.6715 H   0  0  0  1  0  0  0  0  0  0  0  0
   11.1656  -17.4440    1.1145 C   0  0  0  1  0  0  0  0  0  0  0  0
   10.1416  -17.2632    1.1342 H   0  0  0  1  0  0  0  0  0  0  0  0
   11.5916  -18.7095    0.4731 C   0  0  0  1  0  0  0  0  0  0  0  0
   10.6349  -19.6309    0.0766 C   0  0  0  1  0  0  0  0  0  0  0  0
    9.6256  -19.4297    0.2265 H   0  0  0  1  0  0  0  0  0  0  0  0
   12.9325  -18.9746    0.2689 C   0  0  0  1  0  0  0  0  0  0  0  0
   13.6501  -18.2815    0.5627 H   0  0  0  1  0  0  0  0  0  0  0  0
   11.0221  -20.8170   -0.5179 C   0  0  0  1  0  0  0  0  0  0  0  0
   10.3045  -21.5100   -0.8117 H   0  0  0  1  0  0  0  0  0  0  0  0
   13.3211  -20.1641   -0.3273 C   0  0  0  1  0  0  0  0  0  0  0  0
   12.3671  -21.0828   -0.7226 C   0  0  0  1  0  0  0  0  0  0  0  0
   12.7953  -22.2287   -1.3058 O   0  0  0  1  0  0  0  0  0  0  0  0
   12.8621  -22.0998   -2.2548 H   0  0  0  1  0  0  0  0  0  0  0  0
   14.6254  -20.5092   -0.4447 O   0  0  0  1  0  0  0  0  0  0  0  0
   15.6002  -19.4843   -0.1963 C   0  0  0  1  0  0  0  0  0  0  0  0
   16.4211  -19.6006   -0.8728 H   0  0  0  1  0  0  0  0  0  0  0  0
   15.9538  -19.5652    0.8104 H   0  0  0  1  0  0  0  0  0  0  0  0
   15.1522  -18.5235   -0.3414 H   0  0  0  1  0  0  0  0  0  0  0  0
  1  2  1  0  0  0  0
  1  3  1  0  0  0  0
  1  4  1  0  0  0  0
  1 65  1  0  0  0  0
  3  6  1  0  0  0  0
  4  5  1  0  0  0  0
  4  8  1  0  0  0  0
  4 10  1  0  0  0  0
  6  7  1  0  0  0  0
  6  8  1  0  0  0  0
  6 57  1  0  0  0  0
  8  9  1  0  0  0  0
  8 60  1  0  0  0  0
 10 11  1  0  0  0  0
 12 13  1  0  0  0  0
 12 14  1  0  0  0  0
 12 15  1  0  0  0  0
 12 18  1  0  0  0  0
 15 16  1  0  0  0  0
 15 17  1  0  0  0  0
 15 79  1  0  0  0  0
 18 19  1  0  0  0  0
 18 20  1  0  0  0  0
 20 21  2  0  0  0  0
 20 25  1  0  0  0  0
 22 23  1  0  0  0  0
 22 24  1  0  0  0  0
 22 25  1  0  0  0  0
 22 28  1  0  0  0  0
 25 26  1  0  0  0  0
 25 27  1  0  0  0  0
 28 29  1  0  0  0  0
 28 31  1  0  0  0  0
 30 31  2  0  0  0  0
 31 44  1  0  0  0  0
 32 33  1  0  0  0  0
 32 34  1  0  0  0  0
 32 39  1  0  0  0  0
 32 48  1  0  0  0  0
 35 36  1  0  0  0  0
 35 37  1  0  0  0  0
 35 38  1  0  0  0  0
 35 39  1  0  0  0  0
 39 40  1  0  0  0  0
 39 44  1  0  0  0  0
 40 41  1  0  0  0  0
 40 42  1  0  0  0  0
 40 43  1  0  0  0  0
 44 45  1  0  0  0  0
 44 46  1  0  0  0  0
 46 47  1  0  0  0  0
 48 55  1  0  0  0  0
 49 55  1  0  0  0  0
 49 56  1  0  0  0  0
 50 56  1  0  0  0  0
 50 57  1  0  0  0  0
 51 55  1  0  0  0  0
 52 55  2  0  0  0  0
 53 56  1  0  0  0  0
 54 56  2  0  0  0  0
 57 58  1  0  0  0  0
 57 59  1  0  0  0  0
 60 63  1  0  0  0  0
 61 63  2  0  0  0  0
 62 63  1  0  0  0  0
 63 64  1  0  0  0  0
 65 66  1  0  0  0  0
 65 67  1  0  0  0  0
 66 69  2  0  0  0  0
 66 70  1  0  0  0  0
 67 68  1  0  0  0  0
 67 71  2  0  0  0  0
 69 71  1  0  0  0  0
 69 72  1  0  0  0  0
 70 73  2  0  0  0  0
 72 75  2  0  0  0  0
 72 76  1  0  0  0  0
 73 74  1  0  0  0  0
 73 75  1  0  0  0  0
 76 77  1  0  0  0  0
 76 78  1  0  0  0  0
 79 81  1  0  0  0  0
 80 81  2  0  0  0  0
 81 82  1  0  0  0  0
 82 83  1  0  0  0  0
 82 84  2  0  0  0  0
 84 85  1  0  0  0  0
 84 86  1  0  0  0  0
 86 87  1  0  0  0  0
 86 89  2  0  0  0  0
 87 88  1  0  0  0  0
 87 91  2  0  0  0  0
 89 90  1  0  0  0  0
 89 93  1  0  0  0  0
 91 92  1  0  0  0  0
 91 94  1  0  0  0  0
 93 94  2  0  0  0  0
 93 97  1  0  0  0  0
 94 95  1  0  0  0  0
 95 96  1  0  0  0  0
 97 98  1  0  0  0  0
 98 99  1  0  0  0  0
 98100  1  0  0  0  0
 98101  1  0  0  0  0
M  BCL ATM C_TeTeTeTe H_S O_Te2Te2TeTe C_TeTeTeTe H_S C_TeTeTeTe H_S C_TeTeTeTe H_S O_Te2Te2TeTe H_S C_TeTeTeTe H_S H_S C_TeTeTeTe H_S H_S N_TrTrTrPi2 H_S C_TrTrTrPi O_Tr2Tr2TrPi C_TeTeTeTe H_S H_S C_TeTeTeTe H_S H_S N_TrTrTrPi2 H_S O_Tr2Tr2TrPi C_TrTrTrPi C_TeTeTeTe H_S H_S C_TeTeTeTe H_S H_S H_S C_TeTeTeTe C_TeTeTeTe H_S H_S H_S C_TeTeTeTe H_S O_Te2Te2TeTe H_S O_Tr2TrTrPi2 O_Tr2TrTrPi2 O_Tr2TrTrPi2 O_Te2Te2TeTe O_Tr2Tr2TrPi O_Te2Te2TeTe O_Tr2Tr2TrPi P_TeTeTeTePi P_TeTeTeTePi C_TeTeTeTe H_S H_S O_Tr2TrTrPi2 O_Tr2Tr2TrPi O_Te2Te2Te2Te P_TeTeTeTePi O_Te2Te2Te2Te N_TrTrTrPi2 C_TrTrTrPi C_TrTrTrPi H_S C_TrTrTrPi N_Tr2TrTrPi N_Tr2TrTrPi C_TrTrTrPi C_TrTrTrPi H_S N_Tr2TrTrPi N_TrTrTrPi2 H_S H_S S_Te2Te2TeTe O_Tr2Tr2TrPi C_TrTrTrPi C_TrTrTrPi H_S C_TrTrTrPi H_S C_TrTrTrPi C_TrTrTrPi H_S C_TrTrTrPi H_S C_TrTrTrPi H_S C_TrTrTrPi C_TrTrTrPi O_Te2Te2TeTe H_S O_Tr2TrTrPi2 C_TeTeTeTe H_S H_S H_S
M  BCL BND NonConjugatedSingleBond NonConjugatedSingleBondInRing NonConjugatedSingleBondInRing NonConjugatedSingleBond NonConjugatedSingleBondInRing NonConjugatedSingleBond NonConjugatedSingleBondInRing NonConjugatedSingleBond NonConjugatedSingleBond NonConjugatedSingleBondInRing NonConjugatedSingleBond NonConjugatedSingleBond NonConjugatedSingleBond NonConjugatedSingleBond NonConjugatedSingleBond NonConjugatedSingleBond NonConjugatedSingleBond NonConjugatedSingleBond NonConjugatedSingleBond NonConjugatedSingleBond NonConjugatedSingleBond NonConjugatedSingleBond AmideSingleBond ConjugatedDoubleBond NonConjugatedSingleBond NonConjugatedSingleBond NonConjugatedSingleBond NonConjugatedSingleBond NonConjugatedSingleBond NonConjugatedSingleBond NonConjugatedSingleBond NonConjugatedSingleBond AmideSingleBond ConjugatedDoubleBond NonConjugatedSingleBond NonConjugatedSingleBond NonConjugatedSingleBond NonConjugatedSingleBond NonConjugatedSingleBond NonConjugatedSingleBond NonConjugatedSingleBond NonConjugatedSingleBond NonConjugatedSingleBond NonConjugatedSingleBond NonConjugatedSingleBond NonConjugatedSingleBond NonConjugatedSingleBond NonConjugatedSingleBond NonConjugatedSingleBond NonConjugatedSingleBond NonConjugatedSingleBond ConjugatedSingleBond ConjugatedSingleBond ConjugatedSingleBond ConjugatedSingleBond NonConjugatedSingleBond ConjugatedSingleBond ConjugatedDoubleBond ConjugatedSingleBond ConjugatedDoubleBond NonConjugatedSingleBond NonConjugatedSingleBond ConjugatedSingleBond ConjugatedDoubleBond ConjugatedSingleBond ConjugatedSingleBond AromaticSingleBond AromaticSingleBond AromaticDoubleBond AromaticSingleBond NonConjugatedSingleBond AromaticDoubleBond AromaticSingleBond AromaticSingleBond AromaticDoubleBond AromaticDoubleBond ConjugatedSingleBond NonConjugatedSingleBond AromaticSingleBond NonConjugatedSingleBond NonConjugatedSingleBond ConjugatedSingleBond ConjugatedDoubleBond ConjugatedSingleBond NonConjugatedSingleBond ConjugatedDoubleBond NonConjugatedSingleBond ConjugatedSingleBond AromaticSingleBond AromaticDoubleBond NonConjugatedSingleBond AromaticDoubleBond NonConjugatedSingleBond AromaticSingleBond NonConjugatedSingleBond AromaticSingleBond AromaticDoubleBond ConjugatedSingleBond ConjugatedSingleBond NonConjugatedSingleBond NonConjugatedSingleBond NonConjugatedSingleBond NonConjugatedSingleBond NonConjugatedSingleBond
M  BCL CHI   1   R   4   R   6   R   8   S  44   S  55   S  56   R
M  BCL DBI - - - - - - - - - - E - - -
M  END
> <ConfClashScore>
0 

> <ConfOneFourInteractionScore>
-0.978526 

> <ConfScore>
0.0969096 

> <ConfScorePBest>
0.00593146 

> <ConfTolerance>
3.68689 

$$$$
L02.****
  PyMOL2.5          3D                             0

101104  0  0  0  0  0  0  0  0999 V2000
   15.2612   -4.4052   -5.5086 C   0  0  0  1  0  0  0  0  0  0  0  0
   15.2578   -5.3390   -4.9863 H   0  0  0  1  0  0  0  0  0  0  0  0
   14.6917   -3.3942   -4.7221 O   0  0  0  1  0  0  0  0  0  0  0  0
   14.3595   -4.4727   -6.7496 C   0  0  0  1  0  0  0  0  0  0  0  0
   14.6552   -3.7500   -7.4812 H   0  0  0  1  0  0  0  0  0  0  0  0
   13.3106   -3.1503   -5.0717 C   0  0  0  1  0  0  0  0  0  0  0  0
   13.1831   -2.1469   -5.4208 H   0  0  0  1  0  0  0  0  0  0  0  0
   12.9993   -4.1516   -6.1880 C   0  0  0  1  0  0  0  0  0  0  0  0
   12.5289   -5.0292   -5.7962 H   0  0  0  1  0  0  0  0  0  0  0  0
   14.3814   -5.7769   -7.3318 O   0  0  0  1  0  0  0  0  0  0  0  0
   13.5303   -5.9621   -7.7354 H   0  0  0  1  0  0  0  0  0  0  0  0
    5.3960   -8.4132    1.1427 C   0  0  0  1  0  0  0  0  0  0  0  0
    5.4206   -9.4708    0.9821 H   0  0  0  1  0  0  0  0  0  0  0  0
    5.5157   -8.2075    2.1859 H   0  0  0  1  0  0  0  0  0  0  0  0
    4.0539   -7.8876    0.6971 C   0  0  0  1  0  0  0  0  0  0  0  0
    3.2996   -8.2958    1.3368 H   0  0  0  1  0  0  0  0  0  0  0  0
    3.8805   -8.2077   -0.3091 H   0  0  0  1  0  0  0  0  0  0  0  0
    6.5087   -7.8020    0.4134 N   0  0  0  1  0  0  0  0  0  0  0  0
    6.3309   -7.2481   -0.3753 H   0  0  0  1  0  0  0  0  0  0  0  0
    7.7713   -7.9986    0.8226 C   0  0  0  1  0  0  0  0  0  0  0  0
    8.0432   -8.6183    1.8497 O   0  0  0  1  0  0  0  0  0  0  0  0
    9.6244   -6.2516    0.7261 C   0  0  0  1  0  0  0  0  0  0  0  0
   10.3491   -5.8460    0.0513 H   0  0  0  1  0  0  0  0  0  0  0  0
   10.1233   -6.6875    1.5663 H   0  0  0  1  0  0  0  0  0  0  0  0
    8.8473   -7.3323    0.0100 C   0  0  0  1  0  0  0  0  0  0  0  0
    8.3870   -6.8929   -0.8502 H   0  0  0  1  0  0  0  0  0  0  0  0
    9.5402   -8.0858   -0.3013 H   0  0  0  1  0  0  0  0  0  0  0  0
    8.7667   -5.1648    1.2020 N   0  0  0  1  0  0  0  0  0  0  0  0
    8.1531   -5.3181    1.9506 H   0  0  0  1  0  0  0  0  0  0  0  0
    9.6264   -3.6622   -0.2566 O   0  0  0  1  0  0  0  0  0  0  0  0
    8.8186   -3.9643    0.6178 C   0  0  0  1  0  0  0  0  0  0  0  0
    6.3614   -3.6265   -0.9038 C   0  0  0  1  0  0  0  0  0  0  0  0
    5.7013   -3.2618   -1.6628 H   0  0  0  1  0  0  0  0  0  0  0  0
    5.8148   -4.2429   -0.2210 H   0  0  0  1  0  0  0  0  0  0  0  0
    5.9289   -1.4496    0.3236 C   0  0  0  1  0  0  0  0  0  0  0  0
    6.1161   -0.4897   -0.1107 H   0  0  0  1  0  0  0  0  0  0  0  0
    5.9614   -1.3707    1.3902 H   0  0  0  1  0  0  0  0  0  0  0  0
    4.9629   -1.7957    0.0203 H   0  0  0  1  0  0  0  0  0  0  0  0
    6.9983   -2.4421   -0.1480 C   0  0  0  1  0  0  0  0  0  0  0  0
    7.9335   -1.7297   -1.1320 C   0  0  0  1  0  0  0  0  0  0  0  0
    7.3576   -1.3005   -1.9251 H   0  0  0  1  0  0  0  0  0  0  0  0
    8.6284   -2.4351   -1.5375 H   0  0  0  1  0  0  0  0  0  0  0  0
    8.4672   -0.9564   -0.6202 H   0  0  0  1  0  0  0  0  0  0  0  0
    7.8205   -2.9080    1.0595 C   0  0  0  1  0  0  0  0  0  0  0  0
    8.3482   -2.0715    1.4677 H   0  0  0  1  0  0  0  0  0  0  0  0
    6.9885   -3.5038    2.0403 O   0  0  0  1  0  0  0  0  0  0  0  0
    6.3970   -2.8410    2.4043 H   0  0  0  1  0  0  0  0  0  0  0  0
    7.4325   -4.3896   -1.5074 O   0  0  0  1  0  0  0  0  0  0  0  0
    9.2797   -4.6823   -3.2613 O   0  0  0  1  0  0  0  0  0  0  0  0
   11.0420   -3.2756   -4.2952 O   0  0  0  1  0  0  0  0  0  0  0  0
    6.8408   -5.3818   -3.6860 O   0  0  0  0  0  0  0  0  0  0  0  0
    7.6018   -2.9664   -3.5999 O   0  0  0  1  0  0  0  0  0  0  0  0
   11.1403   -5.6905   -4.5090 O   0  0  0  0  0  0  0  0  0  0  0  0
    9.3343   -4.3901   -5.7678 O   0  0  0  1  0  0  0  0  0  0  0  0
    7.7001   -4.3254   -3.1004 P   0  0  0  1  0  0  0  0  0  0  0  0
   10.1796   -4.5632   -4.5681 P   0  0  0  1  0  0  0  0  0  0  0  0
   12.4331   -3.3823   -3.9082 C   0  0  0  1  0  0  0  0  0  0  0  0
   12.6462   -2.6527   -3.1551 H   0  0  0  1  0  0  0  0  0  0  0  0
   12.6162   -4.3619   -3.5186 H   0  0  0  1  0  0  0  0  0  0  0  0
   12.1504   -3.5581   -7.1943 O   0  0  0  1  0  0  0  0  0  0  0  0
   10.4662   -3.6263   -9.1831 O   0  0  0  1  0  0  0  0  0  0  0  0
   10.8175   -5.6936   -7.5296 O   0  5  0  1  0  0  0  0  0  0  0  0
   11.3982   -4.4306   -8.3615 P   0  0  0  1  0  0  0  0  0  0  0  0
   12.5768   -5.0840   -9.2607 O   0  5  0  1  0  0  0  0  0  0  0  0
   16.6341   -4.0597   -5.8832 N   0  0  0  1  0  0  0  0  0  0  0  0
   17.6577   -3.8607   -4.9930 C   0  0  0  1  0  0  0  0  0  0  0  0
   17.1475   -3.7611   -7.1080 C   0  0  0  1  0  0  0  0  0  0  0  0
   16.5832   -3.8178   -7.9797 H   0  0  0  1  0  0  0  0  0  0  0  0
   18.7523   -3.4506   -5.7659 C   0  0  0  1  0  0  0  0  0  0  0  0
   17.6354   -4.0322   -3.6705 N   0  0  0  1  0  0  0  0  0  0  0  0
   18.4013   -3.3983   -7.1060 N   0  0  0  1  0  0  0  0  0  0  0  0
   19.9256   -3.2027   -5.0597 C   0  0  0  1  0  0  0  0  0  0  0  0
   18.8140   -3.7534   -3.1271 C   0  0  0  1  0  0  0  0  0  0  0  0
   18.8698   -3.8611   -2.0942 H   0  0  0  1  0  0  0  0  0  0  0  0
   19.9435   -3.3513   -3.7307 N   0  0  0  1  0  0  0  0  0  0  0  0
   21.0859   -2.8075   -5.6592 N   0  0  0  1  0  0  0  0  0  0  0  0
   21.8876   -2.6491   -5.1183 H   0  0  0  1  0  0  0  0  0  0  0  0
   21.1175   -2.6822   -6.6306 H   0  0  0  1  0  0  0  0  0  0  0  0
    3.9408   -6.0835    0.7537 S   0  0  0  1  0  0  0  0  0  0  0  0
    4.8382   -6.6046    3.1759 O   0  0  0  1  0  0  0  0  0  0  0  0
    4.4197   -5.7251    2.4458 C   0  0  0  1  0  0  0  0  0  0  0  0
    4.1726   -4.3460    2.8508 C   0  0  0  1  0  0  0  0  0  0  0  0
    3.8468   -3.6859    2.1162 H   0  0  0  1  0  0  0  0  0  0  0  0
    4.3285   -3.8594    4.0814 C   0  0  0  1  0  0  0  0  0  0  0  0
    4.6544   -4.5195    4.8160 H   0  0  0  1  0  0  0  0  0  0  0  0
    4.0774   -2.4583    4.4929 C   0  0  0  1  0  0  0  0  0  0  0  0
    3.6082   -1.5888    3.5205 C   0  0  0  1  0  0  0  0  0  0  0  0
    3.4439   -1.9313    2.5524 H   0  0  0  1  0  0  0  0  0  0  0  0
    4.2906   -2.0044    5.7808 C   0  0  0  1  0  0  0  0  0  0  0  0
    4.6388   -2.6576    6.5113 H   0  0  0  1  0  0  0  0  0  0  0  0
    3.3588   -0.2669    3.8375 C   0  0  0  1  0  0  0  0  0  0  0  0
    3.0106    0.3863    3.1070 H   0  0  0  1  0  0  0  0  0  0  0  0
    4.0405   -0.6786    6.0989 C   0  0  0  1  0  0  0  0  0  0  0  0
    3.5727    0.1882    5.1293 C   0  0  0  1  0  0  0  0  0  0  0  0
    3.3158    1.4875    5.4168 O   0  0  0  1  0  0  0  0  0  0  0  0
    3.9079    2.0504    4.9127 H   0  0  0  1  0  0  0  0  0  0  0  0
    4.2897   -0.3506    7.3816 O   0  0  0  1  0  0  0  0  0  0  0  0
    3.5413    0.7825    7.8802 C   0  0  0  1  0  0  0  0  0  0  0  0
    2.4946    0.6071    7.7440 H   0  0  0  1  0  0  0  0  0  0  0  0
    3.8279    1.6629    7.3438 H   0  0  0  1  0  0  0  0  0  0  0  0
    3.7479    0.9157    8.9216 H   0  0  0  1  0  0  0  0  0  0  0  0
  1  2  1  0  0  0  0
  1  3  1  0  0  0  0
  1  4  1  0  0  0  0
  1 65  1  0  0  0  0
  3  6  1  0  0  0  0
  4  5  1  0  0  0  0
  4  8  1  0  0  0  0
  4 10  1  0  0  0  0
  6  7  1  0  0  0  0
  6  8  1  0  0  0  0
  6 57  1  0  0  0  0
  8  9  1  0  0  0  0
  8 60  1  0  0  0  0
 10 11  1  0  0  0  0
 12 13  1  0  0  0  0
 12 14  1  0  0  0  0
 12 15  1  0  0  0  0
 12 18  1  0  0  0  0
 15 16  1  0  0  0  0
 15 17  1  0  0  0  0
 15 79  1  0  0  0  0
 18 19  1  0  0  0  0
 18 20  1  0  0  0  0
 20 21  2  0  0  0  0
 20 25  1  0  0  0  0
 22 23  1  0  0  0  0
 22 24  1  0  0  0  0
 22 25  1  0  0  0  0
 22 28  1  0  0  0  0
 25 26  1  0  0  0  0
 25 27  1  0  0  0  0
 28 29  1  0  0  0  0
 28 31  1  0  0  0  0
 30 31  2  0  0  0  0
 31 44  1  0  0  0  0
 32 33  1  0  0  0  0
 32 34  1  0  0  0  0
 32 39  1  0  0  0  0
 32 48  1  0  0  0  0
 35 36  1  0  0  0  0
 35 37  1  0  0  0  0
 35 38  1  0  0  0  0
 35 39  1  0  0  0  0
 39 40  1  0  0  0  0
 39 44  1  0  0  0  0
 40 41  1  0  0  0  0
 40 42  1  0  0  0  0
 40 43  1  0  0  0  0
 44 45  1  0  0  0  0
 44 46  1  0  0  0  0
 46 47  1  0  0  0  0
 48 55  1  0  0  0  0
 49 55  1  0  0  0  0
 49 56  1  0  0  0  0
 50 56  1  0  0  0  0
 50 57  1  0  0  0  0
 51 55  1  0  0  0  0
 52 55  2  0  0  0  0
 53 56  1  0  0  0  0
 54 56  2  0  0  0  0
 57 58  1  0  0  0  0
 57 59  1  0  0  0  0
 60 63  1  0  0  0  0
 61 63  2  0  0  0  0
 62 63  1  0  0  0  0
 63 64  1  0  0  0  0
 65 66  1  0  0  0  0
 65 67  1  0  0  0  0
 66 69  2  0  0  0  0
 66 70  1  0  0  0  0
 67 68  1  0  0  0  0
 67 71  2  0  0  0  0
 69 71  1  0  0  0  0
 69 72  1  0  0  0  0
 70 73  2  0  0  0  0
 72 75  2  0  0  0  0
 72 76  1  0  0  0  0
 73 74  1  0  0  0  0
 73 75  1  0  0  0  0
 76 77  1  0  0  0  0
 76 78  1  0  0  0  0
 79 81  1  0  0  0  0
 80 81  2  0  0  0  0
 81 82  1  0  0  0  0
 82 83  1  0  0  0  0
 82 84  2  0  0  0  0
 84 85  1  0  0  0  0
 84 86  1  0  0  0  0
 86 87  1  0  0  0  0
 86 89  2  0  0  0  0
 87 88  1  0  0  0  0
 87 91  2  0  0  0  0
 89 90  1  0  0  0  0
 89 93  1  0  0  0  0
 91 92  1  0  0  0  0
 91 94  1  0  0  0  0
 93 94  2  0  0  0  0
 93 97  1  0  0  0  0
 94 95  1  0  0  0  0
 95 96  1  0  0  0  0
 97 98  1  0  0  0  0
 98 99  1  0  0  0  0
 98100  1  0  0  0  0
 98101  1  0  0  0  0
M  BCL ATM C_TeTeTeTe H_S O_Te2Te2TeTe C_TeTeTeTe H_S C_TeTeTeTe H_S C_TeTeTeTe H_S O_Te2Te2TeTe H_S C_TeTeTeTe H_S H_S C_TeTeTeTe H_S H_S N_TrTrTrPi2 H_S C_TrTrTrPi O_Tr2Tr2TrPi C_TeTeTeTe H_S H_S C_TeTeTeTe H_S H_S N_TrTrTrPi2 H_S O_Tr2Tr2TrPi C_TrTrTrPi C_TeTeTeTe H_S H_S C_TeTeTeTe H_S H_S H_S C_TeTeTeTe C_TeTeTeTe H_S H_S H_S C_TeTeTeTe H_S O_Te2Te2TeTe H_S O_Tr2TrTrPi2 O_Tr2TrTrPi2 O_Tr2TrTrPi2 O_Te2Te2TeTe O_Tr2Tr2TrPi O_Te2Te2TeTe O_Tr2Tr2TrPi P_TeTeTeTePi P_TeTeTeTePi C_TeTeTeTe H_S H_S O_Tr2TrTrPi2 O_Tr2Tr2TrPi O_Te2Te2Te2Te P_TeTeTeTePi O_Te2Te2Te2Te N_TrTrTrPi2 C_TrTrTrPi C_TrTrTrPi H_S C_TrTrTrPi N_Tr2TrTrPi N_Tr2TrTrPi C_TrTrTrPi C_TrTrTrPi H_S N_Tr2TrTrPi N_TrTrTrPi2 H_S H_S S_Te2Te2TeTe O_Tr2Tr2TrPi C_TrTrTrPi C_TrTrTrPi H_S C_TrTrTrPi H_S C_TrTrTrPi C_TrTrTrPi H_S C_TrTrTrPi H_S C_TrTrTrPi H_S C_TrTrTrPi C_TrTrTrPi O_Te2Te2TeTe H_S O_Tr2TrTrPi2 C_TeTeTeTe H_S H_S H_S
M  BCL BND NonConjugatedSingleBond NonConjugatedSingleBondInRing NonConjugatedSingleBondInRing NonConjugatedSingleBond NonConjugatedSingleBondInRing NonConjugatedSingleBond NonConjugatedSingleBondInRing NonConjugatedSingleBond NonConjugatedSingleBond NonConjugatedSingleBondInRing NonConjugatedSingleBond NonConjugatedSingleBond NonConjugatedSingleBond NonConjugatedSingleBond NonConjugatedSingleBond NonConjugatedSingleBond NonConjugatedSingleBond NonConjugatedSingleBond NonConjugatedSingleBond NonConjugatedSingleBond NonConjugatedSingleBond NonConjugatedSingleBond AmideSingleBond ConjugatedDoubleBond NonConjugatedSingleBond NonConjugatedSingleBond NonConjugatedSingleBond NonConjugatedSingleBond NonConjugatedSingleBond NonConjugatedSingleBond NonConjugatedSingleBond NonConjugatedSingleBond AmideSingleBond ConjugatedDoubleBond NonConjugatedSingleBond NonConjugatedSingleBond NonConjugatedSingleBond NonConjugatedSingleBond NonConjugatedSingleBond NonConjugatedSingleBond NonConjugatedSingleBond NonConjugatedSingleBond NonConjugatedSingleBond NonConjugatedSingleBond NonConjugatedSingleBond NonConjugatedSingleBond NonConjugatedSingleBond NonConjugatedSingleBond NonConjugatedSingleBond NonConjugatedSingleBond NonConjugatedSingleBond ConjugatedSingleBond ConjugatedSingleBond ConjugatedSingleBond ConjugatedSingleBond NonConjugatedSingleBond ConjugatedSingleBond ConjugatedDoubleBond ConjugatedSingleBond ConjugatedDoubleBond NonConjugatedSingleBond NonConjugatedSingleBond ConjugatedSingleBond ConjugatedDoubleBond ConjugatedSingleBond ConjugatedSingleBond AromaticSingleBond AromaticSingleBond AromaticDoubleBond AromaticSingleBond NonConjugatedSingleBond AromaticDoubleBond AromaticSingleBond AromaticSingleBond AromaticDoubleBond AromaticDoubleBond ConjugatedSingleBond NonConjugatedSingleBond AromaticSingleBond NonConjugatedSingleBond NonConjugatedSingleBond ConjugatedSingleBond ConjugatedDoubleBond ConjugatedSingleBond NonConjugatedSingleBond ConjugatedDoubleBond NonConjugatedSingleBond ConjugatedSingleBond AromaticSingleBond AromaticDoubleBond NonConjugatedSingleBond AromaticDoubleBond NonConjugatedSingleBond AromaticSingleBond NonConjugatedSingleBond AromaticSingleBond AromaticDoubleBond ConjugatedSingleBond ConjugatedSingleBond NonConjugatedSingleBond NonConjugatedSingleBond NonConjugatedSingleBond NonConjugatedSingleBond NonConjugatedSingleBond
M  BCL CHI   1   R   4   R   6   R   8   S  44   S  55   S  56   R
M  BCL DBI - - - - - - - - - - E - - -
M  END
> <ConfClashScore>
0 

> <ConfOneFourInteractionScore>
-0.982993 

> <ConfScore>
0.0993207 

> <ConfScorePBest>
0.00582846 

> <ConfTolerance>
3.79382 

$$$$
L02.****
  PyMOL2.5          3D                             0

101104  0  0  0  0  0  0  0  0999 V2000
   15.2849   -4.5401   -5.5873 C   0  0  0  1  0  0  0  0  0  0  0  0
   14.9924   -5.2211   -6.3591 H   0  0  0  1  0  0  0  0  0  0  0  0
   15.2599   -5.1932   -4.2982 O   0  0  0  1  0  0  0  0  0  0  0  0
   14.2768   -3.3928   -5.4724 C   0  0  0  1  0  0  0  0  0  0  0  0
   14.7675   -2.4737   -5.2289 H   0  0  0  1  0  0  0  0  0  0  0  0
   14.3408   -4.5953   -3.4249 C   0  0  0  1  0  0  0  0  0  0  0  0
   14.8353   -3.9198   -2.7585 H   0  0  0  1  0  0  0  0  0  0  0  0
   13.3767   -3.8385   -4.3499 C   0  0  0  1  0  0  0  0  0  0  0  0
   12.6017   -4.4826   -4.7095 H   0  0  0  1  0  0  0  0  0  0  0  0
   13.5413   -3.2335   -6.6864 O   0  0  0  1  0  0  0  0  0  0  0  0
   13.5672   -4.0525   -7.1866 H   0  0  0  1  0  0  0  0  0  0  0  0
   21.9505   -4.7382   -0.6911 C   0  0  0  1  0  0  0  0  0  0  0  0
   22.3975   -4.6494   -1.6592 H   0  0  0  1  0  0  0  0  0  0  0  0
   22.6692   -4.4821    0.0590 H   0  0  0  1  0  0  0  0  0  0  0  0
   21.5224   -6.1818   -0.4829 C   0  0  0  1  0  0  0  0  0  0  0  0
   21.1720   -6.2908    0.5222 H   0  0  0  1  0  0  0  0  0  0  0  0
   22.3723   -6.8137   -0.6354 H   0  0  0  1  0  0  0  0  0  0  0  0
   20.8284   -3.8018   -0.6048 N   0  0  0  1  0  0  0  0  0  0  0  0
   20.3532   -3.5561   -1.4259 H   0  0  0  1  0  0  0  0  0  0  0  0
   20.4298   -3.2706    0.5545 C   0  0  0  1  0  0  0  0  0  0  0  0
   21.0471   -3.3932    1.6116 O   0  0  0  1  0  0  0  0  0  0  0  0
   18.7081   -1.9365    1.8344 C   0  0  0  1  0  0  0  0  0  0  0  0
   19.3449   -1.1500    2.1819 H   0  0  0  1  0  0  0  0  0  0  0  0
   18.7388   -2.7527    2.5256 H   0  0  0  1  0  0  0  0  0  0  0  0
   19.1954   -2.4129    0.4723 C   0  0  0  1  0  0  0  0  0  0  0  0
   18.4153   -2.9821    0.0114 H   0  0  0  1  0  0  0  0  0  0  0  0
   19.4156   -1.5560   -0.1295 H   0  0  0  1  0  0  0  0  0  0  0  0
   17.3350   -1.4384    1.7357 N   0  0  0  1  0  0  0  0  0  0  0  0
   17.2075   -0.5225    1.4113 H   0  0  0  1  0  0  0  0  0  0  0  0
   16.2889   -3.2464    2.5875 O   0  0  0  1  0  0  0  0  0  0  0  0
   16.2427   -2.1384    2.0546 C   0  0  0  1  0  0  0  0  0  0  0  0
   13.4949   -3.4035    2.4305 C   0  0  0  1  0  0  0  0  0  0  0  0
   12.4850   -3.4955    2.0891 H   0  0  0  1  0  0  0  0  0  0  0  0
   13.6218   -3.9722    3.3280 H   0  0  0  1  0  0  0  0  0  0  0  0
   14.3668   -1.7826    4.1230 C   0  0  0  1  0  0  0  0  0  0  0  0
   13.6334   -2.1299    4.8205 H   0  0  0  1  0  0  0  0  0  0  0  0
   14.5857   -0.7537    4.3187 H   0  0  0  1  0  0  0  0  0  0  0  0
   15.2595   -2.3635    4.2258 H   0  0  0  1  0  0  0  0  0  0  0  0
   13.8249   -1.9271    2.6959 C   0  0  0  1  0  0  0  0  0  0  0  0
   12.5818   -1.0392    2.5173 C   0  0  0  1  0  0  0  0  0  0  0  0
   12.0559   -0.9698    3.4466 H   0  0  0  1  0  0  0  0  0  0  0  0
   11.9406   -1.4686    1.7761 H   0  0  0  1  0  0  0  0  0  0  0  0
   12.8840   -0.0614    2.2050 H   0  0  0  1  0  0  0  0  0  0  0  0
   14.9180   -1.4818    1.7182 C   0  0  0  1  0  0  0  0  0  0  0  0
   14.6302   -1.7859    0.7335 H   0  0  0  1  0  0  0  0  0  0  0  0
   14.9661   -0.0526    1.7834 O   0  0  0  1  0  0  0  0  0  0  0  0
   14.4532    0.2514    2.5358 H   0  0  0  1  0  0  0  0  0  0  0  0
   14.4049   -3.8809    1.4118 O   0  0  0  1  0  0  0  0  0  0  0  0
   12.8425   -5.6393    0.7162 O   0  0  0  1  0  0  0  0  0  0  0  0
   12.6974   -4.9440   -1.7474 O   0  0  0  1  0  0  0  0  0  0  0  0
   15.1278   -5.5782   -0.3089 O   0  0  0  0  0  0  0  0  0  0  0  0
   14.8253   -6.1744    2.1434 O   0  0  0  1  0  0  0  0  0  0  0  0
   11.8207   -7.1525   -1.0969 O   0  0  0  0  0  0  0  0  0  0  0  0
   10.6303   -5.0717   -0.2100 O   0  0  0  1  0  0  0  0  0  0  0  0
   14.4019   -5.3915    0.9712 P   0  0  0  1  0  0  0  0  0  0  0  0
   11.8973   -5.7498   -0.5932 P   0  0  0  1  0  0  0  0  0  0  0  0
   13.6115   -5.6310   -2.6341 C   0  0  0  1  0  0  0  0  0  0  0  0
   14.3069   -6.2102   -2.0632 H   0  0  0  1  0  0  0  0  0  0  0  0
   13.0661   -6.2748   -3.2922 H   0  0  0  1  0  0  0  0  0  0  0  0
   12.7849   -2.7008   -3.6708 O   0  0  0  1  0  0  0  0  0  0  0  0
   10.3075   -3.1898   -4.4463 O   0  0  0  1  0  0  0  0  0  0  0  0
   10.8803   -1.0610   -3.1821 O   0  5  0  1  0  0  0  0  0  0  0  0
   11.1724   -2.6425   -3.3773 P   0  0  0  1  0  0  0  0  0  0  0  0
   11.0107   -3.3720   -1.9399 O   0  5  0  1  0  0  0  0  0  0  0  0
   16.6235   -4.0212   -5.8748 N   0  0  0  1  0  0  0  0  0  0  0  0
   17.6502   -3.8348   -4.9855 C   0  0  0  1  0  0  0  0  0  0  0  0
   17.1398   -3.7306   -7.1003 C   0  0  0  1  0  0  0  0  0  0  0  0
   16.5742   -3.7807   -7.9715 H   0  0  0  1  0  0  0  0  0  0  0  0
   18.7496   -3.4400   -5.7597 C   0  0  0  1  0  0  0  0  0  0  0  0
   17.6268   -4.0047   -3.6628 N   0  0  0  1  0  0  0  0  0  0  0  0
   18.3983   -3.3844   -7.0995 N   0  0  0  1  0  0  0  0  0  0  0  0
   19.9266   -3.2069   -5.0546 C   0  0  0  1  0  0  0  0  0  0  0  0
   18.8093   -3.7410   -3.1206 C   0  0  0  1  0  0  0  0  0  0  0  0
   18.8645   -3.8483   -2.0876 H   0  0  0  1  0  0  0  0  0  0  0  0
   19.9436   -3.3544   -3.7255 N   0  0  0  1  0  0  0  0  0  0  0  0
   21.0962   -2.8261   -5.6578 N   0  0  0  1  0  0  0  0  0  0  0  0
   21.1285   -2.7008   -6.6292 H   0  0  0  1  0  0  0  0  0  0  0  0
   21.9007   -2.6789   -5.1178 H   0  0  0  1  0  0  0  0  0  0  0  0
   20.2080   -6.7047   -1.6097 S   0  0  0  1  0  0  0  0  0  0  0  0
   22.3335   -7.2137   -3.0847 O   0  0  0  1  0  0  0  0  0  0  0  0
   21.1258   -7.2470   -3.0340 C   0  0  0  1  0  0  0  0  0  0  0  0
   20.2919   -7.7329   -4.1291 C   0  0  0  1  0  0  0  0  0  0  0  0
   19.2735   -7.8056   -3.9311 H   0  0  0  1  0  0  0  0  0  0  0  0
   20.6678   -8.0845   -5.3181 C   0  0  0  1  0  0  0  0  0  0  0  0
   21.6862   -8.0119   -5.5161 H   0  0  0  1  0  0  0  0  0  0  0  0
   19.8434   -8.5648   -6.4008 C   0  0  0  1  0  0  0  0  0  0  0  0
   20.3742   -8.8573   -7.6474 C   0  0  0  1  0  0  0  0  0  0  0  0
   21.3925   -8.7360   -7.8204 H   0  0  0  1  0  0  0  0  0  0  0  0
   18.4910   -8.7311   -6.1694 C   0  0  0  1  0  0  0  0  0  0  0  0
   18.0934   -8.5154   -5.2329 H   0  0  0  1  0  0  0  0  0  0  0  0
   19.5503   -9.3102   -8.6606 C   0  0  0  1  0  0  0  0  0  0  0  0
   19.9479   -9.5258   -9.5970 H   0  0  0  1  0  0  0  0  0  0  0  0
   17.6645   -9.1853   -7.1853 C   0  0  0  1  0  0  0  0  0  0  0  0
   18.1939   -9.4769   -8.4283 C   0  0  0  1  0  0  0  0  0  0  0  0
   17.4075   -9.9273   -9.4360 O   0  0  0  1  0  0  0  0  0  0  0  0
   17.5398  -10.8715   -9.5482 H   0  0  0  1  0  0  0  0  0  0  0  0
   16.3288   -9.3814   -7.0787 O   0  0  0  1  0  0  0  0  0  0  0  0
   15.7053   -8.9948   -5.8441 C   0  0  0  1  0  0  0  0  0  0  0  0
   15.8489   -9.7647   -5.1150 H   0  0  0  1  0  0  0  0  0  0  0  0
   14.6578   -8.8471   -6.0048 H   0  0  0  1  0  0  0  0  0  0  0  0
   16.1446   -8.0847   -5.4927 H   0  0  0  1  0  0  0  0  0  0  0  0
  1  2  1  0  0  0  0
  1  3  1  0  0  0  0
  1  4  1  0  0  0  0
  1 65  1  0  0  0  0
  3  6  1  0  0  0  0
  4  5  1  0  0  0  0
  4  8  1  0  0  0  0
  4 10  1  0  0  0  0
  6  7  1  0  0  0  0
  6  8  1  0  0  0  0
  6 57  1  0  0  0  0
  8  9  1  0  0  0  0
  8 60  1  0  0  0  0
 10 11  1  0  0  0  0
 12 13  1  0  0  0  0
 12 14  1  0  0  0  0
 12 15  1  0  0  0  0
 12 18  1  0  0  0  0
 15 16  1  0  0  0  0
 15 17  1  0  0  0  0
 15 79  1  0  0  0  0
 18 19  1  0  0  0  0
 18 20  1  0  0  0  0
 20 21  2  0  0  0  0
 20 25  1  0  0  0  0
 22 23  1  0  0  0  0
 22 24  1  0  0  0  0
 22 25  1  0  0  0  0
 22 28  1  0  0  0  0
 25 26  1  0  0  0  0
 25 27  1  0  0  0  0
 28 29  1  0  0  0  0
 28 31  1  0  0  0  0
 30 31  2  0  0  0  0
 31 44  1  0  0  0  0
 32 33  1  0  0  0  0
 32 34  1  0  0  0  0
 32 39  1  0  0  0  0
 32 48  1  0  0  0  0
 35 36  1  0  0  0  0
 35 37  1  0  0  0  0
 35 38  1  0  0  0  0
 35 39  1  0  0  0  0
 39 40  1  0  0  0  0
 39 44  1  0  0  0  0
 40 41  1  0  0  0  0
 40 42  1  0  0  0  0
 40 43  1  0  0  0  0
 44 45  1  0  0  0  0
 44 46  1  0  0  0  0
 46 47  1  0  0  0  0
 48 55  1  0  0  0  0
 49 55  1  0  0  0  0
 49 56  1  0  0  0  0
 50 56  1  0  0  0  0
 50 57  1  0  0  0  0
 51 55  1  0  0  0  0
 52 55  2  0  0  0  0
 53 56  1  0  0  0  0
 54 56  2  0  0  0  0
 57 58  1  0  0  0  0
 57 59  1  0  0  0  0
 60 63  1  0  0  0  0
 61 63  2  0  0  0  0
 62 63  1  0  0  0  0
 63 64  1  0  0  0  0
 65 66  1  0  0  0  0
 65 67  1  0  0  0  0
 66 69  2  0  0  0  0
 66 70  1  0  0  0  0
 67 68  1  0  0  0  0
 67 71  2  0  0  0  0
 69 71  1  0  0  0  0
 69 72  1  0  0  0  0
 70 73  2  0  0  0  0
 72 75  2  0  0  0  0
 72 76  1  0  0  0  0
 73 74  1  0  0  0  0
 73 75  1  0  0  0  0
 76 77  1  0  0  0  0
 76 78  1  0  0  0  0
 79 81  1  0  0  0  0
 80 81  2  0  0  0  0
 81 82  1  0  0  0  0
 82 83  1  0  0  0  0
 82 84  2  0  0  0  0
 84 85  1  0  0  0  0
 84 86  1  0  0  0  0
 86 87  1  0  0  0  0
 86 89  2  0  0  0  0
 87 88  1  0  0  0  0
 87 91  2  0  0  0  0
 89 90  1  0  0  0  0
 89 93  1  0  0  0  0
 91 92  1  0  0  0  0
 91 94  1  0  0  0  0
 93 94  2  0  0  0  0
 93 97  1  0  0  0  0
 94 95  1  0  0  0  0
 95 96  1  0  0  0  0
 97 98  1  0  0  0  0
 98 99  1  0  0  0  0
 98100  1  0  0  0  0
 98101  1  0  0  0  0
M  BCL ATM C_TeTeTeTe H_S O_Te2Te2TeTe C_TeTeTeTe H_S C_TeTeTeTe H_S C_TeTeTeTe H_S O_Te2Te2TeTe H_S C_TeTeTeTe H_S H_S C_TeTeTeTe H_S H_S N_TrTrTrPi2 H_S C_TrTrTrPi O_Tr2Tr2TrPi C_TeTeTeTe H_S H_S C_TeTeTeTe H_S H_S N_TrTrTrPi2 H_S O_Tr2Tr2TrPi C_TrTrTrPi C_TeTeTeTe H_S H_S C_TeTeTeTe H_S H_S H_S C_TeTeTeTe C_TeTeTeTe H_S H_S H_S C_TeTeTeTe H_S O_Te2Te2TeTe H_S O_Tr2TrTrPi2 O_Tr2TrTrPi2 O_Tr2TrTrPi2 O_Te2Te2TeTe O_Tr2Tr2TrPi O_Te2Te2TeTe O_Tr2Tr2TrPi P_TeTeTeTePi P_TeTeTeTePi C_TeTeTeTe H_S H_S O_Tr2TrTrPi2 O_Tr2Tr2TrPi O_Te2Te2Te2Te P_TeTeTeTePi O_Te2Te2Te2Te N_TrTrTrPi2 C_TrTrTrPi C_TrTrTrPi H_S C_TrTrTrPi N_Tr2TrTrPi N_Tr2TrTrPi C_TrTrTrPi C_TrTrTrPi H_S N_Tr2TrTrPi N_TrTrTrPi2 H_S H_S S_Te2Te2TeTe O_Tr2Tr2TrPi C_TrTrTrPi C_TrTrTrPi H_S C_TrTrTrPi H_S C_TrTrTrPi C_TrTrTrPi H_S C_TrTrTrPi H_S C_TrTrTrPi H_S C_TrTrTrPi C_TrTrTrPi O_Te2Te2TeTe H_S O_Tr2TrTrPi2 C_TeTeTeTe H_S H_S H_S
M  BCL BND NonConjugatedSingleBond NonConjugatedSingleBondInRing NonConjugatedSingleBondInRing NonConjugatedSingleBond NonConjugatedSingleBondInRing NonConjugatedSingleBond NonConjugatedSingleBondInRing NonConjugatedSingleBond NonConjugatedSingleBond NonConjugatedSingleBondInRing NonConjugatedSingleBond NonConjugatedSingleBond NonConjugatedSingleBond NonConjugatedSingleBond NonConjugatedSingleBond NonConjugatedSingleBond NonConjugatedSingleBond NonConjugatedSingleBond NonConjugatedSingleBond NonConjugatedSingleBond NonConjugatedSingleBond NonConjugatedSingleBond AmideSingleBond ConjugatedDoubleBond NonConjugatedSingleBond NonConjugatedSingleBond NonConjugatedSingleBond NonConjugatedSingleBond NonConjugatedSingleBond NonConjugatedSingleBond NonConjugatedSingleBond NonConjugatedSingleBond AmideSingleBond ConjugatedDoubleBond NonConjugatedSingleBond NonConjugatedSingleBond NonConjugatedSingleBond NonConjugatedSingleBond NonConjugatedSingleBond NonConjugatedSingleBond NonConjugatedSingleBond NonConjugatedSingleBond NonConjugatedSingleBond NonConjugatedSingleBond NonConjugatedSingleBond NonConjugatedSingleBond NonConjugatedSingleBond NonConjugatedSingleBond NonConjugatedSingleBond NonConjugatedSingleBond NonConjugatedSingleBond ConjugatedSingleBond ConjugatedSingleBond ConjugatedSingleBond ConjugatedSingleBond NonConjugatedSingleBond ConjugatedSingleBond ConjugatedDoubleBond ConjugatedSingleBond ConjugatedDoubleBond NonConjugatedSingleBond NonConjugatedSingleBond ConjugatedSingleBond ConjugatedDoubleBond ConjugatedSingleBond ConjugatedSingleBond AromaticSingleBond AromaticSingleBond AromaticDoubleBond AromaticSingleBond NonConjugatedSingleBond AromaticDoubleBond AromaticSingleBond AromaticSingleBond AromaticDoubleBond AromaticDoubleBond ConjugatedSingleBond NonConjugatedSingleBond AromaticSingleBond NonConjugatedSingleBond NonConjugatedSingleBond ConjugatedSingleBond ConjugatedDoubleBond ConjugatedSingleBond NonConjugatedSingleBond ConjugatedDoubleBond NonConjugatedSingleBond ConjugatedSingleBond AromaticSingleBond AromaticDoubleBond NonConjugatedSingleBond AromaticDoubleBond NonConjugatedSingleBond AromaticSingleBond NonConjugatedSingleBond AromaticSingleBond AromaticDoubleBond ConjugatedSingleBond ConjugatedSingleBond NonConjugatedSingleBond NonConjugatedSingleBond NonConjugatedSingleBond NonConjugatedSingleBond NonConjugatedSingleBond
M  BCL CHI   1   R   4   R   6   R   8   S  44   S  55   S  56   R
M  BCL DBI - - - - - - - - - - E - - -
M  END
> <ConfClashScore>
0.00109875 

> <ConfOneFourInteractionScore>
-0.979872 

> <ConfScore>
0.0996866 

> <ConfScorePBest>
0.00572546 

> <ConfTolerance>
3.15176 

$$$$
L02.****
  PyMOL2.5          3D                             0

101104  0  0  0  0  0  0  0  0999 V2000
   15.2777   -4.4731   -5.5181 C   0  0  0  1  0  0  0  0  0  0  0  0
   15.3314   -5.4026   -4.9908 H   0  0  0  1  0  0  0  0  0  0  0  0
   14.6068   -3.4584   -4.7106 O   0  0  0  1  0  0  0  0  0  0  0  0
   14.4097   -4.6050   -6.7485 C   0  0  0  1  0  0  0  0  0  0  0  0
   14.9892   -4.9115   -7.5941 H   0  0  0  1  0  0  0  0  0  0  0  0
   13.8076   -2.6375   -5.5147 C   0  0  0  1  0  0  0  0  0  0  0  0
   14.1836   -1.6359   -5.4981 H   0  0  0  1  0  0  0  0  0  0  0  0
   13.8543   -3.1886   -6.9487 C   0  0  0  1  0  0  0  0  0  0  0  0
   12.8771   -3.2155   -7.3835 H   0  0  0  1  0  0  0  0  0  0  0  0
   13.3534   -5.5412   -6.5298 O   0  0  0  1  0  0  0  0  0  0  0  0
   12.7946   -5.5817   -7.3094 H   0  0  0  1  0  0  0  0  0  0  0  0
   -0.6279    1.2916   -5.3481 C   0  0  0  1  0  0  0  0  0  0  0  0
   -0.3088    0.3365   -4.9865 H   0  0  0  1  0  0  0  0  0  0  0  0
   -1.5434    1.5677   -4.8680 H   0  0  0  1  0  0  0  0  0  0  0  0
   -0.8728    1.1891   -6.8332 C   0  0  0  1  0  0  0  0  0  0  0  0
   -1.5480    1.9707   -7.1125 H   0  0  0  1  0  0  0  0  0  0  0  0
   -1.3248    0.2394   -7.0297 H   0  0  0  1  0  0  0  0  0  0  0  0
    0.3947    2.2849   -5.0149 N   0  0  0  1  0  0  0  0  0  0  0  0
    0.9855    2.6324   -5.7154 H   0  0  0  1  0  0  0  0  0  0  0  0
    0.5241    2.7187   -3.7579 C   0  0  0  1  0  0  0  0  0  0  0  0
   -0.1562    2.2982   -2.8367 O   0  0  0  1  0  0  0  0  0  0  0  0
    2.5466    3.4924   -2.4116 C   0  0  0  1  0  0  0  0  0  0  0  0
    2.0004    3.2794   -1.5165 H   0  0  0  1  0  0  0  0  0  0  0  0
    3.1646    4.3521   -2.2568 H   0  0  0  1  0  0  0  0  0  0  0  0
    1.5733    3.7731   -3.5354 C   0  0  0  1  0  0  0  0  0  0  0  0
    1.0745    4.6943   -3.3177 H   0  0  0  1  0  0  0  0  0  0  0  0
    2.1349    3.8761   -4.4403 H   0  0  0  1  0  0  0  0  0  0  0  0
    3.3909    2.3445   -2.7471 N   0  0  0  1  0  0  0  0  0  0  0  0
    3.1873    1.4741   -2.3453 H   0  0  0  1  0  0  0  0  0  0  0  0
    4.7046    3.5041   -4.1532 O   0  0  0  1  0  0  0  0  0  0  0  0
    4.4395    2.4431   -3.5903 C   0  0  0  1  0  0  0  0  0  0  0  0
    7.6367    0.2391   -3.7394 C   0  0  0  1  0  0  0  0  0  0  0  0
    7.3388   -0.4125   -2.9447 H   0  0  0  1  0  0  0  0  0  0  0  0
    8.6693    0.4948   -3.6235 H   0  0  0  1  0  0  0  0  0  0  0  0
    7.1427    2.3286   -4.9649 C   0  0  0  1  0  0  0  0  0  0  0  0
    8.1243    2.7385   -4.8490 H   0  0  0  1  0  0  0  0  0  0  0  0
    6.4364    3.1234   -5.0844 H   0  0  0  1  0  0  0  0  0  0  0  0
    7.1197    1.6975   -5.8286 H   0  0  0  1  0  0  0  0  0  0  0  0
    6.7812    1.5066   -3.7219 C   0  0  0  1  0  0  0  0  0  0  0  0
    7.1371    2.3404   -2.4856 C   0  0  0  1  0  0  0  0  0  0  0  0
    6.2456    2.5676   -1.9393 H   0  0  0  1  0  0  0  0  0  0  0  0
    7.6083    3.2505   -2.7930 H   0  0  0  1  0  0  0  0  0  0  0  0
    7.8057    1.7851   -1.8616 H   0  0  0  1  0  0  0  0  0  0  0  0
    5.2819    1.2096   -3.8243 C   0  0  0  1  0  0  0  0  0  0  0  0
    5.0863    0.8601   -4.8165 H   0  0  0  1  0  0  0  0  0  0  0  0
    4.9233    0.1917   -2.8926 O   0  0  0  1  0  0  0  0  0  0  0  0
    4.6187    0.5966   -2.0772 H   0  0  0  1  0  0  0  0  0  0  0  0
    7.4305   -0.4126   -5.0147 O   0  0  0  1  0  0  0  0  0  0  0  0
    9.2842   -1.9888   -5.1164 O   0  0  0  1  0  0  0  0  0  0  0  0
   11.5930   -1.8881   -5.9460 O   0  0  0  1  0  0  0  0  0  0  0  0
    7.2406   -2.7873   -4.1086 O   0  0  0  0  0  0  0  0  0  0  0  0
    7.2407   -2.3416   -6.6186 O   0  0  0  1  0  0  0  0  0  0  0  0
   10.0303   -0.1807   -6.7263 O   0  0  0  0  0  0  0  0  0  0  0  0
   10.8244   -0.1193   -4.2788 O   0  0  0  1  0  0  0  0  0  0  0  0
    7.7143   -1.9872   -5.2603 P   0  0  0  1  0  0  0  0  0  0  0  0
   10.4185   -0.8892   -5.4822 P   0  0  0  1  0  0  0  0  0  0  0  0
   12.4013   -2.6503   -5.0124 C   0  0  0  1  0  0  0  0  0  0  0  0
   12.3570   -2.2022   -4.0418 H   0  0  0  1  0  0  0  0  0  0  0  0
   12.0430   -3.6570   -4.9578 H   0  0  0  1  0  0  0  0  0  0  0  0
   14.7348   -2.3952   -7.7851 O   0  0  0  1  0  0  0  0  0  0  0  0
   13.0856   -2.2517   -9.8441 O   0  0  0  1  0  0  0  0  0  0  0  0
   15.4400   -3.2608  -10.1466 O   0  5  0  1  0  0  0  0  0  0  0  0
   14.4936   -2.1831   -9.3933 P   0  0  0  1  0  0  0  0  0  0  0  0
   14.9570   -0.6646   -9.7155 O   0  5  0  1  0  0  0  0  0  0  0  0
   16.6272   -4.0383   -5.8802 N   0  0  0  1  0  0  0  0  0  0  0  0
   17.6531   -3.8476   -4.9908 C   0  0  0  1  0  0  0  0  0  0  0  0
   17.1413   -3.7420   -7.1052 C   0  0  0  1  0  0  0  0  0  0  0  0
   16.5757   -3.7937   -7.9764 H   0  0  0  1  0  0  0  0  0  0  0  0
   18.7497   -3.4446   -5.7646 C   0  0  0  1  0  0  0  0  0  0  0  0
   17.6311   -4.0205   -3.6685 N   0  0  0  1  0  0  0  0  0  0  0  0
   18.3977   -3.3882   -7.1041 N   0  0  0  1  0  0  0  0  0  0  0  0
   19.9256   -3.2059   -5.0594 C   0  0  0  1  0  0  0  0  0  0  0  0
   18.8122   -3.7508   -3.1261 C   0  0  0  1  0  0  0  0  0  0  0  0
   18.8683   -3.8601   -2.0934 H   0  0  0  1  0  0  0  0  0  0  0  0
   19.9439   -3.3561   -3.7305 N   0  0  0  1  0  0  0  0  0  0  0  0
   21.0927   -2.8168   -5.6621 N   0  0  0  1  0  0  0  0  0  0  0  0
   21.8840   -2.6217   -5.1178 H   0  0  0  1  0  0  0  0  0  0  0  0
   21.1364   -2.7335   -6.6376 H   0  0  0  1  0  0  0  0  0  0  0  0
    0.6052    1.3302   -7.8661 S   0  0  0  1  0  0  0  0  0  0  0  0
    0.7262   -1.2196   -7.2295 O   0  0  0  1  0  0  0  0  0  0  0  0
    1.3006   -0.3036   -7.7547 C   0  0  0  1  0  0  0  0  0  0  0  0
    2.6248   -0.4285   -8.3560 C   0  0  0  1  0  0  0  0  0  0  0  0
    3.0802    0.4598   -8.6479 H   0  0  0  1  0  0  0  0  0  0  0  0
    3.3202   -1.5436   -8.5759 C   0  0  0  1  0  0  0  0  0  0  0  0
    2.8436   -2.4178   -8.2757 H   0  0  0  1  0  0  0  0  0  0  0  0
    4.6590   -1.7454   -9.1769 C   0  0  0  1  0  0  0  0  0  0  0  0
    5.4867   -2.7418   -8.6835 C   0  0  0  1  0  0  0  0  0  0  0  0
    5.1648   -3.3442   -7.8992 H   0  0  0  1  0  0  0  0  0  0  0  0
    5.0848   -0.9484  -10.2226 C   0  0  0  1  0  0  0  0  0  0  0  0
    4.4622   -0.2034  -10.5955 H   0  0  0  1  0  0  0  0  0  0  0  0
    6.7399   -2.9348   -9.2336 C   0  0  0  1  0  0  0  0  0  0  0  0
    7.3624   -3.6798   -8.8607 H   0  0  0  1  0  0  0  0  0  0  0  0
    6.3416   -1.1418  -10.7745 C   0  0  0  1  0  0  0  0  0  0  0  0
    7.1668   -2.1353  -10.2825 C   0  0  0  1  0  0  0  0  0  0  0  0
    8.3841   -2.2897  -10.8578 O   0  0  0  1  0  0  0  0  0  0  0  0
    8.9366   -1.5335  -10.6466 H   0  0  0  1  0  0  0  0  0  0  0  0
    6.6505   -0.2987  -11.7883 O   0  0  0  1  0  0  0  0  0  0  0  0
    5.9764    0.9691  -11.8159 C   0  0  0  1  0  0  0  0  0  0  0  0
    6.1276    1.4744  -10.8849 H   0  0  0  1  0  0  0  0  0  0  0  0
    4.9293    0.8128  -11.9706 H   0  0  0  1  0  0  0  0  0  0  0  0
    6.3702    1.5648  -12.6128 H   0  0  0  1  0  0  0  0  0  0  0  0
  1  2  1  0  0  0  0
  1  3  1  0  0  0  0
  1  4  1  0  0  0  0
  1 65  1  0  0  0  0
  3  6  1  0  0  0  0
  4  5  1  0  0  0  0
  4  8  1  0  0  0  0
  4 10  1  0  0  0  0
  6  7  1  0  0  0  0
  6  8  1  0  0  0  0
  6 57  1  0  0  0  0
  8  9  1  0  0  0  0
  8 60  1  0  0  0  0
 10 11  1  0  0  0  0
 12 13  1  0  0  0  0
 12 14  1  0  0  0  0
 12 15  1  0  0  0  0
 12 18  1  0  0  0  0
 15 16  1  0  0  0  0
 15 17  1  0  0  0  0
 15 79  1  0  0  0  0
 18 19  1  0  0  0  0
 18 20  1  0  0  0  0
 20 21  2  0  0  0  0
 20 25  1  0  0  0  0
 22 23  1  0  0  0  0
 22 24  1  0  0  0  0
 22 25  1  0  0  0  0
 22 28  1  0  0  0  0
 25 26  1  0  0  0  0
 25 27  1  0  0  0  0
 28 29  1  0  0  0  0
 28 31  1  0  0  0  0
 30 31  2  0  0  0  0
 31 44  1  0  0  0  0
 32 33  1  0  0  0  0
 32 34  1  0  0  0  0
 32 39  1  0  0  0  0
 32 48  1  0  0  0  0
 35 36  1  0  0  0  0
 35 37  1  0  0  0  0
 35 38  1  0  0  0  0
 35 39  1  0  0  0  0
 39 40  1  0  0  0  0
 39 44  1  0  0  0  0
 40 41  1  0  0  0  0
 40 42  1  0  0  0  0
 40 43  1  0  0  0  0
 44 45  1  0  0  0  0
 44 46  1  0  0  0  0
 46 47  1  0  0  0  0
 48 55  1  0  0  0  0
 49 55  1  0  0  0  0
 49 56  1  0  0  0  0
 50 56  1  0  0  0  0
 50 57  1  0  0  0  0
 51 55  1  0  0  0  0
 52 55  2  0  0  0  0
 53 56  1  0  0  0  0
 54 56  2  0  0  0  0
 57 58  1  0  0  0  0
 57 59  1  0  0  0  0
 60 63  1  0  0  0  0
 61 63  2  0  0  0  0
 62 63  1  0  0  0  0
 63 64  1  0  0  0  0
 65 66  1  0  0  0  0
 65 67  1  0  0  0  0
 66 69  2  0  0  0  0
 66 70  1  0  0  0  0
 67 68  1  0  0  0  0
 67 71  2  0  0  0  0
 69 71  1  0  0  0  0
 69 72  1  0  0  0  0
 70 73  2  0  0  0  0
 72 75  2  0  0  0  0
 72 76  1  0  0  0  0
 73 74  1  0  0  0  0
 73 75  1  0  0  0  0
 76 77  1  0  0  0  0
 76 78  1  0  0  0  0
 79 81  1  0  0  0  0
 80 81  2  0  0  0  0
 81 82  1  0  0  0  0
 82 83  1  0  0  0  0
 82 84  2  0  0  0  0
 84 85  1  0  0  0  0
 84 86  1  0  0  0  0
 86 87  1  0  0  0  0
 86 89  2  0  0  0  0
 87 88  1  0  0  0  0
 87 91  2  0  0  0  0
 89 90  1  0  0  0  0
 89 93  1  0  0  0  0
 91 92  1  0  0  0  0
 91 94  1  0  0  0  0
 93 94  2  0  0  0  0
 93 97  1  0  0  0  0
 94 95  1  0  0  0  0
 95 96  1  0  0  0  0
 97 98  1  0  0  0  0
 98 99  1  0  0  0  0
 98100  1  0  0  0  0
 98101  1  0  0  0  0
M  BCL ATM C_TeTeTeTe H_S O_Te2Te2TeTe C_TeTeTeTe H_S C_TeTeTeTe H_S C_TeTeTeTe H_S O_Te2Te2TeTe H_S C_TeTeTeTe H_S H_S C_TeTeTeTe H_S H_S N_TrTrTrPi2 H_S C_TrTrTrPi O_Tr2Tr2TrPi C_TeTeTeTe H_S H_S C_TeTeTeTe H_S H_S N_TrTrTrPi2 H_S O_Tr2Tr2TrPi C_TrTrTrPi C_TeTeTeTe H_S H_S C_TeTeTeTe H_S H_S H_S C_TeTeTeTe C_TeTeTeTe H_S H_S H_S C_TeTeTeTe H_S O_Te2Te2TeTe H_S O_Tr2TrTrPi2 O_Tr2TrTrPi2 O_Tr2TrTrPi2 O_Te2Te2TeTe O_Tr2Tr2TrPi O_Te2Te2TeTe O_Tr2Tr2TrPi P_TeTeTeTePi P_TeTeTeTePi C_TeTeTeTe H_S H_S O_Tr2TrTrPi2 O_Tr2Tr2TrPi O_Te2Te2Te2Te P_TeTeTeTePi O_Te2Te2Te2Te N_TrTrTrPi2 C_TrTrTrPi C_TrTrTrPi H_S C_TrTrTrPi N_Tr2TrTrPi N_Tr2TrTrPi C_TrTrTrPi C_TrTrTrPi H_S N_Tr2TrTrPi N_TrTrTrPi2 H_S H_S S_Te2Te2TeTe O_Tr2Tr2TrPi C_TrTrTrPi C_TrTrTrPi H_S C_TrTrTrPi H_S C_TrTrTrPi C_TrTrTrPi H_S C_TrTrTrPi H_S C_TrTrTrPi H_S C_TrTrTrPi C_TrTrTrPi O_Te2Te2TeTe H_S O_Tr2TrTrPi2 C_TeTeTeTe H_S H_S H_S
M  BCL BND NonConjugatedSingleBond NonConjugatedSingleBondInRing NonConjugatedSingleBondInRing NonConjugatedSingleBond NonConjugatedSingleBondInRing NonConjugatedSingleBond NonConjugatedSingleBondInRing NonConjugatedSingleBond NonConjugatedSingleBond NonConjugatedSingleBondInRing NonConjugatedSingleBond NonConjugatedSingleBond NonConjugatedSingleBond NonConjugatedSingleBond NonConjugatedSingleBond NonConjugatedSingleBond NonConjugatedSingleBond NonConjugatedSingleBond NonConjugatedSingleBond NonConjugatedSingleBond NonConjugatedSingleBond NonConjugatedSingleBond AmideSingleBond ConjugatedDoubleBond NonConjugatedSingleBond NonConjugatedSingleBond NonConjugatedSingleBond NonConjugatedSingleBond NonConjugatedSingleBond NonConjugatedSingleBond NonConjugatedSingleBond NonConjugatedSingleBond AmideSingleBond ConjugatedDoubleBond NonConjugatedSingleBond NonConjugatedSingleBond NonConjugatedSingleBond NonConjugatedSingleBond NonConjugatedSingleBond NonConjugatedSingleBond NonConjugatedSingleBond NonConjugatedSingleBond NonConjugatedSingleBond NonConjugatedSingleBond NonConjugatedSingleBond NonConjugatedSingleBond NonConjugatedSingleBond NonConjugatedSingleBond NonConjugatedSingleBond NonConjugatedSingleBond NonConjugatedSingleBond ConjugatedSingleBond ConjugatedSingleBond ConjugatedSingleBond ConjugatedSingleBond NonConjugatedSingleBond ConjugatedSingleBond ConjugatedDoubleBond ConjugatedSingleBond ConjugatedDoubleBond NonConjugatedSingleBond NonConjugatedSingleBond ConjugatedSingleBond ConjugatedDoubleBond ConjugatedSingleBond ConjugatedSingleBond AromaticSingleBond AromaticSingleBond AromaticDoubleBond AromaticSingleBond NonConjugatedSingleBond AromaticDoubleBond AromaticSingleBond AromaticSingleBond AromaticDoubleBond AromaticDoubleBond ConjugatedSingleBond NonConjugatedSingleBond AromaticSingleBond NonConjugatedSingleBond NonConjugatedSingleBond ConjugatedSingleBond ConjugatedDoubleBond ConjugatedSingleBond NonConjugatedSingleBond ConjugatedDoubleBond NonConjugatedSingleBond ConjugatedSingleBond AromaticSingleBond AromaticDoubleBond NonConjugatedSingleBond AromaticDoubleBond NonConjugatedSingleBond AromaticSingleBond NonConjugatedSingleBond AromaticSingleBond AromaticDoubleBond ConjugatedSingleBond ConjugatedSingleBond NonConjugatedSingleBond NonConjugatedSingleBond NonConjugatedSingleBond NonConjugatedSingleBond NonConjugatedSingleBond
M  BCL CHI   1   R   4   R   6   R   8   S  44   S  55   S  56   R
M  BCL DBI - - - - - - - - - - E - - -
M  END
> <ConfClashScore>
0 

> <ConfOneFourInteractionScore>
-0.978856 

> <ConfScore>
0.10154 

> <ConfScorePBest>
0.00562246 

> <ConfTolerance>
3.66993 

$$$$
L02.****
  PyMOL2.5          3D                             0

101104  0  0  0  0  0  0  0  0999 V2000
   15.2748   -4.4782   -5.5821 C   0  0  0  1  0  0  0  0  0  0  0  0
   14.8549   -4.9510   -6.4452 H   0  0  0  1  0  0  0  0  0  0  0  0
   15.2562   -5.3829   -4.4363 O   0  0  0  1  0  0  0  0  0  0  0  0
   14.4246   -3.3068   -5.1467 C   0  0  0  1  0  0  0  0  0  0  0  0
   14.7321   -2.4075   -5.6383 H   0  0  0  1  0  0  0  0  0  0  0  0
   14.9741   -4.6811   -3.2585 C   0  0  0  1  0  0  0  0  0  0  0  0
   15.8163   -4.7236   -2.5999 H   0  0  0  1  0  0  0  0  0  0  0  0
   14.6802   -3.2206   -3.6360 C   0  0  0  1  0  0  0  0  0  0  0  0
   13.8176   -2.8549   -3.1192 H   0  0  0  1  0  0  0  0  0  0  0  0
   13.0435   -3.5500   -5.4176 O   0  0  0  1  0  0  0  0  0  0  0  0
   12.5492   -3.5420   -4.5946 H   0  0  0  1  0  0  0  0  0  0  0  0
   24.2895  -16.0999   -4.7029 C   0  0  0  1  0  0  0  0  0  0  0  0
   25.1768  -15.8759   -4.1485 H   0  0  0  1  0  0  0  0  0  0  0  0
   24.3499  -17.0972   -5.0859 H   0  0  0  1  0  0  0  0  0  0  0  0
   24.2146  -15.1509   -5.8733 C   0  0  0  1  0  0  0  0  0  0  0  0
   24.1718  -14.1429   -5.5167 H   0  0  0  1  0  0  0  0  0  0  0  0
   23.3400  -15.3623   -6.4523 H   0  0  0  1  0  0  0  0  0  0  0  0
   23.1498  -16.0318   -3.7865 N   0  0  0  1  0  0  0  0  0  0  0  0
   22.5710  -16.8201   -3.7239 H   0  0  0  1  0  0  0  0  0  0  0  0
   22.8368  -14.9669   -3.0227 C   0  0  0  1  0  0  0  0  0  0  0  0
   23.4817  -13.9353   -2.9743 O   0  0  0  1  0  0  0  0  0  0  0  0
   21.1913  -14.0386   -1.2671 C   0  0  0  1  0  0  0  0  0  0  0  0
   21.3155  -13.1043   -1.7736 H   0  0  0  1  0  0  0  0  0  0  0  0
   21.8313  -14.0682   -0.4101 H   0  0  0  1  0  0  0  0  0  0  0  0
   21.5872  -15.1549   -2.2060 C   0  0  0  1  0  0  0  0  0  0  0  0
   21.7202  -16.0376   -1.6159 H   0  0  0  1  0  0  0  0  0  0  0  0
   20.7770  -15.3009   -2.8895 H   0  0  0  1  0  0  0  0  0  0  0  0
   19.8019  -14.1481   -0.8189 N   0  0  0  1  0  0  0  0  0  0  0  0
   19.2406  -14.8615   -1.1881 H   0  0  0  1  0  0  0  0  0  0  0  0
   19.9481  -12.5328    0.7464 O   0  0  0  1  0  0  0  0  0  0  0  0
   19.2725  -13.3091    0.0760 C   0  0  0  1  0  0  0  0  0  0  0  0
   15.6119  -12.3131   -0.5143 C   0  0  0  1  0  0  0  0  0  0  0  0
   15.3102  -12.3899    0.5094 H   0  0  0  1  0  0  0  0  0  0  0  0
   15.2614  -13.1673   -1.0551 H   0  0  0  1  0  0  0  0  0  0  0  0
   17.6207  -10.8802   -0.0562 C   0  0  0  1  0  0  0  0  0  0  0  0
   17.2131  -10.7255    0.9210 H   0  0  0  1  0  0  0  0  0  0  0  0
   17.2950  -10.0955   -0.7066 H   0  0  0  1  0  0  0  0  0  0  0  0
   18.6893  -10.8780   -0.0010 H   0  0  0  1  0  0  0  0  0  0  0  0
   17.1404  -12.2297   -0.6034 C   0  0  0  1  0  0  0  0  0  0  0  0
   17.5749  -12.3733   -2.0719 C   0  0  0  1  0  0  0  0  0  0  0  0
   17.1145  -13.2404   -2.4974 H   0  0  0  1  0  0  0  0  0  0  0  0
   18.6390  -12.4746   -2.1204 H   0  0  0  1  0  0  0  0  0  0  0  0
   17.2735  -11.5048   -2.6193 H   0  0  0  1  0  0  0  0  0  0  0  0
   17.7644  -13.3679    0.2224 C   0  0  0  1  0  0  0  0  0  0  0  0
   17.5086  -13.2253    1.2516 H   0  0  0  1  0  0  0  0  0  0  0  0
   17.2843  -14.6203   -0.2363 O   0  0  0  1  0  0  0  0  0  0  0  0
   17.3747  -14.6680   -1.1908 H   0  0  0  1  0  0  0  0  0  0  0  0
   15.0711  -11.1045   -1.0980 O   0  0  0  1  0  0  0  0  0  0  0  0
   14.3433   -8.7535   -1.2035 O   0  0  0  1  0  0  0  0  0  0  0  0
   14.1155   -6.6745   -2.3258 O   0  0  0  1  0  0  0  0  0  0  0  0
   13.1200  -10.3336    0.2817 O   0  0  0  0  0  0  0  0  0  0  0  0
   15.5189   -9.6455    0.8652 O   0  0  0  1  0  0  0  0  0  0  0  0
   12.0273   -8.0345   -1.8636 O   0  0  0  0  0  0  0  0  0  0  0  0
   13.2575   -6.8488    0.0173 O   0  0  0  1  0  0  0  0  0  0  0  0
   14.5144   -9.9602   -0.1955 P   0  0  0  1  0  0  0  0  0  0  0  0
   13.2908   -7.5481   -1.2794 P   0  0  0  1  0  0  0  0  0  0  0  0
   13.7673   -5.2880   -2.5753 C   0  0  0  1  0  0  0  0  0  0  0  0
   12.9088   -5.2274   -3.2110 H   0  0  0  1  0  0  0  0  0  0  0  0
   13.5662   -4.7821   -1.6542 H   0  0  0  1  0  0  0  0  0  0  0  0
   15.8055   -2.3752   -3.3487 O   0  0  0  1  0  0  0  0  0  0  0  0
   14.9683   -0.0535   -4.2035 O   0  0  0  1  0  0  0  0  0  0  0  0
   17.2592   -0.1933   -3.2833 O   0  5  0  1  0  0  0  0  0  0  0  0
   15.7430   -0.7483   -3.1512 P   0  0  0  1  0  0  0  0  0  0  0  0
   15.2213   -0.4915   -1.6391 O   0  5  0  1  0  0  0  0  0  0  0  0
   16.6408   -4.0452   -5.8783 N   0  0  0  1  0  0  0  0  0  0  0  0
   17.6586   -3.8473   -4.9813 C   0  0  0  1  0  0  0  0  0  0  0  0
   17.1651   -3.7555   -7.1006 C   0  0  0  1  0  0  0  0  0  0  0  0
   16.6072   -3.8135   -7.9764 H   0  0  0  1  0  0  0  0  0  0  0  0
   18.7612   -3.4469   -5.7478 C   0  0  0  1  0  0  0  0  0  0  0  0
   17.6253   -4.0121   -3.6581 N   0  0  0  1  0  0  0  0  0  0  0  0
   18.4208   -3.3993   -7.0907 N   0  0  0  1  0  0  0  0  0  0  0  0
   19.9305   -3.2018   -5.0338 C   0  0  0  1  0  0  0  0  0  0  0  0
   18.8011   -3.7370   -3.1071 C   0  0  0  1  0  0  0  0  0  0  0  0
   18.8485   -3.8399   -2.0733 H   0  0  0  1  0  0  0  0  0  0  0  0
   19.9374   -3.3439   -3.7040 N   0  0  0  1  0  0  0  0  0  0  0  0
   21.0754   -2.8160   -5.6797 N   0  0  0  1  0  0  0  0  0  0  0  0
   21.1134   -2.8279   -6.6589 H   0  0  0  1  0  0  0  0  0  0  0  0
   21.8565   -2.5282   -5.1625 H   0  0  0  1  0  0  0  0  0  0  0  0
   25.6932  -15.3720   -6.8997 S   0  0  0  1  0  0  0  0  0  0  0  0
   26.1766  -14.1294   -9.1658 O   0  0  0  1  0  0  0  0  0  0  0  0
   25.3744  -14.2598   -8.2703 C   0  0  0  1  0  0  0  0  0  0  0  0
   24.1157  -13.5207   -8.2649 C   0  0  0  1  0  0  0  0  0  0  0  0
   23.4561  -13.7464   -7.4932 H   0  0  0  1  0  0  0  0  0  0  0  0
   23.7102  -12.5918   -9.1298 C   0  0  0  1  0  0  0  0  0  0  0  0
   24.3698  -12.3662   -9.9015 H   0  0  0  1  0  0  0  0  0  0  0  0
   22.4321  -11.8412   -9.1242 C   0  0  0  1  0  0  0  0  0  0  0  0
   22.0196  -11.0122  -10.1557 C   0  0  0  1  0  0  0  0  0  0  0  0
   22.6183  -10.8925  -10.9977 H   0  0  0  1  0  0  0  0  0  0  0  0
   21.6339  -12.0043   -8.0077 C   0  0  0  1  0  0  0  0  0  0  0  0
   21.9415  -12.6294   -7.2355 H   0  0  0  1  0  0  0  0  0  0  0  0
   20.8127  -10.3447  -10.0656 C   0  0  0  1  0  0  0  0  0  0  0  0
   20.5051   -9.7196  -10.8378 H   0  0  0  1  0  0  0  0  0  0  0  0
   20.4235  -11.3349   -7.9171 C   0  0  0  1  0  0  0  0  0  0  0  0
   20.0123  -10.5084   -8.9457 C   0  0  0  1  0  0  0  0  0  0  0  0
   18.8409   -9.8271   -8.9289 O   0  0  0  1  0  0  0  0  0  0  0  0
   18.1305  -10.4173   -8.6669 H   0  0  0  1  0  0  0  0  0  0  0  0
   19.7317  -11.5681   -6.7765 O   0  0  0  1  0  0  0  0  0  0  0  0
   19.9852  -12.8077   -6.0971 C   0  0  0  1  0  0  0  0  0  0  0  0
   20.9592  -12.7799   -5.6548 H   0  0  0  1  0  0  0  0  0  0  0  0
   19.9349  -13.6149   -6.7976 H   0  0  0  1  0  0  0  0  0  0  0  0
   19.2506  -12.9519   -5.3326 H   0  0  0  1  0  0  0  0  0  0  0  0
  1  2  1  0  0  0  0
  1  3  1  0  0  0  0
  1  4  1  0  0  0  0
  1 65  1  0  0  0  0
  3  6  1  0  0  0  0
  4  5  1  0  0  0  0
  4  8  1  0  0  0  0
  4 10  1  0  0  0  0
  6  7  1  0  0  0  0
  6  8  1  0  0  0  0
  6 57  1  0  0  0  0
  8  9  1  0  0  0  0
  8 60  1  0  0  0  0
 10 11  1  0  0  0  0
 12 13  1  0  0  0  0
 12 14  1  0  0  0  0
 12 15  1  0  0  0  0
 12 18  1  0  0  0  0
 15 16  1  0  0  0  0
 15 17  1  0  0  0  0
 15 79  1  0  0  0  0
 18 19  1  0  0  0  0
 18 20  1  0  0  0  0
 20 21  2  0  0  0  0
 20 25  1  0  0  0  0
 22 23  1  0  0  0  0
 22 24  1  0  0  0  0
 22 25  1  0  0  0  0
 22 28  1  0  0  0  0
 25 26  1  0  0  0  0
 25 27  1  0  0  0  0
 28 29  1  0  0  0  0
 28 31  1  0  0  0  0
 30 31  2  0  0  0  0
 31 44  1  0  0  0  0
 32 33  1  0  0  0  0
 32 34  1  0  0  0  0
 32 39  1  0  0  0  0
 32 48  1  0  0  0  0
 35 36  1  0  0  0  0
 35 37  1  0  0  0  0
 35 38  1  0  0  0  0
 35 39  1  0  0  0  0
 39 40  1  0  0  0  0
 39 44  1  0  0  0  0
 40 41  1  0  0  0  0
 40 42  1  0  0  0  0
 40 43  1  0  0  0  0
 44 45  1  0  0  0  0
 44 46  1  0  0  0  0
 46 47  1  0  0  0  0
 48 55  1  0  0  0  0
 49 55  1  0  0  0  0
 49 56  1  0  0  0  0
 50 56  1  0  0  0  0
 50 57  1  0  0  0  0
 51 55  1  0  0  0  0
 52 55  2  0  0  0  0
 53 56  1  0  0  0  0
 54 56  2  0  0  0  0
 57 58  1  0  0  0  0
 57 59  1  0  0  0  0
 60 63  1  0  0  0  0
 61 63  2  0  0  0  0
 62 63  1  0  0  0  0
 63 64  1  0  0  0  0
 65 66  1  0  0  0  0
 65 67  1  0  0  0  0
 66 69  2  0  0  0  0
 66 70  1  0  0  0  0
 67 68  1  0  0  0  0
 67 71  2  0  0  0  0
 69 71  1  0  0  0  0
 69 72  1  0  0  0  0
 70 73  2  0  0  0  0
 72 75  2  0  0  0  0
 72 76  1  0  0  0  0
 73 74  1  0  0  0  0
 73 75  1  0  0  0  0
 76 77  1  0  0  0  0
 76 78  1  0  0  0  0
 79 81  1  0  0  0  0
 80 81  2  0  0  0  0
 81 82  1  0  0  0  0
 82 83  1  0  0  0  0
 82 84  2  0  0  0  0
 84 85  1  0  0  0  0
 84 86  1  0  0  0  0
 86 87  1  0  0  0  0
 86 89  2  0  0  0  0
 87 88  1  0  0  0  0
 87 91  2  0  0  0  0
 89 90  1  0  0  0  0
 89 93  1  0  0  0  0
 91 92  1  0  0  0  0
 91 94  1  0  0  0  0
 93 94  2  0  0  0  0
 93 97  1  0  0  0  0
 94 95  1  0  0  0  0
 95 96  1  0  0  0  0
 97 98  1  0  0  0  0
 98 99  1  0  0  0  0
 98100  1  0  0  0  0
 98101  1  0  0  0  0
M  BCL ATM C_TeTeTeTe H_S O_Te2Te2TeTe C_TeTeTeTe H_S C_TeTeTeTe H_S C_TeTeTeTe H_S O_Te2Te2TeTe H_S C_TeTeTeTe H_S H_S C_TeTeTeTe H_S H_S N_TrTrTrPi2 H_S C_TrTrTrPi O_Tr2Tr2TrPi C_TeTeTeTe H_S H_S C_TeTeTeTe H_S H_S N_TrTrTrPi2 H_S O_Tr2Tr2TrPi C_TrTrTrPi C_TeTeTeTe H_S H_S C_TeTeTeTe H_S H_S H_S C_TeTeTeTe C_TeTeTeTe H_S H_S H_S C_TeTeTeTe H_S O_Te2Te2TeTe H_S O_Tr2TrTrPi2 O_Tr2TrTrPi2 O_Tr2TrTrPi2 O_Te2Te2TeTe O_Tr2Tr2TrPi O_Te2Te2TeTe O_Tr2Tr2TrPi P_TeTeTeTePi P_TeTeTeTePi C_TeTeTeTe H_S H_S O_Tr2TrTrPi2 O_Tr2Tr2TrPi O_Te2Te2Te2Te P_TeTeTeTePi O_Te2Te2Te2Te N_TrTrTrPi2 C_TrTrTrPi C_TrTrTrPi H_S C_TrTrTrPi N_Tr2TrTrPi N_Tr2TrTrPi C_TrTrTrPi C_TrTrTrPi H_S N_Tr2TrTrPi N_TrTrTrPi2 H_S H_S S_Te2Te2TeTe O_Tr2Tr2TrPi C_TrTrTrPi C_TrTrTrPi H_S C_TrTrTrPi H_S C_TrTrTrPi C_TrTrTrPi H_S C_TrTrTrPi H_S C_TrTrTrPi H_S C_TrTrTrPi C_TrTrTrPi O_Te2Te2TeTe H_S O_Tr2TrTrPi2 C_TeTeTeTe H_S H_S H_S
M  BCL BND NonConjugatedSingleBond NonConjugatedSingleBondInRing NonConjugatedSingleBondInRing NonConjugatedSingleBond NonConjugatedSingleBondInRing NonConjugatedSingleBond NonConjugatedSingleBondInRing NonConjugatedSingleBond NonConjugatedSingleBond NonConjugatedSingleBondInRing NonConjugatedSingleBond NonConjugatedSingleBond NonConjugatedSingleBond NonConjugatedSingleBond NonConjugatedSingleBond NonConjugatedSingleBond NonConjugatedSingleBond NonConjugatedSingleBond NonConjugatedSingleBond NonConjugatedSingleBond NonConjugatedSingleBond NonConjugatedSingleBond AmideSingleBond ConjugatedDoubleBond NonConjugatedSingleBond NonConjugatedSingleBond NonConjugatedSingleBond NonConjugatedSingleBond NonConjugatedSingleBond NonConjugatedSingleBond NonConjugatedSingleBond NonConjugatedSingleBond AmideSingleBond ConjugatedDoubleBond NonConjugatedSingleBond NonConjugatedSingleBond NonConjugatedSingleBond NonConjugatedSingleBond NonConjugatedSingleBond NonConjugatedSingleBond NonConjugatedSingleBond NonConjugatedSingleBond NonConjugatedSingleBond NonConjugatedSingleBond NonConjugatedSingleBond NonConjugatedSingleBond NonConjugatedSingleBond NonConjugatedSingleBond NonConjugatedSingleBond NonConjugatedSingleBond NonConjugatedSingleBond ConjugatedSingleBond ConjugatedSingleBond ConjugatedSingleBond ConjugatedSingleBond NonConjugatedSingleBond ConjugatedSingleBond ConjugatedDoubleBond ConjugatedSingleBond ConjugatedDoubleBond NonConjugatedSingleBond NonConjugatedSingleBond ConjugatedSingleBond ConjugatedDoubleBond ConjugatedSingleBond ConjugatedSingleBond AromaticSingleBond AromaticSingleBond AromaticDoubleBond AromaticSingleBond NonConjugatedSingleBond AromaticDoubleBond AromaticSingleBond AromaticSingleBond AromaticDoubleBond AromaticDoubleBond ConjugatedSingleBond NonConjugatedSingleBond AromaticSingleBond NonConjugatedSingleBond NonConjugatedSingleBond ConjugatedSingleBond ConjugatedDoubleBond ConjugatedSingleBond NonConjugatedSingleBond ConjugatedDoubleBond NonConjugatedSingleBond ConjugatedSingleBond AromaticSingleBond AromaticDoubleBond NonConjugatedSingleBond AromaticDoubleBond NonConjugatedSingleBond AromaticSingleBond NonConjugatedSingleBond AromaticSingleBond AromaticDoubleBond ConjugatedSingleBond ConjugatedSingleBond NonConjugatedSingleBond NonConjugatedSingleBond NonConjugatedSingleBond NonConjugatedSingleBond NonConjugatedSingleBond
M  BCL CHI   1   R   4   R   6   R   8   S  44   S  55   S  56   R
M  BCL DBI - - - - - - - - - - E - - -
M  END
> <ConfClashScore>
0 

> <ConfOneFourInteractionScore>
-0.982177 

> <ConfScore>
0.101553 

> <ConfScorePBest>
0.00551946 

> <ConfTolerance>
3.82541 

$$$$
L02.****
  PyMOL2.5          3D                             0

101104  0  0  0  0  0  0  0  0999 V2000
   15.2751   -4.4756   -5.5819 C   0  0  0  1  0  0  0  0  0  0  0  0
   15.2690   -5.0425   -4.6744 H   0  0  0  1  0  0  0  0  0  0  0  0
   14.4151   -3.3729   -5.4844 O   0  0  0  1  0  0  0  0  0  0  0  0
   14.7020   -5.3012   -6.7429 C   0  0  0  1  0  0  0  0  0  0  0  0
   15.0653   -4.9465   -7.6847 H   0  0  0  1  0  0  0  0  0  0  0  0
   13.1333   -3.6305   -6.1008 C   0  0  0  1  0  0  0  0  0  0  0  0
   12.9641   -2.9539   -6.9123 H   0  0  0  1  0  0  0  0  0  0  0  0
   13.2192   -5.0718   -6.6116 C   0  0  0  1  0  0  0  0  0  0  0  0
   12.7859   -5.7540   -5.9102 H   0  0  0  1  0  0  0  0  0  0  0  0
   15.0237   -6.6853   -6.5984 O   0  0  0  1  0  0  0  0  0  0  0  0
   15.7531   -6.7821   -5.9818 H   0  0  0  1  0  0  0  0  0  0  0  0
   21.7974   -6.9351    0.2238 C   0  0  0  1  0  0  0  0  0  0  0  0
   20.9457   -7.1701   -0.3798 H   0  0  0  1  0  0  0  0  0  0  0  0
   22.5436   -6.4624   -0.3800 H   0  0  0  1  0  0  0  0  0  0  0  0
   22.3755   -8.2402    0.7577 C   0  0  0  1  0  0  0  0  0  0  0  0
   23.2144   -8.0379    1.3903 H   0  0  0  1  0  0  0  0  0  0  0  0
   22.6832   -8.8645   -0.0549 H   0  0  0  1  0  0  0  0  0  0  0  0
   21.3768   -5.9853    1.2555 N   0  0  0  1  0  0  0  0  0  0  0  0
   21.3842   -6.2524    2.1983 H   0  0  0  1  0  0  0  0  0  0  0  0
   20.9797   -4.7446    0.9114 C   0  0  0  1  0  0  0  0  0  0  0  0
   21.1191   -4.2503   -0.2042 O   0  0  0  1  0  0  0  0  0  0  0  0
   18.8678   -3.6533    1.7662 C   0  0  0  1  0  0  0  0  0  0  0  0
   18.8090   -3.0571    0.8796 H   0  0  0  1  0  0  0  0  0  0  0  0
   18.4830   -3.0982    2.5961 H   0  0  0  1  0  0  0  0  0  0  0  0
   20.3300   -3.9837    2.0360 C   0  0  0  1  0  0  0  0  0  0  0  0
   20.8647   -3.0684    2.1815 H   0  0  0  1  0  0  0  0  0  0  0  0
   20.3868   -4.5759    2.9254 H   0  0  0  1  0  0  0  0  0  0  0  0
   18.0463   -4.8509    1.5816 N   0  0  0  1  0  0  0  0  0  0  0  0
   18.0250   -5.5412    2.2769 H   0  0  0  1  0  0  0  0  0  0  0  0
   17.2436   -4.1434   -0.4176 O   0  0  0  1  0  0  0  0  0  0  0  0
   17.3187   -5.0064    0.4561 C   0  0  0  1  0  0  0  0  0  0  0  0
   14.6031   -4.9686   -0.3545 C   0  0  0  1  0  0  0  0  0  0  0  0
   15.2470   -4.1208   -0.2475 H   0  0  0  1  0  0  0  0  0  0  0  0
   14.0837   -5.1409    0.5649 H   0  0  0  1  0  0  0  0  0  0  0  0
   16.0791   -6.0204   -2.0802 C   0  0  0  1  0  0  0  0  0  0  0  0
   16.7203   -5.1639   -2.0707 H   0  0  0  1  0  0  0  0  0  0  0  0
   15.3094   -5.8813   -2.8104 H   0  0  0  1  0  0  0  0  0  0  0  0
   16.6509   -6.8910   -2.3254 H   0  0  0  1  0  0  0  0  0  0  0  0
   15.4439   -6.1996   -0.6963 C   0  0  0  1  0  0  0  0  0  0  0  0
   14.5334   -7.4315   -0.6360 C   0  0  0  1  0  0  0  0  0  0  0  0
   13.5233   -7.1212   -0.4677 H   0  0  0  1  0  0  0  0  0  0  0  0
   14.8484   -8.0688    0.1637 H   0  0  0  1  0  0  0  0  0  0  0  0
   14.5929   -7.9644   -1.5620 H   0  0  0  1  0  0  0  0  0  0  0  0
   16.5818   -6.3315    0.3229 C   0  0  0  1  0  0  0  0  0  0  0  0
   16.1528   -6.5746    1.2725 H   0  0  0  1  0  0  0  0  0  0  0  0
   17.4574   -7.3787   -0.0886 O   0  0  0  1  0  0  0  0  0  0  0  0
   16.9958   -7.9627   -0.6948 H   0  0  0  1  0  0  0  0  0  0  0  0
   13.6411   -4.7070   -1.4033 O   0  0  0  1  0  0  0  0  0  0  0  0
   11.6449   -3.6729   -2.0850 O   0  0  0  1  0  0  0  0  0  0  0  0
   11.9716   -4.7292   -4.3415 O   0  0  0  1  0  0  0  0  0  0  0  0
   13.1540   -2.3699   -0.4941 O   0  0  0  0  0  0  0  0  0  0  0  0
   13.8403   -2.6801   -2.9381 O   0  0  0  1  0  0  0  0  0  0  0  0
   11.3946   -6.1861   -2.5062 O   0  0  0  0  0  0  0  0  0  0  0  0
    9.6781   -4.4387   -3.2828 O   0  0  0  1  0  0  0  0  0  0  0  0
   13.1582   -3.1862   -1.7334 P   0  0  0  1  0  0  0  0  0  0  0  0
   11.0741   -4.8377   -3.0250 P   0  0  0  1  0  0  0  0  0  0  0  0
   12.0334   -3.4936   -5.1000 C   0  0  0  1  0  0  0  0  0  0  0  0
   11.1031   -3.3271   -5.6016 H   0  0  0  1  0  0  0  0  0  0  0  0
   12.2375   -2.6732   -4.4442 H   0  0  0  1  0  0  0  0  0  0  0  0
   12.5622   -5.2083   -7.8818 O   0  0  0  1  0  0  0  0  0  0  0  0
   10.9562   -6.8713   -6.9607 O   0  0  0  1  0  0  0  0  0  0  0  0
   11.3915   -6.9535   -9.4163 O   0  5  0  1  0  0  0  0  0  0  0  0
   11.1442   -5.9920   -8.1362 P   0  0  0  1  0  0  0  0  0  0  0  0
   10.0180   -4.8803   -8.4828 O   0  5  0  1  0  0  0  0  0  0  0  0
   16.6411   -4.0429   -5.8784 N   0  0  0  1  0  0  0  0  0  0  0  0
   17.6595   -3.8470   -4.9816 C   0  0  0  1  0  0  0  0  0  0  0  0
   17.1647   -3.7515   -7.1005 C   0  0  0  1  0  0  0  0  0  0  0  0
   16.6062   -3.8077   -7.9760 H   0  0  0  1  0  0  0  0  0  0  0  0
   18.7619   -3.4459   -5.7483 C   0  0  0  1  0  0  0  0  0  0  0  0
   17.6270   -4.0139   -3.6588 N   0  0  0  1  0  0  0  0  0  0  0  0
   18.4207   -3.3960   -7.0909 N   0  0  0  1  0  0  0  0  0  0  0  0
   19.9317   -3.2026   -5.0347 C   0  0  0  1  0  0  0  0  0  0  0  0
   18.8034   -3.7403   -3.1080 C   0  0  0  1  0  0  0  0  0  0  0  0
   18.8513   -3.8449   -2.0744 H   0  0  0  1  0  0  0  0  0  0  0  0
   19.9395   -3.3469   -3.7051 N   0  0  0  1  0  0  0  0  0  0  0  0
   21.0719   -2.8180   -5.6780 N   0  0  0  1  0  0  0  0  0  0  0  0
   21.0983   -2.7962   -6.6574 H   0  0  0  1  0  0  0  0  0  0  0  0
   21.8643   -2.5635   -5.1607 H   0  0  0  1  0  0  0  0  0  0  0  0
   21.0674   -9.0548    1.7045 S   0  0  0  1  0  0  0  0  0  0  0  0
   20.6258  -11.3622    1.4547 O   0  0  0  1  0  0  0  0  0  0  0  0
   21.5331  -10.7448    1.6047 C   0  0  0  1  0  0  0  0  0  0  0  0
   22.9101  -10.9283    2.0470 C   0  0  0  1  0  0  0  0  0  0  0  0
   23.3347  -11.8667    1.9029 H   0  0  0  1  0  0  0  0  0  0  0  0
   23.6713   -9.9968    2.6200 C   0  0  0  1  0  0  0  0  0  0  0  0
   23.2295   -9.0651    2.7558 H   0  0  0  1  0  0  0  0  0  0  0  0
   25.0749  -10.1290    3.0881 C   0  0  0  1  0  0  0  0  0  0  0  0
   25.6327   -9.0662    3.7815 C   0  0  0  1  0  0  0  0  0  0  0  0
   25.0476   -8.2430    4.0298 H   0  0  0  1  0  0  0  0  0  0  0  0
   25.8512  -11.2253    2.7628 C   0  0  0  1  0  0  0  0  0  0  0  0
   25.4317  -12.0244    2.2461 H   0  0  0  1  0  0  0  0  0  0  0  0
   26.9663   -9.1004    4.1430 C   0  0  0  1  0  0  0  0  0  0  0  0
   27.3857   -8.3012    4.6597 H   0  0  0  1  0  0  0  0  0  0  0  0
   27.1887  -11.2597    3.1252 C   0  0  0  1  0  0  0  0  0  0  0  0
   27.7447  -10.2000    3.8166 C   0  0  0  1  0  0  0  0  0  0  0  0
   29.0485  -10.2123    4.1866 O   0  0  0  1  0  0  0  0  0  0  0  0
   29.1303   -9.8788    5.0831 H   0  0  0  1  0  0  0  0  0  0  0  0
   28.0042  -12.3005    2.8328 O   0  0  0  1  0  0  0  0  0  0  0  0
   27.4958  -13.3009    1.9365 C   0  0  0  1  0  0  0  0  0  0  0  0
   28.2730  -13.6115    1.2699 H   0  0  0  1  0  0  0  0  0  0  0  0
   26.6834  -12.8935    1.3716 H   0  0  0  1  0  0  0  0  0  0  0  0
   27.1520  -14.1429    2.5002 H   0  0  0  1  0  0  0  0  0  0  0  0
  1  2  1  0  0  0  0
  1  3  1  0  0  0  0
  1  4  1  0  0  0  0
  1 65  1  0  0  0  0
  3  6  1  0  0  0  0
  4  5  1  0  0  0  0
  4  8  1  0  0  0  0
  4 10  1  0  0  0  0
  6  7  1  0  0  0  0
  6  8  1  0  0  0  0
  6 57  1  0  0  0  0
  8  9  1  0  0  0  0
  8 60  1  0  0  0  0
 10 11  1  0  0  0  0
 12 13  1  0  0  0  0
 12 14  1  0  0  0  0
 12 15  1  0  0  0  0
 12 18  1  0  0  0  0
 15 16  1  0  0  0  0
 15 17  1  0  0  0  0
 15 79  1  0  0  0  0
 18 19  1  0  0  0  0
 18 20  1  0  0  0  0
 20 21  2  0  0  0  0
 20 25  1  0  0  0  0
 22 23  1  0  0  0  0
 22 24  1  0  0  0  0
 22 25  1  0  0  0  0
 22 28  1  0  0  0  0
 25 26  1  0  0  0  0
 25 27  1  0  0  0  0
 28 29  1  0  0  0  0
 28 31  1  0  0  0  0
 30 31  2  0  0  0  0
 31 44  1  0  0  0  0
 32 33  1  0  0  0  0
 32 34  1  0  0  0  0
 32 39  1  0  0  0  0
 32 48  1  0  0  0  0
 35 36  1  0  0  0  0
 35 37  1  0  0  0  0
 35 38  1  0  0  0  0
 35 39  1  0  0  0  0
 39 40  1  0  0  0  0
 39 44  1  0  0  0  0
 40 41  1  0  0  0  0
 40 42  1  0  0  0  0
 40 43  1  0  0  0  0
 44 45  1  0  0  0  0
 44 46  1  0  0  0  0
 46 47  1  0  0  0  0
 48 55  1  0  0  0  0
 49 55  1  0  0  0  0
 49 56  1  0  0  0  0
 50 56  1  0  0  0  0
 50 57  1  0  0  0  0
 51 55  1  0  0  0  0
 52 55  2  0  0  0  0
 53 56  1  0  0  0  0
 54 56  2  0  0  0  0
 57 58  1  0  0  0  0
 57 59  1  0  0  0  0
 60 63  1  0  0  0  0
 61 63  2  0  0  0  0
 62 63  1  0  0  0  0
 63 64  1  0  0  0  0
 65 66  1  0  0  0  0
 65 67  1  0  0  0  0
 66 69  2  0  0  0  0
 66 70  1  0  0  0  0
 67 68  1  0  0  0  0
 67 71  2  0  0  0  0
 69 71  1  0  0  0  0
 69 72  1  0  0  0  0
 70 73  2  0  0  0  0
 72 75  2  0  0  0  0
 72 76  1  0  0  0  0
 73 74  1  0  0  0  0
 73 75  1  0  0  0  0
 76 77  1  0  0  0  0
 76 78  1  0  0  0  0
 79 81  1  0  0  0  0
 80 81  2  0  0  0  0
 81 82  1  0  0  0  0
 82 83  1  0  0  0  0
 82 84  2  0  0  0  0
 84 85  1  0  0  0  0
 84 86  1  0  0  0  0
 86 87  1  0  0  0  0
 86 89  2  0  0  0  0
 87 88  1  0  0  0  0
 87 91  2  0  0  0  0
 89 90  1  0  0  0  0
 89 93  1  0  0  0  0
 91 92  1  0  0  0  0
 91 94  1  0  0  0  0
 93 94  2  0  0  0  0
 93 97  1  0  0  0  0
 94 95  1  0  0  0  0
 95 96  1  0  0  0  0
 97 98  1  0  0  0  0
 98 99  1  0  0  0  0
 98100  1  0  0  0  0
 98101  1  0  0  0  0
M  BCL ATM C_TeTeTeTe H_S O_Te2Te2TeTe C_TeTeTeTe H_S C_TeTeTeTe H_S C_TeTeTeTe H_S O_Te2Te2TeTe H_S C_TeTeTeTe H_S H_S C_TeTeTeTe H_S H_S N_TrTrTrPi2 H_S C_TrTrTrPi O_Tr2Tr2TrPi C_TeTeTeTe H_S H_S C_TeTeTeTe H_S H_S N_TrTrTrPi2 H_S O_Tr2Tr2TrPi C_TrTrTrPi C_TeTeTeTe H_S H_S C_TeTeTeTe H_S H_S H_S C_TeTeTeTe C_TeTeTeTe H_S H_S H_S C_TeTeTeTe H_S O_Te2Te2TeTe H_S O_Tr2TrTrPi2 O_Tr2TrTrPi2 O_Tr2TrTrPi2 O_Te2Te2TeTe O_Tr2Tr2TrPi O_Te2Te2TeTe O_Tr2Tr2TrPi P_TeTeTeTePi P_TeTeTeTePi C_TeTeTeTe H_S H_S O_Tr2TrTrPi2 O_Tr2Tr2TrPi O_Te2Te2Te2Te P_TeTeTeTePi O_Te2Te2Te2Te N_TrTrTrPi2 C_TrTrTrPi C_TrTrTrPi H_S C_TrTrTrPi N_Tr2TrTrPi N_Tr2TrTrPi C_TrTrTrPi C_TrTrTrPi H_S N_Tr2TrTrPi N_TrTrTrPi2 H_S H_S S_Te2Te2TeTe O_Tr2Tr2TrPi C_TrTrTrPi C_TrTrTrPi H_S C_TrTrTrPi H_S C_TrTrTrPi C_TrTrTrPi H_S C_TrTrTrPi H_S C_TrTrTrPi H_S C_TrTrTrPi C_TrTrTrPi O_Te2Te2TeTe H_S O_Tr2TrTrPi2 C_TeTeTeTe H_S H_S H_S
M  BCL BND NonConjugatedSingleBond NonConjugatedSingleBondInRing NonConjugatedSingleBondInRing NonConjugatedSingleBond NonConjugatedSingleBondInRing NonConjugatedSingleBond NonConjugatedSingleBondInRing NonConjugatedSingleBond NonConjugatedSingleBond NonConjugatedSingleBondInRing NonConjugatedSingleBond NonConjugatedSingleBond NonConjugatedSingleBond NonConjugatedSingleBond NonConjugatedSingleBond NonConjugatedSingleBond NonConjugatedSingleBond NonConjugatedSingleBond NonConjugatedSingleBond NonConjugatedSingleBond NonConjugatedSingleBond NonConjugatedSingleBond AmideSingleBond ConjugatedDoubleBond NonConjugatedSingleBond NonConjugatedSingleBond NonConjugatedSingleBond NonConjugatedSingleBond NonConjugatedSingleBond NonConjugatedSingleBond NonConjugatedSingleBond NonConjugatedSingleBond AmideSingleBond ConjugatedDoubleBond NonConjugatedSingleBond NonConjugatedSingleBond NonConjugatedSingleBond NonConjugatedSingleBond NonConjugatedSingleBond NonConjugatedSingleBond NonConjugatedSingleBond NonConjugatedSingleBond NonConjugatedSingleBond NonConjugatedSingleBond NonConjugatedSingleBond NonConjugatedSingleBond NonConjugatedSingleBond NonConjugatedSingleBond NonConjugatedSingleBond NonConjugatedSingleBond NonConjugatedSingleBond ConjugatedSingleBond ConjugatedSingleBond ConjugatedSingleBond ConjugatedSingleBond NonConjugatedSingleBond ConjugatedSingleBond ConjugatedDoubleBond ConjugatedSingleBond ConjugatedDoubleBond NonConjugatedSingleBond NonConjugatedSingleBond ConjugatedSingleBond ConjugatedDoubleBond ConjugatedSingleBond ConjugatedSingleBond AromaticSingleBond AromaticSingleBond AromaticDoubleBond AromaticSingleBond NonConjugatedSingleBond AromaticDoubleBond AromaticSingleBond AromaticSingleBond AromaticDoubleBond AromaticDoubleBond ConjugatedSingleBond NonConjugatedSingleBond AromaticSingleBond NonConjugatedSingleBond NonConjugatedSingleBond ConjugatedSingleBond ConjugatedDoubleBond ConjugatedSingleBond NonConjugatedSingleBond ConjugatedDoubleBond NonConjugatedSingleBond ConjugatedSingleBond AromaticSingleBond AromaticDoubleBond NonConjugatedSingleBond AromaticDoubleBond NonConjugatedSingleBond AromaticSingleBond NonConjugatedSingleBond AromaticSingleBond AromaticDoubleBond ConjugatedSingleBond ConjugatedSingleBond NonConjugatedSingleBond NonConjugatedSingleBond NonConjugatedSingleBond NonConjugatedSingleBond NonConjugatedSingleBond
M  BCL CHI   1   R   4   R   6   R   8   S  44   S  55   S  56   R
M  BCL DBI - - - - - - - - - - E - - -
M  END
> <ConfClashScore>
0 

> <ConfOneFourInteractionScore>
-0.974469 

> <ConfScore>
0.132203 

> <ConfScorePBest>
0.00541646 

> <ConfTolerance>
3.91687 

$$$$
L02.****
  PyMOL2.5          3D                             0

101104  0  0  0  0  0  0  0  0999 V2000
   15.2737   -4.4005   -5.5333 C   0  0  0  1  0  0  0  0  0  0  0  0
   14.9544   -3.7955   -4.7105 H   0  0  0  1  0  0  0  0  0  0  0  0
   14.3971   -4.2173   -6.6679 O   0  0  0  1  0  0  0  0  0  0  0  0
   15.1649   -5.8871   -5.1816 C   0  0  0  1  0  0  0  0  0  0  0  0
   15.9627   -6.4457   -5.6249 H   0  0  0  1  0  0  0  0  0  0  0  0
   13.7521   -5.4080   -7.0301 C   0  0  0  1  0  0  0  0  0  0  0  0
   14.2540   -5.8764   -7.8509 H   0  0  0  1  0  0  0  0  0  0  0  0
   13.8363   -6.2824   -5.7706 C   0  0  0  1  0  0  0  0  0  0  0  0
   13.0350   -6.0648   -5.0957 H   0  0  0  1  0  0  0  0  0  0  0  0
   15.1760   -6.0810   -3.7661 O   0  0  0  1  0  0  0  0  0  0  0  0
   16.0815   -6.1824   -3.4636 H   0  0  0  1  0  0  0  0  0  0  0  0
   13.0727   -0.3591  -10.6276 C   0  0  0  1  0  0  0  0  0  0  0  0
   12.5972    0.5942  -10.7274 H   0  0  0  1  0  0  0  0  0  0  0  0
   12.5299   -0.9572   -9.9257 H   0  0  0  1  0  0  0  0  0  0  0  0
   14.4603   -0.1367  -10.0809 C   0  0  0  1  0  0  0  0  0  0  0  0
   14.6127   -0.8233   -9.2745 H   0  0  0  1  0  0  0  0  0  0  0  0
   14.5141    0.8659   -9.7112 H   0  0  0  1  0  0  0  0  0  0  0  0
   13.0284   -1.0254  -11.9206 N   0  0  0  1  0  0  0  0  0  0  0  0
   13.8753   -1.3484  -12.2931 H   0  0  0  1  0  0  0  0  0  0  0  0
   11.9091   -1.2320  -12.6451 C   0  0  0  1  0  0  0  0  0  0  0  0
   10.8094   -0.8634  -12.2348 O   0  0  0  1  0  0  0  0  0  0  0  0
   11.2433   -3.2265  -13.9872 C   0  0  0  1  0  0  0  0  0  0  0  0
   11.3466   -3.7070  -14.9377 H   0  0  0  1  0  0  0  0  0  0  0  0
   10.2100   -3.0185  -13.8026 H   0  0  0  1  0  0  0  0  0  0  0  0
   12.0441   -1.9278  -13.9731 C   0  0  0  1  0  0  0  0  0  0  0  0
   13.0758   -2.1499  -14.1495 H   0  0  0  1  0  0  0  0  0  0  0  0
   11.6804   -1.2830  -14.7456 H   0  0  0  1  0  0  0  0  0  0  0  0
   11.7693   -4.0862  -12.9391 N   0  0  0  1  0  0  0  0  0  0  0  0
   12.6476   -3.8981  -12.5472 H   0  0  0  1  0  0  0  0  0  0  0  0
    9.9133   -5.3527  -12.9243 O   0  0  0  1  0  0  0  0  0  0  0  0
   11.0507   -5.1423  -12.5049 C   0  0  0  1  0  0  0  0  0  0  0  0
   12.6767   -8.3007  -11.0695 C   0  0  0  1  0  0  0  0  0  0  0  0
   13.6001   -7.8501  -10.7708 H   0  0  0  1  0  0  0  0  0  0  0  0
   12.8688   -9.2690  -11.4822 H   0  0  0  1  0  0  0  0  0  0  0  0
   10.6568   -8.0873  -12.5047 C   0  0  0  1  0  0  0  0  0  0  0  0
    9.8563   -7.3858  -12.3950 H   0  0  0  1  0  0  0  0  0  0  0  0
   10.4798   -8.9318  -11.8720 H   0  0  0  1  0  0  0  0  0  0  0  0
   10.7114   -8.4094  -13.5236 H   0  0  0  1  0  0  0  0  0  0  0  0
   11.9796   -7.4205  -12.1083 C   0  0  0  1  0  0  0  0  0  0  0  0
   12.8241   -7.2620  -13.3919 C   0  0  0  1  0  0  0  0  0  0  0  0
   12.4497   -6.4408  -13.9667 H   0  0  0  1  0  0  0  0  0  0  0  0
   12.7637   -8.1595  -13.9714 H   0  0  0  1  0  0  0  0  0  0  0  0
   13.8439   -7.0760  -13.1269 H   0  0  0  1  0  0  0  0  0  0  0  0
   11.6858   -6.0651  -11.4830 C   0  0  0  1  0  0  0  0  0  0  0  0
   10.9820   -6.2142  -10.6910 H   0  0  0  1  0  0  0  0  0  0  0  0
   12.8582   -5.4672  -10.9597 O   0  0  0  1  0  0  0  0  0  0  0  0
   13.6310   -5.8816  -11.3505 H   0  0  0  1  0  0  0  0  0  0  0  0
   11.7939   -8.4175   -9.9290 O   0  0  0  1  0  0  0  0  0  0  0  0
   11.2879   -8.7291   -7.4675 O   0  0  0  1  0  0  0  0  0  0  0  0
   11.7901   -6.3676   -7.9603 O   0  0  0  1  0  0  0  0  0  0  0  0
   12.1203  -10.6141   -8.9411 O   0  0  0  0  0  0  0  0  0  0  0  0
   13.6320   -8.6679   -8.1842 O   0  0  0  1  0  0  0  0  0  0  0  0
    9.3996   -7.0590   -7.6528 O   0  0  0  0  0  0  0  0  0  0  0  0
   11.0045   -7.0700   -5.6947 O   0  0  0  1  0  0  0  0  0  0  0  0
   12.3200   -9.1626   -8.6364 P   0  0  0  1  0  0  0  0  0  0  0  0
   10.7649   -7.2756   -7.1236 P   0  0  0  1  0  0  0  0  0  0  0  0
   12.3288   -5.1475   -7.3991 C   0  0  0  1  0  0  0  0  0  0  0  0
   12.2780   -4.3604   -8.1221 H   0  0  0  1  0  0  0  0  0  0  0  0
   11.7717   -4.8697   -6.5288 H   0  0  0  1  0  0  0  0  0  0  0  0
   13.8136   -7.6901   -6.1099 O   0  0  0  1  0  0  0  0  0  0  0  0
   15.6473   -8.3450   -4.3390 O   0  0  0  1  0  0  0  0  0  0  0  0
   14.8304  -10.0841   -6.0339 O   0  5  0  1  0  0  0  0  0  0  0  0
   14.4681   -8.8080   -5.1041 P   0  0  0  1  0  0  0  0  0  0  0  0
   13.3676   -9.2976   -4.0207 O   0  5  0  1  0  0  0  0  0  0  0  0
   16.6521   -4.0556   -5.8877 N   0  0  0  1  0  0  0  0  0  0  0  0
   17.6633   -3.8603   -4.9828 C   0  0  0  1  0  0  0  0  0  0  0  0
   17.1828   -3.7542   -7.1044 C   0  0  0  1  0  0  0  0  0  0  0  0
   16.6307   -3.8078   -7.9841 H   0  0  0  1  0  0  0  0  0  0  0  0
   18.7691   -3.4494   -5.7392 C   0  0  0  1  0  0  0  0  0  0  0  0
   17.6224   -4.0355   -3.6612 N   0  0  0  1  0  0  0  0  0  0  0  0
   18.4369   -3.3929   -7.0839 N   0  0  0  1  0  0  0  0  0  0  0  0
   19.9328   -3.2049   -5.0160 C   0  0  0  1  0  0  0  0  0  0  0  0
   18.7936   -3.7597   -3.1006 C   0  0  0  1  0  0  0  0  0  0  0  0
   18.8349   -3.8703   -2.0673 H   0  0  0  1  0  0  0  0  0  0  0  0
   19.9320   -3.3573   -3.6873 N   0  0  0  1  0  0  0  0  0  0  0  0
   21.0631   -2.8087   -5.7002 N   0  0  0  1  0  0  0  0  0  0  0  0
   21.9012   -2.6569   -5.2156 H   0  0  0  1  0  0  0  0  0  0  0  0
   21.0280   -2.6789   -6.6710 H   0  0  0  1  0  0  0  0  0  0  0  0
   15.8015   -0.3668  -11.2738 S   0  0  0  1  0  0  0  0  0  0  0  0
   15.4193   -2.8063  -10.3517 O   0  0  0  1  0  0  0  0  0  0  0  0
   16.0829   -2.1134  -11.0857 C   0  0  0  1  0  0  0  0  0  0  0  0
   17.1819   -2.6286  -11.8943 C   0  0  0  1  0  0  0  0  0  0  0  0
   17.8233   -1.9508  -12.3536 H   0  0  0  1  0  0  0  0  0  0  0  0
   17.3981   -3.9317  -12.0690 C   0  0  0  1  0  0  0  0  0  0  0  0
   16.6277   -4.5804  -11.8097 H   0  0  0  1  0  0  0  0  0  0  0  0
   18.6421   -4.5358  -12.6010 C   0  0  0  1  0  0  0  0  0  0  0  0
   19.6410   -4.8331  -11.6870 C   0  0  0  1  0  0  0  0  0  0  0  0
   19.4967   -4.6347  -10.6764 H   0  0  0  1  0  0  0  0  0  0  0  0
   18.8318   -4.8044  -13.9434 C   0  0  0  1  0  0  0  0  0  0  0  0
   18.0808   -4.5850  -14.6287 H   0  0  0  1  0  0  0  0  0  0  0  0
   20.8285   -5.3931  -12.1187 C   0  0  0  1  0  0  0  0  0  0  0  0
   21.5795   -5.6125  -11.4334 H   0  0  0  1  0  0  0  0  0  0  0  0
   20.0227   -5.3661  -14.3766 C   0  0  0  1  0  0  0  0  0  0  0  0
   21.0186   -5.6625  -13.4651 C   0  0  0  1  0  0  0  0  0  0  0  0
   22.1895   -6.2167  -13.8632 O   0  0  0  1  0  0  0  0  0  0  0  0
   22.2270   -7.1306  -13.5717 H   0  0  0  1  0  0  0  0  0  0  0  0
   20.3237   -5.6680  -15.6620 O   0  0  0  1  0  0  0  0  0  0  0  0
   19.2723   -5.5337  -16.6310 C   0  0  0  1  0  0  0  0  0  0  0  0
   19.5313   -6.0757  -17.5165 H   0  0  0  1  0  0  0  0  0  0  0  0
   19.1396   -4.4997  -16.8720 H   0  0  0  1  0  0  0  0  0  0  0  0
   18.3625   -5.9257  -16.2265 H   0  0  0  1  0  0  0  0  0  0  0  0
  1  2  1  0  0  0  0
  1  3  1  0  0  0  0
  1  4  1  0  0  0  0
  1 65  1  0  0  0  0
  3  6  1  0  0  0  0
  4  5  1  0  0  0  0
  4  8  1  0  0  0  0
  4 10  1  0  0  0  0
  6  7  1  0  0  0  0
  6  8  1  0  0  0  0
  6 57  1  0  0  0  0
  8  9  1  0  0  0  0
  8 60  1  0  0  0  0
 10 11  1  0  0  0  0
 12 13  1  0  0  0  0
 12 14  1  0  0  0  0
 12 15  1  0  0  0  0
 12 18  1  0  0  0  0
 15 16  1  0  0  0  0
 15 17  1  0  0  0  0
 15 79  1  0  0  0  0
 18 19  1  0  0  0  0
 18 20  1  0  0  0  0
 20 21  2  0  0  0  0
 20 25  1  0  0  0  0
 22 23  1  0  0  0  0
 22 24  1  0  0  0  0
 22 25  1  0  0  0  0
 22 28  1  0  0  0  0
 25 26  1  0  0  0  0
 25 27  1  0  0  0  0
 28 29  1  0  0  0  0
 28 31  1  0  0  0  0
 30 31  2  0  0  0  0
 31 44  1  0  0  0  0
 32 33  1  0  0  0  0
 32 34  1  0  0  0  0
 32 39  1  0  0  0  0
 32 48  1  0  0  0  0
 35 36  1  0  0  0  0
 35 37  1  0  0  0  0
 35 38  1  0  0  0  0
 35 39  1  0  0  0  0
 39 40  1  0  0  0  0
 39 44  1  0  0  0  0
 40 41  1  0  0  0  0
 40 42  1  0  0  0  0
 40 43  1  0  0  0  0
 44 45  1  0  0  0  0
 44 46  1  0  0  0  0
 46 47  1  0  0  0  0
 48 55  1  0  0  0  0
 49 55  1  0  0  0  0
 49 56  1  0  0  0  0
 50 56  1  0  0  0  0
 50 57  1  0  0  0  0
 51 55  1  0  0  0  0
 52 55  2  0  0  0  0
 53 56  1  0  0  0  0
 54 56  2  0  0  0  0
 57 58  1  0  0  0  0
 57 59  1  0  0  0  0
 60 63  1  0  0  0  0
 61 63  2  0  0  0  0
 62 63  1  0  0  0  0
 63 64  1  0  0  0  0
 65 66  1  0  0  0  0
 65 67  1  0  0  0  0
 66 69  2  0  0  0  0
 66 70  1  0  0  0  0
 67 68  1  0  0  0  0
 67 71  2  0  0  0  0
 69 71  1  0  0  0  0
 69 72  1  0  0  0  0
 70 73  2  0  0  0  0
 72 75  2  0  0  0  0
 72 76  1  0  0  0  0
 73 74  1  0  0  0  0
 73 75  1  0  0  0  0
 76 77  1  0  0  0  0
 76 78  1  0  0  0  0
 79 81  1  0  0  0  0
 80 81  2  0  0  0  0
 81 82  1  0  0  0  0
 82 83  1  0  0  0  0
 82 84  2  0  0  0  0
 84 85  1  0  0  0  0
 84 86  1  0  0  0  0
 86 87  1  0  0  0  0
 86 89  2  0  0  0  0
 87 88  1  0  0  0  0
 87 91  2  0  0  0  0
 89 90  1  0  0  0  0
 89 93  1  0  0  0  0
 91 92  1  0  0  0  0
 91 94  1  0  0  0  0
 93 94  2  0  0  0  0
 93 97  1  0  0  0  0
 94 95  1  0  0  0  0
 95 96  1  0  0  0  0
 97 98  1  0  0  0  0
 98 99  1  0  0  0  0
 98100  1  0  0  0  0
 98101  1  0  0  0  0
M  BCL ATM C_TeTeTeTe H_S O_Te2Te2TeTe C_TeTeTeTe H_S C_TeTeTeTe H_S C_TeTeTeTe H_S O_Te2Te2TeTe H_S C_TeTeTeTe H_S H_S C_TeTeTeTe H_S H_S N_TrTrTrPi2 H_S C_TrTrTrPi O_Tr2Tr2TrPi C_TeTeTeTe H_S H_S C_TeTeTeTe H_S H_S N_TrTrTrPi2 H_S O_Tr2Tr2TrPi C_TrTrTrPi C_TeTeTeTe H_S H_S C_TeTeTeTe H_S H_S H_S C_TeTeTeTe C_TeTeTeTe H_S H_S H_S C_TeTeTeTe H_S O_Te2Te2TeTe H_S O_Tr2TrTrPi2 O_Tr2TrTrPi2 O_Tr2TrTrPi2 O_Te2Te2TeTe O_Tr2Tr2TrPi O_Te2Te2TeTe O_Tr2Tr2TrPi P_TeTeTeTePi P_TeTeTeTePi C_TeTeTeTe H_S H_S O_Tr2TrTrPi2 O_Tr2Tr2TrPi O_Te2Te2Te2Te P_TeTeTeTePi O_Te2Te2Te2Te N_TrTrTrPi2 C_TrTrTrPi C_TrTrTrPi H_S C_TrTrTrPi N_Tr2TrTrPi N_Tr2TrTrPi C_TrTrTrPi C_TrTrTrPi H_S N_Tr2TrTrPi N_TrTrTrPi2 H_S H_S S_Te2Te2TeTe O_Tr2Tr2TrPi C_TrTrTrPi C_TrTrTrPi H_S C_TrTrTrPi H_S C_TrTrTrPi C_TrTrTrPi H_S C_TrTrTrPi H_S C_TrTrTrPi H_S C_TrTrTrPi C_TrTrTrPi O_Te2Te2TeTe H_S O_Tr2TrTrPi2 C_TeTeTeTe H_S H_S H_S
M  BCL BND NonConjugatedSingleBond NonConjugatedSingleBondInRing NonConjugatedSingleBondInRing NonConjugatedSingleBond NonConjugatedSingleBondInRing NonConjugatedSingleBond NonConjugatedSingleBondInRing NonConjugatedSingleBond NonConjugatedSingleBond NonConjugatedSingleBondInRing NonConjugatedSingleBond NonConjugatedSingleBond NonConjugatedSingleBond NonConjugatedSingleBond NonConjugatedSingleBond NonConjugatedSingleBond NonConjugatedSingleBond NonConjugatedSingleBond NonConjugatedSingleBond NonConjugatedSingleBond NonConjugatedSingleBond NonConjugatedSingleBond AmideSingleBond ConjugatedDoubleBond NonConjugatedSingleBond NonConjugatedSingleBond NonConjugatedSingleBond NonConjugatedSingleBond NonConjugatedSingleBond NonConjugatedSingleBond NonConjugatedSingleBond NonConjugatedSingleBond AmideSingleBond ConjugatedDoubleBond NonConjugatedSingleBond NonConjugatedSingleBond NonConjugatedSingleBond NonConjugatedSingleBond NonConjugatedSingleBond NonConjugatedSingleBond NonConjugatedSingleBond NonConjugatedSingleBond NonConjugatedSingleBond NonConjugatedSingleBond NonConjugatedSingleBond NonConjugatedSingleBond NonConjugatedSingleBond NonConjugatedSingleBond NonConjugatedSingleBond NonConjugatedSingleBond NonConjugatedSingleBond ConjugatedSingleBond ConjugatedSingleBond ConjugatedSingleBond ConjugatedSingleBond NonConjugatedSingleBond ConjugatedSingleBond ConjugatedDoubleBond ConjugatedSingleBond ConjugatedDoubleBond NonConjugatedSingleBond NonConjugatedSingleBond ConjugatedSingleBond ConjugatedDoubleBond ConjugatedSingleBond ConjugatedSingleBond AromaticSingleBond AromaticSingleBond AromaticDoubleBond AromaticSingleBond NonConjugatedSingleBond AromaticDoubleBond AromaticSingleBond AromaticSingleBond AromaticDoubleBond AromaticDoubleBond ConjugatedSingleBond NonConjugatedSingleBond AromaticSingleBond NonConjugatedSingleBond NonConjugatedSingleBond ConjugatedSingleBond ConjugatedDoubleBond ConjugatedSingleBond NonConjugatedSingleBond ConjugatedDoubleBond NonConjugatedSingleBond ConjugatedSingleBond AromaticSingleBond AromaticDoubleBond NonConjugatedSingleBond AromaticDoubleBond NonConjugatedSingleBond AromaticSingleBond NonConjugatedSingleBond AromaticSingleBond AromaticDoubleBond ConjugatedSingleBond ConjugatedSingleBond NonConjugatedSingleBond NonConjugatedSingleBond NonConjugatedSingleBond NonConjugatedSingleBond NonConjugatedSingleBond
M  BCL CHI   1   R   4   R   6   R   8   S  44   S  55   S  56   R
M  BCL DBI - - - - - - - - - - E - - -
M  END
> <ConfClashScore>
0 

> <ConfOneFourInteractionScore>
-0.977534 

> <ConfScore>
0.137956 

> <ConfScorePBest>
0.00531345 

> <ConfTolerance>
3.61543 

$$$$
L02.****
  PyMOL2.5          3D                             0

101104  0  0  0  0  0  0  0  0999 V2000
   15.3022   -4.4746   -5.4872 C   0  0  0  1  0  0  0  0  0  0  0  0
   14.6387   -4.4271   -6.3253 H   0  0  0  1  0  0  0  0  0  0  0  0
   15.3438   -5.7727   -4.9599 O   0  0  0  1  0  0  0  0  0  0  0  0
   14.7788   -3.6122   -4.3295 C   0  0  0  1  0  0  0  0  0  0  0  0
   15.5753   -3.3129   -3.6807 H   0  0  0  1  0  0  0  0  0  0  0  0
   14.4862   -5.9152   -3.8051 C   0  0  0  1  0  0  0  0  0  0  0  0
   15.0610   -6.1710   -2.9396 H   0  0  0  1  0  0  0  0  0  0  0  0
   13.8270   -4.5443   -3.6267 C   0  0  0  1  0  0  0  0  0  0  0  0
   12.8597   -4.5212   -4.0836 H   0  0  0  1  0  0  0  0  0  0  0  0
   14.0997   -2.4538   -4.8165 O   0  0  0  1  0  0  0  0  0  0  0  0
   13.6181   -2.0386   -4.0972 H   0  0  0  1  0  0  0  0  0  0  0  0
   15.9622   -7.4342    0.6150 C   0  0  0  1  0  0  0  0  0  0  0  0
   15.5147   -6.4722    0.4766 H   0  0  0  1  0  0  0  0  0  0  0  0
   16.4857   -7.4538    1.5480 H   0  0  0  1  0  0  0  0  0  0  0  0
   16.9511   -7.6722   -0.4992 C   0  0  0  1  0  0  0  0  0  0  0  0
   17.7722   -6.9952   -0.3882 H   0  0  0  1  0  0  0  0  0  0  0  0
   16.4684   -7.4973   -1.4381 H   0  0  0  1  0  0  0  0  0  0  0  0
   14.9025   -8.4437    0.6504 N   0  0  0  1  0  0  0  0  0  0  0  0
   14.2815   -8.5043   -0.1053 H   0  0  0  1  0  0  0  0  0  0  0  0
   14.7525   -9.2853    1.6772 C   0  0  0  1  0  0  0  0  0  0  0  0
   15.3621   -9.1622    2.7388 O   0  0  0  1  0  0  0  0  0  0  0  0
   14.1989  -11.3562    0.3454 C   0  0  0  1  0  0  0  0  0  0  0  0
   15.0472  -11.9198    0.6734 H   0  0  0  1  0  0  0  0  0  0  0  0
   14.4662  -10.7749   -0.5122 H   0  0  0  1  0  0  0  0  0  0  0  0
   13.7795  -10.4134    1.4614 C   0  0  0  1  0  0  0  0  0  0  0  0
   12.8249   -9.9973    1.2151 H   0  0  0  1  0  0  0  0  0  0  0  0
   13.7012  -10.9740    2.3695 H   0  0  0  1  0  0  0  0  0  0  0  0
   13.1345  -12.2876   -0.0325 N   0  0  0  1  0  0  0  0  0  0  0  0
   12.9951  -13.1073    0.4862 H   0  0  0  1  0  0  0  0  0  0  0  0
   12.4960  -11.0432   -1.8093 O   0  0  0  1  0  0  0  0  0  0  0  0
   12.3555  -12.0234   -1.0793 C   0  0  0  1  0  0  0  0  0  0  0  0
   12.3889  -13.4826   -3.5163 C   0  0  0  1  0  0  0  0  0  0  0  0
   12.2514  -13.7678   -4.5383 H   0  0  0  1  0  0  0  0  0  0  0  0
   12.8082  -14.3016   -2.9702 H   0  0  0  1  0  0  0  0  0  0  0  0
   10.0162  -14.1984   -3.2701 C   0  0  0  1  0  0  0  0  0  0  0  0
    9.9571  -14.2918   -4.3344 H   0  0  0  1  0  0  0  0  0  0  0  0
    9.0555  -13.9315   -2.8818 H   0  0  0  1  0  0  0  0  0  0  0  0
   10.3258  -15.1312   -2.8471 H   0  0  0  1  0  0  0  0  0  0  0  0
   11.0313  -13.1131   -2.9084 C   0  0  0  1  0  0  0  0  0  0  0  0
   10.5587  -11.7813   -3.5027 C   0  0  0  1  0  0  0  0  0  0  0  0
   11.0774  -11.5954   -4.4199 H   0  0  0  1  0  0  0  0  0  0  0  0
   10.7623  -10.9903   -2.8115 H   0  0  0  1  0  0  0  0  0  0  0  0
    9.5066  -11.8286   -3.6915 H   0  0  0  1  0  0  0  0  0  0  0  0
   11.2192  -12.9930   -1.3952 C   0  0  0  1  0  0  0  0  0  0  0  0
   10.3182  -12.5880   -0.9841 H   0  0  0  1  0  0  0  0  0  0  0  0
   11.4821  -14.2479   -0.8026 O   0  0  0  1  0  0  0  0  0  0  0  0
   12.3789  -14.5193   -1.0114 H   0  0  0  1  0  0  0  0  0  0  0  0
   13.2939  -12.3552   -3.4539 O   0  0  0  1  0  0  0  0  0  0  0  0
   14.5498  -10.6353   -4.8064 O   0  0  0  1  0  0  0  0  0  0  0  0
   14.1410   -8.2362   -4.1862 O   0  0  0  1  0  0  0  0  0  0  0  0
   15.8204  -12.4755   -3.8761 O   0  0  0  0  0  0  0  0  0  0  0  0
   14.0543  -12.9822   -5.6745 O   0  0  0  1  0  0  0  0  0  0  0  0
   13.0670   -9.1443   -6.2196 O   0  0  0  0  0  0  0  0  0  0  0  0
   12.3446   -9.9758   -3.9248 O   0  0  0  1  0  0  0  0  0  0  0  0
   14.5029  -12.2117   -4.4998 P   0  0  0  1  0  0  0  0  0  0  0  0
   13.4085   -9.4914   -4.8177 P   0  0  0  1  0  0  0  0  0  0  0  0
   13.4531   -6.9662   -4.0459 C   0  0  0  1  0  0  0  0  0  0  0  0
   12.9100   -6.7451   -4.9409 H   0  0  0  1  0  0  0  0  0  0  0  0
   12.7760   -7.0080   -3.2184 H   0  0  0  1  0  0  0  0  0  0  0  0
   13.7069   -4.2024   -2.2177 O   0  0  0  1  0  0  0  0  0  0  0  0
   12.2070   -2.0927   -2.4507 O   0  0  0  1  0  0  0  0  0  0  0  0
   14.7587   -1.8439   -1.9646 O   0  5  0  1  0  0  0  0  0  0  0  0
   13.3787   -2.6649   -1.7506 P   0  0  0  1  0  0  0  0  0  0  0  0
   13.2258   -2.5944   -0.1394 O   0  5  0  1  0  0  0  0  0  0  0  0
   16.6301   -4.0406   -5.8938 N   0  0  0  1  0  0  0  0  0  0  0  0
   17.6510   -3.8473   -4.9994 C   0  0  0  1  0  0  0  0  0  0  0  0
   17.1506   -3.7468   -7.1167 C   0  0  0  1  0  0  0  0  0  0  0  0
   16.5897   -3.8008   -7.9908 H   0  0  0  1  0  0  0  0  0  0  0  0
   18.7516   -3.4453   -5.7681 C   0  0  0  1  0  0  0  0  0  0  0  0
   17.6220   -4.0172   -3.6768 N   0  0  0  1  0  0  0  0  0  0  0  0
   18.4068   -3.3922   -7.1097 N   0  0  0  1  0  0  0  0  0  0  0  0
   19.9235   -3.2043   -5.0571 C   0  0  0  1  0  0  0  0  0  0  0  0
   18.8000   -3.7455   -3.1286 C   0  0  0  1  0  0  0  0  0  0  0  0
   18.8506   -3.8524   -2.0954 H   0  0  0  1  0  0  0  0  0  0  0  0
   19.9347   -3.3515   -3.7279 N   0  0  0  1  0  0  0  0  0  0  0  0
   21.0889   -2.8174   -5.6520 N   0  0  0  1  0  0  0  0  0  0  0  0
   21.1358   -2.7297   -6.6269 H   0  0  0  1  0  0  0  0  0  0  0  0
   21.8790   -2.6272   -5.1043 H   0  0  0  1  0  0  0  0  0  0  0  0
   17.5756   -9.3692   -0.4634 S   0  0  0  1  0  0  0  0  0  0  0  0
   18.4994   -8.4380   -2.7409 O   0  0  0  1  0  0  0  0  0  0  0  0
   18.5146   -9.3853   -1.9915 C   0  0  0  1  0  0  0  0  0  0  0  0
   19.2939  -10.5796   -2.2946 C   0  0  0  1  0  0  0  0  0  0  0  0
   19.7040  -10.6505   -3.2478 H   0  0  0  1  0  0  0  0  0  0  0  0
   19.5258  -11.5880   -1.4552 C   0  0  0  1  0  0  0  0  0  0  0  0
   19.1156  -11.5172   -0.5021 H   0  0  0  1  0  0  0  0  0  0  0  0
   20.3171  -12.8004   -1.7629 C   0  0  0  1  0  0  0  0  0  0  0  0
   19.8347  -13.7927   -2.6020 C   0  0  0  1  0  0  0  0  0  0  0  0
   18.8952  -13.6944   -3.0371 H   0  0  0  1  0  0  0  0  0  0  0  0
   21.5678  -12.9286   -1.1890 C   0  0  0  1  0  0  0  0  0  0  0  0
   21.9314  -12.1822   -0.5626 H   0  0  0  1  0  0  0  0  0  0  0  0
   20.6021  -14.9127   -2.8605 C   0  0  0  1  0  0  0  0  0  0  0  0
   20.2385  -15.6591   -3.4869 H   0  0  0  1  0  0  0  0  0  0  0  0
   22.3376  -14.0518   -1.4481 C   0  0  0  1  0  0  0  0  0  0  0  0
   21.8566  -15.0412   -2.2848 C   0  0  0  1  0  0  0  0  0  0  0  0
   22.5923  -16.1461   -2.5577 O   0  0  0  1  0  0  0  0  0  0  0  0
   22.0835  -16.9312   -2.3422 H   0  0  0  1  0  0  0  0  0  0  0  0
   23.5676  -14.2407   -0.9140 O   0  0  0  1  0  0  0  0  0  0  0  0
   24.1152  -13.1679   -0.1318 C   0  0  0  1  0  0  0  0  0  0  0  0
   24.4371  -12.3807   -0.7810 H   0  0  0  1  0  0  0  0  0  0  0  0
   24.9498  -13.5282    0.4326 H   0  0  0  1  0  0  0  0  0  0  0  0
   23.3665  -12.7955    0.5359 H   0  0  0  1  0  0  0  0  0  0  0  0
  1  2  1  0  0  0  0
  1  3  1  0  0  0  0
  1  4  1  0  0  0  0
  1 65  1  0  0  0  0
  3  6  1  0  0  0  0
  4  5  1  0  0  0  0
  4  8  1  0  0  0  0
  4 10  1  0  0  0  0
  6  7  1  0  0  0  0
  6  8  1  0  0  0  0
  6 57  1  0  0  0  0
  8  9  1  0  0  0  0
  8 60  1  0  0  0  0
 10 11  1  0  0  0  0
 12 13  1  0  0  0  0
 12 14  1  0  0  0  0
 12 15  1  0  0  0  0
 12 18  1  0  0  0  0
 15 16  1  0  0  0  0
 15 17  1  0  0  0  0
 15 79  1  0  0  0  0
 18 19  1  0  0  0  0
 18 20  1  0  0  0  0
 20 21  2  0  0  0  0
 20 25  1  0  0  0  0
 22 23  1  0  0  0  0
 22 24  1  0  0  0  0
 22 25  1  0  0  0  0
 22 28  1  0  0  0  0
 25 26  1  0  0  0  0
 25 27  1  0  0  0  0
 28 29  1  0  0  0  0
 28 31  1  0  0  0  0
 30 31  2  0  0  0  0
 31 44  1  0  0  0  0
 32 33  1  0  0  0  0
 32 34  1  0  0  0  0
 32 39  1  0  0  0  0
 32 48  1  0  0  0  0
 35 36  1  0  0  0  0
 35 37  1  0  0  0  0
 35 38  1  0  0  0  0
 35 39  1  0  0  0  0
 39 40  1  0  0  0  0
 39 44  1  0  0  0  0
 40 41  1  0  0  0  0
 40 42  1  0  0  0  0
 40 43  1  0  0  0  0
 44 45  1  0  0  0  0
 44 46  1  0  0  0  0
 46 47  1  0  0  0  0
 48 55  1  0  0  0  0
 49 55  1  0  0  0  0
 49 56  1  0  0  0  0
 50 56  1  0  0  0  0
 50 57  1  0  0  0  0
 51 55  1  0  0  0  0
 52 55  2  0  0  0  0
 53 56  1  0  0  0  0
 54 56  2  0  0  0  0
 57 58  1  0  0  0  0
 57 59  1  0  0  0  0
 60 63  1  0  0  0  0
 61 63  2  0  0  0  0
 62 63  1  0  0  0  0
 63 64  1  0  0  0  0
 65 66  1  0  0  0  0
 65 67  1  0  0  0  0
 66 69  2  0  0  0  0
 66 70  1  0  0  0  0
 67 68  1  0  0  0  0
 67 71  2  0  0  0  0
 69 71  1  0  0  0  0
 69 72  1  0  0  0  0
 70 73  2  0  0  0  0
 72 75  2  0  0  0  0
 72 76  1  0  0  0  0
 73 74  1  0  0  0  0
 73 75  1  0  0  0  0
 76 77  1  0  0  0  0
 76 78  1  0  0  0  0
 79 81  1  0  0  0  0
 80 81  2  0  0  0  0
 81 82  1  0  0  0  0
 82 83  1  0  0  0  0
 82 84  2  0  0  0  0
 84 85  1  0  0  0  0
 84 86  1  0  0  0  0
 86 87  1  0  0  0  0
 86 89  2  0  0  0  0
 87 88  1  0  0  0  0
 87 91  2  0  0  0  0
 89 90  1  0  0  0  0
 89 93  1  0  0  0  0
 91 92  1  0  0  0  0
 91 94  1  0  0  0  0
 93 94  2  0  0  0  0
 93 97  1  0  0  0  0
 94 95  1  0  0  0  0
 95 96  1  0  0  0  0
 97 98  1  0  0  0  0
 98 99  1  0  0  0  0
 98100  1  0  0  0  0
 98101  1  0  0  0  0
M  BCL ATM C_TeTeTeTe H_S O_Te2Te2TeTe C_TeTeTeTe H_S C_TeTeTeTe H_S C_TeTeTeTe H_S O_Te2Te2TeTe H_S C_TeTeTeTe H_S H_S C_TeTeTeTe H_S H_S N_TrTrTrPi2 H_S C_TrTrTrPi O_Tr2Tr2TrPi C_TeTeTeTe H_S H_S C_TeTeTeTe H_S H_S N_TrTrTrPi2 H_S O_Tr2Tr2TrPi C_TrTrTrPi C_TeTeTeTe H_S H_S C_TeTeTeTe H_S H_S H_S C_TeTeTeTe C_TeTeTeTe H_S H_S H_S C_TeTeTeTe H_S O_Te2Te2TeTe H_S O_Tr2TrTrPi2 O_Tr2TrTrPi2 O_Tr2TrTrPi2 O_Te2Te2TeTe O_Tr2Tr2TrPi O_Te2Te2TeTe O_Tr2Tr2TrPi P_TeTeTeTePi P_TeTeTeTePi C_TeTeTeTe H_S H_S O_Tr2TrTrPi2 O_Tr2Tr2TrPi O_Te2Te2Te2Te P_TeTeTeTePi O_Te2Te2Te2Te N_TrTrTrPi2 C_TrTrTrPi C_TrTrTrPi H_S C_TrTrTrPi N_Tr2TrTrPi N_Tr2TrTrPi C_TrTrTrPi C_TrTrTrPi H_S N_Tr2TrTrPi N_TrTrTrPi2 H_S H_S S_Te2Te2TeTe O_Tr2Tr2TrPi C_TrTrTrPi C_TrTrTrPi H_S C_TrTrTrPi H_S C_TrTrTrPi C_TrTrTrPi H_S C_TrTrTrPi H_S C_TrTrTrPi H_S C_TrTrTrPi C_TrTrTrPi O_Te2Te2TeTe H_S O_Tr2TrTrPi2 C_TeTeTeTe H_S H_S H_S
M  BCL BND NonConjugatedSingleBond NonConjugatedSingleBondInRing NonConjugatedSingleBondInRing NonConjugatedSingleBond NonConjugatedSingleBondInRing NonConjugatedSingleBond NonConjugatedSingleBondInRing NonConjugatedSingleBond NonConjugatedSingleBond NonConjugatedSingleBondInRing NonConjugatedSingleBond NonConjugatedSingleBond NonConjugatedSingleBond NonConjugatedSingleBond NonConjugatedSingleBond NonConjugatedSingleBond NonConjugatedSingleBond NonConjugatedSingleBond NonConjugatedSingleBond NonConjugatedSingleBond NonConjugatedSingleBond NonConjugatedSingleBond AmideSingleBond ConjugatedDoubleBond NonConjugatedSingleBond NonConjugatedSingleBond NonConjugatedSingleBond NonConjugatedSingleBond NonConjugatedSingleBond NonConjugatedSingleBond NonConjugatedSingleBond NonConjugatedSingleBond AmideSingleBond ConjugatedDoubleBond NonConjugatedSingleBond NonConjugatedSingleBond NonConjugatedSingleBond NonConjugatedSingleBond NonConjugatedSingleBond NonConjugatedSingleBond NonConjugatedSingleBond NonConjugatedSingleBond NonConjugatedSingleBond NonConjugatedSingleBond NonConjugatedSingleBond NonConjugatedSingleBond NonConjugatedSingleBond NonConjugatedSingleBond NonConjugatedSingleBond NonConjugatedSingleBond NonConjugatedSingleBond ConjugatedSingleBond ConjugatedSingleBond ConjugatedSingleBond ConjugatedSingleBond NonConjugatedSingleBond ConjugatedSingleBond ConjugatedDoubleBond ConjugatedSingleBond ConjugatedDoubleBond NonConjugatedSingleBond NonConjugatedSingleBond ConjugatedSingleBond ConjugatedDoubleBond ConjugatedSingleBond ConjugatedSingleBond AromaticSingleBond AromaticSingleBond AromaticDoubleBond AromaticSingleBond NonConjugatedSingleBond AromaticDoubleBond AromaticSingleBond AromaticSingleBond AromaticDoubleBond AromaticDoubleBond ConjugatedSingleBond NonConjugatedSingleBond AromaticSingleBond NonConjugatedSingleBond NonConjugatedSingleBond ConjugatedSingleBond ConjugatedDoubleBond ConjugatedSingleBond NonConjugatedSingleBond ConjugatedDoubleBond NonConjugatedSingleBond ConjugatedSingleBond AromaticSingleBond AromaticDoubleBond NonConjugatedSingleBond AromaticDoubleBond NonConjugatedSingleBond AromaticSingleBond NonConjugatedSingleBond AromaticSingleBond AromaticDoubleBond ConjugatedSingleBond ConjugatedSingleBond NonConjugatedSingleBond NonConjugatedSingleBond NonConjugatedSingleBond NonConjugatedSingleBond NonConjugatedSingleBond
M  BCL CHI   1   R   4   R   6   R   8   S  44   S  55   S  56   R
M  BCL DBI - - - - - - - - - - E - - -
M  END
> <ConfClashScore>
0.000494373 

> <ConfOneFourInteractionScore>
-0.976187 

> <ConfScore>
0.167588 

> <ConfScorePBest>
0.00521045 

> <ConfTolerance>
3.81689 

$$$$
L02.****
  PyMOL2.5          3D                             0

101104  0  0  0  0  0  0  0  0999 V2000
   15.2601   -4.4085   -5.5175 C   0  0  0  1  0  0  0  0  0  0  0  0
   14.8296   -3.5789   -4.9966 H   0  0  0  1  0  0  0  0  0  0  0  0
   14.4812   -4.7295   -6.6920 O   0  0  0  1  0  0  0  0  0  0  0  0
   15.2131   -5.6704   -4.6510 C   0  0  0  1  0  0  0  0  0  0  0  0
   16.0815   -6.2758   -4.8071 H   0  0  0  1  0  0  0  0  0  0  0  0
   13.9480   -6.0245   -6.6300 C   0  0  0  1  0  0  0  0  0  0  0  0
   14.5512   -6.7098   -7.1880 H   0  0  0  1  0  0  0  0  0  0  0  0
   13.9713   -6.3723   -5.1345 C   0  0  0  1  0  0  0  0  0  0  0  0
   13.0997   -5.9998   -4.6382 H   0  0  0  1  0  0  0  0  0  0  0  0
   15.1069   -5.3373   -3.2661 O   0  0  0  1  0  0  0  0  0  0  0  0
   14.2327   -5.5717   -2.9462 H   0  0  0  1  0  0  0  0  0  0  0  0
    4.3225  -12.0984   -2.2164 C   0  0  0  1  0  0  0  0  0  0  0  0
    5.0138  -12.9044   -2.0846 H   0  0  0  1  0  0  0  0  0  0  0  0
    3.5576  -12.1584   -1.4706 H   0  0  0  1  0  0  0  0  0  0  0  0
    3.6828  -12.2276   -3.5765 C   0  0  0  1  0  0  0  0  0  0  0  0
    4.4490  -12.2400   -4.3233 H   0  0  0  1  0  0  0  0  0  0  0  0
    3.0379  -11.3897   -3.7404 H   0  0  0  1  0  0  0  0  0  0  0  0
    5.0402  -10.8331   -2.0514 N   0  0  0  1  0  0  0  0  0  0  0  0
    4.5813  -10.1107   -1.5739 H   0  0  0  1  0  0  0  0  0  0  0  0
    6.2860  -10.5865   -2.5071 C   0  0  0  1  0  0  0  0  0  0  0  0
    6.9821  -11.4876   -2.9730 O   0  0  0  1  0  0  0  0  0  0  0  0
    8.2150   -8.9688   -2.9470 C   0  0  0  1  0  0  0  0  0  0  0  0
    8.2587   -9.3335   -3.9520 H   0  0  0  1  0  0  0  0  0  0  0  0
    8.8814   -9.5364   -2.3318 H   0  0  0  1  0  0  0  0  0  0  0  0
    6.8010   -9.1756   -2.4294 C   0  0  0  1  0  0  0  0  0  0  0  0
    6.7771   -8.8716   -1.4038 H   0  0  0  1  0  0  0  0  0  0  0  0
    6.1456   -8.5530   -3.0018 H   0  0  0  1  0  0  0  0  0  0  0  0
    8.6687   -7.5768   -2.9470 N   0  0  0  1  0  0  0  0  0  0  0  0
    8.4436   -7.0209   -3.7221 H   0  0  0  1  0  0  0  0  0  0  0  0
    9.6775   -7.6497   -0.9406 O   0  0  0  1  0  0  0  0  0  0  0  0
    9.3769   -7.0106   -1.9480 C   0  0  0  1  0  0  0  0  0  0  0  0
   11.9994   -6.7371   -2.2243 C   0  0  0  1  0  0  0  0  0  0  0  0
   11.6982   -7.3102   -1.3724 H   0  0  0  1  0  0  0  0  0  0  0  0
   13.0619   -6.6110   -2.2124 H   0  0  0  1  0  0  0  0  0  0  0  0
   11.6429   -4.5969   -3.4856 C   0  0  0  1  0  0  0  0  0  0  0  0
   11.2120   -5.1000   -4.3259 H   0  0  0  1  0  0  0  0  0  0  0  0
   12.7049   -4.5468   -3.6064 H   0  0  0  1  0  0  0  0  0  0  0  0
   11.2438   -3.6063   -3.4202 H   0  0  0  1  0  0  0  0  0  0  0  0
   11.3107   -5.3673   -2.2021 C   0  0  0  1  0  0  0  0  0  0  0  0
   11.7974   -4.5740   -0.9893 C   0  0  0  1  0  0  0  0  0  0  0  0
   11.7022   -5.1740   -0.1084 H   0  0  0  1  0  0  0  0  0  0  0  0
   11.2070   -3.6880   -0.8826 H   0  0  0  1  0  0  0  0  0  0  0  0
   12.8237   -4.3048   -1.1279 H   0  0  0  1  0  0  0  0  0  0  0  0
    9.7929   -5.5606   -2.1021 C   0  0  0  1  0  0  0  0  0  0  0  0
    9.4390   -5.0129   -1.2537 H   0  0  0  1  0  0  0  0  0  0  0  0
    9.2714   -4.9808   -3.3025 O   0  0  0  1  0  0  0  0  0  0  0  0
    8.7183   -4.2282   -3.0808 H   0  0  0  1  0  0  0  0  0  0  0  0
   11.5967   -7.4117   -3.4395 O   0  0  0  1  0  0  0  0  0  0  0  0
   11.9252   -8.9516   -5.3372 O   0  0  0  1  0  0  0  0  0  0  0  0
   12.1340   -7.4304   -7.2373 O   0  0  0  1  0  0  0  0  0  0  0  0
   13.2685   -9.3030   -3.2420 O   0  0  0  0  0  0  0  0  0  0  0  0
   10.7639   -9.7025   -3.2537 O   0  0  0  1  0  0  0  0  0  0  0  0
   10.1292   -8.9891   -7.1535 O   0  0  0  0  0  0  0  0  0  0  0  0
   10.3229   -7.0704   -5.5009 O   0  0  0  1  0  0  0  0  0  0  0  0
   11.9148   -8.9345   -3.7301 P   0  0  0  1  0  0  0  0  0  0  0  0
   11.0171   -8.1130   -6.3221 P   0  0  0  1  0  0  0  0  0  0  0  0
   12.5508   -6.0471   -7.1566 C   0  0  0  1  0  0  0  0  0  0  0  0
   12.5204   -5.6001   -8.1283 H   0  0  0  1  0  0  0  0  0  0  0  0
   11.9035   -5.5094   -6.4957 H   0  0  0  1  0  0  0  0  0  0  0  0
   14.0686   -7.8097   -4.9318 O   0  0  0  1  0  0  0  0  0  0  0  0
   16.0901   -7.7509   -6.4439 O   0  0  0  1  0  0  0  0  0  0  0  0
   14.5554   -9.7692   -6.6565 O   0  5  0  1  0  0  0  0  0  0  0  0
   15.2434   -8.6851   -5.6688 P   0  0  0  1  0  0  0  0  0  0  0  0
   16.1268   -9.4140   -4.5230 O   0  5  0  1  0  0  0  0  0  0  0  0
   16.6408   -4.0901   -5.8876 N   0  0  0  1  0  0  0  0  0  0  0  0
   17.6540   -3.8616   -4.9927 C   0  0  0  1  0  0  0  0  0  0  0  0
   17.1729   -3.8480   -7.1168 C   0  0  0  1  0  0  0  0  0  0  0  0
   16.6198   -3.9373   -7.9930 H   0  0  0  1  0  0  0  0  0  0  0  0
   18.7622   -3.4935   -5.7673 C   0  0  0  1  0  0  0  0  0  0  0  0
   17.6127   -3.9764   -3.6645 N   0  0  0  1  0  0  0  0  0  0  0  0
   18.4297   -3.4954   -7.1130 N   0  0  0  1  0  0  0  0  0  0  0  0
   19.9281   -3.2251   -5.0563 C   0  0  0  1  0  0  0  0  0  0  0  0
   18.7862   -3.6842   -3.1174 C   0  0  0  1  0  0  0  0  0  0  0  0
   18.8273   -3.7483   -2.0802 H   0  0  0  1  0  0  0  0  0  0  0  0
   19.9271   -3.3172   -3.7220 N   0  0  0  1  0  0  0  0  0  0  0  0
   21.0910   -2.7751   -5.6598 N   0  0  0  1  0  0  0  0  0  0  0  0
   21.9206   -3.2889   -5.5691 H   0  0  0  1  0  0  0  0  0  0  0  0
   21.0841   -1.9430   -6.1774 H   0  0  0  1  0  0  0  0  0  0  0  0
    2.7149  -13.7506   -3.6982 S   0  0  0  1  0  0  0  0  0  0  0  0
    1.0912  -12.2744   -2.2362 O   0  0  0  1  0  0  0  0  0  0  0  0
    1.2231  -13.3197   -2.8297 C   0  0  0  1  0  0  0  0  0  0  0  0
    0.1807  -14.3367   -2.8991 C   0  0  0  1  0  0  0  0  0  0  0  0
    0.3803  -15.1841   -3.4680 H   0  0  0  1  0  0  0  0  0  0  0  0
   -1.0057  -14.2734   -2.2960 C   0  0  0  1  0  0  0  0  0  0  0  0
   -1.1629  -13.4097   -1.7383 H   0  0  0  1  0  0  0  0  0  0  0  0
   -2.1371  -15.2275   -2.2874 C   0  0  0  1  0  0  0  0  0  0  0  0
   -3.4404  -14.8114   -2.0648 C   0  0  0  1  0  0  0  0  0  0  0  0
   -3.6442  -13.8047   -1.9018 H   0  0  0  1  0  0  0  0  0  0  0  0
   -1.8671  -16.5647   -2.5093 C   0  0  0  1  0  0  0  0  0  0  0  0
   -0.8897  -16.8763   -2.6803 H   0  0  0  1  0  0  0  0  0  0  0  0
   -4.4693  -15.7343   -2.0593 C   0  0  0  1  0  0  0  0  0  0  0  0
   -5.4466  -15.4226   -1.8882 H   0  0  0  1  0  0  0  0  0  0  0  0
   -2.8988  -17.4905   -2.5039 C   0  0  0  1  0  0  0  0  0  0  0  0
   -4.1983  -17.0755   -2.2818 C   0  0  0  1  0  0  0  0  0  0  0  0
   -5.1736  -18.0165   -2.2911 O   0  0  0  1  0  0  0  0  0  0  0  0
   -5.0162  -18.6340   -3.0091 H   0  0  0  1  0  0  0  0  0  0  0  0
   -2.6055  -18.7734   -2.8233 O   0  0  0  1  0  0  0  0  0  0  0  0
   -1.2174  -19.1137   -2.9639 C   0  0  0  1  0  0  0  0  0  0  0  0
   -1.1288  -20.0447   -3.4838 H   0  0  0  1  0  0  0  0  0  0  0  0
   -0.7724  -19.2029   -1.9949 H   0  0  0  1  0  0  0  0  0  0  0  0
   -0.7168  -18.3472   -3.5176 H   0  0  0  1  0  0  0  0  0  0  0  0
  1  2  1  0  0  0  0
  1  3  1  0  0  0  0
  1  4  1  0  0  0  0
  1 65  1  0  0  0  0
  3  6  1  0  0  0  0
  4  5  1  0  0  0  0
  4  8  1  0  0  0  0
  4 10  1  0  0  0  0
  6  7  1  0  0  0  0
  6  8  1  0  0  0  0
  6 57  1  0  0  0  0
  8  9  1  0  0  0  0
  8 60  1  0  0  0  0
 10 11  1  0  0  0  0
 12 13  1  0  0  0  0
 12 14  1  0  0  0  0
 12 15  1  0  0  0  0
 12 18  1  0  0  0  0
 15 16  1  0  0  0  0
 15 17  1  0  0  0  0
 15 79  1  0  0  0  0
 18 19  1  0  0  0  0
 18 20  1  0  0  0  0
 20 21  2  0  0  0  0
 20 25  1  0  0  0  0
 22 23  1  0  0  0  0
 22 24  1  0  0  0  0
 22 25  1  0  0  0  0
 22 28  1  0  0  0  0
 25 26  1  0  0  0  0
 25 27  1  0  0  0  0
 28 29  1  0  0  0  0
 28 31  1  0  0  0  0
 30 31  2  0  0  0  0
 31 44  1  0  0  0  0
 32 33  1  0  0  0  0
 32 34  1  0  0  0  0
 32 39  1  0  0  0  0
 32 48  1  0  0  0  0
 35 36  1  0  0  0  0
 35 37  1  0  0  0  0
 35 38  1  0  0  0  0
 35 39  1  0  0  0  0
 39 40  1  0  0  0  0
 39 44  1  0  0  0  0
 40 41  1  0  0  0  0
 40 42  1  0  0  0  0
 40 43  1  0  0  0  0
 44 45  1  0  0  0  0
 44 46  1  0  0  0  0
 46 47  1  0  0  0  0
 48 55  1  0  0  0  0
 49 55  1  0  0  0  0
 49 56  1  0  0  0  0
 50 56  1  0  0  0  0
 50 57  1  0  0  0  0
 51 55  1  0  0  0  0
 52 55  2  0  0  0  0
 53 56  1  0  0  0  0
 54 56  2  0  0  0  0
 57 58  1  0  0  0  0
 57 59  1  0  0  0  0
 60 63  1  0  0  0  0
 61 63  2  0  0  0  0
 62 63  1  0  0  0  0
 63 64  1  0  0  0  0
 65 66  1  0  0  0  0
 65 67  1  0  0  0  0
 66 69  2  0  0  0  0
 66 70  1  0  0  0  0
 67 68  1  0  0  0  0
 67 71  2  0  0  0  0
 69 71  1  0  0  0  0
 69 72  1  0  0  0  0
 70 73  2  0  0  0  0
 72 75  2  0  0  0  0
 72 76  1  0  0  0  0
 73 74  1  0  0  0  0
 73 75  1  0  0  0  0
 76 77  1  0  0  0  0
 76 78  1  0  0  0  0
 79 81  1  0  0  0  0
 80 81  2  0  0  0  0
 81 82  1  0  0  0  0
 82 83  1  0  0  0  0
 82 84  2  0  0  0  0
 84 85  1  0  0  0  0
 84 86  1  0  0  0  0
 86 87  1  0  0  0  0
 86 89  2  0  0  0  0
 87 88  1  0  0  0  0
 87 91  2  0  0  0  0
 89 90  1  0  0  0  0
 89 93  1  0  0  0  0
 91 92  1  0  0  0  0
 91 94  1  0  0  0  0
 93 94  2  0  0  0  0
 93 97  1  0  0  0  0
 94 95  1  0  0  0  0
 95 96  1  0  0  0  0
 97 98  1  0  0  0  0
 98 99  1  0  0  0  0
 98100  1  0  0  0  0
 98101  1  0  0  0  0
M  BCL ATM C_TeTeTeTe H_S O_Te2Te2TeTe C_TeTeTeTe H_S C_TeTeTeTe H_S C_TeTeTeTe H_S O_Te2Te2TeTe H_S C_TeTeTeTe H_S H_S C_TeTeTeTe H_S H_S N_TrTrTrPi2 H_S C_TrTrTrPi O_Tr2Tr2TrPi C_TeTeTeTe H_S H_S C_TeTeTeTe H_S H_S N_TrTrTrPi2 H_S O_Tr2Tr2TrPi C_TrTrTrPi C_TeTeTeTe H_S H_S C_TeTeTeTe H_S H_S H_S C_TeTeTeTe C_TeTeTeTe H_S H_S H_S C_TeTeTeTe H_S O_Te2Te2TeTe H_S O_Tr2TrTrPi2 O_Tr2TrTrPi2 O_Tr2TrTrPi2 O_Te2Te2TeTe O_Tr2Tr2TrPi O_Te2Te2TeTe O_Tr2Tr2TrPi P_TeTeTeTePi P_TeTeTeTePi C_TeTeTeTe H_S H_S O_Tr2TrTrPi2 O_Tr2Tr2TrPi O_Te2Te2Te2Te P_TeTeTeTePi O_Te2Te2Te2Te N_TrTrTrPi2 C_TrTrTrPi C_TrTrTrPi H_S C_TrTrTrPi N_Tr2TrTrPi N_Tr2TrTrPi C_TrTrTrPi C_TrTrTrPi H_S N_Tr2TrTrPi N_TrTrTrPi2 H_S H_S S_Te2Te2TeTe O_Tr2Tr2TrPi C_TrTrTrPi C_TrTrTrPi H_S C_TrTrTrPi H_S C_TrTrTrPi C_TrTrTrPi H_S C_TrTrTrPi H_S C_TrTrTrPi H_S C_TrTrTrPi C_TrTrTrPi O_Te2Te2TeTe H_S O_Tr2TrTrPi2 C_TeTeTeTe H_S H_S H_S
M  BCL BND NonConjugatedSingleBond NonConjugatedSingleBondInRing NonConjugatedSingleBondInRing NonConjugatedSingleBond NonConjugatedSingleBondInRing NonConjugatedSingleBond NonConjugatedSingleBondInRing NonConjugatedSingleBond NonConjugatedSingleBond NonConjugatedSingleBondInRing NonConjugatedSingleBond NonConjugatedSingleBond NonConjugatedSingleBond NonConjugatedSingleBond NonConjugatedSingleBond NonConjugatedSingleBond NonConjugatedSingleBond NonConjugatedSingleBond NonConjugatedSingleBond NonConjugatedSingleBond NonConjugatedSingleBond NonConjugatedSingleBond AmideSingleBond ConjugatedDoubleBond NonConjugatedSingleBond NonConjugatedSingleBond NonConjugatedSingleBond NonConjugatedSingleBond NonConjugatedSingleBond NonConjugatedSingleBond NonConjugatedSingleBond NonConjugatedSingleBond AmideSingleBond ConjugatedDoubleBond NonConjugatedSingleBond NonConjugatedSingleBond NonConjugatedSingleBond NonConjugatedSingleBond NonConjugatedSingleBond NonConjugatedSingleBond NonConjugatedSingleBond NonConjugatedSingleBond NonConjugatedSingleBond NonConjugatedSingleBond NonConjugatedSingleBond NonConjugatedSingleBond NonConjugatedSingleBond NonConjugatedSingleBond NonConjugatedSingleBond NonConjugatedSingleBond NonConjugatedSingleBond ConjugatedSingleBond ConjugatedSingleBond ConjugatedSingleBond ConjugatedSingleBond NonConjugatedSingleBond ConjugatedSingleBond ConjugatedDoubleBond ConjugatedSingleBond ConjugatedDoubleBond NonConjugatedSingleBond NonConjugatedSingleBond ConjugatedSingleBond ConjugatedDoubleBond ConjugatedSingleBond ConjugatedSingleBond AromaticSingleBond AromaticSingleBond AromaticDoubleBond AromaticSingleBond NonConjugatedSingleBond AromaticDoubleBond AromaticSingleBond AromaticSingleBond AromaticDoubleBond AromaticDoubleBond ConjugatedSingleBond NonConjugatedSingleBond AromaticSingleBond NonConjugatedSingleBond NonConjugatedSingleBond ConjugatedSingleBond ConjugatedDoubleBond ConjugatedSingleBond NonConjugatedSingleBond ConjugatedDoubleBond NonConjugatedSingleBond ConjugatedSingleBond AromaticSingleBond AromaticDoubleBond NonConjugatedSingleBond AromaticDoubleBond NonConjugatedSingleBond AromaticSingleBond NonConjugatedSingleBond AromaticSingleBond AromaticDoubleBond ConjugatedSingleBond ConjugatedSingleBond NonConjugatedSingleBond NonConjugatedSingleBond NonConjugatedSingleBond NonConjugatedSingleBond NonConjugatedSingleBond
M  BCL CHI   1   R   4   R   6   R   8   S  44   S  55   S  56   R
M  BCL DBI - - - - - - - - - - E - - -
M  END
> <ConfClashScore>
0 

> <ConfOneFourInteractionScore>
-0.978331 

> <ConfScore>
0.188714 

> <ConfScorePBest>
0.00510745 

> <ConfTolerance>
5.88831 

$$$$
L02.****
  PyMOL2.5          3D                             0

101104  0  0  0  0  0  0  0  0999 V2000
   15.2709   -4.5013   -5.5339 C   0  0  0  1  0  0  0  0  0  0  0  0
   15.3045   -5.5700   -5.4940 H   0  0  0  1  0  0  0  0  0  0  0  0
   14.8591   -3.9853   -4.2772 O   0  0  0  1  0  0  0  0  0  0  0  0
   14.3263   -4.0847   -6.5111 C   0  0  0  1  0  0  0  0  0  0  0  0
   14.8135   -3.4942   -7.2586 H   0  0  0  1  0  0  0  0  0  0  0  0
   13.6610   -3.2482   -4.4777 C   0  0  0  1  0  0  0  0  0  0  0  0
   13.8085   -2.2296   -4.1852 H   0  0  0  1  0  0  0  0  0  0  0  0
   13.3322   -3.3098   -5.8568 C   0  0  0  1  0  0  0  0  0  0  0  0
   12.3738   -3.7691   -5.9813 H   0  0  0  1  0  0  0  0  0  0  0  0
   13.7257   -5.2272   -7.1227 O   0  0  0  1  0  0  0  0  0  0  0  0
   13.4852   -5.8639   -6.4456 H   0  0  0  1  0  0  0  0  0  0  0  0
   12.0706   -4.7729   -9.3939 C   0  0  0  1  0  0  0  0  0  0  0  0
   12.5999   -3.8778   -9.1421 H   0  0  0  1  0  0  0  0  0  0  0  0
   12.7704   -5.5502   -9.6195 H   0  0  0  1  0  0  0  0  0  0  0  0
   11.2050   -4.5162  -10.6026 C   0  0  0  1  0  0  0  0  0  0  0  0
   10.4659   -3.7874  -10.3428 H   0  0  0  1  0  0  0  0  0  0  0  0
   10.7233   -5.4316  -10.8764 H   0  0  0  1  0  0  0  0  0  0  0  0
   11.2445   -5.1818   -8.2565 N   0  0  0  1  0  0  0  0  0  0  0  0
   10.9576   -4.5019   -7.6117 H   0  0  0  1  0  0  0  0  0  0  0  0
   10.8681   -6.4497   -8.0671 C   0  0  0  1  0  0  0  0  0  0  0  0
   11.1793   -7.3551   -8.8233 O   0  0  0  1  0  0  0  0  0  0  0  0
    9.9340   -8.1791   -6.4842 C   0  0  0  1  0  0  0  0  0  0  0  0
   10.9082   -8.5238   -6.2067 H   0  0  0  1  0  0  0  0  0  0  0  0
    9.5930   -8.7232   -7.3402 H   0  0  0  1  0  0  0  0  0  0  0  0
   10.0237   -6.7059   -6.8475 C   0  0  0  1  0  0  0  0  0  0  0  0
    9.0356   -6.3405   -7.0345 H   0  0  0  1  0  0  0  0  0  0  0  0
   10.4498   -6.1767   -6.0209 H   0  0  0  1  0  0  0  0  0  0  0  0
    9.0141   -8.4284   -5.3729 N   0  0  0  1  0  0  0  0  0  0  0  0
    8.5405   -7.6700   -4.9718 H   0  0  0  1  0  0  0  0  0  0  0  0
    9.3186  -10.6617   -5.3573 O   0  0  0  1  0  0  0  0  0  0  0  0
    8.7978   -9.6539   -4.8866 C   0  0  0  1  0  0  0  0  0  0  0  0
    9.9392   -9.4682   -2.3409 C   0  0  0  1  0  0  0  0  0  0  0  0
   10.3681   -9.6623   -1.3801 H   0  0  0  1  0  0  0  0  0  0  0  0
    9.7540   -8.4195   -2.4442 H   0  0  0  1  0  0  0  0  0  0  0  0
    7.7820   -9.9227   -1.2145 C   0  0  0  1  0  0  0  0  0  0  0  0
    8.2487   -9.1364   -0.6588 H   0  0  0  1  0  0  0  0  0  0  0  0
    7.7175  -10.8000   -0.6053 H   0  0  0  1  0  0  0  0  0  0  0  0
    6.7988   -9.6177   -1.5066 H   0  0  0  1  0  0  0  0  0  0  0  0
    8.6143  -10.2294   -2.4652 C   0  0  0  1  0  0  0  0  0  0  0  0
    8.8966  -11.7341   -2.5456 C   0  0  0  1  0  0  0  0  0  0  0  0
    9.5326  -12.0220   -1.7347 H   0  0  0  1  0  0  0  0  0  0  0  0
    9.3798  -11.9570   -3.4739 H   0  0  0  1  0  0  0  0  0  0  0  0
    7.9746  -12.2735   -2.4844 H   0  0  0  1  0  0  0  0  0  0  0  0
    7.8580   -9.7351   -3.7013 C   0  0  0  1  0  0  0  0  0  0  0  0
    7.0897  -10.4445   -3.9281 H   0  0  0  1  0  0  0  0  0  0  0  0
    7.2688   -8.4694   -3.4123 O   0  0  0  1  0  0  0  0  0  0  0  0
    7.6363   -8.1239   -2.5955 H   0  0  0  1  0  0  0  0  0  0  0  0
   10.8640   -9.8925   -3.3701 O   0  0  0  1  0  0  0  0  0  0  0  0
   12.0590   -7.6338   -3.5812 O   0  0  0  1  0  0  0  0  0  0  0  0
   12.3800   -5.2323   -4.0298 O   0  0  0  1  0  0  0  0  0  0  0  0
   13.0312   -9.3448   -2.1104 O   0  0  0  0  0  0  0  0  0  0  0  0
   12.9823   -9.8003   -4.6051 O   0  0  0  1  0  0  0  0  0  0  0  0
   12.1074   -5.9947   -1.6542 O   0  0  0  0  0  0  0  0  0  0  0  0
   14.1870   -6.5961   -2.9723 O   0  0  0  1  0  0  0  0  0  0  0  0
   12.3360   -9.2204   -3.4149 P   0  0  0  1  0  0  0  0  0  0  0  0
   12.7436   -6.3570   -2.9443 P   0  0  0  1  0  0  0  0  0  0  0  0
   12.5709   -3.8378   -3.6767 C   0  0  0  1  0  0  0  0  0  0  0  0
   11.6653   -3.2997   -3.8641 H   0  0  0  1  0  0  0  0  0  0  0  0
   12.8194   -3.7681   -2.6383 H   0  0  0  1  0  0  0  0  0  0  0  0
   13.3043   -1.9751   -6.4149 O   0  0  0  1  0  0  0  0  0  0  0  0
   11.0557   -2.5004   -7.5938 O   0  0  0  1  0  0  0  0  0  0  0  0
   13.0527   -1.5052   -8.9342 O   0  5  0  1  0  0  0  0  0  0  0  0
   12.2015   -1.5642   -7.5571 P   0  0  0  1  0  0  0  0  0  0  0  0
   11.7805   -0.0280   -7.2618 O   0  5  0  1  0  0  0  0  0  0  0  0
   16.5986   -3.9825   -5.8732 N   0  0  0  1  0  0  0  0  0  0  0  0
   17.6410   -3.8359   -4.9948 C   0  0  0  1  0  0  0  0  0  0  0  0
   17.0986   -3.6563   -7.0965 C   0  0  0  1  0  0  0  0  0  0  0  0
   16.5189   -3.6718   -7.9598 H   0  0  0  1  0  0  0  0  0  0  0  0
   18.7321   -3.4261   -5.7730 C   0  0  0  1  0  0  0  0  0  0  0  0
   17.6365   -4.0495   -3.6783 N   0  0  0  1  0  0  0  0  0  0  0  0
   18.3605   -3.3225   -7.1044 N   0  0  0  1  0  0  0  0  0  0  0  0
   19.9223   -3.2281   -5.0794 C   0  0  0  1  0  0  0  0  0  0  0  0
   18.8300   -3.8155   -3.1466 C   0  0  0  1  0  0  0  0  0  0  0  0
   18.9003   -3.9578   -2.1187 H   0  0  0  1  0  0  0  0  0  0  0  0
   19.9586   -3.4200   -3.7564 N   0  0  0  1  0  0  0  0  0  0  0  0
   21.1319   -2.8343   -5.6413 N   0  0  0  1  0  0  0  0  0  0  0  0
   21.1889   -1.9940   -6.1424 H   0  0  0  1  0  0  0  0  0  0  0  0
   21.9274   -3.3970   -5.5361 H   0  0  0  1  0  0  0  0  0  0  0  0
   12.1356   -3.9075  -12.0290 S   0  0  0  1  0  0  0  0  0  0  0  0
   14.1350   -5.3799  -12.9762 O   0  0  0  1  0  0  0  0  0  0  0  0
   12.9933   -5.3780  -12.5776 C   0  0  0  1  0  0  0  0  0  0  0  0
   12.1292   -6.5499  -12.4751 C   0  0  0  1  0  0  0  0  0  0  0  0
   11.1924   -6.4906  -12.9229 H   0  0  0  1  0  0  0  0  0  0  0  0
   12.4379   -7.6892  -11.8569 C   0  0  0  1  0  0  0  0  0  0  0  0
   13.3641   -7.7924  -11.3954 H   0  0  0  1  0  0  0  0  0  0  0  0
   11.4703   -8.8087  -11.8233 C   0  0  0  1  0  0  0  0  0  0  0  0
   11.8231  -10.0638  -11.3523 C   0  0  0  1  0  0  0  0  0  0  0  0
   12.7885  -10.2369  -11.0066 H   0  0  0  1  0  0  0  0  0  0  0  0
   10.1858   -8.5773  -12.2777 C   0  0  0  1  0  0  0  0  0  0  0  0
    9.9199   -7.6346  -12.6274 H   0  0  0  1  0  0  0  0  0  0  0  0
   10.8919  -11.0851  -11.3420 C   0  0  0  1  0  0  0  0  0  0  0  0
   11.1578  -12.0278  -10.9924 H   0  0  0  1  0  0  0  0  0  0  0  0
    9.2517   -9.6014  -12.2676 C   0  0  0  1  0  0  0  0  0  0  0  0
    9.6036  -10.8528  -11.7979 C   0  0  0  1  0  0  0  0  0  0  0  0
    8.7070  -11.8688  -11.7729 O   0  0  0  1  0  0  0  0  0  0  0  0
    8.5468  -12.1769  -12.6679 H   0  0  0  1  0  0  0  0  0  0  0  0
    7.9698   -9.3539  -12.6273 O   0  0  0  1  0  0  0  0  0  0  0  0
    7.6505   -8.0156  -13.0390 C   0  0  0  1  0  0  0  0  0  0  0  0
    6.6100   -7.9551  -13.2810 H   0  0  0  1  0  0  0  0  0  0  0  0
    8.2322   -7.7592  -13.8997 H   0  0  0  1  0  0  0  0  0  0  0  0
    7.8715   -7.3356  -12.2430 H   0  0  0  1  0  0  0  0  0  0  0  0
  1  2  1  0  0  0  0
  1  3  1  0  0  0  0
  1  4  1  0  0  0  0
  1 65  1  0  0  0  0
  3  6  1  0  0  0  0
  4  5  1  0  0  0  0
  4  8  1  0  0  0  0
  4 10  1  0  0  0  0
  6  7  1  0  0  0  0
  6  8  1  0  0  0  0
  6 57  1  0  0  0  0
  8  9  1  0  0  0  0
  8 60  1  0  0  0  0
 10 11  1  0  0  0  0
 12 13  1  0  0  0  0
 12 14  1  0  0  0  0
 12 15  1  0  0  0  0
 12 18  1  0  0  0  0
 15 16  1  0  0  0  0
 15 17  1  0  0  0  0
 15 79  1  0  0  0  0
 18 19  1  0  0  0  0
 18 20  1  0  0  0  0
 20 21  2  0  0  0  0
 20 25  1  0  0  0  0
 22 23  1  0  0  0  0
 22 24  1  0  0  0  0
 22 25  1  0  0  0  0
 22 28  1  0  0  0  0
 25 26  1  0  0  0  0
 25 27  1  0  0  0  0
 28 29  1  0  0  0  0
 28 31  1  0  0  0  0
 30 31  2  0  0  0  0
 31 44  1  0  0  0  0
 32 33  1  0  0  0  0
 32 34  1  0  0  0  0
 32 39  1  0  0  0  0
 32 48  1  0  0  0  0
 35 36  1  0  0  0  0
 35 37  1  0  0  0  0
 35 38  1  0  0  0  0
 35 39  1  0  0  0  0
 39 40  1  0  0  0  0
 39 44  1  0  0  0  0
 40 41  1  0  0  0  0
 40 42  1  0  0  0  0
 40 43  1  0  0  0  0
 44 45  1  0  0  0  0
 44 46  1  0  0  0  0
 46 47  1  0  0  0  0
 48 55  1  0  0  0  0
 49 55  1  0  0  0  0
 49 56  1  0  0  0  0
 50 56  1  0  0  0  0
 50 57  1  0  0  0  0
 51 55  1  0  0  0  0
 52 55  2  0  0  0  0
 53 56  1  0  0  0  0
 54 56  2  0  0  0  0
 57 58  1  0  0  0  0
 57 59  1  0  0  0  0
 60 63  1  0  0  0  0
 61 63  2  0  0  0  0
 62 63  1  0  0  0  0
 63 64  1  0  0  0  0
 65 66  1  0  0  0  0
 65 67  1  0  0  0  0
 66 69  2  0  0  0  0
 66 70  1  0  0  0  0
 67 68  1  0  0  0  0
 67 71  2  0  0  0  0
 69 71  1  0  0  0  0
 69 72  1  0  0  0  0
 70 73  2  0  0  0  0
 72 75  2  0  0  0  0
 72 76  1  0  0  0  0
 73 74  1  0  0  0  0
 73 75  1  0  0  0  0
 76 77  1  0  0  0  0
 76 78  1  0  0  0  0
 79 81  1  0  0  0  0
 80 81  2  0  0  0  0
 81 82  1  0  0  0  0
 82 83  1  0  0  0  0
 82 84  2  0  0  0  0
 84 85  1  0  0  0  0
 84 86  1  0  0  0  0
 86 87  1  0  0  0  0
 86 89  2  0  0  0  0
 87 88  1  0  0  0  0
 87 91  2  0  0  0  0
 89 90  1  0  0  0  0
 89 93  1  0  0  0  0
 91 92  1  0  0  0  0
 91 94  1  0  0  0  0
 93 94  2  0  0  0  0
 93 97  1  0  0  0  0
 94 95  1  0  0  0  0
 95 96  1  0  0  0  0
 97 98  1  0  0  0  0
 98 99  1  0  0  0  0
 98100  1  0  0  0  0
 98101  1  0  0  0  0
M  BCL ATM C_TeTeTeTe H_S O_Te2Te2TeTe C_TeTeTeTe H_S C_TeTeTeTe H_S C_TeTeTeTe H_S O_Te2Te2TeTe H_S C_TeTeTeTe H_S H_S C_TeTeTeTe H_S H_S N_TrTrTrPi2 H_S C_TrTrTrPi O_Tr2Tr2TrPi C_TeTeTeTe H_S H_S C_TeTeTeTe H_S H_S N_TrTrTrPi2 H_S O_Tr2Tr2TrPi C_TrTrTrPi C_TeTeTeTe H_S H_S C_TeTeTeTe H_S H_S H_S C_TeTeTeTe C_TeTeTeTe H_S H_S H_S C_TeTeTeTe H_S O_Te2Te2TeTe H_S O_Tr2TrTrPi2 O_Tr2TrTrPi2 O_Tr2TrTrPi2 O_Te2Te2TeTe O_Tr2Tr2TrPi O_Te2Te2TeTe O_Tr2Tr2TrPi P_TeTeTeTePi P_TeTeTeTePi C_TeTeTeTe H_S H_S O_Tr2TrTrPi2 O_Tr2Tr2TrPi O_Te2Te2Te2Te P_TeTeTeTePi O_Te2Te2Te2Te N_TrTrTrPi2 C_TrTrTrPi C_TrTrTrPi H_S C_TrTrTrPi N_Tr2TrTrPi N_Tr2TrTrPi C_TrTrTrPi C_TrTrTrPi H_S N_Tr2TrTrPi N_TrTrTrPi2 H_S H_S S_Te2Te2TeTe O_Tr2Tr2TrPi C_TrTrTrPi C_TrTrTrPi H_S C_TrTrTrPi H_S C_TrTrTrPi C_TrTrTrPi H_S C_TrTrTrPi H_S C_TrTrTrPi H_S C_TrTrTrPi C_TrTrTrPi O_Te2Te2TeTe H_S O_Tr2TrTrPi2 C_TeTeTeTe H_S H_S H_S
M  BCL BND NonConjugatedSingleBond NonConjugatedSingleBondInRing NonConjugatedSingleBondInRing NonConjugatedSingleBond NonConjugatedSingleBondInRing NonConjugatedSingleBond NonConjugatedSingleBondInRing NonConjugatedSingleBond NonConjugatedSingleBond NonConjugatedSingleBondInRing NonConjugatedSingleBond NonConjugatedSingleBond NonConjugatedSingleBond NonConjugatedSingleBond NonConjugatedSingleBond NonConjugatedSingleBond NonConjugatedSingleBond NonConjugatedSingleBond NonConjugatedSingleBond NonConjugatedSingleBond NonConjugatedSingleBond NonConjugatedSingleBond AmideSingleBond ConjugatedDoubleBond NonConjugatedSingleBond NonConjugatedSingleBond NonConjugatedSingleBond NonConjugatedSingleBond NonConjugatedSingleBond NonConjugatedSingleBond NonConjugatedSingleBond NonConjugatedSingleBond AmideSingleBond ConjugatedDoubleBond NonConjugatedSingleBond NonConjugatedSingleBond NonConjugatedSingleBond NonConjugatedSingleBond NonConjugatedSingleBond NonConjugatedSingleBond NonConjugatedSingleBond NonConjugatedSingleBond NonConjugatedSingleBond NonConjugatedSingleBond NonConjugatedSingleBond NonConjugatedSingleBond NonConjugatedSingleBond NonConjugatedSingleBond NonConjugatedSingleBond NonConjugatedSingleBond NonConjugatedSingleBond ConjugatedSingleBond ConjugatedSingleBond ConjugatedSingleBond ConjugatedSingleBond NonConjugatedSingleBond ConjugatedSingleBond ConjugatedDoubleBond ConjugatedSingleBond ConjugatedDoubleBond NonConjugatedSingleBond NonConjugatedSingleBond ConjugatedSingleBond ConjugatedDoubleBond ConjugatedSingleBond ConjugatedSingleBond AromaticSingleBond AromaticSingleBond AromaticDoubleBond AromaticSingleBond NonConjugatedSingleBond AromaticDoubleBond AromaticSingleBond AromaticSingleBond AromaticDoubleBond AromaticDoubleBond ConjugatedSingleBond NonConjugatedSingleBond AromaticSingleBond NonConjugatedSingleBond NonConjugatedSingleBond ConjugatedSingleBond ConjugatedDoubleBond ConjugatedSingleBond NonConjugatedSingleBond ConjugatedDoubleBond NonConjugatedSingleBond ConjugatedSingleBond AromaticSingleBond AromaticDoubleBond NonConjugatedSingleBond AromaticDoubleBond NonConjugatedSingleBond AromaticSingleBond NonConjugatedSingleBond AromaticSingleBond AromaticDoubleBond ConjugatedSingleBond ConjugatedSingleBond NonConjugatedSingleBond NonConjugatedSingleBond NonConjugatedSingleBond NonConjugatedSingleBond NonConjugatedSingleBond
M  BCL CHI   1   R   4   R   6   R   8   S  44   S  55   S  56   R
M  BCL DBI - - - - - - - - - - E - - -
M  END
> <ConfClashScore>
0 

> <ConfOneFourInteractionScore>
-0.98169 

> <ConfScore>
0.193258 

> <ConfScorePBest>
0.00500445 

> <ConfTolerance>
4.49598 

$$$$
L02.****
  PyMOL2.5          3D                             0

101104  0  0  0  0  0  0  0  0999 V2000
   15.2497   -4.4837   -5.5592 C   0  0  0  1  0  0  0  0  0  0  0  0
   14.6959   -3.6587   -5.1621 H   0  0  0  1  0  0  0  0  0  0  0  0
   14.6213   -4.9661   -6.7133 O   0  0  0  1  0  0  0  0  0  0  0  0
   15.2939   -5.6254   -4.5314 C   0  0  0  1  0  0  0  0  0  0  0  0
   16.2561   -5.6898   -4.0677 H   0  0  0  1  0  0  0  0  0  0  0  0
   14.1422   -6.3296   -6.5062 C   0  0  0  1  0  0  0  0  0  0  0  0
   14.2645   -6.9133   -7.3947 H   0  0  0  1  0  0  0  0  0  0  0  0
   15.0101   -6.8649   -5.3905 C   0  0  0  1  0  0  0  0  0  0  0  0
   14.4903   -7.6105   -4.8259 H   0  0  0  1  0  0  0  0  0  0  0  0
   14.2918   -5.4540   -3.5282 O   0  0  0  1  0  0  0  0  0  0  0  0
   14.0777   -4.5219   -3.4451 H   0  0  0  1  0  0  0  0  0  0  0  0
   16.7258   -1.5131  -12.0019 C   0  0  0  1  0  0  0  0  0  0  0  0
   16.2903   -1.0759  -12.8760 H   0  0  0  1  0  0  0  0  0  0  0  0
   16.4689   -0.9277  -11.1439 H   0  0  0  1  0  0  0  0  0  0  0  0
   18.2298   -1.5111  -12.1571 C   0  0  0  1  0  0  0  0  0  0  0  0
   18.5375   -0.5132  -12.3905 H   0  0  0  1  0  0  0  0  0  0  0  0
   18.4800   -2.1612  -12.9694 H   0  0  0  1  0  0  0  0  0  0  0  0
   16.1808   -2.8610  -11.8304 N   0  0  0  1  0  0  0  0  0  0  0  0
   15.8524   -3.1295  -10.9470 H   0  0  0  1  0  0  0  0  0  0  0  0
   16.1149   -3.7464  -12.8463 C   0  0  0  1  0  0  0  0  0  0  0  0
   16.3963   -3.4151  -13.9973 O   0  0  0  1  0  0  0  0  0  0  0  0
   14.3186   -5.5897  -13.0030 C   0  0  0  1  0  0  0  0  0  0  0  0
   14.0076   -6.4317  -12.4205 H   0  0  0  1  0  0  0  0  0  0  0  0
   14.3849   -5.8727  -14.0327 H   0  0  0  1  0  0  0  0  0  0  0  0
   15.6867   -5.1533  -12.5314 C   0  0  0  1  0  0  0  0  0  0  0  0
   15.7091   -5.2642  -11.4674 H   0  0  0  1  0  0  0  0  0  0  0  0
   16.4034   -5.8128  -12.9744 H   0  0  0  1  0  0  0  0  0  0  0  0
   13.3153   -4.5317  -12.8710 N   0  0  0  1  0  0  0  0  0  0  0  0
   13.4456   -3.8386  -12.1905 H   0  0  0  1  0  0  0  0  0  0  0  0
   12.0751   -5.2477  -14.6025 O   0  0  0  1  0  0  0  0  0  0  0  0
   12.2176   -4.4778  -13.6535 C   0  0  0  1  0  0  0  0  0  0  0  0
    9.4974   -5.0841  -12.4041 C   0  0  0  1  0  0  0  0  0  0  0  0
   10.1573   -5.8991  -12.6166 H   0  0  0  1  0  0  0  0  0  0  0  0
    8.4831   -5.4156  -12.4836 H   0  0  0  1  0  0  0  0  0  0  0  0
    8.7133   -2.8567  -13.2221 C   0  0  0  1  0  0  0  0  0  0  0  0
    9.1313   -1.9264  -13.5460 H   0  0  0  1  0  0  0  0  0  0  0  0
    8.4687   -2.7948  -12.1823 H   0  0  0  1  0  0  0  0  0  0  0  0
    7.8279   -3.0650  -13.7856 H   0  0  0  1  0  0  0  0  0  0  0  0
    9.7339   -3.9800  -13.4407 C   0  0  0  1  0  0  0  0  0  0  0  0
    9.5151   -4.5677  -14.8390 C   0  0  0  1  0  0  0  0  0  0  0  0
    8.4658   -4.6481  -15.0325 H   0  0  0  1  0  0  0  0  0  0  0  0
    9.9627   -5.5381  -14.8918 H   0  0  0  1  0  0  0  0  0  0  0  0
    9.9640   -3.9271  -15.5691 H   0  0  0  1  0  0  0  0  0  0  0  0
   11.1647   -3.4418  -13.3307 C   0  0  0  1  0  0  0  0  0  0  0  0
   11.2640   -2.6445  -14.0373 H   0  0  0  1  0  0  0  0  0  0  0  0
   11.3220   -2.9202  -12.0220 O   0  0  0  1  0  0  0  0  0  0  0  0
   11.5030   -3.6379  -11.4106 H   0  0  0  1  0  0  0  0  0  0  0  0
    9.7334   -4.6403  -11.0463 O   0  0  0  1  0  0  0  0  0  0  0  0
    9.9658   -4.8766   -8.5132 O   0  0  0  1  0  0  0  0  0  0  0  0
   11.9459   -5.7206   -7.1798 O   0  0  0  1  0  0  0  0  0  0  0  0
    8.0748   -5.9498   -9.6405 O   0  0  0  0  0  0  0  0  0  0  0  0
   10.4010   -6.8292  -10.1049 O   0  0  0  1  0  0  0  0  0  0  0  0
   10.1901   -4.1830   -6.1947 O   0  0  0  0  0  0  0  0  0  0  0  0
    9.7313   -6.6656   -6.7161 O   0  0  0  1  0  0  0  0  0  0  0  0
    9.5565   -5.6322   -9.8265 P   0  0  0  1  0  0  0  0  0  0  0  0
   10.3666   -5.3842   -7.0696 P   0  0  0  1  0  0  0  0  0  0  0  0
   12.7041   -6.3295   -6.1039 C   0  0  0  1  0  0  0  0  0  0  0  0
   12.5775   -5.7647   -5.2039 H   0  0  0  1  0  0  0  0  0  0  0  0
   12.3699   -7.3336   -5.9455 H   0  0  0  1  0  0  0  0  0  0  0  0
   16.2292   -7.4197   -5.9096 O   0  0  0  1  0  0  0  0  0  0  0  0
   16.8480   -9.3899   -4.3944 O   0  0  0  1  0  0  0  0  0  0  0  0
   18.2748   -7.0363   -4.2601 O   0  5  0  1  0  0  0  0  0  0  0  0
   17.3886   -8.1612   -5.0176 P   0  0  0  1  0  0  0  0  0  0  0  0
   18.3518   -8.6882   -6.2088 O   0  5  0  1  0  0  0  0  0  0  0  0
   16.6102   -4.0501   -5.8788 N   0  0  0  1  0  0  0  0  0  0  0  0
   17.6425   -3.8497   -4.9991 C   0  0  0  1  0  0  0  0  0  0  0  0
   17.1139   -3.7621   -7.1101 C   0  0  0  1  0  0  0  0  0  0  0  0
   16.5416   -3.8221   -7.9764 H   0  0  0  1  0  0  0  0  0  0  0  0
   18.7319   -3.4497   -5.7845 C   0  0  0  1  0  0  0  0  0  0  0  0
   17.6313   -4.0122   -3.6753 N   0  0  0  1  0  0  0  0  0  0  0  0
   18.3693   -3.4049   -7.1217 N   0  0  0  1  0  0  0  0  0  0  0  0
   19.9126   -3.2023   -5.0905 C   0  0  0  1  0  0  0  0  0  0  0  0
   18.8158   -3.7350   -3.1443 C   0  0  0  1  0  0  0  0  0  0  0  0
   18.8804   -3.8360   -2.1112 H   0  0  0  1  0  0  0  0  0  0  0  0
   19.9417   -3.3421   -3.7607 N   0  0  0  1  0  0  0  0  0  0  0  0
   21.1375   -2.8071   -5.6172 N   0  0  0  1  0  0  0  0  0  0  0  0
   21.2543   -2.7384   -6.5877 H   0  0  0  1  0  0  0  0  0  0  0  0
   21.8839   -2.5974   -5.0177 H   0  0  0  1  0  0  0  0  0  0  0  0
   19.1523   -2.0552  -10.6998 S   0  0  0  1  0  0  0  0  0  0  0  0
   18.3590    0.3214   -9.8976 O   0  0  0  1  0  0  0  0  0  0  0  0
   18.9630   -0.6730   -9.5958 C   0  0  0  1  0  0  0  0  0  0  0  0
   19.6039   -0.8564   -8.2992 C   0  0  0  1  0  0  0  0  0  0  0  0
   20.1552   -1.7272   -8.1602 H   0  0  0  1  0  0  0  0  0  0  0  0
   19.5440   -0.0037   -7.2771 C   0  0  0  1  0  0  0  0  0  0  0  0
   18.9927    0.8671   -7.4160 H   0  0  0  1  0  0  0  0  0  0  0  0
   20.1953   -0.1899   -5.9597 C   0  0  0  1  0  0  0  0  0  0  0  0
   19.4159   -0.4370   -4.8405 C   0  0  0  1  0  0  0  0  0  0  0  0
   18.3813   -0.4946   -4.9297 H   0  0  0  1  0  0  0  0  0  0  0  0
   21.5706   -0.1188   -5.8419 C   0  0  0  1  0  0  0  0  0  0  0  0
   22.1557    0.0626   -6.6824 H   0  0  0  1  0  0  0  0  0  0  0  0
   20.0134   -0.6069   -3.6058 C   0  0  0  1  0  0  0  0  0  0  0  0
   19.4282   -0.7883   -2.7654 H   0  0  0  1  0  0  0  0  0  0  0  0
   22.1701   -0.2892   -4.6037 C   0  0  0  1  0  0  0  0  0  0  0  0
   21.3927   -0.5355   -3.4878 C   0  0  0  1  0  0  0  0  0  0  0  0
   21.9085   -0.7173   -2.2478 O   0  0  0  1  0  0  0  0  0  0  0  0
   22.4227    0.0541   -1.9983 H   0  0  0  1  0  0  0  0  0  0  0  0
   23.5208   -0.1928   -4.6108 O   0  0  0  1  0  0  0  0  0  0  0  0
   24.0909    1.0666   -4.2218 C   0  0  0  1  0  0  0  0  0  0  0  0
   23.4026    1.8547   -4.4459 H   0  0  0  1  0  0  0  0  0  0  0  0
   25.0026    1.2262   -4.7586 H   0  0  0  1  0  0  0  0  0  0  0  0
   24.2921    1.0574   -3.1709 H   0  0  0  1  0  0  0  0  0  0  0  0
  1  2  1  0  0  0  0
  1  3  1  0  0  0  0
  1  4  1  0  0  0  0
  1 65  1  0  0  0  0
  3  6  1  0  0  0  0
  4  5  1  0  0  0  0
  4  8  1  0  0  0  0
  4 10  1  0  0  0  0
  6  7  1  0  0  0  0
  6  8  1  0  0  0  0
  6 57  1  0  0  0  0
  8  9  1  0  0  0  0
  8 60  1  0  0  0  0
 10 11  1  0  0  0  0
 12 13  1  0  0  0  0
 12 14  1  0  0  0  0
 12 15  1  0  0  0  0
 12 18  1  0  0  0  0
 15 16  1  0  0  0  0
 15 17  1  0  0  0  0
 15 79  1  0  0  0  0
 18 19  1  0  0  0  0
 18 20  1  0  0  0  0
 20 21  2  0  0  0  0
 20 25  1  0  0  0  0
 22 23  1  0  0  0  0
 22 24  1  0  0  0  0
 22 25  1  0  0  0  0
 22 28  1  0  0  0  0
 25 26  1  0  0  0  0
 25 27  1  0  0  0  0
 28 29  1  0  0  0  0
 28 31  1  0  0  0  0
 30 31  2  0  0  0  0
 31 44  1  0  0  0  0
 32 33  1  0  0  0  0
 32 34  1  0  0  0  0
 32 39  1  0  0  0  0
 32 48  1  0  0  0  0
 35 36  1  0  0  0  0
 35 37  1  0  0  0  0
 35 38  1  0  0  0  0
 35 39  1  0  0  0  0
 39 40  1  0  0  0  0
 39 44  1  0  0  0  0
 40 41  1  0  0  0  0
 40 42  1  0  0  0  0
 40 43  1  0  0  0  0
 44 45  1  0  0  0  0
 44 46  1  0  0  0  0
 46 47  1  0  0  0  0
 48 55  1  0  0  0  0
 49 55  1  0  0  0  0
 49 56  1  0  0  0  0
 50 56  1  0  0  0  0
 50 57  1  0  0  0  0
 51 55  1  0  0  0  0
 52 55  2  0  0  0  0
 53 56  1  0  0  0  0
 54 56  2  0  0  0  0
 57 58  1  0  0  0  0
 57 59  1  0  0  0  0
 60 63  1  0  0  0  0
 61 63  2  0  0  0  0
 62 63  1  0  0  0  0
 63 64  1  0  0  0  0
 65 66  1  0  0  0  0
 65 67  1  0  0  0  0
 66 69  2  0  0  0  0
 66 70  1  0  0  0  0
 67 68  1  0  0  0  0
 67 71  2  0  0  0  0
 69 71  1  0  0  0  0
 69 72  1  0  0  0  0
 70 73  2  0  0  0  0
 72 75  2  0  0  0  0
 72 76  1  0  0  0  0
 73 74  1  0  0  0  0
 73 75  1  0  0  0  0
 76 77  1  0  0  0  0
 76 78  1  0  0  0  0
 79 81  1  0  0  0  0
 80 81  2  0  0  0  0
 81 82  1  0  0  0  0
 82 83  1  0  0  0  0
 82 84  2  0  0  0  0
 84 85  1  0  0  0  0
 84 86  1  0  0  0  0
 86 87  1  0  0  0  0
 86 89  2  0  0  0  0
 87 88  1  0  0  0  0
 87 91  2  0  0  0  0
 89 90  1  0  0  0  0
 89 93  1  0  0  0  0
 91 92  1  0  0  0  0
 91 94  1  0  0  0  0
 93 94  2  0  0  0  0
 93 97  1  0  0  0  0
 94 95  1  0  0  0  0
 95 96  1  0  0  0  0
 97 98  1  0  0  0  0
 98 99  1  0  0  0  0
 98100  1  0  0  0  0
 98101  1  0  0  0  0
M  BCL ATM C_TeTeTeTe H_S O_Te2Te2TeTe C_TeTeTeTe H_S C_TeTeTeTe H_S C_TeTeTeTe H_S O_Te2Te2TeTe H_S C_TeTeTeTe H_S H_S C_TeTeTeTe H_S H_S N_TrTrTrPi2 H_S C_TrTrTrPi O_Tr2Tr2TrPi C_TeTeTeTe H_S H_S C_TeTeTeTe H_S H_S N_TrTrTrPi2 H_S O_Tr2Tr2TrPi C_TrTrTrPi C_TeTeTeTe H_S H_S C_TeTeTeTe H_S H_S H_S C_TeTeTeTe C_TeTeTeTe H_S H_S H_S C_TeTeTeTe H_S O_Te2Te2TeTe H_S O_Tr2TrTrPi2 O_Tr2TrTrPi2 O_Tr2TrTrPi2 O_Te2Te2TeTe O_Tr2Tr2TrPi O_Te2Te2TeTe O_Tr2Tr2TrPi P_TeTeTeTePi P_TeTeTeTePi C_TeTeTeTe H_S H_S O_Tr2TrTrPi2 O_Tr2Tr2TrPi O_Te2Te2Te2Te P_TeTeTeTePi O_Te2Te2Te2Te N_TrTrTrPi2 C_TrTrTrPi C_TrTrTrPi H_S C_TrTrTrPi N_Tr2TrTrPi N_Tr2TrTrPi C_TrTrTrPi C_TrTrTrPi H_S N_Tr2TrTrPi N_TrTrTrPi2 H_S H_S S_Te2Te2TeTe O_Tr2Tr2TrPi C_TrTrTrPi C_TrTrTrPi H_S C_TrTrTrPi H_S C_TrTrTrPi C_TrTrTrPi H_S C_TrTrTrPi H_S C_TrTrTrPi H_S C_TrTrTrPi C_TrTrTrPi O_Te2Te2TeTe H_S O_Tr2TrTrPi2 C_TeTeTeTe H_S H_S H_S
M  BCL BND NonConjugatedSingleBond NonConjugatedSingleBondInRing NonConjugatedSingleBondInRing NonConjugatedSingleBond NonConjugatedSingleBondInRing NonConjugatedSingleBond NonConjugatedSingleBondInRing NonConjugatedSingleBond NonConjugatedSingleBond NonConjugatedSingleBondInRing NonConjugatedSingleBond NonConjugatedSingleBond NonConjugatedSingleBond NonConjugatedSingleBond NonConjugatedSingleBond NonConjugatedSingleBond NonConjugatedSingleBond NonConjugatedSingleBond NonConjugatedSingleBond NonConjugatedSingleBond NonConjugatedSingleBond NonConjugatedSingleBond AmideSingleBond ConjugatedDoubleBond NonConjugatedSingleBond NonConjugatedSingleBond NonConjugatedSingleBond NonConjugatedSingleBond NonConjugatedSingleBond NonConjugatedSingleBond NonConjugatedSingleBond NonConjugatedSingleBond AmideSingleBond ConjugatedDoubleBond NonConjugatedSingleBond NonConjugatedSingleBond NonConjugatedSingleBond NonConjugatedSingleBond NonConjugatedSingleBond NonConjugatedSingleBond NonConjugatedSingleBond NonConjugatedSingleBond NonConjugatedSingleBond NonConjugatedSingleBond NonConjugatedSingleBond NonConjugatedSingleBond NonConjugatedSingleBond NonConjugatedSingleBond NonConjugatedSingleBond NonConjugatedSingleBond NonConjugatedSingleBond ConjugatedSingleBond ConjugatedSingleBond ConjugatedSingleBond ConjugatedSingleBond NonConjugatedSingleBond ConjugatedSingleBond ConjugatedDoubleBond ConjugatedSingleBond ConjugatedDoubleBond NonConjugatedSingleBond NonConjugatedSingleBond ConjugatedSingleBond ConjugatedDoubleBond ConjugatedSingleBond ConjugatedSingleBond AromaticSingleBond AromaticSingleBond AromaticDoubleBond AromaticSingleBond NonConjugatedSingleBond AromaticDoubleBond AromaticSingleBond AromaticSingleBond AromaticDoubleBond AromaticDoubleBond ConjugatedSingleBond NonConjugatedSingleBond AromaticSingleBond NonConjugatedSingleBond NonConjugatedSingleBond ConjugatedSingleBond ConjugatedDoubleBond ConjugatedSingleBond NonConjugatedSingleBond ConjugatedDoubleBond NonConjugatedSingleBond ConjugatedSingleBond AromaticSingleBond AromaticDoubleBond NonConjugatedSingleBond AromaticDoubleBond NonConjugatedSingleBond AromaticSingleBond NonConjugatedSingleBond AromaticSingleBond AromaticDoubleBond ConjugatedSingleBond ConjugatedSingleBond NonConjugatedSingleBond NonConjugatedSingleBond NonConjugatedSingleBond NonConjugatedSingleBond NonConjugatedSingleBond
M  BCL CHI   1   R   4   R   6   R   8   S  44   S  55   S  56   R
M  BCL DBI - - - - - - - - - - E - - -
M  END
> <ConfClashScore>
0.000191465 

> <ConfOneFourInteractionScore>
-0.983734 

> <ConfScore>
0.222302 

> <ConfScorePBest>
0.00490145 

> <ConfTolerance>
5.38595 

$$$$
