# created with PyMOL 2.4.0
@<TRIPOS>MOLECULE
L02.****
101 104 1               
SMALL
USER_CHARGES
@<TRIPOS>ATOM
1	   C	15.209	-2.433	0.000	C.3	1	UNK0	0.000	
2	   H	15.209	-2.433	-1.090	 H	1	UNK0	0.000	
3	   O	14.400	-1.846	0.000	O.3	1	UNK0	0.000	
4	   C	14.900	-3.383	0.000	C.3	1	UNK0	0.000	
5	   H	14.900	-3.383	-1.090	 H	1	UNK0	0.000	
6	   C	13.592	-2.433	0.000	C.3	1	UNK0	0.000	
7	   H	13.592	-2.433	1.090	 H	1	UNK0	0.000	
8	   C	13.901	-3.383	0.000	C.3	1	UNK0	0.000	
9	   H	13.901	-3.383	-1.090	 H	1	UNK0	0.000	
10	   O	15.487	-4.192	0.000	O.3	1	UNK0	0.000	
11	   H	16.299	-3.961	-0.458	 H	1	UNK0	0.000	
12	   C	7.040	-7.326	0.000	C.3	1	UNK0	0.000	
13	   H	7.035	-6.697	-0.890	 H	1	UNK0	0.000	
14	   H	7.035	-6.697	0.890	 H	1	UNK0	0.000	
15	   C	7.939	-7.826	0.000	C.3	1	UNK0	0.000	
16	   H	8.480	-7.505	0.890	 H	1	UNK0	0.000	
17	   H	8.480	-7.505	-0.890	 H	1	UNK0	0.000	
18	   N	6.174	-7.826	0.000	N.pl3	1	UNK0	0.000	
19	   H	6.174	-8.836	0.000	 H	1	UNK0	0.000	
20	   C	5.309	-7.326	0.000	C.2	1	UNK0	0.000	
21	   O	4.444	-7.826	0.000	O.2	1	UNK0	0.000	
22	   C	6.209	-5.828	0.000	C.3	1	UNK0	0.000	
23	   H	6.751	-6.147	-0.890	 H	1	UNK0	0.000	
24	   H	6.751	-6.147	0.890	 H	1	UNK0	0.000	
25	   C	5.309	-6.327	0.000	C.3	1	UNK0	0.000	
26	   H	4.767	-6.008	0.890	 H	1	UNK0	0.000	
27	   H	4.767	-6.008	-0.890	 H	1	UNK0	0.000	
28	   N	6.209	-4.829	0.000	N.pl3	1	UNK0	0.000	
29	   H	7.084	-4.324	0.000	 H	1	UNK0	0.000	
30	   O	4.478	-4.829	0.000	O.2	1	UNK0	0.000	
31	   C	5.344	-4.329	0.000	C.2	1	UNK0	0.000	
32	   C	7.074	-3.330	0.000	C.3	1	UNK0	0.000	
33	   H	7.074	-3.959	-0.890	 H	1	UNK0	0.000	
34	   H	7.074	-3.959	0.890	 H	1	UNK0	0.000	
35	   C	5.709	-1.966	0.000	C.3	1	UNK0	0.000	
36	   H	6.417	-1.137	0.000	 H	1	UNK0	0.000	
37	   H	5.082	-1.909	0.890	 H	1	UNK0	0.000	
38	   H	5.082	-1.909	-0.890	 H	1	UNK0	0.000	
39	   C	6.209	-2.831	0.000	C.3	1	UNK0	0.000	
40	   C	6.708	-1.966	0.000	C.3	1	UNK0	0.000	
41	   H	7.780	-2.165	0.000	 H	1	UNK0	0.000	
42	   H	6.444	-1.395	0.890	 H	1	UNK0	0.000	
43	   H	6.444	-1.395	-0.890	 H	1	UNK0	0.000	
44	   C	5.344	-3.330	0.000	C.3	1	UNK0	0.000	
45	   H	5.344	-3.330	-1.090	 H	1	UNK0	0.000	
46	   O	4.478	-2.831	0.000	O.3	1	UNK0	0.000	
47	   H	4.622	-1.999	-0.458	 H	1	UNK0	0.000	
48	   O	7.939	-2.831	0.000	O.3	1	UNK0	0.000	
49	   O	9.937	-2.831	0.000	O.3	1	UNK0	0.000	
50	   O	11.935	-2.831	0.000	O.3	1	UNK0	0.000	
51	   O	8.938	-1.832	0.000	O.2	1	UNK0	0.000	
52	   O	8.938	-3.830	0.000	O.2	1	UNK0	0.000	
53	   O	10.936	-1.832	0.000	O.2	1	UNK0	0.000	
54	   O	10.936	-3.830	0.000	O.2	1	UNK0	0.000	
55	   P	8.938	-2.831	0.000	 P	1	UNK0	0.000	
56	   P	10.936	-2.831	0.000	 P	1	UNK0	0.000	
57	   C	12.642	-2.124	0.000	C.3	1	UNK0	0.000	
58	   H	12.495	-1.512	-0.890	 H	1	UNK0	0.000	
59	   H	12.495	-1.512	0.890	 H	1	UNK0	0.000	
60	   O	13.313	-4.192	0.000	O.3	1	UNK0	0.000	
61	   O	12.314	-5.190	0.000	O.2	1	UNK0	0.000	
62	   O	14.313	-5.190	0.000	O.2	1	UNK0	0.000	
63	   P	13.313	-5.190	0.000	 P	1	UNK0	0.000	
64	   O	13.313	-6.190	0.000	O.2	1	UNK0	0.000	
65	   N	16.159	-2.124	0.000	N.pl3	1	UNK0	0.000	
66	   C	16.901	-2.793	0.000	C.2	1	UNK0	0.000	
67	   C	16.565	-1.212	0.000	C.2	1	UNK0	0.000	
68	   H	16.025	-0.277	0.000	 H	1	UNK0	0.000	
69	   C	17.766	-2.293	0.000	C.2	1	UNK0	0.000	
70	   N	16.901	-3.792	0.000	N.2	1	UNK0	0.000	
71	   N	17.559	-1.316	0.000	N.2	1	UNK0	0.000	
72	   C	18.632	-2.793	0.000	C.2	1	UNK0	0.000	
73	   C	17.767	-4.291	0.000	C.2	1	UNK0	0.000	
74	   H	17.767	-5.371	0.000	 H	1	UNK0	0.000	
75	   N	18.632	-3.792	0.000	N.2	1	UNK0	0.000	
76	   N	19.497	-2.293	0.000	N.pl3	1	UNK0	0.000	
77	   H	20.372	-2.798	0.000	 H	1	UNK0	0.000	
78	   H	19.497	-1.283	0.000	 H	1	UNK0	0.000	
79	   S	7.947	-8.825	0.000	S.3	1	UNK0	0.000	
80	   O	8.813	-10.324	0.000	O.2	1	UNK0	0.000	
81	   C	8.813	-9.325	0.000	C.2	1	UNK0	0.000	
82	   C	9.678	-8.825	0.000	C.2	1	UNK0	0.000	
83	   H	9.678	-7.745	0.000	 H	1	UNK0	0.000	
84	   C	10.543	-9.325	0.000	C.2	1	UNK0	0.000	
85	   H	10.543	-10.405	0.000	 H	1	UNK0	0.000	
86	   C	11.408	-8.825	0.000	C.2	1	UNK0	0.000	
87	   C	11.408	-7.826	0.000	C.2	1	UNK0	0.000	
88	   H	10.473	-7.286	0.000	 H	1	UNK0	0.000	
89	   C	12.274	-9.325	0.000	C.2	1	UNK0	0.000	
90	   H	12.274	-10.405	0.000	 H	1	UNK0	0.000	
91	   C	12.274	-7.327	0.000	C.2	1	UNK0	0.000	
92	   H	12.274	-6.247	0.000	 H	1	UNK0	0.000	
93	   C	13.139	-8.825	0.000	C.2	1	UNK0	0.000	
94	   C	13.139	-7.826	0.000	C.2	1	UNK0	0.000	
95	   O	14.004	-7.327	0.000	O.3	1	UNK0	0.000	
96	   H	13.921	-6.371	-0.000	 H	1	UNK0	0.000	
97	   O	14.004	-9.325	0.000	O.3	1	UNK0	0.000	
98	   C	14.004	-10.324	0.000	C.3	1	UNK0	0.000	
99	   H	15.032	-10.687	-0.000	 H	1	UNK0	0.000	
100	   H	13.490	-10.687	-0.890	 H	1	UNK0	0.000	
101	   H	13.490	-10.687	0.890	 H	1	UNK0	0.000	
@<TRIPOS>BOND
1 1 2 1
2 1 3 1
3 1 4 1
4 1 65 1
5 3 6 1
6 4 5 1
7 4 8 1
8 4 10 1
9 6 7 1
10 6 8 1
11 6 57 1
12 8 9 1
13 8 60 1
14 10 11 1
15 12 13 1
16 12 14 1
17 12 15 1
18 12 18 1
19 15 16 1
20 15 17 1
21 15 79 1
22 18 19 1
23 18 20 1
24 20 21 2
25 20 25 1
26 22 23 1
27 22 24 1
28 22 25 1
29 22 28 1
30 25 26 1
31 25 27 1
32 28 29 1
33 28 31 1
34 30 31 2
35 31 44 1
36 32 33 1
37 32 34 1
38 32 39 1
39 32 48 1
40 35 36 1
41 35 37 1
42 35 38 1
43 35 39 1
44 39 40 1
45 39 44 1
46 40 41 1
47 40 42 1
48 40 43 1
49 44 45 1
50 44 46 1
51 46 47 1
52 48 55 1
53 49 55 1
54 49 56 1
55 50 56 1
56 50 57 1
57 51 55 ar
58 52 55 ar
59 53 56 ar
60 54 56 ar
61 57 58 1
62 57 59 1
63 60 63 1
64 61 63 ar
65 62 63 ar
66 63 64 ar
67 65 66 1
68 65 67 1
69 66 69 ar
70 66 70 ar
71 67 68 1
72 67 71 2
73 69 71 1
74 69 72 ar
75 70 73 ar
76 72 75 ar
77 72 76 1
78 73 74 1
79 73 75 ar
80 76 77 1
81 76 78 1
82 79 81 1
83 80 81 2
84 81 82 1
85 82 83 1
86 82 84 2
87 84 85 1
88 84 86 1
89 86 87 ar
90 86 89 ar
91 87 88 1
92 87 91 ar
93 89 90 1
94 89 93 ar
95 91 92 1
96 91 94 ar
97 93 94 ar
98 93 97 1
99 94 95 1
100 95 96 1
101 97 98 1
102 98 99 1
103 98 100 1
104 98 101 1
@<TRIPOS>SUBSTRUCTURE
1	UNK0	1	GROUP	1 ****	UNK
