L02.****
  PyMOL2.5          3D                             0

101104  0  0  0  0  0  0  0  0999 V2000
   16.2609   -4.1892   -5.4611 C   0  0  0  0  0  0  0  0  0  0  0  0
   16.5532   -5.2321   -5.5835 H   0  0  0  0  0  0  0  0  0  0  0  0
   15.4661   -4.3433   -6.0473 O   0  0  0  0  0  0  0  0  0  0  0  0
   15.9888   -4.3762   -4.5183 C   0  0  0  0  0  0  0  0  0  0  0  0
   16.2812   -5.4190   -4.6407 H   0  0  0  0  0  0  0  0  0  0  0  0
   14.7037   -4.6251   -5.4669 C   0  0  0  0  0  0  0  0  0  0  0  0
   14.4114   -3.5822   -5.3445 H   0  0  0  0  0  0  0  0  0  0  0  0
   15.0268   -4.6454   -4.5218 C   0  0  0  0  0  0  0  0  0  0  0  0
   15.3192   -5.6883   -4.6442 H   0  0  0  0  0  0  0  0  0  0  0  0
   16.5758   -4.3062   -3.7123 O   0  0  0  0  0  0  0  0  0  0  0  0
   17.4742   -4.4999   -3.9898 H   0  0  0  0  0  0  0  0  0  0  0  0
    5.4022   -4.4157   -4.1115 C   0  0  0  0  0  0  0  0  0  0  0  0
    5.7858   -4.5076   -5.1276 H   0  0  0  0  0  0  0  0  0  0  0  0
    6.1658   -3.9702   -3.4738 H   0  0  0  0  0  0  0  0  0  0  0  0
    5.2549   -5.3735   -3.7664 C   0  0  0  0  0  0  0  0  0  0  0  0
    5.9250   -5.5111   -2.9177 H   0  0  0  0  0  0  0  0  0  0  0  0
    5.5449   -6.0485   -4.5716 H   0  0  0  0  0  0  0  0  0  0  0  0
    4.6468   -3.7617   -4.1503 N   0  0  0  0  0  0  0  0  0  0  0  0
    3.7233   -4.0378   -3.8484 H   0  0  0  0  0  0  0  0  0  0  0  0
    4.8059   -2.8349   -4.4880 C   0  0  0  0  0  0  0  0  0  0  0  0
    4.0507   -2.1818   -4.5267 O   0  0  0  0  0  0  0  0  0  0  0  0
    6.4854   -3.2468   -4.7401 C   0  0  0  0  0  0  0  0  0  0  0  0
    6.1902   -4.0982   -5.3536 H   0  0  0  0  0  0  0  0  0  0  0  0
    6.5703   -3.5608   -3.6997 H   0  0  0  0  0  0  0  0  0  0  0  0
    5.7191   -2.5615   -4.7867 C   0  0  0  0  0  0  0  0  0  0  0  0
    6.0143   -1.7102   -4.1732 H   0  0  0  0  0  0  0  0  0  0  0  0
    5.6343   -2.2475   -5.8271 H   0  0  0  0  0  0  0  0  0  0  0  0
    7.3986   -2.9734   -5.0388 N   0  0  0  0  0  0  0  0  0  0  0  0
    8.1615   -3.6342   -4.9994 H   0  0  0  0  0  0  0  0  0  0  0  0
    6.8023   -1.3927   -5.4154 O   0  0  0  0  0  0  0  0  0  0  0  0
    7.5577   -2.0467   -5.3765 C   0  0  0  0  0  0  0  0  0  0  0  0
    9.0670   -3.3532   -5.2988 C   0  0  0  0  0  0  0  0  0  0  0  0
    8.3017   -3.7941   -5.9376 H   0  0  0  0  0  0  0  0  0  0  0  0
    9.2202   -3.0323   -4.2684 H   0  0  0  0  0  0  0  0  0  0  0  0
    9.8437   -1.7333   -6.0036 C   0  0  0  0  0  0  0  0  0  0  0  0
   10.8452   -2.1530   -6.0974 H   0  0  0  0  0  0  0  0  0  0  0  0
    9.8702   -0.8766   -5.3302 H   0  0  0  0  0  0  0  0  0  0  0  0
    9.4902   -1.4140   -6.9840 H   0  0  0  0  0  0  0  0  0  0  0  0
    9.2252   -2.4267   -5.6362 C   0  0  0  0  0  0  0  0  0  0  0  0
   10.1878   -2.6456   -5.7862 C   0  0  0  0  0  0  0  0  0  0  0  0
   10.3753   -3.6788   -5.4937 H   0  0  0  0  0  0  0  0  0  0  0  0
   10.8095   -1.9799   -5.1875 H   0  0  0  0  0  0  0  0  0  0  0  0
   10.4295   -2.5173   -6.8414 H   0  0  0  0  0  0  0  0  0  0  0  0
    8.4710   -1.7733   -5.6751 C   0  0  0  0  0  0  0  0  0  0  0  0
    8.2382   -2.1023   -6.6879 H   0  0  0  0  0  0  0  0  0  0  0  0
    8.6288   -0.8459   -6.0127 O   0  0  0  0  0  0  0  0  0  0  0  0
    9.3410   -0.8880   -6.6551 H   0  0  0  0  0  0  0  0  0  0  0  0
    9.8212   -4.0065   -5.2598 O   0  0  0  0  0  0  0  0  0  0  0  0
   11.4588   -4.3027   -4.3181 O   0  0  0  0  0  0  0  0  0  0  0  0
   13.1188   -5.1152   -5.0773 O   0  0  0  0  0  0  0  0  0  0  0  0
   11.2045   -3.0684   -4.5518 O   0  0  0  0  0  0  0  0  0  0  0  0
   10.4726   -3.9397   -3.6848 O   0  5  0  0  0  0  0  0  0  0  0  0
   12.3939   -3.9245   -5.3073 O   0  0  0  0  0  0  0  0  0  0  0  0
   12.8633   -4.6653   -3.8816 O   0  5  0  0  0  0  0  0  0  0  0  0
   10.6158   -3.8667   -4.6708 P   0  0  0  0  0  0  0  0  0  0  0  0
   12.2888   -4.7089   -4.6977 P   0  0  0  0  0  0  0  0  0  0  0  0
   13.7806   -4.8474   -5.7773 C   0  0  0  0  0  0  0  0  0  0  0  0
   13.8615   -5.6718   -6.4859 H   0  0  0  0  0  0  0  0  0  0  0  0
   13.3841   -3.9687   -6.2860 H   0  0  0  0  0  0  0  0  0  0  0  0
   14.3540   -4.9862   -3.9150 O   0  0  0  0  0  0  0  0  0  0  0  0
   13.0392   -5.4932   -3.4293 O   0  0  0  0  0  0  0  0  0  0  0  0
   13.5163   -4.5184   -2.4756 O   0  5  0  0  0  0  0  0  0  0  0  0
   13.9242   -5.2298   -3.0479 P   0  0  0  0  0  0  0  0  0  0  0  0
   13.8738   -5.9875   -2.3972 O   0  5  0  0  0  0  0  0  0  0  0  0
   17.1674   -3.8994   -5.7648 N   0  0  0  0  0  0  0  0  0  0  0  0
   17.8999   -3.7724   -5.0974 C   0  0  0  0  0  0  0  0  0  0  0  0
   17.5339   -3.6905   -6.6696 C   0  0  0  0  0  0  0  0  0  0  0  0
   16.9886   -3.7341   -7.6008 H   0  0  0  0  0  0  0  0  0  0  0  0
   18.7195   -3.4847   -5.5912 C   0  0  0  0  0  0  0  0  0  0  0  0
   17.9268   -3.8814   -4.1047 N   0  0  0  0  0  0  0  0  0  0  0  0
   18.4939   -3.4339   -6.5627 N   0  0  0  0  0  0  0  0  0  0  0  0
   19.5668   -3.3059   -5.0912 C   0  0  0  0  0  0  0  0  0  0  0  0
   18.7741   -3.7025   -3.6058 C   0  0  0  0  0  0  0  0  0  0  0  0
   18.8034   -3.8202   -2.5327 H   0  0  0  0  0  0  0  0  0  0  0  0
   19.5937   -3.4149   -4.0986 N   0  0  0  0  0  0  0  0  0  0  0  0
   20.3864   -3.0182   -5.5850 N   0  0  0  0  0  0  0  0  0  0  0  0
   21.2425   -2.8374   -5.0805 H   0  0  0  0  0  0  0  0  0  0  0  0
   20.3588   -2.9081   -6.5886 H   0  0  0  0  0  0  0  0  0  0  0  0
    4.3444   -5.6542   -3.4659 S   0  0  0  0  0  0  0  0  0  0  0  0
    3.2724   -6.8552   -2.8294 O   0  0  0  0  0  0  0  0  0  0  0  0
    4.1857   -6.5819   -3.1280 C   0  0  0  0  0  0  0  0  0  0  0  0
    4.9408   -7.2350   -3.0894 C   0  0  0  0  0  0  0  0  0  0  0  0
    5.9281   -6.9394   -3.4123 H   0  0  0  0  0  0  0  0  0  0  0  0
    4.7817   -8.1617   -2.7517 C   0  0  0  0  0  0  0  0  0  0  0  0
    3.7944   -8.4573   -2.4288 H   0  0  0  0  0  0  0  0  0  0  0  0
    5.5368   -8.8148   -2.7130 C   0  0  0  0  0  0  0  0  0  0  0  0
    6.4501   -8.5414   -3.0117 C   0  0  0  0  0  0  0  0  0  0  0  0
    6.6219   -7.5396   -3.3767 H   0  0  0  0  0  0  0  0  0  0  0  0
    5.3781   -9.7425   -2.3751 C   0  0  0  0  0  0  0  0  0  0  0  0
    4.3909  -10.0384   -2.0521 H   0  0  0  0  0  0  0  0  0  0  0  0
    7.2046   -9.1957   -2.9725 C   0  0  0  0  0  0  0  0  0  0  0  0
    8.1920   -8.9004   -3.2953 H   0  0  0  0  0  0  0  0  0  0  0  0
    6.1332  -10.3956   -2.3364 C   0  0  0  0  0  0  0  0  0  0  0  0
    7.0465  -10.1222   -2.6351 C   0  0  0  0  0  0  0  0  0  0  0  0
    7.8007  -10.7756   -2.5961 O   0  0  0  0  0  0  0  0  0  0  0  0
    8.6463  -10.4378   -2.9002 H   0  0  0  0  0  0  0  0  0  0  0  0
    5.9741  -11.3224   -1.9987 O   0  0  0  0  0  0  0  0  0  0  0  0
    5.0609  -11.5958   -1.7001 C   0  0  0  0  0  0  0  0  0  0  0  0
    5.0828  -12.6337   -1.3679 H   0  0  0  0  0  0  0  0  0  0  0  0
    4.3617  -11.4947   -2.5302 H   0  0  0  0  0  0  0  0  0  0  0  0
    4.7418  -10.9573   -0.8763 H   0  0  0  0  0  0  0  0  0  0  0  0
  1  2  1  0  0  0  0
  1  3  1  0  0  0  0
  1  4  1  0  0  0  0
  1 65  1  0  0  0  0
  3  6  1  0  0  0  0
  4  5  1  0  0  0  0
  4  8  1  0  0  0  0
  4 10  1  0  0  0  0
  6  7  1  0  0  0  0
  6  8  1  0  0  0  0
  6 57  1  0  0  0  0
  8  9  1  0  0  0  0
  8 60  1  0  0  0  0
 10 11  1  0  0  0  0
 12 13  1  0  0  0  0
 12 14  1  0  0  0  0
 12 15  1  0  0  0  0
 12 18  1  0  0  0  0
 15 16  1  0  0  0  0
 15 17  1  0  0  0  0
 15 79  1  0  0  0  0
 18 19  1  0  0  0  0
 18 20  1  0  0  0  0
 20 21  2  0  0  0  0
 20 25  1  0  0  0  0
 22 23  1  0  0  0  0
 22 24  1  0  0  0  0
 22 25  1  0  0  0  0
 22 28  1  0  0  0  0
 25 26  1  0  0  0  0
 25 27  1  0  0  0  0
 28 29  1  0  0  0  0
 28 31  1  0  0  0  0
 30 31  2  0  0  0  0
 31 44  1  0  0  0  0
 32 33  1  0  0  0  0
 32 34  1  0  0  0  0
 32 39  1  0  0  0  0
 32 48  1  0  0  0  0
 35 36  1  0  0  0  0
 35 37  1  0  0  0  0
 35 38  1  0  0  0  0
 35 39  1  0  0  0  0
 39 40  1  0  0  0  0
 39 44  1  0  0  0  0
 40 41  1  0  0  0  0
 40 42  1  0  0  0  0
 40 43  1  0  0  0  0
 44 45  1  0  0  0  0
 44 46  1  0  0  0  0
 46 47  1  0  0  0  0
 48 55  1  0  0  0  0
 49 55  1  0  0  0  0
 49 56  1  0  0  0  0
 50 56  1  0  0  0  0
 50 57  1  0  0  0  0
 51 55  1  0  0  0  0
 52 55  2  0  0  0  0
 53 56  1  0  0  0  0
 54 56  2  0  0  0  0
 57 58  1  0  0  0  0
 57 59  1  0  0  0  0
 60 63  1  0  0  0  0
 61 63  2  0  0  0  0
 62 63  1  0  0  0  0
 63 64  1  0  0  0  0
 65 66  1  0  0  0  0
 65 67  1  0  0  0  0
 66 69  2  0  0  0  0
 66 70  1  0  0  0  0
 67 68  1  0  0  0  0
 67 71  2  0  0  0  0
 69 71  1  0  0  0  0
 69 72  1  0  0  0  0
 70 73  2  0  0  0  0
 72 75  2  0  0  0  0
 72 76  1  0  0  0  0
 73 74  1  0  0  0  0
 73 75  1  0  0  0  0
 76 77  1  0  0  0  0
 76 78  1  0  0  0  0
 79 81  1  0  0  0  0
 80 81  2  0  0  0  0
 81 82  1  0  0  0  0
 82 83  1  0  0  0  0
 82 84  2  0  0  0  0
 84 85  1  0  0  0  0
 84 86  1  0  0  0  0
 86 87  1  0  0  0  0
 86 89  2  0  0  0  0
 87 88  1  0  0  0  0
 87 91  2  0  0  0  0
 89 90  1  0  0  0  0
 89 93  1  0  0  0  0
 91 92  1  0  0  0  0
 91 94  1  0  0  0  0
 93 94  2  0  0  0  0
 93 97  1  0  0  0  0
 94 95  1  0  0  0  0
 95 96  1  0  0  0  0
 97 98  1  0  0  0  0
 98 99  1  0  0  0  0
 98100  1  0  0  0  0
 98101  1  0  0  0  0
M  END
$$$$
