# created with PyMOL 2.5.2
@<TRIPOS>MOLECULE
L03
64 67 1                 
SMALL
USER_CHARGES
@<TRIPOS>ATOM
1	   C	-6.789	-12.977	0.000	C.3	1	UNK0	0.000	
2	   C	-5.418	-12.367	0.000	C.3	1	UNK0	0.000	
3	   C	-4.048	-11.757	0.000	C.3	1	UNK0	0.000	
4	   C	-6.029	-10.997	0.000	C.3	1	UNK0	0.000	
5	   O	-7.520	-10.840	0.000	O.3	1	UNK0	0.000	
6	   P	-8.130	-9.470	0.000	P.3	1	UNK0	0.000	
7	   O	-9.501	-10.080	0.000	O.co2	1	UNK0	0.000	
8	   O	-6.760	-8.860	0.000	O.co2	1	UNK0	0.000	
9	   O	-8.741	-8.099	0.000	O.3	1	UNK0	0.000	
10	   P	-7.859	-6.886	0.000	P.3	1	UNK0	0.000	
11	   O	-6.645	-7.768	0.000	O.co2	1	UNK0	0.000	
12	   O	-9.072	-6.004	0.000	O.co2	1	UNK0	0.000	
13	   O	-6.977	-5.673	0.000	O.3	1	UNK0	0.000	
14	   C	-5.485	-5.829	0.000	C.3	1	UNK0	0.000	
15	   C	-4.604	-4.616	0.000	C.3	1	UNK0	0.000	
16	   C	-5.067	-3.189	0.000	C.3	1	UNK0	0.000	
17	   C	-3.854	-2.307	0.000	C.3	1	UNK0	0.000	
18	   C	-2.640	-3.189	0.000	C.3	1	UNK0	0.000	
19	   O	-3.104	-4.616	0.000	O.3	1	UNK0	0.000	
20	   N	-1.214	-2.726	0.000	N.pl3	1	UNK0	0.000	
21	   C	0.000	-3.607	0.000	C.2	1	UNK0	0.000	
22	   N	1.214	-2.726	0.000	N.2	1	UNK0	0.000	
23	   C	0.750	-1.299	0.000	C.2	1	UNK0	0.000	
24	   C	1.500	0.000	0.000	C.2	1	UNK0	0.000	
25	   N	0.750	1.299	0.000	N.2	1	UNK0	0.000	
26	   C	-0.750	1.299	0.000	C.2	1	UNK0	0.000	
27	   N	-1.500	0.000	0.000	N.2	1	UNK0	0.000	
28	   C	-0.750	-1.299	0.000	C.2	1	UNK0	0.000	
29	   N	3.000	0.000	0.000	N.pl3	1	UNK0	0.000	
30	   O	-3.854	-0.808	0.000	O.3	1	UNK0	0.000	
31	   O	-6.494	-2.726	0.000	O.3	1	UNK0	0.000	
32	   P	-6.806	-1.258	0.000	P.3	1	UNK0	0.000	
33	   O	-8.273	-1.570	0.000	O.co2	1	UNK0	0.000	
34	   O	-5.338	-0.947	0.000	O.co2	1	UNK0	0.000	
35	   O	-7.117	0.209	0.000	O.co2	1	UNK0	0.000	
36	   C	-4.808	-13.738	0.000	C.3	1	UNK0	0.000	
37	   C	-5.690	-14.951	0.000	C.2	1	UNK0	0.000	
38	   O	-7.182	-14.794	0.000	O.2	1	UNK0	0.000	
39	   N	-5.080	-16.321	0.000	N.pl3	1	UNK0	0.000	
40	   C	-5.962	-17.535	0.000	C.3	1	UNK0	0.000	
41	   C	-5.351	-18.905	0.000	C.3	1	UNK0	0.000	
42	   C	-6.233	-20.119	0.000	C.2	1	UNK0	0.000	
43	   O	-7.725	-19.962	0.000	O.2	1	UNK0	0.000	
44	   N	-5.623	-21.489	0.000	N.pl3	1	UNK0	0.000	
45	   C	-6.505	-22.703	0.000	C.3	1	UNK0	0.000	
46	   C	-5.894	-24.073	0.000	C.3	1	UNK0	0.000	
47	   S	-6.776	-25.287	0.000	S.3	1	UNK0	0.000	
48	   C	-6.166	-26.657	0.000	C.2	1	UNK0	0.000	
49	   O	-4.674	-26.814	0.000	O.2	1	UNK0	0.000	
50	   C	-7.048	-27.870	0.000	C.3	1	UNK0	0.000	
51	   C	-6.438	-29.241	0.000	C.2	1	UNK0	0.000	
52	   O	-4.946	-29.397	0.000	O.2	1	UNK0	0.000	
53	   C	-7.319	-30.454	0.000	C.2	1	UNK0	0.000	
54	   C	-6.709	-31.824	0.000	C.2	1	UNK0	0.000	
55	   C	-7.591	-33.038	0.000	C.2	1	UNK0	0.000	
56	   C	-9.083	-32.881	0.000	C.2	1	UNK0	0.000	
57	   C	-9.964	-34.095	0.000	C.2	1	UNK0	0.000	
58	   C	-9.354	-35.465	0.000	C.2	1	UNK0	0.000	
59	   C	-7.863	-35.622	0.000	C.2	1	UNK0	0.000	
60	   C	-6.981	-34.408	0.000	C.2	1	UNK0	0.000	
61	   O	-10.236	-36.679	0.000	O.3	1	UNK0	0.000	
62	   O	-11.456	-33.938	0.000	O.3	1	UNK0	0.000	
63	   C	-12.066	-32.568	0.000	C.3	1	UNK0	0.000	
64	   O	-3.316	-13.894	0.000	O.3	1	UNK0	0.000	
@<TRIPOS>BOND
1 1 2 1
2 2 3 1
3 2 4 1
4 2 36 1
5 4 5 1
6 5 6 1
7 6 7 2
8 6 8 1
9 6 9 1
10 9 10 1
11 10 11 2
12 10 12 1
13 10 13 1
14 13 14 1
15 14 15 1
16 15 16 1
17 16 17 1
18 16 31 1
19 17 18 1
20 17 30 1
21 18 19 1
22 18 20 1
23 15 19 1
24 20 21 1
25 21 22 2
26 22 23 1
27 23 24 2
28 24 25 1
29 24 29 1
30 25 26 2
31 26 27 1
32 27 28 2
33 20 28 1
34 23 28 1
35 31 32 1
36 32 33 2
37 32 34 1
38 32 35 1
39 36 37 1
40 36 64 1
41 37 38 2
42 37 39 1
43 39 40 1
44 40 41 1
45 41 42 1
46 42 43 2
47 42 44 1
48 44 45 1
49 45 46 1
50 46 47 1
51 47 48 1
52 48 49 2
53 48 50 1
54 50 51 1
55 51 52 2
56 51 53 1
57 53 54 2
58 54 55 1
59 55 56 2
60 56 57 1
61 57 58 2
62 57 62 1
63 58 59 1
64 58 61 1
65 59 60 2
66 55 60 1
67 62 63 1
@<TRIPOS>SUBSTRUCTURE
1	UNK0	1	GROUP	1 ****	UNK
