# created with PyMOL 2.4.0
@<TRIPOS>MOLECULE
L03.****
105 108 1               
SMALL
USER_CHARGES
@<TRIPOS>ATOM
1	   C	-6.789	-12.977	0.000	C.3	1	UNK0	0.000	
2	   H	-7.539	-12.186	0.000	 H	1	UNK0	0.000	
3	   H	-6.912	-13.594	0.890	 H	1	UNK0	0.000	
4	   H	-6.912	-13.594	-0.890	 H	1	UNK0	0.000	
5	   C	-5.418	-12.367	0.000	C.3	1	UNK0	0.000	
6	   C	-4.048	-11.757	0.000	C.3	1	UNK0	0.000	
7	   H	-4.134	-10.670	-0.000	 H	1	UNK0	0.000	
8	   H	-3.507	-12.079	-0.890	 H	1	UNK0	0.000	
9	   H	-3.507	-12.079	0.890	 H	1	UNK0	0.000	
10	   C	-6.029	-10.997	0.000	C.3	1	UNK0	0.000	
11	   H	-5.659	-10.488	-0.890	 H	1	UNK0	0.000	
12	   H	-5.659	-10.488	0.890	 H	1	UNK0	0.000	
13	   O	-7.520	-10.840	0.000	O.3	1	UNK0	0.000	
14	   P	-8.130	-9.470	0.000	 P	1	UNK0	0.000	
15	   O	-9.501	-10.080	0.000	O.2	1	UNK0	0.000	
16	   O	-6.760	-8.860	0.000	O.2	1	UNK0	0.000	
17	   O	-8.741	-8.099	0.000	O.3	1	UNK0	0.000	
18	   P	-7.859	-6.886	0.000	 P	1	UNK0	0.000	
19	   O	-6.645	-7.768	0.000	O.2	1	UNK0	0.000	
20	   O	-9.072	-6.004	0.000	O.2	1	UNK0	0.000	
21	   O	-6.977	-5.673	0.000	O.3	1	UNK0	0.000	
22	   C	-5.485	-5.829	0.000	C.3	1	UNK0	0.000	
23	   H	-5.229	-6.404	-0.890	 H	1	UNK0	0.000	
24	   H	-5.229	-6.404	0.890	 H	1	UNK0	0.000	
25	   C	-4.604	-4.616	0.000	C.3	1	UNK0	0.000	
26	   H	-4.604	-4.616	1.090	 H	1	UNK0	0.000	
27	   C	-5.067	-3.189	0.000	C.3	1	UNK0	0.000	
28	   H	-5.067	-3.189	-1.090	 H	1	UNK0	0.000	
29	   C	-3.854	-2.307	0.000	C.3	1	UNK0	0.000	
30	   H	-3.854	-2.307	-1.090	 H	1	UNK0	0.000	
31	   C	-2.640	-3.189	0.000	C.3	1	UNK0	0.000	
32	   H	-2.640	-3.189	-1.090	 H	1	UNK0	0.000	
33	   O	-3.104	-4.616	0.000	O.3	1	UNK0	0.000	
34	   N	-1.214	-2.726	0.000	N.pl3	1	UNK0	0.000	
35	   C	0.000	-3.607	0.000	C.2	1	UNK0	0.000	
36	   H	0.000	-4.687	0.000	 H	1	UNK0	0.000	
37	   N	1.214	-2.726	0.000	N.2	1	UNK0	0.000	
38	   C	0.750	-1.299	0.000	C.2	1	UNK0	0.000	
39	   C	1.500	0.000	0.000	C.2	1	UNK0	0.000	
40	   N	0.750	1.299	0.000	N.2	1	UNK0	0.000	
41	   C	-0.750	1.299	0.000	C.2	1	UNK0	0.000	
42	   H	-1.290	2.234	0.000	 H	1	UNK0	0.000	
43	   N	-1.500	0.000	0.000	N.2	1	UNK0	0.000	
44	   C	-0.750	-1.299	0.000	C.2	1	UNK0	0.000	
45	   N	3.000	0.000	0.000	N.pl3	1	UNK0	0.000	
46	   H	3.505	0.875	0.000	 H	1	UNK0	0.000	
47	   H	3.505	-0.875	0.000	 H	1	UNK0	0.000	
48	   O	-3.854	-0.808	0.000	O.3	1	UNK0	0.000	
49	   H	-4.647	-0.518	-0.458	 H	1	UNK0	0.000	
50	   O	-6.494	-2.726	0.000	O.3	1	UNK0	0.000	
51	   P	-6.806	-1.258	0.000	 P	1	UNK0	0.000	
52	   O	-8.273	-1.570	0.000	O.2	1	UNK0	0.000	
53	   O	-5.338	-0.947	0.000	O.2	1	UNK0	0.000	
54	   O	-7.117	0.209	0.000	O.2	1	UNK0	0.000	
55	   C	-4.808	-13.738	0.000	C.3	1	UNK0	0.000	
56	   H	-4.808	-13.738	-1.090	 H	1	UNK0	0.000	
57	   C	-5.690	-14.951	0.000	C.2	1	UNK0	0.000	
58	   O	-7.182	-14.794	0.000	O.2	1	UNK0	0.000	
59	   N	-5.080	-16.321	0.000	N.pl3	1	UNK0	0.000	
60	   H	-4.076	-16.427	0.000	 H	1	UNK0	0.000	
61	   C	-5.962	-17.535	0.000	C.3	1	UNK0	0.000	
62	   H	-6.588	-17.469	-0.890	 H	1	UNK0	0.000	
63	   H	-6.588	-17.469	0.890	 H	1	UNK0	0.000	
64	   C	-5.351	-18.905	0.000	C.3	1	UNK0	0.000	
65	   H	-4.725	-18.971	0.890	 H	1	UNK0	0.000	
66	   H	-4.725	-18.971	-0.890	 H	1	UNK0	0.000	
67	   C	-6.233	-20.119	0.000	C.2	1	UNK0	0.000	
68	   O	-7.725	-19.962	0.000	O.2	1	UNK0	0.000	
69	   N	-5.623	-21.489	0.000	N.pl3	1	UNK0	0.000	
70	   H	-4.619	-21.595	0.000	 H	1	UNK0	0.000	
71	   C	-6.505	-22.703	0.000	C.3	1	UNK0	0.000	
72	   H	-7.131	-22.637	-0.890	 H	1	UNK0	0.000	
73	   H	-7.131	-22.637	0.890	 H	1	UNK0	0.000	
74	   C	-5.894	-24.073	0.000	C.3	1	UNK0	0.000	
75	   H	-5.268	-24.139	0.890	 H	1	UNK0	0.000	
76	   H	-5.268	-24.139	-0.890	 H	1	UNK0	0.000	
77	   S	-6.776	-25.287	0.000	S.3	1	UNK0	0.000	
78	   C	-6.166	-26.657	0.000	C.2	1	UNK0	0.000	
79	   O	-4.674	-26.814	0.000	O.2	1	UNK0	0.000	
80	   C	-7.048	-27.870	0.000	C.3	1	UNK0	0.000	
81	   H	-7.674	-27.804	-0.890	 H	1	UNK0	0.000	
82	   H	-7.674	-27.804	0.890	 H	1	UNK0	0.000	
83	   C	-6.438	-29.241	0.000	C.2	1	UNK0	0.000	
84	   O	-4.946	-29.397	0.000	O.2	1	UNK0	0.000	
85	   C	-7.319	-30.454	0.000	C.2	1	UNK0	0.000	
86	   H	-8.393	-30.341	0.000	 H	1	UNK0	0.000	
87	   C	-6.709	-31.824	0.000	C.2	1	UNK0	0.000	
88	   H	-5.635	-31.937	0.000	 H	1	UNK0	0.000	
89	   C	-7.591	-33.038	0.000	C.2	1	UNK0	0.000	
90	   C	-9.083	-32.881	0.000	C.2	1	UNK0	0.000	
91	   H	-9.523	-31.895	0.000	 H	1	UNK0	0.000	
92	   C	-9.964	-34.095	0.000	C.2	1	UNK0	0.000	
93	   C	-9.354	-35.465	0.000	C.2	1	UNK0	0.000	
94	   C	-7.863	-35.622	0.000	C.2	1	UNK0	0.000	
95	   H	-7.424	-36.609	0.000	 H	1	UNK0	0.000	
96	   C	-6.981	-34.408	0.000	C.2	1	UNK0	0.000	
97	   H	-5.907	-34.521	0.000	 H	1	UNK0	0.000	
98	   O	-10.236	-36.679	0.000	O.2	1	UNK0	0.000	
99	   O	-11.456	-33.938	0.000	O.3	1	UNK0	0.000	
100	   C	-12.066	-32.568	0.000	C.3	1	UNK0	0.000	
101	   H	-13.153	-32.654	-0.000	 H	1	UNK0	0.000	
102	   H	-11.744	-32.027	-0.890	 H	1	UNK0	0.000	
103	   H	-11.744	-32.027	0.890	 H	1	UNK0	0.000	
104	   O	-3.316	-13.894	0.000	O.3	1	UNK0	0.000	
105	   H	-2.945	-13.136	-0.458	 H	1	UNK0	0.000	
@<TRIPOS>BOND
1 1 2 1
2 1 3 1
3 1 4 1
4 1 5 1
5 5 6 1
6 5 10 1
7 5 55 1
8 6 7 1
9 6 8 1
10 6 9 1
11 10 11 1
12 10 12 1
13 10 13 1
14 13 14 1
15 14 15 ar
16 14 16 ar
17 14 17 1
18 17 18 1
19 18 19 ar
20 18 20 ar
21 18 21 1
22 21 22 1
23 22 23 1
24 22 24 1
25 22 25 1
26 25 26 1
27 25 27 1
28 25 33 1
29 27 28 1
30 27 29 1
31 27 50 1
32 29 30 1
33 29 31 1
34 29 48 1
35 31 32 1
36 31 33 1
37 31 34 1
38 34 35 1
39 34 44 1
40 35 36 1
41 35 37 2
42 37 38 1
43 38 39 ar
44 38 44 ar
45 39 40 ar
46 39 45 1
47 40 41 ar
48 41 42 1
49 41 43 ar
50 43 44 ar
51 45 46 1
52 45 47 1
53 48 49 1
54 50 51 1
55 51 52 ar
56 51 53 ar
57 51 54 ar
58 55 56 1
59 55 57 1
60 55 104 1
61 57 58 2
62 57 59 1
63 59 60 1
64 59 61 1
65 61 62 1
66 61 63 1
67 61 64 1
68 64 65 1
69 64 66 1
70 64 67 1
71 67 68 2
72 67 69 1
73 69 70 1
74 69 71 1
75 71 72 1
76 71 73 1
77 71 74 1
78 74 75 1
79 74 76 1
80 74 77 1
81 77 78 1
82 78 79 2
83 78 80 1
84 80 81 1
85 80 82 1
86 80 83 1
87 83 84 2
88 83 85 1
89 85 86 1
90 85 87 2
91 87 88 1
92 87 89 1
93 89 90 ar
94 89 96 ar
95 90 91 1
96 90 92 ar
97 92 93 ar
98 92 99 1
99 93 94 ar
100 93 98 1
101 94 95 1
102 94 96 ar
103 96 97 1
104 99 100 1
105 100 101 1
106 100 102 1
107 100 103 1
108 104 105 1
@<TRIPOS>SUBSTRUCTURE
1	UNK0	1	GROUP	1 ****	UNK
