L03.****
  PyMOL2.5          3D                             0

105108  0  0  0  0  0  0  0  0999 V2000
   -6.6591  -12.7879    2.0915 C   0  0  0  0  0  0  0  0  0  0  0  0
   -7.3622  -11.9666    2.2295 H   0  0  0  0  0  0  0  0  0  0  0  0
   -6.4304  -13.2368    3.0581 H   0  0  0  0  0  0  0  0  0  0  0  0
   -7.1020  -13.5393    1.4377 H   0  0  0  0  0  0  0  0  0  0  0  0
   -5.3964  -12.2665    1.4708 C   0  0  0  0  0  0  0  0  0  0  0  0
   -4.1345  -11.7449    0.8505 C   0  0  0  0  0  0  0  0  0  0  0  0
   -4.2264  -10.6710    0.6881 H   0  0  0  0  0  0  0  0  0  0  0  0
   -3.9658  -12.2436   -0.1040 H   0  0  0  0  0  0  0  0  0  0  0  0
   -3.2943  -11.9411    1.5165 H   0  0  0  0  0  0  0  0  0  0  0  0
   -5.9775  -10.8836    1.4535 C   0  0  0  0  0  0  0  0  0  0  0  0
   -5.9765  -10.5551    0.4142 H   0  0  0  0  0  0  0  0  0  0  0  0
   -5.3050  -10.2526    2.0346 H   0  0  0  0  0  0  0  0  0  0  0  0
   -7.3600  -10.6437    1.9817 O   0  0  0  0  0  0  0  0  0  0  0  0
   -7.9402   -9.2609    1.9640 P   0  0  0  0  0  0  0  0  0  0  0  0
   -9.2029   -9.7824    2.5847 O   0  0  0  0  0  0  0  0  0  0  0  0
   -6.4795   -9.2879    2.3028 O   0  5  0  0  0  0  0  0  0  0  0  0
   -8.5213   -7.8771    1.9465 O   0  0  0  0  0  0  0  0  0  0  0  0
   -7.7181   -6.7343    1.4003 P   0  0  0  0  0  0  0  0  0  0  0  0
   -6.6878   -7.6989    1.9101 O   0  0  0  0  0  0  0  0  0  0  0  0
   -8.3903   -5.8170    2.3780 O   0  5  0  0  0  0  0  0  0  0  0  0
   -6.9150   -5.5916    0.8541 O   0  0  0  0  0  0  0  0  0  0  0  0
   -5.5316   -5.8306    0.3254 C   0  0  0  0  0  0  0  0  0  0  0  0
   -5.6237   -6.5621   -0.4775 H   0  0  0  0  0  0  0  0  0  0  0  0
   -4.9521   -6.2596    1.1430 H   0  0  0  0  0  0  0  0  0  0  0  0
   -4.7293   -4.6878   -0.2204 C   0  0  0  0  0  0  0  0  0  0  0  0
   -4.3181   -4.5026    0.7719 H   0  0  0  0  0  0  0  0  0  0  0  0
   -5.1740   -3.2574   -0.3031 C   0  0  0  0  0  0  0  0  0  0  0  0
   -5.5853   -3.4427   -1.2954 H   0  0  0  0  0  0  0  0  0  0  0  0
   -4.0606   -2.4593   -0.9135 C   0  0  0  0  0  0  0  0  0  0  0  0
   -4.4719   -2.6445   -1.9058 H   0  0  0  0  0  0  0  0  0  0  0  0
   -2.9266   -3.3966   -1.2085 C   0  0  0  0  0  0  0  0  0  0  0  0
   -3.3378   -3.5819   -2.2009 H   0  0  0  0  0  0  0  0  0  0  0  0
   -3.3403   -4.7739   -0.7800 O   0  0  0  0  0  0  0  0  0  0  0  0
   -1.6112   -3.0229   -1.8234 N   0  0  0  0  0  0  0  0  0  0  0  0
   -0.4772   -3.9593   -2.1186 C   0  0  0  0  0  0  0  0  0  0  0  0
   -0.4651   -5.0217   -1.9253 H   0  0  0  0  0  0  0  0  0  0  0  0
    0.6372   -3.1622   -2.7293 N   0  0  0  0  0  0  0  0  0  0  0  0
    0.1915   -1.7317   -2.8116 C   0  0  0  0  0  0  0  0  0  0  0  0
    0.8715   -0.4968   -3.3239 C   0  0  0  0  0  0  0  0  0  0  0  0
    0.1625    0.8242   -3.2767 N   0  0  0  0  0  0  0  0  0  0  0  0
   -1.2266    0.9102   -2.7171 C   0  0  0  0  0  0  0  0  0  0  0  0
   -1.7371    1.8613   -2.6830 H   0  0  0  0  0  0  0  0  0  0  0  0
   -1.9066   -0.3247   -2.2047 N   0  0  0  0  0  0  0  0  0  0  0  0
   -1.1975   -1.6457   -2.2520 C   0  0  0  0  0  0  0  0  0  0  0  0
    2.2606   -0.5828   -3.8835 N   0  0  0  0  0  0  0  0  0  0  0  0
    2.7184    0.2487   -4.2285 H   0  0  0  0  0  0  0  0  0  0  0  0
    2.7380   -1.4723   -3.9154 H   0  0  0  0  0  0  0  0  0  0  0  0
   -4.0774   -0.9846   -1.1819 O   0  0  0  0  0  0  0  0  0  0  0  0
   -4.9871   -0.7313   -1.3547 H   0  0  0  0  0  0  0  0  0  0  0  0
   -6.5007   -2.7201    0.1464 O   0  0  0  0  0  0  0  0  0  0  0  0
   -6.8060   -1.2580    0.0000 P   0  0  0  0  0  0  0  0  0  0  0  0
   -8.1380   -1.5747    0.6124 O   0  0  0  0  0  0  0  0  0  0  0  0
   -5.3593   -1.2314    0.3975 O   0  5  0  0  0  0  0  0  0  0  0  0
   -6.7787   -0.2422    1.1029 O   0  5  0  0  0  0  0  0  0  0  0  0
   -4.8162  -13.6502    1.4887 C   0  0  0  0  0  0  0  0  0  0  0  0
   -5.2274  -13.8354    0.4964 H   0  0  0  0  0  0  0  0  0  0  0  0
   -5.6193  -14.7929    2.0348 C   0  0  0  0  0  0  0  0  0  0  0  0
   -7.0027  -14.5529    2.5634 O   0  0  0  0  0  0  0  0  0  0  0  0
   -5.0391  -16.1757    2.0525 N   0  0  0  0  0  0  0  0  0  0  0  0
   -4.1078  -16.3372    1.6967 H   0  0  0  0  0  0  0  0  0  0  0  0
   -5.8423  -17.3194    2.5989 C   0  0  0  0  0  0  0  0  0  0  0  0
   -6.7584  -17.3702    2.0104 H   0  0  0  0  0  0  0  0  0  0  0  0
   -6.0869  -17.0678    3.6309 H   0  0  0  0  0  0  0  0  0  0  0  0
   -5.2612  -18.7023    2.6162 C   0  0  0  0  0  0  0  0  0  0  0  0
   -4.3451  -18.6515    3.2047 H   0  0  0  0  0  0  0  0  0  0  0  0
   -5.0166  -18.9540    1.5842 H   0  0  0  0  0  0  0  0  0  0  0  0
   -6.0644  -19.8460    3.1626 C   0  0  0  0  0  0  0  0  0  0  0  0
   -7.4477  -19.6060    3.6911 O   0  0  0  0  0  0  0  0  0  0  0  0
   -5.4841  -21.2288    3.1802 N   0  0  0  0  0  0  0  0  0  0  0  0
   -4.5528  -21.3903    2.8244 H   0  0  0  0  0  0  0  0  0  0  0  0
   -6.2873  -22.3725    3.7266 C   0  0  0  0  0  0  0  0  0  0  0  0
   -7.2034  -22.4233    3.1381 H   0  0  0  0  0  0  0  0  0  0  0  0
   -6.5319  -22.1208    4.7586 H   0  0  0  0  0  0  0  0  0  0  0  0
   -5.7062  -23.7553    3.7439 C   0  0  0  0  0  0  0  0  0  0  0  0
   -4.7901  -23.7045    4.3324 H   0  0  0  0  0  0  0  0  0  0  0  0
   -5.4616  -24.0070    2.7119 H   0  0  0  0  0  0  0  0  0  0  0  0
   -6.5094  -24.8991    4.2903 S   0  0  0  0  0  0  0  0  0  0  0  0
   -5.9292  -26.2818    4.3079 C   0  0  0  0  0  0  0  0  0  0  0  0
   -4.5458  -26.5219    3.7794 O   0  0  0  0  0  0  0  0  0  0  0  0
   -6.7324  -27.4246    4.8541 C   0  0  0  0  0  0  0  0  0  0  0  0
   -7.6485  -27.4750    4.2656 H   0  0  0  0  0  0  0  0  0  0  0  0
   -6.9769  -27.1725    5.8861 H   0  0  0  0  0  0  0  0  0  0  0  0
   -6.1521  -28.8083    4.8720 C   0  0  0  0  0  0  0  0  0  0  0  0
   -4.7688  -29.0474    4.3433 O   0  0  0  0  0  0  0  0  0  0  0  0
   -6.9544  -29.9511    5.4178 C   0  0  0  0  0  0  0  0  0  0  0  0
   -7.9503  -29.7785    5.7983 H   0  0  0  0  0  0  0  0  0  0  0  0
   -6.3742  -31.3339    5.4355 C   0  0  0  0  0  0  0  0  0  0  0  0
   -5.3783  -31.5066    5.0550 H   0  0  0  0  0  0  0  0  0  0  0  0
   -7.1774  -32.4776    5.9818 C   0  0  0  0  0  0  0  0  0  0  0  0
   -8.5608  -32.2376    6.5104 C   0  0  0  0  0  0  0  0  0  0  0  0
   -8.9788  -31.2419    6.4977 H   0  0  0  0  0  0  0  0  0  0  0  0
   -9.3630  -33.3814    7.0564 C   0  0  0  0  0  0  0  0  0  0  0  0
   -8.7828  -34.7641    7.0740 C   0  0  0  0  0  0  0  0  0  0  0  0
   -7.4003  -35.0041    6.5459 C   0  0  0  0  0  0  0  0  0  0  0  0
   -6.9826  -36.0000    6.5587 H   0  0  0  0  0  0  0  0  0  0  0  0
   -6.5972  -33.8604    5.9995 C   0  0  0  0  0  0  0  0  0  0  0  0
   -5.6012  -34.0330    5.6190 H   0  0  0  0  0  0  0  0  0  0  0  0
   -9.5860  -35.9078    7.6204 O   0  5  0  0  0  0  0  0  0  0  0  0
  -10.7464  -33.1413    7.5849 O   0  0  0  0  0  0  0  0  0  0  0  0
  -11.3266  -31.7586    7.5672 C   0  0  0  0  0  0  0  0  0  0  0  0
  -12.3319  -31.7810    7.9880 H   0  0  0  0  0  0  0  0  0  0  0  0
  -11.3706  -31.3961    6.5402 H   0  0  0  0  0  0  0  0  0  0  0  0
  -10.6991  -31.0937    8.1606 H   0  0  0  0  0  0  0  0  0  0  0  0
   -3.4328  -13.8892    0.9600 O   0  0  0  0  0  0  0  0  0  0  0  0
   -3.2702  -13.2426    0.2693 H   0  0  0  0  0  0  0  0  0  0  0  0
  1  2  1  0  0  0  0
  1  3  1  0  0  0  0
  1  4  1  0  0  0  0
  1  5  1  0  0  0  0
  5  6  1  0  0  0  0
  5 10  1  0  0  0  0
  5 55  1  0  0  0  0
  6  7  1  0  0  0  0
  6  8  1  0  0  0  0
  6  9  1  0  0  0  0
 10 11  1  0  0  0  0
 10 12  1  0  0  0  0
 10 13  1  0  0  0  0
 13 14  1  0  0  0  0
 14 17  1  0  0  0  0
 17 18  1  0  0  0  0
 18 21  1  0  0  0  0
 21 22  1  0  0  0  0
 22 23  1  0  0  0  0
 22 24  1  0  0  0  0
 22 25  1  0  0  0  0
 25 26  1  0  0  0  0
 25 27  1  0  0  0  0
 25 33  1  0  0  0  0
 27 28  1  0  0  0  0
 27 29  1  0  0  0  0
 27 50  1  0  0  0  0
 29 30  1  0  0  0  0
 29 31  1  0  0  0  0
 29 48  1  0  0  0  0
 31 32  1  0  0  0  0
 31 33  1  0  0  0  0
 31 34  1  0  0  0  0
 34 35  1  0  0  0  0
 34 44  1  0  0  0  0
 35 36  1  0  0  0  0
 35 37  2  0  0  0  0
 37 38  1  0  0  0  0
 39 45  1  0  0  0  0
 41 42  1  0  0  0  0
 45 46  1  0  0  0  0
 45 47  1  0  0  0  0
 48 49  1  0  0  0  0
 50 51  1  0  0  0  0
 55 56  1  0  0  0  0
 55 57  1  0  0  0  0
 55104  1  0  0  0  0
 57 58  2  0  0  0  0
 57 59  1  0  0  0  0
 59 60  1  0  0  0  0
 59 61  1  0  0  0  0
 61 62  1  0  0  0  0
 61 63  1  0  0  0  0
 61 64  1  0  0  0  0
 64 65  1  0  0  0  0
 64 66  1  0  0  0  0
 64 67  1  0  0  0  0
 67 68  2  0  0  0  0
 67 69  1  0  0  0  0
 69 70  1  0  0  0  0
 69 71  1  0  0  0  0
 71 72  1  0  0  0  0
 71 73  1  0  0  0  0
 71 74  1  0  0  0  0
 74 75  1  0  0  0  0
 74 76  1  0  0  0  0
 74 77  1  0  0  0  0
 77 78  1  0  0  0  0
 78 79  2  0  0  0  0
 78 80  1  0  0  0  0
 80 81  1  0  0  0  0
 80 82  1  0  0  0  0
 80 83  1  0  0  0  0
 83 84  2  0  0  0  0
 83 85  1  0  0  0  0
 85 86  1  0  0  0  0
 85 87  2  0  0  0  0
 87 88  1  0  0  0  0
 87 89  1  0  0  0  0
 90 91  1  0  0  0  0
 92 99  1  0  0  0  0
 93 98  1  0  0  0  0
 94 95  1  0  0  0  0
 96 97  1  0  0  0  0
 99100  1  0  0  0  0
100101  1  0  0  0  0
100102  1  0  0  0  0
100103  1  0  0  0  0
104105  1  0  0  0  0
 93 94  1  0  0  0  0
 90 92  1  0  0  0  0
 89 96  1  0  0  0  0
 14 16  1  0  0  0  0
 18 19  1  0  0  0  0
 51 53  1  0  0  0  0
 51 54  1  0  0  0  0
 43 44  1  0  0  0  0
 38 39  1  0  0  0  0
 40 41  1  0  0  0  0
 41 43  2  0  0  0  0
 39 40  2  0  0  0  0
 38 44  2  0  0  0  0
 51 52  2  0  0  0  0
 18 20  2  0  0  0  0
 14 15  2  0  0  0  0
 89 90  2  0  0  0  0
 92 93  2  0  0  0  0
 94 96  2  0  0  0  0
M  END
$$$$
