L03.****
  PyMOL2.5          3D                             0

105108  0  0  0  0  0  0  0  0999 V2000
    4.4484   -6.4497   -7.2936 C   0  0  0  1  0  0  0  0  0  0  0  0
    4.7169   -6.1752   -8.2923 H   0  0  0  1  0  0  0  0  0  0  0  0
    5.3321   -6.5262   -6.6952 H   0  0  0  1  0  0  0  0  0  0  0  0
    3.8010   -5.7043   -6.8810 H   0  0  0  1  0  0  0  0  0  0  0  0
    3.7249   -7.8015   -7.3112 C   0  0  0  1  0  0  0  0  0  0  0  0
    3.6036   -8.2715   -8.7657 C   0  0  0  1  0  0  0  0  0  0  0  0
    2.7227   -7.8514   -9.2045 H   0  0  0  1  0  0  0  0  0  0  0  0
    3.5399   -9.3393   -8.7911 H   0  0  0  1  0  0  0  0  0  0  0  0
    4.4634   -7.9518   -9.3165 H   0  0  0  1  0  0  0  0  0  0  0  0
    2.3030   -7.7003   -6.7369 C   0  0  0  1  0  0  0  0  0  0  0  0
    1.7957   -8.6352   -6.8531 H   0  0  0  1  0  0  0  0  0  0  0  0
    1.7583   -6.9326   -7.2457 H   0  0  0  1  0  0  0  0  0  0  0  0
    2.4191   -7.3731   -5.3289 O   0  0  0  1  0  0  0  0  0  0  0  0
    1.1038   -7.2322   -4.4767 P   0  0  0  1  0  0  0  0  0  0  0  0
    0.6001   -6.2112   -5.4223 O   0  0  0  1  0  0  0  0  0  0  0  0
    1.6389   -8.7576   -4.5834 O   0  5  0  1  0  0  0  0  0  0  0  0
   -0.2393   -7.0880   -3.6070 O   0  0  0  1  0  0  0  0  0  0  0  0
   -1.2023   -8.1663   -2.9169 P   0  0  0  1  0  0  0  0  0  0  0  0
   -0.3730   -9.0977   -2.1125 O   0  0  0  0  0  0  0  0  0  0  0  0
   -2.1028   -8.7252   -3.9370 O   0  0  0  1  0  0  0  0  0  0  0  0
   -2.0824   -7.2455   -1.9930 O   0  0  0  1  0  0  0  0  0  0  0  0
   -2.8540   -6.1509   -2.5519 C   0  0  0  1  0  0  0  0  0  0  0  0
   -3.5662   -6.5415   -3.2484 H   0  0  0  1  0  0  0  0  0  0  0  0
   -2.1941   -5.4763   -3.0563 H   0  0  0  1  0  0  0  0  0  0  0  0
   -3.5840   -5.4080   -1.4580 C   0  0  0  1  0  0  0  0  0  0  0  0
   -4.0177   -6.1104   -0.7772 H   0  0  0  1  0  0  0  0  0  0  0  0
   -4.6447   -4.5030   -2.0414 C   0  0  0  1  0  0  0  0  0  0  0  0
   -5.4266   -4.3243   -1.3332 H   0  0  0  1  0  0  0  0  0  0  0  0
   -3.8804   -3.2092   -2.3524 C   0  0  0  1  0  0  0  0  0  0  0  0
   -4.5138   -2.3530   -2.2496 H   0  0  0  1  0  0  0  0  0  0  0  0
   -2.7705   -3.2078   -1.2893 C   0  0  0  1  0  0  0  0  0  0  0  0
   -3.0118   -2.5119   -0.5131 H   0  0  0  1  0  0  0  0  0  0  0  0
   -2.6803   -4.4997   -0.7579 O   0  0  0  1  0  0  0  0  0  0  0  0
   -1.4937   -2.8323   -1.9035 N   0  0  0  1  0  0  0  0  0  0  0  0
   -0.4465   -3.6534   -2.1899 C   0  0  0  1  0  0  0  0  0  0  0  0
   -0.4664   -4.6744   -1.9931 H   0  0  0  1  0  0  0  0  0  0  0  0
    0.5845   -3.0627   -2.7303 N   0  0  0  1  0  0  0  0  0  0  0  0
    0.1890   -1.7372   -2.8202 C   0  0  0  1  0  0  0  0  0  0  0  0
    0.7950   -0.5730   -3.2830 C   0  0  0  1  0  0  0  0  0  0  0  0
    0.1312    0.5868   -3.2288 N   0  0  0  1  0  0  0  0  0  0  0  0
   -1.1063    0.5799   -2.7086 C   0  0  0  1  0  0  0  0  0  0  0  0
   -1.5874    1.5015   -2.6803 H   0  0  0  1  0  0  0  0  0  0  0  0
   -1.7988   -0.4443   -2.2256 N   0  0  0  1  0  0  0  0  0  0  0  0
   -1.1063   -1.5812   -2.3087 C   0  0  0  1  0  0  0  0  0  0  0  0
    2.0663   -0.6148   -3.7921 N   0  0  0  1  0  0  0  0  0  0  0  0
    2.5583   -1.4620   -3.8124 H   0  0  0  1  0  0  0  0  0  0  0  0
    2.4835    0.2026   -4.1359 H   0  0  0  1  0  0  0  0  0  0  0  0
   -3.3307   -3.2402   -3.6703 O   0  0  0  1  0  0  0  0  0  0  0  0
   -3.4933   -4.1000   -4.0652 H   0  0  0  1  0  0  0  0  0  0  0  0
   -5.2049   -5.0731   -3.2442 O   0  0  0  1  0  0  0  0  0  0  0  0
   -6.8140   -5.3015   -3.4635 P   0  0  0  1  0  0  0  0  0  0  0  0
   -7.5563   -5.5502   -2.2075 O   0  0  0  1  0  0  0  0  0  0  0  0
   -7.3453   -4.0449   -4.3370 O   0  5  0  1  0  0  0  0  0  0  0  0
   -6.8329   -6.6378   -4.3789 O   0  5  0  1  0  0  0  0  0  0  0  0
    4.5602   -8.8180   -6.5237 C   0  0  0  1  0  0  0  0  0  0  0  0
    5.5123   -8.9029   -7.0045 H   0  0  0  1  0  0  0  0  0  0  0  0
    4.7924   -8.3846   -5.0942 C   0  0  0  1  0  0  0  0  0  0  0  0
    5.3776   -7.3325   -4.8409 O   0  0  0  1  0  0  0  0  0  0  0  0
    4.3443   -9.1760   -4.1183 N   0  0  0  1  0  0  0  0  0  0  0  0
    3.7903   -9.9426   -4.3751 H   0  0  0  1  0  0  0  0  0  0  0  0
    4.6161   -8.9869   -2.7012 C   0  0  0  1  0  0  0  0  0  0  0  0
    4.7297   -7.9401   -2.5107 H   0  0  0  1  0  0  0  0  0  0  0  0
    5.5249   -9.4954   -2.4556 H   0  0  0  1  0  0  0  0  0  0  0  0
    3.5005   -9.5259   -1.8154 C   0  0  0  1  0  0  0  0  0  0  0  0
    2.6424   -8.8966   -1.9275 H   0  0  0  1  0  0  0  0  0  0  0  0
    3.8313   -9.5010   -0.7981 H   0  0  0  1  0  0  0  0  0  0  0  0
    3.1039  -10.9485   -2.1592 C   0  0  0  1  0  0  0  0  0  0  0  0
    3.9195  -11.8657   -2.1158 O   0  0  0  1  0  0  0  0  0  0  0  0
    1.8282  -11.1267   -2.5058 N   0  0  0  1  0  0  0  0  0  0  0  0
    1.2424  -10.3439   -2.5726 H   0  0  0  1  0  0  0  0  0  0  0  0
    1.2760  -12.4432   -2.7882 C   0  0  0  1  0  0  0  0  0  0  0  0
    0.2151  -12.4059   -2.6545 H   0  0  0  1  0  0  0  0  0  0  0  0
    1.6981  -13.1466   -2.1012 H   0  0  0  1  0  0  0  0  0  0  0  0
    1.5701  -12.9046   -4.1942 C   0  0  0  1  0  0  0  0  0  0  0  0
    1.1911  -13.8983   -4.3122 H   0  0  0  1  0  0  0  0  0  0  0  0
    2.6306  -12.9076   -4.3362 H   0  0  0  1  0  0  0  0  0  0  0  0
    0.8237  -11.8508   -5.4605 S   0  0  0  1  0  0  0  0  0  0  0  0
   -0.7673  -12.5460   -5.6295 C   0  0  0  1  0  0  0  0  0  0  0  0
   -1.1864  -13.4295   -4.9314 O   0  0  0  1  0  0  0  0  0  0  0  0
   -1.5955  -11.8486   -6.6873 C   0  0  0  1  0  0  0  0  0  0  0  0
   -1.3967  -12.3164   -7.6289 H   0  0  0  1  0  0  0  0  0  0  0  0
   -1.2920  -10.8234   -6.7266 H   0  0  0  1  0  0  0  0  0  0  0  0
   -3.0833  -11.8896   -6.4467 C   0  0  0  1  0  0  0  0  0  0  0  0
   -3.5353  -12.4804   -5.4818 O   0  0  0  1  0  0  0  0  0  0  0  0
   -3.9689  -11.2120   -7.3860 C   0  0  0  1  0  0  0  0  0  0  0  0
   -3.5240  -10.6209   -8.1170 H   0  0  0  1  0  0  0  0  0  0  0  0
   -5.2993  -11.2851   -7.3881 C   0  0  0  1  0  0  0  0  0  0  0  0
   -5.7863  -11.8647   -6.6750 H   0  0  0  1  0  0  0  0  0  0  0  0
   -6.0893  -10.5453   -8.4008 C   0  0  0  1  0  0  0  0  0  0  0  0
   -5.5308   -9.7259   -9.3636 C   0  0  0  1  0  0  0  0  0  0  0  0
   -4.4995   -9.5978   -9.4029 H   0  0  0  1  0  0  0  0  0  0  0  0
   -6.3455   -9.0749  -10.2767 C   0  0  0  1  0  0  0  0  0  0  0  0
   -7.7166   -9.2409  -10.2212 C   0  0  0  1  0  0  0  0  0  0  0  0
   -8.2765  -10.0628   -9.2555 C   0  0  0  1  0  0  0  0  0  0  0  0
   -9.3078  -10.1909   -9.2161 H   0  0  0  1  0  0  0  0  0  0  0  0
   -7.4643  -10.7120   -8.3449 C   0  0  0  1  0  0  0  0  0  0  0  0
   -7.8846  -11.3254   -7.6179 H   0  0  0  1  0  0  0  0  0  0  0  0
   -8.4877   -8.5837  -11.1284 O   0  5  0  1  0  0  0  0  0  0  0  0
   -5.9144   -8.2543  -11.2639 O   0  0  0  1  0  0  0  0  0  0  0  0
   -4.4976   -8.0456  -11.3719 C   0  0  0  1  0  0  0  0  0  0  0  0
   -4.0014   -8.9913  -11.4382 H   0  0  0  1  0  0  0  0  0  0  0  0
   -4.1480   -7.5194  -10.5084 H   0  0  0  1  0  0  0  0  0  0  0  0
   -4.2879   -7.4708  -12.2497 H   0  0  0  1  0  0  0  0  0  0  0  0
    3.8790  -10.0558   -6.6077 O   0  0  0  1  0  0  0  0  0  0  0  0
    4.3923  -10.6686   -7.1392 H   0  0  0  1  0  0  0  0  0  0  0  0
  1  2  1  0  0  0  0
  1  3  1  0  0  0  0
  1  4  1  0  0  0  0
  1  5  1  0  0  0  0
  5  6  1  0  0  0  0
  5 10  1  0  0  0  0
  5 55  1  0  0  0  0
  6  7  1  0  0  0  0
  6  8  1  0  0  0  0
  6  9  1  0  0  0  0
 10 11  1  0  0  0  0
 10 12  1  0  0  0  0
 10 13  1  0  0  0  0
 13 14  1  0  0  0  0
 14 15  2  0  0  0  0
 14 16  1  0  0  0  0
 14 17  1  0  0  0  0
 17 18  1  0  0  0  0
 18 19  1  0  0  0  0
 18 20  2  0  0  0  0
 18 21  1  0  0  0  0
 21 22  1  0  0  0  0
 22 23  1  0  0  0  0
 22 24  1  0  0  0  0
 22 25  1  0  0  0  0
 25 26  1  0  0  0  0
 25 27  1  0  0  0  0
 25 33  1  0  0  0  0
 27 28  1  0  0  0  0
 27 29  1  0  0  0  0
 27 50  1  0  0  0  0
 29 30  1  0  0  0  0
 29 31  1  0  0  0  0
 29 48  1  0  0  0  0
 31 32  1  0  0  0  0
 31 33  1  0  0  0  0
 31 34  1  0  0  0  0
 34 35  1  0  0  0  0
 34 44  1  0  0  0  0
 35 36  1  0  0  0  0
 35 37  2  0  0  0  0
 37 38  1  0  0  0  0
 38 39  1  0  0  0  0
 38 44  2  0  0  0  0
 39 40  2  0  0  0  0
 39 45  1  0  0  0  0
 40 41  1  0  0  0  0
 41 42  1  0  0  0  0
 41 43  2  0  0  0  0
 43 44  1  0  0  0  0
 45 46  1  0  0  0  0
 45 47  1  0  0  0  0
 48 49  1  0  0  0  0
 50 51  1  0  0  0  0
 51 52  2  0  0  0  0
 51 53  1  0  0  0  0
 51 54  1  0  0  0  0
 55 56  1  0  0  0  0
 55 57  1  0  0  0  0
 55104  1  0  0  0  0
 57 58  2  0  0  0  0
 57 59  1  0  0  0  0
 59 60  1  0  0  0  0
 59 61  1  0  0  0  0
 61 62  1  0  0  0  0
 61 63  1  0  0  0  0
 61 64  1  0  0  0  0
 64 65  1  0  0  0  0
 64 66  1  0  0  0  0
 64 67  1  0  0  0  0
 67 68  2  0  0  0  0
 67 69  1  0  0  0  0
 69 70  1  0  0  0  0
 69 71  1  0  0  0  0
 71 72  1  0  0  0  0
 71 73  1  0  0  0  0
 71 74  1  0  0  0  0
 74 75  1  0  0  0  0
 74 76  1  0  0  0  0
 74 77  1  0  0  0  0
 77 78  1  0  0  0  0
 78 79  2  0  0  0  0
 78 80  1  0  0  0  0
 80 81  1  0  0  0  0
 80 82  1  0  0  0  0
 80 83  1  0  0  0  0
 83 84  2  0  0  0  0
 83 85  1  0  0  0  0
 85 86  1  0  0  0  0
 85 87  2  0  0  0  0
 87 88  1  0  0  0  0
 87 89  1  0  0  0  0
 89 90  2  0  0  0  0
 89 96  1  0  0  0  0
 90 91  1  0  0  0  0
 90 92  1  0  0  0  0
 92 93  2  0  0  0  0
 92 99  1  0  0  0  0
 93 94  1  0  0  0  0
 93 98  1  0  0  0  0
 94 95  1  0  0  0  0
 94 96  2  0  0  0  0
 96 97  1  0  0  0  0
 99100  1  0  0  0  0
100101  1  0  0  0  0
100102  1  0  0  0  0
100103  1  0  0  0  0
104105  1  0  0  0  0
M  BCL ATM C_TeTeTeTe H_S H_S H_S C_TeTeTeTe C_TeTeTeTe H_S H_S H_S C_TeTeTeTe H_S H_S O_Tr2TrTrPi2 P_TeTeTeTePi O_Tr2Tr2TrPi O_Te2Te2Te2Te O_Tr2TrTrPi2 P_TeTeTeTePi O_Te2Te2TeTe O_Tr2Tr2TrPi O_Tr2TrTrPi2 C_TeTeTeTe H_S H_S C_TeTeTeTe H_S C_TeTeTeTe H_S C_TeTeTeTe H_S C_TeTeTeTe H_S O_Te2Te2TeTe N_TrTrTrPi2 C_TrTrTrPi H_S N_Tr2TrTrPi C_TrTrTrPi C_TrTrTrPi N_Tr2TrTrPi C_TrTrTrPi H_S N_Tr2TrTrPi C_TrTrTrPi N_TrTrTrPi2 H_S H_S O_Te2Te2TeTe H_S O_Tr2TrTrPi2 P_TeTeTeTePi O_Tr2Tr2TrPi O_Te2Te2Te2Te O_Te2Te2Te2Te C_TeTeTeTe H_S C_TrTrTrPi O_Tr2Tr2TrPi N_TrTrTrPi2 H_S C_TeTeTeTe H_S H_S C_TeTeTeTe H_S H_S C_TrTrTrPi O_Tr2Tr2TrPi N_TrTrTrPi2 H_S C_TeTeTeTe H_S H_S C_TeTeTeTe H_S H_S S_Te2Te2TeTe C_TrTrTrPi O_Tr2Tr2TrPi C_TeTeTeTe H_S H_S C_TrTrTrPi O_Tr2Tr2TrPi C_TrTrTrPi H_S C_TrTrTrPi H_S C_TrTrTrPi C_TrTrTrPi H_S C_TrTrTrPi C_TrTrTrPi C_TrTrTrPi H_S C_TrTrTrPi H_S O_Te2Te2Te2Te O_Tr2TrTrPi2 C_TeTeTeTe H_S H_S H_S O_Te2Te2TeTe H_S
M  BCL BND NonConjugatedSingleBond NonConjugatedSingleBond NonConjugatedSingleBond NonConjugatedSingleBond NonConjugatedSingleBond NonConjugatedSingleBond NonConjugatedSingleBond NonConjugatedSingleBond NonConjugatedSingleBond NonConjugatedSingleBond NonConjugatedSingleBond NonConjugatedSingleBond NonConjugatedSingleBond ConjugatedSingleBond ConjugatedDoubleBond ConjugatedSingleBond ConjugatedSingleBond ConjugatedSingleBond ConjugatedSingleBond ConjugatedDoubleBond ConjugatedSingleBond NonConjugatedSingleBond NonConjugatedSingleBond NonConjugatedSingleBond NonConjugatedSingleBond NonConjugatedSingleBond NonConjugatedSingleBondInRing NonConjugatedSingleBondInRing NonConjugatedSingleBond NonConjugatedSingleBondInRing NonConjugatedSingleBond NonConjugatedSingleBond NonConjugatedSingleBondInRing NonConjugatedSingleBond NonConjugatedSingleBond NonConjugatedSingleBondInRing NonConjugatedSingleBond AromaticSingleBond AromaticSingleBond NonConjugatedSingleBond AromaticDoubleBond AromaticSingleBond AromaticSingleBond AromaticDoubleBond AromaticDoubleBond ConjugatedSingleBond AromaticSingleBond NonConjugatedSingleBond AromaticDoubleBond AromaticSingleBond NonConjugatedSingleBond NonConjugatedSingleBond NonConjugatedSingleBond ConjugatedSingleBond ConjugatedDoubleBond ConjugatedSingleBond ConjugatedSingleBond NonConjugatedSingleBond NonConjugatedSingleBond NonConjugatedSingleBond ConjugatedDoubleBond AmideSingleBond NonConjugatedSingleBond NonConjugatedSingleBond NonConjugatedSingleBond NonConjugatedSingleBond NonConjugatedSingleBond NonConjugatedSingleBond NonConjugatedSingleBond NonConjugatedSingleBond ConjugatedDoubleBond AmideSingleBond NonConjugatedSingleBond NonConjugatedSingleBond NonConjugatedSingleBond NonConjugatedSingleBond NonConjugatedSingleBond NonConjugatedSingleBond NonConjugatedSingleBond NonConjugatedSingleBond ConjugatedSingleBond ConjugatedDoubleBond NonConjugatedSingleBond NonConjugatedSingleBond NonConjugatedSingleBond NonConjugatedSingleBond ConjugatedDoubleBond ConjugatedSingleBond NonConjugatedSingleBond ConjugatedDoubleBond NonConjugatedSingleBond ConjugatedSingleBond AromaticDoubleBond AromaticSingleBond NonConjugatedSingleBond AromaticSingleBond AromaticDoubleBond ConjugatedSingleBond AromaticSingleBond ConjugatedSingleBond NonConjugatedSingleBond AromaticDoubleBond NonConjugatedSingleBond NonConjugatedSingleBond NonConjugatedSingleBond NonConjugatedSingleBond NonConjugatedSingleBond NonConjugatedSingleBond
M  BCL CHI  14   R  18   S  25   R  27   R  29   R  31   S  55   R
M  BCL DBI - - - - - - - - - - - E - - -
M  END
> <ConfClashScore>
0 

> <ConfOneFourInteractionScore>
-0.974889 

> <ConfScore>
-0.0995194 

> <ConfScorePBest>
0.0150985 

> <ConfTolerance>
3.15787 

$$$$
L03.****
  PyMOL2.5          3D                             0

105108  0  0  0  0  0  0  0  0999 V2000
   -7.5599   -0.6844  -10.5658 C   0  0  0  1  0  0  0  0  0  0  0  0
   -7.7782   -1.7203  -10.4102 H   0  0  0  1  0  0  0  0  0  0  0  0
   -6.5005   -0.5493  -10.6316 H   0  0  0  1  0  0  0  0  0  0  0  0
   -8.0189   -0.3560  -11.4748 H   0  0  0  1  0  0  0  0  0  0  0  0
   -8.1074    0.1360   -9.3917 C   0  0  0  1  0  0  0  0  0  0  0  0
   -8.0572    1.6301   -9.7326 C   0  0  0  1  0  0  0  0  0  0  0  0
   -8.6218    2.1807   -9.0094 H   0  0  0  1  0  0  0  0  0  0  0  0
   -8.4739    1.7879  -10.7054 H   0  0  0  1  0  0  0  0  0  0  0  0
   -7.0408    1.9644   -9.7210 H   0  0  0  1  0  0  0  0  0  0  0  0
   -7.2816   -0.1267   -8.1755 C   0  0  0  1  0  0  0  0  0  0  0  0
   -6.3130    0.3133   -8.2907 H   0  0  0  1  0  0  0  0  0  0  0  0
   -7.1793   -1.1812   -8.0253 H   0  0  0  1  0  0  0  0  0  0  0  0
   -7.9619    0.4683   -7.0455 O   0  0  0  1  0  0  0  0  0  0  0  0
   -7.3434    0.3933   -5.6006 P   0  0  0  1  0  0  0  0  0  0  0  0
   -7.6291   -1.0581   -5.5533 O   0  0  0  1  0  0  0  0  0  0  0  0
   -6.5402    1.3922   -6.5913 O   0  5  0  1  0  0  0  0  0  0  0  0
   -6.7120    0.3162   -4.1253 O   0  0  0  1  0  0  0  0  0  0  0  0
   -5.1783    0.3685   -3.5818 P   0  0  0  1  0  0  0  0  0  0  0  0
   -4.7186    1.7767   -3.4934 O   0  0  0  0  0  0  0  0  0  0  0  0
   -4.3387   -0.6340   -4.2749 O   0  0  0  1  0  0  0  0  0  0  0  0
   -5.5975   -0.1561   -2.1587 O   0  0  0  1  0  0  0  0  0  0  0  0
   -4.6498   -0.1640   -1.0598 C   0  0  0  1  0  0  0  0  0  0  0  0
   -5.0582    0.3624   -0.2226 H   0  0  0  1  0  0  0  0  0  0  0  0
   -3.7358    0.3022   -1.3635 H   0  0  0  1  0  0  0  0  0  0  0  0
   -4.3927   -1.6061   -0.6857 C   0  0  0  1  0  0  0  0  0  0  0  0
   -5.3103   -2.0656   -0.3829 H   0  0  0  1  0  0  0  0  0  0  0  0
   -3.3432   -1.6995    0.4313 C   0  0  0  1  0  0  0  0  0  0  0  0
   -3.8008   -1.6392    1.3967 H   0  0  0  1  0  0  0  0  0  0  0  0
   -2.7362   -3.0587    0.2021 C   0  0  0  1  0  0  0  0  0  0  0  0
   -3.3142   -3.8225    0.6790 H   0  0  0  1  0  0  0  0  0  0  0  0
   -2.7797   -3.2075   -1.3216 C   0  0  0  1  0  0  0  0  0  0  0  0
   -3.0192   -4.2141   -1.5940 H   0  0  0  1  0  0  0  0  0  0  0  0
   -3.8188   -2.3026   -1.7583 O   0  0  0  1  0  0  0  0  0  0  0  0
   -1.4942   -2.8353   -1.9104 N   0  0  0  1  0  0  0  0  0  0  0  0
   -0.4467   -3.6608   -2.1844 C   0  0  0  1  0  0  0  0  0  0  0  0
   -0.4692   -4.6842   -2.0005 H   0  0  0  1  0  0  0  0  0  0  0  0
    0.5995   -3.0472   -2.7039 N   0  0  0  1  0  0  0  0  0  0  0  0
    0.1750   -1.7210   -2.7903 C   0  0  0  1  0  0  0  0  0  0  0  0
    0.8114   -0.5688   -3.2833 C   0  0  0  1  0  0  0  0  0  0  0  0
    0.1250    0.5980   -3.2213 N   0  0  0  1  0  0  0  0  0  0  0  0
   -1.1151    0.5798   -2.7009 C   0  0  0  1  0  0  0  0  0  0  0  0
   -1.5970    1.5011   -2.6741 H   0  0  0  1  0  0  0  0  0  0  0  0
   -1.8189   -0.4423   -2.2145 N   0  0  0  1  0  0  0  0  0  0  0  0
   -1.0926   -1.5753   -2.3030 C   0  0  0  1  0  0  0  0  0  0  0  0
    2.0764   -0.6233   -3.8064 N   0  0  0  1  0  0  0  0  0  0  0  0
    2.5527   -1.4787   -3.8488 H   0  0  0  1  0  0  0  0  0  0  0  0
    2.5051    0.1932   -4.1381 H   0  0  0  1  0  0  0  0  0  0  0  0
   -1.3923   -3.1074    0.6835 O   0  0  0  1  0  0  0  0  0  0  0  0
   -0.8424   -3.5765    0.0517 H   0  0  0  1  0  0  0  0  0  0  0  0
   -2.3468   -0.6531    0.3016 O   0  0  0  1  0  0  0  0  0  0  0  0
   -2.1649    0.4840    1.4692 P   0  0  0  1  0  0  0  0  0  0  0  0
   -3.4861    1.0482    1.8251 O   0  0  0  1  0  0  0  0  0  0  0  0
   -1.4889   -0.1950    2.7755 O   0  5  0  1  0  0  0  0  0  0  0  0
   -1.1946    1.6612    0.9240 O   0  5  0  1  0  0  0  0  0  0  0  0
   -9.5582   -0.2752   -9.1144 C   0  0  0  1  0  0  0  0  0  0  0  0
   -9.9378    0.3503   -8.3336 H   0  0  0  1  0  0  0  0  0  0  0  0
  -10.4103   -0.0627  -10.3520 C   0  0  0  1  0  0  0  0  0  0  0  0
  -10.6307   -0.9737  -11.1330 O   0  0  0  1  0  0  0  0  0  0  0  0
  -10.8946    1.1779  -10.5207 N   0  0  0  1  0  0  0  0  0  0  0  0
  -10.7524    1.8413   -9.8136 H   0  0  0  1  0  0  0  0  0  0  0  0
  -11.6233    1.5719  -11.7172 C   0  0  0  1  0  0  0  0  0  0  0  0
  -12.5887    1.1108  -11.6981 H   0  0  0  1  0  0  0  0  0  0  0  0
  -11.0822    1.2324  -12.5756 H   0  0  0  1  0  0  0  0  0  0  0  0
  -11.8048    3.0776  -11.8199 C   0  0  0  1  0  0  0  0  0  0  0  0
  -10.8663    3.5485  -11.6140 H   0  0  0  1  0  0  0  0  0  0  0  0
  -12.5258    3.3842  -11.0912 H   0  0  0  1  0  0  0  0  0  0  0  0
  -12.2802    3.5265  -13.1880 C   0  0  0  1  0  0  0  0  0  0  0  0
  -12.3971    2.7349  -14.1089 O   0  0  0  1  0  0  0  0  0  0  0  0
  -12.5577    4.8344  -13.3087 N   0  0  0  1  0  0  0  0  0  0  0  0
  -12.5518    5.3953  -12.5051 H   0  0  0  1  0  0  0  0  0  0  0  0
  -12.8670    5.4483  -14.5914 C   0  0  0  1  0  0  0  0  0  0  0  0
  -13.7151    4.9511  -15.0139 H   0  0  0  1  0  0  0  0  0  0  0  0
  -12.0242    5.3306  -15.2400 H   0  0  0  1  0  0  0  0  0  0  0  0
  -13.1830    6.9299  -14.4675 C   0  0  0  1  0  0  0  0  0  0  0  0
  -12.2785    7.4414  -14.2122 H   0  0  0  1  0  0  0  0  0  0  0  0
  -13.8968    7.0518  -13.6798 H   0  0  0  1  0  0  0  0  0  0  0  0
  -13.8587    7.6977  -15.9592 S   0  0  0  1  0  0  0  0  0  0  0  0
  -15.6033    7.4117  -15.7732 C   0  0  0  1  0  0  0  0  0  0  0  0
  -16.0895    6.8804  -14.8115 O   0  0  0  1  0  0  0  0  0  0  0  0
  -16.3957    7.9120  -16.9586 C   0  0  0  1  0  0  0  0  0  0  0  0
  -15.7112    8.3402  -17.6608 H   0  0  0  1  0  0  0  0  0  0  0  0
  -17.0720    8.6660  -16.6138 H   0  0  0  1  0  0  0  0  0  0  0  0
  -17.1969    6.8513  -17.6700 C   0  0  0  1  0  0  0  0  0  0  0  0
  -18.3143    6.5563  -17.2790 O   0  0  0  1  0  0  0  0  0  0  0  0
  -16.6150    6.1866  -18.8297 C   0  0  0  1  0  0  0  0  0  0  0  0
  -17.1831    5.4457  -19.2880 H   0  0  0  1  0  0  0  0  0  0  0  0
  -15.4175    6.4469  -19.3529 C   0  0  0  1  0  0  0  0  0  0  0  0
  -14.8493    7.1877  -18.8946 H   0  0  0  1  0  0  0  0  0  0  0  0
  -14.8262    5.7715  -20.5312 C   0  0  0  1  0  0  0  0  0  0  0  0
  -15.4708    4.6828  -21.0874 C   0  0  0  1  0  0  0  0  0  0  0  0
  -16.3626    4.3405  -20.6761 H   0  0  0  1  0  0  0  0  0  0  0  0
  -14.9285    4.0471  -22.1934 C   0  0  0  1  0  0  0  0  0  0  0  0
  -13.7405    4.4985  -22.7368 C   0  0  0  1  0  0  0  0  0  0  0  0
  -13.0941    5.5905  -22.1788 C   0  0  0  1  0  0  0  0  0  0  0  0
  -12.2023    5.9328  -22.5900 H   0  0  0  1  0  0  0  0  0  0  0  0
  -13.6347    6.2245  -21.0760 C   0  0  0  1  0  0  0  0  0  0  0  0
  -13.1477    7.0412  -20.6550 H   0  0  0  1  0  0  0  0  0  0  0  0
  -13.3022    3.7949  -23.8149 O   0  5  0  1  0  0  0  0  0  0  0  0
  -15.4698    2.9786  -22.8252 O   0  0  0  1  0  0  0  0  0  0  0  0
  -16.6341    2.3848  -22.2299 C   0  0  0  1  0  0  0  0  0  0  0  0
  -16.8928    1.4938  -22.7630 H   0  0  0  1  0  0  0  0  0  0  0  0
  -17.4493    3.0763  -22.2748 H   0  0  0  1  0  0  0  0  0  0  0  0
  -16.4276    2.1417  -21.2086 H   0  0  0  1  0  0  0  0  0  0  0  0
   -9.5457   -1.6183   -8.6856 O   0  0  0  1  0  0  0  0  0  0  0  0
   -8.8506   -2.0950   -9.1452 H   0  0  0  1  0  0  0  0  0  0  0  0
  1  2  1  0  0  0  0
  1  3  1  0  0  0  0
  1  4  1  0  0  0  0
  1  5  1  0  0  0  0
  5  6  1  0  0  0  0
  5 10  1  0  0  0  0
  5 55  1  0  0  0  0
  6  7  1  0  0  0  0
  6  8  1  0  0  0  0
  6  9  1  0  0  0  0
 10 11  1  0  0  0  0
 10 12  1  0  0  0  0
 10 13  1  0  0  0  0
 13 14  1  0  0  0  0
 14 15  2  0  0  0  0
 14 16  1  0  0  0  0
 14 17  1  0  0  0  0
 17 18  1  0  0  0  0
 18 19  1  0  0  0  0
 18 20  2  0  0  0  0
 18 21  1  0  0  0  0
 21 22  1  0  0  0  0
 22 23  1  0  0  0  0
 22 24  1  0  0  0  0
 22 25  1  0  0  0  0
 25 26  1  0  0  0  0
 25 27  1  0  0  0  0
 25 33  1  0  0  0  0
 27 28  1  0  0  0  0
 27 29  1  0  0  0  0
 27 50  1  0  0  0  0
 29 30  1  0  0  0  0
 29 31  1  0  0  0  0
 29 48  1  0  0  0  0
 31 32  1  0  0  0  0
 31 33  1  0  0  0  0
 31 34  1  0  0  0  0
 34 35  1  0  0  0  0
 34 44  1  0  0  0  0
 35 36  1  0  0  0  0
 35 37  2  0  0  0  0
 37 38  1  0  0  0  0
 38 39  1  0  0  0  0
 38 44  2  0  0  0  0
 39 40  2  0  0  0  0
 39 45  1  0  0  0  0
 40 41  1  0  0  0  0
 41 42  1  0  0  0  0
 41 43  2  0  0  0  0
 43 44  1  0  0  0  0
 45 46  1  0  0  0  0
 45 47  1  0  0  0  0
 48 49  1  0  0  0  0
 50 51  1  0  0  0  0
 51 52  2  0  0  0  0
 51 53  1  0  0  0  0
 51 54  1  0  0  0  0
 55 56  1  0  0  0  0
 55 57  1  0  0  0  0
 55104  1  0  0  0  0
 57 58  2  0  0  0  0
 57 59  1  0  0  0  0
 59 60  1  0  0  0  0
 59 61  1  0  0  0  0
 61 62  1  0  0  0  0
 61 63  1  0  0  0  0
 61 64  1  0  0  0  0
 64 65  1  0  0  0  0
 64 66  1  0  0  0  0
 64 67  1  0  0  0  0
 67 68  2  0  0  0  0
 67 69  1  0  0  0  0
 69 70  1  0  0  0  0
 69 71  1  0  0  0  0
 71 72  1  0  0  0  0
 71 73  1  0  0  0  0
 71 74  1  0  0  0  0
 74 75  1  0  0  0  0
 74 76  1  0  0  0  0
 74 77  1  0  0  0  0
 77 78  1  0  0  0  0
 78 79  2  0  0  0  0
 78 80  1  0  0  0  0
 80 81  1  0  0  0  0
 80 82  1  0  0  0  0
 80 83  1  0  0  0  0
 83 84  2  0  0  0  0
 83 85  1  0  0  0  0
 85 86  1  0  0  0  0
 85 87  2  0  0  0  0
 87 88  1  0  0  0  0
 87 89  1  0  0  0  0
 89 90  2  0  0  0  0
 89 96  1  0  0  0  0
 90 91  1  0  0  0  0
 90 92  1  0  0  0  0
 92 93  2  0  0  0  0
 92 99  1  0  0  0  0
 93 94  1  0  0  0  0
 93 98  1  0  0  0  0
 94 95  1  0  0  0  0
 94 96  2  0  0  0  0
 96 97  1  0  0  0  0
 99100  1  0  0  0  0
100101  1  0  0  0  0
100102  1  0  0  0  0
100103  1  0  0  0  0
104105  1  0  0  0  0
M  BCL ATM C_TeTeTeTe H_S H_S H_S C_TeTeTeTe C_TeTeTeTe H_S H_S H_S C_TeTeTeTe H_S H_S O_Tr2TrTrPi2 P_TeTeTeTePi O_Tr2Tr2TrPi O_Te2Te2Te2Te O_Tr2TrTrPi2 P_TeTeTeTePi O_Te2Te2TeTe O_Tr2Tr2TrPi O_Tr2TrTrPi2 C_TeTeTeTe H_S H_S C_TeTeTeTe H_S C_TeTeTeTe H_S C_TeTeTeTe H_S C_TeTeTeTe H_S O_Te2Te2TeTe N_TrTrTrPi2 C_TrTrTrPi H_S N_Tr2TrTrPi C_TrTrTrPi C_TrTrTrPi N_Tr2TrTrPi C_TrTrTrPi H_S N_Tr2TrTrPi C_TrTrTrPi N_TrTrTrPi2 H_S H_S O_Te2Te2TeTe H_S O_Tr2TrTrPi2 P_TeTeTeTePi O_Tr2Tr2TrPi O_Te2Te2Te2Te O_Te2Te2Te2Te C_TeTeTeTe H_S C_TrTrTrPi O_Tr2Tr2TrPi N_TrTrTrPi2 H_S C_TeTeTeTe H_S H_S C_TeTeTeTe H_S H_S C_TrTrTrPi O_Tr2Tr2TrPi N_TrTrTrPi2 H_S C_TeTeTeTe H_S H_S C_TeTeTeTe H_S H_S S_Te2Te2TeTe C_TrTrTrPi O_Tr2Tr2TrPi C_TeTeTeTe H_S H_S C_TrTrTrPi O_Tr2Tr2TrPi C_TrTrTrPi H_S C_TrTrTrPi H_S C_TrTrTrPi C_TrTrTrPi H_S C_TrTrTrPi C_TrTrTrPi C_TrTrTrPi H_S C_TrTrTrPi H_S O_Te2Te2Te2Te O_Tr2TrTrPi2 C_TeTeTeTe H_S H_S H_S O_Te2Te2TeTe H_S
M  BCL BND NonConjugatedSingleBond NonConjugatedSingleBond NonConjugatedSingleBond NonConjugatedSingleBond NonConjugatedSingleBond NonConjugatedSingleBond NonConjugatedSingleBond NonConjugatedSingleBond NonConjugatedSingleBond NonConjugatedSingleBond NonConjugatedSingleBond NonConjugatedSingleBond NonConjugatedSingleBond ConjugatedSingleBond ConjugatedDoubleBond ConjugatedSingleBond ConjugatedSingleBond ConjugatedSingleBond ConjugatedSingleBond ConjugatedDoubleBond ConjugatedSingleBond NonConjugatedSingleBond NonConjugatedSingleBond NonConjugatedSingleBond NonConjugatedSingleBond NonConjugatedSingleBond NonConjugatedSingleBondInRing NonConjugatedSingleBondInRing NonConjugatedSingleBond NonConjugatedSingleBondInRing NonConjugatedSingleBond NonConjugatedSingleBond NonConjugatedSingleBondInRing NonConjugatedSingleBond NonConjugatedSingleBond NonConjugatedSingleBondInRing NonConjugatedSingleBond AromaticSingleBond AromaticSingleBond NonConjugatedSingleBond AromaticDoubleBond AromaticSingleBond AromaticSingleBond AromaticDoubleBond AromaticDoubleBond ConjugatedSingleBond AromaticSingleBond NonConjugatedSingleBond AromaticDoubleBond AromaticSingleBond NonConjugatedSingleBond NonConjugatedSingleBond NonConjugatedSingleBond ConjugatedSingleBond ConjugatedDoubleBond ConjugatedSingleBond ConjugatedSingleBond NonConjugatedSingleBond NonConjugatedSingleBond NonConjugatedSingleBond ConjugatedDoubleBond AmideSingleBond NonConjugatedSingleBond NonConjugatedSingleBond NonConjugatedSingleBond NonConjugatedSingleBond NonConjugatedSingleBond NonConjugatedSingleBond NonConjugatedSingleBond NonConjugatedSingleBond ConjugatedDoubleBond AmideSingleBond NonConjugatedSingleBond NonConjugatedSingleBond NonConjugatedSingleBond NonConjugatedSingleBond NonConjugatedSingleBond NonConjugatedSingleBond NonConjugatedSingleBond NonConjugatedSingleBond ConjugatedSingleBond ConjugatedDoubleBond NonConjugatedSingleBond NonConjugatedSingleBond NonConjugatedSingleBond NonConjugatedSingleBond ConjugatedDoubleBond ConjugatedSingleBond NonConjugatedSingleBond ConjugatedDoubleBond NonConjugatedSingleBond ConjugatedSingleBond AromaticDoubleBond AromaticSingleBond NonConjugatedSingleBond AromaticSingleBond AromaticDoubleBond ConjugatedSingleBond AromaticSingleBond ConjugatedSingleBond NonConjugatedSingleBond AromaticDoubleBond NonConjugatedSingleBond NonConjugatedSingleBond NonConjugatedSingleBond NonConjugatedSingleBond NonConjugatedSingleBond NonConjugatedSingleBond
M  BCL CHI  14   R  18   S  25   R  27   R  29   R  31   S  55   R
M  BCL DBI - - - - - - - - - - - E - - -
M  END
> <ConfClashScore>
0 

> <ConfOneFourInteractionScore>
-0.9646 

> <ConfScore>
-0.0861289 

> <ConfScorePBest>
0.0149955 

> <ConfTolerance>
0.25 

$$$$
L03.****
  PyMOL2.5          3D                             0

105108  0  0  0  0  0  0  0  0999 V2000
    4.2348   -6.1945    5.2187 C   0  0  0  1  0  0  0  0  0  0  0  0
    4.5124   -5.3301    4.6525 H   0  0  0  1  0  0  0  0  0  0  0  0
    4.6455   -7.0689    4.7587 H   0  0  0  1  0  0  0  0  0  0  0  0
    4.6130   -6.1042    6.2156 H   0  0  0  1  0  0  0  0  0  0  0  0
    2.7063   -6.3097    5.2608 C   0  0  0  1  0  0  0  0  0  0  0  0
    2.2837   -6.8883    6.6165 C   0  0  0  1  0  0  0  0  0  0  0  0
    1.2158   -6.9033    6.6812 H   0  0  0  1  0  0  0  0  0  0  0  0
    2.6800   -6.2802    7.4027 H   0  0  0  1  0  0  0  0  0  0  0  0
    2.6606   -7.8853    6.7115 H   0  0  0  1  0  0  0  0  0  0  0  0
    2.2064   -7.1703    4.1713 C   0  0  0  1  0  0  0  0  0  0  0  0
    2.6083   -8.1551    4.2876 H   0  0  0  1  0  0  0  0  0  0  0  0
    2.5188   -6.7657    3.2313 H   0  0  0  1  0  0  0  0  0  0  0  0
    0.7718   -7.2380    4.2039 O   0  0  0  1  0  0  0  0  0  0  0  0
   -0.1381   -7.8088    3.0540 P   0  0  0  1  0  0  0  0  0  0  0  0
    0.7000   -9.0272    2.9951 O   0  0  0  1  0  0  0  0  0  0  0  0
   -0.9698   -7.0195    4.1984 O   0  5  0  1  0  0  0  0  0  0  0  0
   -1.0574   -8.3861    1.8919 O   0  0  0  1  0  0  0  0  0  0  0  0
   -1.1010   -8.4077    0.2947 P   0  0  0  1  0  0  0  0  0  0  0  0
   -2.0494   -9.4621   -0.1400 O   0  0  0  0  0  0  0  0  0  0  0  0
    0.2692   -8.4415   -0.2180 O   0  0  0  1  0  0  0  0  0  0  0  0
   -1.6647   -6.9719   -0.0167 O   0  0  0  1  0  0  0  0  0  0  0  0
   -2.5190   -6.6845   -1.1528 C   0  0  0  1  0  0  0  0  0  0  0  0
   -3.1258   -7.5404   -1.3627 H   0  0  0  1  0  0  0  0  0  0  0  0
   -1.9101   -6.4609   -2.0038 H   0  0  0  1  0  0  0  0  0  0  0  0
   -3.4124   -5.5017   -0.8553 C   0  0  0  1  0  0  0  0  0  0  0  0
   -4.1300   -5.7747   -0.1100 H   0  0  0  1  0  0  0  0  0  0  0  0
   -4.1177   -5.0691   -2.1067 C   0  0  0  1  0  0  0  0  0  0  0  0
   -5.1766   -5.1329   -1.9669 H   0  0  0  1  0  0  0  0  0  0  0  0
   -3.7271   -3.6496   -2.3929 C   0  0  0  1  0  0  0  0  0  0  0  0
   -4.5969   -3.0264   -2.3915 H   0  0  0  1  0  0  0  0  0  0  0  0
   -2.7798   -3.2041   -1.3179 C   0  0  0  1  0  0  0  0  0  0  0  0
   -3.1912   -2.3653   -0.7963 H   0  0  0  1  0  0  0  0  0  0  0  0
   -2.5855   -4.3492   -0.3678 O   0  0  0  1  0  0  0  0  0  0  0  0
   -1.4974   -2.8288   -1.9112 N   0  0  0  1  0  0  0  0  0  0  0  0
   -0.4421   -3.6533   -2.1961 C   0  0  0  1  0  0  0  0  0  0  0  0
   -0.4589   -4.6752   -2.0039 H   0  0  0  1  0  0  0  0  0  0  0  0
    0.5868   -3.0521   -2.7286 N   0  0  0  1  0  0  0  0  0  0  0  0
    0.1849   -1.7332   -2.7992 C   0  0  0  1  0  0  0  0  0  0  0  0
    0.7991   -0.5709   -3.2723 C   0  0  0  1  0  0  0  0  0  0  0  0
    0.1430    0.5928   -3.2086 N   0  0  0  1  0  0  0  0  0  0  0  0
   -1.1071    0.5818   -2.6987 C   0  0  0  1  0  0  0  0  0  0  0  0
   -1.5913    1.5018   -2.6742 H   0  0  0  1  0  0  0  0  0  0  0  0
   -1.8027   -0.4479   -2.2235 N   0  0  0  1  0  0  0  0  0  0  0  0
   -1.0972   -1.5779   -2.2998 C   0  0  0  1  0  0  0  0  0  0  0  0
    2.0634   -0.6228   -3.7973 N   0  0  0  1  0  0  0  0  0  0  0  0
    2.5135   -1.4864   -3.9065 H   0  0  0  1  0  0  0  0  0  0  0  0
    2.5176    0.2037   -4.0637 H   0  0  0  1  0  0  0  0  0  0  0  0
   -3.0862   -3.5708   -3.6669 O   0  0  0  1  0  0  0  0  0  0  0  0
   -3.4616   -4.2294   -4.2558 H   0  0  0  1  0  0  0  0  0  0  0  0
   -3.7230   -5.9206   -3.2134 O   0  0  0  1  0  0  0  0  0  0  0  0
   -4.8095   -6.2121   -4.4068 P   0  0  0  1  0  0  0  0  0  0  0  0
   -5.8232   -5.1598   -4.6421 O   0  0  0  1  0  0  0  0  0  0  0  0
   -3.8404   -6.5685   -5.6551 O   0  5  0  1  0  0  0  0  0  0  0  0
   -5.3739   -7.6733   -3.9934 O   0  5  0  1  0  0  0  0  0  0  0  0
    2.1015   -4.9082    5.1258 C   0  0  0  1  0  0  0  0  0  0  0  0
    2.4187   -4.3254    5.9652 H   0  0  0  1  0  0  0  0  0  0  0  0
    2.6021   -4.2364    3.8605 C   0  0  0  1  0  0  0  0  0  0  0  0
    2.2914   -4.6685    2.7513 O   0  0  0  1  0  0  0  0  0  0  0  0
    3.3924   -3.1588    3.9885 N   0  0  0  1  0  0  0  0  0  0  0  0
    3.5764   -2.8111    4.8861 H   0  0  0  1  0  0  0  0  0  0  0  0
    3.9943   -2.4791    2.8238 C   0  0  0  1  0  0  0  0  0  0  0  0
    3.2317   -2.2226    2.1184 H   0  0  0  1  0  0  0  0  0  0  0  0
    4.7104   -3.1228    2.3571 H   0  0  0  1  0  0  0  0  0  0  0  0
    4.6825   -1.2160    3.3242 C   0  0  0  1  0  0  0  0  0  0  0  0
    5.4544   -1.4975    4.0097 H   0  0  0  1  0  0  0  0  0  0  0  0
    3.9589   -0.6114    3.8299 H   0  0  0  1  0  0  0  0  0  0  0  0
    5.3024   -0.3959    2.2096 C   0  0  0  1  0  0  0  0  0  0  0  0
    5.6418   -0.9118    1.1575 O   0  0  0  1  0  0  0  0  0  0  0  0
    5.4472    0.9141    2.4610 N   0  0  0  1  0  0  0  0  0  0  0  0
    5.1067    1.2739    3.3066 H   0  0  0  1  0  0  0  0  0  0  0  0
    6.0925    1.8193    1.5218 C   0  0  0  1  0  0  0  0  0  0  0  0
    6.9633    1.3394    1.1264 H   0  0  0  1  0  0  0  0  0  0  0  0
    6.3803    2.7075    2.0443 H   0  0  0  1  0  0  0  0  0  0  0  0
    5.1866    2.2051    0.3715 C   0  0  0  1  0  0  0  0  0  0  0  0
    4.3534    2.7576    0.7530 H   0  0  0  1  0  0  0  0  0  0  0  0
    4.8355    1.3164   -0.1100 H   0  0  0  1  0  0  0  0  0  0  0  0
    6.0669    3.2231   -0.8368 S   0  0  0  1  0  0  0  0  0  0  0  0
    5.8567    4.8263   -0.0978 C   0  0  0  1  0  0  0  0  0  0  0  0
    5.3593    4.9985    0.9795 O   0  0  0  1  0  0  0  0  0  0  0  0
    6.3746    5.9355   -0.9804 C   0  0  0  1  0  0  0  0  0  0  0  0
    7.1010    5.5297   -1.6531 H   0  0  0  1  0  0  0  0  0  0  0  0
    6.8347    6.6795   -0.3642 H   0  0  0  1  0  0  0  0  0  0  0  0
    5.2767    6.5836   -1.7853 C   0  0  0  1  0  0  0  0  0  0  0  0
    5.2480    6.4831   -3.0008 O   0  0  0  1  0  0  0  0  0  0  0  0
    4.2248    7.3458   -1.1198 C   0  0  0  1  0  0  0  0  0  0  0  0
    4.2492    7.3478   -0.0801 H   0  0  0  1  0  0  0  0  0  0  0  0
    3.2369    8.0394   -1.6841 C   0  0  0  1  0  0  0  0  0  0  0  0
    3.1576    8.0765   -2.7204 H   0  0  0  1  0  0  0  0  0  0  0  0
    2.2508    8.7580   -0.8440 C   0  0  0  1  0  0  0  0  0  0  0  0
    1.2337    9.4728   -1.4478 C   0  0  0  1  0  0  0  0  0  0  0  0
    1.1667    9.5070   -2.4850 H   0  0  0  1  0  0  0  0  0  0  0  0
    0.3028   10.1443   -0.6706 C   0  0  0  1  0  0  0  0  0  0  0  0
    0.3948   10.1034    0.7079 C   0  0  0  1  0  0  0  0  0  0  0  0
    1.4151    9.3863    1.3133 C   0  0  0  1  0  0  0  0  0  0  0  0
    1.4821    9.3521    2.3505 H   0  0  0  1  0  0  0  0  0  0  0  0
    2.3433    8.7168    0.5384 C   0  0  0  1  0  0  0  0  0  0  0  0
    3.1111    8.1821    0.9926 H   0  0  0  1  0  0  0  0  0  0  0  0
   -0.5500   10.7899    1.4047 O   0  5  0  1  0  0  0  0  0  0  0  0
   -0.6686   10.9416   -1.2768 O   0  0  0  1  0  0  0  0  0  0  0  0
   -0.8521   10.7895   -2.6930 C   0  0  0  1  0  0  0  0  0  0  0  0
   -0.5279    9.8148   -2.9926 H   0  0  0  1  0  0  0  0  0  0  0  0
   -0.2773   11.5304   -3.2084 H   0  0  0  1  0  0  0  0  0  0  0  0
   -1.8878   10.9101   -2.9332 H   0  0  0  1  0  0  0  0  0  0  0  0
    0.6850   -4.9947    5.1114 O   0  0  0  1  0  0  0  0  0  0  0  0
    0.3275   -4.5236    5.8677 H   0  0  0  1  0  0  0  0  0  0  0  0
  1  2  1  0  0  0  0
  1  3  1  0  0  0  0
  1  4  1  0  0  0  0
  1  5  1  0  0  0  0
  5  6  1  0  0  0  0
  5 10  1  0  0  0  0
  5 55  1  0  0  0  0
  6  7  1  0  0  0  0
  6  8  1  0  0  0  0
  6  9  1  0  0  0  0
 10 11  1  0  0  0  0
 10 12  1  0  0  0  0
 10 13  1  0  0  0  0
 13 14  1  0  0  0  0
 14 15  2  0  0  0  0
 14 16  1  0  0  0  0
 14 17  1  0  0  0  0
 17 18  1  0  0  0  0
 18 19  1  0  0  0  0
 18 20  2  0  0  0  0
 18 21  1  0  0  0  0
 21 22  1  0  0  0  0
 22 23  1  0  0  0  0
 22 24  1  0  0  0  0
 22 25  1  0  0  0  0
 25 26  1  0  0  0  0
 25 27  1  0  0  0  0
 25 33  1  0  0  0  0
 27 28  1  0  0  0  0
 27 29  1  0  0  0  0
 27 50  1  0  0  0  0
 29 30  1  0  0  0  0
 29 31  1  0  0  0  0
 29 48  1  0  0  0  0
 31 32  1  0  0  0  0
 31 33  1  0  0  0  0
 31 34  1  0  0  0  0
 34 35  1  0  0  0  0
 34 44  1  0  0  0  0
 35 36  1  0  0  0  0
 35 37  2  0  0  0  0
 37 38  1  0  0  0  0
 38 39  1  0  0  0  0
 38 44  2  0  0  0  0
 39 40  2  0  0  0  0
 39 45  1  0  0  0  0
 40 41  1  0  0  0  0
 41 42  1  0  0  0  0
 41 43  2  0  0  0  0
 43 44  1  0  0  0  0
 45 46  1  0  0  0  0
 45 47  1  0  0  0  0
 48 49  1  0  0  0  0
 50 51  1  0  0  0  0
 51 52  2  0  0  0  0
 51 53  1  0  0  0  0
 51 54  1  0  0  0  0
 55 56  1  0  0  0  0
 55 57  1  0  0  0  0
 55104  1  0  0  0  0
 57 58  2  0  0  0  0
 57 59  1  0  0  0  0
 59 60  1  0  0  0  0
 59 61  1  0  0  0  0
 61 62  1  0  0  0  0
 61 63  1  0  0  0  0
 61 64  1  0  0  0  0
 64 65  1  0  0  0  0
 64 66  1  0  0  0  0
 64 67  1  0  0  0  0
 67 68  2  0  0  0  0
 67 69  1  0  0  0  0
 69 70  1  0  0  0  0
 69 71  1  0  0  0  0
 71 72  1  0  0  0  0
 71 73  1  0  0  0  0
 71 74  1  0  0  0  0
 74 75  1  0  0  0  0
 74 76  1  0  0  0  0
 74 77  1  0  0  0  0
 77 78  1  0  0  0  0
 78 79  2  0  0  0  0
 78 80  1  0  0  0  0
 80 81  1  0  0  0  0
 80 82  1  0  0  0  0
 80 83  1  0  0  0  0
 83 84  2  0  0  0  0
 83 85  1  0  0  0  0
 85 86  1  0  0  0  0
 85 87  2  0  0  0  0
 87 88  1  0  0  0  0
 87 89  1  0  0  0  0
 89 90  2  0  0  0  0
 89 96  1  0  0  0  0
 90 91  1  0  0  0  0
 90 92  1  0  0  0  0
 92 93  2  0  0  0  0
 92 99  1  0  0  0  0
 93 94  1  0  0  0  0
 93 98  1  0  0  0  0
 94 95  1  0  0  0  0
 94 96  2  0  0  0  0
 96 97  1  0  0  0  0
 99100  1  0  0  0  0
100101  1  0  0  0  0
100102  1  0  0  0  0
100103  1  0  0  0  0
104105  1  0  0  0  0
M  BCL ATM C_TeTeTeTe H_S H_S H_S C_TeTeTeTe C_TeTeTeTe H_S H_S H_S C_TeTeTeTe H_S H_S O_Tr2TrTrPi2 P_TeTeTeTePi O_Tr2Tr2TrPi O_Te2Te2Te2Te O_Tr2TrTrPi2 P_TeTeTeTePi O_Te2Te2TeTe O_Tr2Tr2TrPi O_Tr2TrTrPi2 C_TeTeTeTe H_S H_S C_TeTeTeTe H_S C_TeTeTeTe H_S C_TeTeTeTe H_S C_TeTeTeTe H_S O_Te2Te2TeTe N_TrTrTrPi2 C_TrTrTrPi H_S N_Tr2TrTrPi C_TrTrTrPi C_TrTrTrPi N_Tr2TrTrPi C_TrTrTrPi H_S N_Tr2TrTrPi C_TrTrTrPi N_TrTrTrPi2 H_S H_S O_Te2Te2TeTe H_S O_Tr2TrTrPi2 P_TeTeTeTePi O_Tr2Tr2TrPi O_Te2Te2Te2Te O_Te2Te2Te2Te C_TeTeTeTe H_S C_TrTrTrPi O_Tr2Tr2TrPi N_TrTrTrPi2 H_S C_TeTeTeTe H_S H_S C_TeTeTeTe H_S H_S C_TrTrTrPi O_Tr2Tr2TrPi N_TrTrTrPi2 H_S C_TeTeTeTe H_S H_S C_TeTeTeTe H_S H_S S_Te2Te2TeTe C_TrTrTrPi O_Tr2Tr2TrPi C_TeTeTeTe H_S H_S C_TrTrTrPi O_Tr2Tr2TrPi C_TrTrTrPi H_S C_TrTrTrPi H_S C_TrTrTrPi C_TrTrTrPi H_S C_TrTrTrPi C_TrTrTrPi C_TrTrTrPi H_S C_TrTrTrPi H_S O_Te2Te2Te2Te O_Tr2TrTrPi2 C_TeTeTeTe H_S H_S H_S O_Te2Te2TeTe H_S
M  BCL BND NonConjugatedSingleBond NonConjugatedSingleBond NonConjugatedSingleBond NonConjugatedSingleBond NonConjugatedSingleBond NonConjugatedSingleBond NonConjugatedSingleBond NonConjugatedSingleBond NonConjugatedSingleBond NonConjugatedSingleBond NonConjugatedSingleBond NonConjugatedSingleBond NonConjugatedSingleBond ConjugatedSingleBond ConjugatedDoubleBond ConjugatedSingleBond ConjugatedSingleBond ConjugatedSingleBond ConjugatedSingleBond ConjugatedDoubleBond ConjugatedSingleBond NonConjugatedSingleBond NonConjugatedSingleBond NonConjugatedSingleBond NonConjugatedSingleBond NonConjugatedSingleBond NonConjugatedSingleBondInRing NonConjugatedSingleBondInRing NonConjugatedSingleBond NonConjugatedSingleBondInRing NonConjugatedSingleBond NonConjugatedSingleBond NonConjugatedSingleBondInRing NonConjugatedSingleBond NonConjugatedSingleBond NonConjugatedSingleBondInRing NonConjugatedSingleBond AromaticSingleBond AromaticSingleBond NonConjugatedSingleBond AromaticDoubleBond AromaticSingleBond AromaticSingleBond AromaticDoubleBond AromaticDoubleBond ConjugatedSingleBond AromaticSingleBond NonConjugatedSingleBond AromaticDoubleBond AromaticSingleBond NonConjugatedSingleBond NonConjugatedSingleBond NonConjugatedSingleBond ConjugatedSingleBond ConjugatedDoubleBond ConjugatedSingleBond ConjugatedSingleBond NonConjugatedSingleBond NonConjugatedSingleBond NonConjugatedSingleBond ConjugatedDoubleBond AmideSingleBond NonConjugatedSingleBond NonConjugatedSingleBond NonConjugatedSingleBond NonConjugatedSingleBond NonConjugatedSingleBond NonConjugatedSingleBond NonConjugatedSingleBond NonConjugatedSingleBond ConjugatedDoubleBond AmideSingleBond NonConjugatedSingleBond NonConjugatedSingleBond NonConjugatedSingleBond NonConjugatedSingleBond NonConjugatedSingleBond NonConjugatedSingleBond NonConjugatedSingleBond NonConjugatedSingleBond ConjugatedSingleBond ConjugatedDoubleBond NonConjugatedSingleBond NonConjugatedSingleBond NonConjugatedSingleBond NonConjugatedSingleBond ConjugatedDoubleBond ConjugatedSingleBond NonConjugatedSingleBond ConjugatedDoubleBond NonConjugatedSingleBond ConjugatedSingleBond AromaticDoubleBond AromaticSingleBond NonConjugatedSingleBond AromaticSingleBond AromaticDoubleBond ConjugatedSingleBond AromaticSingleBond ConjugatedSingleBond NonConjugatedSingleBond AromaticDoubleBond NonConjugatedSingleBond NonConjugatedSingleBond NonConjugatedSingleBond NonConjugatedSingleBond NonConjugatedSingleBond NonConjugatedSingleBond
M  BCL CHI  14   R  18   S  25   R  27   R  29   R  31   S  55   R
M  BCL DBI - - - - - - - - - - - E - - -
M  END
> <ConfClashScore>
0 

> <ConfOneFourInteractionScore>
-0.97294 

> <ConfScore>
-0.0482784 

> <ConfScorePBest>
0.0148925 

> <ConfTolerance>
0.25 

$$$$
L03.****
  PyMOL2.5          3D                             0

105108  0  0  0  0  0  0  0  0999 V2000
   -3.6733  -13.6343   -3.6621 C   0  0  0  1  0  0  0  0  0  0  0  0
   -3.0509  -13.5260   -2.7985 H   0  0  0  1  0  0  0  0  0  0  0  0
   -3.0991  -14.0454   -4.4660 H   0  0  0  1  0  0  0  0  0  0  0  0
   -4.4885  -14.2888   -3.4342 H   0  0  0  1  0  0  0  0  0  0  0  0
   -4.2249  -12.2497   -4.0781 C   0  0  0  1  0  0  0  0  0  0  0  0
   -4.9115  -12.2584   -5.4491 C   0  0  0  1  0  0  0  0  0  0  0  0
   -5.7138  -12.9663   -5.4423 H   0  0  0  1  0  0  0  0  0  0  0  0
   -4.2015  -12.5315   -6.2016 H   0  0  0  1  0  0  0  0  0  0  0  0
   -5.2983  -11.2833   -5.6602 H   0  0  0  1  0  0  0  0  0  0  0  0
   -3.0425  -11.3422   -4.1705 C   0  0  0  1  0  0  0  0  0  0  0  0
   -2.2990  -11.7760   -4.8060 H   0  0  0  1  0  0  0  0  0  0  0  0
   -2.6299  -11.1809   -3.1965 H   0  0  0  1  0  0  0  0  0  0  0  0
   -3.4921  -10.0951   -4.7241 O   0  0  0  1  0  0  0  0  0  0  0  0
   -2.6695   -8.7536   -4.7302 P   0  0  0  1  0  0  0  0  0  0  0  0
   -1.5949   -9.4157   -5.5031 O   0  0  0  1  0  0  0  0  0  0  0  0
   -4.2642   -8.5294   -4.9064 O   0  5  0  1  0  0  0  0  0  0  0  0
   -1.8236   -7.3748   -4.7369 O   0  0  0  1  0  0  0  0  0  0  0  0
   -0.8467   -6.9154   -3.5909 P   0  0  0  1  0  0  0  0  0  0  0  0
    0.2092   -6.0092   -4.1643 O   0  0  0  0  0  0  0  0  0  0  0  0
   -0.3952   -8.1580   -2.9099 O   0  0  0  1  0  0  0  0  0  0  0  0
   -1.7910   -6.0431   -2.6833 O   0  0  0  1  0  0  0  0  0  0  0  0
   -2.9854   -6.6098   -2.0952 C   0  0  0  1  0  0  0  0  0  0  0  0
   -2.7280   -7.3611   -1.3780 H   0  0  0  1  0  0  0  0  0  0  0  0
   -3.6077   -7.0379   -2.8531 H   0  0  0  1  0  0  0  0  0  0  0  0
   -3.6935   -5.4571   -1.4204 C   0  0  0  1  0  0  0  0  0  0  0  0
   -4.3979   -5.8371   -0.7102 H   0  0  0  1  0  0  0  0  0  0  0  0
   -4.4039   -4.6250   -2.4468 C   0  0  0  1  0  0  0  0  0  0  0  0
   -5.4521   -4.6025   -2.2333 H   0  0  0  1  0  0  0  0  0  0  0  0
   -3.8430   -3.2353   -2.3874 C   0  0  0  1  0  0  0  0  0  0  0  0
   -4.6196   -2.5404   -2.1451 H   0  0  0  1  0  0  0  0  0  0  0  0
   -2.7850   -3.2079   -1.3237 C   0  0  0  1  0  0  0  0  0  0  0  0
   -3.0497   -2.4997   -0.5666 H   0  0  0  1  0  0  0  0  0  0  0  0
   -2.6929   -4.5814   -0.7262 O   0  0  0  1  0  0  0  0  0  0  0  0
   -1.4994   -2.8357   -1.9122 N   0  0  0  1  0  0  0  0  0  0  0  0
   -0.4531   -3.6618   -2.1890 C   0  0  0  1  0  0  0  0  0  0  0  0
   -0.4768   -4.6857   -2.0079 H   0  0  0  1  0  0  0  0  0  0  0  0
    0.5936   -3.0480   -2.7073 N   0  0  0  1  0  0  0  0  0  0  0  0
    0.1708   -1.7211   -2.7898 C   0  0  0  1  0  0  0  0  0  0  0  0
    0.8084   -0.5683   -3.2799 C   0  0  0  1  0  0  0  0  0  0  0  0
    0.1235    0.5992   -3.2143 N   0  0  0  1  0  0  0  0  0  0  0  0
   -1.1164    0.5811   -2.6933 C   0  0  0  1  0  0  0  0  0  0  0  0
   -1.5971    1.5029   -2.6637 H   0  0  0  1  0  0  0  0  0  0  0  0
   -1.8213   -0.4415   -2.2094 N   0  0  0  1  0  0  0  0  0  0  0  0
   -1.0964   -1.5752   -2.3014 C   0  0  0  1  0  0  0  0  0  0  0  0
    2.0921   -0.6237   -3.8116 N   0  0  0  1  0  0  0  0  0  0  0  0
    2.4873    0.1736   -4.2222 H   0  0  0  1  0  0  0  0  0  0  0  0
    2.6017   -1.4601   -3.7758 H   0  0  0  1  0  0  0  0  0  0  0  0
   -3.2704   -2.8895   -3.6494 O   0  0  0  1  0  0  0  0  0  0  0  0
   -3.7607   -3.3211   -4.3529 H   0  0  0  1  0  0  0  0  0  0  0  0
   -4.1905   -5.1857   -3.7683 O   0  0  0  1  0  0  0  0  0  0  0  0
   -5.3725   -5.9287   -4.6289 P   0  0  0  1  0  0  0  0  0  0  0  0
   -5.9940   -6.9011   -3.7023 O   0  0  0  1  0  0  0  0  0  0  0  0
   -6.4677   -4.8113   -5.0487 O   0  5  0  1  0  0  0  0  0  0  0  0
   -4.7726   -6.5596   -5.9951 O   0  5  0  1  0  0  0  0  0  0  0  0
   -5.1813  -11.6482   -3.0416 C   0  0  0  1  0  0  0  0  0  0  0  0
   -6.0749  -12.2368   -3.0484 H   0  0  0  1  0  0  0  0  0  0  0  0
   -4.5590  -11.7702   -1.6582 C   0  0  0  1  0  0  0  0  0  0  0  0
   -3.9816  -10.8295   -1.1385 O   0  0  0  1  0  0  0  0  0  0  0  0
   -4.6891  -12.9609   -1.0662 N   0  0  0  1  0  0  0  0  0  0  0  0
   -5.2250  -13.6398   -1.5270 H   0  0  0  1  0  0  0  0  0  0  0  0
   -4.0950  -13.3255    0.2112 C   0  0  0  1  0  0  0  0  0  0  0  0
   -3.2446  -12.6971    0.3747 H   0  0  0  1  0  0  0  0  0  0  0  0
   -3.7789  -14.3461    0.1525 H   0  0  0  1  0  0  0  0  0  0  0  0
   -5.0237  -13.1856    1.4063 C   0  0  0  1  0  0  0  0  0  0  0  0
   -5.4579  -12.2082    1.3742 H   0  0  0  1  0  0  0  0  0  0  0  0
   -4.4359  -13.2863    2.2947 H   0  0  0  1  0  0  0  0  0  0  0  0
   -6.1617  -14.2056    1.4753 C   0  0  0  1  0  0  0  0  0  0  0  0
   -5.9708  -15.3707    1.1681 O   0  0  0  1  0  0  0  0  0  0  0  0
   -7.3083  -13.7308    1.9703 N   0  0  0  1  0  0  0  0  0  0  0  0
   -7.3699  -12.7778    2.1903 H   0  0  0  1  0  0  0  0  0  0  0  0
   -8.4690  -14.5797    2.1941 C   0  0  0  1  0  0  0  0  0  0  0  0
   -8.8469  -14.3759    3.1742 H   0  0  0  1  0  0  0  0  0  0  0  0
   -8.1513  -15.6000    2.1389 H   0  0  0  1  0  0  0  0  0  0  0  0
   -9.5929  -14.3835    1.2071 C   0  0  0  1  0  0  0  0  0  0  0  0
   -9.2437  -14.5947    0.2179 H   0  0  0  1  0  0  0  0  0  0  0  0
   -9.9411  -13.3729    1.2548 H   0  0  0  1  0  0  0  0  0  0  0  0
  -10.9420  -15.5117    1.6291 S   0  0  0  1  0  0  0  0  0  0  0  0
  -12.3321  -14.7147    0.9115 C   0  0  0  1  0  0  0  0  0  0  0  0
  -12.2924  -13.6941    0.2850 O   0  0  0  1  0  0  0  0  0  0  0  0
  -13.6264  -15.4497    1.1592 C   0  0  0  1  0  0  0  0  0  0  0  0
  -14.3975  -14.7335    1.3523 H   0  0  0  1  0  0  0  0  0  0  0  0
  -13.5048  -16.0827    2.0133 H   0  0  0  1  0  0  0  0  0  0  0  0
  -14.0398  -16.3068   -0.0317 C   0  0  0  1  0  0  0  0  0  0  0  0
  -14.7044  -17.3099    0.1700 O   0  0  0  1  0  0  0  0  0  0  0  0
  -13.6110  -15.8711   -1.3577 C   0  0  0  1  0  0  0  0  0  0  0  0
  -12.9346  -15.0843   -1.4294 H   0  0  0  1  0  0  0  0  0  0  0  0
  -14.0504  -16.4399   -2.4796 C   0  0  0  1  0  0  0  0  0  0  0  0
  -14.7251  -17.2225   -2.3619 H   0  0  0  1  0  0  0  0  0  0  0  0
  -13.6935  -16.0917   -3.8745 C   0  0  0  1  0  0  0  0  0  0  0  0
  -12.7883  -15.0748   -4.1128 C   0  0  0  1  0  0  0  0  0  0  0  0
  -12.3659  -14.5572   -3.3157 H   0  0  0  1  0  0  0  0  0  0  0  0
  -12.4436  -14.7448   -5.4142 C   0  0  0  1  0  0  0  0  0  0  0  0
  -13.0090  -15.4291   -6.4737 C   0  0  0  1  0  0  0  0  0  0  0  0
  -13.9168  -16.4490   -6.2345 C   0  0  0  1  0  0  0  0  0  0  0  0
  -14.3392  -16.9666   -7.0316 H   0  0  0  1  0  0  0  0  0  0  0  0
  -14.2606  -16.7781   -4.9369 C   0  0  0  1  0  0  0  0  0  0  0  0
  -14.9447  -17.5406   -4.7577 H   0  0  0  1  0  0  0  0  0  0  0  0
  -12.7810  -15.2242   -7.7987 O   0  5  0  1  0  0  0  0  0  0  0  0
  -11.6273  -13.6911   -5.6530 O   0  0  0  1  0  0  0  0  0  0  0  0
  -11.0848  -13.0093   -4.5114 C   0  0  0  1  0  0  0  0  0  0  0  0
  -10.9150  -13.7124   -3.7229 H   0  0  0  1  0  0  0  0  0  0  0  0
  -11.7762  -12.2627   -4.1804 H   0  0  0  1  0  0  0  0  0  0  0  0
  -10.1592  -12.5448   -4.7802 H   0  0  0  1  0  0  0  0  0  0  0  0
   -5.5083  -10.3095   -3.3643 O   0  0  0  1  0  0  0  0  0  0  0  0
   -5.6398   -9.8080   -2.5564 H   0  0  0  1  0  0  0  0  0  0  0  0
  1  2  1  0  0  0  0
  1  3  1  0  0  0  0
  1  4  1  0  0  0  0
  1  5  1  0  0  0  0
  5  6  1  0  0  0  0
  5 10  1  0  0  0  0
  5 55  1  0  0  0  0
  6  7  1  0  0  0  0
  6  8  1  0  0  0  0
  6  9  1  0  0  0  0
 10 11  1  0  0  0  0
 10 12  1  0  0  0  0
 10 13  1  0  0  0  0
 13 14  1  0  0  0  0
 14 15  2  0  0  0  0
 14 16  1  0  0  0  0
 14 17  1  0  0  0  0
 17 18  1  0  0  0  0
 18 19  1  0  0  0  0
 18 20  2  0  0  0  0
 18 21  1  0  0  0  0
 21 22  1  0  0  0  0
 22 23  1  0  0  0  0
 22 24  1  0  0  0  0
 22 25  1  0  0  0  0
 25 26  1  0  0  0  0
 25 27  1  0  0  0  0
 25 33  1  0  0  0  0
 27 28  1  0  0  0  0
 27 29  1  0  0  0  0
 27 50  1  0  0  0  0
 29 30  1  0  0  0  0
 29 31  1  0  0  0  0
 29 48  1  0  0  0  0
 31 32  1  0  0  0  0
 31 33  1  0  0  0  0
 31 34  1  0  0  0  0
 34 35  1  0  0  0  0
 34 44  1  0  0  0  0
 35 36  1  0  0  0  0
 35 37  2  0  0  0  0
 37 38  1  0  0  0  0
 38 39  1  0  0  0  0
 38 44  2  0  0  0  0
 39 40  2  0  0  0  0
 39 45  1  0  0  0  0
 40 41  1  0  0  0  0
 41 42  1  0  0  0  0
 41 43  2  0  0  0  0
 43 44  1  0  0  0  0
 45 46  1  0  0  0  0
 45 47  1  0  0  0  0
 48 49  1  0  0  0  0
 50 51  1  0  0  0  0
 51 52  2  0  0  0  0
 51 53  1  0  0  0  0
 51 54  1  0  0  0  0
 55 56  1  0  0  0  0
 55 57  1  0  0  0  0
 55104  1  0  0  0  0
 57 58  2  0  0  0  0
 57 59  1  0  0  0  0
 59 60  1  0  0  0  0
 59 61  1  0  0  0  0
 61 62  1  0  0  0  0
 61 63  1  0  0  0  0
 61 64  1  0  0  0  0
 64 65  1  0  0  0  0
 64 66  1  0  0  0  0
 64 67  1  0  0  0  0
 67 68  2  0  0  0  0
 67 69  1  0  0  0  0
 69 70  1  0  0  0  0
 69 71  1  0  0  0  0
 71 72  1  0  0  0  0
 71 73  1  0  0  0  0
 71 74  1  0  0  0  0
 74 75  1  0  0  0  0
 74 76  1  0  0  0  0
 74 77  1  0  0  0  0
 77 78  1  0  0  0  0
 78 79  2  0  0  0  0
 78 80  1  0  0  0  0
 80 81  1  0  0  0  0
 80 82  1  0  0  0  0
 80 83  1  0  0  0  0
 83 84  2  0  0  0  0
 83 85  1  0  0  0  0
 85 86  1  0  0  0  0
 85 87  2  0  0  0  0
 87 88  1  0  0  0  0
 87 89  1  0  0  0  0
 89 90  2  0  0  0  0
 89 96  1  0  0  0  0
 90 91  1  0  0  0  0
 90 92  1  0  0  0  0
 92 93  2  0  0  0  0
 92 99  1  0  0  0  0
 93 94  1  0  0  0  0
 93 98  1  0  0  0  0
 94 95  1  0  0  0  0
 94 96  2  0  0  0  0
 96 97  1  0  0  0  0
 99100  1  0  0  0  0
100101  1  0  0  0  0
100102  1  0  0  0  0
100103  1  0  0  0  0
104105  1  0  0  0  0
M  BCL ATM C_TeTeTeTe H_S H_S H_S C_TeTeTeTe C_TeTeTeTe H_S H_S H_S C_TeTeTeTe H_S H_S O_Tr2TrTrPi2 P_TeTeTeTePi O_Tr2Tr2TrPi O_Te2Te2Te2Te O_Tr2TrTrPi2 P_TeTeTeTePi O_Te2Te2TeTe O_Tr2Tr2TrPi O_Tr2TrTrPi2 C_TeTeTeTe H_S H_S C_TeTeTeTe H_S C_TeTeTeTe H_S C_TeTeTeTe H_S C_TeTeTeTe H_S O_Te2Te2TeTe N_TrTrTrPi2 C_TrTrTrPi H_S N_Tr2TrTrPi C_TrTrTrPi C_TrTrTrPi N_Tr2TrTrPi C_TrTrTrPi H_S N_Tr2TrTrPi C_TrTrTrPi N_TrTrTrPi2 H_S H_S O_Te2Te2TeTe H_S O_Tr2TrTrPi2 P_TeTeTeTePi O_Tr2Tr2TrPi O_Te2Te2Te2Te O_Te2Te2Te2Te C_TeTeTeTe H_S C_TrTrTrPi O_Tr2Tr2TrPi N_TrTrTrPi2 H_S C_TeTeTeTe H_S H_S C_TeTeTeTe H_S H_S C_TrTrTrPi O_Tr2Tr2TrPi N_TrTrTrPi2 H_S C_TeTeTeTe H_S H_S C_TeTeTeTe H_S H_S S_Te2Te2TeTe C_TrTrTrPi O_Tr2Tr2TrPi C_TeTeTeTe H_S H_S C_TrTrTrPi O_Tr2Tr2TrPi C_TrTrTrPi H_S C_TrTrTrPi H_S C_TrTrTrPi C_TrTrTrPi H_S C_TrTrTrPi C_TrTrTrPi C_TrTrTrPi H_S C_TrTrTrPi H_S O_Te2Te2Te2Te O_Tr2TrTrPi2 C_TeTeTeTe H_S H_S H_S O_Te2Te2TeTe H_S
M  BCL BND NonConjugatedSingleBond NonConjugatedSingleBond NonConjugatedSingleBond NonConjugatedSingleBond NonConjugatedSingleBond NonConjugatedSingleBond NonConjugatedSingleBond NonConjugatedSingleBond NonConjugatedSingleBond NonConjugatedSingleBond NonConjugatedSingleBond NonConjugatedSingleBond NonConjugatedSingleBond ConjugatedSingleBond ConjugatedDoubleBond ConjugatedSingleBond ConjugatedSingleBond ConjugatedSingleBond ConjugatedSingleBond ConjugatedDoubleBond ConjugatedSingleBond NonConjugatedSingleBond NonConjugatedSingleBond NonConjugatedSingleBond NonConjugatedSingleBond NonConjugatedSingleBond NonConjugatedSingleBondInRing NonConjugatedSingleBondInRing NonConjugatedSingleBond NonConjugatedSingleBondInRing NonConjugatedSingleBond NonConjugatedSingleBond NonConjugatedSingleBondInRing NonConjugatedSingleBond NonConjugatedSingleBond NonConjugatedSingleBondInRing NonConjugatedSingleBond AromaticSingleBond AromaticSingleBond NonConjugatedSingleBond AromaticDoubleBond AromaticSingleBond AromaticSingleBond AromaticDoubleBond AromaticDoubleBond ConjugatedSingleBond AromaticSingleBond NonConjugatedSingleBond AromaticDoubleBond AromaticSingleBond NonConjugatedSingleBond NonConjugatedSingleBond NonConjugatedSingleBond ConjugatedSingleBond ConjugatedDoubleBond ConjugatedSingleBond ConjugatedSingleBond NonConjugatedSingleBond NonConjugatedSingleBond NonConjugatedSingleBond ConjugatedDoubleBond AmideSingleBond NonConjugatedSingleBond NonConjugatedSingleBond NonConjugatedSingleBond NonConjugatedSingleBond NonConjugatedSingleBond NonConjugatedSingleBond NonConjugatedSingleBond NonConjugatedSingleBond ConjugatedDoubleBond AmideSingleBond NonConjugatedSingleBond NonConjugatedSingleBond NonConjugatedSingleBond NonConjugatedSingleBond NonConjugatedSingleBond NonConjugatedSingleBond NonConjugatedSingleBond NonConjugatedSingleBond ConjugatedSingleBond ConjugatedDoubleBond NonConjugatedSingleBond NonConjugatedSingleBond NonConjugatedSingleBond NonConjugatedSingleBond ConjugatedDoubleBond ConjugatedSingleBond NonConjugatedSingleBond ConjugatedDoubleBond NonConjugatedSingleBond ConjugatedSingleBond AromaticDoubleBond AromaticSingleBond NonConjugatedSingleBond AromaticSingleBond AromaticDoubleBond ConjugatedSingleBond AromaticSingleBond ConjugatedSingleBond NonConjugatedSingleBond AromaticDoubleBond NonConjugatedSingleBond NonConjugatedSingleBond NonConjugatedSingleBond NonConjugatedSingleBond NonConjugatedSingleBond NonConjugatedSingleBond
M  BCL CHI  14   R  18   S  25   R  27   R  29   R  31   S  55   R
M  BCL DBI - - - - - - - - - - - E - - -
M  END
> <ConfClashScore>
0 

> <ConfOneFourInteractionScore>
-0.967792 

> <ConfScore>
-0.0431303 

> <ConfScorePBest>
0.0147895 

> <ConfTolerance>
0.25 

$$$$
L03.****
  PyMOL2.5          3D                             0

105108  0  0  0  0  0  0  0  0999 V2000
    3.1465   -8.4231    6.1466 C   0  0  0  1  0  0  0  0  0  0  0  0
    2.8002   -7.7715    5.3718 H   0  0  0  1  0  0  0  0  0  0  0  0
    2.9406   -9.4380    5.8772 H   0  0  0  1  0  0  0  0  0  0  0  0
    4.2010   -8.2947    6.2755 H   0  0  0  1  0  0  0  0  0  0  0  0
    2.4269   -8.0867    7.4581 C   0  0  0  1  0  0  0  0  0  0  0  0
    2.3505   -9.3468    8.3284 C   0  0  0  1  0  0  0  0  0  0  0  0
    1.8847   -9.1085    9.2618 H   0  0  0  1  0  0  0  0  0  0  0  0
    3.3383   -9.7169    8.5073 H   0  0  0  1  0  0  0  0  0  0  0  0
    1.7749  -10.0943    7.8235 H   0  0  0  1  0  0  0  0  0  0  0  0
    1.0355   -7.6485    7.1389 C   0  0  0  1  0  0  0  0  0  0  0  0
    0.5861   -7.2046    8.0025 H   0  0  0  1  0  0  0  0  0  0  0  0
    0.4520   -8.4885    6.8245 H   0  0  0  1  0  0  0  0  0  0  0  0
    1.1153   -6.6762    6.0702 O   0  0  0  1  0  0  0  0  0  0  0  0
    0.3338   -6.8238    4.7124 P   0  0  0  1  0  0  0  0  0  0  0  0
    1.0588   -8.0831    4.4315 O   0  0  0  1  0  0  0  0  0  0  0  0
   -0.5806   -6.2489    5.9198 O   0  5  0  1  0  0  0  0  0  0  0  0
   -0.4617   -6.9744    3.3298 O   0  0  0  1  0  0  0  0  0  0  0  0
   -0.2253   -7.0307    1.7674 P   0  0  0  1  0  0  0  0  0  0  0  0
   -0.3244   -8.4659    1.4141 O   0  0  0  0  0  0  0  0  0  0  0  0
    0.9803   -6.2712    1.3874 O   0  0  0  1  0  0  0  0  0  0  0  0
   -1.5316   -6.3404    1.1766 O   0  0  0  1  0  0  0  0  0  0  0  0
   -1.7279   -6.3399   -0.2612 C   0  0  0  1  0  0  0  0  0  0  0  0
   -1.9394   -7.3325   -0.6004 H   0  0  0  1  0  0  0  0  0  0  0  0
   -0.8480   -5.9757   -0.7490 H   0  0  0  1  0  0  0  0  0  0  0  0
   -2.8980   -5.4319   -0.5644 C   0  0  0  1  0  0  0  0  0  0  0  0
   -3.7600   -5.7686   -0.0273 H   0  0  0  1  0  0  0  0  0  0  0  0
   -3.1714   -5.4229   -2.0057 C   0  0  0  1  0  0  0  0  0  0  0  0
   -3.9474   -6.1200   -2.2443 H   0  0  0  1  0  0  0  0  0  0  0  0
   -3.6159   -4.0022   -2.3209 C   0  0  0  1  0  0  0  0  0  0  0  0
   -4.6642   -3.8717   -2.1503 H   0  0  0  1  0  0  0  0  0  0  0  0
   -2.7801   -3.2055   -1.3173 C   0  0  0  1  0  0  0  0  0  0  0  0
   -3.3029   -2.3222   -1.0149 H   0  0  0  1  0  0  0  0  0  0  0  0
   -2.5827   -4.0762   -0.1975 O   0  0  0  1  0  0  0  0  0  0  0  0
   -1.4935   -2.8338   -1.9069 N   0  0  0  1  0  0  0  0  0  0  0  0
   -0.4452   -3.6593   -2.1777 C   0  0  0  1  0  0  0  0  0  0  0  0
   -0.4670   -4.6822   -1.9907 H   0  0  0  1  0  0  0  0  0  0  0  0
    0.6008   -3.0465   -2.6985 N   0  0  0  1  0  0  0  0  0  0  0  0
    0.1754   -1.7209   -2.7891 C   0  0  0  1  0  0  0  0  0  0  0  0
    0.8112   -0.5697   -3.2853 C   0  0  0  1  0  0  0  0  0  0  0  0
    0.1238    0.5967   -3.2273 N   0  0  0  1  0  0  0  0  0  0  0  0
   -1.1166    0.5792   -2.7076 C   0  0  0  1  0  0  0  0  0  0  0  0
   -1.5992    1.5001   -2.6839 H   0  0  0  1  0  0  0  0  0  0  0  0
   -1.8199   -0.4420   -2.2185 N   0  0  0  1  0  0  0  0  0  0  0  0
   -1.0927   -1.5747   -2.3031 C   0  0  0  1  0  0  0  0  0  0  0  0
    2.0766   -0.6248   -3.8074 N   0  0  0  1  0  0  0  0  0  0  0  0
    2.5379    0.2015   -4.0622 H   0  0  0  1  0  0  0  0  0  0  0  0
    2.5205   -1.4904   -3.9260 H   0  0  0  1  0  0  0  0  0  0  0  0
   -3.3033   -3.6414   -3.6670 O   0  0  0  1  0  0  0  0  0  0  0  0
   -4.0921   -3.3080   -4.1009 H   0  0  0  1  0  0  0  0  0  0  0  0
   -1.9765   -5.7570   -2.7503 O   0  0  0  1  0  0  0  0  0  0  0  0
   -1.5931   -7.3196   -3.0680 P   0  0  0  1  0  0  0  0  0  0  0  0
   -2.4888   -8.2232   -2.3120 O   0  0  0  1  0  0  0  0  0  0  0  0
   -1.6085   -7.5191   -4.6756 O   0  5  0  1  0  0  0  0  0  0  0  0
   -0.0809   -7.5250   -2.5245 O   0  5  0  1  0  0  0  0  0  0  0  0
    3.1608   -6.9610    8.1965 C   0  0  0  1  0  0  0  0  0  0  0  0
    2.6036   -6.7196    9.0776 H   0  0  0  1  0  0  0  0  0  0  0  0
    4.5709   -7.3403    8.6095 C   0  0  0  1  0  0  0  0  0  0  0  0
    5.5438   -6.7953    8.1146 O   0  0  0  1  0  0  0  0  0  0  0  0
    4.6663   -8.2950    9.5353 N   0  0  0  1  0  0  0  0  0  0  0  0
    3.8441   -8.6730    9.9115 H   0  0  0  1  0  0  0  0  0  0  0  0
    5.9490   -8.7953   10.0068 C   0  0  0  1  0  0  0  0  0  0  0  0
    6.5550   -7.9717   10.3220 H   0  0  0  1  0  0  0  0  0  0  0  0
    6.4394   -9.3154    9.2106 H   0  0  0  1  0  0  0  0  0  0  0  0
    5.7469   -9.7406   11.1706 C   0  0  0  1  0  0  0  0  0  0  0  0
    4.8460   -9.4570   11.6735 H   0  0  0  1  0  0  0  0  0  0  0  0
    6.5777   -9.6280   11.8354 H   0  0  0  1  0  0  0  0  0  0  0  0
    5.6372  -11.1959   10.8075 C   0  0  0  1  0  0  0  0  0  0  0  0
    4.8370  -11.6039    9.9854 O   0  0  0  1  0  0  0  0  0  0  0  0
    6.4442  -12.0770   11.4054 N   0  0  0  1  0  0  0  0  0  0  0  0
    7.0725  -11.7568   12.0860 H   0  0  0  1  0  0  0  0  0  0  0  0
    6.4227  -13.4955   11.0812 C   0  0  0  1  0  0  0  0  0  0  0  0
    7.3762  -13.9168   11.3226 H   0  0  0  1  0  0  0  0  0  0  0  0
    6.2389  -13.6049   10.0328 H   0  0  0  1  0  0  0  0  0  0  0  0
    5.3485  -14.2520   11.8455 C   0  0  0  1  0  0  0  0  0  0  0  0
    5.4545  -14.0659   12.8939 H   0  0  0  1  0  0  0  0  0  0  0  0
    5.4446  -15.3010   11.6575 H   0  0  0  1  0  0  0  0  0  0  0  0
    3.7256  -13.6807   11.2880 S   0  0  0  1  0  0  0  0  0  0  0  0
    3.6384  -14.4972    9.7112 C   0  0  0  1  0  0  0  0  0  0  0  0
    4.5280  -15.1680    9.2616 O   0  0  0  1  0  0  0  0  0  0  0  0
    2.3252  -14.2497    9.0106 C   0  0  0  1  0  0  0  0  0  0  0  0
    1.6797  -13.7082    9.6701 H   0  0  0  1  0  0  0  0  0  0  0  0
    1.8803  -15.1926    8.7699 H   0  0  0  1  0  0  0  0  0  0  0  0
    2.4974  -13.4553    7.7390 C   0  0  0  1  0  0  0  0  0  0  0  0
    3.5952  -13.0346    7.4194 O   0  0  0  1  0  0  0  0  0  0  0  0
    1.3294  -13.2007    6.9015 C   0  0  0  1  0  0  0  0  0  0  0  0
    0.4646  -13.7213    7.1519 H   0  0  0  1  0  0  0  0  0  0  0  0
    1.2378  -12.3815    5.8546 C   0  0  0  1  0  0  0  0  0  0  0  0
    2.1025  -11.8609    5.6041 H   0  0  0  1  0  0  0  0  0  0  0  0
    0.0496  -12.1225    5.0027 C   0  0  0  1  0  0  0  0  0  0  0  0
   -1.1500  -12.7456    5.2905 C   0  0  0  1  0  0  0  0  0  0  0  0
   -1.2010  -13.4471    6.0566 H   0  0  0  1  0  0  0  0  0  0  0  0
   -2.2851  -12.4355    4.5579 C   0  0  0  1  0  0  0  0  0  0  0  0
   -2.2163  -11.5071    3.5362 C   0  0  0  1  0  0  0  0  0  0  0  0
   -1.0130  -10.8822    3.2477 C   0  0  0  1  0  0  0  0  0  0  0  0
   -0.9620  -10.1807    2.4817 H   0  0  0  1  0  0  0  0  0  0  0  0
    0.1190  -11.1914    3.9781 C   0  0  0  1  0  0  0  0  0  0  0  0
    1.0226  -10.7255    3.7590 H   0  0  0  1  0  0  0  0  0  0  0  0
   -3.2591  -11.1283    2.7498 O   0  5  0  1  0  0  0  0  0  0  0  0
   -3.5122  -12.9750    4.7505 O   0  0  0  1  0  0  0  0  0  0  0  0
   -3.6096  -14.0711    5.6733 C   0  0  0  1  0  0  0  0  0  0  0  0
   -2.8820  -13.9510    6.4486 H   0  0  0  1  0  0  0  0  0  0  0  0
   -3.4301  -14.9900    5.1553 H   0  0  0  1  0  0  0  0  0  0  0  0
   -4.5892  -14.0890    6.1034 H   0  0  0  1  0  0  0  0  0  0  0  0
    3.2679   -5.8132    7.3670 O   0  0  0  1  0  0  0  0  0  0  0  0
    4.1723   -5.4915    7.3802 H   0  0  0  1  0  0  0  0  0  0  0  0
  1  2  1  0  0  0  0
  1  3  1  0  0  0  0
  1  4  1  0  0  0  0
  1  5  1  0  0  0  0
  5  6  1  0  0  0  0
  5 10  1  0  0  0  0
  5 55  1  0  0  0  0
  6  7  1  0  0  0  0
  6  8  1  0  0  0  0
  6  9  1  0  0  0  0
 10 11  1  0  0  0  0
 10 12  1  0  0  0  0
 10 13  1  0  0  0  0
 13 14  1  0  0  0  0
 14 15  2  0  0  0  0
 14 16  1  0  0  0  0
 14 17  1  0  0  0  0
 17 18  1  0  0  0  0
 18 19  1  0  0  0  0
 18 20  2  0  0  0  0
 18 21  1  0  0  0  0
 21 22  1  0  0  0  0
 22 23  1  0  0  0  0
 22 24  1  0  0  0  0
 22 25  1  0  0  0  0
 25 26  1  0  0  0  0
 25 27  1  0  0  0  0
 25 33  1  0  0  0  0
 27 28  1  0  0  0  0
 27 29  1  0  0  0  0
 27 50  1  0  0  0  0
 29 30  1  0  0  0  0
 29 31  1  0  0  0  0
 29 48  1  0  0  0  0
 31 32  1  0  0  0  0
 31 33  1  0  0  0  0
 31 34  1  0  0  0  0
 34 35  1  0  0  0  0
 34 44  1  0  0  0  0
 35 36  1  0  0  0  0
 35 37  2  0  0  0  0
 37 38  1  0  0  0  0
 38 39  1  0  0  0  0
 38 44  2  0  0  0  0
 39 40  2  0  0  0  0
 39 45  1  0  0  0  0
 40 41  1  0  0  0  0
 41 42  1  0  0  0  0
 41 43  2  0  0  0  0
 43 44  1  0  0  0  0
 45 46  1  0  0  0  0
 45 47  1  0  0  0  0
 48 49  1  0  0  0  0
 50 51  1  0  0  0  0
 51 52  2  0  0  0  0
 51 53  1  0  0  0  0
 51 54  1  0  0  0  0
 55 56  1  0  0  0  0
 55 57  1  0  0  0  0
 55104  1  0  0  0  0
 57 58  2  0  0  0  0
 57 59  1  0  0  0  0
 59 60  1  0  0  0  0
 59 61  1  0  0  0  0
 61 62  1  0  0  0  0
 61 63  1  0  0  0  0
 61 64  1  0  0  0  0
 64 65  1  0  0  0  0
 64 66  1  0  0  0  0
 64 67  1  0  0  0  0
 67 68  2  0  0  0  0
 67 69  1  0  0  0  0
 69 70  1  0  0  0  0
 69 71  1  0  0  0  0
 71 72  1  0  0  0  0
 71 73  1  0  0  0  0
 71 74  1  0  0  0  0
 74 75  1  0  0  0  0
 74 76  1  0  0  0  0
 74 77  1  0  0  0  0
 77 78  1  0  0  0  0
 78 79  2  0  0  0  0
 78 80  1  0  0  0  0
 80 81  1  0  0  0  0
 80 82  1  0  0  0  0
 80 83  1  0  0  0  0
 83 84  2  0  0  0  0
 83 85  1  0  0  0  0
 85 86  1  0  0  0  0
 85 87  2  0  0  0  0
 87 88  1  0  0  0  0
 87 89  1  0  0  0  0
 89 90  2  0  0  0  0
 89 96  1  0  0  0  0
 90 91  1  0  0  0  0
 90 92  1  0  0  0  0
 92 93  2  0  0  0  0
 92 99  1  0  0  0  0
 93 94  1  0  0  0  0
 93 98  1  0  0  0  0
 94 95  1  0  0  0  0
 94 96  2  0  0  0  0
 96 97  1  0  0  0  0
 99100  1  0  0  0  0
100101  1  0  0  0  0
100102  1  0  0  0  0
100103  1  0  0  0  0
104105  1  0  0  0  0
M  BCL ATM C_TeTeTeTe H_S H_S H_S C_TeTeTeTe C_TeTeTeTe H_S H_S H_S C_TeTeTeTe H_S H_S O_Tr2TrTrPi2 P_TeTeTeTePi O_Tr2Tr2TrPi O_Te2Te2Te2Te O_Tr2TrTrPi2 P_TeTeTeTePi O_Te2Te2TeTe O_Tr2Tr2TrPi O_Tr2TrTrPi2 C_TeTeTeTe H_S H_S C_TeTeTeTe H_S C_TeTeTeTe H_S C_TeTeTeTe H_S C_TeTeTeTe H_S O_Te2Te2TeTe N_TrTrTrPi2 C_TrTrTrPi H_S N_Tr2TrTrPi C_TrTrTrPi C_TrTrTrPi N_Tr2TrTrPi C_TrTrTrPi H_S N_Tr2TrTrPi C_TrTrTrPi N_TrTrTrPi2 H_S H_S O_Te2Te2TeTe H_S O_Tr2TrTrPi2 P_TeTeTeTePi O_Tr2Tr2TrPi O_Te2Te2Te2Te O_Te2Te2Te2Te C_TeTeTeTe H_S C_TrTrTrPi O_Tr2Tr2TrPi N_TrTrTrPi2 H_S C_TeTeTeTe H_S H_S C_TeTeTeTe H_S H_S C_TrTrTrPi O_Tr2Tr2TrPi N_TrTrTrPi2 H_S C_TeTeTeTe H_S H_S C_TeTeTeTe H_S H_S S_Te2Te2TeTe C_TrTrTrPi O_Tr2Tr2TrPi C_TeTeTeTe H_S H_S C_TrTrTrPi O_Tr2Tr2TrPi C_TrTrTrPi H_S C_TrTrTrPi H_S C_TrTrTrPi C_TrTrTrPi H_S C_TrTrTrPi C_TrTrTrPi C_TrTrTrPi H_S C_TrTrTrPi H_S O_Te2Te2Te2Te O_Tr2TrTrPi2 C_TeTeTeTe H_S H_S H_S O_Te2Te2TeTe H_S
M  BCL BND NonConjugatedSingleBond NonConjugatedSingleBond NonConjugatedSingleBond NonConjugatedSingleBond NonConjugatedSingleBond NonConjugatedSingleBond NonConjugatedSingleBond NonConjugatedSingleBond NonConjugatedSingleBond NonConjugatedSingleBond NonConjugatedSingleBond NonConjugatedSingleBond NonConjugatedSingleBond ConjugatedSingleBond ConjugatedDoubleBond ConjugatedSingleBond ConjugatedSingleBond ConjugatedSingleBond ConjugatedSingleBond ConjugatedDoubleBond ConjugatedSingleBond NonConjugatedSingleBond NonConjugatedSingleBond NonConjugatedSingleBond NonConjugatedSingleBond NonConjugatedSingleBond NonConjugatedSingleBondInRing NonConjugatedSingleBondInRing NonConjugatedSingleBond NonConjugatedSingleBondInRing NonConjugatedSingleBond NonConjugatedSingleBond NonConjugatedSingleBondInRing NonConjugatedSingleBond NonConjugatedSingleBond NonConjugatedSingleBondInRing NonConjugatedSingleBond AromaticSingleBond AromaticSingleBond NonConjugatedSingleBond AromaticDoubleBond AromaticSingleBond AromaticSingleBond AromaticDoubleBond AromaticDoubleBond ConjugatedSingleBond AromaticSingleBond NonConjugatedSingleBond AromaticDoubleBond AromaticSingleBond NonConjugatedSingleBond NonConjugatedSingleBond NonConjugatedSingleBond ConjugatedSingleBond ConjugatedDoubleBond ConjugatedSingleBond ConjugatedSingleBond NonConjugatedSingleBond NonConjugatedSingleBond NonConjugatedSingleBond ConjugatedDoubleBond AmideSingleBond NonConjugatedSingleBond NonConjugatedSingleBond NonConjugatedSingleBond NonConjugatedSingleBond NonConjugatedSingleBond NonConjugatedSingleBond NonConjugatedSingleBond NonConjugatedSingleBond ConjugatedDoubleBond AmideSingleBond NonConjugatedSingleBond NonConjugatedSingleBond NonConjugatedSingleBond NonConjugatedSingleBond NonConjugatedSingleBond NonConjugatedSingleBond NonConjugatedSingleBond NonConjugatedSingleBond ConjugatedSingleBond ConjugatedDoubleBond NonConjugatedSingleBond NonConjugatedSingleBond NonConjugatedSingleBond NonConjugatedSingleBond ConjugatedDoubleBond ConjugatedSingleBond NonConjugatedSingleBond ConjugatedDoubleBond NonConjugatedSingleBond ConjugatedSingleBond AromaticDoubleBond AromaticSingleBond NonConjugatedSingleBond AromaticSingleBond AromaticDoubleBond ConjugatedSingleBond AromaticSingleBond ConjugatedSingleBond NonConjugatedSingleBond AromaticDoubleBond NonConjugatedSingleBond NonConjugatedSingleBond NonConjugatedSingleBond NonConjugatedSingleBond NonConjugatedSingleBond NonConjugatedSingleBond
M  BCL CHI  14   R  18   S  25   R  27   R  29   R  31   S  55   R
M  BCL DBI - - - - - - - - - - - E - - -
M  END
> <ConfClashScore>
0 

> <ConfOneFourInteractionScore>
-0.963222 

> <ConfScore>
-0.0100329 

> <ConfScorePBest>
0.0146865 

> <ConfTolerance>
0.25 

$$$$
L03.****
  PyMOL2.5          3D                             0

105108  0  0  0  0  0  0  0  0999 V2000
  -12.0770   -1.8728   -1.2182 C   0  0  0  1  0  0  0  0  0  0  0  0
  -12.8836   -2.2826   -1.7895 H   0  0  0  1  0  0  0  0  0  0  0  0
  -11.4899   -1.2303   -1.8406 H   0  0  0  1  0  0  0  0  0  0  0  0
  -12.4710   -1.3119   -0.3967 H   0  0  0  1  0  0  0  0  0  0  0  0
  -11.1977   -3.0103   -0.6850 C   0  0  0  1  0  0  0  0  0  0  0  0
  -12.0165   -3.8999    0.2580 C   0  0  0  1  0  0  0  0  0  0  0  0
  -11.8123   -4.9286    0.0456 H   0  0  0  1  0  0  0  0  0  0  0  0
  -13.0591   -3.7066    0.1147 H   0  0  0  1  0  0  0  0  0  0  0  0
  -11.7495   -3.6855    1.2717 H   0  0  0  1  0  0  0  0  0  0  0  0
  -10.0426   -2.3890    0.0290 C   0  0  0  1  0  0  0  0  0  0  0  0
   -9.3969   -3.1522    0.4105 H   0  0  0  1  0  0  0  0  0  0  0  0
  -10.3967   -1.7838    0.8373 H   0  0  0  1  0  0  0  0  0  0  0  0
   -9.3319   -1.5745   -0.9171 O   0  0  0  1  0  0  0  0  0  0  0  0
   -8.6640   -0.1853   -0.6005 P   0  0  0  1  0  0  0  0  0  0  0  0
   -9.9759    0.3475   -0.1698 O   0  0  0  1  0  0  0  0  0  0  0  0
   -7.7323   -1.4502   -0.2051 O   0  5  0  1  0  0  0  0  0  0  0  0
   -7.9779    1.2430   -0.2748 O   0  0  0  1  0  0  0  0  0  0  0  0
   -6.5041    1.6939   -0.7711 P   0  0  0  1  0  0  0  0  0  0  0  0
   -5.9297    2.6818    0.1756 O   0  0  0  0  0  0  0  0  0  0  0  0
   -6.5021    1.9820   -2.2160 O   0  0  0  1  0  0  0  0  0  0  0  0
   -5.9046    0.2654   -0.4954 O   0  0  0  1  0  0  0  0  0  0  0  0
   -4.7223   -0.1932   -1.1990 C   0  0  0  1  0  0  0  0  0  0  0  0
   -3.8961    0.4511   -0.9817 H   0  0  0  1  0  0  0  0  0  0  0  0
   -4.9044   -0.1973   -2.2534 H   0  0  0  1  0  0  0  0  0  0  0  0
   -4.4203   -1.5961   -0.7232 C   0  0  0  1  0  0  0  0  0  0  0  0
   -5.3212   -2.0572   -0.3760 H   0  0  0  1  0  0  0  0  0  0  0  0
   -3.3568   -1.5777    0.3842 C   0  0  0  1  0  0  0  0  0  0  0  0
   -3.8057   -1.4591    1.3482 H   0  0  0  1  0  0  0  0  0  0  0  0
   -2.7137   -2.9329    0.2478 C   0  0  0  1  0  0  0  0  0  0  0  0
   -3.2647   -3.6751    0.7867 H   0  0  0  1  0  0  0  0  0  0  0  0
   -2.7691   -3.1948   -1.2602 C   0  0  0  1  0  0  0  0  0  0  0  0
   -2.9828   -4.2250   -1.4549 H   0  0  0  1  0  0  0  0  0  0  0  0
   -3.8381   -2.3537   -1.7490 O   0  0  0  1  0  0  0  0  0  0  0  0
   -1.4992   -2.8311   -1.8919 N   0  0  0  1  0  0  0  0  0  0  0  0
   -0.4579   -3.6730   -2.1991 C   0  0  0  1  0  0  0  0  0  0  0  0
   -0.4835   -4.6984   -2.0270 H   0  0  0  1  0  0  0  0  0  0  0  0
    0.5757   -3.0560   -2.7324 N   0  0  0  1  0  0  0  0  0  0  0  0
    0.1771   -1.7284   -2.8000 C   0  0  0  1  0  0  0  0  0  0  0  0
    0.8089   -0.5653   -3.2786 C   0  0  0  1  0  0  0  0  0  0  0  0
    0.1277    0.5973   -3.2155 N   0  0  0  1  0  0  0  0  0  0  0  0
   -1.1162    0.5772   -2.7096 C   0  0  0  1  0  0  0  0  0  0  0  0
   -1.6010    1.4972   -2.6920 H   0  0  0  1  0  0  0  0  0  0  0  0
   -1.8217   -0.4429   -2.2276 N   0  0  0  1  0  0  0  0  0  0  0  0
   -1.1076   -1.5807   -2.2974 C   0  0  0  1  0  0  0  0  0  0  0  0
    2.0969   -0.6132   -3.8007 N   0  0  0  1  0  0  0  0  0  0  0  0
    2.5123    0.2003   -4.1558 H   0  0  0  1  0  0  0  0  0  0  0  0
    2.5892   -1.4605   -3.8136 H   0  0  0  1  0  0  0  0  0  0  0  0
   -1.3640   -2.9087    0.7144 O   0  0  0  1  0  0  0  0  0  0  0  0
   -1.2825   -3.4703    1.4887 H   0  0  0  1  0  0  0  0  0  0  0  0
   -2.3918   -0.5163    0.1653 O   0  0  0  1  0  0  0  0  0  0  0  0
   -1.4815    0.0605    1.4015 P   0  0  0  1  0  0  0  0  0  0  0  0
   -2.0098    0.0040    2.7829 O   0  0  0  1  0  0  0  0  0  0  0  0
   -0.1459   -0.8124    1.1214 O   0  5  0  1  0  0  0  0  0  0  0  0
   -1.1209    1.5424    0.8553 O   0  5  0  1  0  0  0  0  0  0  0  0
  -10.6716   -3.8790   -1.8337 C   0  0  0  1  0  0  0  0  0  0  0  0
  -11.4877   -4.4572   -2.2140 H   0  0  0  1  0  0  0  0  0  0  0  0
  -10.0610   -3.1052   -2.9802 C   0  0  0  1  0  0  0  0  0  0  0  0
  -10.7637   -2.5910   -3.8494 O   0  0  0  1  0  0  0  0  0  0  0  0
   -8.7211   -3.0223   -2.9797 N   0  0  0  1  0  0  0  0  0  0  0  0
   -8.2259   -3.3718   -2.2097 H   0  0  0  1  0  0  0  0  0  0  0  0
   -7.9785   -2.4314   -4.0830 C   0  0  0  1  0  0  0  0  0  0  0  0
   -8.5630   -2.5177   -4.9750 H   0  0  0  1  0  0  0  0  0  0  0  0
   -7.0604   -2.9674   -4.2043 H   0  0  0  1  0  0  0  0  0  0  0  0
   -7.6585   -0.9638   -3.8505 C   0  0  0  1  0  0  0  0  0  0  0  0
   -6.9643   -0.8909   -3.0396 H   0  0  0  1  0  0  0  0  0  0  0  0
   -8.5635   -0.4545   -3.5928 H   0  0  0  1  0  0  0  0  0  0  0  0
   -7.0537   -0.2880   -5.0657 C   0  0  0  1  0  0  0  0  0  0  0  0
   -7.3241   -0.6635   -6.2057 O   0  0  0  1  0  0  0  0  0  0  0  0
   -6.2179    0.7302   -4.8109 N   0  0  0  1  0  0  0  0  0  0  0  0
   -6.0243    0.9611   -3.8784 H   0  0  0  1  0  0  0  0  0  0  0  0
   -5.5891    1.5038   -5.8711 C   0  0  0  1  0  0  0  0  0  0  0  0
   -6.3156    1.7260   -6.6245 H   0  0  0  1  0  0  0  0  0  0  0  0
   -4.7927    0.9323   -6.3003 H   0  0  0  1  0  0  0  0  0  0  0  0
   -5.0326    2.7981   -5.3163 C   0  0  0  1  0  0  0  0  0  0  0  0
   -4.4209    2.5605   -4.4712 H   0  0  0  1  0  0  0  0  0  0  0  0
   -5.8559    3.4049   -5.0019 H   0  0  0  1  0  0  0  0  0  0  0  0
   -4.0355    3.7640   -6.4755 S   0  0  0  1  0  0  0  0  0  0  0  0
   -5.2998    4.2728   -7.6171 C   0  0  0  1  0  0  0  0  0  0  0  0
   -6.4445    3.9159   -7.5413 O   0  0  0  1  0  0  0  0  0  0  0  0
   -4.7686    5.1987   -8.6839 C   0  0  0  1  0  0  0  0  0  0  0  0
   -4.0333    4.6757   -9.2588 H   0  0  0  1  0  0  0  0  0  0  0  0
   -4.3164    6.0453   -8.2110 H   0  0  0  1  0  0  0  0  0  0  0  0
   -5.8774    5.6935   -9.6303 C   0  0  0  1  0  0  0  0  0  0  0  0
   -5.7970    6.7928  -10.1532 O   0  0  0  1  0  0  0  0  0  0  0  0
   -7.0415    4.8131   -9.8944 C   0  0  0  1  0  0  0  0  0  0  0  0
   -6.9858    3.8513   -9.5026 H   0  0  0  1  0  0  0  0  0  0  0  0
   -8.1500    5.1063  -10.5731 C   0  0  0  1  0  0  0  0  0  0  0  0
   -8.2473    6.0575  -10.9821 H   0  0  0  1  0  0  0  0  0  0  0  0
   -9.2503    4.1326  -10.7691 C   0  0  0  1  0  0  0  0  0  0  0  0
   -9.3036    2.8975  -10.1512 C   0  0  0  1  0  0  0  0  0  0  0  0
   -8.5403    2.6041   -9.5086 H   0  0  0  1  0  0  0  0  0  0  0  0
  -10.3745    2.0499  -10.3879 C   0  0  0  1  0  0  0  0  0  0  0  0
  -11.3864    2.4375  -11.2459 C   0  0  0  1  0  0  0  0  0  0  0  0
  -11.3327    3.6763  -11.8657 C   0  0  0  1  0  0  0  0  0  0  0  0
  -12.0960    3.9697  -12.5083 H   0  0  0  1  0  0  0  0  0  0  0  0
  -10.2649    4.5216  -11.6298 C   0  0  0  1  0  0  0  0  0  0  0  0
  -10.2227    5.4493  -12.0978 H   0  0  0  1  0  0  0  0  0  0  0  0
  -12.4794    1.6905  -11.5571 O   0  5  0  1  0  0  0  0  0  0  0  0
  -10.5378    0.8231   -9.8381 O   0  0  0  1  0  0  0  0  0  0  0  0
   -9.4651    0.3196   -9.0267 C   0  0  0  1  0  0  0  0  0  0  0  0
   -9.4998   -0.7497   -9.0122 H   0  0  0  1  0  0  0  0  0  0  0  0
   -9.5670    0.6932   -8.0293 H   0  0  0  1  0  0  0  0  0  0  0  0
   -8.5291    0.6403   -9.4343 H   0  0  0  1  0  0  0  0  0  0  0  0
   -9.7156   -4.7518   -1.2180 O   0  0  0  1  0  0  0  0  0  0  0  0
   -9.4328   -5.4153   -1.8516 H   0  0  0  1  0  0  0  0  0  0  0  0
  1  2  1  0  0  0  0
  1  3  1  0  0  0  0
  1  4  1  0  0  0  0
  1  5  1  0  0  0  0
  5  6  1  0  0  0  0
  5 10  1  0  0  0  0
  5 55  1  0  0  0  0
  6  7  1  0  0  0  0
  6  8  1  0  0  0  0
  6  9  1  0  0  0  0
 10 11  1  0  0  0  0
 10 12  1  0  0  0  0
 10 13  1  0  0  0  0
 13 14  1  0  0  0  0
 14 15  2  0  0  0  0
 14 16  1  0  0  0  0
 14 17  1  0  0  0  0
 17 18  1  0  0  0  0
 18 19  1  0  0  0  0
 18 20  2  0  0  0  0
 18 21  1  0  0  0  0
 21 22  1  0  0  0  0
 22 23  1  0  0  0  0
 22 24  1  0  0  0  0
 22 25  1  0  0  0  0
 25 26  1  0  0  0  0
 25 27  1  0  0  0  0
 25 33  1  0  0  0  0
 27 28  1  0  0  0  0
 27 29  1  0  0  0  0
 27 50  1  0  0  0  0
 29 30  1  0  0  0  0
 29 31  1  0  0  0  0
 29 48  1  0  0  0  0
 31 32  1  0  0  0  0
 31 33  1  0  0  0  0
 31 34  1  0  0  0  0
 34 35  1  0  0  0  0
 34 44  1  0  0  0  0
 35 36  1  0  0  0  0
 35 37  2  0  0  0  0
 37 38  1  0  0  0  0
 38 39  1  0  0  0  0
 38 44  2  0  0  0  0
 39 40  2  0  0  0  0
 39 45  1  0  0  0  0
 40 41  1  0  0  0  0
 41 42  1  0  0  0  0
 41 43  2  0  0  0  0
 43 44  1  0  0  0  0
 45 46  1  0  0  0  0
 45 47  1  0  0  0  0
 48 49  1  0  0  0  0
 50 51  1  0  0  0  0
 51 52  2  0  0  0  0
 51 53  1  0  0  0  0
 51 54  1  0  0  0  0
 55 56  1  0  0  0  0
 55 57  1  0  0  0  0
 55104  1  0  0  0  0
 57 58  2  0  0  0  0
 57 59  1  0  0  0  0
 59 60  1  0  0  0  0
 59 61  1  0  0  0  0
 61 62  1  0  0  0  0
 61 63  1  0  0  0  0
 61 64  1  0  0  0  0
 64 65  1  0  0  0  0
 64 66  1  0  0  0  0
 64 67  1  0  0  0  0
 67 68  2  0  0  0  0
 67 69  1  0  0  0  0
 69 70  1  0  0  0  0
 69 71  1  0  0  0  0
 71 72  1  0  0  0  0
 71 73  1  0  0  0  0
 71 74  1  0  0  0  0
 74 75  1  0  0  0  0
 74 76  1  0  0  0  0
 74 77  1  0  0  0  0
 77 78  1  0  0  0  0
 78 79  2  0  0  0  0
 78 80  1  0  0  0  0
 80 81  1  0  0  0  0
 80 82  1  0  0  0  0
 80 83  1  0  0  0  0
 83 84  2  0  0  0  0
 83 85  1  0  0  0  0
 85 86  1  0  0  0  0
 85 87  2  0  0  0  0
 87 88  1  0  0  0  0
 87 89  1  0  0  0  0
 89 90  2  0  0  0  0
 89 96  1  0  0  0  0
 90 91  1  0  0  0  0
 90 92  1  0  0  0  0
 92 93  2  0  0  0  0
 92 99  1  0  0  0  0
 93 94  1  0  0  0  0
 93 98  1  0  0  0  0
 94 95  1  0  0  0  0
 94 96  2  0  0  0  0
 96 97  1  0  0  0  0
 99100  1  0  0  0  0
100101  1  0  0  0  0
100102  1  0  0  0  0
100103  1  0  0  0  0
104105  1  0  0  0  0
M  BCL ATM C_TeTeTeTe H_S H_S H_S C_TeTeTeTe C_TeTeTeTe H_S H_S H_S C_TeTeTeTe H_S H_S O_Tr2TrTrPi2 P_TeTeTeTePi O_Tr2Tr2TrPi O_Te2Te2Te2Te O_Tr2TrTrPi2 P_TeTeTeTePi O_Te2Te2TeTe O_Tr2Tr2TrPi O_Tr2TrTrPi2 C_TeTeTeTe H_S H_S C_TeTeTeTe H_S C_TeTeTeTe H_S C_TeTeTeTe H_S C_TeTeTeTe H_S O_Te2Te2TeTe N_TrTrTrPi2 C_TrTrTrPi H_S N_Tr2TrTrPi C_TrTrTrPi C_TrTrTrPi N_Tr2TrTrPi C_TrTrTrPi H_S N_Tr2TrTrPi C_TrTrTrPi N_TrTrTrPi2 H_S H_S O_Te2Te2TeTe H_S O_Tr2TrTrPi2 P_TeTeTeTePi O_Tr2Tr2TrPi O_Te2Te2Te2Te O_Te2Te2Te2Te C_TeTeTeTe H_S C_TrTrTrPi O_Tr2Tr2TrPi N_TrTrTrPi2 H_S C_TeTeTeTe H_S H_S C_TeTeTeTe H_S H_S C_TrTrTrPi O_Tr2Tr2TrPi N_TrTrTrPi2 H_S C_TeTeTeTe H_S H_S C_TeTeTeTe H_S H_S S_Te2Te2TeTe C_TrTrTrPi O_Tr2Tr2TrPi C_TeTeTeTe H_S H_S C_TrTrTrPi O_Tr2Tr2TrPi C_TrTrTrPi H_S C_TrTrTrPi H_S C_TrTrTrPi C_TrTrTrPi H_S C_TrTrTrPi C_TrTrTrPi C_TrTrTrPi H_S C_TrTrTrPi H_S O_Te2Te2Te2Te O_Tr2TrTrPi2 C_TeTeTeTe H_S H_S H_S O_Te2Te2TeTe H_S
M  BCL BND NonConjugatedSingleBond NonConjugatedSingleBond NonConjugatedSingleBond NonConjugatedSingleBond NonConjugatedSingleBond NonConjugatedSingleBond NonConjugatedSingleBond NonConjugatedSingleBond NonConjugatedSingleBond NonConjugatedSingleBond NonConjugatedSingleBond NonConjugatedSingleBond NonConjugatedSingleBond ConjugatedSingleBond ConjugatedDoubleBond ConjugatedSingleBond ConjugatedSingleBond ConjugatedSingleBond ConjugatedSingleBond ConjugatedDoubleBond ConjugatedSingleBond NonConjugatedSingleBond NonConjugatedSingleBond NonConjugatedSingleBond NonConjugatedSingleBond NonConjugatedSingleBond NonConjugatedSingleBondInRing NonConjugatedSingleBondInRing NonConjugatedSingleBond NonConjugatedSingleBondInRing NonConjugatedSingleBond NonConjugatedSingleBond NonConjugatedSingleBondInRing NonConjugatedSingleBond NonConjugatedSingleBond NonConjugatedSingleBondInRing NonConjugatedSingleBond AromaticSingleBond AromaticSingleBond NonConjugatedSingleBond AromaticDoubleBond AromaticSingleBond AromaticSingleBond AromaticDoubleBond AromaticDoubleBond ConjugatedSingleBond AromaticSingleBond NonConjugatedSingleBond AromaticDoubleBond AromaticSingleBond NonConjugatedSingleBond NonConjugatedSingleBond NonConjugatedSingleBond ConjugatedSingleBond ConjugatedDoubleBond ConjugatedSingleBond ConjugatedSingleBond NonConjugatedSingleBond NonConjugatedSingleBond NonConjugatedSingleBond ConjugatedDoubleBond AmideSingleBond NonConjugatedSingleBond NonConjugatedSingleBond NonConjugatedSingleBond NonConjugatedSingleBond NonConjugatedSingleBond NonConjugatedSingleBond NonConjugatedSingleBond NonConjugatedSingleBond ConjugatedDoubleBond AmideSingleBond NonConjugatedSingleBond NonConjugatedSingleBond NonConjugatedSingleBond NonConjugatedSingleBond NonConjugatedSingleBond NonConjugatedSingleBond NonConjugatedSingleBond NonConjugatedSingleBond ConjugatedSingleBond ConjugatedDoubleBond NonConjugatedSingleBond NonConjugatedSingleBond NonConjugatedSingleBond NonConjugatedSingleBond ConjugatedDoubleBond ConjugatedSingleBond NonConjugatedSingleBond ConjugatedDoubleBond NonConjugatedSingleBond ConjugatedSingleBond AromaticDoubleBond AromaticSingleBond NonConjugatedSingleBond AromaticSingleBond AromaticDoubleBond ConjugatedSingleBond AromaticSingleBond ConjugatedSingleBond NonConjugatedSingleBond AromaticDoubleBond NonConjugatedSingleBond NonConjugatedSingleBond NonConjugatedSingleBond NonConjugatedSingleBond NonConjugatedSingleBond NonConjugatedSingleBond
M  BCL CHI  14   R  18   S  25   R  27   R  29   R  31   S  55   R
M  BCL DBI - - - - - - - - - - - E - - -
M  END
> <ConfClashScore>
0 

> <ConfOneFourInteractionScore>
-0.970286 

> <ConfScore>
-0.00255556 

> <ConfScorePBest>
0.0145835 

> <ConfTolerance>
3.11812 

$$$$
L03.****
  PyMOL2.5          3D                             0

105108  0  0  0  0  0  0  0  0999 V2000
    1.1352   -9.9864    6.1334 C   0  0  0  1  0  0  0  0  0  0  0  0
    1.3234  -11.0029    6.4094 H   0  0  0  1  0  0  0  0  0  0  0  0
    1.2399   -9.3583    6.9932 H   0  0  0  1  0  0  0  0  0  0  0  0
    1.8363   -9.6851    5.3833 H   0  0  0  1  0  0  0  0  0  0  0  0
   -0.2895   -9.8617    5.5803 C   0  0  0  1  0  0  0  0  0  0  0  0
   -0.6550  -11.1768    4.8815 C   0  0  0  1  0  0  0  0  0  0  0  0
   -1.3756  -10.9852    4.1141 H   0  0  0  1  0  0  0  0  0  0  0  0
   -1.0681  -11.8574    5.5964 H   0  0  0  1  0  0  0  0  0  0  0  0
    0.2236  -11.6054    4.4465 H   0  0  0  1  0  0  0  0  0  0  0  0
   -0.3915   -8.6654    4.6924 C   0  0  0  1  0  0  0  0  0  0  0  0
   -0.3223   -7.7714    5.2762 H   0  0  0  1  0  0  0  0  0  0  0  0
   -1.3245   -8.6787    4.1687 H   0  0  0  1  0  0  0  0  0  0  0  0
    0.7041   -8.7239    3.7489 O   0  0  0  1  0  0  0  0  0  0  0  0
    0.8279   -7.6667    2.5900 P   0  0  0  1  0  0  0  0  0  0  0  0
   -0.3126   -8.2995    1.8905 O   0  0  0  1  0  0  0  0  0  0  0  0
    1.0920   -7.0405    4.0605 O   0  5  0  1  0  0  0  0  0  0  0  0
    0.9548   -6.5801    1.3982 O   0  0  0  1  0  0  0  0  0  0  0  0
    0.2560   -5.1269    1.4839 P   0  0  0  1  0  0  0  0  0  0  0  0
    0.5032   -4.4055    0.2116 O   0  0  0  0  0  0  0  0  0  0  0  0
    0.6449   -4.4848    2.7433 O   0  0  0  1  0  0  0  0  0  0  0  0
   -1.2600   -5.5231    1.6281 O   0  0  0  1  0  0  0  0  0  0  0  0
   -1.9430   -6.0805    0.4807 C   0  0  0  1  0  0  0  0  0  0  0  0
   -2.3366   -7.0453    0.7241 H   0  0  0  1  0  0  0  0  0  0  0  0
   -1.2629   -6.1690   -0.3406 H   0  0  0  1  0  0  0  0  0  0  0  0
   -3.0704   -5.1414    0.1166 C   0  0  0  1  0  0  0  0  0  0  0  0
   -3.8526   -5.2243    0.8420 H   0  0  0  1  0  0  0  0  0  0  0  0
   -3.6000   -5.4852   -1.2446 C   0  0  0  1  0  0  0  0  0  0  0  0
   -4.6384   -5.7344   -1.1779 H   0  0  0  1  0  0  0  0  0  0  0  0
   -3.4200   -4.2865   -2.1277 C   0  0  0  1  0  0  0  0  0  0  0  0
   -4.3714   -3.9556   -2.4886 H   0  0  0  1  0  0  0  0  0  0  0  0
   -2.7794   -3.2014   -1.3135 C   0  0  0  1  0  0  0  0  0  0  0  0
   -3.4209   -2.3457   -1.2802 H   0  0  0  1  0  0  0  0  0  0  0  0
   -2.5634   -3.7297    0.0737 O   0  0  0  1  0  0  0  0  0  0  0  0
   -1.4958   -2.8269   -1.9076 N   0  0  0  1  0  0  0  0  0  0  0  0
   -0.4396   -3.6516   -2.1888 C   0  0  0  1  0  0  0  0  0  0  0  0
   -0.4558   -4.6728   -1.9929 H   0  0  0  1  0  0  0  0  0  0  0  0
    0.5892   -3.0515   -2.7226 N   0  0  0  1  0  0  0  0  0  0  0  0
    0.1863   -1.7331   -2.7982 C   0  0  0  1  0  0  0  0  0  0  0  0
    0.7999   -0.5721   -3.2750 C   0  0  0  1  0  0  0  0  0  0  0  0
    0.1429    0.5913   -3.2159 N   0  0  0  1  0  0  0  0  0  0  0  0
   -1.1076    0.5811   -2.7070 C   0  0  0  1  0  0  0  0  0  0  0  0
   -1.5926    1.5009   -2.6861 H   0  0  0  1  0  0  0  0  0  0  0  0
   -1.8028   -0.4474   -2.2286 N   0  0  0  1  0  0  0  0  0  0  0  0
   -1.0963   -1.5771   -2.3003 C   0  0  0  1  0  0  0  0  0  0  0  0
    2.0596   -0.6246   -3.7968 N   0  0  0  1  0  0  0  0  0  0  0  0
    2.4966    0.1963   -4.1058 H   0  0  0  1  0  0  0  0  0  0  0  0
    2.5272   -1.4833   -3.8625 H   0  0  0  1  0  0  0  0  0  0  0  0
   -2.5807   -4.6215   -3.2338 O   0  0  0  1  0  0  0  0  0  0  0  0
   -2.5376   -3.8784   -3.8400 H   0  0  0  1  0  0  0  0  0  0  0  0
   -2.8652   -6.6124   -1.7885 O   0  0  0  1  0  0  0  0  0  0  0  0
   -3.4526   -7.5758   -2.9787 P   0  0  0  1  0  0  0  0  0  0  0  0
   -4.2398   -6.6252   -3.7955 O   0  0  0  1  0  0  0  0  0  0  0  0
   -2.3694   -8.4052   -3.8523 O   0  5  0  1  0  0  0  0  0  0  0  0
   -4.5263   -8.6666   -2.4481 O   0  5  0  1  0  0  0  0  0  0  0  0
   -1.2460   -9.6874    6.7647 C   0  0  0  1  0  0  0  0  0  0  0  0
   -1.4920   -8.6490    6.8426 H   0  0  0  1  0  0  0  0  0  0  0  0
   -2.5236  -10.4718    6.6586 C   0  0  0  1  0  0  0  0  0  0  0  0
   -3.3231  -10.3649    5.7465 O   0  0  0  1  0  0  0  0  0  0  0  0
   -2.7167  -11.3222    7.6783 N   0  0  0  1  0  0  0  0  0  0  0  0
   -2.1105  -11.3083    8.4481 H   0  0  0  1  0  0  0  0  0  0  0  0
   -3.8245  -12.2653    7.6434 C   0  0  0  1  0  0  0  0  0  0  0  0
   -3.6058  -13.0759    8.3068 H   0  0  0  1  0  0  0  0  0  0  0  0
   -3.9262  -12.6380    6.6456 H   0  0  0  1  0  0  0  0  0  0  0  0
   -5.1415  -11.6336    8.0640 C   0  0  0  1  0  0  0  0  0  0  0  0
   -5.9100  -12.3755    8.0026 H   0  0  0  1  0  0  0  0  0  0  0  0
   -5.3646  -10.8317    7.3916 H   0  0  0  1  0  0  0  0  0  0  0  0
   -5.1122  -11.0815    9.4848 C   0  0  0  1  0  0  0  0  0  0  0  0
   -4.6168  -11.7832   10.3652 O   0  0  0  1  0  0  0  0  0  0  0  0
   -5.6230   -9.8710    9.6996 N   0  0  0  1  0  0  0  0  0  0  0  0
   -5.8877   -9.3454    8.9159 H   0  0  0  1  0  0  0  0  0  0  0  0
   -5.8185   -9.2682   11.0133 C   0  0  0  1  0  0  0  0  0  0  0  0
   -5.6045  -10.0016   11.7623 H   0  0  0  1  0  0  0  0  0  0  0  0
   -6.8386   -8.9569   11.0993 H   0  0  0  1  0  0  0  0  0  0  0  0
   -4.9183   -8.0598   11.2417 C   0  0  0  1  0  0  0  0  0  0  0  0
   -3.8909   -8.3474   11.1607 H   0  0  0  1  0  0  0  0  0  0  0  0
   -5.0982   -7.6468   12.2122 H   0  0  0  1  0  0  0  0  0  0  0  0
   -5.3241   -6.8440    9.9657 S   0  0  0  1  0  0  0  0  0  0  0  0
   -4.3948   -7.2772    8.5544 C   0  0  0  1  0  0  0  0  0  0  0  0
   -3.7538   -8.2893    8.4630 O   0  0  0  1  0  0  0  0  0  0  0  0
   -4.5622   -6.2892    7.4263 C   0  0  0  1  0  0  0  0  0  0  0  0
   -5.3654   -5.6245    7.6672 H   0  0  0  1  0  0  0  0  0  0  0  0
   -4.7987   -6.8255    6.5311 H   0  0  0  1  0  0  0  0  0  0  0  0
   -3.3144   -5.4767    7.1899 C   0  0  0  1  0  0  0  0  0  0  0  0
   -2.3468   -5.6051    7.9218 O   0  0  0  1  0  0  0  0  0  0  0  0
   -3.2844   -4.5381    6.0748 C   0  0  0  1  0  0  0  0  0  0  0  0
   -4.1574   -4.4309    5.5199 H   0  0  0  1  0  0  0  0  0  0  0  0
   -2.2342   -3.8058    5.7056 C   0  0  0  1  0  0  0  0  0  0  0  0
   -1.3833   -3.9442    6.2873 H   0  0  0  1  0  0  0  0  0  0  0  0
   -2.0769   -2.8272    4.6047 C   0  0  0  1  0  0  0  0  0  0  0  0
   -0.9808   -1.9855    4.5926 C   0  0  0  1  0  0  0  0  0  0  0  0
   -0.2755   -2.0389    5.3551 H   0  0  0  1  0  0  0  0  0  0  0  0
   -0.8215   -1.0700    3.5640 C   0  0  0  1  0  0  0  0  0  0  0  0
   -1.7615   -0.9952    2.5535 C   0  0  0  1  0  0  0  0  0  0  0  0
   -2.8608   -1.8395    2.5658 C   0  0  0  1  0  0  0  0  0  0  0  0
   -3.5661   -1.7861    1.8033 H   0  0  0  1  0  0  0  0  0  0  0  0
   -3.0197   -2.7524    3.5913 C   0  0  0  1  0  0  0  0  0  0  0  0
   -3.8466   -3.3831    3.6027 H   0  0  0  1  0  0  0  0  0  0  0  0
   -1.5039   -0.0576    1.6026 O   0  5  0  1  0  0  0  0  0  0  0  0
    0.2044   -0.2052    3.4437 O   0  0  0  1  0  0  0  0  0  0  0  0
    1.1222   -0.1848    4.5616 C   0  0  0  1  0  0  0  0  0  0  0  0
    1.1349   -1.1463    5.0309 H   0  0  0  1  0  0  0  0  0  0  0  0
    0.8058    0.5529    5.2691 H   0  0  0  1  0  0  0  0  0  0  0  0
    2.1048    0.0541    4.2118 H   0  0  0  1  0  0  0  0  0  0  0  0
   -0.4788  -10.0812    7.9097 O   0  0  0  1  0  0  0  0  0  0  0  0
   -0.5416   -9.4030    8.5862 H   0  0  0  1  0  0  0  0  0  0  0  0
  1  2  1  0  0  0  0
  1  3  1  0  0  0  0
  1  4  1  0  0  0  0
  1  5  1  0  0  0  0
  5  6  1  0  0  0  0
  5 10  1  0  0  0  0
  5 55  1  0  0  0  0
  6  7  1  0  0  0  0
  6  8  1  0  0  0  0
  6  9  1  0  0  0  0
 10 11  1  0  0  0  0
 10 12  1  0  0  0  0
 10 13  1  0  0  0  0
 13 14  1  0  0  0  0
 14 15  2  0  0  0  0
 14 16  1  0  0  0  0
 14 17  1  0  0  0  0
 17 18  1  0  0  0  0
 18 19  1  0  0  0  0
 18 20  2  0  0  0  0
 18 21  1  0  0  0  0
 21 22  1  0  0  0  0
 22 23  1  0  0  0  0
 22 24  1  0  0  0  0
 22 25  1  0  0  0  0
 25 26  1  0  0  0  0
 25 27  1  0  0  0  0
 25 33  1  0  0  0  0
 27 28  1  0  0  0  0
 27 29  1  0  0  0  0
 27 50  1  0  0  0  0
 29 30  1  0  0  0  0
 29 31  1  0  0  0  0
 29 48  1  0  0  0  0
 31 32  1  0  0  0  0
 31 33  1  0  0  0  0
 31 34  1  0  0  0  0
 34 35  1  0  0  0  0
 34 44  1  0  0  0  0
 35 36  1  0  0  0  0
 35 37  2  0  0  0  0
 37 38  1  0  0  0  0
 38 39  1  0  0  0  0
 38 44  2  0  0  0  0
 39 40  2  0  0  0  0
 39 45  1  0  0  0  0
 40 41  1  0  0  0  0
 41 42  1  0  0  0  0
 41 43  2  0  0  0  0
 43 44  1  0  0  0  0
 45 46  1  0  0  0  0
 45 47  1  0  0  0  0
 48 49  1  0  0  0  0
 50 51  1  0  0  0  0
 51 52  2  0  0  0  0
 51 53  1  0  0  0  0
 51 54  1  0  0  0  0
 55 56  1  0  0  0  0
 55 57  1  0  0  0  0
 55104  1  0  0  0  0
 57 58  2  0  0  0  0
 57 59  1  0  0  0  0
 59 60  1  0  0  0  0
 59 61  1  0  0  0  0
 61 62  1  0  0  0  0
 61 63  1  0  0  0  0
 61 64  1  0  0  0  0
 64 65  1  0  0  0  0
 64 66  1  0  0  0  0
 64 67  1  0  0  0  0
 67 68  2  0  0  0  0
 67 69  1  0  0  0  0
 69 70  1  0  0  0  0
 69 71  1  0  0  0  0
 71 72  1  0  0  0  0
 71 73  1  0  0  0  0
 71 74  1  0  0  0  0
 74 75  1  0  0  0  0
 74 76  1  0  0  0  0
 74 77  1  0  0  0  0
 77 78  1  0  0  0  0
 78 79  2  0  0  0  0
 78 80  1  0  0  0  0
 80 81  1  0  0  0  0
 80 82  1  0  0  0  0
 80 83  1  0  0  0  0
 83 84  2  0  0  0  0
 83 85  1  0  0  0  0
 85 86  1  0  0  0  0
 85 87  2  0  0  0  0
 87 88  1  0  0  0  0
 87 89  1  0  0  0  0
 89 90  2  0  0  0  0
 89 96  1  0  0  0  0
 90 91  1  0  0  0  0
 90 92  1  0  0  0  0
 92 93  2  0  0  0  0
 92 99  1  0  0  0  0
 93 94  1  0  0  0  0
 93 98  1  0  0  0  0
 94 95  1  0  0  0  0
 94 96  2  0  0  0  0
 96 97  1  0  0  0  0
 99100  1  0  0  0  0
100101  1  0  0  0  0
100102  1  0  0  0  0
100103  1  0  0  0  0
104105  1  0  0  0  0
M  BCL ATM C_TeTeTeTe H_S H_S H_S C_TeTeTeTe C_TeTeTeTe H_S H_S H_S C_TeTeTeTe H_S H_S O_Tr2TrTrPi2 P_TeTeTeTePi O_Tr2Tr2TrPi O_Te2Te2Te2Te O_Tr2TrTrPi2 P_TeTeTeTePi O_Te2Te2TeTe O_Tr2Tr2TrPi O_Tr2TrTrPi2 C_TeTeTeTe H_S H_S C_TeTeTeTe H_S C_TeTeTeTe H_S C_TeTeTeTe H_S C_TeTeTeTe H_S O_Te2Te2TeTe N_TrTrTrPi2 C_TrTrTrPi H_S N_Tr2TrTrPi C_TrTrTrPi C_TrTrTrPi N_Tr2TrTrPi C_TrTrTrPi H_S N_Tr2TrTrPi C_TrTrTrPi N_TrTrTrPi2 H_S H_S O_Te2Te2TeTe H_S O_Tr2TrTrPi2 P_TeTeTeTePi O_Tr2Tr2TrPi O_Te2Te2Te2Te O_Te2Te2Te2Te C_TeTeTeTe H_S C_TrTrTrPi O_Tr2Tr2TrPi N_TrTrTrPi2 H_S C_TeTeTeTe H_S H_S C_TeTeTeTe H_S H_S C_TrTrTrPi O_Tr2Tr2TrPi N_TrTrTrPi2 H_S C_TeTeTeTe H_S H_S C_TeTeTeTe H_S H_S S_Te2Te2TeTe C_TrTrTrPi O_Tr2Tr2TrPi C_TeTeTeTe H_S H_S C_TrTrTrPi O_Tr2Tr2TrPi C_TrTrTrPi H_S C_TrTrTrPi H_S C_TrTrTrPi C_TrTrTrPi H_S C_TrTrTrPi C_TrTrTrPi C_TrTrTrPi H_S C_TrTrTrPi H_S O_Te2Te2Te2Te O_Tr2TrTrPi2 C_TeTeTeTe H_S H_S H_S O_Te2Te2TeTe H_S
M  BCL BND NonConjugatedSingleBond NonConjugatedSingleBond NonConjugatedSingleBond NonConjugatedSingleBond NonConjugatedSingleBond NonConjugatedSingleBond NonConjugatedSingleBond NonConjugatedSingleBond NonConjugatedSingleBond NonConjugatedSingleBond NonConjugatedSingleBond NonConjugatedSingleBond NonConjugatedSingleBond ConjugatedSingleBond ConjugatedDoubleBond ConjugatedSingleBond ConjugatedSingleBond ConjugatedSingleBond ConjugatedSingleBond ConjugatedDoubleBond ConjugatedSingleBond NonConjugatedSingleBond NonConjugatedSingleBond NonConjugatedSingleBond NonConjugatedSingleBond NonConjugatedSingleBond NonConjugatedSingleBondInRing NonConjugatedSingleBondInRing NonConjugatedSingleBond NonConjugatedSingleBondInRing NonConjugatedSingleBond NonConjugatedSingleBond NonConjugatedSingleBondInRing NonConjugatedSingleBond NonConjugatedSingleBond NonConjugatedSingleBondInRing NonConjugatedSingleBond AromaticSingleBond AromaticSingleBond NonConjugatedSingleBond AromaticDoubleBond AromaticSingleBond AromaticSingleBond AromaticDoubleBond AromaticDoubleBond ConjugatedSingleBond AromaticSingleBond NonConjugatedSingleBond AromaticDoubleBond AromaticSingleBond NonConjugatedSingleBond NonConjugatedSingleBond NonConjugatedSingleBond ConjugatedSingleBond ConjugatedDoubleBond ConjugatedSingleBond ConjugatedSingleBond NonConjugatedSingleBond NonConjugatedSingleBond NonConjugatedSingleBond ConjugatedDoubleBond AmideSingleBond NonConjugatedSingleBond NonConjugatedSingleBond NonConjugatedSingleBond NonConjugatedSingleBond NonConjugatedSingleBond NonConjugatedSingleBond NonConjugatedSingleBond NonConjugatedSingleBond ConjugatedDoubleBond AmideSingleBond NonConjugatedSingleBond NonConjugatedSingleBond NonConjugatedSingleBond NonConjugatedSingleBond NonConjugatedSingleBond NonConjugatedSingleBond NonConjugatedSingleBond NonConjugatedSingleBond ConjugatedSingleBond ConjugatedDoubleBond NonConjugatedSingleBond NonConjugatedSingleBond NonConjugatedSingleBond NonConjugatedSingleBond ConjugatedDoubleBond ConjugatedSingleBond NonConjugatedSingleBond ConjugatedDoubleBond NonConjugatedSingleBond ConjugatedSingleBond AromaticDoubleBond AromaticSingleBond NonConjugatedSingleBond AromaticSingleBond AromaticDoubleBond ConjugatedSingleBond AromaticSingleBond ConjugatedSingleBond NonConjugatedSingleBond AromaticDoubleBond NonConjugatedSingleBond NonConjugatedSingleBond NonConjugatedSingleBond NonConjugatedSingleBond NonConjugatedSingleBond NonConjugatedSingleBond
M  BCL CHI  14   R  18   S  25   R  27   R  29   R  31   S  55   R
M  BCL DBI - - - - - - - - - - - E - - -
M  END
> <ConfClashScore>
0 

> <ConfOneFourInteractionScore>
-0.973486 

> <ConfScore>
0.0138858 

> <ConfScorePBest>
0.0144805 

> <ConfTolerance>
2.76967 

$$$$
L03.****
  PyMOL2.5          3D                             0

105108  0  0  0  0  0  0  0  0999 V2000
    4.7031  -10.6044   -1.0278 C   0  0  0  1  0  0  0  0  0  0  0  0
    4.8225  -10.6063    0.0355 H   0  0  0  1  0  0  0  0  0  0  0  0
    5.6226  -10.8969   -1.4903 H   0  0  0  1  0  0  0  0  0  0  0  0
    3.9309  -11.2929   -1.3010 H   0  0  0  1  0  0  0  0  0  0  0  0
    4.3208   -9.1956   -1.4974 C   0  0  0  1  0  0  0  0  0  0  0  0
    3.8681   -8.3471   -0.2891 C   0  0  0  1  0  0  0  0  0  0  0  0
    3.4926   -7.4063   -0.6339 H   0  0  0  1  0  0  0  0  0  0  0  0
    4.7007   -8.1814    0.3621 H   0  0  0  1  0  0  0  0  0  0  0  0
    3.0971   -8.8655    0.2417 H   0  0  0  1  0  0  0  0  0  0  0  0
    3.1729   -9.3112   -2.4456 C   0  0  0  1  0  0  0  0  0  0  0  0
    3.4419   -9.9401   -3.2684 H   0  0  0  1  0  0  0  0  0  0  0  0
    2.9024   -8.3422   -2.8101 H   0  0  0  1  0  0  0  0  0  0  0  0
    2.0628   -9.8934   -1.7227 O   0  0  0  1  0  0  0  0  0  0  0  0
    0.7585   -9.0599   -1.4398 P   0  0  0  1  0  0  0  0  0  0  0  0
    1.5692   -7.8262   -1.3345 O   0  0  0  1  0  0  0  0  0  0  0  0
    0.5477  -10.2262   -2.5442 O   0  5  0  1  0  0  0  0  0  0  0  0
   -0.5823   -8.2026   -1.1489 O   0  0  0  1  0  0  0  0  0  0  0  0
   -0.6699   -7.1616    0.0260 P   0  0  0  1  0  0  0  0  0  0  0  0
   -0.0033   -5.9201   -0.4755 O   0  0  0  0  0  0  0  0  0  0  0  0
   -0.1257   -7.7084    1.2890 O   0  0  0  1  0  0  0  0  0  0  0  0
   -2.1964   -6.8705    0.2728 O   0  0  0  1  0  0  0  0  0  0  0  0
   -3.1250   -6.5592   -0.7924 C   0  0  0  1  0  0  0  0  0  0  0  0
   -3.9133   -7.2821   -0.8235 H   0  0  0  1  0  0  0  0  0  0  0  0
   -2.6192   -6.5414   -1.7351 H   0  0  0  1  0  0  0  0  0  0  0  0
   -3.6765   -5.1924   -0.4647 C   0  0  0  1  0  0  0  0  0  0  0  0
   -4.2092   -5.2350    0.4623 H   0  0  0  1  0  0  0  0  0  0  0  0
   -4.6126   -4.7062   -1.5987 C   0  0  0  1  0  0  0  0  0  0  0  0
   -5.4596   -4.1859   -1.2027 H   0  0  0  1  0  0  0  0  0  0  0  0
   -3.7193   -3.7710   -2.3944 C   0  0  0  1  0  0  0  0  0  0  0  0
   -4.2896   -2.9925   -2.8566 H   0  0  0  1  0  0  0  0  0  0  0  0
   -2.7807   -3.2057   -1.3166 C   0  0  0  1  0  0  0  0  0  0  0  0
   -3.2215   -2.3487   -0.8517 H   0  0  0  1  0  0  0  0  0  0  0  0
   -2.6089   -4.2316   -0.3817 O   0  0  0  1  0  0  0  0  0  0  0  0
   -1.4934   -2.8337   -1.9067 N   0  0  0  1  0  0  0  0  0  0  0  0
   -0.4449   -3.6592   -2.1772 C   0  0  0  1  0  0  0  0  0  0  0  0
   -0.4666   -4.6820   -1.9899 H   0  0  0  1  0  0  0  0  0  0  0  0
    0.6011   -3.0464   -2.6980 N   0  0  0  1  0  0  0  0  0  0  0  0
    0.1755   -1.7209   -2.7891 C   0  0  0  1  0  0  0  0  0  0  0  0
    0.8111   -0.5697   -3.2855 C   0  0  0  1  0  0  0  0  0  0  0  0
    0.1237    0.5967   -3.2278 N   0  0  0  1  0  0  0  0  0  0  0  0
   -1.1168    0.5791   -2.7082 C   0  0  0  1  0  0  0  0  0  0  0  0
   -1.5995    1.5000   -2.6847 H   0  0  0  1  0  0  0  0  0  0  0  0
   -1.8200   -0.4421   -2.2189 N   0  0  0  1  0  0  0  0  0  0  0  0
   -1.0926   -1.5747   -2.3031 C   0  0  0  1  0  0  0  0  0  0  0  0
    2.0766   -0.6247   -3.8075 N   0  0  0  1  0  0  0  0  0  0  0  0
    2.5408    0.2020   -4.0553 H   0  0  0  1  0  0  0  0  0  0  0  0
    2.5176   -1.4908   -3.9331 H   0  0  0  1  0  0  0  0  0  0  0  0
   -2.9874   -4.4830   -3.3932 O   0  0  0  1  0  0  0  0  0  0  0  0
   -3.5962   -4.8345   -4.0470 H   0  0  0  1  0  0  0  0  0  0  0  0
   -5.0627   -5.8119   -2.4112 O   0  0  0  1  0  0  0  0  0  0  0  0
   -6.4930   -5.6747   -3.2019 P   0  0  0  1  0  0  0  0  0  0  0  0
   -7.6492   -5.4503   -2.3057 O   0  0  0  1  0  0  0  0  0  0  0  0
   -6.2832   -4.5476   -4.3464 O   0  5  0  1  0  0  0  0  0  0  0  0
   -6.6217   -7.1310   -3.8999 O   0  5  0  1  0  0  0  0  0  0  0  0
    5.5070   -8.5973   -2.2628 C   0  0  0  1  0  0  0  0  0  0  0  0
    5.5673   -9.0871   -3.2122 H   0  0  0  1  0  0  0  0  0  0  0  0
    5.3416   -7.1091   -2.5090 C   0  0  0  1  0  0  0  0  0  0  0  0
    6.0792   -6.2927   -1.9585 O   0  0  0  1  0  0  0  0  0  0  0  0
    4.3683   -6.7119   -3.3438 N   0  0  0  1  0  0  0  0  0  0  0  0
    3.8505   -7.3775   -3.8431 H   0  0  0  1  0  0  0  0  0  0  0  0
    4.0804   -5.2949   -3.5090 C   0  0  0  1  0  0  0  0  0  0  0  0
    5.0046   -4.8005   -3.7246 H   0  0  0  1  0  0  0  0  0  0  0  0
    3.6905   -4.9341   -2.5802 H   0  0  0  1  0  0  0  0  0  0  0  0
    3.0981   -4.9186   -4.5931 C   0  0  0  1  0  0  0  0  0  0  0  0
    2.1220   -5.1897   -4.2489 H   0  0  0  1  0  0  0  0  0  0  0  0
    3.3433   -5.4941   -5.4612 H   0  0  0  1  0  0  0  0  0  0  0  0
    3.0419   -3.4462   -5.0195 C   0  0  0  1  0  0  0  0  0  0  0  0
    3.9474   -2.6791   -4.6952 O   0  0  0  1  0  0  0  0  0  0  0  0
    2.0311   -3.0882   -5.8088 N   0  0  0  1  0  0  0  0  0  0  0  0
    1.3578   -3.7685   -6.0194 H   0  0  0  1  0  0  0  0  0  0  0  0
    1.8507   -1.7629   -6.3823 C   0  0  0  1  0  0  0  0  0  0  0  0
    2.8098   -1.2990   -6.4819 H   0  0  0  1  0  0  0  0  0  0  0  0
    1.2406   -1.1835   -5.7213 H   0  0  0  1  0  0  0  0  0  0  0  0
    1.1881   -1.8043   -7.7432 C   0  0  0  1  0  0  0  0  0  0  0  0
    0.1797   -2.1404   -7.6202 H   0  0  0  1  0  0  0  0  0  0  0  0
    1.7223   -2.4959   -8.3606 H   0  0  0  1  0  0  0  0  0  0  0  0
    1.1610   -0.1967   -8.5715 S   0  0  0  1  0  0  0  0  0  0  0  0
   -0.2644    0.5779   -7.8444 C   0  0  0  1  0  0  0  0  0  0  0  0
   -0.9682    0.0420   -7.0314 O   0  0  0  1  0  0  0  0  0  0  0  0
   -0.4837    1.9771   -8.3657 C   0  0  0  1  0  0  0  0  0  0  0  0
    0.4557    2.4860   -8.4248 H   0  0  0  1  0  0  0  0  0  0  0  0
   -1.1352    2.5060   -7.7018 H   0  0  0  1  0  0  0  0  0  0  0  0
   -1.1118    1.9149   -9.7461 C   0  0  0  1  0  0  0  0  0  0  0  0
   -0.4484    2.1831  -10.7342 O   0  0  0  1  0  0  0  0  0  0  0  0
   -2.4867    1.4394   -9.8651 C   0  0  0  1  0  0  0  0  0  0  0  0
   -3.0051    1.3107   -8.9727 H   0  0  0  1  0  0  0  0  0  0  0  0
   -3.1575    1.1504  -10.9795 C   0  0  0  1  0  0  0  0  0  0  0  0
   -2.6944    1.2584  -11.9044 H   0  0  0  1  0  0  0  0  0  0  0  0
   -4.5623    0.6750  -10.9086 C   0  0  0  1  0  0  0  0  0  0  0  0
   -5.3294    0.6069  -12.0562 C   0  0  0  1  0  0  0  0  0  0  0  0
   -4.9048    0.8280  -12.9795 H   0  0  0  1  0  0  0  0  0  0  0  0
   -6.6649    0.2441  -11.9765 C   0  0  0  1  0  0  0  0  0  0  0  0
   -7.2307   -0.0445  -10.7490 C   0  0  0  1  0  0  0  0  0  0  0  0
   -6.4612    0.0238   -9.5980 C   0  0  0  1  0  0  0  0  0  0  0  0
   -6.8858   -0.1973   -8.6747 H   0  0  0  1  0  0  0  0  0  0  0  0
   -5.1296    0.3856   -9.6773 C   0  0  0  1  0  0  0  0  0  0  0  0
   -4.5533    0.4407   -8.8134 H   0  0  0  1  0  0  0  0  0  0  0  0
   -8.5383   -0.3990  -10.6303 O   0  5  0  1  0  0  0  0  0  0  0  0
   -7.5111    0.1387  -13.0285 O   0  0  0  1  0  0  0  0  0  0  0  0
   -7.0452    0.6255  -14.2967 C   0  0  0  1  0  0  0  0  0  0  0  0
   -6.7001    1.6325  -14.1879 H   0  0  0  1  0  0  0  0  0  0  0  0
   -7.8466    0.5980  -15.0052 H   0  0  0  1  0  0  0  0  0  0  0  0
   -6.2419    0.0088  -14.6420 H   0  0  0  1  0  0  0  0  0  0  0  0
    6.6777   -8.8956   -1.5026 O   0  0  0  1  0  0  0  0  0  0  0  0
    7.4237   -9.0123   -2.0955 H   0  0  0  1  0  0  0  0  0  0  0  0
  1  2  1  0  0  0  0
  1  3  1  0  0  0  0
  1  4  1  0  0  0  0
  1  5  1  0  0  0  0
  5  6  1  0  0  0  0
  5 10  1  0  0  0  0
  5 55  1  0  0  0  0
  6  7  1  0  0  0  0
  6  8  1  0  0  0  0
  6  9  1  0  0  0  0
 10 11  1  0  0  0  0
 10 12  1  0  0  0  0
 10 13  1  0  0  0  0
 13 14  1  0  0  0  0
 14 15  2  0  0  0  0
 14 16  1  0  0  0  0
 14 17  1  0  0  0  0
 17 18  1  0  0  0  0
 18 19  1  0  0  0  0
 18 20  2  0  0  0  0
 18 21  1  0  0  0  0
 21 22  1  0  0  0  0
 22 23  1  0  0  0  0
 22 24  1  0  0  0  0
 22 25  1  0  0  0  0
 25 26  1  0  0  0  0
 25 27  1  0  0  0  0
 25 33  1  0  0  0  0
 27 28  1  0  0  0  0
 27 29  1  0  0  0  0
 27 50  1  0  0  0  0
 29 30  1  0  0  0  0
 29 31  1  0  0  0  0
 29 48  1  0  0  0  0
 31 32  1  0  0  0  0
 31 33  1  0  0  0  0
 31 34  1  0  0  0  0
 34 35  1  0  0  0  0
 34 44  1  0  0  0  0
 35 36  1  0  0  0  0
 35 37  2  0  0  0  0
 37 38  1  0  0  0  0
 38 39  1  0  0  0  0
 38 44  2  0  0  0  0
 39 40  2  0  0  0  0
 39 45  1  0  0  0  0
 40 41  1  0  0  0  0
 41 42  1  0  0  0  0
 41 43  2  0  0  0  0
 43 44  1  0  0  0  0
 45 46  1  0  0  0  0
 45 47  1  0  0  0  0
 48 49  1  0  0  0  0
 50 51  1  0  0  0  0
 51 52  2  0  0  0  0
 51 53  1  0  0  0  0
 51 54  1  0  0  0  0
 55 56  1  0  0  0  0
 55 57  1  0  0  0  0
 55104  1  0  0  0  0
 57 58  2  0  0  0  0
 57 59  1  0  0  0  0
 59 60  1  0  0  0  0
 59 61  1  0  0  0  0
 61 62  1  0  0  0  0
 61 63  1  0  0  0  0
 61 64  1  0  0  0  0
 64 65  1  0  0  0  0
 64 66  1  0  0  0  0
 64 67  1  0  0  0  0
 67 68  2  0  0  0  0
 67 69  1  0  0  0  0
 69 70  1  0  0  0  0
 69 71  1  0  0  0  0
 71 72  1  0  0  0  0
 71 73  1  0  0  0  0
 71 74  1  0  0  0  0
 74 75  1  0  0  0  0
 74 76  1  0  0  0  0
 74 77  1  0  0  0  0
 77 78  1  0  0  0  0
 78 79  2  0  0  0  0
 78 80  1  0  0  0  0
 80 81  1  0  0  0  0
 80 82  1  0  0  0  0
 80 83  1  0  0  0  0
 83 84  2  0  0  0  0
 83 85  1  0  0  0  0
 85 86  1  0  0  0  0
 85 87  2  0  0  0  0
 87 88  1  0  0  0  0
 87 89  1  0  0  0  0
 89 90  2  0  0  0  0
 89 96  1  0  0  0  0
 90 91  1  0  0  0  0
 90 92  1  0  0  0  0
 92 93  2  0  0  0  0
 92 99  1  0  0  0  0
 93 94  1  0  0  0  0
 93 98  1  0  0  0  0
 94 95  1  0  0  0  0
 94 96  2  0  0  0  0
 96 97  1  0  0  0  0
 99100  1  0  0  0  0
100101  1  0  0  0  0
100102  1  0  0  0  0
100103  1  0  0  0  0
104105  1  0  0  0  0
M  BCL ATM C_TeTeTeTe H_S H_S H_S C_TeTeTeTe C_TeTeTeTe H_S H_S H_S C_TeTeTeTe H_S H_S O_Tr2TrTrPi2 P_TeTeTeTePi O_Tr2Tr2TrPi O_Te2Te2Te2Te O_Tr2TrTrPi2 P_TeTeTeTePi O_Te2Te2TeTe O_Tr2Tr2TrPi O_Tr2TrTrPi2 C_TeTeTeTe H_S H_S C_TeTeTeTe H_S C_TeTeTeTe H_S C_TeTeTeTe H_S C_TeTeTeTe H_S O_Te2Te2TeTe N_TrTrTrPi2 C_TrTrTrPi H_S N_Tr2TrTrPi C_TrTrTrPi C_TrTrTrPi N_Tr2TrTrPi C_TrTrTrPi H_S N_Tr2TrTrPi C_TrTrTrPi N_TrTrTrPi2 H_S H_S O_Te2Te2TeTe H_S O_Tr2TrTrPi2 P_TeTeTeTePi O_Tr2Tr2TrPi O_Te2Te2Te2Te O_Te2Te2Te2Te C_TeTeTeTe H_S C_TrTrTrPi O_Tr2Tr2TrPi N_TrTrTrPi2 H_S C_TeTeTeTe H_S H_S C_TeTeTeTe H_S H_S C_TrTrTrPi O_Tr2Tr2TrPi N_TrTrTrPi2 H_S C_TeTeTeTe H_S H_S C_TeTeTeTe H_S H_S S_Te2Te2TeTe C_TrTrTrPi O_Tr2Tr2TrPi C_TeTeTeTe H_S H_S C_TrTrTrPi O_Tr2Tr2TrPi C_TrTrTrPi H_S C_TrTrTrPi H_S C_TrTrTrPi C_TrTrTrPi H_S C_TrTrTrPi C_TrTrTrPi C_TrTrTrPi H_S C_TrTrTrPi H_S O_Te2Te2Te2Te O_Tr2TrTrPi2 C_TeTeTeTe H_S H_S H_S O_Te2Te2TeTe H_S
M  BCL BND NonConjugatedSingleBond NonConjugatedSingleBond NonConjugatedSingleBond NonConjugatedSingleBond NonConjugatedSingleBond NonConjugatedSingleBond NonConjugatedSingleBond NonConjugatedSingleBond NonConjugatedSingleBond NonConjugatedSingleBond NonConjugatedSingleBond NonConjugatedSingleBond NonConjugatedSingleBond ConjugatedSingleBond ConjugatedDoubleBond ConjugatedSingleBond ConjugatedSingleBond ConjugatedSingleBond ConjugatedSingleBond ConjugatedDoubleBond ConjugatedSingleBond NonConjugatedSingleBond NonConjugatedSingleBond NonConjugatedSingleBond NonConjugatedSingleBond NonConjugatedSingleBond NonConjugatedSingleBondInRing NonConjugatedSingleBondInRing NonConjugatedSingleBond NonConjugatedSingleBondInRing NonConjugatedSingleBond NonConjugatedSingleBond NonConjugatedSingleBondInRing NonConjugatedSingleBond NonConjugatedSingleBond NonConjugatedSingleBondInRing NonConjugatedSingleBond AromaticSingleBond AromaticSingleBond NonConjugatedSingleBond AromaticDoubleBond AromaticSingleBond AromaticSingleBond AromaticDoubleBond AromaticDoubleBond ConjugatedSingleBond AromaticSingleBond NonConjugatedSingleBond AromaticDoubleBond AromaticSingleBond NonConjugatedSingleBond NonConjugatedSingleBond NonConjugatedSingleBond ConjugatedSingleBond ConjugatedDoubleBond ConjugatedSingleBond ConjugatedSingleBond NonConjugatedSingleBond NonConjugatedSingleBond NonConjugatedSingleBond ConjugatedDoubleBond AmideSingleBond NonConjugatedSingleBond NonConjugatedSingleBond NonConjugatedSingleBond NonConjugatedSingleBond NonConjugatedSingleBond NonConjugatedSingleBond NonConjugatedSingleBond NonConjugatedSingleBond ConjugatedDoubleBond AmideSingleBond NonConjugatedSingleBond NonConjugatedSingleBond NonConjugatedSingleBond NonConjugatedSingleBond NonConjugatedSingleBond NonConjugatedSingleBond NonConjugatedSingleBond NonConjugatedSingleBond ConjugatedSingleBond ConjugatedDoubleBond NonConjugatedSingleBond NonConjugatedSingleBond NonConjugatedSingleBond NonConjugatedSingleBond ConjugatedDoubleBond ConjugatedSingleBond NonConjugatedSingleBond ConjugatedDoubleBond NonConjugatedSingleBond ConjugatedSingleBond AromaticDoubleBond AromaticSingleBond NonConjugatedSingleBond AromaticSingleBond AromaticDoubleBond ConjugatedSingleBond AromaticSingleBond ConjugatedSingleBond NonConjugatedSingleBond AromaticDoubleBond NonConjugatedSingleBond NonConjugatedSingleBond NonConjugatedSingleBond NonConjugatedSingleBond NonConjugatedSingleBond NonConjugatedSingleBond
M  BCL CHI  14   R  18   S  25   R  27   R  29   R  31   S  55   R
M  BCL DBI - - - - - - - - - - - E - - -
M  END
> <ConfClashScore>
0 

> <ConfOneFourInteractionScore>
-0.969107 

> <ConfScore>
0.0205432 

> <ConfScorePBest>
0.0143775 

> <ConfTolerance>
2.84674 

$$$$
L03.****
  PyMOL2.5          3D                             0

105108  0  0  0  0  0  0  0  0999 V2000
   -4.6178  -15.4052    0.0380 C   0  0  0  1  0  0  0  0  0  0  0  0
   -3.6936  -15.3005    0.5669 H   0  0  0  1  0  0  0  0  0  0  0  0
   -4.5166  -14.9885   -0.9423 H   0  0  0  1  0  0  0  0  0  0  0  0
   -4.8689  -16.4424   -0.0389 H   0  0  0  1  0  0  0  0  0  0  0  0
   -5.7274  -14.6658    0.7952 C   0  0  0  1  0  0  0  0  0  0  0  0
   -7.0559  -14.8551    0.0533 C   0  0  0  1  0  0  0  0  0  0  0  0
   -7.6149  -15.6411    0.5166 H   0  0  0  1  0  0  0  0  0  0  0  0
   -6.8610  -15.1101   -0.9674 H   0  0  0  1  0  0  0  0  0  0  0  0
   -7.6190  -13.9461    0.0931 H   0  0  0  1  0  0  0  0  0  0  0  0
   -5.3995  -13.2013    0.8146 C   0  0  0  1  0  0  0  0  0  0  0  0
   -4.4628  -13.0258    1.3010 H   0  0  0  1  0  0  0  0  0  0  0  0
   -6.1682  -12.6441    1.3081 H   0  0  0  1  0  0  0  0  0  0  0  0
   -5.3271  -12.8516   -0.5877 O   0  0  0  1  0  0  0  0  0  0  0  0
   -4.6708  -11.4790   -0.9895 P   0  0  0  1  0  0  0  0  0  0  0  0
   -5.8316  -10.7575   -0.4216 O   0  0  0  1  0  0  0  0  0  0  0  0
   -3.5998  -12.5699   -0.4535 O   0  5  0  1  0  0  0  0  0  0  0  0
   -4.0012  -10.0774   -1.3994 O   0  0  0  1  0  0  0  0  0  0  0  0
   -2.7272   -9.2827   -0.8411 P   0  0  0  1  0  0  0  0  0  0  0  0
   -1.5362   -9.6804   -1.6307 O   0  0  0  0  0  0  0  0  0  0  0  0
   -2.6817   -9.4202    0.6151 O   0  0  0  1  0  0  0  0  0  0  0  0
   -3.1402   -7.7852   -1.1435 O   0  0  0  1  0  0  0  0  0  0  0  0
   -2.4765   -6.6842   -0.4795 C   0  0  0  1  0  0  0  0  0  0  0  0
   -1.4917   -6.5583   -0.8785 H   0  0  0  1  0  0  0  0  0  0  0  0
   -2.4142   -6.8764    0.5713 H   0  0  0  1  0  0  0  0  0  0  0  0
   -3.2978   -5.4343   -0.7279 C   0  0  0  1  0  0  0  0  0  0  0  0
   -4.2191   -5.4992   -0.1877 H   0  0  0  1  0  0  0  0  0  0  0  0
   -3.5595   -5.2449   -2.2290 C   0  0  0  1  0  0  0  0  0  0  0  0
   -4.4451   -5.7620   -2.5345 H   0  0  0  1  0  0  0  0  0  0  0  0
   -3.7329   -3.7535   -2.3490 C   0  0  0  1  0  0  0  0  0  0  0  0
   -4.7410   -3.4659   -2.1351 H   0  0  0  1  0  0  0  0  0  0  0  0
   -2.7691   -3.2045   -1.2928 C   0  0  0  1  0  0  0  0  0  0  0  0
   -3.1935   -2.3527   -0.8037 H   0  0  0  1  0  0  0  0  0  0  0  0
   -2.5828   -4.2879   -0.3543 O   0  0  0  1  0  0  0  0  0  0  0  0
   -1.4951   -2.8312   -1.9052 N   0  0  0  1  0  0  0  0  0  0  0  0
   -0.4492   -3.6536   -2.1927 C   0  0  0  1  0  0  0  0  0  0  0  0
   -0.4706   -4.6748   -1.9970 H   0  0  0  1  0  0  0  0  0  0  0  0
    0.5827   -3.0640   -2.7326 N   0  0  0  1  0  0  0  0  0  0  0  0
    0.1892   -1.7377   -2.8209 C   0  0  0  1  0  0  0  0  0  0  0  0
    0.7971   -0.5739   -3.2825 C   0  0  0  1  0  0  0  0  0  0  0  0
    0.1350    0.5868   -3.2269 N   0  0  0  1  0  0  0  0  0  0  0  0
   -1.1024    0.5813   -2.7066 C   0  0  0  1  0  0  0  0  0  0  0  0
   -1.5821    1.5036   -2.6771 H   0  0  0  1  0  0  0  0  0  0  0  0
   -1.7965   -0.4424   -2.2246 N   0  0  0  1  0  0  0  0  0  0  0  0
   -1.1058   -1.5802   -2.3091 C   0  0  0  1  0  0  0  0  0  0  0  0
    2.0630   -0.6169   -3.7897 N   0  0  0  1  0  0  0  0  0  0  0  0
    2.4790    0.1988   -4.1388 H   0  0  0  1  0  0  0  0  0  0  0  0
    2.5563   -1.4636   -3.8049 H   0  0  0  1  0  0  0  0  0  0  0  0
   -3.3744   -3.2995   -3.6550 O   0  0  0  1  0  0  0  0  0  0  0  0
   -4.1659   -3.2052   -4.1900 H   0  0  0  1  0  0  0  0  0  0  0  0
   -2.4441   -5.7012   -3.0109 O   0  0  0  1  0  0  0  0  0  0  0  0
   -2.5662   -6.1102   -4.5943 P   0  0  0  1  0  0  0  0  0  0  0  0
   -3.8843   -6.6688   -4.9698 O   0  0  0  1  0  0  0  0  0  0  0  0
   -2.2096   -4.8126   -5.4962 O   0  5  0  1  0  0  0  0  0  0  0  0
   -1.3857   -7.1468   -4.9899 O   0  5  0  1  0  0  0  0  0  0  0  0
   -5.8273  -15.1704    2.1911 C   0  0  0  1  0  0  0  0  0  0  0  0
   -5.6836  -14.1796    2.5689 H   0  0  0  1  0  0  0  0  0  0  0  0
   -7.1433  -15.2846    2.9541 C   0  0  0  1  0  0  0  0  0  0  0  0
   -8.2238  -15.1882    2.3743 O   0  0  0  1  0  0  0  0  0  0  0  0
   -7.0507  -15.5816    4.2593 N   0  0  0  1  0  0  0  0  0  0  0  0
   -6.1704  -15.6428    4.6856 H   0  0  0  1  0  0  0  0  0  0  0  0
   -8.2548  -15.8131    5.0432 C   0  0  0  1  0  0  0  0  0  0  0  0
   -8.4902  -16.8563    5.0101 H   0  0  0  1  0  0  0  0  0  0  0  0
   -9.0576  -15.2520    4.6123 H   0  0  0  1  0  0  0  0  0  0  0  0
   -8.0938  -15.3960    6.4959 C   0  0  0  1  0  0  0  0  0  0  0  0
   -7.2131  -15.8528    6.8965 H   0  0  0  1  0  0  0  0  0  0  0  0
   -8.9488  -15.7210    7.0510 H   0  0  0  1  0  0  0  0  0  0  0  0
   -7.9690  -13.8893    6.6120 C   0  0  0  1  0  0  0  0  0  0  0  0
   -8.5281  -13.1389    5.8132 O   0  0  0  1  0  0  0  0  0  0  0  0
   -7.2182  -13.4433    7.6306 N   0  0  0  1  0  0  0  0  0  0  0  0
   -6.8013  -14.0813    8.2467 H   0  0  0  1  0  0  0  0  0  0  0  0
   -7.0217  -12.0142    7.8226 C   0  0  0  1  0  0  0  0  0  0  0  0
   -6.6990  -11.8446    8.8286 H   0  0  0  1  0  0  0  0  0  0  0  0
   -7.9535  -11.5147    7.6574 H   0  0  0  1  0  0  0  0  0  0  0  0
   -5.9919  -11.4401    6.8813 C   0  0  0  1  0  0  0  0  0  0  0  0
   -6.3070  -11.6293    5.8764 H   0  0  0  1  0  0  0  0  0  0  0  0
   -5.0573  -11.9292    7.0607 H   0  0  0  1  0  0  0  0  0  0  0  0
   -5.7563   -9.6584    7.0839 S   0  0  0  1  0  0  0  0  0  0  0  0
   -6.9702   -9.0419    5.8749 C   0  0  0  1  0  0  0  0  0  0  0  0
   -7.6772   -9.7558    5.2161 O   0  0  0  1  0  0  0  0  0  0  0  0
   -6.8551   -7.5479    5.6952 C   0  0  0  1  0  0  0  0  0  0  0  0
   -6.4185   -7.1378    6.5819 H   0  0  0  1  0  0  0  0  0  0  0  0
   -7.8400   -7.1505    5.5653 H   0  0  0  1  0  0  0  0  0  0  0  0
   -6.0165   -7.1207    4.5173 C   0  0  0  1  0  0  0  0  0  0  0  0
   -4.9610   -6.5344    4.6918 O   0  0  0  1  0  0  0  0  0  0  0  0
   -6.4879   -7.4198    3.1699 C   0  0  0  1  0  0  0  0  0  0  0  0
   -5.8802   -7.1728    2.3629 H   0  0  0  1  0  0  0  0  0  0  0  0
   -7.6649   -7.9964    2.9303 C   0  0  0  1  0  0  0  0  0  0  0  0
   -8.2402   -8.2262    3.7656 H   0  0  0  1  0  0  0  0  0  0  0  0
   -8.2528   -8.3494    1.6167 C   0  0  0  1  0  0  0  0  0  0  0  0
   -9.4621   -9.0186    1.6276 C   0  0  0  1  0  0  0  0  0  0  0  0
   -9.9170   -9.2560    2.5322 H   0  0  0  1  0  0  0  0  0  0  0  0
  -10.0685   -9.3732    0.4327 C   0  0  0  1  0  0  0  0  0  0  0  0
   -9.4615   -9.0625   -0.7695 C   0  0  0  1  0  0  0  0  0  0  0  0
   -8.2486   -8.3913   -0.7802 C   0  0  0  1  0  0  0  0  0  0  0  0
   -7.7937   -8.1539   -1.6848 H   0  0  0  1  0  0  0  0  0  0  0  0
   -7.6438   -8.0377    0.4112 C   0  0  0  1  0  0  0  0  0  0  0  0
   -6.7319   -7.5377    0.4031 H   0  0  0  1  0  0  0  0  0  0  0  0
   -9.9582   -9.3633   -1.9993 O   0  5  0  1  0  0  0  0  0  0  0  0
  -11.2507  -10.0237    0.3182 O   0  0  0  1  0  0  0  0  0  0  0  0
  -11.9858  -10.2668    1.5277 C   0  0  0  1  0  0  0  0  0  0  0  0
  -12.2711   -9.3333    1.9660 H   0  0  0  1  0  0  0  0  0  0  0  0
  -11.3716  -10.8103    2.2150 H   0  0  0  1  0  0  0  0  0  0  0  0
  -12.8624  -10.8379    1.3034 H   0  0  0  1  0  0  0  0  0  0  0  0
   -4.7177  -15.5490    2.7272 O   0  0  0  1  0  0  0  0  0  0  0  0
   -3.9957  -15.0238    2.3744 H   0  0  0  1  0  0  0  0  0  0  0  0
  1  2  1  0  0  0  0
  1  3  1  0  0  0  0
  1  4  1  0  0  0  0
  1  5  1  0  0  0  0
  5  6  1  0  0  0  0
  5 10  1  0  0  0  0
  5 55  1  0  0  0  0
  6  7  1  0  0  0  0
  6  8  1  0  0  0  0
  6  9  1  0  0  0  0
 10 11  1  0  0  0  0
 10 12  1  0  0  0  0
 10 13  1  0  0  0  0
 13 14  1  0  0  0  0
 14 15  2  0  0  0  0
 14 16  1  0  0  0  0
 14 17  1  0  0  0  0
 17 18  1  0  0  0  0
 18 19  1  0  0  0  0
 18 20  2  0  0  0  0
 18 21  1  0  0  0  0
 21 22  1  0  0  0  0
 22 23  1  0  0  0  0
 22 24  1  0  0  0  0
 22 25  1  0  0  0  0
 25 26  1  0  0  0  0
 25 27  1  0  0  0  0
 25 33  1  0  0  0  0
 27 28  1  0  0  0  0
 27 29  1  0  0  0  0
 27 50  1  0  0  0  0
 29 30  1  0  0  0  0
 29 31  1  0  0  0  0
 29 48  1  0  0  0  0
 31 32  1  0  0  0  0
 31 33  1  0  0  0  0
 31 34  1  0  0  0  0
 34 35  1  0  0  0  0
 34 44  1  0  0  0  0
 35 36  1  0  0  0  0
 35 37  2  0  0  0  0
 37 38  1  0  0  0  0
 38 39  1  0  0  0  0
 38 44  2  0  0  0  0
 39 40  2  0  0  0  0
 39 45  1  0  0  0  0
 40 41  1  0  0  0  0
 41 42  1  0  0  0  0
 41 43  2  0  0  0  0
 43 44  1  0  0  0  0
 45 46  1  0  0  0  0
 45 47  1  0  0  0  0
 48 49  1  0  0  0  0
 50 51  1  0  0  0  0
 51 52  2  0  0  0  0
 51 53  1  0  0  0  0
 51 54  1  0  0  0  0
 55 56  1  0  0  0  0
 55 57  1  0  0  0  0
 55104  1  0  0  0  0
 57 58  2  0  0  0  0
 57 59  1  0  0  0  0
 59 60  1  0  0  0  0
 59 61  1  0  0  0  0
 61 62  1  0  0  0  0
 61 63  1  0  0  0  0
 61 64  1  0  0  0  0
 64 65  1  0  0  0  0
 64 66  1  0  0  0  0
 64 67  1  0  0  0  0
 67 68  2  0  0  0  0
 67 69  1  0  0  0  0
 69 70  1  0  0  0  0
 69 71  1  0  0  0  0
 71 72  1  0  0  0  0
 71 73  1  0  0  0  0
 71 74  1  0  0  0  0
 74 75  1  0  0  0  0
 74 76  1  0  0  0  0
 74 77  1  0  0  0  0
 77 78  1  0  0  0  0
 78 79  2  0  0  0  0
 78 80  1  0  0  0  0
 80 81  1  0  0  0  0
 80 82  1  0  0  0  0
 80 83  1  0  0  0  0
 83 84  2  0  0  0  0
 83 85  1  0  0  0  0
 85 86  1  0  0  0  0
 85 87  2  0  0  0  0
 87 88  1  0  0  0  0
 87 89  1  0  0  0  0
 89 90  2  0  0  0  0
 89 96  1  0  0  0  0
 90 91  1  0  0  0  0
 90 92  1  0  0  0  0
 92 93  2  0  0  0  0
 92 99  1  0  0  0  0
 93 94  1  0  0  0  0
 93 98  1  0  0  0  0
 94 95  1  0  0  0  0
 94 96  2  0  0  0  0
 96 97  1  0  0  0  0
 99100  1  0  0  0  0
100101  1  0  0  0  0
100102  1  0  0  0  0
100103  1  0  0  0  0
104105  1  0  0  0  0
M  BCL ATM C_TeTeTeTe H_S H_S H_S C_TeTeTeTe C_TeTeTeTe H_S H_S H_S C_TeTeTeTe H_S H_S O_Tr2TrTrPi2 P_TeTeTeTePi O_Tr2Tr2TrPi O_Te2Te2Te2Te O_Tr2TrTrPi2 P_TeTeTeTePi O_Te2Te2TeTe O_Tr2Tr2TrPi O_Tr2TrTrPi2 C_TeTeTeTe H_S H_S C_TeTeTeTe H_S C_TeTeTeTe H_S C_TeTeTeTe H_S C_TeTeTeTe H_S O_Te2Te2TeTe N_TrTrTrPi2 C_TrTrTrPi H_S N_Tr2TrTrPi C_TrTrTrPi C_TrTrTrPi N_Tr2TrTrPi C_TrTrTrPi H_S N_Tr2TrTrPi C_TrTrTrPi N_TrTrTrPi2 H_S H_S O_Te2Te2TeTe H_S O_Tr2TrTrPi2 P_TeTeTeTePi O_Tr2Tr2TrPi O_Te2Te2Te2Te O_Te2Te2Te2Te C_TeTeTeTe H_S C_TrTrTrPi O_Tr2Tr2TrPi N_TrTrTrPi2 H_S C_TeTeTeTe H_S H_S C_TeTeTeTe H_S H_S C_TrTrTrPi O_Tr2Tr2TrPi N_TrTrTrPi2 H_S C_TeTeTeTe H_S H_S C_TeTeTeTe H_S H_S S_Te2Te2TeTe C_TrTrTrPi O_Tr2Tr2TrPi C_TeTeTeTe H_S H_S C_TrTrTrPi O_Tr2Tr2TrPi C_TrTrTrPi H_S C_TrTrTrPi H_S C_TrTrTrPi C_TrTrTrPi H_S C_TrTrTrPi C_TrTrTrPi C_TrTrTrPi H_S C_TrTrTrPi H_S O_Te2Te2Te2Te O_Tr2TrTrPi2 C_TeTeTeTe H_S H_S H_S O_Te2Te2TeTe H_S
M  BCL BND NonConjugatedSingleBond NonConjugatedSingleBond NonConjugatedSingleBond NonConjugatedSingleBond NonConjugatedSingleBond NonConjugatedSingleBond NonConjugatedSingleBond NonConjugatedSingleBond NonConjugatedSingleBond NonConjugatedSingleBond NonConjugatedSingleBond NonConjugatedSingleBond NonConjugatedSingleBond ConjugatedSingleBond ConjugatedDoubleBond ConjugatedSingleBond ConjugatedSingleBond ConjugatedSingleBond ConjugatedSingleBond ConjugatedDoubleBond ConjugatedSingleBond NonConjugatedSingleBond NonConjugatedSingleBond NonConjugatedSingleBond NonConjugatedSingleBond NonConjugatedSingleBond NonConjugatedSingleBondInRing NonConjugatedSingleBondInRing NonConjugatedSingleBond NonConjugatedSingleBondInRing NonConjugatedSingleBond NonConjugatedSingleBond NonConjugatedSingleBondInRing NonConjugatedSingleBond NonConjugatedSingleBond NonConjugatedSingleBondInRing NonConjugatedSingleBond AromaticSingleBond AromaticSingleBond NonConjugatedSingleBond AromaticDoubleBond AromaticSingleBond AromaticSingleBond AromaticDoubleBond AromaticDoubleBond ConjugatedSingleBond AromaticSingleBond NonConjugatedSingleBond AromaticDoubleBond AromaticSingleBond NonConjugatedSingleBond NonConjugatedSingleBond NonConjugatedSingleBond ConjugatedSingleBond ConjugatedDoubleBond ConjugatedSingleBond ConjugatedSingleBond NonConjugatedSingleBond NonConjugatedSingleBond NonConjugatedSingleBond ConjugatedDoubleBond AmideSingleBond NonConjugatedSingleBond NonConjugatedSingleBond NonConjugatedSingleBond NonConjugatedSingleBond NonConjugatedSingleBond NonConjugatedSingleBond NonConjugatedSingleBond NonConjugatedSingleBond ConjugatedDoubleBond AmideSingleBond NonConjugatedSingleBond NonConjugatedSingleBond NonConjugatedSingleBond NonConjugatedSingleBond NonConjugatedSingleBond NonConjugatedSingleBond NonConjugatedSingleBond NonConjugatedSingleBond ConjugatedSingleBond ConjugatedDoubleBond NonConjugatedSingleBond NonConjugatedSingleBond NonConjugatedSingleBond NonConjugatedSingleBond ConjugatedDoubleBond ConjugatedSingleBond NonConjugatedSingleBond ConjugatedDoubleBond NonConjugatedSingleBond ConjugatedSingleBond AromaticDoubleBond AromaticSingleBond NonConjugatedSingleBond AromaticSingleBond AromaticDoubleBond ConjugatedSingleBond AromaticSingleBond ConjugatedSingleBond NonConjugatedSingleBond AromaticDoubleBond NonConjugatedSingleBond NonConjugatedSingleBond NonConjugatedSingleBond NonConjugatedSingleBond NonConjugatedSingleBond NonConjugatedSingleBond
M  BCL CHI  14   R  18   S  25   R  27   R  29   R  31   S  55   R
M  BCL DBI - - - - - - - - - - - E - - -
M  END
> <ConfClashScore>
0 

> <ConfOneFourInteractionScore>
-0.974681 

> <ConfScore>
0.0244667 

> <ConfScorePBest>
0.0142745 

> <ConfTolerance>
3.00967 

$$$$
L03.****
  PyMOL2.5          3D                             0

105108  0  0  0  0  0  0  0  0999 V2000
   -1.3411    5.3442    4.6758 C   0  0  0  1  0  0  0  0  0  0  0  0
   -2.2685    5.0559    5.1250 H   0  0  0  1  0  0  0  0  0  0  0  0
   -0.8399    6.0444    5.3110 H   0  0  0  1  0  0  0  0  0  0  0  0
   -0.7257    4.4791    4.5421 H   0  0  0  1  0  0  0  0  0  0  0  0
   -1.6123    5.9936    3.3135 C   0  0  0  1  0  0  0  0  0  0  0  0
   -2.3278    7.3345    3.5167 C   0  0  0  1  0  0  0  0  0  0  0  0
   -1.7225    7.9738    4.1247 H   0  0  0  1  0  0  0  0  0  0  0  0
   -3.2674    7.1673    4.0006 H   0  0  0  1  0  0  0  0  0  0  0  0
   -2.4929    7.7979    2.5665 H   0  0  0  1  0  0  0  0  0  0  0  0
   -2.4180    5.0573    2.4743 C   0  0  0  1  0  0  0  0  0  0  0  0
   -2.4981    5.4383    1.4777 H   0  0  0  1  0  0  0  0  0  0  0  0
   -3.3962    4.9430    2.8927 H   0  0  0  1  0  0  0  0  0  0  0  0
   -1.7357    3.7814    2.4608 O   0  0  0  1  0  0  0  0  0  0  0  0
   -2.5430    2.4360    2.3411 P   0  0  0  1  0  0  0  0  0  0  0  0
   -3.5858    2.9816    3.2385 O   0  0  0  1  0  0  0  0  0  0  0  0
   -1.8451    2.8914    0.9518 O   0  5  0  1  0  0  0  0  0  0  0  0
   -3.3661    1.0653    2.2193 O   0  0  0  1  0  0  0  0  0  0  0  0
   -4.9227    0.6692    2.2065 P   0  0  0  1  0  0  0  0  0  0  0  0
   -5.7404    1.7963    1.6515 O   0  0  0  0  0  0  0  0  0  0  0  0
   -5.3329    0.1673    3.5567 O   0  0  0  1  0  0  0  0  0  0  0  0
   -4.8944   -0.5698    1.2424 O   0  0  0  1  0  0  0  0  0  0  0  0
   -4.3554   -1.8615    1.6256 C   0  0  0  1  0  0  0  0  0  0  0  0
   -5.0253   -2.3325    2.3143 H   0  0  0  1  0  0  0  0  0  0  0  0
   -3.4032   -1.7213    2.0929 H   0  0  0  1  0  0  0  0  0  0  0  0
   -4.1883   -2.7452    0.4103 C   0  0  0  1  0  0  0  0  0  0  0  0
   -5.1437   -2.9190   -0.0391 H   0  0  0  1  0  0  0  0  0  0  0  0
   -3.5555   -4.0459    0.7997 C   0  0  0  1  0  0  0  0  0  0  0  0
   -4.2952   -4.8132    0.8942 H   0  0  0  1  0  0  0  0  0  0  0  0
   -2.6006   -4.3579   -0.3390 C   0  0  0  1  0  0  0  0  0  0  0  0
   -2.8552   -5.2882   -0.8023 H   0  0  0  1  0  0  0  0  0  0  0  0
   -2.7828   -3.2059   -1.3117 C   0  0  0  1  0  0  0  0  0  0  0  0
   -3.4700   -3.4748   -2.0865 H   0  0  0  1  0  0  0  0  0  0  0  0
   -3.3070   -2.1305   -0.5283 O   0  0  0  1  0  0  0  0  0  0  0  0
   -1.4998   -2.8292   -1.9059 N   0  0  0  1  0  0  0  0  0  0  0  0
   -0.4426   -3.6522   -2.1880 C   0  0  0  1  0  0  0  0  0  0  0  0
   -0.4574   -4.6736   -1.9930 H   0  0  0  1  0  0  0  0  0  0  0  0
    0.5852   -3.0503   -2.7216 N   0  0  0  1  0  0  0  0  0  0  0  0
    0.1805   -1.7324   -2.7960 C   0  0  0  1  0  0  0  0  0  0  0  0
    0.7925   -0.5701   -3.2720 C   0  0  0  1  0  0  0  0  0  0  0  0
    0.1339    0.5923   -3.2117 N   0  0  0  1  0  0  0  0  0  0  0  0
   -1.1164    0.5800   -2.7025 C   0  0  0  1  0  0  0  0  0  0  0  0
   -1.6026    1.4991   -2.6807 H   0  0  0  1  0  0  0  0  0  0  0  0
   -1.8101   -0.4498   -2.2248 N   0  0  0  1  0  0  0  0  0  0  0  0
   -1.1021   -1.5785   -2.2976 C   0  0  0  1  0  0  0  0  0  0  0  0
    2.0829   -0.6218   -3.8070 N   0  0  0  1  0  0  0  0  0  0  0  0
    2.5692   -1.4722   -3.8322 H   0  0  0  1  0  0  0  0  0  0  0  0
    2.5013    0.1925   -4.1568 H   0  0  0  1  0  0  0  0  0  0  0  0
   -1.2533   -4.4129    0.1322 O   0  0  0  1  0  0  0  0  0  0  0  0
   -1.2294   -4.8562    0.9834 H   0  0  0  1  0  0  0  0  0  0  0  0
   -2.8463   -3.9135    2.0313 O   0  0  0  1  0  0  0  0  0  0  0  0
   -3.4419   -3.9233    3.5593 P   0  0  0  1  0  0  0  0  0  0  0  0
   -4.9200   -3.8849    3.6235 O   0  0  0  1  0  0  0  0  0  0  0  0
   -2.7723   -5.0745    4.4816 O   0  5  0  1  0  0  0  0  0  0  0  0
   -2.9529   -2.4740    4.0927 O   0  5  0  1  0  0  0  0  0  0  0  0
   -0.2607    6.2363    2.6314 C   0  0  0  1  0  0  0  0  0  0  0  0
    0.2677    6.9694    3.2043 H   0  0  0  1  0  0  0  0  0  0  0  0
    0.5990    4.9894    2.5591 C   0  0  0  1  0  0  0  0  0  0  0  0
    0.6298    4.2943    1.5470 O   0  0  0  1  0  0  0  0  0  0  0  0
    1.3070    4.7080    3.6566 N   0  0  0  1  0  0  0  0  0  0  0  0
    1.2271    5.3212    4.4169 H   0  0  0  1  0  0  0  0  0  0  0  0
    2.1880    3.5596    3.8082 C   0  0  0  1  0  0  0  0  0  0  0  0
    3.1963    3.8939    3.6797 H   0  0  0  1  0  0  0  0  0  0  0  0
    1.9464    2.8511    3.0437 H   0  0  0  1  0  0  0  0  0  0  0  0
    2.0896    2.8559    5.1553 C   0  0  0  1  0  0  0  0  0  0  0  0
    2.6461    1.9434    5.1043 H   0  0  0  1  0  0  0  0  0  0  0  0
    1.0608    2.6363    5.3506 H   0  0  0  1  0  0  0  0  0  0  0  0
    2.6367    3.6962    6.3124 C   0  0  0  1  0  0  0  0  0  0  0  0
    3.6999    4.2900    6.1372 O   0  0  0  1  0  0  0  0  0  0  0  0
    1.9065    3.7143    7.4257 N   0  0  0  1  0  0  0  0  0  0  0  0
    1.0296    3.2796    7.3770 H   0  0  0  1  0  0  0  0  0  0  0  0
    2.2628    4.3063    8.7065 C   0  0  0  1  0  0  0  0  0  0  0  0
    2.0471    5.3538    8.6718 H   0  0  0  1  0  0  0  0  0  0  0  0
    3.3102    4.1626    8.8711 H   0  0  0  1  0  0  0  0  0  0  0  0
    1.5040    3.6943    9.8578 C   0  0  0  1  0  0  0  0  0  0  0  0
    0.4610    3.8744    9.7004 H   0  0  0  1  0  0  0  0  0  0  0  0
    1.8185    4.1804   10.7577 H   0  0  0  1  0  0  0  0  0  0  0  0
    1.7388    1.9138   10.0717 S   0  0  0  1  0  0  0  0  0  0  0  0
    3.4025    1.8249   10.6918 C   0  0  0  1  0  0  0  0  0  0  0  0
    4.0772    2.7921   10.9217 O   0  0  0  1  0  0  0  0  0  0  0  0
    3.8628    0.4022   10.8932 C   0  0  0  1  0  0  0  0  0  0  0  0
    4.6426    0.2008   10.1887 H   0  0  0  1  0  0  0  0  0  0  0  0
    3.0336   -0.2469   10.7035 H   0  0  0  1  0  0  0  0  0  0  0  0
    4.3886    0.1023   12.2758 C   0  0  0  1  0  0  0  0  0  0  0  0
    5.5892    0.1017   12.4925 O   0  0  0  1  0  0  0  0  0  0  0  0
    3.4384   -0.1860   13.3457 C   0  0  0  1  0  0  0  0  0  0  0  0
    2.4328   -0.0669   13.1088 H   0  0  0  1  0  0  0  0  0  0  0  0
    3.7045   -0.5834   14.5893 C   0  0  0  1  0  0  0  0  0  0  0  0
    4.7165   -0.6950   14.8014 H   0  0  0  1  0  0  0  0  0  0  0  0
    2.7989   -0.8926   15.7201 C   0  0  0  1  0  0  0  0  0  0  0  0
    1.4402   -0.6803   15.5828 C   0  0  0  1  0  0  0  0  0  0  0  0
    1.0603   -0.3021   14.6915 H   0  0  0  1  0  0  0  0  0  0  0  0
    0.5837   -0.9715   16.6331 C   0  0  0  1  0  0  0  0  0  0  0  0
    1.0890   -1.4691   17.8194 C   0  0  0  1  0  0  0  0  0  0  0  0
    2.4518   -1.6820   17.9570 C   0  0  0  1  0  0  0  0  0  0  0  0
    2.8317   -2.0602   18.8482 H   0  0  0  1  0  0  0  0  0  0  0  0
    3.3059   -1.3917   16.9098 C   0  0  0  1  0  0  0  0  0  0  0  0
    4.3288   -1.5476   17.0144 H   0  0  0  1  0  0  0  0  0  0  0  0
    0.2810   -1.7617   18.8736 O   0  5  0  1  0  0  0  0  0  0  0  0
   -0.7447   -0.8124   16.6142 O   0  0  0  1  0  0  0  0  0  0  0  0
   -1.4513   -0.3723   15.4059 C   0  0  0  1  0  0  0  0  0  0  0  0
   -0.9259   -0.7163   14.5396 H   0  0  0  1  0  0  0  0  0  0  0  0
   -1.5013    0.6964   15.3916 H   0  0  0  1  0  0  0  0  0  0  0  0
   -2.4422   -0.7763   15.4055 H   0  0  0  1  0  0  0  0  0  0  0  0
   -0.4792    6.7345    1.3205 O   0  0  0  1  0  0  0  0  0  0  0  0
    0.2914    7.2297    1.0333 H   0  0  0  1  0  0  0  0  0  0  0  0
  1  2  1  0  0  0  0
  1  3  1  0  0  0  0
  1  4  1  0  0  0  0
  1  5  1  0  0  0  0
  5  6  1  0  0  0  0
  5 10  1  0  0  0  0
  5 55  1  0  0  0  0
  6  7  1  0  0  0  0
  6  8  1  0  0  0  0
  6  9  1  0  0  0  0
 10 11  1  0  0  0  0
 10 12  1  0  0  0  0
 10 13  1  0  0  0  0
 13 14  1  0  0  0  0
 14 15  2  0  0  0  0
 14 16  1  0  0  0  0
 14 17  1  0  0  0  0
 17 18  1  0  0  0  0
 18 19  1  0  0  0  0
 18 20  2  0  0  0  0
 18 21  1  0  0  0  0
 21 22  1  0  0  0  0
 22 23  1  0  0  0  0
 22 24  1  0  0  0  0
 22 25  1  0  0  0  0
 25 26  1  0  0  0  0
 25 27  1  0  0  0  0
 25 33  1  0  0  0  0
 27 28  1  0  0  0  0
 27 29  1  0  0  0  0
 27 50  1  0  0  0  0
 29 30  1  0  0  0  0
 29 31  1  0  0  0  0
 29 48  1  0  0  0  0
 31 32  1  0  0  0  0
 31 33  1  0  0  0  0
 31 34  1  0  0  0  0
 34 35  1  0  0  0  0
 34 44  1  0  0  0  0
 35 36  1  0  0  0  0
 35 37  2  0  0  0  0
 37 38  1  0  0  0  0
 38 39  1  0  0  0  0
 38 44  2  0  0  0  0
 39 40  2  0  0  0  0
 39 45  1  0  0  0  0
 40 41  1  0  0  0  0
 41 42  1  0  0  0  0
 41 43  2  0  0  0  0
 43 44  1  0  0  0  0
 45 46  1  0  0  0  0
 45 47  1  0  0  0  0
 48 49  1  0  0  0  0
 50 51  1  0  0  0  0
 51 52  2  0  0  0  0
 51 53  1  0  0  0  0
 51 54  1  0  0  0  0
 55 56  1  0  0  0  0
 55 57  1  0  0  0  0
 55104  1  0  0  0  0
 57 58  2  0  0  0  0
 57 59  1  0  0  0  0
 59 60  1  0  0  0  0
 59 61  1  0  0  0  0
 61 62  1  0  0  0  0
 61 63  1  0  0  0  0
 61 64  1  0  0  0  0
 64 65  1  0  0  0  0
 64 66  1  0  0  0  0
 64 67  1  0  0  0  0
 67 68  2  0  0  0  0
 67 69  1  0  0  0  0
 69 70  1  0  0  0  0
 69 71  1  0  0  0  0
 71 72  1  0  0  0  0
 71 73  1  0  0  0  0
 71 74  1  0  0  0  0
 74 75  1  0  0  0  0
 74 76  1  0  0  0  0
 74 77  1  0  0  0  0
 77 78  1  0  0  0  0
 78 79  2  0  0  0  0
 78 80  1  0  0  0  0
 80 81  1  0  0  0  0
 80 82  1  0  0  0  0
 80 83  1  0  0  0  0
 83 84  2  0  0  0  0
 83 85  1  0  0  0  0
 85 86  1  0  0  0  0
 85 87  2  0  0  0  0
 87 88  1  0  0  0  0
 87 89  1  0  0  0  0
 89 90  2  0  0  0  0
 89 96  1  0  0  0  0
 90 91  1  0  0  0  0
 90 92  1  0  0  0  0
 92 93  2  0  0  0  0
 92 99  1  0  0  0  0
 93 94  1  0  0  0  0
 93 98  1  0  0  0  0
 94 95  1  0  0  0  0
 94 96  2  0  0  0  0
 96 97  1  0  0  0  0
 99100  1  0  0  0  0
100101  1  0  0  0  0
100102  1  0  0  0  0
100103  1  0  0  0  0
104105  1  0  0  0  0
M  BCL ATM C_TeTeTeTe H_S H_S H_S C_TeTeTeTe C_TeTeTeTe H_S H_S H_S C_TeTeTeTe H_S H_S O_Tr2TrTrPi2 P_TeTeTeTePi O_Tr2Tr2TrPi O_Te2Te2Te2Te O_Tr2TrTrPi2 P_TeTeTeTePi O_Te2Te2TeTe O_Tr2Tr2TrPi O_Tr2TrTrPi2 C_TeTeTeTe H_S H_S C_TeTeTeTe H_S C_TeTeTeTe H_S C_TeTeTeTe H_S C_TeTeTeTe H_S O_Te2Te2TeTe N_TrTrTrPi2 C_TrTrTrPi H_S N_Tr2TrTrPi C_TrTrTrPi C_TrTrTrPi N_Tr2TrTrPi C_TrTrTrPi H_S N_Tr2TrTrPi C_TrTrTrPi N_TrTrTrPi2 H_S H_S O_Te2Te2TeTe H_S O_Tr2TrTrPi2 P_TeTeTeTePi O_Tr2Tr2TrPi O_Te2Te2Te2Te O_Te2Te2Te2Te C_TeTeTeTe H_S C_TrTrTrPi O_Tr2Tr2TrPi N_TrTrTrPi2 H_S C_TeTeTeTe H_S H_S C_TeTeTeTe H_S H_S C_TrTrTrPi O_Tr2Tr2TrPi N_TrTrTrPi2 H_S C_TeTeTeTe H_S H_S C_TeTeTeTe H_S H_S S_Te2Te2TeTe C_TrTrTrPi O_Tr2Tr2TrPi C_TeTeTeTe H_S H_S C_TrTrTrPi O_Tr2Tr2TrPi C_TrTrTrPi H_S C_TrTrTrPi H_S C_TrTrTrPi C_TrTrTrPi H_S C_TrTrTrPi C_TrTrTrPi C_TrTrTrPi H_S C_TrTrTrPi H_S O_Te2Te2Te2Te O_Tr2TrTrPi2 C_TeTeTeTe H_S H_S H_S O_Te2Te2TeTe H_S
M  BCL BND NonConjugatedSingleBond NonConjugatedSingleBond NonConjugatedSingleBond NonConjugatedSingleBond NonConjugatedSingleBond NonConjugatedSingleBond NonConjugatedSingleBond NonConjugatedSingleBond NonConjugatedSingleBond NonConjugatedSingleBond NonConjugatedSingleBond NonConjugatedSingleBond NonConjugatedSingleBond ConjugatedSingleBond ConjugatedDoubleBond ConjugatedSingleBond ConjugatedSingleBond ConjugatedSingleBond ConjugatedSingleBond ConjugatedDoubleBond ConjugatedSingleBond NonConjugatedSingleBond NonConjugatedSingleBond NonConjugatedSingleBond NonConjugatedSingleBond NonConjugatedSingleBond NonConjugatedSingleBondInRing NonConjugatedSingleBondInRing NonConjugatedSingleBond NonConjugatedSingleBondInRing NonConjugatedSingleBond NonConjugatedSingleBond NonConjugatedSingleBondInRing NonConjugatedSingleBond NonConjugatedSingleBond NonConjugatedSingleBondInRing NonConjugatedSingleBond AromaticSingleBond AromaticSingleBond NonConjugatedSingleBond AromaticDoubleBond AromaticSingleBond AromaticSingleBond AromaticDoubleBond AromaticDoubleBond ConjugatedSingleBond AromaticSingleBond NonConjugatedSingleBond AromaticDoubleBond AromaticSingleBond NonConjugatedSingleBond NonConjugatedSingleBond NonConjugatedSingleBond ConjugatedSingleBond ConjugatedDoubleBond ConjugatedSingleBond ConjugatedSingleBond NonConjugatedSingleBond NonConjugatedSingleBond NonConjugatedSingleBond ConjugatedDoubleBond AmideSingleBond NonConjugatedSingleBond NonConjugatedSingleBond NonConjugatedSingleBond NonConjugatedSingleBond NonConjugatedSingleBond NonConjugatedSingleBond NonConjugatedSingleBond NonConjugatedSingleBond ConjugatedDoubleBond AmideSingleBond NonConjugatedSingleBond NonConjugatedSingleBond NonConjugatedSingleBond NonConjugatedSingleBond NonConjugatedSingleBond NonConjugatedSingleBond NonConjugatedSingleBond NonConjugatedSingleBond ConjugatedSingleBond ConjugatedDoubleBond NonConjugatedSingleBond NonConjugatedSingleBond NonConjugatedSingleBond NonConjugatedSingleBond ConjugatedDoubleBond ConjugatedSingleBond NonConjugatedSingleBond ConjugatedDoubleBond NonConjugatedSingleBond ConjugatedSingleBond AromaticDoubleBond AromaticSingleBond NonConjugatedSingleBond AromaticSingleBond AromaticDoubleBond ConjugatedSingleBond AromaticSingleBond ConjugatedSingleBond NonConjugatedSingleBond AromaticDoubleBond NonConjugatedSingleBond NonConjugatedSingleBond NonConjugatedSingleBond NonConjugatedSingleBond NonConjugatedSingleBond NonConjugatedSingleBond
M  BCL CHI  14   R  18   S  25   R  27   R  29   R  31   S  55   R
M  BCL DBI - - - - - - - - - - - E - - -
M  END
> <ConfClashScore>
0 

> <ConfOneFourInteractionScore>
-0.964004 

> <ConfScore>
0.0273474 

> <ConfScorePBest>
0.0141715 

> <ConfTolerance>
0.25 

$$$$
L03.****
  PyMOL2.5          3D                             0

105108  0  0  0  0  0  0  0  0999 V2000
   -0.6102  -12.1252   -7.4472 C   0  0  0  1  0  0  0  0  0  0  0  0
   -0.6456  -12.4607   -8.4626 H   0  0  0  1  0  0  0  0  0  0  0  0
   -1.4128  -12.5698   -6.8967 H   0  0  0  1  0  0  0  0  0  0  0  0
    0.3239  -12.4104   -7.0100 H   0  0  0  1  0  0  0  0  0  0  0  0
   -0.7478  -10.5985   -7.4074 C   0  0  0  1  0  0  0  0  0  0  0  0
    0.2634   -9.9180   -8.3378 C   0  0  0  1  0  0  0  0  0  0  0  0
   -0.1722   -9.7906   -9.3067 H   0  0  0  1  0  0  0  0  0  0  0  0
    1.1396  -10.5269   -8.4182 H   0  0  0  1  0  0  0  0  0  0  0  0
    0.5286   -8.9618   -7.9376 H   0  0  0  1  0  0  0  0  0  0  0  0
   -0.5394  -10.0858   -6.0205 C   0  0  0  1  0  0  0  0  0  0  0  0
   -0.7035   -9.0288   -5.9942 H   0  0  0  1  0  0  0  0  0  0  0  0
    0.4582  -10.3005   -5.6986 H   0  0  0  1  0  0  0  0  0  0  0  0
   -1.4900  -10.7536   -5.1577 O   0  0  0  1  0  0  0  0  0  0  0  0
   -2.0054  -10.1369   -3.8049 P   0  0  0  1  0  0  0  0  0  0  0  0
   -1.7752   -8.7753   -4.3374 O   0  0  0  1  0  0  0  0  0  0  0  0
   -2.8373  -11.4464   -4.2712 O   0  5  0  1  0  0  0  0  0  0  0  0
   -2.5315   -9.5068   -2.4238 O   0  0  0  1  0  0  0  0  0  0  0  0
   -1.7787   -8.7852   -1.2078 P   0  0  0  1  0  0  0  0  0  0  0  0
   -0.4039   -8.4020   -1.5788 O   0  0  0  0  0  0  0  0  0  0  0  0
   -1.9964   -9.5556    0.0205 O   0  0  0  1  0  0  0  0  0  0  0  0
   -2.6910   -7.5074   -1.1869 O   0  0  0  1  0  0  0  0  0  0  0  0
   -2.7763   -6.5750   -2.2956 C   0  0  0  1  0  0  0  0  0  0  0  0
   -3.2845   -7.0328   -3.1184 H   0  0  0  1  0  0  0  0  0  0  0  0
   -1.7938   -6.2815   -2.6013 H   0  0  0  1  0  0  0  0  0  0  0  0
   -3.5531   -5.3619   -1.8187 C   0  0  0  1  0  0  0  0  0  0  0  0
   -4.4574   -5.6808   -1.3439 H   0  0  0  1  0  0  0  0  0  0  0  0
   -3.8599   -4.4259   -2.9870 C   0  0  0  1  0  0  0  0  0  0  0  0
   -4.8019   -4.6594   -3.4375 H   0  0  0  1  0  0  0  0  0  0  0  0
   -3.8967   -3.0857   -2.2988 C   0  0  0  1  0  0  0  0  0  0  0  0
   -4.8356   -2.9266   -1.8109 H   0  0  0  1  0  0  0  0  0  0  0  0
   -2.7678   -3.2070   -1.2913 C   0  0  0  1  0  0  0  0  0  0  0  0
   -2.9544   -2.5809   -0.4439 H   0  0  0  1  0  0  0  0  0  0  0  0
   -2.7493   -4.5654   -0.9063 O   0  0  0  1  0  0  0  0  0  0  0  0
   -1.4942   -2.8324   -1.9039 N   0  0  0  1  0  0  0  0  0  0  0  0
   -0.4473   -3.6536   -2.1908 C   0  0  0  1  0  0  0  0  0  0  0  0
   -0.4674   -4.6747   -1.9945 H   0  0  0  1  0  0  0  0  0  0  0  0
    0.5838   -3.0630   -2.7310 N   0  0  0  1  0  0  0  0  0  0  0  0
    0.1887   -1.7373   -2.8203 C   0  0  0  1  0  0  0  0  0  0  0  0
    0.7950   -0.5730   -3.2826 C   0  0  0  1  0  0  0  0  0  0  0  0
    0.1314    0.5869   -3.2278 N   0  0  0  1  0  0  0  0  0  0  0  0
   -1.1060    0.5801   -2.7075 C   0  0  0  1  0  0  0  0  0  0  0  0
   -1.5869    1.5018   -2.6787 H   0  0  0  1  0  0  0  0  0  0  0  0
   -1.7988   -0.4442   -2.2249 N   0  0  0  1  0  0  0  0  0  0  0  0
   -1.1066   -1.5812   -2.3086 C   0  0  0  1  0  0  0  0  0  0  0  0
    2.0662   -0.6149   -3.7918 N   0  0  0  1  0  0  0  0  0  0  0  0
    2.5528   -1.4649   -3.8254 H   0  0  0  1  0  0  0  0  0  0  0  0
    2.4888    0.2051   -4.1224 H   0  0  0  1  0  0  0  0  0  0  0  0
   -3.6533   -2.0236   -3.2223 O   0  0  0  1  0  0  0  0  0  0  0  0
   -2.8227   -2.1791   -3.6778 H   0  0  0  1  0  0  0  0  0  0  0  0
   -2.8162   -4.4757   -3.9933 O   0  0  0  1  0  0  0  0  0  0  0  0
   -2.9748   -5.2854   -5.4106 P   0  0  0  1  0  0  0  0  0  0  0  0
   -3.9621   -6.3763   -5.2503 O   0  0  0  1  0  0  0  0  0  0  0  0
   -3.4344   -4.2457   -6.5648 O   0  5  0  1  0  0  0  0  0  0  0  0
   -1.4873   -5.8442   -5.7259 O   0  5  0  1  0  0  0  0  0  0  0  0
   -2.1728  -10.2661   -7.8597 C   0  0  0  1  0  0  0  0  0  0  0  0
   -2.8520  -10.7969   -7.2259 H   0  0  0  1  0  0  0  0  0  0  0  0
   -2.4822   -8.7835   -7.7460 C   0  0  0  1  0  0  0  0  0  0  0  0
   -3.0133   -8.3222   -6.7492 O   0  0  0  1  0  0  0  0  0  0  0  0
   -2.1350   -8.0329   -8.8025 N   0  0  0  1  0  0  0  0  0  0  0  0
   -1.6673   -8.4719   -9.5434 H   0  0  0  1  0  0  0  0  0  0  0  0
   -2.4087   -6.6083   -8.9184 C   0  0  0  1  0  0  0  0  0  0  0  0
   -1.5476   -6.1263   -9.3321 H   0  0  0  1  0  0  0  0  0  0  0  0
   -2.6030   -6.2160   -7.9420 H   0  0  0  1  0  0  0  0  0  0  0  0
   -3.6056   -6.3150   -9.8082 C   0  0  0  1  0  0  0  0  0  0  0  0
   -4.4395   -6.8856   -9.4562 H   0  0  0  1  0  0  0  0  0  0  0  0
   -3.3670   -6.6109  -10.8084 H   0  0  0  1  0  0  0  0  0  0  0  0
   -3.9906   -4.8598   -9.8179 C   0  0  0  1  0  0  0  0  0  0  0  0
   -3.9861   -4.1778   -8.8093 O   0  0  0  1  0  0  0  0  0  0  0  0
   -4.3511   -4.2912  -10.9720 N   0  0  0  1  0  0  0  0  0  0  0  0
   -4.3802   -4.8422  -11.7819 H   0  0  0  1  0  0  0  0  0  0  0  0
   -4.7020   -2.8822  -11.0682 C   0  0  0  1  0  0  0  0  0  0  0  0
   -4.9794   -2.5405  -10.0929 H   0  0  0  1  0  0  0  0  0  0  0  0
   -5.5381   -2.7914  -11.7297 H   0  0  0  1  0  0  0  0  0  0  0  0
   -3.5978   -1.9915  -11.5815 C   0  0  0  1  0  0  0  0  0  0  0  0
   -3.9939   -1.0248  -11.8130 H   0  0  0  1  0  0  0  0  0  0  0  0
   -3.1687   -2.4219  -12.4621 H   0  0  0  1  0  0  0  0  0  0  0  0
   -2.3305   -1.8381  -10.3004 S   0  0  0  1  0  0  0  0  0  0  0  0
   -1.0909   -0.9012  -11.1139 C   0  0  0  1  0  0  0  0  0  0  0  0
   -1.2781   -0.5490  -12.2447 O   0  0  0  1  0  0  0  0  0  0  0  0
    0.1866   -0.5507  -10.3908 C   0  0  0  1  0  0  0  0  0  0  0  0
   -0.0339   -0.4625   -9.3475 H   0  0  0  1  0  0  0  0  0  0  0  0
    0.5334    0.3905  -10.7633 H   0  0  0  1  0  0  0  0  0  0  0  0
    1.2960   -1.5585  -10.5535 C   0  0  0  1  0  0  0  0  0  0  0  0
    1.9883   -1.8732   -9.5995 O   0  0  0  1  0  0  0  0  0  0  0  0
    1.5267   -2.1492  -11.8684 C   0  0  0  1  0  0  0  0  0  0  0  0
    2.1668   -2.9687  -11.8523 H   0  0  0  1  0  0  0  0  0  0  0  0
    1.0775   -1.8438  -13.0851 C   0  0  0  1  0  0  0  0  0  0  0  0
    0.4324   -1.0319  -13.1639 H   0  0  0  1  0  0  0  0  0  0  0  0
    1.4183   -2.5618  -14.3352 C   0  0  0  1  0  0  0  0  0  0  0  0
    1.1327   -1.9789  -15.5554 C   0  0  0  1  0  0  0  0  0  0  0  0
    0.6780   -1.0443  -15.5915 H   0  0  0  1  0  0  0  0  0  0  0  0
    1.4525   -2.6401  -16.7310 C   0  0  0  1  0  0  0  0  0  0  0  0
    2.0521   -3.8845  -16.6830 C   0  0  0  1  0  0  0  0  0  0  0  0
    2.3385   -4.4690  -15.4591 C   0  0  0  1  0  0  0  0  0  0  0  0
    2.7932   -5.4036  -15.4229 H   0  0  0  1  0  0  0  0  0  0  0  0
    2.0196   -3.8098  -14.2869 C   0  0  0  1  0  0  0  0  0  0  0  0
    2.2309   -4.2501  -13.3686 H   0  0  0  1  0  0  0  0  0  0  0  0
    2.3143   -4.4389  -17.8969 O   0  5  0  1  0  0  0  0  0  0  0  0
    1.2903   -2.0573  -17.9425 O   0  0  0  1  0  0  0  0  0  0  0  0
    0.4913   -0.8651  -17.9955 C   0  0  0  1  0  0  0  0  0  0  0  0
    0.4075   -0.5360  -19.0102 H   0  0  0  1  0  0  0  0  0  0  0  0
    0.9548   -0.0991  -17.4095 H   0  0  0  1  0  0  0  0  0  0  0  0
   -0.4837   -1.0719  -17.6062 H   0  0  0  1  0  0  0  0  0  0  0  0
   -2.3005  -10.7459   -9.1949 O   0  0  0  1  0  0  0  0  0  0  0  0
   -1.5144  -11.2426   -9.4336 H   0  0  0  1  0  0  0  0  0  0  0  0
  1  2  1  0  0  0  0
  1  3  1  0  0  0  0
  1  4  1  0  0  0  0
  1  5  1  0  0  0  0
  5  6  1  0  0  0  0
  5 10  1  0  0  0  0
  5 55  1  0  0  0  0
  6  7  1  0  0  0  0
  6  8  1  0  0  0  0
  6  9  1  0  0  0  0
 10 11  1  0  0  0  0
 10 12  1  0  0  0  0
 10 13  1  0  0  0  0
 13 14  1  0  0  0  0
 14 15  2  0  0  0  0
 14 16  1  0  0  0  0
 14 17  1  0  0  0  0
 17 18  1  0  0  0  0
 18 19  1  0  0  0  0
 18 20  2  0  0  0  0
 18 21  1  0  0  0  0
 21 22  1  0  0  0  0
 22 23  1  0  0  0  0
 22 24  1  0  0  0  0
 22 25  1  0  0  0  0
 25 26  1  0  0  0  0
 25 27  1  0  0  0  0
 25 33  1  0  0  0  0
 27 28  1  0  0  0  0
 27 29  1  0  0  0  0
 27 50  1  0  0  0  0
 29 30  1  0  0  0  0
 29 31  1  0  0  0  0
 29 48  1  0  0  0  0
 31 32  1  0  0  0  0
 31 33  1  0  0  0  0
 31 34  1  0  0  0  0
 34 35  1  0  0  0  0
 34 44  1  0  0  0  0
 35 36  1  0  0  0  0
 35 37  2  0  0  0  0
 37 38  1  0  0  0  0
 38 39  1  0  0  0  0
 38 44  2  0  0  0  0
 39 40  2  0  0  0  0
 39 45  1  0  0  0  0
 40 41  1  0  0  0  0
 41 42  1  0  0  0  0
 41 43  2  0  0  0  0
 43 44  1  0  0  0  0
 45 46  1  0  0  0  0
 45 47  1  0  0  0  0
 48 49  1  0  0  0  0
 50 51  1  0  0  0  0
 51 52  2  0  0  0  0
 51 53  1  0  0  0  0
 51 54  1  0  0  0  0
 55 56  1  0  0  0  0
 55 57  1  0  0  0  0
 55104  1  0  0  0  0
 57 58  2  0  0  0  0
 57 59  1  0  0  0  0
 59 60  1  0  0  0  0
 59 61  1  0  0  0  0
 61 62  1  0  0  0  0
 61 63  1  0  0  0  0
 61 64  1  0  0  0  0
 64 65  1  0  0  0  0
 64 66  1  0  0  0  0
 64 67  1  0  0  0  0
 67 68  2  0  0  0  0
 67 69  1  0  0  0  0
 69 70  1  0  0  0  0
 69 71  1  0  0  0  0
 71 72  1  0  0  0  0
 71 73  1  0  0  0  0
 71 74  1  0  0  0  0
 74 75  1  0  0  0  0
 74 76  1  0  0  0  0
 74 77  1  0  0  0  0
 77 78  1  0  0  0  0
 78 79  2  0  0  0  0
 78 80  1  0  0  0  0
 80 81  1  0  0  0  0
 80 82  1  0  0  0  0
 80 83  1  0  0  0  0
 83 84  2  0  0  0  0
 83 85  1  0  0  0  0
 85 86  1  0  0  0  0
 85 87  2  0  0  0  0
 87 88  1  0  0  0  0
 87 89  1  0  0  0  0
 89 90  2  0  0  0  0
 89 96  1  0  0  0  0
 90 91  1  0  0  0  0
 90 92  1  0  0  0  0
 92 93  2  0  0  0  0
 92 99  1  0  0  0  0
 93 94  1  0  0  0  0
 93 98  1  0  0  0  0
 94 95  1  0  0  0  0
 94 96  2  0  0  0  0
 96 97  1  0  0  0  0
 99100  1  0  0  0  0
100101  1  0  0  0  0
100102  1  0  0  0  0
100103  1  0  0  0  0
104105  1  0  0  0  0
M  BCL ATM C_TeTeTeTe H_S H_S H_S C_TeTeTeTe C_TeTeTeTe H_S H_S H_S C_TeTeTeTe H_S H_S O_Tr2TrTrPi2 P_TeTeTeTePi O_Tr2Tr2TrPi O_Te2Te2Te2Te O_Tr2TrTrPi2 P_TeTeTeTePi O_Te2Te2TeTe O_Tr2Tr2TrPi O_Tr2TrTrPi2 C_TeTeTeTe H_S H_S C_TeTeTeTe H_S C_TeTeTeTe H_S C_TeTeTeTe H_S C_TeTeTeTe H_S O_Te2Te2TeTe N_TrTrTrPi2 C_TrTrTrPi H_S N_Tr2TrTrPi C_TrTrTrPi C_TrTrTrPi N_Tr2TrTrPi C_TrTrTrPi H_S N_Tr2TrTrPi C_TrTrTrPi N_TrTrTrPi2 H_S H_S O_Te2Te2TeTe H_S O_Tr2TrTrPi2 P_TeTeTeTePi O_Tr2Tr2TrPi O_Te2Te2Te2Te O_Te2Te2Te2Te C_TeTeTeTe H_S C_TrTrTrPi O_Tr2Tr2TrPi N_TrTrTrPi2 H_S C_TeTeTeTe H_S H_S C_TeTeTeTe H_S H_S C_TrTrTrPi O_Tr2Tr2TrPi N_TrTrTrPi2 H_S C_TeTeTeTe H_S H_S C_TeTeTeTe H_S H_S S_Te2Te2TeTe C_TrTrTrPi O_Tr2Tr2TrPi C_TeTeTeTe H_S H_S C_TrTrTrPi O_Tr2Tr2TrPi C_TrTrTrPi H_S C_TrTrTrPi H_S C_TrTrTrPi C_TrTrTrPi H_S C_TrTrTrPi C_TrTrTrPi C_TrTrTrPi H_S C_TrTrTrPi H_S O_Te2Te2Te2Te O_Tr2TrTrPi2 C_TeTeTeTe H_S H_S H_S O_Te2Te2TeTe H_S
M  BCL BND NonConjugatedSingleBond NonConjugatedSingleBond NonConjugatedSingleBond NonConjugatedSingleBond NonConjugatedSingleBond NonConjugatedSingleBond NonConjugatedSingleBond NonConjugatedSingleBond NonConjugatedSingleBond NonConjugatedSingleBond NonConjugatedSingleBond NonConjugatedSingleBond NonConjugatedSingleBond ConjugatedSingleBond ConjugatedDoubleBond ConjugatedSingleBond ConjugatedSingleBond ConjugatedSingleBond ConjugatedSingleBond ConjugatedDoubleBond ConjugatedSingleBond NonConjugatedSingleBond NonConjugatedSingleBond NonConjugatedSingleBond NonConjugatedSingleBond NonConjugatedSingleBond NonConjugatedSingleBondInRing NonConjugatedSingleBondInRing NonConjugatedSingleBond NonConjugatedSingleBondInRing NonConjugatedSingleBond NonConjugatedSingleBond NonConjugatedSingleBondInRing NonConjugatedSingleBond NonConjugatedSingleBond NonConjugatedSingleBondInRing NonConjugatedSingleBond AromaticSingleBond AromaticSingleBond NonConjugatedSingleBond AromaticDoubleBond AromaticSingleBond AromaticSingleBond AromaticDoubleBond AromaticDoubleBond ConjugatedSingleBond AromaticSingleBond NonConjugatedSingleBond AromaticDoubleBond AromaticSingleBond NonConjugatedSingleBond NonConjugatedSingleBond NonConjugatedSingleBond ConjugatedSingleBond ConjugatedDoubleBond ConjugatedSingleBond ConjugatedSingleBond NonConjugatedSingleBond NonConjugatedSingleBond NonConjugatedSingleBond ConjugatedDoubleBond AmideSingleBond NonConjugatedSingleBond NonConjugatedSingleBond NonConjugatedSingleBond NonConjugatedSingleBond NonConjugatedSingleBond NonConjugatedSingleBond NonConjugatedSingleBond NonConjugatedSingleBond ConjugatedDoubleBond AmideSingleBond NonConjugatedSingleBond NonConjugatedSingleBond NonConjugatedSingleBond NonConjugatedSingleBond NonConjugatedSingleBond NonConjugatedSingleBond NonConjugatedSingleBond NonConjugatedSingleBond ConjugatedSingleBond ConjugatedDoubleBond NonConjugatedSingleBond NonConjugatedSingleBond NonConjugatedSingleBond NonConjugatedSingleBond ConjugatedDoubleBond ConjugatedSingleBond NonConjugatedSingleBond ConjugatedDoubleBond NonConjugatedSingleBond ConjugatedSingleBond AromaticDoubleBond AromaticSingleBond NonConjugatedSingleBond AromaticSingleBond AromaticDoubleBond ConjugatedSingleBond AromaticSingleBond ConjugatedSingleBond NonConjugatedSingleBond AromaticDoubleBond NonConjugatedSingleBond NonConjugatedSingleBond NonConjugatedSingleBond NonConjugatedSingleBond NonConjugatedSingleBond NonConjugatedSingleBond
M  BCL CHI  14   R  18   S  25   R  27   R  29   R  31   S  55   R
M  BCL DBI - - - - - - - - - - - E - - -
M  END
> <ConfClashScore>
0.0001007 

> <ConfOneFourInteractionScore>
-0.971196 

> <ConfScore>
0.0292776 

> <ConfScorePBest>
0.0140685 

> <ConfTolerance>
2.97029 

$$$$
L03.****
  PyMOL2.5          3D                             0

105108  0  0  0  0  0  0  0  0999 V2000
    0.0617   -2.9649   -9.5233 C   0  0  0  1  0  0  0  0  0  0  0  0
   -0.5929   -3.8022   -9.3994 H   0  0  0  1  0  0  0  0  0  0  0  0
    0.9941   -3.1667   -9.0387 H   0  0  0  1  0  0  0  0  0  0  0  0
    0.2305   -2.7958  -10.5663 H   0  0  0  1  0  0  0  0  0  0  0  0
   -0.5783   -1.7183   -8.9007 C   0  0  0  1  0  0  0  0  0  0  0  0
    0.5057   -0.9841   -8.1026 C   0  0  0  1  0  0  0  0  0  0  0  0
    1.3904   -0.8968   -8.6981 H   0  0  0  1  0  0  0  0  0  0  0  0
    0.7280   -1.5352   -7.2128 H   0  0  0  1  0  0  0  0  0  0  0  0
    0.1552   -0.0079   -7.8398 H   0  0  0  1  0  0  0  0  0  0  0  0
   -1.7391   -2.0836   -8.0353 C   0  0  0  1  0  0  0  0  0  0  0  0
   -2.4791   -2.5949   -8.6149 H   0  0  0  1  0  0  0  0  0  0  0  0
   -2.1671   -1.2010   -7.6080 H   0  0  0  1  0  0  0  0  0  0  0  0
   -1.2490   -2.9513   -6.9860 O   0  0  0  1  0  0  0  0  0  0  0  0
   -2.1116   -4.1023   -6.3481 P   0  0  0  1  0  0  0  0  0  0  0  0
   -2.7729   -4.3301   -7.6524 O   0  0  0  1  0  0  0  0  0  0  0  0
   -0.5860   -4.0672   -5.8044 O   0  5  0  1  0  0  0  0  0  0  0  0
   -2.9926   -5.2777   -5.6972 O   0  0  0  1  0  0  0  0  0  0  0  0
   -2.6442   -6.4412   -4.6131 P   0  0  0  1  0  0  0  0  0  0  0  0
   -1.2419   -6.3024   -4.1531 O   0  0  0  0  0  0  0  0  0  0  0  0
   -3.1344   -7.7525   -5.0743 O   0  0  0  1  0  0  0  0  0  0  0  0
   -3.6281   -5.8312   -3.5473 O   0  0  0  1  0  0  0  0  0  0  0  0
   -3.6608   -6.3391   -2.1892 C   0  0  0  1  0  0  0  0  0  0  0  0
   -2.7121   -6.7736   -1.9526 H   0  0  0  1  0  0  0  0  0  0  0  0
   -4.4246   -7.0842   -2.1100 H   0  0  0  1  0  0  0  0  0  0  0  0
   -3.9529   -5.2220   -1.2156 C   0  0  0  1  0  0  0  0  0  0  0  0
   -4.4111   -5.6250   -0.3366 H   0  0  0  1  0  0  0  0  0  0  0  0
   -4.8792   -4.1863   -1.8647 C   0  0  0  1  0  0  0  0  0  0  0  0
   -5.5833   -3.8035   -1.1558 H   0  0  0  1  0  0  0  0  0  0  0  0
   -3.9094   -3.0899   -2.3241 C   0  0  0  1  0  0  0  0  0  0  0  0
   -4.3697   -2.1247   -2.2878 H   0  0  0  1  0  0  0  0  0  0  0  0
   -2.7738   -3.2068   -1.2889 C   0  0  0  1  0  0  0  0  0  0  0  0
   -2.9718   -2.5650   -0.4560 H   0  0  0  1  0  0  0  0  0  0  0  0
   -2.7259   -4.5325   -0.8660 O   0  0  0  1  0  0  0  0  0  0  0  0
   -1.4982   -2.8320   -1.9024 N   0  0  0  1  0  0  0  0  0  0  0  0
   -0.4515   -3.6534   -2.1894 C   0  0  0  1  0  0  0  0  0  0  0  0
   -0.4718   -4.6745   -1.9930 H   0  0  0  1  0  0  0  0  0  0  0  0
    0.5798   -3.0630   -2.7295 N   0  0  0  1  0  0  0  0  0  0  0  0
    0.1849   -1.7372   -2.8188 C   0  0  0  1  0  0  0  0  0  0  0  0
    0.7915   -0.5730   -3.2812 C   0  0  0  1  0  0  0  0  0  0  0  0
    0.1281    0.5870   -3.2263 N   0  0  0  1  0  0  0  0  0  0  0  0
   -1.1093    0.5805   -2.7060 C   0  0  0  1  0  0  0  0  0  0  0  0
   -1.5900    1.5023   -2.6772 H   0  0  0  1  0  0  0  0  0  0  0  0
   -1.8023   -0.4437   -2.2234 N   0  0  0  1  0  0  0  0  0  0  0  0
   -1.1103   -1.5808   -2.3071 C   0  0  0  1  0  0  0  0  0  0  0  0
    2.0818   -0.6158   -3.7980 N   0  0  0  1  0  0  0  0  0  0  0  0
    2.5078    0.2055   -4.1208 H   0  0  0  1  0  0  0  0  0  0  0  0
    2.5650   -1.4674   -3.8394 H   0  0  0  1  0  0  0  0  0  0  0  0
   -3.4324   -3.3413   -3.6468 O   0  0  0  1  0  0  0  0  0  0  0  0
   -3.1623   -2.5143   -4.0526 H   0  0  0  1  0  0  0  0  0  0  0  0
   -5.5902   -4.7587   -2.9931 O   0  0  0  1  0  0  0  0  0  0  0  0
   -7.2289   -4.6946   -3.0035 P   0  0  0  1  0  0  0  0  0  0  0  0
   -7.7826   -3.4100   -2.5203 O   0  0  0  1  0  0  0  0  0  0  0  0
   -7.6799   -4.9973   -4.5298 O   0  5  0  1  0  0  0  0  0  0  0  0
   -7.8451   -5.8632   -2.0659 O   0  5  0  1  0  0  0  0  0  0  0  0
   -1.0515   -0.8094  -10.0413 C   0  0  0  1  0  0  0  0  0  0  0  0
   -1.8616   -1.3011  -10.5382 H   0  0  0  1  0  0  0  0  0  0  0  0
   -1.5453    0.5178   -9.5442 C   0  0  0  1  0  0  0  0  0  0  0  0
   -2.3752    0.6485   -8.6629 O   0  0  0  1  0  0  0  0  0  0  0  0
   -1.0163    1.5951  -10.1313 N   0  0  0  1  0  0  0  0  0  0  0  0
   -0.2960    1.4720  -10.7843 H   0  0  0  1  0  0  0  0  0  0  0  0
   -1.4726    2.9448   -9.8349 C   0  0  0  1  0  0  0  0  0  0  0  0
   -2.4923    2.9101   -9.5127 H   0  0  0  1  0  0  0  0  0  0  0  0
   -1.3972    3.5448  -10.7176 H   0  0  0  1  0  0  0  0  0  0  0  0
   -0.6202    3.5592   -8.7366 C   0  0  0  1  0  0  0  0  0  0  0  0
   -0.7243    2.9656   -7.8525 H   0  0  0  1  0  0  0  0  0  0  0  0
   -0.9742    4.5505   -8.5451 H   0  0  0  1  0  0  0  0  0  0  0  0
    0.8507    3.6333   -9.0977 C   0  0  0  1  0  0  0  0  0  0  0  0
    1.2145    3.9064  -10.2407 O   0  0  0  1  0  0  0  0  0  0  0  0
    1.7096    3.3837   -8.0976 N   0  0  0  1  0  0  0  0  0  0  0  0
    1.3549    3.1009   -7.2289 H   0  0  0  1  0  0  0  0  0  0  0  0
    3.1498    3.5185   -8.2579 C   0  0  0  1  0  0  0  0  0  0  0  0
    3.3747    3.7030   -9.2876 H   0  0  0  1  0  0  0  0  0  0  0  0
    3.6261    2.6129   -7.9450 H   0  0  0  1  0  0  0  0  0  0  0  0
    3.6652    4.6695   -7.4199 C   0  0  0  1  0  0  0  0  0  0  0  0
    4.7311    4.7216   -7.4973 H   0  0  0  1  0  0  0  0  0  0  0  0
    3.3882    4.5218   -6.3970 H   0  0  0  1  0  0  0  0  0  0  0  0
    2.9354    6.2073   -8.0313 S   0  0  0  1  0  0  0  0  0  0  0  0
    1.3823    6.3296   -7.1750 C   0  0  0  1  0  0  0  0  0  0  0  0
    0.9856    5.5022   -6.3994 O   0  0  0  1  0  0  0  0  0  0  0  0
    0.6276    7.5859   -7.5351 C   0  0  0  1  0  0  0  0  0  0  0  0
    0.4427    7.5737   -8.5889 H   0  0  0  1  0  0  0  0  0  0  0  0
    1.2428    8.4265   -7.2901 H   0  0  0  1  0  0  0  0  0  0  0  0
   -0.6961    7.7485   -6.8263 C   0  0  0  1  0  0  0  0  0  0  0  0
   -1.1294    8.8612   -6.5763 O   0  0  0  1  0  0  0  0  0  0  0  0
   -1.4456    6.5547   -6.4470 C   0  0  0  1  0  0  0  0  0  0  0  0
   -1.0525    5.6468   -6.7675 H   0  0  0  1  0  0  0  0  0  0  0  0
   -2.5727    6.4884   -5.7395 C   0  0  0  1  0  0  0  0  0  0  0  0
   -2.9809    7.3865   -5.4102 H   0  0  0  1  0  0  0  0  0  0  0  0
   -3.2935    5.2461   -5.3822 C   0  0  0  1  0  0  0  0  0  0  0  0
   -2.7205    3.9995   -5.5488 C   0  0  0  1  0  0  0  0  0  0  0  0
   -1.7597    3.9166   -5.9381 H   0  0  0  1  0  0  0  0  0  0  0  0
   -3.4266    2.8597   -5.1969 C   0  0  0  1  0  0  0  0  0  0  0  0
   -4.7056    2.9695   -4.6845 C   0  0  0  1  0  0  0  0  0  0  0  0
   -5.2801    4.2200   -4.5175 C   0  0  0  1  0  0  0  0  0  0  0  0
   -6.2409    4.3029   -4.1282 H   0  0  0  1  0  0  0  0  0  0  0  0
   -4.5762    5.3565   -4.8683 C   0  0  0  1  0  0  0  0  0  0  0  0
   -5.0088    6.2944   -4.7467 H   0  0  0  1  0  0  0  0  0  0  0  0
   -5.4312    1.8743   -4.3329 O   0  5  0  1  0  0  0  0  0  0  0  0
   -2.9715    1.5967   -5.3089 O   0  0  0  1  0  0  0  0  0  0  0  0
   -1.5662    1.4787   -5.6310 C   0  0  0  1  0  0  0  0  0  0  0  0
   -1.3136    2.1870   -6.3922 H   0  0  0  1  0  0  0  0  0  0  0  0
   -1.3633    0.4890   -5.9836 H   0  0  0  1  0  0  0  0  0  0  0  0
   -0.9824    1.6727   -4.7556 H   0  0  0  1  0  0  0  0  0  0  0  0
    0.0390   -0.6784  -10.9362 O   0  0  0  1  0  0  0  0  0  0  0  0
    0.8441   -0.5173  -10.4388 H   0  0  0  1  0  0  0  0  0  0  0  0
  1  2  1  0  0  0  0
  1  3  1  0  0  0  0
  1  4  1  0  0  0  0
  1  5  1  0  0  0  0
  5  6  1  0  0  0  0
  5 10  1  0  0  0  0
  5 55  1  0  0  0  0
  6  7  1  0  0  0  0
  6  8  1  0  0  0  0
  6  9  1  0  0  0  0
 10 11  1  0  0  0  0
 10 12  1  0  0  0  0
 10 13  1  0  0  0  0
 13 14  1  0  0  0  0
 14 15  2  0  0  0  0
 14 16  1  0  0  0  0
 14 17  1  0  0  0  0
 17 18  1  0  0  0  0
 18 19  1  0  0  0  0
 18 20  2  0  0  0  0
 18 21  1  0  0  0  0
 21 22  1  0  0  0  0
 22 23  1  0  0  0  0
 22 24  1  0  0  0  0
 22 25  1  0  0  0  0
 25 26  1  0  0  0  0
 25 27  1  0  0  0  0
 25 33  1  0  0  0  0
 27 28  1  0  0  0  0
 27 29  1  0  0  0  0
 27 50  1  0  0  0  0
 29 30  1  0  0  0  0
 29 31  1  0  0  0  0
 29 48  1  0  0  0  0
 31 32  1  0  0  0  0
 31 33  1  0  0  0  0
 31 34  1  0  0  0  0
 34 35  1  0  0  0  0
 34 44  1  0  0  0  0
 35 36  1  0  0  0  0
 35 37  2  0  0  0  0
 37 38  1  0  0  0  0
 38 39  1  0  0  0  0
 38 44  2  0  0  0  0
 39 40  2  0  0  0  0
 39 45  1  0  0  0  0
 40 41  1  0  0  0  0
 41 42  1  0  0  0  0
 41 43  2  0  0  0  0
 43 44  1  0  0  0  0
 45 46  1  0  0  0  0
 45 47  1  0  0  0  0
 48 49  1  0  0  0  0
 50 51  1  0  0  0  0
 51 52  2  0  0  0  0
 51 53  1  0  0  0  0
 51 54  1  0  0  0  0
 55 56  1  0  0  0  0
 55 57  1  0  0  0  0
 55104  1  0  0  0  0
 57 58  2  0  0  0  0
 57 59  1  0  0  0  0
 59 60  1  0  0  0  0
 59 61  1  0  0  0  0
 61 62  1  0  0  0  0
 61 63  1  0  0  0  0
 61 64  1  0  0  0  0
 64 65  1  0  0  0  0
 64 66  1  0  0  0  0
 64 67  1  0  0  0  0
 67 68  2  0  0  0  0
 67 69  1  0  0  0  0
 69 70  1  0  0  0  0
 69 71  1  0  0  0  0
 71 72  1  0  0  0  0
 71 73  1  0  0  0  0
 71 74  1  0  0  0  0
 74 75  1  0  0  0  0
 74 76  1  0  0  0  0
 74 77  1  0  0  0  0
 77 78  1  0  0  0  0
 78 79  2  0  0  0  0
 78 80  1  0  0  0  0
 80 81  1  0  0  0  0
 80 82  1  0  0  0  0
 80 83  1  0  0  0  0
 83 84  2  0  0  0  0
 83 85  1  0  0  0  0
 85 86  1  0  0  0  0
 85 87  2  0  0  0  0
 87 88  1  0  0  0  0
 87 89  1  0  0  0  0
 89 90  2  0  0  0  0
 89 96  1  0  0  0  0
 90 91  1  0  0  0  0
 90 92  1  0  0  0  0
 92 93  2  0  0  0  0
 92 99  1  0  0  0  0
 93 94  1  0  0  0  0
 93 98  1  0  0  0  0
 94 95  1  0  0  0  0
 94 96  2  0  0  0  0
 96 97  1  0  0  0  0
 99100  1  0  0  0  0
100101  1  0  0  0  0
100102  1  0  0  0  0
100103  1  0  0  0  0
104105  1  0  0  0  0
M  BCL ATM C_TeTeTeTe H_S H_S H_S C_TeTeTeTe C_TeTeTeTe H_S H_S H_S C_TeTeTeTe H_S H_S O_Tr2TrTrPi2 P_TeTeTeTePi O_Tr2Tr2TrPi O_Te2Te2Te2Te O_Tr2TrTrPi2 P_TeTeTeTePi O_Te2Te2TeTe O_Tr2Tr2TrPi O_Tr2TrTrPi2 C_TeTeTeTe H_S H_S C_TeTeTeTe H_S C_TeTeTeTe H_S C_TeTeTeTe H_S C_TeTeTeTe H_S O_Te2Te2TeTe N_TrTrTrPi2 C_TrTrTrPi H_S N_Tr2TrTrPi C_TrTrTrPi C_TrTrTrPi N_Tr2TrTrPi C_TrTrTrPi H_S N_Tr2TrTrPi C_TrTrTrPi N_TrTrTrPi2 H_S H_S O_Te2Te2TeTe H_S O_Tr2TrTrPi2 P_TeTeTeTePi O_Tr2Tr2TrPi O_Te2Te2Te2Te O_Te2Te2Te2Te C_TeTeTeTe H_S C_TrTrTrPi O_Tr2Tr2TrPi N_TrTrTrPi2 H_S C_TeTeTeTe H_S H_S C_TeTeTeTe H_S H_S C_TrTrTrPi O_Tr2Tr2TrPi N_TrTrTrPi2 H_S C_TeTeTeTe H_S H_S C_TeTeTeTe H_S H_S S_Te2Te2TeTe C_TrTrTrPi O_Tr2Tr2TrPi C_TeTeTeTe H_S H_S C_TrTrTrPi O_Tr2Tr2TrPi C_TrTrTrPi H_S C_TrTrTrPi H_S C_TrTrTrPi C_TrTrTrPi H_S C_TrTrTrPi C_TrTrTrPi C_TrTrTrPi H_S C_TrTrTrPi H_S O_Te2Te2Te2Te O_Tr2TrTrPi2 C_TeTeTeTe H_S H_S H_S O_Te2Te2TeTe H_S
M  BCL BND NonConjugatedSingleBond NonConjugatedSingleBond NonConjugatedSingleBond NonConjugatedSingleBond NonConjugatedSingleBond NonConjugatedSingleBond NonConjugatedSingleBond NonConjugatedSingleBond NonConjugatedSingleBond NonConjugatedSingleBond NonConjugatedSingleBond NonConjugatedSingleBond NonConjugatedSingleBond ConjugatedSingleBond ConjugatedDoubleBond ConjugatedSingleBond ConjugatedSingleBond ConjugatedSingleBond ConjugatedSingleBond ConjugatedDoubleBond ConjugatedSingleBond NonConjugatedSingleBond NonConjugatedSingleBond NonConjugatedSingleBond NonConjugatedSingleBond NonConjugatedSingleBond NonConjugatedSingleBondInRing NonConjugatedSingleBondInRing NonConjugatedSingleBond NonConjugatedSingleBondInRing NonConjugatedSingleBond NonConjugatedSingleBond NonConjugatedSingleBondInRing NonConjugatedSingleBond NonConjugatedSingleBond NonConjugatedSingleBondInRing NonConjugatedSingleBond AromaticSingleBond AromaticSingleBond NonConjugatedSingleBond AromaticDoubleBond AromaticSingleBond AromaticSingleBond AromaticDoubleBond AromaticDoubleBond ConjugatedSingleBond AromaticSingleBond NonConjugatedSingleBond AromaticDoubleBond AromaticSingleBond NonConjugatedSingleBond NonConjugatedSingleBond NonConjugatedSingleBond ConjugatedSingleBond ConjugatedDoubleBond ConjugatedSingleBond ConjugatedSingleBond NonConjugatedSingleBond NonConjugatedSingleBond NonConjugatedSingleBond ConjugatedDoubleBond AmideSingleBond NonConjugatedSingleBond NonConjugatedSingleBond NonConjugatedSingleBond NonConjugatedSingleBond NonConjugatedSingleBond NonConjugatedSingleBond NonConjugatedSingleBond NonConjugatedSingleBond ConjugatedDoubleBond AmideSingleBond NonConjugatedSingleBond NonConjugatedSingleBond NonConjugatedSingleBond NonConjugatedSingleBond NonConjugatedSingleBond NonConjugatedSingleBond NonConjugatedSingleBond NonConjugatedSingleBond ConjugatedSingleBond ConjugatedDoubleBond NonConjugatedSingleBond NonConjugatedSingleBond NonConjugatedSingleBond NonConjugatedSingleBond ConjugatedDoubleBond ConjugatedSingleBond NonConjugatedSingleBond ConjugatedDoubleBond NonConjugatedSingleBond ConjugatedSingleBond AromaticDoubleBond AromaticSingleBond NonConjugatedSingleBond AromaticSingleBond AromaticDoubleBond ConjugatedSingleBond AromaticSingleBond ConjugatedSingleBond NonConjugatedSingleBond AromaticDoubleBond NonConjugatedSingleBond NonConjugatedSingleBond NonConjugatedSingleBond NonConjugatedSingleBond NonConjugatedSingleBond NonConjugatedSingleBond
M  BCL CHI  14   R  18   S  25   R  27   R  29   R  31   S  55   R
M  BCL DBI - - - - - - - - - - - E - - -
M  END
> <ConfClashScore>
0 

> <ConfOneFourInteractionScore>
-0.975879 

> <ConfScore>
0.0309845 

> <ConfScorePBest>
0.0139655 

> <ConfTolerance>
2.90004 

$$$$
L03.****
  PyMOL2.5          3D                             0

105108  0  0  0  0  0  0  0  0999 V2000
   -1.2957   -9.0964   -8.9159 C   0  0  0  1  0  0  0  0  0  0  0  0
   -1.9259   -8.5779   -9.6079 H   0  0  0  1  0  0  0  0  0  0  0  0
   -0.5836   -9.6858   -9.4549 H   0  0  0  1  0  0  0  0  0  0  0  0
   -0.7807   -8.3871   -8.3022 H   0  0  0  1  0  0  0  0  0  0  0  0
   -2.1509  -10.0114   -8.0312 C   0  0  0  1  0  0  0  0  0  0  0  0
   -3.0084  -10.9563   -8.8815 C   0  0  0  1  0  0  0  0  0  0  0  0
   -3.9607  -10.5049   -9.0669 H   0  0  0  1  0  0  0  0  0  0  0  0
   -3.1473  -11.8793   -8.3584 H   0  0  0  1  0  0  0  0  0  0  0  0
   -2.5157  -11.1441   -9.8126 H   0  0  0  1  0  0  0  0  0  0  0  0
   -3.0299   -9.1540   -7.2532 C   0  0  0  1  0  0  0  0  0  0  0  0
   -3.5070   -8.4627   -7.9160 H   0  0  0  1  0  0  0  0  0  0  0  0
   -2.4397   -8.6165   -6.5407 H   0  0  0  1  0  0  0  0  0  0  0  0
   -4.0514   -9.8931   -6.5432 O   0  0  0  1  0  0  0  0  0  0  0  0
   -4.1948   -9.7732   -4.9807 P   0  0  0  1  0  0  0  0  0  0  0  0
   -2.7517  -10.0628   -4.8257 O   0  0  0  1  0  0  0  0  0  0  0  0
   -5.0866   -8.6909   -5.7918 O   0  5  0  1  0  0  0  0  0  0  0  0
   -4.3407   -9.6509   -3.3854 O   0  0  0  1  0  0  0  0  0  0  0  0
   -3.3557   -9.0953   -2.3273 P   0  0  0  1  0  0  0  0  0  0  0  0
   -1.9643   -9.6633   -2.7018 O   0  0  0  0  0  0  0  0  0  0  0  0
   -3.8265   -9.3557   -0.9634 O   0  0  0  1  0  0  0  0  0  0  0  0
   -3.3317   -7.5618   -2.6992 O   0  0  0  1  0  0  0  0  0  0  0  0
   -2.5532   -6.6611   -1.8767 C   0  0  0  1  0  0  0  0  0  0  0  0
   -1.6704   -6.3600   -2.4010 H   0  0  0  1  0  0  0  0  0  0  0  0
   -2.2782   -7.1470   -0.9639 H   0  0  0  1  0  0  0  0  0  0  0  0
   -3.4114   -5.4544   -1.5788 C   0  0  0  1  0  0  0  0  0  0  0  0
   -4.3144   -5.7682   -1.0981 H   0  0  0  1  0  0  0  0  0  0  0  0
   -3.7239   -4.6862   -2.8623 C   0  0  0  1  0  0  0  0  0  0  0  0
   -4.6327   -5.0291   -3.3111 H   0  0  0  1  0  0  0  0  0  0  0  0
   -3.8633   -3.2777   -2.3451 C   0  0  0  1  0  0  0  0  0  0  0  0
   -4.8283   -3.1183   -1.9111 H   0  0  0  1  0  0  0  0  0  0  0  0
   -2.7701   -3.2080   -1.2942 C   0  0  0  1  0  0  0  0  0  0  0  0
   -3.0250   -2.4969   -0.5364 H   0  0  0  1  0  0  0  0  0  0  0  0
   -2.6904   -4.5066   -0.7452 O   0  0  0  1  0  0  0  0  0  0  0  0
   -1.4954   -2.8330   -1.9070 N   0  0  0  1  0  0  0  0  0  0  0  0
   -0.4495   -3.6547   -2.1966 C   0  0  0  1  0  0  0  0  0  0  0  0
   -0.4707   -4.6762   -2.0029 H   0  0  0  1  0  0  0  0  0  0  0  0
    0.5820   -3.0638   -2.7358 N   0  0  0  1  0  0  0  0  0  0  0  0
    0.1883   -1.7374   -2.8214 C   0  0  0  1  0  0  0  0  0  0  0  0
    0.7957   -0.5727   -3.2810 C   0  0  0  1  0  0  0  0  0  0  0  0
    0.1336    0.5879   -3.2227 N   0  0  0  1  0  0  0  0  0  0  0  0
   -1.1036    0.5811   -2.7019 C   0  0  0  1  0  0  0  0  0  0  0  0
   -1.5834    1.5033   -2.6704 H   0  0  0  1  0  0  0  0  0  0  0  0
   -1.7973   -0.4436   -2.2216 N   0  0  0  1  0  0  0  0  0  0  0  0
   -1.1065   -1.5812   -2.3086 C   0  0  0  1  0  0  0  0  0  0  0  0
    2.0666   -0.6147   -3.7909 N   0  0  0  1  0  0  0  0  0  0  0  0
    2.5237   -1.4750   -3.8973 H   0  0  0  1  0  0  0  0  0  0  0  0
    2.5186    0.2156   -4.0492 H   0  0  0  1  0  0  0  0  0  0  0  0
   -3.6438   -2.3217   -3.3834 O   0  0  0  1  0  0  0  0  0  0  0  0
   -4.3690   -2.3584   -4.0113 H   0  0  0  1  0  0  0  0  0  0  0  0
   -2.6506   -4.7924   -3.8112 O   0  0  0  1  0  0  0  0  0  0  0  0
   -2.7905   -4.5670   -5.4296 P   0  0  0  1  0  0  0  0  0  0  0  0
   -3.9126   -5.3937   -5.9275 O   0  0  0  1  0  0  0  0  0  0  0  0
   -3.2059   -3.0051   -5.5406 O   0  5  0  1  0  0  0  0  0  0  0  0
   -1.3455   -4.8509   -6.1046 O   0  5  0  1  0  0  0  0  0  0  0  0
   -1.2982  -10.8361   -7.0706 C   0  0  0  1  0  0  0  0  0  0  0  0
   -1.9798  -11.4566   -6.5273 H   0  0  0  1  0  0  0  0  0  0  0  0
   -0.3697  -11.7809   -7.8083 C   0  0  0  1  0  0  0  0  0  0  0  0
    0.1400  -11.4657   -8.8828 O   0  0  0  1  0  0  0  0  0  0  0  0
   -0.1499  -12.9597   -7.2162 N   0  0  0  1  0  0  0  0  0  0  0  0
   -0.6478  -13.1797   -6.4013 H   0  0  0  1  0  0  0  0  0  0  0  0
    0.8021  -13.9262   -7.7394 C   0  0  0  1  0  0  0  0  0  0  0  0
    1.6915  -13.8874   -7.1457 H   0  0  0  1  0  0  0  0  0  0  0  0
    1.0358  -13.6647   -8.7503 H   0  0  0  1  0  0  0  0  0  0  0  0
    0.2628  -15.3471   -7.7161 C   0  0  0  1  0  0  0  0  0  0  0  0
    0.0452  -15.5903   -6.6971 H   0  0  0  1  0  0  0  0  0  0  0  0
    1.0376  -15.9896   -8.0790 H   0  0  0  1  0  0  0  0  0  0  0  0
   -0.9845  -15.6370   -8.5280 C   0  0  0  1  0  0  0  0  0  0  0  0
   -1.5766  -14.7426   -9.1300 O   0  0  0  1  0  0  0  0  0  0  0  0
   -1.3873  -16.9176   -8.5411 N   0  0  0  1  0  0  0  0  0  0  0  0
   -0.8333  -17.5922   -8.0958 H   0  0  0  1  0  0  0  0  0  0  0  0
   -2.6179  -17.3388   -9.1938 C   0  0  0  1  0  0  0  0  0  0  0  0
   -3.1557  -16.4681   -9.5063 H   0  0  0  1  0  0  0  0  0  0  0  0
   -3.2075  -17.8896   -8.4910 H   0  0  0  1  0  0  0  0  0  0  0  0
   -2.3648  -18.2094  -10.3996 C   0  0  0  1  0  0  0  0  0  0  0  0
   -1.9605  -19.1392  -10.0579 H   0  0  0  1  0  0  0  0  0  0  0  0
   -1.6475  -17.7147  -11.0206 H   0  0  0  1  0  0  0  0  0  0  0  0
   -3.8237  -18.5691  -11.4062 S   0  0  0  1  0  0  0  0  0  0  0  0
   -4.3348  -16.9657  -11.9072 C   0  0  0  1  0  0  0  0  0  0  0  0
   -3.7971  -15.9325  -11.5823 O   0  0  0  1  0  0  0  0  0  0  0  0
   -5.5442  -16.9873  -12.8091 C   0  0  0  1  0  0  0  0  0  0  0  0
   -6.1085  -17.8737  -12.6073 H   0  0  0  1  0  0  0  0  0  0  0  0
   -5.2145  -16.9978  -13.8270 H   0  0  0  1  0  0  0  0  0  0  0  0
   -6.4334  -15.7879  -12.5995 C   0  0  0  1  0  0  0  0  0  0  0  0
   -6.7045  -15.0504  -13.5328 O   0  0  0  1  0  0  0  0  0  0  0  0
   -6.9627  -15.5256  -11.2647 C   0  0  0  1  0  0  0  0  0  0  0  0
   -6.6127  -16.1429  -10.5044 H   0  0  0  1  0  0  0  0  0  0  0  0
   -7.8402  -14.5904  -10.9032 C   0  0  0  1  0  0  0  0  0  0  0  0
   -8.4003  -14.0990  -11.6287 H   0  0  0  1  0  0  0  0  0  0  0  0
   -8.0225  -14.2468   -9.4752 C   0  0  0  1  0  0  0  0  0  0  0  0
   -7.4196  -14.9775   -8.4689 C   0  0  0  1  0  0  0  0  0  0  0  0
   -6.8224  -15.7952   -8.7061 H   0  0  0  1  0  0  0  0  0  0  0  0
   -7.6108  -14.6202   -7.1432 C   0  0  0  1  0  0  0  0  0  0  0  0
   -8.4087  -13.5367   -6.8275 C   0  0  0  1  0  0  0  0  0  0  0  0
   -9.0134  -12.8040   -7.8370 C   0  0  0  1  0  0  0  0  0  0  0  0
   -9.6105  -11.9862   -7.5998 H   0  0  0  1  0  0  0  0  0  0  0  0
   -8.8228  -13.1601   -9.1588 C   0  0  0  1  0  0  0  0  0  0  0  0
   -9.2797  -12.6127   -9.9160 H   0  0  0  1  0  0  0  0  0  0  0  0
   -8.6718  -13.0977   -5.5675 O   0  5  0  1  0  0  0  0  0  0  0  0
   -7.0700  -15.2547   -6.0761 O   0  0  0  1  0  0  0  0  0  0  0  0
   -6.4112  -16.5070   -6.3219 C   0  0  0  1  0  0  0  0  0  0  0  0
   -6.6017  -17.1763   -5.5091 H   0  0  0  1  0  0  0  0  0  0  0  0
   -5.3574  -16.3440   -6.4099 H   0  0  0  1  0  0  0  0  0  0  0  0
   -6.7837  -16.9336   -7.2297 H   0  0  0  1  0  0  0  0  0  0  0  0
   -0.6410  -10.0051   -6.1300 O   0  0  0  1  0  0  0  0  0  0  0  0
   -0.3569   -9.1957   -6.5610 H   0  0  0  1  0  0  0  0  0  0  0  0
  1  2  1  0  0  0  0
  1  3  1  0  0  0  0
  1  4  1  0  0  0  0
  1  5  1  0  0  0  0
  5  6  1  0  0  0  0
  5 10  1  0  0  0  0
  5 55  1  0  0  0  0
  6  7  1  0  0  0  0
  6  8  1  0  0  0  0
  6  9  1  0  0  0  0
 10 11  1  0  0  0  0
 10 12  1  0  0  0  0
 10 13  1  0  0  0  0
 13 14  1  0  0  0  0
 14 15  2  0  0  0  0
 14 16  1  0  0  0  0
 14 17  1  0  0  0  0
 17 18  1  0  0  0  0
 18 19  1  0  0  0  0
 18 20  2  0  0  0  0
 18 21  1  0  0  0  0
 21 22  1  0  0  0  0
 22 23  1  0  0  0  0
 22 24  1  0  0  0  0
 22 25  1  0  0  0  0
 25 26  1  0  0  0  0
 25 27  1  0  0  0  0
 25 33  1  0  0  0  0
 27 28  1  0  0  0  0
 27 29  1  0  0  0  0
 27 50  1  0  0  0  0
 29 30  1  0  0  0  0
 29 31  1  0  0  0  0
 29 48  1  0  0  0  0
 31 32  1  0  0  0  0
 31 33  1  0  0  0  0
 31 34  1  0  0  0  0
 34 35  1  0  0  0  0
 34 44  1  0  0  0  0
 35 36  1  0  0  0  0
 35 37  2  0  0  0  0
 37 38  1  0  0  0  0
 38 39  1  0  0  0  0
 38 44  2  0  0  0  0
 39 40  2  0  0  0  0
 39 45  1  0  0  0  0
 40 41  1  0  0  0  0
 41 42  1  0  0  0  0
 41 43  2  0  0  0  0
 43 44  1  0  0  0  0
 45 46  1  0  0  0  0
 45 47  1  0  0  0  0
 48 49  1  0  0  0  0
 50 51  1  0  0  0  0
 51 52  2  0  0  0  0
 51 53  1  0  0  0  0
 51 54  1  0  0  0  0
 55 56  1  0  0  0  0
 55 57  1  0  0  0  0
 55104  1  0  0  0  0
 57 58  2  0  0  0  0
 57 59  1  0  0  0  0
 59 60  1  0  0  0  0
 59 61  1  0  0  0  0
 61 62  1  0  0  0  0
 61 63  1  0  0  0  0
 61 64  1  0  0  0  0
 64 65  1  0  0  0  0
 64 66  1  0  0  0  0
 64 67  1  0  0  0  0
 67 68  2  0  0  0  0
 67 69  1  0  0  0  0
 69 70  1  0  0  0  0
 69 71  1  0  0  0  0
 71 72  1  0  0  0  0
 71 73  1  0  0  0  0
 71 74  1  0  0  0  0
 74 75  1  0  0  0  0
 74 76  1  0  0  0  0
 74 77  1  0  0  0  0
 77 78  1  0  0  0  0
 78 79  2  0  0  0  0
 78 80  1  0  0  0  0
 80 81  1  0  0  0  0
 80 82  1  0  0  0  0
 80 83  1  0  0  0  0
 83 84  2  0  0  0  0
 83 85  1  0  0  0  0
 85 86  1  0  0  0  0
 85 87  2  0  0  0  0
 87 88  1  0  0  0  0
 87 89  1  0  0  0  0
 89 90  2  0  0  0  0
 89 96  1  0  0  0  0
 90 91  1  0  0  0  0
 90 92  1  0  0  0  0
 92 93  2  0  0  0  0
 92 99  1  0  0  0  0
 93 94  1  0  0  0  0
 93 98  1  0  0  0  0
 94 95  1  0  0  0  0
 94 96  2  0  0  0  0
 96 97  1  0  0  0  0
 99100  1  0  0  0  0
100101  1  0  0  0  0
100102  1  0  0  0  0
100103  1  0  0  0  0
104105  1  0  0  0  0
M  BCL ATM C_TeTeTeTe H_S H_S H_S C_TeTeTeTe C_TeTeTeTe H_S H_S H_S C_TeTeTeTe H_S H_S O_Tr2TrTrPi2 P_TeTeTeTePi O_Tr2Tr2TrPi O_Te2Te2Te2Te O_Tr2TrTrPi2 P_TeTeTeTePi O_Te2Te2TeTe O_Tr2Tr2TrPi O_Tr2TrTrPi2 C_TeTeTeTe H_S H_S C_TeTeTeTe H_S C_TeTeTeTe H_S C_TeTeTeTe H_S C_TeTeTeTe H_S O_Te2Te2TeTe N_TrTrTrPi2 C_TrTrTrPi H_S N_Tr2TrTrPi C_TrTrTrPi C_TrTrTrPi N_Tr2TrTrPi C_TrTrTrPi H_S N_Tr2TrTrPi C_TrTrTrPi N_TrTrTrPi2 H_S H_S O_Te2Te2TeTe H_S O_Tr2TrTrPi2 P_TeTeTeTePi O_Tr2Tr2TrPi O_Te2Te2Te2Te O_Te2Te2Te2Te C_TeTeTeTe H_S C_TrTrTrPi O_Tr2Tr2TrPi N_TrTrTrPi2 H_S C_TeTeTeTe H_S H_S C_TeTeTeTe H_S H_S C_TrTrTrPi O_Tr2Tr2TrPi N_TrTrTrPi2 H_S C_TeTeTeTe H_S H_S C_TeTeTeTe H_S H_S S_Te2Te2TeTe C_TrTrTrPi O_Tr2Tr2TrPi C_TeTeTeTe H_S H_S C_TrTrTrPi O_Tr2Tr2TrPi C_TrTrTrPi H_S C_TrTrTrPi H_S C_TrTrTrPi C_TrTrTrPi H_S C_TrTrTrPi C_TrTrTrPi C_TrTrTrPi H_S C_TrTrTrPi H_S O_Te2Te2Te2Te O_Tr2TrTrPi2 C_TeTeTeTe H_S H_S H_S O_Te2Te2TeTe H_S
M  BCL BND NonConjugatedSingleBond NonConjugatedSingleBond NonConjugatedSingleBond NonConjugatedSingleBond NonConjugatedSingleBond NonConjugatedSingleBond NonConjugatedSingleBond NonConjugatedSingleBond NonConjugatedSingleBond NonConjugatedSingleBond NonConjugatedSingleBond NonConjugatedSingleBond NonConjugatedSingleBond ConjugatedSingleBond ConjugatedDoubleBond ConjugatedSingleBond ConjugatedSingleBond ConjugatedSingleBond ConjugatedSingleBond ConjugatedDoubleBond ConjugatedSingleBond NonConjugatedSingleBond NonConjugatedSingleBond NonConjugatedSingleBond NonConjugatedSingleBond NonConjugatedSingleBond NonConjugatedSingleBondInRing NonConjugatedSingleBondInRing NonConjugatedSingleBond NonConjugatedSingleBondInRing NonConjugatedSingleBond NonConjugatedSingleBond NonConjugatedSingleBondInRing NonConjugatedSingleBond NonConjugatedSingleBond NonConjugatedSingleBondInRing NonConjugatedSingleBond AromaticSingleBond AromaticSingleBond NonConjugatedSingleBond AromaticDoubleBond AromaticSingleBond AromaticSingleBond AromaticDoubleBond AromaticDoubleBond ConjugatedSingleBond AromaticSingleBond NonConjugatedSingleBond AromaticDoubleBond AromaticSingleBond NonConjugatedSingleBond NonConjugatedSingleBond NonConjugatedSingleBond ConjugatedSingleBond ConjugatedDoubleBond ConjugatedSingleBond ConjugatedSingleBond NonConjugatedSingleBond NonConjugatedSingleBond NonConjugatedSingleBond ConjugatedDoubleBond AmideSingleBond NonConjugatedSingleBond NonConjugatedSingleBond NonConjugatedSingleBond NonConjugatedSingleBond NonConjugatedSingleBond NonConjugatedSingleBond NonConjugatedSingleBond NonConjugatedSingleBond ConjugatedDoubleBond AmideSingleBond NonConjugatedSingleBond NonConjugatedSingleBond NonConjugatedSingleBond NonConjugatedSingleBond NonConjugatedSingleBond NonConjugatedSingleBond NonConjugatedSingleBond NonConjugatedSingleBond ConjugatedSingleBond ConjugatedDoubleBond NonConjugatedSingleBond NonConjugatedSingleBond NonConjugatedSingleBond NonConjugatedSingleBond ConjugatedDoubleBond ConjugatedSingleBond NonConjugatedSingleBond ConjugatedDoubleBond NonConjugatedSingleBond ConjugatedSingleBond AromaticDoubleBond AromaticSingleBond NonConjugatedSingleBond AromaticSingleBond AromaticDoubleBond ConjugatedSingleBond AromaticSingleBond ConjugatedSingleBond NonConjugatedSingleBond AromaticDoubleBond NonConjugatedSingleBond NonConjugatedSingleBond NonConjugatedSingleBond NonConjugatedSingleBond NonConjugatedSingleBond NonConjugatedSingleBond
M  BCL CHI  14   R  18   S  25   R  27   R  29   R  31   S  55   R
M  BCL DBI - - - - - - - - - - - E - - -
M  END
> <ConfClashScore>
0 

> <ConfOneFourInteractionScore>
-0.974796 

> <ConfScore>
0.0319598 

> <ConfScorePBest>
0.0138625 

> <ConfTolerance>
3.09471 

$$$$
L03.****
  PyMOL2.5          3D                             0

105108  0  0  0  0  0  0  0  0999 V2000
   -0.9422   -5.8041    3.9408 C   0  0  0  1  0  0  0  0  0  0  0  0
   -0.9945   -4.8250    4.3693 H   0  0  0  1  0  0  0  0  0  0  0  0
   -0.3017   -6.4202    4.5367 H   0  0  0  1  0  0  0  0  0  0  0  0
   -1.9222   -6.2324    3.9100 H   0  0  0  1  0  0  0  0  0  0  0  0
   -0.3807   -5.7104    2.5171 C   0  0  0  1  0  0  0  0  0  0  0  0
   -1.5277   -5.3656    1.5621 C   0  0  0  1  0  0  0  0  0  0  0  0
   -1.8899   -4.3824    1.7791 H   0  0  0  1  0  0  0  0  0  0  0  0
   -2.3205   -6.0732    1.6871 H   0  0  0  1  0  0  0  0  0  0  0  0
   -1.1738   -5.4003    0.5529 H   0  0  0  1  0  0  0  0  0  0  0  0
    0.2026   -6.9893    2.0683 C   0  0  0  1  0  0  0  0  0  0  0  0
   -0.5333   -7.7614    2.1536 H   0  0  0  1  0  0  0  0  0  0  0  0
    1.0441   -7.2283    2.6846 H   0  0  0  1  0  0  0  0  0  0  0  0
    0.6345   -6.8918    0.6873 O   0  0  0  1  0  0  0  0  0  0  0  0
   -0.0527   -7.7536   -0.4357 P   0  0  0  1  0  0  0  0  0  0  0  0
   -1.3274   -7.7164    0.3154 O   0  0  0  1  0  0  0  0  0  0  0  0
    0.9916   -6.6593   -1.0155 O   0  5  0  1  0  0  0  0  0  0  0  0
   -0.7535   -8.6318   -1.5797 O   0  0  0  1  0  0  0  0  0  0  0  0
   -2.2963   -9.0350   -1.7854 P   0  0  0  1  0  0  0  0  0  0  0  0
   -2.5769  -10.1029   -0.8091 O   0  0  0  0  0  0  0  0  0  0  0  0
   -2.6096   -9.1910   -3.2141 O   0  0  0  1  0  0  0  0  0  0  0  0
   -3.0471   -7.7159   -1.3702 O   0  0  0  1  0  0  0  0  0  0  0  0
   -3.0635   -6.5620   -2.2484 C   0  0  0  1  0  0  0  0  0  0  0  0
   -3.6115   -6.7895   -3.1388 H   0  0  0  1  0  0  0  0  0  0  0  0
   -2.0624   -6.2857   -2.5059 H   0  0  0  1  0  0  0  0  0  0  0  0
   -3.7378   -5.4252   -1.5029 C   0  0  0  1  0  0  0  0  0  0  0  0
   -4.4375   -5.8250   -0.7990 H   0  0  0  1  0  0  0  0  0  0  0  0
   -4.4485   -4.5300   -2.4746 C   0  0  0  1  0  0  0  0  0  0  0  0
   -5.4921   -4.4969   -2.2409 H   0  0  0  1  0  0  0  0  0  0  0  0
   -3.8576   -3.1565   -2.3586 C   0  0  0  1  0  0  0  0  0  0  0  0
   -4.6151   -2.4586   -2.0687 H   0  0  0  1  0  0  0  0  0  0  0  0
   -2.7808   -3.2021   -1.3146 C   0  0  0  1  0  0  0  0  0  0  0  0
   -3.0173   -2.5264   -0.5194 H   0  0  0  1  0  0  0  0  0  0  0  0
   -2.7071   -4.6046   -0.7860 O   0  0  0  1  0  0  0  0  0  0  0  0
   -1.4972   -2.8273   -1.9086 N   0  0  0  1  0  0  0  0  0  0  0  0
   -0.4414   -3.6521   -2.1911 C   0  0  0  1  0  0  0  0  0  0  0  0
   -0.4579   -4.6736   -1.9965 H   0  0  0  1  0  0  0  0  0  0  0  0
    0.5875   -3.0517   -2.7244 N   0  0  0  1  0  0  0  0  0  0  0  0
    0.1851   -1.7331   -2.7983 C   0  0  0  1  0  0  0  0  0  0  0  0
    0.7991   -0.5717   -3.2738 C   0  0  0  1  0  0  0  0  0  0  0  0
    0.1425    0.5918   -3.2131 N   0  0  0  1  0  0  0  0  0  0  0  0
   -1.1078    0.5815   -2.7038 C   0  0  0  1  0  0  0  0  0  0  0  0
   -1.5924    1.5014   -2.6817 H   0  0  0  1  0  0  0  0  0  0  0  0
   -1.8033   -0.4473   -2.2266 N   0  0  0  1  0  0  0  0  0  0  0  0
   -1.0973   -1.5772   -2.2999 C   0  0  0  1  0  0  0  0  0  0  0  0
    2.0637   -0.6243   -3.7980 N   0  0  0  1  0  0  0  0  0  0  0  0
    2.4868    0.1909   -4.1398 H   0  0  0  1  0  0  0  0  0  0  0  0
    2.5452   -1.4772   -3.8313 H   0  0  0  1  0  0  0  0  0  0  0  0
   -3.3046   -2.7643   -3.6029 O   0  0  0  1  0  0  0  0  0  0  0  0
   -4.0039   -2.6953   -4.2569 H   0  0  0  1  0  0  0  0  0  0  0  0
   -4.2720   -5.0249   -3.8116 O   0  0  0  1  0  0  0  0  0  0  0  0
   -5.3812   -4.9207   -5.0151 P   0  0  0  1  0  0  0  0  0  0  0  0
   -6.2774   -3.7790   -4.7258 O   0  0  0  1  0  0  0  0  0  0  0  0
   -4.6167   -4.7971   -6.4380 O   0  5  0  1  0  0  0  0  0  0  0  0
   -6.1663   -6.3343   -4.9165 O   0  5  0  1  0  0  0  0  0  0  0  0
    0.6638   -4.5888    2.4719 C   0  0  0  1  0  0  0  0  0  0  0  0
    0.3078   -3.7919    3.0909 H   0  0  0  1  0  0  0  0  0  0  0  0
    1.9609   -5.0928    3.0742 C   0  0  0  1  0  0  0  0  0  0  0  0
    2.0073   -5.5142    4.2291 O   0  0  0  1  0  0  0  0  0  0  0  0
    3.0344   -5.0460    2.2695 N   0  0  0  1  0  0  0  0  0  0  0  0
    2.9557   -4.5978    1.4015 H   0  0  0  1  0  0  0  0  0  0  0  0
    4.3110   -5.6376    2.6413 C   0  0  0  1  0  0  0  0  0  0  0  0
    4.1548   -6.6511    2.9469 H   0  0  0  1  0  0  0  0  0  0  0  0
    4.7353   -5.0817    3.4512 H   0  0  0  1  0  0  0  0  0  0  0  0
    5.2670   -5.6116    1.4600 C   0  0  0  1  0  0  0  0  0  0  0  0
    6.2491   -5.8503    1.8113 H   0  0  0  1  0  0  0  0  0  0  0  0
    5.2665   -4.6262    1.0431 H   0  0  0  1  0  0  0  0  0  0  0  0
    4.8916   -6.5969    0.3702 C   0  0  0  1  0  0  0  0  0  0  0  0
    4.7549   -7.7951    0.6124 O   0  0  0  1  0  0  0  0  0  0  0  0
    4.7226   -6.0752   -0.8543 N   0  0  0  1  0  0  0  0  0  0  0  0
    4.9328   -5.1289   -0.9984 H   0  0  0  1  0  0  0  0  0  0  0  0
    4.2379   -6.8656   -1.9760 C   0  0  0  1  0  0  0  0  0  0  0  0
    3.2064   -7.0976   -1.8116 H   0  0  0  1  0  0  0  0  0  0  0  0
    4.8042   -7.7721   -2.0267 H   0  0  0  1  0  0  0  0  0  0  0  0
    4.3670   -6.1383   -3.2978 C   0  0  0  1  0  0  0  0  0  0  0  0
    5.4029   -5.9234   -3.4579 H   0  0  0  1  0  0  0  0  0  0  0  0
    3.8190   -5.2221   -3.2267 H   0  0  0  1  0  0  0  0  0  0  0  0
    3.7547   -7.0471   -4.7366 S   0  0  0  1  0  0  0  0  0  0  0  0
    2.0670   -7.3755   -4.2847 C   0  0  0  1  0  0  0  0  0  0  0  0
    1.5835   -7.0398   -3.2374 O   0  0  0  1  0  0  0  0  0  0  0  0
    1.3201   -8.1198   -5.3640 C   0  0  0  1  0  0  0  0  0  0  0  0
    1.7706   -9.0816   -5.4938 H   0  0  0  1  0  0  0  0  0  0  0  0
    1.3915   -7.5659   -6.2767 H   0  0  0  1  0  0  0  0  0  0  0  0
   -0.1364   -8.3082   -5.0234 C   0  0  0  1  0  0  0  0  0  0  0  0
   -0.5379   -8.0945   -3.8914 O   0  0  0  1  0  0  0  0  0  0  0  0
   -1.0542   -8.7489   -6.0677 C   0  0  0  1  0  0  0  0  0  0  0  0
   -2.0449   -8.9373   -5.8138 H   0  0  0  1  0  0  0  0  0  0  0  0
   -0.6756   -8.9201   -7.3337 C   0  0  0  1  0  0  0  0  0  0  0  0
    0.3233   -8.7206   -7.5435 H   0  0  0  1  0  0  0  0  0  0  0  0
   -1.5064   -9.3605   -8.4784 C   0  0  0  1  0  0  0  0  0  0  0  0
   -2.7927   -9.8129   -8.2526 C   0  0  0  1  0  0  0  0  0  0  0  0
   -3.1698   -9.8463   -7.2840 H   0  0  0  1  0  0  0  0  0  0  0  0
   -3.5801  -10.2223   -9.3175 C   0  0  0  1  0  0  0  0  0  0  0  0
   -3.0772  -10.1830  -10.6043 C   0  0  0  1  0  0  0  0  0  0  0  0
   -1.7870   -9.7293  -10.8305 C   0  0  0  1  0  0  0  0  0  0  0  0
   -1.4099   -9.6959  -11.7991 H   0  0  0  1  0  0  0  0  0  0  0  0
   -1.0018   -9.3211   -9.7688 C   0  0  0  1  0  0  0  0  0  0  0  0
   -0.0325   -8.9844   -9.9381 H   0  0  0  1  0  0  0  0  0  0  0  0
   -3.9368  -10.6132  -11.5664 O   0  5  0  1  0  0  0  0  0  0  0  0
   -4.8717  -10.5692   -9.1045 O   0  0  0  1  0  0  0  0  0  0  0  0
   -5.3199  -10.6249   -7.7412 C   0  0  0  1  0  0  0  0  0  0  0  0
   -5.1890   -9.6669   -7.2828 H   0  0  0  1  0  0  0  0  0  0  0  0
   -4.7492  -11.3561   -7.2080 H   0  0  0  1  0  0  0  0  0  0  0  0
   -6.3555  -10.8930   -7.7172 H   0  0  0  1  0  0  0  0  0  0  0  0
    0.8387   -4.1069    1.1542 O   0  0  0  1  0  0  0  0  0  0  0  0
    0.3814   -4.6843    0.5385 H   0  0  0  1  0  0  0  0  0  0  0  0
  1  2  1  0  0  0  0
  1  3  1  0  0  0  0
  1  4  1  0  0  0  0
  1  5  1  0  0  0  0
  5  6  1  0  0  0  0
  5 10  1  0  0  0  0
  5 55  1  0  0  0  0
  6  7  1  0  0  0  0
  6  8  1  0  0  0  0
  6  9  1  0  0  0  0
 10 11  1  0  0  0  0
 10 12  1  0  0  0  0
 10 13  1  0  0  0  0
 13 14  1  0  0  0  0
 14 15  2  0  0  0  0
 14 16  1  0  0  0  0
 14 17  1  0  0  0  0
 17 18  1  0  0  0  0
 18 19  1  0  0  0  0
 18 20  2  0  0  0  0
 18 21  1  0  0  0  0
 21 22  1  0  0  0  0
 22 23  1  0  0  0  0
 22 24  1  0  0  0  0
 22 25  1  0  0  0  0
 25 26  1  0  0  0  0
 25 27  1  0  0  0  0
 25 33  1  0  0  0  0
 27 28  1  0  0  0  0
 27 29  1  0  0  0  0
 27 50  1  0  0  0  0
 29 30  1  0  0  0  0
 29 31  1  0  0  0  0
 29 48  1  0  0  0  0
 31 32  1  0  0  0  0
 31 33  1  0  0  0  0
 31 34  1  0  0  0  0
 34 35  1  0  0  0  0
 34 44  1  0  0  0  0
 35 36  1  0  0  0  0
 35 37  2  0  0  0  0
 37 38  1  0  0  0  0
 38 39  1  0  0  0  0
 38 44  2  0  0  0  0
 39 40  2  0  0  0  0
 39 45  1  0  0  0  0
 40 41  1  0  0  0  0
 41 42  1  0  0  0  0
 41 43  2  0  0  0  0
 43 44  1  0  0  0  0
 45 46  1  0  0  0  0
 45 47  1  0  0  0  0
 48 49  1  0  0  0  0
 50 51  1  0  0  0  0
 51 52  2  0  0  0  0
 51 53  1  0  0  0  0
 51 54  1  0  0  0  0
 55 56  1  0  0  0  0
 55 57  1  0  0  0  0
 55104  1  0  0  0  0
 57 58  2  0  0  0  0
 57 59  1  0  0  0  0
 59 60  1  0  0  0  0
 59 61  1  0  0  0  0
 61 62  1  0  0  0  0
 61 63  1  0  0  0  0
 61 64  1  0  0  0  0
 64 65  1  0  0  0  0
 64 66  1  0  0  0  0
 64 67  1  0  0  0  0
 67 68  2  0  0  0  0
 67 69  1  0  0  0  0
 69 70  1  0  0  0  0
 69 71  1  0  0  0  0
 71 72  1  0  0  0  0
 71 73  1  0  0  0  0
 71 74  1  0  0  0  0
 74 75  1  0  0  0  0
 74 76  1  0  0  0  0
 74 77  1  0  0  0  0
 77 78  1  0  0  0  0
 78 79  2  0  0  0  0
 78 80  1  0  0  0  0
 80 81  1  0  0  0  0
 80 82  1  0  0  0  0
 80 83  1  0  0  0  0
 83 84  2  0  0  0  0
 83 85  1  0  0  0  0
 85 86  1  0  0  0  0
 85 87  2  0  0  0  0
 87 88  1  0  0  0  0
 87 89  1  0  0  0  0
 89 90  2  0  0  0  0
 89 96  1  0  0  0  0
 90 91  1  0  0  0  0
 90 92  1  0  0  0  0
 92 93  2  0  0  0  0
 92 99  1  0  0  0  0
 93 94  1  0  0  0  0
 93 98  1  0  0  0  0
 94 95  1  0  0  0  0
 94 96  2  0  0  0  0
 96 97  1  0  0  0  0
 99100  1  0  0  0  0
100101  1  0  0  0  0
100102  1  0  0  0  0
100103  1  0  0  0  0
104105  1  0  0  0  0
M  BCL ATM C_TeTeTeTe H_S H_S H_S C_TeTeTeTe C_TeTeTeTe H_S H_S H_S C_TeTeTeTe H_S H_S O_Tr2TrTrPi2 P_TeTeTeTePi O_Tr2Tr2TrPi O_Te2Te2Te2Te O_Tr2TrTrPi2 P_TeTeTeTePi O_Te2Te2TeTe O_Tr2Tr2TrPi O_Tr2TrTrPi2 C_TeTeTeTe H_S H_S C_TeTeTeTe H_S C_TeTeTeTe H_S C_TeTeTeTe H_S C_TeTeTeTe H_S O_Te2Te2TeTe N_TrTrTrPi2 C_TrTrTrPi H_S N_Tr2TrTrPi C_TrTrTrPi C_TrTrTrPi N_Tr2TrTrPi C_TrTrTrPi H_S N_Tr2TrTrPi C_TrTrTrPi N_TrTrTrPi2 H_S H_S O_Te2Te2TeTe H_S O_Tr2TrTrPi2 P_TeTeTeTePi O_Tr2Tr2TrPi O_Te2Te2Te2Te O_Te2Te2Te2Te C_TeTeTeTe H_S C_TrTrTrPi O_Tr2Tr2TrPi N_TrTrTrPi2 H_S C_TeTeTeTe H_S H_S C_TeTeTeTe H_S H_S C_TrTrTrPi O_Tr2Tr2TrPi N_TrTrTrPi2 H_S C_TeTeTeTe H_S H_S C_TeTeTeTe H_S H_S S_Te2Te2TeTe C_TrTrTrPi O_Tr2Tr2TrPi C_TeTeTeTe H_S H_S C_TrTrTrPi O_Tr2Tr2TrPi C_TrTrTrPi H_S C_TrTrTrPi H_S C_TrTrTrPi C_TrTrTrPi H_S C_TrTrTrPi C_TrTrTrPi C_TrTrTrPi H_S C_TrTrTrPi H_S O_Te2Te2Te2Te O_Tr2TrTrPi2 C_TeTeTeTe H_S H_S H_S O_Te2Te2TeTe H_S
M  BCL BND NonConjugatedSingleBond NonConjugatedSingleBond NonConjugatedSingleBond NonConjugatedSingleBond NonConjugatedSingleBond NonConjugatedSingleBond NonConjugatedSingleBond NonConjugatedSingleBond NonConjugatedSingleBond NonConjugatedSingleBond NonConjugatedSingleBond NonConjugatedSingleBond NonConjugatedSingleBond ConjugatedSingleBond ConjugatedDoubleBond ConjugatedSingleBond ConjugatedSingleBond ConjugatedSingleBond ConjugatedSingleBond ConjugatedDoubleBond ConjugatedSingleBond NonConjugatedSingleBond NonConjugatedSingleBond NonConjugatedSingleBond NonConjugatedSingleBond NonConjugatedSingleBond NonConjugatedSingleBondInRing NonConjugatedSingleBondInRing NonConjugatedSingleBond NonConjugatedSingleBondInRing NonConjugatedSingleBond NonConjugatedSingleBond NonConjugatedSingleBondInRing NonConjugatedSingleBond NonConjugatedSingleBond NonConjugatedSingleBondInRing NonConjugatedSingleBond AromaticSingleBond AromaticSingleBond NonConjugatedSingleBond AromaticDoubleBond AromaticSingleBond AromaticSingleBond AromaticDoubleBond AromaticDoubleBond ConjugatedSingleBond AromaticSingleBond NonConjugatedSingleBond AromaticDoubleBond AromaticSingleBond NonConjugatedSingleBond NonConjugatedSingleBond NonConjugatedSingleBond ConjugatedSingleBond ConjugatedDoubleBond ConjugatedSingleBond ConjugatedSingleBond NonConjugatedSingleBond NonConjugatedSingleBond NonConjugatedSingleBond ConjugatedDoubleBond AmideSingleBond NonConjugatedSingleBond NonConjugatedSingleBond NonConjugatedSingleBond NonConjugatedSingleBond NonConjugatedSingleBond NonConjugatedSingleBond NonConjugatedSingleBond NonConjugatedSingleBond ConjugatedDoubleBond AmideSingleBond NonConjugatedSingleBond NonConjugatedSingleBond NonConjugatedSingleBond NonConjugatedSingleBond NonConjugatedSingleBond NonConjugatedSingleBond NonConjugatedSingleBond NonConjugatedSingleBond ConjugatedSingleBond ConjugatedDoubleBond NonConjugatedSingleBond NonConjugatedSingleBond NonConjugatedSingleBond NonConjugatedSingleBond ConjugatedDoubleBond ConjugatedSingleBond NonConjugatedSingleBond ConjugatedDoubleBond NonConjugatedSingleBond ConjugatedSingleBond AromaticDoubleBond AromaticSingleBond NonConjugatedSingleBond AromaticSingleBond AromaticDoubleBond ConjugatedSingleBond AromaticSingleBond ConjugatedSingleBond NonConjugatedSingleBond AromaticDoubleBond NonConjugatedSingleBond NonConjugatedSingleBond NonConjugatedSingleBond NonConjugatedSingleBond NonConjugatedSingleBond NonConjugatedSingleBond
M  BCL CHI  14   R  18   S  25   R  27   R  29   R  31   S  55   R
M  BCL DBI - - - - - - - - - - - E - - -
M  END
> <ConfClashScore>
0 

> <ConfOneFourInteractionScore>
-0.968871 

> <ConfScore>
0.0320277 

> <ConfScorePBest>
0.0137595 

> <ConfTolerance>
2.92986 

$$$$
L03.****
  PyMOL2.5          3D                             0

105108  0  0  0  0  0  0  0  0999 V2000
   -4.3486  -10.5987    1.9860 C   0  0  0  1  0  0  0  0  0  0  0  0
   -4.8113  -10.6198    2.9506 H   0  0  0  1  0  0  0  0  0  0  0  0
   -5.0530  -10.9162    1.2458 H   0  0  0  1  0  0  0  0  0  0  0  0
   -4.0254   -9.6023    1.7675 H   0  0  0  1  0  0  0  0  0  0  0  0
   -3.1392  -11.5413    1.9777 C   0  0  0  1  0  0  0  0  0  0  0  0
   -2.5239  -11.5838    3.3815 C   0  0  0  1  0  0  0  0  0  0  0  0
   -1.6439  -12.1924    3.3676 H   0  0  0  1  0  0  0  0  0  0  0  0
   -3.2322  -11.9972    4.0688 H   0  0  0  1  0  0  0  0  0  0  0  0
   -2.2662  -10.5915    3.6879 H   0  0  0  1  0  0  0  0  0  0  0  0
   -2.1191  -10.9986    1.0316 C   0  0  0  1  0  0  0  0  0  0  0  0
   -2.5790  -10.7662    0.0939 H   0  0  0  1  0  0  0  0  0  0  0  0
   -1.3430  -11.7194    0.8799 H   0  0  0  1  0  0  0  0  0  0  0  0
   -1.5679   -9.7977    1.6213 O   0  0  0  1  0  0  0  0  0  0  0  0
   -0.5851   -8.9691    0.7137 P   0  0  0  1  0  0  0  0  0  0  0  0
   -1.6660   -8.7726   -0.2780 O   0  0  0  1  0  0  0  0  0  0  0  0
   -0.3891   -8.6861    2.2967 O   0  5  0  1  0  0  0  0  0  0  0  0
    0.4160   -8.1248   -0.2115 O   0  0  0  1  0  0  0  0  0  0  0  0
    0.4948   -6.5164   -0.3806 P   0  0  0  1  0  0  0  0  0  0  0  0
    1.3325   -6.3058   -1.5976 O   0  0  0  0  0  0  0  0  0  0  0  0
    0.9022   -5.8408    0.8742 O   0  0  0  1  0  0  0  0  0  0  0  0
   -0.9939   -6.0659   -0.6191 O   0  0  0  1  0  0  0  0  0  0  0  0
   -1.9634   -6.1022    0.4588 C   0  0  0  1  0  0  0  0  0  0  0  0
   -1.5034   -5.7909    1.3733 H   0  0  0  1  0  0  0  0  0  0  0  0
   -2.3461   -7.0951    0.5714 H   0  0  0  1  0  0  0  0  0  0  0  0
   -3.0864   -5.1550    0.0986 C   0  0  0  1  0  0  0  0  0  0  0  0
   -3.8704   -5.2389    0.8220 H   0  0  0  1  0  0  0  0  0  0  0  0
   -3.6148   -5.4873   -1.2656 C   0  0  0  1  0  0  0  0  0  0  0  0
   -4.6545   -5.7322   -1.2022 H   0  0  0  1  0  0  0  0  0  0  0  0
   -3.4283   -4.2845   -2.1418 C   0  0  0  1  0  0  0  0  0  0  0  0
   -4.3776   -3.9471   -2.5023 H   0  0  0  1  0  0  0  0  0  0  0  0
   -2.7842   -3.2076   -1.3190 C   0  0  0  1  0  0  0  0  0  0  0  0
   -3.4218   -2.3491   -1.2814 H   0  0  0  1  0  0  0  0  0  0  0  0
   -2.5730   -3.7460    0.0656 O   0  0  0  1  0  0  0  0  0  0  0  0
   -1.4977   -2.8351   -1.9084 N   0  0  0  1  0  0  0  0  0  0  0  0
   -0.4500   -3.6605   -2.1819 C   0  0  0  1  0  0  0  0  0  0  0  0
   -0.4723   -4.6838   -1.9975 H   0  0  0  1  0  0  0  0  0  0  0  0
    0.5961   -3.0468   -2.7016 N   0  0  0  1  0  0  0  0  0  0  0  0
    0.1714   -1.7208   -2.7886 C   0  0  0  1  0  0  0  0  0  0  0  0
    0.8075   -0.5687   -3.2821 C   0  0  0  1  0  0  0  0  0  0  0  0
    0.1209    0.5980   -3.2206 N   0  0  0  1  0  0  0  0  0  0  0  0
   -1.1193    0.5798   -2.7004 C   0  0  0  1  0  0  0  0  0  0  0  0
   -1.6014    1.5009   -2.6740 H   0  0  0  1  0  0  0  0  0  0  0  0
   -1.8229   -0.4423   -2.2135 N   0  0  0  1  0  0  0  0  0  0  0  0
   -1.0964   -1.5751   -2.3015 C   0  0  0  1  0  0  0  0  0  0  0  0
    2.0917   -0.6239   -3.8128 N   0  0  0  1  0  0  0  0  0  0  0  0
    2.5245    0.1944   -4.1346 H   0  0  0  1  0  0  0  0  0  0  0  0
    2.5639   -1.4810   -3.8651 H   0  0  0  1  0  0  0  0  0  0  0  0
   -2.5886   -4.6165   -3.2485 O   0  0  0  1  0  0  0  0  0  0  0  0
   -1.9498   -5.2802   -2.9782 H   0  0  0  1  0  0  0  0  0  0  0  0
   -2.8843   -6.6143   -1.8151 O   0  0  0  1  0  0  0  0  0  0  0  0
   -3.6172   -7.9655   -2.3866 P   0  0  0  1  0  0  0  0  0  0  0  0
   -4.9287   -7.6127   -2.9747 O   0  0  0  1  0  0  0  0  0  0  0  0
   -2.5954   -8.8328   -3.2967 O   0  5  0  1  0  0  0  0  0  0  0  0
   -3.7988   -8.9583   -1.1195 O   0  5  0  1  0  0  0  0  0  0  0  0
   -3.5590  -12.9447    1.5268 C   0  0  0  1  0  0  0  0  0  0  0  0
   -3.8516  -12.8911    0.4990 H   0  0  0  1  0  0  0  0  0  0  0  0
   -2.3868  -13.9069    1.6402 C   0  0  0  1  0  0  0  0  0  0  0  0
   -2.0684  -14.4008    2.7211 O   0  0  0  1  0  0  0  0  0  0  0  0
   -1.7376  -14.1726    0.4956 N   0  0  0  1  0  0  0  0  0  0  0  0
   -1.9809  -13.6480   -0.2956 H   0  0  0  1  0  0  0  0  0  0  0  0
   -0.6996  -15.1808    0.3413 C   0  0  0  1  0  0  0  0  0  0  0  0
   -1.0930  -16.1180    0.6755 H   0  0  0  1  0  0  0  0  0  0  0  0
    0.1301  -14.9019    0.9567 H   0  0  0  1  0  0  0  0  0  0  0  0
   -0.1936  -15.3600   -1.0841 C   0  0  0  1  0  0  0  0  0  0  0  0
    0.3379  -14.4765   -1.3704 H   0  0  0  1  0  0  0  0  0  0  0  0
   -1.0359  -15.4951   -1.7300 H   0  0  0  1  0  0  0  0  0  0  0  0
    0.7416  -16.5654   -1.2427 C   0  0  0  1  0  0  0  0  0  0  0  0
    0.7383  -17.4592   -0.3974 O   0  0  0  1  0  0  0  0  0  0  0  0
    1.4711  -16.6211   -2.3683 N   0  0  0  1  0  0  0  0  0  0  0  0
    1.4055  -15.8845   -3.0114 H   0  0  0  1  0  0  0  0  0  0  0  0
    2.3559  -17.7373   -2.6668 C   0  0  0  1  0  0  0  0  0  0  0  0
    2.7151  -18.1347   -1.7405 H   0  0  0  1  0  0  0  0  0  0  0  0
    3.1798  -17.3655   -3.2394 H   0  0  0  1  0  0  0  0  0  0  0  0
    1.7136  -18.8606   -3.4424 C   0  0  0  1  0  0  0  0  0  0  0  0
    2.4823  -19.4099   -3.9447 H   0  0  0  1  0  0  0  0  0  0  0  0
    1.0470  -18.4375   -4.1645 H   0  0  0  1  0  0  0  0  0  0  0  0
    0.7790  -20.0040   -2.3982 S   0  0  0  1  0  0  0  0  0  0  0  0
   -0.7062  -19.1390   -2.0242 C   0  0  0  1  0  0  0  0  0  0  0  0
   -0.9847  -18.0447   -2.4479 O   0  0  0  1  0  0  0  0  0  0  0  0
   -1.6720  -19.8481   -1.1071 C   0  0  0  1  0  0  0  0  0  0  0  0
   -1.8989  -19.2051   -0.2824 H   0  0  0  1  0  0  0  0  0  0  0  0
   -1.2098  -20.7429   -0.7457 H   0  0  0  1  0  0  0  0  0  0  0  0
   -2.9573  -20.2137   -1.8051 C   0  0  0  1  0  0  0  0  0  0  0  0
   -3.0395  -21.2509   -2.4433 O   0  0  0  1  0  0  0  0  0  0  0  0
   -4.0980  -19.3086   -1.7047 C   0  0  0  1  0  0  0  0  0  0  0  0
   -3.9368  -18.4519   -1.1374 H   0  0  0  1  0  0  0  0  0  0  0  0
   -5.3157  -19.4200   -2.2339 C   0  0  0  1  0  0  0  0  0  0  0  0
   -5.5338  -20.2571   -2.8112 H   0  0  0  1  0  0  0  0  0  0  0  0
   -6.3718  -18.4006   -2.0338 C   0  0  0  1  0  0  0  0  0  0  0  0
   -7.4750  -18.3899   -2.8663 C   0  0  0  1  0  0  0  0  0  0  0  0
   -7.5576  -19.0917   -3.6293 H   0  0  0  1  0  0  0  0  0  0  0  0
   -8.4714  -17.4435   -2.6841 C   0  0  0  1  0  0  0  0  0  0  0  0
   -8.3591  -16.5074   -1.6734 C   0  0  0  1  0  0  0  0  0  0  0  0
   -7.2526  -16.5184   -0.8386 C   0  0  0  1  0  0  0  0  0  0  0  0
   -7.1699  -15.8166   -0.0755 H   0  0  0  1  0  0  0  0  0  0  0  0
   -6.2590  -17.4619   -1.0201 C   0  0  0  1  0  0  0  0  0  0  0  0
   -5.4269  -17.4676   -0.3963 H   0  0  0  1  0  0  0  0  0  0  0  0
   -9.3927  -15.6271   -1.5934 O   0  5  0  1  0  0  0  0  0  0  0  0
   -9.6081  -17.3370   -3.4385 O   0  0  0  1  0  0  0  0  0  0  0  0
   -9.6064  -18.2141   -4.5757 C   0  0  0  1  0  0  0  0  0  0  0  0
   -8.6316  -18.2254   -5.0166 H   0  0  0  1  0  0  0  0  0  0  0  0
  -10.3187  -17.8668   -5.2947 H   0  0  0  1  0  0  0  0  0  0  0  0
   -9.8678  -19.2034   -4.2631 H   0  0  0  1  0  0  0  0  0  0  0  0
   -4.6654  -13.3349    2.3186 O   0  0  0  1  0  0  0  0  0  0  0  0
   -4.8555  -12.6496    2.9635 H   0  0  0  1  0  0  0  0  0  0  0  0
  1  2  1  0  0  0  0
  1  3  1  0  0  0  0
  1  4  1  0  0  0  0
  1  5  1  0  0  0  0
  5  6  1  0  0  0  0
  5 10  1  0  0  0  0
  5 55  1  0  0  0  0
  6  7  1  0  0  0  0
  6  8  1  0  0  0  0
  6  9  1  0  0  0  0
 10 11  1  0  0  0  0
 10 12  1  0  0  0  0
 10 13  1  0  0  0  0
 13 14  1  0  0  0  0
 14 15  2  0  0  0  0
 14 16  1  0  0  0  0
 14 17  1  0  0  0  0
 17 18  1  0  0  0  0
 18 19  1  0  0  0  0
 18 20  2  0  0  0  0
 18 21  1  0  0  0  0
 21 22  1  0  0  0  0
 22 23  1  0  0  0  0
 22 24  1  0  0  0  0
 22 25  1  0  0  0  0
 25 26  1  0  0  0  0
 25 27  1  0  0  0  0
 25 33  1  0  0  0  0
 27 28  1  0  0  0  0
 27 29  1  0  0  0  0
 27 50  1  0  0  0  0
 29 30  1  0  0  0  0
 29 31  1  0  0  0  0
 29 48  1  0  0  0  0
 31 32  1  0  0  0  0
 31 33  1  0  0  0  0
 31 34  1  0  0  0  0
 34 35  1  0  0  0  0
 34 44  1  0  0  0  0
 35 36  1  0  0  0  0
 35 37  2  0  0  0  0
 37 38  1  0  0  0  0
 38 39  1  0  0  0  0
 38 44  2  0  0  0  0
 39 40  2  0  0  0  0
 39 45  1  0  0  0  0
 40 41  1  0  0  0  0
 41 42  1  0  0  0  0
 41 43  2  0  0  0  0
 43 44  1  0  0  0  0
 45 46  1  0  0  0  0
 45 47  1  0  0  0  0
 48 49  1  0  0  0  0
 50 51  1  0  0  0  0
 51 52  2  0  0  0  0
 51 53  1  0  0  0  0
 51 54  1  0  0  0  0
 55 56  1  0  0  0  0
 55 57  1  0  0  0  0
 55104  1  0  0  0  0
 57 58  2  0  0  0  0
 57 59  1  0  0  0  0
 59 60  1  0  0  0  0
 59 61  1  0  0  0  0
 61 62  1  0  0  0  0
 61 63  1  0  0  0  0
 61 64  1  0  0  0  0
 64 65  1  0  0  0  0
 64 66  1  0  0  0  0
 64 67  1  0  0  0  0
 67 68  2  0  0  0  0
 67 69  1  0  0  0  0
 69 70  1  0  0  0  0
 69 71  1  0  0  0  0
 71 72  1  0  0  0  0
 71 73  1  0  0  0  0
 71 74  1  0  0  0  0
 74 75  1  0  0  0  0
 74 76  1  0  0  0  0
 74 77  1  0  0  0  0
 77 78  1  0  0  0  0
 78 79  2  0  0  0  0
 78 80  1  0  0  0  0
 80 81  1  0  0  0  0
 80 82  1  0  0  0  0
 80 83  1  0  0  0  0
 83 84  2  0  0  0  0
 83 85  1  0  0  0  0
 85 86  1  0  0  0  0
 85 87  2  0  0  0  0
 87 88  1  0  0  0  0
 87 89  1  0  0  0  0
 89 90  2  0  0  0  0
 89 96  1  0  0  0  0
 90 91  1  0  0  0  0
 90 92  1  0  0  0  0
 92 93  2  0  0  0  0
 92 99  1  0  0  0  0
 93 94  1  0  0  0  0
 93 98  1  0  0  0  0
 94 95  1  0  0  0  0
 94 96  2  0  0  0  0
 96 97  1  0  0  0  0
 99100  1  0  0  0  0
100101  1  0  0  0  0
100102  1  0  0  0  0
100103  1  0  0  0  0
104105  1  0  0  0  0
M  BCL ATM C_TeTeTeTe H_S H_S H_S C_TeTeTeTe C_TeTeTeTe H_S H_S H_S C_TeTeTeTe H_S H_S O_Tr2TrTrPi2 P_TeTeTeTePi O_Tr2Tr2TrPi O_Te2Te2Te2Te O_Tr2TrTrPi2 P_TeTeTeTePi O_Te2Te2TeTe O_Tr2Tr2TrPi O_Tr2TrTrPi2 C_TeTeTeTe H_S H_S C_TeTeTeTe H_S C_TeTeTeTe H_S C_TeTeTeTe H_S C_TeTeTeTe H_S O_Te2Te2TeTe N_TrTrTrPi2 C_TrTrTrPi H_S N_Tr2TrTrPi C_TrTrTrPi C_TrTrTrPi N_Tr2TrTrPi C_TrTrTrPi H_S N_Tr2TrTrPi C_TrTrTrPi N_TrTrTrPi2 H_S H_S O_Te2Te2TeTe H_S O_Tr2TrTrPi2 P_TeTeTeTePi O_Tr2Tr2TrPi O_Te2Te2Te2Te O_Te2Te2Te2Te C_TeTeTeTe H_S C_TrTrTrPi O_Tr2Tr2TrPi N_TrTrTrPi2 H_S C_TeTeTeTe H_S H_S C_TeTeTeTe H_S H_S C_TrTrTrPi O_Tr2Tr2TrPi N_TrTrTrPi2 H_S C_TeTeTeTe H_S H_S C_TeTeTeTe H_S H_S S_Te2Te2TeTe C_TrTrTrPi O_Tr2Tr2TrPi C_TeTeTeTe H_S H_S C_TrTrTrPi O_Tr2Tr2TrPi C_TrTrTrPi H_S C_TrTrTrPi H_S C_TrTrTrPi C_TrTrTrPi H_S C_TrTrTrPi C_TrTrTrPi C_TrTrTrPi H_S C_TrTrTrPi H_S O_Te2Te2Te2Te O_Tr2TrTrPi2 C_TeTeTeTe H_S H_S H_S O_Te2Te2TeTe H_S
M  BCL BND NonConjugatedSingleBond NonConjugatedSingleBond NonConjugatedSingleBond NonConjugatedSingleBond NonConjugatedSingleBond NonConjugatedSingleBond NonConjugatedSingleBond NonConjugatedSingleBond NonConjugatedSingleBond NonConjugatedSingleBond NonConjugatedSingleBond NonConjugatedSingleBond NonConjugatedSingleBond ConjugatedSingleBond ConjugatedDoubleBond ConjugatedSingleBond ConjugatedSingleBond ConjugatedSingleBond ConjugatedSingleBond ConjugatedDoubleBond ConjugatedSingleBond NonConjugatedSingleBond NonConjugatedSingleBond NonConjugatedSingleBond NonConjugatedSingleBond NonConjugatedSingleBond NonConjugatedSingleBondInRing NonConjugatedSingleBondInRing NonConjugatedSingleBond NonConjugatedSingleBondInRing NonConjugatedSingleBond NonConjugatedSingleBond NonConjugatedSingleBondInRing NonConjugatedSingleBond NonConjugatedSingleBond NonConjugatedSingleBondInRing NonConjugatedSingleBond AromaticSingleBond AromaticSingleBond NonConjugatedSingleBond AromaticDoubleBond AromaticSingleBond AromaticSingleBond AromaticDoubleBond AromaticDoubleBond ConjugatedSingleBond AromaticSingleBond NonConjugatedSingleBond AromaticDoubleBond AromaticSingleBond NonConjugatedSingleBond NonConjugatedSingleBond NonConjugatedSingleBond ConjugatedSingleBond ConjugatedDoubleBond ConjugatedSingleBond ConjugatedSingleBond NonConjugatedSingleBond NonConjugatedSingleBond NonConjugatedSingleBond ConjugatedDoubleBond AmideSingleBond NonConjugatedSingleBond NonConjugatedSingleBond NonConjugatedSingleBond NonConjugatedSingleBond NonConjugatedSingleBond NonConjugatedSingleBond NonConjugatedSingleBond NonConjugatedSingleBond ConjugatedDoubleBond AmideSingleBond NonConjugatedSingleBond NonConjugatedSingleBond NonConjugatedSingleBond NonConjugatedSingleBond NonConjugatedSingleBond NonConjugatedSingleBond NonConjugatedSingleBond NonConjugatedSingleBond ConjugatedSingleBond ConjugatedDoubleBond NonConjugatedSingleBond NonConjugatedSingleBond NonConjugatedSingleBond NonConjugatedSingleBond ConjugatedDoubleBond ConjugatedSingleBond NonConjugatedSingleBond ConjugatedDoubleBond NonConjugatedSingleBond ConjugatedSingleBond AromaticDoubleBond AromaticSingleBond NonConjugatedSingleBond AromaticSingleBond AromaticDoubleBond ConjugatedSingleBond AromaticSingleBond ConjugatedSingleBond NonConjugatedSingleBond AromaticDoubleBond NonConjugatedSingleBond NonConjugatedSingleBond NonConjugatedSingleBond NonConjugatedSingleBond NonConjugatedSingleBond NonConjugatedSingleBond
M  BCL CHI  14   R  18   S  25   R  27   R  29   R  31   S  55   R
M  BCL DBI - - - - - - - - - - - E - - -
M  END
> <ConfClashScore>
4.07363e-06 

> <ConfOneFourInteractionScore>
-0.977531 

> <ConfScore>
0.035619 

> <ConfScorePBest>
0.0136565 

> <ConfTolerance>
2.76524 

$$$$
L03.****
  PyMOL2.5          3D                             0

105108  0  0  0  0  0  0  0  0999 V2000
   -0.8384    4.8874   -6.9385 C   0  0  0  1  0  0  0  0  0  0  0  0
   -0.8056    5.2818   -5.9444 H   0  0  0  1  0  0  0  0  0  0  0  0
   -0.3368    5.5579   -7.6047 H   0  0  0  1  0  0  0  0  0  0  0  0
   -0.3538    3.9337   -6.9598 H   0  0  0  1  0  0  0  0  0  0  0  0
   -2.2988    4.7282   -7.3780 C   0  0  0  1  0  0  0  0  0  0  0  0
   -2.9135    6.1160   -7.5959 C   0  0  0  1  0  0  0  0  0  0  0  0
   -3.7550    6.2399   -6.9468 H   0  0  0  1  0  0  0  0  0  0  0  0
   -3.2314    6.2092   -8.6133 H   0  0  0  1  0  0  0  0  0  0  0  0
   -2.1829    6.8673   -7.3798 H   0  0  0  1  0  0  0  0  0  0  0  0
   -3.0530    4.0444   -6.2855 C   0  0  0  1  0  0  0  0  0  0  0  0
   -4.0689    3.8916   -6.5843 H   0  0  0  1  0  0  0  0  0  0  0  0
   -3.0277    4.6402   -5.3970 H   0  0  0  1  0  0  0  0  0  0  0  0
   -2.4035    2.7485   -6.0380 O   0  0  0  1  0  0  0  0  0  0  0  0
   -3.2385    1.5083   -5.5473 P   0  0  0  1  0  0  0  0  0  0  0  0
   -4.3527    1.9063   -6.4365 O   0  0  0  1  0  0  0  0  0  0  0  0
   -1.6604    1.1890   -5.7266 O   0  5  0  1  0  0  0  0  0  0  0  0
   -4.0828    0.2551   -5.0519 O   0  0  0  1  0  0  0  0  0  0  0  0
   -5.6005   -0.2377   -5.0373 P   0  0  0  1  0  0  0  0  0  0  0  0
   -5.9294   -0.9960   -6.2682 O   0  0  0  0  0  0  0  0  0  0  0  0
   -6.3972    0.8623   -4.5846 O   0  0  0  1  0  0  0  0  0  0  0  0
   -5.5142   -1.2096   -3.8071 O   0  0  0  1  0  0  0  0  0  0  0  0
   -4.9656   -0.8168   -2.5224 C   0  0  0  1  0  0  0  0  0  0  0  0
   -5.6179   -0.1143   -2.0471 H   0  0  0  1  0  0  0  0  0  0  0  0
   -4.0012   -0.3736   -2.6580 H   0  0  0  1  0  0  0  0  0  0  0  0
   -4.8446   -2.0673   -1.6713 C   0  0  0  1  0  0  0  0  0  0  0  0
   -5.8032   -2.5349   -1.5852 H   0  0  0  1  0  0  0  0  0  0  0  0
   -4.3292   -1.7080   -0.3090 C   0  0  0  1  0  0  0  0  0  0  0  0
   -5.0386   -2.0016    0.4363 H   0  0  0  1  0  0  0  0  0  0  0  0
   -3.0357   -2.4361   -0.0947 C   0  0  0  1  0  0  0  0  0  0  0  0
   -3.1191   -3.0822    0.7541 H   0  0  0  1  0  0  0  0  0  0  0  0
   -2.7509   -3.2462   -1.3252 C   0  0  0  1  0  0  0  0  0  0  0  0
   -2.6964   -4.2844   -1.0718 H   0  0  0  1  0  0  0  0  0  0  0  0
   -3.8692   -3.0180   -2.2994 O   0  0  0  1  0  0  0  0  0  0  0  0
   -1.5038   -2.8280   -1.9070 N   0  0  0  1  0  0  0  0  0  0  0  0
   -0.4578   -3.6559   -2.1791 C   0  0  0  1  0  0  0  0  0  0  0  0
   -0.4823   -4.6790   -1.9937 H   0  0  0  1  0  0  0  0  0  0  0  0
    0.5899   -3.0451   -2.6990 N   0  0  0  1  0  0  0  0  0  0  0  0
    0.1680   -1.7182   -2.7876 C   0  0  0  1  0  0  0  0  0  0  0  0
    0.8068   -0.5680   -3.2820 C   0  0  0  1  0  0  0  0  0  0  0  0
    0.1227    0.6003   -3.2221 N   0  0  0  1  0  0  0  0  0  0  0  0
   -1.1178    0.5852   -2.7024 C   0  0  0  1  0  0  0  0  0  0  0  0
   -1.5980    1.5074   -2.6772 H   0  0  0  1  0  0  0  0  0  0  0  0
   -1.8238   -0.4349   -2.2148 N   0  0  0  1  0  0  0  0  0  0  0  0
   -1.0996   -1.5693   -2.3012 C   0  0  0  1  0  0  0  0  0  0  0  0
    2.0911   -0.6265   -3.8122 N   0  0  0  1  0  0  0  0  0  0  0  0
    2.5277    0.1913   -4.1301 H   0  0  0  1  0  0  0  0  0  0  0  0
    2.5596   -1.4854   -3.8678 H   0  0  0  1  0  0  0  0  0  0  0  0
   -1.9813   -1.4974    0.1223 O   0  0  0  1  0  0  0  0  0  0  0  0
   -2.3289   -0.7231    0.5710 H   0  0  0  1  0  0  0  0  0  0  0  0
   -4.1070   -0.2767   -0.2289 O   0  0  0  1  0  0  0  0  0  0  0  0
   -4.1982    0.4517    1.2376 P   0  0  0  1  0  0  0  0  0  0  0  0
   -3.3494   -0.2382    2.2346 O   0  0  0  1  0  0  0  0  0  0  0  0
   -3.5033    1.9040    1.0578 O   0  5  0  1  0  0  0  0  0  0  0  0
   -5.7508    0.6809    1.6393 O   0  5  0  1  0  0  0  0  0  0  0  0
   -2.3828    3.8904   -8.6593 C   0  0  0  1  0  0  0  0  0  0  0  0
   -1.8999    2.9534   -8.4756 H   0  0  0  1  0  0  0  0  0  0  0  0
   -3.7933    3.6123   -9.1410 C   0  0  0  1  0  0  0  0  0  0  0  0
   -4.6294    3.0987   -8.4024 O   0  0  0  1  0  0  0  0  0  0  0  0
   -4.0545    3.9605  -10.4042 N   0  0  0  1  0  0  0  0  0  0  0  0
   -3.3730    4.4237  -10.9346 H   0  0  0  1  0  0  0  0  0  0  0  0
   -5.3489    3.6532  -10.9941 C   0  0  0  1  0  0  0  0  0  0  0  0
   -5.8738    4.5697  -11.1654 H   0  0  0  1  0  0  0  0  0  0  0  0
   -5.9030    3.0470  -10.3083 H   0  0  0  1  0  0  0  0  0  0  0  0
   -5.2260    2.9068  -12.3161 C   0  0  0  1  0  0  0  0  0  0  0  0
   -4.6627    3.5102  -12.9968 H   0  0  0  1  0  0  0  0  0  0  0  0
   -6.2081    2.7466  -12.7093 H   0  0  0  1  0  0  0  0  0  0  0  0
   -4.5284    1.5478  -12.1762 C   0  0  0  1  0  0  0  0  0  0  0  0
   -4.5251    0.9694  -11.0903 O   0  0  0  1  0  0  0  0  0  0  0  0
   -4.0191    1.0111  -13.2963 N   0  0  0  1  0  0  0  0  0  0  0  0
   -4.0913    1.5116  -14.1358 H   0  0  0  1  0  0  0  0  0  0  0  0
   -3.3635   -0.2881  -13.3074 C   0  0  0  1  0  0  0  0  0  0  0  0
   -3.8927   -0.9450  -13.9656 H   0  0  0  1  0  0  0  0  0  0  0  0
   -3.3682   -0.6944  -12.3175 H   0  0  0  1  0  0  0  0  0  0  0  0
   -1.9274   -0.1488  -13.7855 C   0  0  0  1  0  0  0  0  0  0  0  0
   -1.9377    0.2232  -14.7888 H   0  0  0  1  0  0  0  0  0  0  0  0
   -1.4679   -1.1150  -13.7675 H   0  0  0  1  0  0  0  0  0  0  0  0
   -0.9429    0.9748  -12.7661 S   0  0  0  1  0  0  0  0  0  0  0  0
    0.5184    1.2589  -13.7135 C   0  0  0  1  0  0  0  0  0  0  0  0
    0.7146    0.8791  -14.8413 O   0  0  0  1  0  0  0  0  0  0  0  0
    1.5337    2.0573  -12.9329 C   0  0  0  1  0  0  0  0  0  0  0  0
    2.0130    1.3994  -12.2384 H   0  0  0  1  0  0  0  0  0  0  0  0
    1.0147    2.8249  -12.3978 H   0  0  0  1  0  0  0  0  0  0  0  0
    2.6013    2.7106  -13.7761 C   0  0  0  1  0  0  0  0  0  0  0  0
    3.7815    2.5074  -13.5433 O   0  0  0  1  0  0  0  0  0  0  0  0
    2.1986    3.5864  -14.8706 C   0  0  0  1  0  0  0  0  0  0  0  0
    1.1934    3.8356  -14.9657 H   0  0  0  1  0  0  0  0  0  0  0  0
    3.0655    4.0805  -15.7536 C   0  0  0  1  0  0  0  0  0  0  0  0
    4.0750    3.8430  -15.6755 H   0  0  0  1  0  0  0  0  0  0  0  0
    2.5987    4.9680  -16.8486 C   0  0  0  1  0  0  0  0  0  0  0  0
    1.2720    5.3500  -16.9127 C   0  0  0  1  0  0  0  0  0  0  0  0
    0.6127    5.0684  -16.1594 H   0  0  0  1  0  0  0  0  0  0  0  0
    0.8203    6.1086  -17.9813 C   0  0  0  1  0  0  0  0  0  0  0  0
    1.6953    6.4785  -18.9853 C   0  0  0  1  0  0  0  0  0  0  0  0
    3.0259    6.0953  -18.9208 C   0  0  0  1  0  0  0  0  0  0  0  0
    3.6852    6.3769  -19.6741 H   0  0  0  1  0  0  0  0  0  0  0  0
    3.4764    5.3389  -17.8553 C   0  0  0  1  0  0  0  0  0  0  0  0
    4.4738    5.0480  -17.8090 H   0  0  0  1  0  0  0  0  0  0  0  0
    1.1395    7.2160  -19.9838 O   0  5  0  1  0  0  0  0  0  0  0  0
   -0.4508    6.5446  -18.1494 O   0  0  0  1  0  0  0  0  0  0  0  0
   -1.3682    6.3258  -17.0664 C   0  0  0  1  0  0  0  0  0  0  0  0
   -2.3700    6.4757  -17.4111 H   0  0  0  1  0  0  0  0  0  0  0  0
   -1.1565    7.0145  -16.2754 H   0  0  0  1  0  0  0  0  0  0  0  0
   -1.2615    5.3240  -16.7058 H   0  0  0  1  0  0  0  0  0  0  0  0
   -1.6365    4.6296   -9.6213 O   0  0  0  1  0  0  0  0  0  0  0  0
   -0.8038    4.1836   -9.7926 H   0  0  0  1  0  0  0  0  0  0  0  0
  1  2  1  0  0  0  0
  1  3  1  0  0  0  0
  1  4  1  0  0  0  0
  1  5  1  0  0  0  0
  5  6  1  0  0  0  0
  5 10  1  0  0  0  0
  5 55  1  0  0  0  0
  6  7  1  0  0  0  0
  6  8  1  0  0  0  0
  6  9  1  0  0  0  0
 10 11  1  0  0  0  0
 10 12  1  0  0  0  0
 10 13  1  0  0  0  0
 13 14  1  0  0  0  0
 14 15  2  0  0  0  0
 14 16  1  0  0  0  0
 14 17  1  0  0  0  0
 17 18  1  0  0  0  0
 18 19  1  0  0  0  0
 18 20  2  0  0  0  0
 18 21  1  0  0  0  0
 21 22  1  0  0  0  0
 22 23  1  0  0  0  0
 22 24  1  0  0  0  0
 22 25  1  0  0  0  0
 25 26  1  0  0  0  0
 25 27  1  0  0  0  0
 25 33  1  0  0  0  0
 27 28  1  0  0  0  0
 27 29  1  0  0  0  0
 27 50  1  0  0  0  0
 29 30  1  0  0  0  0
 29 31  1  0  0  0  0
 29 48  1  0  0  0  0
 31 32  1  0  0  0  0
 31 33  1  0  0  0  0
 31 34  1  0  0  0  0
 34 35  1  0  0  0  0
 34 44  1  0  0  0  0
 35 36  1  0  0  0  0
 35 37  2  0  0  0  0
 37 38  1  0  0  0  0
 38 39  1  0  0  0  0
 38 44  2  0  0  0  0
 39 40  2  0  0  0  0
 39 45  1  0  0  0  0
 40 41  1  0  0  0  0
 41 42  1  0  0  0  0
 41 43  2  0  0  0  0
 43 44  1  0  0  0  0
 45 46  1  0  0  0  0
 45 47  1  0  0  0  0
 48 49  1  0  0  0  0
 50 51  1  0  0  0  0
 51 52  2  0  0  0  0
 51 53  1  0  0  0  0
 51 54  1  0  0  0  0
 55 56  1  0  0  0  0
 55 57  1  0  0  0  0
 55104  1  0  0  0  0
 57 58  2  0  0  0  0
 57 59  1  0  0  0  0
 59 60  1  0  0  0  0
 59 61  1  0  0  0  0
 61 62  1  0  0  0  0
 61 63  1  0  0  0  0
 61 64  1  0  0  0  0
 64 65  1  0  0  0  0
 64 66  1  0  0  0  0
 64 67  1  0  0  0  0
 67 68  2  0  0  0  0
 67 69  1  0  0  0  0
 69 70  1  0  0  0  0
 69 71  1  0  0  0  0
 71 72  1  0  0  0  0
 71 73  1  0  0  0  0
 71 74  1  0  0  0  0
 74 75  1  0  0  0  0
 74 76  1  0  0  0  0
 74 77  1  0  0  0  0
 77 78  1  0  0  0  0
 78 79  2  0  0  0  0
 78 80  1  0  0  0  0
 80 81  1  0  0  0  0
 80 82  1  0  0  0  0
 80 83  1  0  0  0  0
 83 84  2  0  0  0  0
 83 85  1  0  0  0  0
 85 86  1  0  0  0  0
 85 87  2  0  0  0  0
 87 88  1  0  0  0  0
 87 89  1  0  0  0  0
 89 90  2  0  0  0  0
 89 96  1  0  0  0  0
 90 91  1  0  0  0  0
 90 92  1  0  0  0  0
 92 93  2  0  0  0  0
 92 99  1  0  0  0  0
 93 94  1  0  0  0  0
 93 98  1  0  0  0  0
 94 95  1  0  0  0  0
 94 96  2  0  0  0  0
 96 97  1  0  0  0  0
 99100  1  0  0  0  0
100101  1  0  0  0  0
100102  1  0  0  0  0
100103  1  0  0  0  0
104105  1  0  0  0  0
M  BCL ATM C_TeTeTeTe H_S H_S H_S C_TeTeTeTe C_TeTeTeTe H_S H_S H_S C_TeTeTeTe H_S H_S O_Tr2TrTrPi2 P_TeTeTeTePi O_Tr2Tr2TrPi O_Te2Te2Te2Te O_Tr2TrTrPi2 P_TeTeTeTePi O_Te2Te2TeTe O_Tr2Tr2TrPi O_Tr2TrTrPi2 C_TeTeTeTe H_S H_S C_TeTeTeTe H_S C_TeTeTeTe H_S C_TeTeTeTe H_S C_TeTeTeTe H_S O_Te2Te2TeTe N_TrTrTrPi2 C_TrTrTrPi H_S N_Tr2TrTrPi C_TrTrTrPi C_TrTrTrPi N_Tr2TrTrPi C_TrTrTrPi H_S N_Tr2TrTrPi C_TrTrTrPi N_TrTrTrPi2 H_S H_S O_Te2Te2TeTe H_S O_Tr2TrTrPi2 P_TeTeTeTePi O_Tr2Tr2TrPi O_Te2Te2Te2Te O_Te2Te2Te2Te C_TeTeTeTe H_S C_TrTrTrPi O_Tr2Tr2TrPi N_TrTrTrPi2 H_S C_TeTeTeTe H_S H_S C_TeTeTeTe H_S H_S C_TrTrTrPi O_Tr2Tr2TrPi N_TrTrTrPi2 H_S C_TeTeTeTe H_S H_S C_TeTeTeTe H_S H_S S_Te2Te2TeTe C_TrTrTrPi O_Tr2Tr2TrPi C_TeTeTeTe H_S H_S C_TrTrTrPi O_Tr2Tr2TrPi C_TrTrTrPi H_S C_TrTrTrPi H_S C_TrTrTrPi C_TrTrTrPi H_S C_TrTrTrPi C_TrTrTrPi C_TrTrTrPi H_S C_TrTrTrPi H_S O_Te2Te2Te2Te O_Tr2TrTrPi2 C_TeTeTeTe H_S H_S H_S O_Te2Te2TeTe H_S
M  BCL BND NonConjugatedSingleBond NonConjugatedSingleBond NonConjugatedSingleBond NonConjugatedSingleBond NonConjugatedSingleBond NonConjugatedSingleBond NonConjugatedSingleBond NonConjugatedSingleBond NonConjugatedSingleBond NonConjugatedSingleBond NonConjugatedSingleBond NonConjugatedSingleBond NonConjugatedSingleBond ConjugatedSingleBond ConjugatedDoubleBond ConjugatedSingleBond ConjugatedSingleBond ConjugatedSingleBond ConjugatedSingleBond ConjugatedDoubleBond ConjugatedSingleBond NonConjugatedSingleBond NonConjugatedSingleBond NonConjugatedSingleBond NonConjugatedSingleBond NonConjugatedSingleBond NonConjugatedSingleBondInRing NonConjugatedSingleBondInRing NonConjugatedSingleBond NonConjugatedSingleBondInRing NonConjugatedSingleBond NonConjugatedSingleBond NonConjugatedSingleBondInRing NonConjugatedSingleBond NonConjugatedSingleBond NonConjugatedSingleBondInRing NonConjugatedSingleBond AromaticSingleBond AromaticSingleBond NonConjugatedSingleBond AromaticDoubleBond AromaticSingleBond AromaticSingleBond AromaticDoubleBond AromaticDoubleBond ConjugatedSingleBond AromaticSingleBond NonConjugatedSingleBond AromaticDoubleBond AromaticSingleBond NonConjugatedSingleBond NonConjugatedSingleBond NonConjugatedSingleBond ConjugatedSingleBond ConjugatedDoubleBond ConjugatedSingleBond ConjugatedSingleBond NonConjugatedSingleBond NonConjugatedSingleBond NonConjugatedSingleBond ConjugatedDoubleBond AmideSingleBond NonConjugatedSingleBond NonConjugatedSingleBond NonConjugatedSingleBond NonConjugatedSingleBond NonConjugatedSingleBond NonConjugatedSingleBond NonConjugatedSingleBond NonConjugatedSingleBond ConjugatedDoubleBond AmideSingleBond NonConjugatedSingleBond NonConjugatedSingleBond NonConjugatedSingleBond NonConjugatedSingleBond NonConjugatedSingleBond NonConjugatedSingleBond NonConjugatedSingleBond NonConjugatedSingleBond ConjugatedSingleBond ConjugatedDoubleBond NonConjugatedSingleBond NonConjugatedSingleBond NonConjugatedSingleBond NonConjugatedSingleBond ConjugatedDoubleBond ConjugatedSingleBond NonConjugatedSingleBond ConjugatedDoubleBond NonConjugatedSingleBond ConjugatedSingleBond AromaticDoubleBond AromaticSingleBond NonConjugatedSingleBond AromaticSingleBond AromaticDoubleBond ConjugatedSingleBond AromaticSingleBond ConjugatedSingleBond NonConjugatedSingleBond AromaticDoubleBond NonConjugatedSingleBond NonConjugatedSingleBond NonConjugatedSingleBond NonConjugatedSingleBond NonConjugatedSingleBond NonConjugatedSingleBond
M  BCL CHI  14   R  18   S  25   R  27   R  29   R  31   S  55   R
M  BCL DBI - - - - - - - - - - - E - - -
M  END
> <ConfClashScore>
0.000892531 

> <ConfOneFourInteractionScore>
-0.969709 

> <ConfScore>
0.039345 

> <ConfScorePBest>
0.0135535 

> <ConfTolerance>
2.76953 

$$$$
L03.****
  PyMOL2.5          3D                             0

105108  0  0  0  0  0  0  0  0999 V2000
   -3.3617    7.0257    5.1411 C   0  0  0  1  0  0  0  0  0  0  0  0
   -3.0957    8.0113    5.4615 H   0  0  0  1  0  0  0  0  0  0  0  0
   -4.1308    7.0873    4.3998 H   0  0  0  1  0  0  0  0  0  0  0  0
   -2.5026    6.5421    4.7251 H   0  0  0  1  0  0  0  0  0  0  0  0
   -3.8719    6.2178    6.3403 C   0  0  0  1  0  0  0  0  0  0  0  0
   -2.7511    6.0539    7.3715 C   0  0  0  1  0  0  0  0  0  0  0  0
   -1.8771    5.6669    6.8906 H   0  0  0  1  0  0  0  0  0  0  0  0
   -3.0669    5.3757    8.1365 H   0  0  0  1  0  0  0  0  0  0  0  0
   -2.5264    7.0048    7.8078 H   0  0  0  1  0  0  0  0  0  0  0  0
   -4.3183    4.8883    5.8813 C   0  0  0  1  0  0  0  0  0  0  0  0
   -5.1240    5.0074    5.1874 H   0  0  0  1  0  0  0  0  0  0  0  0
   -4.6531    4.3190    6.7231 H   0  0  0  1  0  0  0  0  0  0  0  0
   -3.2313    4.1865    5.2334 O   0  0  0  1  0  0  0  0  0  0  0  0
   -3.4543    3.0251    4.1953 P   0  0  0  1  0  0  0  0  0  0  0  0
   -2.0884    3.2356    3.6659 O   0  0  0  1  0  0  0  0  0  0  0  0
   -4.1092    2.7235    5.6460 O   0  5  0  1  0  0  0  0  0  0  0  0
   -3.6815    1.8395    3.1352 O   0  0  0  1  0  0  0  0  0  0  0  0
   -3.9107    1.8353    1.5685 P   0  0  0  1  0  0  0  0  0  0  0  0
   -2.7220    2.4499    0.9427 O   0  0  0  0  0  0  0  0  0  0  0  0
   -5.1532    2.5881    1.2184 O   0  0  0  1  0  0  0  0  0  0  0  0
   -4.2218    0.3453    1.1693 O   0  0  0  1  0  0  0  0  0  0  0  0
   -3.9805   -0.1290   -0.1807 C   0  0  0  1  0  0  0  0  0  0  0  0
   -2.9548    0.0386   -0.4350 H   0  0  0  1  0  0  0  0  0  0  0  0
   -4.6093    0.4074   -0.8603 H   0  0  0  1  0  0  0  0  0  0  0  0
   -4.2837   -1.6068   -0.2830 C   0  0  0  1  0  0  0  0  0  0  0  0
   -5.3389   -1.7617   -0.1970 H   0  0  0  1  0  0  0  0  0  0  0  0
   -3.5695   -2.3496    0.8074 C   0  0  0  1  0  0  0  0  0  0  0  0
   -4.2793   -2.8638    1.4211 H   0  0  0  1  0  0  0  0  0  0  0  0
   -2.6418   -3.3379    0.1657 C   0  0  0  1  0  0  0  0  0  0  0  0
   -2.9027   -4.3304    0.4687 H   0  0  0  1  0  0  0  0  0  0  0  0
   -2.7823   -3.2063   -1.3224 C   0  0  0  1  0  0  0  0  0  0  0  0
   -3.1111   -4.1352   -1.7395 H   0  0  0  1  0  0  0  0  0  0  0  0
   -3.7971   -2.1362   -1.5993 O   0  0  0  1  0  0  0  0  0  0  0  0
   -1.4955   -2.8346   -1.9116 N   0  0  0  1  0  0  0  0  0  0  0  0
   -0.4488   -3.6610   -2.1863 C   0  0  0  1  0  0  0  0  0  0  0  0
   -0.4723   -4.6845   -2.0033 H   0  0  0  1  0  0  0  0  0  0  0  0
    0.5979   -3.0479   -2.7055 N   0  0  0  1  0  0  0  0  0  0  0  0
    0.1748   -1.7213   -2.7906 C   0  0  0  1  0  0  0  0  0  0  0  0
    0.8122   -0.5693   -3.2828 C   0  0  0  1  0  0  0  0  0  0  0  0
    0.1270    0.5982   -3.2196 N   0  0  0  1  0  0  0  0  0  0  0  0
   -1.1131    0.5808   -2.6991 C   0  0  0  1  0  0  0  0  0  0  0  0
   -1.5940    1.5025   -2.6714 H   0  0  0  1  0  0  0  0  0  0  0  0
   -1.8178   -0.4411   -2.2135 N   0  0  0  1  0  0  0  0  0  0  0  0
   -1.0927   -1.5747   -2.3031 C   0  0  0  1  0  0  0  0  0  0  0  0
    2.0772   -0.6245   -3.8060 N   0  0  0  1  0  0  0  0  0  0  0  0
    2.4926    0.1850   -4.1700 H   0  0  0  1  0  0  0  0  0  0  0  0
    2.5665   -1.4735   -3.8162 H   0  0  0  1  0  0  0  0  0  0  0  0
   -1.2944   -3.0598    0.5521 O   0  0  0  1  0  0  0  0  0  0  0  0
   -0.9842   -3.7450    1.1487 H   0  0  0  1  0  0  0  0  0  0  0  0
   -2.8101   -1.4185    1.6212 O   0  0  0  1  0  0  0  0  0  0  0  0
   -1.9572   -1.9401    2.9212 P   0  0  0  1  0  0  0  0  0  0  0  0
   -0.4966   -2.0093    2.6926 O   0  0  0  1  0  0  0  0  0  0  0  0
   -2.3198   -0.9265    4.1318 O   0  5  0  1  0  0  0  0  0  0  0  0
   -2.4432   -3.4228    3.3569 O   0  5  0  1  0  0  0  0  0  0  0  0
   -5.0496    6.9490    6.9821 C   0  0  0  1  0  0  0  0  0  0  0  0
   -5.8045    7.0863    6.2364 H   0  0  0  1  0  0  0  0  0  0  0  0
   -5.6389    6.1122    8.1096 C   0  0  0  1  0  0  0  0  0  0  0  0
   -6.4139    5.1850    7.8786 O   0  0  0  1  0  0  0  0  0  0  0  0
   -5.2594    6.4526    9.3445 N   0  0  0  1  0  0  0  0  0  0  0  0
   -4.6547    7.2151    9.4602 H   0  0  0  1  0  0  0  0  0  0  0  0
   -5.7127    5.7305   10.5239 C   0  0  0  1  0  0  0  0  0  0  0  0
   -6.5130    5.0793   10.2406 H   0  0  0  1  0  0  0  0  0  0  0  0
   -6.0660    6.4382   11.2445 H   0  0  0  1  0  0  0  0  0  0  0  0
   -4.6073    4.8974   11.1595 C   0  0  0  1  0  0  0  0  0  0  0  0
   -4.9731    4.4912   12.0793 H   0  0  0  1  0  0  0  0  0  0  0  0
   -3.7715    5.5352   11.3581 H   0  0  0  1  0  0  0  0  0  0  0  0
   -4.1434    3.7543   10.2778 C   0  0  0  1  0  0  0  0  0  0  0  0
   -4.9474    2.9788    9.7622 O   0  0  0  1  0  0  0  0  0  0  0  0
   -2.8161    3.6530   10.1046 N   0  0  0  1  0  0  0  0  0  0  0  0
   -2.2294    4.2914   10.5614 H   0  0  0  1  0  0  0  0  0  0  0  0
   -2.2180    2.6281    9.2621 C   0  0  0  1  0  0  0  0  0  0  0  0
   -2.8866    1.7943    9.2096 H   0  0  0  1  0  0  0  0  0  0  0  0
   -1.2940    2.3178    9.7033 H   0  0  0  1  0  0  0  0  0  0  0  0
   -1.9442    3.1182    7.8592 C   0  0  0  1  0  0  0  0  0  0  0  0
   -1.1926    3.8783    7.9053 H   0  0  0  1  0  0  0  0  0  0  0  0
   -2.8471    3.5323    7.4615 H   0  0  0  1  0  0  0  0  0  0  0  0
   -1.3725    1.8115    6.7471 S   0  0  0  1  0  0  0  0  0  0  0  0
    0.3579    2.1042    6.8006 C   0  0  0  1  0  0  0  0  0  0  0  0
    0.8996    2.9100    7.5081 O   0  0  0  1  0  0  0  0  0  0  0  0
    1.1342    1.2268    5.8492 C   0  0  0  1  0  0  0  0  0  0  0  0
    1.6928    1.8598    5.1918 H   0  0  0  1  0  0  0  0  0  0  0  0
    0.4347    0.6501    5.2808 H   0  0  0  1  0  0  0  0  0  0  0  0
    2.0956    0.2759    6.5159 C   0  0  0  1  0  0  0  0  0  0  0  0
    2.1117    0.1659    7.7308 O   0  0  0  1  0  0  0  0  0  0  0  0
    3.0041   -0.5082    5.6849 C   0  0  0  1  0  0  0  0  0  0  0  0
    3.0450   -0.2465    4.6792 H   0  0  0  1  0  0  0  0  0  0  0  0
    3.7871   -1.5190    6.0599 C   0  0  0  1  0  0  0  0  0  0  0  0
    3.7461   -1.7807    7.0656 H   0  0  0  1  0  0  0  0  0  0  0  0
    4.7096   -2.3152    5.2160 C   0  0  0  1  0  0  0  0  0  0  0  0
    4.8646   -2.1260    3.8558 C   0  0  0  1  0  0  0  0  0  0  0  0
    4.3129   -1.3925    3.3666 H   0  0  0  1  0  0  0  0  0  0  0  0
    5.7553   -2.9139    3.1436 C   0  0  0  1  0  0  0  0  0  0  0  0
    6.4846   -3.8922    3.7927 C   0  0  0  1  0  0  0  0  0  0  0  0
    6.3291   -4.0819    5.1570 C   0  0  0  1  0  0  0  0  0  0  0  0
    6.8807   -4.8153    5.6462 H   0  0  0  1  0  0  0  0  0  0  0  0
    5.4409   -3.2964    5.8673 C   0  0  0  1  0  0  0  0  0  0  0  0
    5.3213   -3.4414    6.8901 H   0  0  0  1  0  0  0  0  0  0  0  0
    7.3640   -4.6880    3.1271 O   0  5  0  1  0  0  0  0  0  0  0  0
    5.9948   -2.8179    1.8142 O   0  0  0  1  0  0  0  0  0  0  0  0
    5.3201   -1.7706    1.0998 C   0  0  0  1  0  0  0  0  0  0  0  0
    5.5907   -1.8120    0.0654 H   0  0  0  1  0  0  0  0  0  0  0  0
    5.6048   -0.8220    1.5050 H   0  0  0  1  0  0  0  0  0  0  0  0
    4.2621   -1.8973    1.1968 H   0  0  0  1  0  0  0  0  0  0  0  0
   -4.5805    8.2098    7.4242 O   0  0  0  1  0  0  0  0  0  0  0  0
   -4.0562    8.6177    6.7311 H   0  0  0  1  0  0  0  0  0  0  0  0
  1  2  1  0  0  0  0
  1  3  1  0  0  0  0
  1  4  1  0  0  0  0
  1  5  1  0  0  0  0
  5  6  1  0  0  0  0
  5 10  1  0  0  0  0
  5 55  1  0  0  0  0
  6  7  1  0  0  0  0
  6  8  1  0  0  0  0
  6  9  1  0  0  0  0
 10 11  1  0  0  0  0
 10 12  1  0  0  0  0
 10 13  1  0  0  0  0
 13 14  1  0  0  0  0
 14 15  2  0  0  0  0
 14 16  1  0  0  0  0
 14 17  1  0  0  0  0
 17 18  1  0  0  0  0
 18 19  1  0  0  0  0
 18 20  2  0  0  0  0
 18 21  1  0  0  0  0
 21 22  1  0  0  0  0
 22 23  1  0  0  0  0
 22 24  1  0  0  0  0
 22 25  1  0  0  0  0
 25 26  1  0  0  0  0
 25 27  1  0  0  0  0
 25 33  1  0  0  0  0
 27 28  1  0  0  0  0
 27 29  1  0  0  0  0
 27 50  1  0  0  0  0
 29 30  1  0  0  0  0
 29 31  1  0  0  0  0
 29 48  1  0  0  0  0
 31 32  1  0  0  0  0
 31 33  1  0  0  0  0
 31 34  1  0  0  0  0
 34 35  1  0  0  0  0
 34 44  1  0  0  0  0
 35 36  1  0  0  0  0
 35 37  2  0  0  0  0
 37 38  1  0  0  0  0
 38 39  1  0  0  0  0
 38 44  2  0  0  0  0
 39 40  2  0  0  0  0
 39 45  1  0  0  0  0
 40 41  1  0  0  0  0
 41 42  1  0  0  0  0
 41 43  2  0  0  0  0
 43 44  1  0  0  0  0
 45 46  1  0  0  0  0
 45 47  1  0  0  0  0
 48 49  1  0  0  0  0
 50 51  1  0  0  0  0
 51 52  2  0  0  0  0
 51 53  1  0  0  0  0
 51 54  1  0  0  0  0
 55 56  1  0  0  0  0
 55 57  1  0  0  0  0
 55104  1  0  0  0  0
 57 58  2  0  0  0  0
 57 59  1  0  0  0  0
 59 60  1  0  0  0  0
 59 61  1  0  0  0  0
 61 62  1  0  0  0  0
 61 63  1  0  0  0  0
 61 64  1  0  0  0  0
 64 65  1  0  0  0  0
 64 66  1  0  0  0  0
 64 67  1  0  0  0  0
 67 68  2  0  0  0  0
 67 69  1  0  0  0  0
 69 70  1  0  0  0  0
 69 71  1  0  0  0  0
 71 72  1  0  0  0  0
 71 73  1  0  0  0  0
 71 74  1  0  0  0  0
 74 75  1  0  0  0  0
 74 76  1  0  0  0  0
 74 77  1  0  0  0  0
 77 78  1  0  0  0  0
 78 79  2  0  0  0  0
 78 80  1  0  0  0  0
 80 81  1  0  0  0  0
 80 82  1  0  0  0  0
 80 83  1  0  0  0  0
 83 84  2  0  0  0  0
 83 85  1  0  0  0  0
 85 86  1  0  0  0  0
 85 87  2  0  0  0  0
 87 88  1  0  0  0  0
 87 89  1  0  0  0  0
 89 90  2  0  0  0  0
 89 96  1  0  0  0  0
 90 91  1  0  0  0  0
 90 92  1  0  0  0  0
 92 93  2  0  0  0  0
 92 99  1  0  0  0  0
 93 94  1  0  0  0  0
 93 98  1  0  0  0  0
 94 95  1  0  0  0  0
 94 96  2  0  0  0  0
 96 97  1  0  0  0  0
 99100  1  0  0  0  0
100101  1  0  0  0  0
100102  1  0  0  0  0
100103  1  0  0  0  0
104105  1  0  0  0  0
M  BCL ATM C_TeTeTeTe H_S H_S H_S C_TeTeTeTe C_TeTeTeTe H_S H_S H_S C_TeTeTeTe H_S H_S O_Tr2TrTrPi2 P_TeTeTeTePi O_Tr2Tr2TrPi O_Te2Te2Te2Te O_Tr2TrTrPi2 P_TeTeTeTePi O_Te2Te2TeTe O_Tr2Tr2TrPi O_Tr2TrTrPi2 C_TeTeTeTe H_S H_S C_TeTeTeTe H_S C_TeTeTeTe H_S C_TeTeTeTe H_S C_TeTeTeTe H_S O_Te2Te2TeTe N_TrTrTrPi2 C_TrTrTrPi H_S N_Tr2TrTrPi C_TrTrTrPi C_TrTrTrPi N_Tr2TrTrPi C_TrTrTrPi H_S N_Tr2TrTrPi C_TrTrTrPi N_TrTrTrPi2 H_S H_S O_Te2Te2TeTe H_S O_Tr2TrTrPi2 P_TeTeTeTePi O_Tr2Tr2TrPi O_Te2Te2Te2Te O_Te2Te2Te2Te C_TeTeTeTe H_S C_TrTrTrPi O_Tr2Tr2TrPi N_TrTrTrPi2 H_S C_TeTeTeTe H_S H_S C_TeTeTeTe H_S H_S C_TrTrTrPi O_Tr2Tr2TrPi N_TrTrTrPi2 H_S C_TeTeTeTe H_S H_S C_TeTeTeTe H_S H_S S_Te2Te2TeTe C_TrTrTrPi O_Tr2Tr2TrPi C_TeTeTeTe H_S H_S C_TrTrTrPi O_Tr2Tr2TrPi C_TrTrTrPi H_S C_TrTrTrPi H_S C_TrTrTrPi C_TrTrTrPi H_S C_TrTrTrPi C_TrTrTrPi C_TrTrTrPi H_S C_TrTrTrPi H_S O_Te2Te2Te2Te O_Tr2TrTrPi2 C_TeTeTeTe H_S H_S H_S O_Te2Te2TeTe H_S
M  BCL BND NonConjugatedSingleBond NonConjugatedSingleBond NonConjugatedSingleBond NonConjugatedSingleBond NonConjugatedSingleBond NonConjugatedSingleBond NonConjugatedSingleBond NonConjugatedSingleBond NonConjugatedSingleBond NonConjugatedSingleBond NonConjugatedSingleBond NonConjugatedSingleBond NonConjugatedSingleBond ConjugatedSingleBond ConjugatedDoubleBond ConjugatedSingleBond ConjugatedSingleBond ConjugatedSingleBond ConjugatedSingleBond ConjugatedDoubleBond ConjugatedSingleBond NonConjugatedSingleBond NonConjugatedSingleBond NonConjugatedSingleBond NonConjugatedSingleBond NonConjugatedSingleBond NonConjugatedSingleBondInRing NonConjugatedSingleBondInRing NonConjugatedSingleBond NonConjugatedSingleBondInRing NonConjugatedSingleBond NonConjugatedSingleBond NonConjugatedSingleBondInRing NonConjugatedSingleBond NonConjugatedSingleBond NonConjugatedSingleBondInRing NonConjugatedSingleBond AromaticSingleBond AromaticSingleBond NonConjugatedSingleBond AromaticDoubleBond AromaticSingleBond AromaticSingleBond AromaticDoubleBond AromaticDoubleBond ConjugatedSingleBond AromaticSingleBond NonConjugatedSingleBond AromaticDoubleBond AromaticSingleBond NonConjugatedSingleBond NonConjugatedSingleBond NonConjugatedSingleBond ConjugatedSingleBond ConjugatedDoubleBond ConjugatedSingleBond ConjugatedSingleBond NonConjugatedSingleBond NonConjugatedSingleBond NonConjugatedSingleBond ConjugatedDoubleBond AmideSingleBond NonConjugatedSingleBond NonConjugatedSingleBond NonConjugatedSingleBond NonConjugatedSingleBond NonConjugatedSingleBond NonConjugatedSingleBond NonConjugatedSingleBond NonConjugatedSingleBond ConjugatedDoubleBond AmideSingleBond NonConjugatedSingleBond NonConjugatedSingleBond NonConjugatedSingleBond NonConjugatedSingleBond NonConjugatedSingleBond NonConjugatedSingleBond NonConjugatedSingleBond NonConjugatedSingleBond ConjugatedSingleBond ConjugatedDoubleBond NonConjugatedSingleBond NonConjugatedSingleBond NonConjugatedSingleBond NonConjugatedSingleBond ConjugatedDoubleBond ConjugatedSingleBond NonConjugatedSingleBond ConjugatedDoubleBond NonConjugatedSingleBond ConjugatedSingleBond AromaticDoubleBond AromaticSingleBond NonConjugatedSingleBond AromaticSingleBond AromaticDoubleBond ConjugatedSingleBond AromaticSingleBond ConjugatedSingleBond NonConjugatedSingleBond AromaticDoubleBond NonConjugatedSingleBond NonConjugatedSingleBond NonConjugatedSingleBond NonConjugatedSingleBond NonConjugatedSingleBond NonConjugatedSingleBond
M  BCL CHI  14   R  18   S  25   R  27   R  29   R  31   S  55   R
M  BCL DBI - - - - - - - - - - - E - - -
M  END
> <ConfClashScore>
0 

> <ConfOneFourInteractionScore>
-0.969714 

> <ConfScore>
0.0416082 

> <ConfScorePBest>
0.0134505 

> <ConfTolerance>
2.76821 

$$$$
L03.****
  PyMOL2.5          3D                             0

105108  0  0  0  0  0  0  0  0999 V2000
    2.0996   -1.7346    7.6737 C   0  0  0  1  0  0  0  0  0  0  0  0
    2.5031   -2.1177    8.5877 H   0  0  0  1  0  0  0  0  0  0  0  0
    1.4729   -2.4753    7.2226 H   0  0  0  1  0  0  0  0  0  0  0  0
    1.5238   -0.8563    7.8788 H   0  0  0  1  0  0  0  0  0  0  0  0
    3.2447   -1.3827    6.7165 C   0  0  0  1  0  0  0  0  0  0  0  0
    3.7690    0.0217    7.0390 C   0  0  0  1  0  0  0  0  0  0  0  0
    4.0635    0.0657    8.0667 H   0  0  0  1  0  0  0  0  0  0  0  0
    2.9972    0.7405    6.8583 H   0  0  0  1  0  0  0  0  0  0  0  0
    4.6121    0.2389    6.4170 H   0  0  0  1  0  0  0  0  0  0  0  0
    2.8881   -1.4202    5.2561 C   0  0  0  1  0  0  0  0  0  0  0  0
    2.5511   -2.3973    4.9792 H   0  0  0  1  0  0  0  0  0  0  0  0
    3.7339   -1.1514    4.6584 H   0  0  0  1  0  0  0  0  0  0  0  0
    1.8221   -0.4512    5.0891 O   0  0  0  1  0  0  0  0  0  0  0  0
    0.6441   -0.6361    4.0624 P   0  0  0  1  0  0  0  0  0  0  0  0
    0.0651    0.6559    4.4936 O   0  0  0  1  0  0  0  0  0  0  0  0
    2.0749   -1.1416    3.4952 O   0  5  0  1  0  0  0  0  0  0  0  0
   -0.5593   -0.8245    3.0139 O   0  0  0  1  0  0  0  0  0  0  0  0
   -1.9636   -0.1726    3.0516 P   0  0  0  1  0  0  0  0  0  0  0  0
   -1.7710    1.2817    2.5549 O   0  0  0  0  0  0  0  0  0  0  0  0
   -2.5997   -0.3405    4.3588 O   0  0  0  1  0  0  0  0  0  0  0  0
   -2.7014   -0.9531    1.8900 O   0  0  0  1  0  0  0  0  0  0  0  0
   -2.8753   -2.3881    1.9543 C   0  0  0  1  0  0  0  0  0  0  0  0
   -3.3651   -2.6553    2.8673 H   0  0  0  1  0  0  0  0  0  0  0  0
   -1.9228   -2.8732    1.9048 H   0  0  0  1  0  0  0  0  0  0  0  0
   -3.7244   -2.8005    0.7751 C   0  0  0  1  0  0  0  0  0  0  0  0
   -4.7339   -2.4831    0.9336 H   0  0  0  1  0  0  0  0  0  0  0  0
   -3.6730   -4.3227    0.5959 C   0  0  0  1  0  0  0  0  0  0  0  0
   -4.6250   -4.7059    0.2929 H   0  0  0  1  0  0  0  0  0  0  0  0
   -2.6273   -4.5088   -0.5111 C   0  0  0  1  0  0  0  0  0  0  0  0
   -2.8465   -5.3669   -1.1117 H   0  0  0  1  0  0  0  0  0  0  0  0
   -2.7775   -3.2065   -1.3213 C   0  0  0  1  0  0  0  0  0  0  0  0
   -3.5007   -3.3414   -2.0983 H   0  0  0  1  0  0  0  0  0  0  0  0
   -3.2030   -2.2128   -0.4438 O   0  0  0  1  0  0  0  0  0  0  0  0
   -1.4931   -2.8349   -1.9098 N   0  0  0  1  0  0  0  0  0  0  0  0
   -0.4454   -3.6605   -2.1828 C   0  0  0  1  0  0  0  0  0  0  0  0
   -0.4677   -4.6837   -1.9980 H   0  0  0  1  0  0  0  0  0  0  0  0
    0.6008   -3.0471   -2.7027 N   0  0  0  1  0  0  0  0  0  0  0  0
    0.1761   -1.7211   -2.7903 C   0  0  0  1  0  0  0  0  0  0  0  0
    0.8123   -0.5692   -3.2843 C   0  0  0  1  0  0  0  0  0  0  0  0
    0.1256    0.5976   -3.2234 N   0  0  0  1  0  0  0  0  0  0  0  0
   -1.1146    0.5796   -2.7033 C   0  0  0  1  0  0  0  0  0  0  0  0
   -1.5967    1.5007   -2.6774 H   0  0  0  1  0  0  0  0  0  0  0  0
   -1.8183   -0.4423   -2.2161 N   0  0  0  1  0  0  0  0  0  0  0  0
   -1.0917   -1.5752   -2.3034 C   0  0  0  1  0  0  0  0  0  0  0  0
    2.0723   -0.6236   -3.8049 N   0  0  0  1  0  0  0  0  0  0  0  0
    2.5581   -1.4745   -3.8244 H   0  0  0  1  0  0  0  0  0  0  0  0
    2.4915    0.1882   -4.1594 H   0  0  0  1  0  0  0  0  0  0  0  0
   -1.3126   -4.6313    0.0335 O   0  0  0  1  0  0  0  0  0  0  0  0
   -1.2963   -4.2591    0.9183 H   0  0  0  1  0  0  0  0  0  0  0  0
   -3.2552   -4.9773    1.8218 O   0  0  0  1  0  0  0  0  0  0  0  0
   -2.3496   -6.3444    1.8449 P   0  0  0  1  0  0  0  0  0  0  0  0
   -2.5026   -7.3535    0.7732 O   0  0  0  1  0  0  0  0  0  0  0  0
   -0.7736   -5.9849    1.9520 O   0  5  0  1  0  0  0  0  0  0  0  0
   -2.5392   -7.0799    3.2758 O   0  5  0  1  0  0  0  0  0  0  0  0
    4.3853   -2.3770    6.9405 C   0  0  0  1  0  0  0  0  0  0  0  0
    4.7178   -2.2726    7.9522 H   0  0  0  1  0  0  0  0  0  0  0  0
    3.9631   -3.8221    6.7321 C   0  0  0  1  0  0  0  0  0  0  0  0
    4.0473   -4.3505    5.6242 O   0  0  0  1  0  0  0  0  0  0  0  0
    3.4990   -4.4992    7.7862 N   0  0  0  1  0  0  0  0  0  0  0  0
    3.3000   -4.0104    8.6120 H   0  0  0  1  0  0  0  0  0  0  0  0
    3.2786   -5.9373    7.7508 C   0  0  0  1  0  0  0  0  0  0  0  0
    2.8502   -6.2057    6.8078 H   0  0  0  1  0  0  0  0  0  0  0  0
    2.6084   -6.2113    8.5386 H   0  0  0  1  0  0  0  0  0  0  0  0
    4.5996   -6.6787    7.9330 C   0  0  0  1  0  0  0  0  0  0  0  0
    5.1210   -6.2658    8.7712 H   0  0  0  1  0  0  0  0  0  0  0  0
    5.1927   -6.5610    7.0502 H   0  0  0  1  0  0  0  0  0  0  0  0
    4.3592   -8.1483    8.1751 C   0  0  0  1  0  0  0  0  0  0  0  0
    3.3012   -8.6844    7.8485 O   0  0  0  1  0  0  0  0  0  0  0  0
    5.3658   -8.8149    8.7620 N   0  0  0  1  0  0  0  0  0  0  0  0
    6.1285   -8.2960    9.0928 H   0  0  0  1  0  0  0  0  0  0  0  0
    5.3965  -10.2592    8.9385 C   0  0  0  1  0  0  0  0  0  0  0  0
    6.4149  -10.5864    8.9110 H   0  0  0  1  0  0  0  0  0  0  0  0
    4.8534  -10.7142    8.1366 H   0  0  0  1  0  0  0  0  0  0  0  0
    4.7826  -10.6964   10.2486 C   0  0  0  1  0  0  0  0  0  0  0  0
    5.2797  -10.1831   11.0451 H   0  0  0  1  0  0  0  0  0  0  0  0
    4.9284  -11.7508   10.3573 H   0  0  0  1  0  0  0  0  0  0  0  0
    3.0113  -10.3470   10.3571 S   0  0  0  1  0  0  0  0  0  0  0  0
    2.9899   -8.5944   10.6371 C   0  0  0  1  0  0  0  0  0  0  0  0
    4.0038   -7.9802   10.7209 O   0  0  0  1  0  0  0  0  0  0  0  0
    1.6211   -7.9683   10.7562 C   0  0  0  1  0  0  0  0  0  0  0  0
    1.7594   -6.9313   10.9803 H   0  0  0  1  0  0  0  0  0  0  0  0
    1.1181   -8.4458   11.5710 H   0  0  0  1  0  0  0  0  0  0  0  0
    0.7189   -8.0562    9.5514 C   0  0  0  1  0  0  0  0  0  0  0  0
    1.1405   -8.6534    8.5583 O   0  0  0  1  0  0  0  0  0  0  0  0
   -0.6087   -7.4499    9.5723 C   0  0  0  1  0  0  0  0  0  0  0  0
   -0.9326   -7.0895   10.4925 H   0  0  0  1  0  0  0  0  0  0  0  0
   -1.4555   -7.3026    8.5542 C   0  0  0  1  0  0  0  0  0  0  0  0
   -1.1490   -7.6570    7.6257 H   0  0  0  1  0  0  0  0  0  0  0  0
   -2.7950   -6.6777    8.6314 C   0  0  0  1  0  0  0  0  0  0  0  0
   -3.3333   -6.2581    9.8332 C   0  0  0  1  0  0  0  0  0  0  0  0
   -2.7962   -6.3819   10.7151 H   0  0  0  1  0  0  0  0  0  0  0  0
   -4.5893   -5.6724    9.8629 C   0  0  0  1  0  0  0  0  0  0  0  0
   -5.3055   -5.5128    8.6916 C   0  0  0  1  0  0  0  0  0  0  0  0
   -4.7654   -5.9337    7.4864 C   0  0  0  1  0  0  0  0  0  0  0  0
   -5.3025   -5.8100    6.6044 H   0  0  0  1  0  0  0  0  0  0  0  0
   -3.5131   -6.5178    7.4566 C   0  0  0  1  0  0  0  0  0  0  0  0
   -3.1096   -6.8372    6.5528 H   0  0  0  1  0  0  0  0  0  0  0  0
   -6.5257   -4.9318    8.8434 O   0  5  0  1  0  0  0  0  0  0  0  0
   -5.0096   -5.2971   11.0943 O   0  0  0  1  0  0  0  0  0  0  0  0
   -3.9990   -5.0154   12.0750 C   0  0  0  1  0  0  0  0  0  0  0  0
   -3.3067   -4.3017   11.6797 H   0  0  0  1  0  0  0  0  0  0  0  0
   -3.4793   -5.9178   12.3206 H   0  0  0  1  0  0  0  0  0  0  0  0
   -4.4581   -4.6167   12.9555 H   0  0  0  1  0  0  0  0  0  0  0  0
    5.4620   -2.0663    6.0581 O   0  0  0  1  0  0  0  0  0  0  0  0
    5.5836   -1.1147    6.0236 H   0  0  0  1  0  0  0  0  0  0  0  0
  1  2  1  0  0  0  0
  1  3  1  0  0  0  0
  1  4  1  0  0  0  0
  1  5  1  0  0  0  0
  5  6  1  0  0  0  0
  5 10  1  0  0  0  0
  5 55  1  0  0  0  0
  6  7  1  0  0  0  0
  6  8  1  0  0  0  0
  6  9  1  0  0  0  0
 10 11  1  0  0  0  0
 10 12  1  0  0  0  0
 10 13  1  0  0  0  0
 13 14  1  0  0  0  0
 14 15  2  0  0  0  0
 14 16  1  0  0  0  0
 14 17  1  0  0  0  0
 17 18  1  0  0  0  0
 18 19  1  0  0  0  0
 18 20  2  0  0  0  0
 18 21  1  0  0  0  0
 21 22  1  0  0  0  0
 22 23  1  0  0  0  0
 22 24  1  0  0  0  0
 22 25  1  0  0  0  0
 25 26  1  0  0  0  0
 25 27  1  0  0  0  0
 25 33  1  0  0  0  0
 27 28  1  0  0  0  0
 27 29  1  0  0  0  0
 27 50  1  0  0  0  0
 29 30  1  0  0  0  0
 29 31  1  0  0  0  0
 29 48  1  0  0  0  0
 31 32  1  0  0  0  0
 31 33  1  0  0  0  0
 31 34  1  0  0  0  0
 34 35  1  0  0  0  0
 34 44  1  0  0  0  0
 35 36  1  0  0  0  0
 35 37  2  0  0  0  0
 37 38  1  0  0  0  0
 38 39  1  0  0  0  0
 38 44  2  0  0  0  0
 39 40  2  0  0  0  0
 39 45  1  0  0  0  0
 40 41  1  0  0  0  0
 41 42  1  0  0  0  0
 41 43  2  0  0  0  0
 43 44  1  0  0  0  0
 45 46  1  0  0  0  0
 45 47  1  0  0  0  0
 48 49  1  0  0  0  0
 50 51  1  0  0  0  0
 51 52  2  0  0  0  0
 51 53  1  0  0  0  0
 51 54  1  0  0  0  0
 55 56  1  0  0  0  0
 55 57  1  0  0  0  0
 55104  1  0  0  0  0
 57 58  2  0  0  0  0
 57 59  1  0  0  0  0
 59 60  1  0  0  0  0
 59 61  1  0  0  0  0
 61 62  1  0  0  0  0
 61 63  1  0  0  0  0
 61 64  1  0  0  0  0
 64 65  1  0  0  0  0
 64 66  1  0  0  0  0
 64 67  1  0  0  0  0
 67 68  2  0  0  0  0
 67 69  1  0  0  0  0
 69 70  1  0  0  0  0
 69 71  1  0  0  0  0
 71 72  1  0  0  0  0
 71 73  1  0  0  0  0
 71 74  1  0  0  0  0
 74 75  1  0  0  0  0
 74 76  1  0  0  0  0
 74 77  1  0  0  0  0
 77 78  1  0  0  0  0
 78 79  2  0  0  0  0
 78 80  1  0  0  0  0
 80 81  1  0  0  0  0
 80 82  1  0  0  0  0
 80 83  1  0  0  0  0
 83 84  2  0  0  0  0
 83 85  1  0  0  0  0
 85 86  1  0  0  0  0
 85 87  2  0  0  0  0
 87 88  1  0  0  0  0
 87 89  1  0  0  0  0
 89 90  2  0  0  0  0
 89 96  1  0  0  0  0
 90 91  1  0  0  0  0
 90 92  1  0  0  0  0
 92 93  2  0  0  0  0
 92 99  1  0  0  0  0
 93 94  1  0  0  0  0
 93 98  1  0  0  0  0
 94 95  1  0  0  0  0
 94 96  2  0  0  0  0
 96 97  1  0  0  0  0
 99100  1  0  0  0  0
100101  1  0  0  0  0
100102  1  0  0  0  0
100103  1  0  0  0  0
104105  1  0  0  0  0
M  BCL ATM C_TeTeTeTe H_S H_S H_S C_TeTeTeTe C_TeTeTeTe H_S H_S H_S C_TeTeTeTe H_S H_S O_Tr2TrTrPi2 P_TeTeTeTePi O_Tr2Tr2TrPi O_Te2Te2Te2Te O_Tr2TrTrPi2 P_TeTeTeTePi O_Te2Te2TeTe O_Tr2Tr2TrPi O_Tr2TrTrPi2 C_TeTeTeTe H_S H_S C_TeTeTeTe H_S C_TeTeTeTe H_S C_TeTeTeTe H_S C_TeTeTeTe H_S O_Te2Te2TeTe N_TrTrTrPi2 C_TrTrTrPi H_S N_Tr2TrTrPi C_TrTrTrPi C_TrTrTrPi N_Tr2TrTrPi C_TrTrTrPi H_S N_Tr2TrTrPi C_TrTrTrPi N_TrTrTrPi2 H_S H_S O_Te2Te2TeTe H_S O_Tr2TrTrPi2 P_TeTeTeTePi O_Tr2Tr2TrPi O_Te2Te2Te2Te O_Te2Te2Te2Te C_TeTeTeTe H_S C_TrTrTrPi O_Tr2Tr2TrPi N_TrTrTrPi2 H_S C_TeTeTeTe H_S H_S C_TeTeTeTe H_S H_S C_TrTrTrPi O_Tr2Tr2TrPi N_TrTrTrPi2 H_S C_TeTeTeTe H_S H_S C_TeTeTeTe H_S H_S S_Te2Te2TeTe C_TrTrTrPi O_Tr2Tr2TrPi C_TeTeTeTe H_S H_S C_TrTrTrPi O_Tr2Tr2TrPi C_TrTrTrPi H_S C_TrTrTrPi H_S C_TrTrTrPi C_TrTrTrPi H_S C_TrTrTrPi C_TrTrTrPi C_TrTrTrPi H_S C_TrTrTrPi H_S O_Te2Te2Te2Te O_Tr2TrTrPi2 C_TeTeTeTe H_S H_S H_S O_Te2Te2TeTe H_S
M  BCL BND NonConjugatedSingleBond NonConjugatedSingleBond NonConjugatedSingleBond NonConjugatedSingleBond NonConjugatedSingleBond NonConjugatedSingleBond NonConjugatedSingleBond NonConjugatedSingleBond NonConjugatedSingleBond NonConjugatedSingleBond NonConjugatedSingleBond NonConjugatedSingleBond NonConjugatedSingleBond ConjugatedSingleBond ConjugatedDoubleBond ConjugatedSingleBond ConjugatedSingleBond ConjugatedSingleBond ConjugatedSingleBond ConjugatedDoubleBond ConjugatedSingleBond NonConjugatedSingleBond NonConjugatedSingleBond NonConjugatedSingleBond NonConjugatedSingleBond NonConjugatedSingleBond NonConjugatedSingleBondInRing NonConjugatedSingleBondInRing NonConjugatedSingleBond NonConjugatedSingleBondInRing NonConjugatedSingleBond NonConjugatedSingleBond NonConjugatedSingleBondInRing NonConjugatedSingleBond NonConjugatedSingleBond NonConjugatedSingleBondInRing NonConjugatedSingleBond AromaticSingleBond AromaticSingleBond NonConjugatedSingleBond AromaticDoubleBond AromaticSingleBond AromaticSingleBond AromaticDoubleBond AromaticDoubleBond ConjugatedSingleBond AromaticSingleBond NonConjugatedSingleBond AromaticDoubleBond AromaticSingleBond NonConjugatedSingleBond NonConjugatedSingleBond NonConjugatedSingleBond ConjugatedSingleBond ConjugatedDoubleBond ConjugatedSingleBond ConjugatedSingleBond NonConjugatedSingleBond NonConjugatedSingleBond NonConjugatedSingleBond ConjugatedDoubleBond AmideSingleBond NonConjugatedSingleBond NonConjugatedSingleBond NonConjugatedSingleBond NonConjugatedSingleBond NonConjugatedSingleBond NonConjugatedSingleBond NonConjugatedSingleBond NonConjugatedSingleBond ConjugatedDoubleBond AmideSingleBond NonConjugatedSingleBond NonConjugatedSingleBond NonConjugatedSingleBond NonConjugatedSingleBond NonConjugatedSingleBond NonConjugatedSingleBond NonConjugatedSingleBond NonConjugatedSingleBond ConjugatedSingleBond ConjugatedDoubleBond NonConjugatedSingleBond NonConjugatedSingleBond NonConjugatedSingleBond NonConjugatedSingleBond ConjugatedDoubleBond ConjugatedSingleBond NonConjugatedSingleBond ConjugatedDoubleBond NonConjugatedSingleBond ConjugatedSingleBond AromaticDoubleBond AromaticSingleBond NonConjugatedSingleBond AromaticSingleBond AromaticDoubleBond ConjugatedSingleBond AromaticSingleBond ConjugatedSingleBond NonConjugatedSingleBond AromaticDoubleBond NonConjugatedSingleBond NonConjugatedSingleBond NonConjugatedSingleBond NonConjugatedSingleBond NonConjugatedSingleBond NonConjugatedSingleBond
M  BCL CHI  14   R  18   S  25   R  27   R  29   R  31   S  55   R
M  BCL DBI - - - - - - - - - - - E - - -
M  END
> <ConfClashScore>
0.000243087 

> <ConfOneFourInteractionScore>
-0.965576 

> <ConfScore>
0.0485338 

> <ConfScorePBest>
0.0133475 

> <ConfTolerance>
2.79523 

$$$$
L03.****
  PyMOL2.5          3D                             0

105108  0  0  0  0  0  0  0  0999 V2000
  -10.9281    2.1035   -0.1802 C   0  0  0  1  0  0  0  0  0  0  0  0
  -11.1030    1.2031   -0.7313 H   0  0  0  1  0  0  0  0  0  0  0  0
  -11.8426    2.4295    0.2695 H   0  0  0  1  0  0  0  0  0  0  0  0
  -10.2008    1.9188    0.5826 H   0  0  0  1  0  0  0  0  0  0  0  0
  -10.4090    3.1911   -1.1283 C   0  0  0  1  0  0  0  0  0  0  0  0
  -10.4478    2.6273   -2.5533 C   0  0  0  1  0  0  0  0  0  0  0  0
   -9.8345    3.2281   -3.1920 H   0  0  0  1  0  0  0  0  0  0  0  0
  -11.4553    2.6380   -2.9135 H   0  0  0  1  0  0  0  0  0  0  0  0
  -10.0806    1.6223   -2.5491 H   0  0  0  1  0  0  0  0  0  0  0  0
   -8.9804    3.4817   -0.7595 C   0  0  0  1  0  0  0  0  0  0  0  0
   -8.9216    3.8524    0.2425 H   0  0  0  1  0  0  0  0  0  0  0  0
   -8.5602    4.2005   -1.4315 H   0  0  0  1  0  0  0  0  0  0  0  0
   -8.2825    2.2154   -0.8722 O   0  0  0  1  0  0  0  0  0  0  0  0
   -6.7204    2.0790   -0.7404 P   0  0  0  1  0  0  0  0  0  0  0  0
   -6.5603    3.4827   -1.1815 O   0  0  0  1  0  0  0  0  0  0  0  0
   -7.5328    1.3104    0.4316 O   0  5  0  1  0  0  0  0  0  0  0  0
   -5.1285    1.9406   -0.6062 O   0  0  0  1  0  0  0  0  0  0  0  0
   -3.8365    1.4443   -1.4244 P   0  0  0  1  0  0  0  0  0  0  0  0
   -2.5653    1.8059   -0.7222 O   0  0  0  0  0  0  0  0  0  0  0  0
   -3.9254    1.8472   -2.8596 O   0  0  0  1  0  0  0  0  0  0  0  0
   -3.9980   -0.1049   -1.2258 O   0  0  0  1  0  0  0  0  0  0  0  0
   -5.1911   -0.8338   -1.6109 C   0  0  0  1  0  0  0  0  0  0  0  0
   -5.3726   -0.7252   -2.6598 H   0  0  0  1  0  0  0  0  0  0  0  0
   -6.0388   -0.4783   -1.0631 H   0  0  0  1  0  0  0  0  0  0  0  0
   -4.9138   -2.2725   -1.2727 C   0  0  0  1  0  0  0  0  0  0  0  0
   -5.7981   -2.8536   -1.4312 H   0  0  0  1  0  0  0  0  0  0  0  0
   -4.4475   -2.3968    0.1989 C   0  0  0  1  0  0  0  0  0  0  0  0
   -4.8548   -3.2726    0.6594 H   0  0  0  1  0  0  0  0  0  0  0  0
   -2.9383   -2.5005    0.0659 C   0  0  0  1  0  0  0  0  0  0  0  0
   -2.5198   -3.0826    0.8602 H   0  0  0  1  0  0  0  0  0  0  0  0
   -2.7687   -3.2071   -1.2884 C   0  0  0  1  0  0  0  0  0  0  0  0
   -2.8053   -4.2689   -1.1612 H   0  0  0  1  0  0  0  0  0  0  0  0
   -3.8360   -2.7754   -2.0823 O   0  0  0  1  0  0  0  0  0  0  0  0
   -1.4933   -2.8321   -1.9021 N   0  0  0  1  0  0  0  0  0  0  0  0
   -0.4457   -3.6529   -2.1874 C   0  0  0  1  0  0  0  0  0  0  0  0
   -0.4651   -4.6737   -1.9894 H   0  0  0  1  0  0  0  0  0  0  0  0
    0.5852   -3.0624   -2.7282 N   0  0  0  1  0  0  0  0  0  0  0  0
    0.1891   -1.7372   -2.8197 C   0  0  0  1  0  0  0  0  0  0  0  0
    0.7947   -0.5732   -3.2837 C   0  0  0  1  0  0  0  0  0  0  0  0
    0.1303    0.5863   -3.2309 N   0  0  0  1  0  0  0  0  0  0  0  0
   -1.1073    0.5795   -2.7110 C   0  0  0  1  0  0  0  0  0  0  0  0
   -1.5889    1.5008   -2.6838 H   0  0  0  1  0  0  0  0  0  0  0  0
   -1.7995   -0.4445   -2.2270 N   0  0  0  1  0  0  0  0  0  0  0  0
   -1.1064   -1.5812   -2.3087 C   0  0  0  1  0  0  0  0  0  0  0  0
    2.0660   -0.6149   -3.7924 N   0  0  0  1  0  0  0  0  0  0  0  0
    2.5706   -1.4550   -3.7819 H   0  0  0  1  0  0  0  0  0  0  0  0
    2.4708    0.1952   -4.1668 H   0  0  0  1  0  0  0  0  0  0  0  0
   -2.3322   -1.2073    0.0519 O   0  0  0  1  0  0  0  0  0  0  0  0
   -1.3875   -1.2946    0.1987 H   0  0  0  1  0  0  0  0  0  0  0  0
   -4.8213   -1.2370    0.9596 O   0  0  0  1  0  0  0  0  0  0  0  0
   -5.6541   -1.2579    2.3723 P   0  0  0  1  0  0  0  0  0  0  0  0
   -6.7871   -2.2075    2.4427 O   0  0  0  1  0  0  0  0  0  0  0  0
   -4.5588   -1.6173    3.5106 O   0  5  0  1  0  0  0  0  0  0  0  0
   -6.1137    0.2614    2.6960 O   0  5  0  1  0  0  0  0  0  0  0  0
  -11.2735    4.4556   -1.0534 C   0  0  0  1  0  0  0  0  0  0  0  0
  -10.9276    5.1412   -1.7985 H   0  0  0  1  0  0  0  0  0  0  0  0
  -12.7104    4.1252   -1.3450 C   0  0  0  1  0  0  0  0  0  0  0  0
  -13.3548    3.3555   -0.6560 O   0  0  0  1  0  0  0  0  0  0  0  0
  -13.3093    4.6960   -2.4013 N   0  0  0  1  0  0  0  0  0  0  0  0
  -12.7916    5.2652   -3.0083 H   0  0  0  1  0  0  0  0  0  0  0  0
  -14.7260    4.4718   -2.6473 C   0  0  0  1  0  0  0  0  0  0  0  0
  -14.9696    3.4704   -2.3599 H   0  0  0  1  0  0  0  0  0  0  0  0
  -14.9170    4.6000   -3.6923 H   0  0  0  1  0  0  0  0  0  0  0  0
  -15.6136    5.4330   -1.8675 C   0  0  0  1  0  0  0  0  0  0  0  0
  -16.6294    5.2754   -2.1644 H   0  0  0  1  0  0  0  0  0  0  0  0
  -15.3230    6.4347   -2.1062 H   0  0  0  1  0  0  0  0  0  0  0  0
  -15.5147    5.2456   -0.3568 C   0  0  0  1  0  0  0  0  0  0  0  0
  -15.8523    4.1911    0.1746 O   0  0  0  1  0  0  0  0  0  0  0  0
  -14.9632    6.2501    0.3301 N   0  0  0  1  0  0  0  0  0  0  0  0
  -14.6315    7.0317   -0.1592 H   0  0  0  1  0  0  0  0  0  0  0  0
  -14.8380    6.2240    1.7798 C   0  0  0  1  0  0  0  0  0  0  0  0
  -15.6833    5.7102    2.1877 H   0  0  0  1  0  0  0  0  0  0  0  0
  -14.8238    7.2311    2.1409 H   0  0  0  1  0  0  0  0  0  0  0  0
  -13.5765    5.5252    2.2412 C   0  0  0  1  0  0  0  0  0  0  0  0
  -12.7412    6.1369    1.9712 H   0  0  0  1  0  0  0  0  0  0  0  0
  -13.5118    4.5869    1.7309 H   0  0  0  1  0  0  0  0  0  0  0  0
  -13.4837    5.2036    4.0186 S   0  0  0  1  0  0  0  0  0  0  0  0
  -12.4136    6.5066    4.5820 C   0  0  0  1  0  0  0  0  0  0  0  0
  -11.9337    7.3325    3.8533 O   0  0  0  1  0  0  0  0  0  0  0  0
  -12.1815    6.4524    6.0722 C   0  0  0  1  0  0  0  0  0  0  0  0
  -13.1285    6.4807    6.5694 H   0  0  0  1  0  0  0  0  0  0  0  0
  -11.6007    7.3033    6.3614 H   0  0  0  1  0  0  0  0  0  0  0  0
  -11.4511    5.2016    6.4906 C   0  0  0  1  0  0  0  0  0  0  0  0
  -11.8554    4.5361    7.4298 O   0  0  0  1  0  0  0  0  0  0  0  0
  -10.2551    4.8020    5.7543 C   0  0  0  1  0  0  0  0  0  0  0  0
  -10.0414    5.3893    4.9231 H   0  0  0  1  0  0  0  0  0  0  0  0
   -9.3918    3.8102    5.9701 C   0  0  0  1  0  0  0  0  0  0  0  0
   -9.5462    3.1835    6.7856 H   0  0  0  1  0  0  0  0  0  0  0  0
   -8.2214    3.5634    5.0964 C   0  0  0  1  0  0  0  0  0  0  0  0
   -8.1043    4.2514    3.9035 C   0  0  0  1  0  0  0  0  0  0  0  0
   -8.8370    4.9339    3.6227 H   0  0  0  1  0  0  0  0  0  0  0  0
   -7.0101    4.0316    3.0813 C   0  0  0  1  0  0  0  0  0  0  0  0
   -6.0390    3.1206    3.4519 C   0  0  0  1  0  0  0  0  0  0  0  0
   -6.1566    2.4306    4.6484 C   0  0  0  1  0  0  0  0  0  0  0  0
   -5.4238    1.7481    4.9292 H   0  0  0  1  0  0  0  0  0  0  0  0
   -7.2475    2.6497    5.4683 C   0  0  0  1  0  0  0  0  0  0  0  0
   -7.3377    2.1291    6.3641 H   0  0  0  1  0  0  0  0  0  0  0  0
   -4.9287    2.8199    2.7263 O   0  5  0  1  0  0  0  0  0  0  0  0
   -7.0009    4.7656    1.9433 O   0  0  0  1  0  0  0  0  0  0  0  0
   -7.7246    6.0060    1.9566 C   0  0  0  1  0  0  0  0  0  0  0  0
   -7.3205    6.6472    2.7119 H   0  0  0  1  0  0  0  0  0  0  0  0
   -8.7562    5.8144    2.1663 H   0  0  0  1  0  0  0  0  0  0  0  0
   -7.6363    6.4804    1.0016 H   0  0  0  1  0  0  0  0  0  0  0  0
  -11.1536    5.0451    0.2321 O   0  0  0  1  0  0  0  0  0  0  0  0
  -11.6358    5.8750    0.2502 H   0  0  0  1  0  0  0  0  0  0  0  0
  1  2  1  0  0  0  0
  1  3  1  0  0  0  0
  1  4  1  0  0  0  0
  1  5  1  0  0  0  0
  5  6  1  0  0  0  0
  5 10  1  0  0  0  0
  5 55  1  0  0  0  0
  6  7  1  0  0  0  0
  6  8  1  0  0  0  0
  6  9  1  0  0  0  0
 10 11  1  0  0  0  0
 10 12  1  0  0  0  0
 10 13  1  0  0  0  0
 13 14  1  0  0  0  0
 14 15  2  0  0  0  0
 14 16  1  0  0  0  0
 14 17  1  0  0  0  0
 17 18  1  0  0  0  0
 18 19  1  0  0  0  0
 18 20  2  0  0  0  0
 18 21  1  0  0  0  0
 21 22  1  0  0  0  0
 22 23  1  0  0  0  0
 22 24  1  0  0  0  0
 22 25  1  0  0  0  0
 25 26  1  0  0  0  0
 25 27  1  0  0  0  0
 25 33  1  0  0  0  0
 27 28  1  0  0  0  0
 27 29  1  0  0  0  0
 27 50  1  0  0  0  0
 29 30  1  0  0  0  0
 29 31  1  0  0  0  0
 29 48  1  0  0  0  0
 31 32  1  0  0  0  0
 31 33  1  0  0  0  0
 31 34  1  0  0  0  0
 34 35  1  0  0  0  0
 34 44  1  0  0  0  0
 35 36  1  0  0  0  0
 35 37  2  0  0  0  0
 37 38  1  0  0  0  0
 38 39  1  0  0  0  0
 38 44  2  0  0  0  0
 39 40  2  0  0  0  0
 39 45  1  0  0  0  0
 40 41  1  0  0  0  0
 41 42  1  0  0  0  0
 41 43  2  0  0  0  0
 43 44  1  0  0  0  0
 45 46  1  0  0  0  0
 45 47  1  0  0  0  0
 48 49  1  0  0  0  0
 50 51  1  0  0  0  0
 51 52  2  0  0  0  0
 51 53  1  0  0  0  0
 51 54  1  0  0  0  0
 55 56  1  0  0  0  0
 55 57  1  0  0  0  0
 55104  1  0  0  0  0
 57 58  2  0  0  0  0
 57 59  1  0  0  0  0
 59 60  1  0  0  0  0
 59 61  1  0  0  0  0
 61 62  1  0  0  0  0
 61 63  1  0  0  0  0
 61 64  1  0  0  0  0
 64 65  1  0  0  0  0
 64 66  1  0  0  0  0
 64 67  1  0  0  0  0
 67 68  2  0  0  0  0
 67 69  1  0  0  0  0
 69 70  1  0  0  0  0
 69 71  1  0  0  0  0
 71 72  1  0  0  0  0
 71 73  1  0  0  0  0
 71 74  1  0  0  0  0
 74 75  1  0  0  0  0
 74 76  1  0  0  0  0
 74 77  1  0  0  0  0
 77 78  1  0  0  0  0
 78 79  2  0  0  0  0
 78 80  1  0  0  0  0
 80 81  1  0  0  0  0
 80 82  1  0  0  0  0
 80 83  1  0  0  0  0
 83 84  2  0  0  0  0
 83 85  1  0  0  0  0
 85 86  1  0  0  0  0
 85 87  2  0  0  0  0
 87 88  1  0  0  0  0
 87 89  1  0  0  0  0
 89 90  2  0  0  0  0
 89 96  1  0  0  0  0
 90 91  1  0  0  0  0
 90 92  1  0  0  0  0
 92 93  2  0  0  0  0
 92 99  1  0  0  0  0
 93 94  1  0  0  0  0
 93 98  1  0  0  0  0
 94 95  1  0  0  0  0
 94 96  2  0  0  0  0
 96 97  1  0  0  0  0
 99100  1  0  0  0  0
100101  1  0  0  0  0
100102  1  0  0  0  0
100103  1  0  0  0  0
104105  1  0  0  0  0
M  BCL ATM C_TeTeTeTe H_S H_S H_S C_TeTeTeTe C_TeTeTeTe H_S H_S H_S C_TeTeTeTe H_S H_S O_Tr2TrTrPi2 P_TeTeTeTePi O_Tr2Tr2TrPi O_Te2Te2Te2Te O_Tr2TrTrPi2 P_TeTeTeTePi O_Te2Te2TeTe O_Tr2Tr2TrPi O_Tr2TrTrPi2 C_TeTeTeTe H_S H_S C_TeTeTeTe H_S C_TeTeTeTe H_S C_TeTeTeTe H_S C_TeTeTeTe H_S O_Te2Te2TeTe N_TrTrTrPi2 C_TrTrTrPi H_S N_Tr2TrTrPi C_TrTrTrPi C_TrTrTrPi N_Tr2TrTrPi C_TrTrTrPi H_S N_Tr2TrTrPi C_TrTrTrPi N_TrTrTrPi2 H_S H_S O_Te2Te2TeTe H_S O_Tr2TrTrPi2 P_TeTeTeTePi O_Tr2Tr2TrPi O_Te2Te2Te2Te O_Te2Te2Te2Te C_TeTeTeTe H_S C_TrTrTrPi O_Tr2Tr2TrPi N_TrTrTrPi2 H_S C_TeTeTeTe H_S H_S C_TeTeTeTe H_S H_S C_TrTrTrPi O_Tr2Tr2TrPi N_TrTrTrPi2 H_S C_TeTeTeTe H_S H_S C_TeTeTeTe H_S H_S S_Te2Te2TeTe C_TrTrTrPi O_Tr2Tr2TrPi C_TeTeTeTe H_S H_S C_TrTrTrPi O_Tr2Tr2TrPi C_TrTrTrPi H_S C_TrTrTrPi H_S C_TrTrTrPi C_TrTrTrPi H_S C_TrTrTrPi C_TrTrTrPi C_TrTrTrPi H_S C_TrTrTrPi H_S O_Te2Te2Te2Te O_Tr2TrTrPi2 C_TeTeTeTe H_S H_S H_S O_Te2Te2TeTe H_S
M  BCL BND NonConjugatedSingleBond NonConjugatedSingleBond NonConjugatedSingleBond NonConjugatedSingleBond NonConjugatedSingleBond NonConjugatedSingleBond NonConjugatedSingleBond NonConjugatedSingleBond NonConjugatedSingleBond NonConjugatedSingleBond NonConjugatedSingleBond NonConjugatedSingleBond NonConjugatedSingleBond ConjugatedSingleBond ConjugatedDoubleBond ConjugatedSingleBond ConjugatedSingleBond ConjugatedSingleBond ConjugatedSingleBond ConjugatedDoubleBond ConjugatedSingleBond NonConjugatedSingleBond NonConjugatedSingleBond NonConjugatedSingleBond NonConjugatedSingleBond NonConjugatedSingleBond NonConjugatedSingleBondInRing NonConjugatedSingleBondInRing NonConjugatedSingleBond NonConjugatedSingleBondInRing NonConjugatedSingleBond NonConjugatedSingleBond NonConjugatedSingleBondInRing NonConjugatedSingleBond NonConjugatedSingleBond NonConjugatedSingleBondInRing NonConjugatedSingleBond AromaticSingleBond AromaticSingleBond NonConjugatedSingleBond AromaticDoubleBond AromaticSingleBond AromaticSingleBond AromaticDoubleBond AromaticDoubleBond ConjugatedSingleBond AromaticSingleBond NonConjugatedSingleBond AromaticDoubleBond AromaticSingleBond NonConjugatedSingleBond NonConjugatedSingleBond NonConjugatedSingleBond ConjugatedSingleBond ConjugatedDoubleBond ConjugatedSingleBond ConjugatedSingleBond NonConjugatedSingleBond NonConjugatedSingleBond NonConjugatedSingleBond ConjugatedDoubleBond AmideSingleBond NonConjugatedSingleBond NonConjugatedSingleBond NonConjugatedSingleBond NonConjugatedSingleBond NonConjugatedSingleBond NonConjugatedSingleBond NonConjugatedSingleBond NonConjugatedSingleBond ConjugatedDoubleBond AmideSingleBond NonConjugatedSingleBond NonConjugatedSingleBond NonConjugatedSingleBond NonConjugatedSingleBond NonConjugatedSingleBond NonConjugatedSingleBond NonConjugatedSingleBond NonConjugatedSingleBond ConjugatedSingleBond ConjugatedDoubleBond NonConjugatedSingleBond NonConjugatedSingleBond NonConjugatedSingleBond NonConjugatedSingleBond ConjugatedDoubleBond ConjugatedSingleBond NonConjugatedSingleBond ConjugatedDoubleBond NonConjugatedSingleBond ConjugatedSingleBond AromaticDoubleBond AromaticSingleBond NonConjugatedSingleBond AromaticSingleBond AromaticDoubleBond ConjugatedSingleBond AromaticSingleBond ConjugatedSingleBond NonConjugatedSingleBond AromaticDoubleBond NonConjugatedSingleBond NonConjugatedSingleBond NonConjugatedSingleBond NonConjugatedSingleBond NonConjugatedSingleBond NonConjugatedSingleBond
M  BCL CHI  14   R  18   S  25   R  27   R  29   R  31   S  55   R
M  BCL DBI - - - - - - - - - - - E - - -
M  END
> <ConfClashScore>
0.000195025 

> <ConfOneFourInteractionScore>
-0.976001 

> <ConfScore>
0.0713861 

> <ConfScorePBest>
0.0132445 

> <ConfTolerance>
2.95913 

$$$$
L03.****
  PyMOL2.5          3D                             0

105108  0  0  0  0  0  0  0  0999 V2000
   -7.6769  -11.1893   -2.7798 C   0  0  0  1  0  0  0  0  0  0  0  0
   -6.9740  -11.0016   -1.9952 H   0  0  0  1  0  0  0  0  0  0  0  0
   -7.9549  -12.2225   -2.7696 H   0  0  0  1  0  0  0  0  0  0  0  0
   -8.5466  -10.5839   -2.6316 H   0  0  0  1  0  0  0  0  0  0  0  0
   -7.0394  -10.8453   -4.1312 C   0  0  0  1  0  0  0  0  0  0  0  0
   -7.5051  -11.8281   -5.2121 C   0  0  0  1  0  0  0  0  0  0  0  0
   -8.5710  -11.7878   -5.2962 H   0  0  0  1  0  0  0  0  0  0  0  0
   -7.2060  -12.8200   -4.9447 H   0  0  0  1  0  0  0  0  0  0  0  0
   -7.0633  -11.5624   -6.1497 H   0  0  0  1  0  0  0  0  0  0  0  0
   -5.5524  -10.9547   -4.0471 C   0  0  0  1  0  0  0  0  0  0  0  0
   -5.0980  -10.3047   -4.7654 H   0  0  0  1  0  0  0  0  0  0  0  0
   -5.2500  -11.9635   -4.2365 H   0  0  0  1  0  0  0  0  0  0  0  0
   -5.1635  -10.5700   -2.7287 O   0  0  0  1  0  0  0  0  0  0  0  0
   -3.7119  -10.3985   -2.1459 P   0  0  0  1  0  0  0  0  0  0  0  0
   -3.5352  -11.8679   -2.1526 O   0  0  0  1  0  0  0  0  0  0  0  0
   -4.1036   -9.2659   -3.2359 O   0  5  0  1  0  0  0  0  0  0  0  0
   -2.2293  -10.2238   -1.5505 O   0  0  0  1  0  0  0  0  0  0  0  0
   -1.2784   -8.9469   -1.3728 P   0  0  0  1  0  0  0  0  0  0  0  0
   -0.5288   -8.6676   -2.6144 O   0  0  0  0  0  0  0  0  0  0  0  0
   -0.5607   -9.1768   -0.1061 O   0  0  0  1  0  0  0  0  0  0  0  0
   -2.2694   -7.7322   -1.2374 O   0  0  0  1  0  0  0  0  0  0  0  0
   -1.8375   -6.4833   -0.6399 C   0  0  0  1  0  0  0  0  0  0  0  0
   -0.9693   -6.1177   -1.1474 H   0  0  0  1  0  0  0  0  0  0  0  0
   -1.6096   -6.6339    0.3946 H   0  0  0  1  0  0  0  0  0  0  0  0
   -2.9695   -5.4930   -0.7784 C   0  0  0  1  0  0  0  0  0  0  0  0
   -3.8216   -5.8464   -0.2361 H   0  0  0  1  0  0  0  0  0  0  0  0
   -3.3108   -5.3091   -2.1933 C   0  0  0  1  0  0  0  0  0  0  0  0
   -4.1335   -5.9370   -2.4650 H   0  0  0  1  0  0  0  0  0  0  0  0
   -3.6933   -3.8424   -2.3262 C   0  0  0  1  0  0  0  0  0  0  0  0
   -4.7237   -3.6818   -2.0865 H   0  0  0  1  0  0  0  0  0  0  0  0
   -2.7689   -3.2043   -1.2875 C   0  0  0  1  0  0  0  0  0  0  0  0
   -3.2287   -2.3367   -0.8624 H   0  0  0  1  0  0  0  0  0  0  0  0
   -2.5649   -4.2038   -0.2823 O   0  0  0  1  0  0  0  0  0  0  0  0
   -1.4941   -2.8307   -1.9008 N   0  0  0  1  0  0  0  0  0  0  0  0
   -0.4466   -3.6522   -2.1849 C   0  0  0  1  0  0  0  0  0  0  0  0
   -0.4665   -4.6728   -1.9857 H   0  0  0  1  0  0  0  0  0  0  0  0
    0.5846   -3.0626   -2.7261 N   0  0  0  1  0  0  0  0  0  0  0  0
    0.1889   -1.7374   -2.8192 C   0  0  0  1  0  0  0  0  0  0  0  0
    0.7951   -0.5741   -3.2844 C   0  0  0  1  0  0  0  0  0  0  0  0
    0.1310    0.5857   -3.2331 N   0  0  0  1  0  0  0  0  0  0  0  0
   -1.1067    0.5798   -2.7136 C   0  0  0  1  0  0  0  0  0  0  0  0
   -1.5880    1.5014   -2.6876 H   0  0  0  1  0  0  0  0  0  0  0  0
   -1.7994   -0.4434   -2.2286 N   0  0  0  1  0  0  0  0  0  0  0  0
   -1.1067   -1.5804   -2.3087 C   0  0  0  1  0  0  0  0  0  0  0  0
    2.0665   -0.6169   -3.7926 N   0  0  0  1  0  0  0  0  0  0  0  0
    2.5216    0.2136   -4.0449 H   0  0  0  1  0  0  0  0  0  0  0  0
    2.5210   -1.4780   -3.9039 H   0  0  0  1  0  0  0  0  0  0  0  0
   -3.4267   -3.3479   -3.6395 O   0  0  0  1  0  0  0  0  0  0  0  0
   -3.9027   -3.8769   -4.2838 H   0  0  0  1  0  0  0  0  0  0  0  0
   -2.1807   -5.6119   -3.0268 O   0  0  0  1  0  0  0  0  0  0  0  0
   -2.2612   -6.1602   -4.5704 P   0  0  0  1  0  0  0  0  0  0  0  0
   -3.3901   -7.0937   -4.7810 O   0  0  0  1  0  0  0  0  0  0  0  0
   -2.6437   -4.8739   -5.4779 O   0  5  0  1  0  0  0  0  0  0  0  0
   -0.7561   -6.6215   -4.9529 O   0  5  0  1  0  0  0  0  0  0  0  0
   -7.4720   -9.4172   -4.4797 C   0  0  0  1  0  0  0  0  0  0  0  0
   -6.9307   -8.7416   -3.8508 H   0  0  0  1  0  0  0  0  0  0  0  0
   -7.1319   -9.0992   -5.9275 C   0  0  0  1  0  0  0  0  0  0  0  0
   -7.9729   -9.2054   -6.8188 O   0  0  0  1  0  0  0  0  0  0  0  0
   -5.8704   -8.7016   -6.1564 N   0  0  0  1  0  0  0  0  0  0  0  0
   -5.2634   -8.6553   -5.3883 H   0  0  0  1  0  0  0  0  0  0  0  0
   -5.3360   -8.3342   -7.4593 C   0  0  0  1  0  0  0  0  0  0  0  0
   -4.4924   -7.6920   -7.3151 H   0  0  0  1  0  0  0  0  0  0  0  0
   -6.0934   -7.8118   -8.0055 H   0  0  0  1  0  0  0  0  0  0  0  0
   -4.8942   -9.5465   -8.2736 C   0  0  0  1  0  0  0  0  0  0  0  0
   -4.4442   -9.2119   -9.1849 H   0  0  0  1  0  0  0  0  0  0  0  0
   -5.7494  -10.1492   -8.4977 H   0  0  0  1  0  0  0  0  0  0  0  0
   -3.8897  -10.3773   -7.4990 C   0  0  0  1  0  0  0  0  0  0  0  0
   -3.7841  -10.2760   -6.2774 O   0  0  0  1  0  0  0  0  0  0  0  0
   -3.1384  -11.2154   -8.2306 N   0  0  0  1  0  0  0  0  0  0  0  0
   -3.1802  -11.1819   -9.2091 H   0  0  0  1  0  0  0  0  0  0  0  0
   -2.2621  -12.1737   -7.5737 C   0  0  0  1  0  0  0  0  0  0  0  0
   -1.7700  -11.6856   -6.7585 H   0  0  0  1  0  0  0  0  0  0  0  0
   -1.5330  -12.5120   -8.2801 H   0  0  0  1  0  0  0  0  0  0  0  0
   -3.0112  -13.3728   -7.0391 C   0  0  0  1  0  0  0  0  0  0  0  0
   -3.4181  -13.1312   -6.0795 H   0  0  0  1  0  0  0  0  0  0  0  0
   -2.3325  -14.1943   -6.9428 H   0  0  0  1  0  0  0  0  0  0  0  0
   -4.3551  -13.8454   -8.1470 S   0  0  0  1  0  0  0  0  0  0  0  0
   -4.6843  -15.5447   -7.7414 C   0  0  0  1  0  0  0  0  0  0  0  0
   -4.0159  -16.1853   -6.9757 O   0  0  0  1  0  0  0  0  0  0  0  0
   -5.8931  -16.0823   -8.4670 C   0  0  0  1  0  0  0  0  0  0  0  0
   -5.7018  -16.0299   -9.5185 H   0  0  0  1  0  0  0  0  0  0  0  0
   -6.7308  -15.4620   -8.2251 H   0  0  0  1  0  0  0  0  0  0  0  0
   -6.2482  -17.5068   -8.1240 C   0  0  0  1  0  0  0  0  0  0  0  0
   -6.2116  -18.3738   -8.9792 O   0  0  0  1  0  0  0  0  0  0  0  0
   -6.6353  -17.8280   -6.7537 C   0  0  0  1  0  0  0  0  0  0  0  0
   -6.6630  -17.0302   -6.0872 H   0  0  0  1  0  0  0  0  0  0  0  0
   -6.9574  -19.0205   -6.2541 C   0  0  0  1  0  0  0  0  0  0  0  0
   -6.9353  -19.8308   -6.9058 H   0  0  0  1  0  0  0  0  0  0  0  0
   -7.3442  -19.2910   -4.8500 C   0  0  0  1  0  0  0  0  0  0  0  0
   -7.8607  -20.5275   -4.5116 C   0  0  0  1  0  0  0  0  0  0  0  0
   -7.9792  -21.2590   -5.2412 H   0  0  0  1  0  0  0  0  0  0  0  0
   -8.2207  -20.7925   -3.1995 C   0  0  0  1  0  0  0  0  0  0  0  0
   -8.0682  -19.8185   -2.2307 C   0  0  0  1  0  0  0  0  0  0  0  0
   -7.5502  -18.5784   -2.5703 C   0  0  0  1  0  0  0  0  0  0  0  0
   -7.4316  -17.8469   -1.8407 H   0  0  0  1  0  0  0  0  0  0  0  0
   -7.1912  -18.3141   -3.8786 C   0  0  0  1  0  0  0  0  0  0  0  0
   -6.8062  -17.3824   -4.1341 H   0  0  0  1  0  0  0  0  0  0  0  0
   -8.3391  -20.1113   -0.9305 O   0  5  0  1  0  0  0  0  0  0  0  0
   -8.6261  -22.0235   -2.8070 O   0  0  0  1  0  0  0  0  0  0  0  0
   -8.9149  -22.9793   -3.8393 C   0  0  0  1  0  0  0  0  0  0  0  0
   -8.0197  -23.1999   -4.3823 H   0  0  0  1  0  0  0  0  0  0  0  0
   -9.6458  -22.5731   -4.5069 H   0  0  0  1  0  0  0  0  0  0  0  0
   -9.2942  -23.8771   -3.3977 H   0  0  0  1  0  0  0  0  0  0  0  0
   -8.8618   -9.2687   -4.2564 O   0  0  0  1  0  0  0  0  0  0  0  0
   -9.0051   -8.7138   -3.4862 H   0  0  0  1  0  0  0  0  0  0  0  0
  1  2  1  0  0  0  0
  1  3  1  0  0  0  0
  1  4  1  0  0  0  0
  1  5  1  0  0  0  0
  5  6  1  0  0  0  0
  5 10  1  0  0  0  0
  5 55  1  0  0  0  0
  6  7  1  0  0  0  0
  6  8  1  0  0  0  0
  6  9  1  0  0  0  0
 10 11  1  0  0  0  0
 10 12  1  0  0  0  0
 10 13  1  0  0  0  0
 13 14  1  0  0  0  0
 14 15  2  0  0  0  0
 14 16  1  0  0  0  0
 14 17  1  0  0  0  0
 17 18  1  0  0  0  0
 18 19  1  0  0  0  0
 18 20  2  0  0  0  0
 18 21  1  0  0  0  0
 21 22  1  0  0  0  0
 22 23  1  0  0  0  0
 22 24  1  0  0  0  0
 22 25  1  0  0  0  0
 25 26  1  0  0  0  0
 25 27  1  0  0  0  0
 25 33  1  0  0  0  0
 27 28  1  0  0  0  0
 27 29  1  0  0  0  0
 27 50  1  0  0  0  0
 29 30  1  0  0  0  0
 29 31  1  0  0  0  0
 29 48  1  0  0  0  0
 31 32  1  0  0  0  0
 31 33  1  0  0  0  0
 31 34  1  0  0  0  0
 34 35  1  0  0  0  0
 34 44  1  0  0  0  0
 35 36  1  0  0  0  0
 35 37  2  0  0  0  0
 37 38  1  0  0  0  0
 38 39  1  0  0  0  0
 38 44  2  0  0  0  0
 39 40  2  0  0  0  0
 39 45  1  0  0  0  0
 40 41  1  0  0  0  0
 41 42  1  0  0  0  0
 41 43  2  0  0  0  0
 43 44  1  0  0  0  0
 45 46  1  0  0  0  0
 45 47  1  0  0  0  0
 48 49  1  0  0  0  0
 50 51  1  0  0  0  0
 51 52  2  0  0  0  0
 51 53  1  0  0  0  0
 51 54  1  0  0  0  0
 55 56  1  0  0  0  0
 55 57  1  0  0  0  0
 55104  1  0  0  0  0
 57 58  2  0  0  0  0
 57 59  1  0  0  0  0
 59 60  1  0  0  0  0
 59 61  1  0  0  0  0
 61 62  1  0  0  0  0
 61 63  1  0  0  0  0
 61 64  1  0  0  0  0
 64 65  1  0  0  0  0
 64 66  1  0  0  0  0
 64 67  1  0  0  0  0
 67 68  2  0  0  0  0
 67 69  1  0  0  0  0
 69 70  1  0  0  0  0
 69 71  1  0  0  0  0
 71 72  1  0  0  0  0
 71 73  1  0  0  0  0
 71 74  1  0  0  0  0
 74 75  1  0  0  0  0
 74 76  1  0  0  0  0
 74 77  1  0  0  0  0
 77 78  1  0  0  0  0
 78 79  2  0  0  0  0
 78 80  1  0  0  0  0
 80 81  1  0  0  0  0
 80 82  1  0  0  0  0
 80 83  1  0  0  0  0
 83 84  2  0  0  0  0
 83 85  1  0  0  0  0
 85 86  1  0  0  0  0
 85 87  2  0  0  0  0
 87 88  1  0  0  0  0
 87 89  1  0  0  0  0
 89 90  2  0  0  0  0
 89 96  1  0  0  0  0
 90 91  1  0  0  0  0
 90 92  1  0  0  0  0
 92 93  2  0  0  0  0
 92 99  1  0  0  0  0
 93 94  1  0  0  0  0
 93 98  1  0  0  0  0
 94 95  1  0  0  0  0
 94 96  2  0  0  0  0
 96 97  1  0  0  0  0
 99100  1  0  0  0  0
100101  1  0  0  0  0
100102  1  0  0  0  0
100103  1  0  0  0  0
104105  1  0  0  0  0
M  BCL ATM C_TeTeTeTe H_S H_S H_S C_TeTeTeTe C_TeTeTeTe H_S H_S H_S C_TeTeTeTe H_S H_S O_Tr2TrTrPi2 P_TeTeTeTePi O_Tr2Tr2TrPi O_Te2Te2Te2Te O_Tr2TrTrPi2 P_TeTeTeTePi O_Te2Te2TeTe O_Tr2Tr2TrPi O_Tr2TrTrPi2 C_TeTeTeTe H_S H_S C_TeTeTeTe H_S C_TeTeTeTe H_S C_TeTeTeTe H_S C_TeTeTeTe H_S O_Te2Te2TeTe N_TrTrTrPi2 C_TrTrTrPi H_S N_Tr2TrTrPi C_TrTrTrPi C_TrTrTrPi N_Tr2TrTrPi C_TrTrTrPi H_S N_Tr2TrTrPi C_TrTrTrPi N_TrTrTrPi2 H_S H_S O_Te2Te2TeTe H_S O_Tr2TrTrPi2 P_TeTeTeTePi O_Tr2Tr2TrPi O_Te2Te2Te2Te O_Te2Te2Te2Te C_TeTeTeTe H_S C_TrTrTrPi O_Tr2Tr2TrPi N_TrTrTrPi2 H_S C_TeTeTeTe H_S H_S C_TeTeTeTe H_S H_S C_TrTrTrPi O_Tr2Tr2TrPi N_TrTrTrPi2 H_S C_TeTeTeTe H_S H_S C_TeTeTeTe H_S H_S S_Te2Te2TeTe C_TrTrTrPi O_Tr2Tr2TrPi C_TeTeTeTe H_S H_S C_TrTrTrPi O_Tr2Tr2TrPi C_TrTrTrPi H_S C_TrTrTrPi H_S C_TrTrTrPi C_TrTrTrPi H_S C_TrTrTrPi C_TrTrTrPi C_TrTrTrPi H_S C_TrTrTrPi H_S O_Te2Te2Te2Te O_Tr2TrTrPi2 C_TeTeTeTe H_S H_S H_S O_Te2Te2TeTe H_S
M  BCL BND NonConjugatedSingleBond NonConjugatedSingleBond NonConjugatedSingleBond NonConjugatedSingleBond NonConjugatedSingleBond NonConjugatedSingleBond NonConjugatedSingleBond NonConjugatedSingleBond NonConjugatedSingleBond NonConjugatedSingleBond NonConjugatedSingleBond NonConjugatedSingleBond NonConjugatedSingleBond ConjugatedSingleBond ConjugatedDoubleBond ConjugatedSingleBond ConjugatedSingleBond ConjugatedSingleBond ConjugatedSingleBond ConjugatedDoubleBond ConjugatedSingleBond NonConjugatedSingleBond NonConjugatedSingleBond NonConjugatedSingleBond NonConjugatedSingleBond NonConjugatedSingleBond NonConjugatedSingleBondInRing NonConjugatedSingleBondInRing NonConjugatedSingleBond NonConjugatedSingleBondInRing NonConjugatedSingleBond NonConjugatedSingleBond NonConjugatedSingleBondInRing NonConjugatedSingleBond NonConjugatedSingleBond NonConjugatedSingleBondInRing NonConjugatedSingleBond AromaticSingleBond AromaticSingleBond NonConjugatedSingleBond AromaticDoubleBond AromaticSingleBond AromaticSingleBond AromaticDoubleBond AromaticDoubleBond ConjugatedSingleBond AromaticSingleBond NonConjugatedSingleBond AromaticDoubleBond AromaticSingleBond NonConjugatedSingleBond NonConjugatedSingleBond NonConjugatedSingleBond ConjugatedSingleBond ConjugatedDoubleBond ConjugatedSingleBond ConjugatedSingleBond NonConjugatedSingleBond NonConjugatedSingleBond NonConjugatedSingleBond ConjugatedDoubleBond AmideSingleBond NonConjugatedSingleBond NonConjugatedSingleBond NonConjugatedSingleBond NonConjugatedSingleBond NonConjugatedSingleBond NonConjugatedSingleBond NonConjugatedSingleBond NonConjugatedSingleBond ConjugatedDoubleBond AmideSingleBond NonConjugatedSingleBond NonConjugatedSingleBond NonConjugatedSingleBond NonConjugatedSingleBond NonConjugatedSingleBond NonConjugatedSingleBond NonConjugatedSingleBond NonConjugatedSingleBond ConjugatedSingleBond ConjugatedDoubleBond NonConjugatedSingleBond NonConjugatedSingleBond NonConjugatedSingleBond NonConjugatedSingleBond ConjugatedDoubleBond ConjugatedSingleBond NonConjugatedSingleBond ConjugatedDoubleBond NonConjugatedSingleBond ConjugatedSingleBond AromaticDoubleBond AromaticSingleBond NonConjugatedSingleBond AromaticSingleBond AromaticDoubleBond ConjugatedSingleBond AromaticSingleBond ConjugatedSingleBond NonConjugatedSingleBond AromaticDoubleBond NonConjugatedSingleBond NonConjugatedSingleBond NonConjugatedSingleBond NonConjugatedSingleBond NonConjugatedSingleBond NonConjugatedSingleBond
M  BCL CHI  14   R  18   S  25   R  27   R  29   R  31   S  55   R
M  BCL DBI - - - - - - - - - - - E - - -
M  END
> <ConfClashScore>
0 

> <ConfOneFourInteractionScore>
-0.972662 

> <ConfScore>
0.0781939 

> <ConfScorePBest>
0.0131415 

> <ConfTolerance>
3.09999 

$$$$
L03.****
  PyMOL2.5          3D                             0

105108  0  0  0  0  0  0  0  0999 V2000
    3.2850  -11.4641   -2.2184 C   0  0  0  1  0  0  0  0  0  0  0  0
    4.1734  -10.8753   -2.1234 H   0  0  0  1  0  0  0  0  0  0  0  0
    3.2703  -11.9345   -3.1794 H   0  0  0  1  0  0  0  0  0  0  0  0
    3.2702  -12.2127   -1.4541 H   0  0  0  1  0  0  0  0  0  0  0  0
    2.0544  -10.5610   -2.0730 C   0  0  0  1  0  0  0  0  0  0  0  0
    1.4779  -10.2811   -3.4660 C   0  0  0  1  0  0  0  0  0  0  0  0
    2.2702  -10.2708   -4.1850 H   0  0  0  1  0  0  0  0  0  0  0  0
    0.9861   -9.3308   -3.4638 H   0  0  0  1  0  0  0  0  0  0  0  0
    0.7750  -11.0465   -3.7212 H   0  0  0  1  0  0  0  0  0  0  0  0
    2.4697   -9.2557   -1.4526 C   0  0  0  1  0  0  0  0  0  0  0  0
    3.2410   -8.7949   -2.0337 H   0  0  0  1  0  0  0  0  0  0  0  0
    2.8201   -9.4118   -0.4537 H   0  0  0  1  0  0  0  0  0  0  0  0
    1.2782   -8.4290   -1.4473 O   0  0  0  1  0  0  0  0  0  0  0  0
    0.9328   -7.4245   -0.2863 P   0  0  0  1  0  0  0  0  0  0  0  0
    1.0766   -8.5167    0.7020 O   0  0  0  1  0  0  0  0  0  0  0  0
    1.8569   -6.7718   -1.4459 O   0  5  0  1  0  0  0  0  0  0  0  0
    0.5813   -6.4021    0.8960 O   0  0  0  1  0  0  0  0  0  0  0  0
   -0.6427   -5.9141    1.8075 P   0  0  0  1  0  0  0  0  0  0  0  0
   -0.6862   -4.4382    1.6871 O   0  0  0  0  0  0  0  0  0  0  0  0
   -0.6183   -6.5810    3.1130 O   0  0  0  1  0  0  0  0  0  0  0  0
   -1.8793   -6.5488    1.0770 O   0  0  0  1  0  0  0  0  0  0  0  0
   -2.0474   -6.5259   -0.3632 C   0  0  0  1  0  0  0  0  0  0  0  0
   -2.3974   -7.4777   -0.7044 H   0  0  0  1  0  0  0  0  0  0  0  0
   -1.1146   -6.2981   -0.8354 H   0  0  0  1  0  0  0  0  0  0  0  0
   -3.0629   -5.4577   -0.6893 C   0  0  0  1  0  0  0  0  0  0  0  0
   -3.9928   -5.6921   -0.2147 H   0  0  0  1  0  0  0  0  0  0  0  0
   -3.2483   -5.3433   -2.1915 C   0  0  0  1  0  0  0  0  0  0  0  0
   -4.0085   -6.0109   -2.5397 H   0  0  0  1  0  0  0  0  0  0  0  0
   -3.6684   -3.9054   -2.3558 C   0  0  0  1  0  0  0  0  0  0  0  0
   -4.7069   -3.7742   -2.1340 H   0  0  0  1  0  0  0  0  0  0  0  0
   -2.7850   -3.2081   -1.3222 C   0  0  0  1  0  0  0  0  0  0  0  0
   -3.2698   -2.3338   -0.9406 H   0  0  0  1  0  0  0  0  0  0  0  0
   -2.5997   -4.1919   -0.2682 O   0  0  0  1  0  0  0  0  0  0  0  0
   -1.4996   -2.8357   -1.9108 N   0  0  0  1  0  0  0  0  0  0  0  0
   -0.4527   -3.6615   -2.1866 C   0  0  0  1  0  0  0  0  0  0  0  0
   -0.4759   -4.6851   -2.0047 H   0  0  0  1  0  0  0  0  0  0  0  0
    0.5937   -3.0476   -2.7054 N   0  0  0  1  0  0  0  0  0  0  0  0
    0.1702   -1.7210   -2.7891 C   0  0  0  1  0  0  0  0  0  0  0  0
    0.8072   -0.5683   -3.2802 C   0  0  0  1  0  0  0  0  0  0  0  0
    0.1217    0.5989   -3.2157 N   0  0  0  1  0  0  0  0  0  0  0  0
   -1.1183    0.5806   -2.6950 C   0  0  0  1  0  0  0  0  0  0  0  0
   -1.5995    1.5022   -2.6662 H   0  0  0  1  0  0  0  0  0  0  0  0
   -1.8227   -0.4419   -2.2102 N   0  0  0  1  0  0  0  0  0  0  0  0
   -1.0972   -1.5752   -2.3011 C   0  0  0  1  0  0  0  0  0  0  0  0
    2.0950   -0.6236   -3.8133 N   0  0  0  1  0  0  0  0  0  0  0  0
    2.5012    0.1811   -4.1979 H   0  0  0  1  0  0  0  0  0  0  0  0
    2.5937   -1.4672   -3.8032 H   0  0  0  1  0  0  0  0  0  0  0  0
   -3.3993   -3.4314   -3.6761 O   0  0  0  1  0  0  0  0  0  0  0  0
   -4.1067   -2.8463   -3.9569 H   0  0  0  1  0  0  0  0  0  0  0  0
   -2.0086   -5.6117   -2.8954 O   0  0  0  1  0  0  0  0  0  0  0  0
   -2.0089   -6.7411   -4.0844 P   0  0  0  1  0  0  0  0  0  0  0  0
   -2.2932   -8.0892   -3.5437 O   0  0  0  1  0  0  0  0  0  0  0  0
   -3.1973   -6.4362   -5.1423 O   0  5  0  1  0  0  0  0  0  0  0  0
   -0.5729   -6.5870   -4.8183 O   0  5  0  1  0  0  0  0  0  0  0  0
    1.0479  -11.2901   -1.1767 C   0  0  0  1  0  0  0  0  0  0  0  0
    0.1656  -10.6884   -1.1087 H   0  0  0  1  0  0  0  0  0  0  0  0
    0.6692  -12.6243   -1.7895 C   0  0  0  1  0  0  0  0  0  0  0  0
    1.0267  -12.9280   -2.9157 O   0  0  0  1  0  0  0  0  0  0  0  0
   -0.0744  -13.4313   -1.0161 N   0  0  0  1  0  0  0  0  0  0  0  0
   -0.2897  -13.1453   -0.1039 H   0  0  0  1  0  0  0  0  0  0  0  0
   -0.5717  -14.7160   -1.4853 C   0  0  0  1  0  0  0  0  0  0  0  0
    0.2588  -15.3071   -1.8106 H   0  0  0  1  0  0  0  0  0  0  0  0
   -1.2341  -14.5472   -2.3085 H   0  0  0  1  0  0  0  0  0  0  0  0
   -1.3208  -15.4805   -0.4062 C   0  0  0  1  0  0  0  0  0  0  0  0
   -1.5422  -16.4604   -0.7744 H   0  0  0  1  0  0  0  0  0  0  0  0
   -2.2335  -14.9640   -0.1941 H   0  0  0  1  0  0  0  0  0  0  0  0
   -0.5380  -15.6147    0.8726 C   0  0  0  1  0  0  0  0  0  0  0  0
    0.6631  -15.4223    0.9246 O   0  0  0  1  0  0  0  0  0  0  0  0
   -1.1820  -15.9586    1.9983 N   0  0  0  1  0  0  0  0  0  0  0  0
   -2.1537  -16.0853    1.9865 H   0  0  0  1  0  0  0  0  0  0  0  0
   -0.4406  -16.1436    3.2368 C   0  0  0  1  0  0  0  0  0  0  0  0
    0.2021  -15.3004    3.3810 H   0  0  0  1  0  0  0  0  0  0  0  0
    0.1495  -17.0324    3.1537 H   0  0  0  1  0  0  0  0  0  0  0  0
   -1.3435  -16.2737    4.4375 C   0  0  0  1  0  0  0  0  0  0  0  0
   -0.7520  -16.3417    5.3266 H   0  0  0  1  0  0  0  0  0  0  0  0
   -1.9456  -17.1530    4.3410 H   0  0  0  1  0  0  0  0  0  0  0  0
   -2.4084  -14.8146    4.5260 S   0  0  0  1  0  0  0  0  0  0  0  0
   -1.4622  -13.7195    5.5585 C   0  0  0  1  0  0  0  0  0  0  0  0
   -0.3903  -14.0012    6.0137 O   0  0  0  1  0  0  0  0  0  0  0  0
   -2.1643  -12.4032    5.7917 C   0  0  0  1  0  0  0  0  0  0  0  0
   -2.0119  -12.1072    6.8086 H   0  0  0  1  0  0  0  0  0  0  0  0
   -3.2107  -12.5343    5.6108 H   0  0  0  1  0  0  0  0  0  0  0  0
   -1.6477  -11.3123    4.8858 C   0  0  0  1  0  0  0  0  0  0  0  0
   -0.5145  -11.3680    4.4373 O   0  0  0  1  0  0  0  0  0  0  0  0
   -2.5250  -10.1930    4.5565 C   0  0  0  1  0  0  0  0  0  0  0  0
   -2.0925   -9.4967    3.9164 H   0  0  0  1  0  0  0  0  0  0  0  0
   -3.7715   -9.8888    4.9157 C   0  0  0  1  0  0  0  0  0  0  0  0
   -4.2279  -10.5692    5.5563 H   0  0  0  1  0  0  0  0  0  0  0  0
   -4.6020   -8.7225    4.5355 C   0  0  0  1  0  0  0  0  0  0  0  0
   -5.9471   -8.7112    4.8530 C   0  0  0  1  0  0  0  0  0  0  0  0
   -6.3705   -9.5195    5.3520 H   0  0  0  1  0  0  0  0  0  0  0  0
   -6.7317   -7.6223    4.5064 C   0  0  0  1  0  0  0  0  0  0  0  0
   -6.1702   -6.5503    3.8385 C   0  0  0  1  0  0  0  0  0  0  0  0
   -4.8211   -6.5619    3.5201 C   0  0  0  1  0  0  0  0  0  0  0  0
   -4.3977   -5.7536    3.0211 H   0  0  0  1  0  0  0  0  0  0  0  0
   -4.0387   -7.6476    3.8657 C   0  0  0  1  0  0  0  0  0  0  0  0
   -3.0274   -7.6580    3.6232 H   0  0  0  1  0  0  0  0  0  0  0  0
   -7.0361   -5.5432    3.5459 O   0  5  0  1  0  0  0  0  0  0  0  0
   -8.0544   -7.4962    4.7678 O   0  0  0  1  0  0  0  0  0  0  0  0
   -8.7244   -8.6368    5.3271 C   0  0  0  1  0  0  0  0  0  0  0  0
   -9.7667   -8.5906    5.0898 H   0  0  0  1  0  0  0  0  0  0  0  0
   -8.6005   -8.6372    6.3899 H   0  0  0  1  0  0  0  0  0  0  0  0
   -8.3051   -9.5323    4.9182 H   0  0  0  1  0  0  0  0  0  0  0  0
    1.6340  -11.4234    0.1032 O   0  0  0  1  0  0  0  0  0  0  0  0
    2.5038  -11.8205    0.0175 H   0  0  0  1  0  0  0  0  0  0  0  0
  1  2  1  0  0  0  0
  1  3  1  0  0  0  0
  1  4  1  0  0  0  0
  1  5  1  0  0  0  0
  5  6  1  0  0  0  0
  5 10  1  0  0  0  0
  5 55  1  0  0  0  0
  6  7  1  0  0  0  0
  6  8  1  0  0  0  0
  6  9  1  0  0  0  0
 10 11  1  0  0  0  0
 10 12  1  0  0  0  0
 10 13  1  0  0  0  0
 13 14  1  0  0  0  0
 14 15  2  0  0  0  0
 14 16  1  0  0  0  0
 14 17  1  0  0  0  0
 17 18  1  0  0  0  0
 18 19  1  0  0  0  0
 18 20  2  0  0  0  0
 18 21  1  0  0  0  0
 21 22  1  0  0  0  0
 22 23  1  0  0  0  0
 22 24  1  0  0  0  0
 22 25  1  0  0  0  0
 25 26  1  0  0  0  0
 25 27  1  0  0  0  0
 25 33  1  0  0  0  0
 27 28  1  0  0  0  0
 27 29  1  0  0  0  0
 27 50  1  0  0  0  0
 29 30  1  0  0  0  0
 29 31  1  0  0  0  0
 29 48  1  0  0  0  0
 31 32  1  0  0  0  0
 31 33  1  0  0  0  0
 31 34  1  0  0  0  0
 34 35  1  0  0  0  0
 34 44  1  0  0  0  0
 35 36  1  0  0  0  0
 35 37  2  0  0  0  0
 37 38  1  0  0  0  0
 38 39  1  0  0  0  0
 38 44  2  0  0  0  0
 39 40  2  0  0  0  0
 39 45  1  0  0  0  0
 40 41  1  0  0  0  0
 41 42  1  0  0  0  0
 41 43  2  0  0  0  0
 43 44  1  0  0  0  0
 45 46  1  0  0  0  0
 45 47  1  0  0  0  0
 48 49  1  0  0  0  0
 50 51  1  0  0  0  0
 51 52  2  0  0  0  0
 51 53  1  0  0  0  0
 51 54  1  0  0  0  0
 55 56  1  0  0  0  0
 55 57  1  0  0  0  0
 55104  1  0  0  0  0
 57 58  2  0  0  0  0
 57 59  1  0  0  0  0
 59 60  1  0  0  0  0
 59 61  1  0  0  0  0
 61 62  1  0  0  0  0
 61 63  1  0  0  0  0
 61 64  1  0  0  0  0
 64 65  1  0  0  0  0
 64 66  1  0  0  0  0
 64 67  1  0  0  0  0
 67 68  2  0  0  0  0
 67 69  1  0  0  0  0
 69 70  1  0  0  0  0
 69 71  1  0  0  0  0
 71 72  1  0  0  0  0
 71 73  1  0  0  0  0
 71 74  1  0  0  0  0
 74 75  1  0  0  0  0
 74 76  1  0  0  0  0
 74 77  1  0  0  0  0
 77 78  1  0  0  0  0
 78 79  2  0  0  0  0
 78 80  1  0  0  0  0
 80 81  1  0  0  0  0
 80 82  1  0  0  0  0
 80 83  1  0  0  0  0
 83 84  2  0  0  0  0
 83 85  1  0  0  0  0
 85 86  1  0  0  0  0
 85 87  2  0  0  0  0
 87 88  1  0  0  0  0
 87 89  1  0  0  0  0
 89 90  2  0  0  0  0
 89 96  1  0  0  0  0
 90 91  1  0  0  0  0
 90 92  1  0  0  0  0
 92 93  2  0  0  0  0
 92 99  1  0  0  0  0
 93 94  1  0  0  0  0
 93 98  1  0  0  0  0
 94 95  1  0  0  0  0
 94 96  2  0  0  0  0
 96 97  1  0  0  0  0
 99100  1  0  0  0  0
100101  1  0  0  0  0
100102  1  0  0  0  0
100103  1  0  0  0  0
104105  1  0  0  0  0
M  BCL ATM C_TeTeTeTe H_S H_S H_S C_TeTeTeTe C_TeTeTeTe H_S H_S H_S C_TeTeTeTe H_S H_S O_Tr2TrTrPi2 P_TeTeTeTePi O_Tr2Tr2TrPi O_Te2Te2Te2Te O_Tr2TrTrPi2 P_TeTeTeTePi O_Te2Te2TeTe O_Tr2Tr2TrPi O_Tr2TrTrPi2 C_TeTeTeTe H_S H_S C_TeTeTeTe H_S C_TeTeTeTe H_S C_TeTeTeTe H_S C_TeTeTeTe H_S O_Te2Te2TeTe N_TrTrTrPi2 C_TrTrTrPi H_S N_Tr2TrTrPi C_TrTrTrPi C_TrTrTrPi N_Tr2TrTrPi C_TrTrTrPi H_S N_Tr2TrTrPi C_TrTrTrPi N_TrTrTrPi2 H_S H_S O_Te2Te2TeTe H_S O_Tr2TrTrPi2 P_TeTeTeTePi O_Tr2Tr2TrPi O_Te2Te2Te2Te O_Te2Te2Te2Te C_TeTeTeTe H_S C_TrTrTrPi O_Tr2Tr2TrPi N_TrTrTrPi2 H_S C_TeTeTeTe H_S H_S C_TeTeTeTe H_S H_S C_TrTrTrPi O_Tr2Tr2TrPi N_TrTrTrPi2 H_S C_TeTeTeTe H_S H_S C_TeTeTeTe H_S H_S S_Te2Te2TeTe C_TrTrTrPi O_Tr2Tr2TrPi C_TeTeTeTe H_S H_S C_TrTrTrPi O_Tr2Tr2TrPi C_TrTrTrPi H_S C_TrTrTrPi H_S C_TrTrTrPi C_TrTrTrPi H_S C_TrTrTrPi C_TrTrTrPi C_TrTrTrPi H_S C_TrTrTrPi H_S O_Te2Te2Te2Te O_Tr2TrTrPi2 C_TeTeTeTe H_S H_S H_S O_Te2Te2TeTe H_S
M  BCL BND NonConjugatedSingleBond NonConjugatedSingleBond NonConjugatedSingleBond NonConjugatedSingleBond NonConjugatedSingleBond NonConjugatedSingleBond NonConjugatedSingleBond NonConjugatedSingleBond NonConjugatedSingleBond NonConjugatedSingleBond NonConjugatedSingleBond NonConjugatedSingleBond NonConjugatedSingleBond ConjugatedSingleBond ConjugatedDoubleBond ConjugatedSingleBond ConjugatedSingleBond ConjugatedSingleBond ConjugatedSingleBond ConjugatedDoubleBond ConjugatedSingleBond NonConjugatedSingleBond NonConjugatedSingleBond NonConjugatedSingleBond NonConjugatedSingleBond NonConjugatedSingleBond NonConjugatedSingleBondInRing NonConjugatedSingleBondInRing NonConjugatedSingleBond NonConjugatedSingleBondInRing NonConjugatedSingleBond NonConjugatedSingleBond NonConjugatedSingleBondInRing NonConjugatedSingleBond NonConjugatedSingleBond NonConjugatedSingleBondInRing NonConjugatedSingleBond AromaticSingleBond AromaticSingleBond NonConjugatedSingleBond AromaticDoubleBond AromaticSingleBond AromaticSingleBond AromaticDoubleBond AromaticDoubleBond ConjugatedSingleBond AromaticSingleBond NonConjugatedSingleBond AromaticDoubleBond AromaticSingleBond NonConjugatedSingleBond NonConjugatedSingleBond NonConjugatedSingleBond ConjugatedSingleBond ConjugatedDoubleBond ConjugatedSingleBond ConjugatedSingleBond NonConjugatedSingleBond NonConjugatedSingleBond NonConjugatedSingleBond ConjugatedDoubleBond AmideSingleBond NonConjugatedSingleBond NonConjugatedSingleBond NonConjugatedSingleBond NonConjugatedSingleBond NonConjugatedSingleBond NonConjugatedSingleBond NonConjugatedSingleBond NonConjugatedSingleBond ConjugatedDoubleBond AmideSingleBond NonConjugatedSingleBond NonConjugatedSingleBond NonConjugatedSingleBond NonConjugatedSingleBond NonConjugatedSingleBond NonConjugatedSingleBond NonConjugatedSingleBond NonConjugatedSingleBond ConjugatedSingleBond ConjugatedDoubleBond NonConjugatedSingleBond NonConjugatedSingleBond NonConjugatedSingleBond NonConjugatedSingleBond ConjugatedDoubleBond ConjugatedSingleBond NonConjugatedSingleBond ConjugatedDoubleBond NonConjugatedSingleBond ConjugatedSingleBond AromaticDoubleBond AromaticSingleBond NonConjugatedSingleBond AromaticSingleBond AromaticDoubleBond ConjugatedSingleBond AromaticSingleBond ConjugatedSingleBond NonConjugatedSingleBond AromaticDoubleBond NonConjugatedSingleBond NonConjugatedSingleBond NonConjugatedSingleBond NonConjugatedSingleBond NonConjugatedSingleBond NonConjugatedSingleBond
M  BCL CHI  14   R  18   S  25   R  27   R  29   R  31   S  55   R
M  BCL DBI - - - - - - - - - - - E - - -
M  END
> <ConfClashScore>
0 

> <ConfOneFourInteractionScore>
-0.971021 

> <ConfScore>
0.0844905 

> <ConfScorePBest>
0.0130385 

> <ConfTolerance>
2.82452 

$$$$
L03.****
  PyMOL2.5          3D                             0

105108  0  0  0  0  0  0  0  0999 V2000
    2.1631  -11.8309    1.8396 C   0  0  0  1  0  0  0  0  0  0  0  0
    1.5933  -12.7363    1.8617 H   0  0  0  1  0  0  0  0  0  0  0  0
    2.6267  -11.6782    2.7918 H   0  0  0  1  0  0  0  0  0  0  0  0
    2.9164  -11.9023    1.0829 H   0  0  0  1  0  0  0  0  0  0  0  0
    1.2360  -10.6501    1.5276 C   0  0  0  1  0  0  0  0  0  0  0  0
   -0.0013  -10.6731    2.4330 C   0  0  0  1  0  0  0  0  0  0  0  0
   -0.4963  -11.6169    2.3375 H   0  0  0  1  0  0  0  0  0  0  0  0
   -0.6695   -9.8892    2.1434 H   0  0  0  1  0  0  0  0  0  0  0  0
    0.2986  -10.5292    3.4500 H   0  0  0  1  0  0  0  0  0  0  0  0
    0.8133  -10.7731    0.1006 C   0  0  0  1  0  0  0  0  0  0  0  0
    0.4734  -11.7688   -0.0942 H   0  0  0  1  0  0  0  0  0  0  0  0
    1.6358  -10.5438   -0.5442 H   0  0  0  1  0  0  0  0  0  0  0  0
   -0.2638   -9.8326   -0.1211 O   0  0  0  1  0  0  0  0  0  0  0  0
   -0.7667   -9.5107   -1.5770 P   0  0  0  1  0  0  0  0  0  0  0  0
   -0.9343  -10.9576   -1.8393 O   0  0  0  1  0  0  0  0  0  0  0  0
   -1.2985   -8.4575   -0.4669 O   0  5  0  1  0  0  0  0  0  0  0  0
   -1.2794   -9.1833   -3.0607 O   0  0  0  1  0  0  0  0  0  0  0  0
   -2.6703   -8.5795   -3.6286 P   0  0  0  1  0  0  0  0  0  0  0  0
   -3.7354   -9.2942   -2.8575 O   0  0  0  0  0  0  0  0  0  0  0  0
   -2.7340   -8.6173   -5.1089 O   0  0  0  1  0  0  0  0  0  0  0  0
   -2.6206   -7.0414   -3.2615 O   0  0  0  1  0  0  0  0  0  0  0  0
   -2.5363   -6.6628   -1.8631 C   0  0  0  1  0  0  0  0  0  0  0  0
   -1.5208   -6.4265   -1.6227 H   0  0  0  1  0  0  0  0  0  0  0  0
   -2.8661   -7.4801   -1.2564 H   0  0  0  1  0  0  0  0  0  0  0  0
   -3.4062   -5.4570   -1.5895 C   0  0  0  1  0  0  0  0  0  0  0  0
   -4.3157   -5.7715   -1.1216 H   0  0  0  1  0  0  0  0  0  0  0  0
   -3.7008   -4.7010   -2.8844 C   0  0  0  1  0  0  0  0  0  0  0  0
   -4.6001   -5.0521   -3.3457 H   0  0  0  1  0  0  0  0  0  0  0  0
   -3.8559   -3.2890   -2.3813 C   0  0  0  1  0  0  0  0  0  0  0  0
   -4.8289   -3.1310   -1.9650 H   0  0  0  1  0  0  0  0  0  0  0  0
   -2.7811   -3.2051   -1.3127 C   0  0  0  1  0  0  0  0  0  0  0  0
   -3.0523   -2.4892   -0.5652 H   0  0  0  1  0  0  0  0  0  0  0  0
   -2.7042   -4.4988   -0.7517 O   0  0  0  1  0  0  0  0  0  0  0  0
   -1.4989   -2.8289   -1.9065 N   0  0  0  1  0  0  0  0  0  0  0  0
   -0.4419   -3.6522   -2.1886 C   0  0  0  1  0  0  0  0  0  0  0  0
   -0.4569   -4.6737   -1.9937 H   0  0  0  1  0  0  0  0  0  0  0  0
    0.5861   -3.0505   -2.7222 N   0  0  0  1  0  0  0  0  0  0  0  0
    0.1817   -1.7326   -2.7966 C   0  0  0  1  0  0  0  0  0  0  0  0
    0.7940   -0.5704   -3.2725 C   0  0  0  1  0  0  0  0  0  0  0  0
    0.1357    0.5922   -3.2122 N   0  0  0  1  0  0  0  0  0  0  0  0
   -1.1146    0.5802   -2.7030 C   0  0  0  1  0  0  0  0  0  0  0  0
   -1.6006    1.4994   -2.6812 H   0  0  0  1  0  0  0  0  0  0  0  0
   -1.8086   -0.4495   -2.2253 N   0  0  0  1  0  0  0  0  0  0  0  0
   -1.1009   -1.5784   -2.2982 C   0  0  0  1  0  0  0  0  0  0  0  0
    2.0777   -0.6221   -3.8047 N   0  0  0  1  0  0  0  0  0  0  0  0
    2.5625   -1.4734   -3.8330 H   0  0  0  1  0  0  0  0  0  0  0  0
    2.4976    0.1927   -4.1513 H   0  0  0  1  0  0  0  0  0  0  0  0
   -3.6236   -2.3404   -3.4236 O   0  0  0  1  0  0  0  0  0  0  0  0
   -2.7279   -2.4406   -3.7542 H   0  0  0  1  0  0  0  0  0  0  0  0
   -2.6031   -4.8101   -3.8209 O   0  0  0  1  0  0  0  0  0  0  0  0
   -2.7878   -5.3421   -5.3612 P   0  0  0  1  0  0  0  0  0  0  0  0
   -3.8077   -6.3841   -5.6151 O   0  0  0  1  0  0  0  0  0  0  0  0
   -3.0015   -3.9234   -6.1135 O   0  5  0  1  0  0  0  0  0  0  0  0
   -1.2623   -5.7807   -5.6853 O   0  5  0  1  0  0  0  0  0  0  0  0
    2.0141   -9.3422    1.7057 C   0  0  0  1  0  0  0  0  0  0  0  0
    1.5207   -8.5892    1.1274 H   0  0  0  1  0  0  0  0  0  0  0  0
    2.0004   -8.8987    3.1557 C   0  0  0  1  0  0  0  0  0  0  0  0
    1.3328   -7.9476    3.5273 O   0  0  0  1  0  0  0  0  0  0  0  0
    2.7786   -9.6450    3.9555 N   0  0  0  1  0  0  0  0  0  0  0  0
    3.3481  -10.3434    3.5704 H   0  0  0  1  0  0  0  0  0  0  0  0
    2.7782   -9.4190    5.3931 C   0  0  0  1  0  0  0  0  0  0  0  0
    3.0702  -10.3246    5.8826 H   0  0  0  1  0  0  0  0  0  0  0  0
    1.7881   -9.1515    5.6979 H   0  0  0  1  0  0  0  0  0  0  0  0
    3.7339   -8.3089    5.8102 C   0  0  0  1  0  0  0  0  0  0  0  0
    4.7111   -8.5452    5.4438 H   0  0  0  1  0  0  0  0  0  0  0  0
    3.7551   -8.2614    6.8790 H   0  0  0  1  0  0  0  0  0  0  0  0
    3.3336   -6.9480    5.2745 C   0  0  0  1  0  0  0  0  0  0  0  0
    2.1532   -6.6073    5.2154 O   0  0  0  1  0  0  0  0  0  0  0  0
    4.3433   -6.1577    4.8769 N   0  0  0  1  0  0  0  0  0  0  0  0
    5.2645   -6.4641    5.0104 H   0  0  0  1  0  0  0  0  0  0  0  0
    4.1174   -4.8617    4.2548 C   0  0  0  1  0  0  0  0  0  0  0  0
    3.1420   -4.8463    3.8150 H   0  0  0  1  0  0  0  0  0  0  0  0
    4.8541   -4.7013    3.4955 H   0  0  0  1  0  0  0  0  0  0  0  0
    4.2172   -3.7553    5.2922 C   0  0  0  1  0  0  0  0  0  0  0  0
    4.1007   -2.8137    4.7974 H   0  0  0  1  0  0  0  0  0  0  0  0
    5.1845   -3.8023    5.7473 H   0  0  0  1  0  0  0  0  0  0  0  0
    2.9645   -3.8809    6.5906 S   0  0  0  1  0  0  0  0  0  0  0  0
    1.5281   -3.1360    5.8868 C   0  0  0  1  0  0  0  0  0  0  0  0
    1.4762   -2.5665    4.8302 O   0  0  0  1  0  0  0  0  0  0  0  0
    0.3277   -3.2966    6.7872 C   0  0  0  1  0  0  0  0  0  0  0  0
   -0.0119   -4.3087    6.7134 H   0  0  0  1  0  0  0  0  0  0  0  0
   -0.4398   -2.6363    6.4412 H   0  0  0  1  0  0  0  0  0  0  0  0
    0.5890   -2.9932    8.2407 C   0  0  0  1  0  0  0  0  0  0  0  0
    1.0877   -1.9286    8.5690 O   0  0  0  1  0  0  0  0  0  0  0  0
    0.2365   -3.9909    9.2445 C   0  0  0  1  0  0  0  0  0  0  0  0
    0.1998   -3.7022   10.2429 H   0  0  0  1  0  0  0  0  0  0  0  0
   -0.0404   -5.2569    8.9351 C   0  0  0  1  0  0  0  0  0  0  0  0
    0.0081   -5.5023    7.9256 H   0  0  0  1  0  0  0  0  0  0  0  0
   -0.4091   -6.3571    9.8560 C   0  0  0  1  0  0  0  0  0  0  0  0
   -0.6640   -7.6161    9.3461 C   0  0  0  1  0  0  0  0  0  0  0  0
   -0.6002   -7.7851    8.3219 H   0  0  0  1  0  0  0  0  0  0  0  0
   -1.0045   -8.6536   10.1999 C   0  0  0  1  0  0  0  0  0  0  0  0
   -1.0945   -8.4279   11.5605 C   0  0  0  1  0  0  0  0  0  0  0  0
   -0.8388   -7.1650   12.0718 C   0  0  0  1  0  0  0  0  0  0  0  0
   -0.9026   -6.9960   13.0960 H   0  0  0  1  0  0  0  0  0  0  0  0
   -0.4993   -6.1304   11.2205 C   0  0  0  1  0  0  0  0  0  0  0  0
   -0.3114   -5.1820   11.6037 H   0  0  0  1  0  0  0  0  0  0  0  0
   -1.4408   -9.5168   12.2981 O   0  5  0  1  0  0  0  0  0  0  0  0
   -1.2612   -9.9103    9.7656 O   0  0  0  1  0  0  0  0  0  0  0  0
   -1.2329  -10.1330    8.3471 C   0  0  0  1  0  0  0  0  0  0  0  0
   -0.5499   -9.4469    7.8914 H   0  0  0  1  0  0  0  0  0  0  0  0
   -2.2121   -9.9824    7.9431 H   0  0  0  1  0  0  0  0  0  0  0  0
   -0.9155  -11.1357    8.1500 H   0  0  0  1  0  0  0  0  0  0  0  0
    3.3378   -9.5100    1.2190 O   0  0  0  1  0  0  0  0  0  0  0  0
    3.3653   -9.2933    0.2842 H   0  0  0  1  0  0  0  0  0  0  0  0
  1  2  1  0  0  0  0
  1  3  1  0  0  0  0
  1  4  1  0  0  0  0
  1  5  1  0  0  0  0
  5  6  1  0  0  0  0
  5 10  1  0  0  0  0
  5 55  1  0  0  0  0
  6  7  1  0  0  0  0
  6  8  1  0  0  0  0
  6  9  1  0  0  0  0
 10 11  1  0  0  0  0
 10 12  1  0  0  0  0
 10 13  1  0  0  0  0
 13 14  1  0  0  0  0
 14 15  2  0  0  0  0
 14 16  1  0  0  0  0
 14 17  1  0  0  0  0
 17 18  1  0  0  0  0
 18 19  1  0  0  0  0
 18 20  2  0  0  0  0
 18 21  1  0  0  0  0
 21 22  1  0  0  0  0
 22 23  1  0  0  0  0
 22 24  1  0  0  0  0
 22 25  1  0  0  0  0
 25 26  1  0  0  0  0
 25 27  1  0  0  0  0
 25 33  1  0  0  0  0
 27 28  1  0  0  0  0
 27 29  1  0  0  0  0
 27 50  1  0  0  0  0
 29 30  1  0  0  0  0
 29 31  1  0  0  0  0
 29 48  1  0  0  0  0
 31 32  1  0  0  0  0
 31 33  1  0  0  0  0
 31 34  1  0  0  0  0
 34 35  1  0  0  0  0
 34 44  1  0  0  0  0
 35 36  1  0  0  0  0
 35 37  2  0  0  0  0
 37 38  1  0  0  0  0
 38 39  1  0  0  0  0
 38 44  2  0  0  0  0
 39 40  2  0  0  0  0
 39 45  1  0  0  0  0
 40 41  1  0  0  0  0
 41 42  1  0  0  0  0
 41 43  2  0  0  0  0
 43 44  1  0  0  0  0
 45 46  1  0  0  0  0
 45 47  1  0  0  0  0
 48 49  1  0  0  0  0
 50 51  1  0  0  0  0
 51 52  2  0  0  0  0
 51 53  1  0  0  0  0
 51 54  1  0  0  0  0
 55 56  1  0  0  0  0
 55 57  1  0  0  0  0
 55104  1  0  0  0  0
 57 58  2  0  0  0  0
 57 59  1  0  0  0  0
 59 60  1  0  0  0  0
 59 61  1  0  0  0  0
 61 62  1  0  0  0  0
 61 63  1  0  0  0  0
 61 64  1  0  0  0  0
 64 65  1  0  0  0  0
 64 66  1  0  0  0  0
 64 67  1  0  0  0  0
 67 68  2  0  0  0  0
 67 69  1  0  0  0  0
 69 70  1  0  0  0  0
 69 71  1  0  0  0  0
 71 72  1  0  0  0  0
 71 73  1  0  0  0  0
 71 74  1  0  0  0  0
 74 75  1  0  0  0  0
 74 76  1  0  0  0  0
 74 77  1  0  0  0  0
 77 78  1  0  0  0  0
 78 79  2  0  0  0  0
 78 80  1  0  0  0  0
 80 81  1  0  0  0  0
 80 82  1  0  0  0  0
 80 83  1  0  0  0  0
 83 84  2  0  0  0  0
 83 85  1  0  0  0  0
 85 86  1  0  0  0  0
 85 87  2  0  0  0  0
 87 88  1  0  0  0  0
 87 89  1  0  0  0  0
 89 90  2  0  0  0  0
 89 96  1  0  0  0  0
 90 91  1  0  0  0  0
 90 92  1  0  0  0  0
 92 93  2  0  0  0  0
 92 99  1  0  0  0  0
 93 94  1  0  0  0  0
 93 98  1  0  0  0  0
 94 95  1  0  0  0  0
 94 96  2  0  0  0  0
 96 97  1  0  0  0  0
 99100  1  0  0  0  0
100101  1  0  0  0  0
100102  1  0  0  0  0
100103  1  0  0  0  0
104105  1  0  0  0  0
M  BCL ATM C_TeTeTeTe H_S H_S H_S C_TeTeTeTe C_TeTeTeTe H_S H_S H_S C_TeTeTeTe H_S H_S O_Tr2TrTrPi2 P_TeTeTeTePi O_Tr2Tr2TrPi O_Te2Te2Te2Te O_Tr2TrTrPi2 P_TeTeTeTePi O_Te2Te2TeTe O_Tr2Tr2TrPi O_Tr2TrTrPi2 C_TeTeTeTe H_S H_S C_TeTeTeTe H_S C_TeTeTeTe H_S C_TeTeTeTe H_S C_TeTeTeTe H_S O_Te2Te2TeTe N_TrTrTrPi2 C_TrTrTrPi H_S N_Tr2TrTrPi C_TrTrTrPi C_TrTrTrPi N_Tr2TrTrPi C_TrTrTrPi H_S N_Tr2TrTrPi C_TrTrTrPi N_TrTrTrPi2 H_S H_S O_Te2Te2TeTe H_S O_Tr2TrTrPi2 P_TeTeTeTePi O_Tr2Tr2TrPi O_Te2Te2Te2Te O_Te2Te2Te2Te C_TeTeTeTe H_S C_TrTrTrPi O_Tr2Tr2TrPi N_TrTrTrPi2 H_S C_TeTeTeTe H_S H_S C_TeTeTeTe H_S H_S C_TrTrTrPi O_Tr2Tr2TrPi N_TrTrTrPi2 H_S C_TeTeTeTe H_S H_S C_TeTeTeTe H_S H_S S_Te2Te2TeTe C_TrTrTrPi O_Tr2Tr2TrPi C_TeTeTeTe H_S H_S C_TrTrTrPi O_Tr2Tr2TrPi C_TrTrTrPi H_S C_TrTrTrPi H_S C_TrTrTrPi C_TrTrTrPi H_S C_TrTrTrPi C_TrTrTrPi C_TrTrTrPi H_S C_TrTrTrPi H_S O_Te2Te2Te2Te O_Tr2TrTrPi2 C_TeTeTeTe H_S H_S H_S O_Te2Te2TeTe H_S
M  BCL BND NonConjugatedSingleBond NonConjugatedSingleBond NonConjugatedSingleBond NonConjugatedSingleBond NonConjugatedSingleBond NonConjugatedSingleBond NonConjugatedSingleBond NonConjugatedSingleBond NonConjugatedSingleBond NonConjugatedSingleBond NonConjugatedSingleBond NonConjugatedSingleBond NonConjugatedSingleBond ConjugatedSingleBond ConjugatedDoubleBond ConjugatedSingleBond ConjugatedSingleBond ConjugatedSingleBond ConjugatedSingleBond ConjugatedDoubleBond ConjugatedSingleBond NonConjugatedSingleBond NonConjugatedSingleBond NonConjugatedSingleBond NonConjugatedSingleBond NonConjugatedSingleBond NonConjugatedSingleBondInRing NonConjugatedSingleBondInRing NonConjugatedSingleBond NonConjugatedSingleBondInRing NonConjugatedSingleBond NonConjugatedSingleBond NonConjugatedSingleBondInRing NonConjugatedSingleBond NonConjugatedSingleBond NonConjugatedSingleBondInRing NonConjugatedSingleBond AromaticSingleBond AromaticSingleBond NonConjugatedSingleBond AromaticDoubleBond AromaticSingleBond AromaticSingleBond AromaticDoubleBond AromaticDoubleBond ConjugatedSingleBond AromaticSingleBond NonConjugatedSingleBond AromaticDoubleBond AromaticSingleBond NonConjugatedSingleBond NonConjugatedSingleBond NonConjugatedSingleBond ConjugatedSingleBond ConjugatedDoubleBond ConjugatedSingleBond ConjugatedSingleBond NonConjugatedSingleBond NonConjugatedSingleBond NonConjugatedSingleBond ConjugatedDoubleBond AmideSingleBond NonConjugatedSingleBond NonConjugatedSingleBond NonConjugatedSingleBond NonConjugatedSingleBond NonConjugatedSingleBond NonConjugatedSingleBond NonConjugatedSingleBond NonConjugatedSingleBond ConjugatedDoubleBond AmideSingleBond NonConjugatedSingleBond NonConjugatedSingleBond NonConjugatedSingleBond NonConjugatedSingleBond NonConjugatedSingleBond NonConjugatedSingleBond NonConjugatedSingleBond NonConjugatedSingleBond ConjugatedSingleBond ConjugatedDoubleBond NonConjugatedSingleBond NonConjugatedSingleBond NonConjugatedSingleBond NonConjugatedSingleBond ConjugatedDoubleBond ConjugatedSingleBond NonConjugatedSingleBond ConjugatedDoubleBond NonConjugatedSingleBond ConjugatedSingleBond AromaticDoubleBond AromaticSingleBond NonConjugatedSingleBond AromaticSingleBond AromaticDoubleBond ConjugatedSingleBond AromaticSingleBond ConjugatedSingleBond NonConjugatedSingleBond AromaticDoubleBond NonConjugatedSingleBond NonConjugatedSingleBond NonConjugatedSingleBond NonConjugatedSingleBond NonConjugatedSingleBond NonConjugatedSingleBond
M  BCL CHI  14   R  18   S  25   R  27   R  29   R  31   S  55   R
M  BCL DBI - - - - - - - - - - - E - - -
M  END
> <ConfClashScore>
0 

> <ConfOneFourInteractionScore>
-0.971615 

> <ConfScore>
0.0846813 

> <ConfScorePBest>
0.0129355 

> <ConfTolerance>
2.61275 

$$$$
L03.****
  PyMOL2.5          3D                             0

105108  0  0  0  0  0  0  0  0999 V2000
    0.1495  -11.7516   -9.7112 C   0  0  0  1  0  0  0  0  0  0  0  0
    0.7875  -11.7267   -8.8526 H   0  0  0  1  0  0  0  0  0  0  0  0
    0.6379  -11.2697  -10.5323 H   0  0  0  1  0  0  0  0  0  0  0  0
   -0.0624  -12.7684   -9.9685 H   0  0  0  1  0  0  0  0  0  0  0  0
   -1.1612  -11.0207   -9.3964 C   0  0  0  1  0  0  0  0  0  0  0  0
   -1.5949  -10.2261  -10.6340 C   0  0  0  1  0  0  0  0  0  0  0  0
   -2.5825   -9.8424  -10.4841 H   0  0  0  1  0  0  0  0  0  0  0  0
   -1.5880  -10.8679  -11.4901 H   0  0  0  1  0  0  0  0  0  0  0  0
   -0.9169   -9.4134  -10.7913 H   0  0  0  1  0  0  0  0  0  0  0  0
   -0.9328  -10.0660   -8.2710 C   0  0  0  1  0  0  0  0  0  0  0  0
   -0.1139   -9.4178   -8.5036 H   0  0  0  1  0  0  0  0  0  0  0  0
   -0.7168  -10.6063   -7.3730 H   0  0  0  1  0  0  0  0  0  0  0  0
   -2.1423   -9.2903   -8.1006 O   0  0  0  1  0  0  0  0  0  0  0  0
   -2.3325   -8.3572   -6.8479 P   0  0  0  1  0  0  0  0  0  0  0  0
   -3.1443   -7.4268   -7.6637 O   0  0  0  1  0  0  0  0  0  0  0  0
   -2.3794   -9.9355   -6.4855 O   0  5  0  1  0  0  0  0  0  0  0  0
   -2.5264   -7.4069   -5.5726 O   0  0  0  1  0  0  0  0  0  0  0  0
   -1.7407   -6.1457   -4.9626 P   0  0  0  1  0  0  0  0  0  0  0  0
   -1.4904   -5.1249   -6.0001 O   0  0  0  0  0  0  0  0  0  0  0  0
   -0.6202   -6.7236   -4.2031 O   0  0  0  1  0  0  0  0  0  0  0  0
   -2.7723   -5.4692   -3.9974 O   0  0  0  1  0  0  0  0  0  0  0  0
   -3.5568   -6.1594   -2.9917 C   0  0  0  1  0  0  0  0  0  0  0  0
   -2.9571   -6.9208   -2.5385 H   0  0  0  1  0  0  0  0  0  0  0  0
   -4.4106   -6.6065   -3.4565 H   0  0  0  1  0  0  0  0  0  0  0  0
   -4.0193   -5.1917   -1.9281 C   0  0  0  1  0  0  0  0  0  0  0  0
   -4.7119   -5.6818   -1.2762 H   0  0  0  1  0  0  0  0  0  0  0  0
   -4.6763   -4.0056   -2.5700 C   0  0  0  1  0  0  0  0  0  0  0  0
   -5.6870   -3.9219   -2.2288 H   0  0  0  1  0  0  0  0  0  0  0  0
   -3.9049   -2.7799   -2.1804 C   0  0  0  1  0  0  0  0  0  0  0  0
   -4.5421   -2.1031   -1.6505 H   0  0  0  1  0  0  0  0  0  0  0  0
   -2.7702   -3.2081   -1.2970 C   0  0  0  1  0  0  0  0  0  0  0  0
   -2.8582   -2.7386   -0.3396 H   0  0  0  1  0  0  0  0  0  0  0  0
   -2.8412   -4.6989   -1.1414 O   0  0  0  1  0  0  0  0  0  0  0  0
   -1.4964   -2.8334   -1.9091 N   0  0  0  1  0  0  0  0  0  0  0  0
   -0.4513   -3.6554   -2.2005 C   0  0  0  1  0  0  0  0  0  0  0  0
   -0.4732   -4.6773   -2.0086 H   0  0  0  1  0  0  0  0  0  0  0  0
    0.5805   -3.0644   -2.7390 N   0  0  0  1  0  0  0  0  0  0  0  0
    0.1879   -1.7376   -2.8220 C   0  0  0  1  0  0  0  0  0  0  0  0
    0.7962   -0.5725   -3.2798 C   0  0  0  1  0  0  0  0  0  0  0  0
    0.1350    0.5885   -3.2192 N   0  0  0  1  0  0  0  0  0  0  0  0
   -1.1021    0.5818   -2.6980 C   0  0  0  1  0  0  0  0  0  0  0  0
   -1.5811    1.5044   -2.6647 H   0  0  0  1  0  0  0  0  0  0  0  0
   -1.7964   -0.4432   -2.2193 N   0  0  0  1  0  0  0  0  0  0  0  0
   -1.1066   -1.5811   -2.3086 C   0  0  0  1  0  0  0  0  0  0  0  0
    2.0668   -0.6146   -3.7902 N   0  0  0  1  0  0  0  0  0  0  0  0
    2.5034   -1.4778   -3.9473 H   0  0  0  1  0  0  0  0  0  0  0  0
    2.5392    0.2184   -3.9982 H   0  0  0  1  0  0  0  0  0  0  0  0
   -3.3935   -2.1372   -3.3490 O   0  0  0  1  0  0  0  0  0  0  0  0
   -4.0169   -1.4707   -3.6469 H   0  0  0  1  0  0  0  0  0  0  0  0
   -4.6633   -4.1570   -4.0132 O   0  0  0  1  0  0  0  0  0  0  0  0
   -5.3358   -3.0654   -5.0357 P   0  0  0  1  0  0  0  0  0  0  0  0
   -6.4169   -2.2441   -4.4465 O   0  0  0  1  0  0  0  0  0  0  0  0
   -4.1944   -2.0166   -5.5065 O   0  5  0  1  0  0  0  0  0  0  0  0
   -5.7942   -3.8932   -6.3506 O   0  5  0  1  0  0  0  0  0  0  0  0
   -2.2071  -12.0859   -9.0038 C   0  0  0  1  0  0  0  0  0  0  0  0
   -1.8381  -12.6152   -8.1503 H   0  0  0  1  0  0  0  0  0  0  0  0
   -3.5172  -11.4242   -8.6229 C   0  0  0  1  0  0  0  0  0  0  0  0
   -4.1634  -10.7700   -9.4402 O   0  0  0  1  0  0  0  0  0  0  0  0
   -3.9122  -11.6016   -7.3522 N   0  0  0  1  0  0  0  0  0  0  0  0
   -3.4252  -12.2601   -6.8140 H   0  0  0  1  0  0  0  0  0  0  0  0
   -5.0093  -10.8898   -6.7137 C   0  0  0  1  0  0  0  0  0  0  0  0
   -5.9059  -11.4662   -6.8070 H   0  0  0  1  0  0  0  0  0  0  0  0
   -5.1421   -9.9425   -7.1933 H   0  0  0  1  0  0  0  0  0  0  0  0
   -4.7058  -10.6678   -5.2378 C   0  0  0  1  0  0  0  0  0  0  0  0
   -4.0538   -9.8242   -5.1473 H   0  0  0  1  0  0  0  0  0  0  0  0
   -4.2170  -11.5396   -4.8557 H   0  0  0  1  0  0  0  0  0  0  0  0
   -5.9484  -10.4085   -4.4083 C   0  0  0  1  0  0  0  0  0  0  0  0
   -6.9661   -9.9365   -4.9134 O   0  0  0  1  0  0  0  0  0  0  0  0
   -5.8577  -10.7260   -3.1072 N   0  0  0  1  0  0  0  0  0  0  0  0
   -4.9911  -11.0113   -2.7492 H   0  0  0  1  0  0  0  0  0  0  0  0
   -7.0014  -10.6612   -2.2096 C   0  0  0  1  0  0  0  0  0  0  0  0
   -7.7683  -11.2966   -2.6007 H   0  0  0  1  0  0  0  0  0  0  0  0
   -7.3515   -9.6503   -2.1884 H   0  0  0  1  0  0  0  0  0  0  0  0
   -6.7146  -11.0890   -0.7916 C   0  0  0  1  0  0  0  0  0  0  0  0
   -6.0006  -10.4179   -0.3618 H   0  0  0  1  0  0  0  0  0  0  0  0
   -6.3127  -12.0806   -0.8003 H   0  0  0  1  0  0  0  0  0  0  0  0
   -8.2200  -11.0706    0.2106 S   0  0  0  1  0  0  0  0  0  0  0  0
   -8.1242   -9.4466    0.8710 C   0  0  0  1  0  0  0  0  0  0  0  0
   -7.1900   -8.7521    0.5735 O   0  0  0  1  0  0  0  0  0  0  0  0
   -9.2054   -8.9429    1.7969 C   0  0  0  1  0  0  0  0  0  0  0  0
   -9.1092   -9.4713    2.7223 H   0  0  0  1  0  0  0  0  0  0  0  0
  -10.1484   -9.1767    1.3485 H   0  0  0  1  0  0  0  0  0  0  0  0
   -9.2062   -7.4674    2.1138 C   0  0  0  1  0  0  0  0  0  0  0  0
  -10.1621   -6.7736    1.8148 O   0  0  0  1  0  0  0  0  0  0  0  0
   -8.0468   -6.8886    2.7819 C   0  0  0  1  0  0  0  0  0  0  0  0
   -7.2557   -7.5275    3.0001 H   0  0  0  1  0  0  0  0  0  0  0  0
   -7.9139   -5.6112    3.1369 C   0  0  0  1  0  0  0  0  0  0  0  0
   -8.7150   -4.9878    2.9105 H   0  0  0  1  0  0  0  0  0  0  0  0
   -6.7597   -4.9708    3.8167 C   0  0  0  1  0  0  0  0  0  0  0  0
   -5.7323   -5.7536    4.3084 C   0  0  0  1  0  0  0  0  0  0  0  0
   -5.8022   -6.7904    4.2656 H   0  0  0  1  0  0  0  0  0  0  0  0
   -4.6087   -5.1567    4.8585 C   0  0  0  1  0  0  0  0  0  0  0  0
   -4.5180   -3.7789    4.9203 C   0  0  0  1  0  0  0  0  0  0  0  0
   -5.5486   -2.9939    4.4271 C   0  0  0  1  0  0  0  0  0  0  0  0
   -5.4787   -1.9572    4.4698 H   0  0  0  1  0  0  0  0  0  0  0  0
   -6.6691   -3.5889    3.8785 C   0  0  0  1  0  0  0  0  0  0  0  0
   -7.4440   -3.0000    3.5121 H   0  0  0  1  0  0  0  0  0  0  0  0
   -3.3743   -3.3069    5.4847 O   0  5  0  1  0  0  0  0  0  0  0  0
   -3.5408   -5.8174    5.3654 O   0  0  0  1  0  0  0  0  0  0  0  0
   -3.5426   -7.2493    5.2561 C   0  0  0  1  0  0  0  0  0  0  0  0
   -3.5189   -7.5288    4.2235 H   0  0  0  1  0  0  0  0  0  0  0  0
   -4.4288   -7.6403    5.7109 H   0  0  0  1  0  0  0  0  0  0  0  0
   -2.6817   -7.6458    5.7525 H   0  0  0  1  0  0  0  0  0  0  0  0
   -2.4032  -12.9811  -10.0753 O   0  0  0  1  0  0  0  0  0  0  0  0
   -1.6154  -13.0023  -10.6235 H   0  0  0  1  0  0  0  0  0  0  0  0
  1  2  1  0  0  0  0
  1  3  1  0  0  0  0
  1  4  1  0  0  0  0
  1  5  1  0  0  0  0
  5  6  1  0  0  0  0
  5 10  1  0  0  0  0
  5 55  1  0  0  0  0
  6  7  1  0  0  0  0
  6  8  1  0  0  0  0
  6  9  1  0  0  0  0
 10 11  1  0  0  0  0
 10 12  1  0  0  0  0
 10 13  1  0  0  0  0
 13 14  1  0  0  0  0
 14 15  2  0  0  0  0
 14 16  1  0  0  0  0
 14 17  1  0  0  0  0
 17 18  1  0  0  0  0
 18 19  1  0  0  0  0
 18 20  2  0  0  0  0
 18 21  1  0  0  0  0
 21 22  1  0  0  0  0
 22 23  1  0  0  0  0
 22 24  1  0  0  0  0
 22 25  1  0  0  0  0
 25 26  1  0  0  0  0
 25 27  1  0  0  0  0
 25 33  1  0  0  0  0
 27 28  1  0  0  0  0
 27 29  1  0  0  0  0
 27 50  1  0  0  0  0
 29 30  1  0  0  0  0
 29 31  1  0  0  0  0
 29 48  1  0  0  0  0
 31 32  1  0  0  0  0
 31 33  1  0  0  0  0
 31 34  1  0  0  0  0
 34 35  1  0  0  0  0
 34 44  1  0  0  0  0
 35 36  1  0  0  0  0
 35 37  2  0  0  0  0
 37 38  1  0  0  0  0
 38 39  1  0  0  0  0
 38 44  2  0  0  0  0
 39 40  2  0  0  0  0
 39 45  1  0  0  0  0
 40 41  1  0  0  0  0
 41 42  1  0  0  0  0
 41 43  2  0  0  0  0
 43 44  1  0  0  0  0
 45 46  1  0  0  0  0
 45 47  1  0  0  0  0
 48 49  1  0  0  0  0
 50 51  1  0  0  0  0
 51 52  2  0  0  0  0
 51 53  1  0  0  0  0
 51 54  1  0  0  0  0
 55 56  1  0  0  0  0
 55 57  1  0  0  0  0
 55104  1  0  0  0  0
 57 58  2  0  0  0  0
 57 59  1  0  0  0  0
 59 60  1  0  0  0  0
 59 61  1  0  0  0  0
 61 62  1  0  0  0  0
 61 63  1  0  0  0  0
 61 64  1  0  0  0  0
 64 65  1  0  0  0  0
 64 66  1  0  0  0  0
 64 67  1  0  0  0  0
 67 68  2  0  0  0  0
 67 69  1  0  0  0  0
 69 70  1  0  0  0  0
 69 71  1  0  0  0  0
 71 72  1  0  0  0  0
 71 73  1  0  0  0  0
 71 74  1  0  0  0  0
 74 75  1  0  0  0  0
 74 76  1  0  0  0  0
 74 77  1  0  0  0  0
 77 78  1  0  0  0  0
 78 79  2  0  0  0  0
 78 80  1  0  0  0  0
 80 81  1  0  0  0  0
 80 82  1  0  0  0  0
 80 83  1  0  0  0  0
 83 84  2  0  0  0  0
 83 85  1  0  0  0  0
 85 86  1  0  0  0  0
 85 87  2  0  0  0  0
 87 88  1  0  0  0  0
 87 89  1  0  0  0  0
 89 90  2  0  0  0  0
 89 96  1  0  0  0  0
 90 91  1  0  0  0  0
 90 92  1  0  0  0  0
 92 93  2  0  0  0  0
 92 99  1  0  0  0  0
 93 94  1  0  0  0  0
 93 98  1  0  0  0  0
 94 95  1  0  0  0  0
 94 96  2  0  0  0  0
 96 97  1  0  0  0  0
 99100  1  0  0  0  0
100101  1  0  0  0  0
100102  1  0  0  0  0
100103  1  0  0  0  0
104105  1  0  0  0  0
M  BCL ATM C_TeTeTeTe H_S H_S H_S C_TeTeTeTe C_TeTeTeTe H_S H_S H_S C_TeTeTeTe H_S H_S O_Tr2TrTrPi2 P_TeTeTeTePi O_Tr2Tr2TrPi O_Te2Te2Te2Te O_Tr2TrTrPi2 P_TeTeTeTePi O_Te2Te2TeTe O_Tr2Tr2TrPi O_Tr2TrTrPi2 C_TeTeTeTe H_S H_S C_TeTeTeTe H_S C_TeTeTeTe H_S C_TeTeTeTe H_S C_TeTeTeTe H_S O_Te2Te2TeTe N_TrTrTrPi2 C_TrTrTrPi H_S N_Tr2TrTrPi C_TrTrTrPi C_TrTrTrPi N_Tr2TrTrPi C_TrTrTrPi H_S N_Tr2TrTrPi C_TrTrTrPi N_TrTrTrPi2 H_S H_S O_Te2Te2TeTe H_S O_Tr2TrTrPi2 P_TeTeTeTePi O_Tr2Tr2TrPi O_Te2Te2Te2Te O_Te2Te2Te2Te C_TeTeTeTe H_S C_TrTrTrPi O_Tr2Tr2TrPi N_TrTrTrPi2 H_S C_TeTeTeTe H_S H_S C_TeTeTeTe H_S H_S C_TrTrTrPi O_Tr2Tr2TrPi N_TrTrTrPi2 H_S C_TeTeTeTe H_S H_S C_TeTeTeTe H_S H_S S_Te2Te2TeTe C_TrTrTrPi O_Tr2Tr2TrPi C_TeTeTeTe H_S H_S C_TrTrTrPi O_Tr2Tr2TrPi C_TrTrTrPi H_S C_TrTrTrPi H_S C_TrTrTrPi C_TrTrTrPi H_S C_TrTrTrPi C_TrTrTrPi C_TrTrTrPi H_S C_TrTrTrPi H_S O_Te2Te2Te2Te O_Tr2TrTrPi2 C_TeTeTeTe H_S H_S H_S O_Te2Te2TeTe H_S
M  BCL BND NonConjugatedSingleBond NonConjugatedSingleBond NonConjugatedSingleBond NonConjugatedSingleBond NonConjugatedSingleBond NonConjugatedSingleBond NonConjugatedSingleBond NonConjugatedSingleBond NonConjugatedSingleBond NonConjugatedSingleBond NonConjugatedSingleBond NonConjugatedSingleBond NonConjugatedSingleBond ConjugatedSingleBond ConjugatedDoubleBond ConjugatedSingleBond ConjugatedSingleBond ConjugatedSingleBond ConjugatedSingleBond ConjugatedDoubleBond ConjugatedSingleBond NonConjugatedSingleBond NonConjugatedSingleBond NonConjugatedSingleBond NonConjugatedSingleBond NonConjugatedSingleBond NonConjugatedSingleBondInRing NonConjugatedSingleBondInRing NonConjugatedSingleBond NonConjugatedSingleBondInRing NonConjugatedSingleBond NonConjugatedSingleBond NonConjugatedSingleBondInRing NonConjugatedSingleBond NonConjugatedSingleBond NonConjugatedSingleBondInRing NonConjugatedSingleBond AromaticSingleBond AromaticSingleBond NonConjugatedSingleBond AromaticDoubleBond AromaticSingleBond AromaticSingleBond AromaticDoubleBond AromaticDoubleBond ConjugatedSingleBond AromaticSingleBond NonConjugatedSingleBond AromaticDoubleBond AromaticSingleBond NonConjugatedSingleBond NonConjugatedSingleBond NonConjugatedSingleBond ConjugatedSingleBond ConjugatedDoubleBond ConjugatedSingleBond ConjugatedSingleBond NonConjugatedSingleBond NonConjugatedSingleBond NonConjugatedSingleBond ConjugatedDoubleBond AmideSingleBond NonConjugatedSingleBond NonConjugatedSingleBond NonConjugatedSingleBond NonConjugatedSingleBond NonConjugatedSingleBond NonConjugatedSingleBond NonConjugatedSingleBond NonConjugatedSingleBond ConjugatedDoubleBond AmideSingleBond NonConjugatedSingleBond NonConjugatedSingleBond NonConjugatedSingleBond NonConjugatedSingleBond NonConjugatedSingleBond NonConjugatedSingleBond NonConjugatedSingleBond NonConjugatedSingleBond ConjugatedSingleBond ConjugatedDoubleBond NonConjugatedSingleBond NonConjugatedSingleBond NonConjugatedSingleBond NonConjugatedSingleBond ConjugatedDoubleBond ConjugatedSingleBond NonConjugatedSingleBond ConjugatedDoubleBond NonConjugatedSingleBond ConjugatedSingleBond AromaticDoubleBond AromaticSingleBond NonConjugatedSingleBond AromaticSingleBond AromaticDoubleBond ConjugatedSingleBond AromaticSingleBond ConjugatedSingleBond NonConjugatedSingleBond AromaticDoubleBond NonConjugatedSingleBond NonConjugatedSingleBond NonConjugatedSingleBond NonConjugatedSingleBond NonConjugatedSingleBond NonConjugatedSingleBond
M  BCL CHI  14   R  18   S  25   R  27   R  29   R  31   S  55   R
M  BCL DBI - - - - - - - - - - - E - - -
M  END
> <ConfClashScore>
0.00085368 

> <ConfOneFourInteractionScore>
-0.971891 

> <ConfScore>
0.0921137 

> <ConfScorePBest>
0.0128325 

> <ConfTolerance>
2.67174 

$$$$
L03.****
  PyMOL2.5          3D                             0

105108  0  0  0  0  0  0  0  0999 V2000
   -9.1913   -0.8852   -6.6711 C   0  0  0  1  0  0  0  0  0  0  0  0
   -9.7528   -1.2029   -5.8174 H   0  0  0  1  0  0  0  0  0  0  0  0
   -8.1547   -1.1005   -6.5161 H   0  0  0  1  0  0  0  0  0  0  0  0
   -9.5381   -1.4053   -7.5395 H   0  0  0  1  0  0  0  0  0  0  0  0
   -9.3750    0.6237   -6.8721 C   0  0  0  1  0  0  0  0  0  0  0  0
   -8.3967    1.0571   -7.9863 C   0  0  0  1  0  0  0  0  0  0  0  0
   -8.4512    2.1177   -8.1169 H   0  0  0  1  0  0  0  0  0  0  0  0
   -8.6616    0.5712   -8.9021 H   0  0  0  1  0  0  0  0  0  0  0  0
   -7.3996    0.7826   -7.7118 H   0  0  0  1  0  0  0  0  0  0  0  0
   -8.9761    1.2941   -5.6195 C   0  0  0  1  0  0  0  0  0  0  0  0
   -9.6813    1.0542   -4.8514 H   0  0  0  1  0  0  0  0  0  0  0  0
   -8.9636    2.3527   -5.7750 H   0  0  0  1  0  0  0  0  0  0  0  0
   -7.6588    0.8572   -5.2101 O   0  0  0  1  0  0  0  0  0  0  0  0
   -6.8689    1.5082   -4.0150 P   0  0  0  1  0  0  0  0  0  0  0  0
   -6.9615    2.8304   -4.6736 O   0  0  0  1  0  0  0  0  0  0  0  0
   -7.9145    0.3635   -3.5452 O   0  5  0  1  0  0  0  0  0  0  0  0
   -6.0707    2.1666   -2.8074 O   0  0  0  1  0  0  0  0  0  0  0  0
   -4.7322    1.9300   -1.9988 P   0  0  0  1  0  0  0  0  0  0  0  0
   -4.7278    2.9323   -0.8556 O   0  0  0  0  0  0  0  0  0  0  0  0
   -3.5410    1.9441   -2.9010 O   0  0  0  1  0  0  0  0  0  0  0  0
   -4.9130    0.4927   -1.4197 O   0  0  0  1  0  0  0  0  0  0  0  0
   -4.0951   -0.1008   -0.3841 C   0  0  0  1  0  0  0  0  0  0  0  0
   -4.3608    0.3071    0.5687 H   0  0  0  1  0  0  0  0  0  0  0  0
   -3.0613    0.0935   -0.5800 H   0  0  0  1  0  0  0  0  0  0  0  0
   -4.3497   -1.5895   -0.3953 C   0  0  0  1  0  0  0  0  0  0  0  0
   -5.4007   -1.7727   -0.3138 H   0  0  0  1  0  0  0  0  0  0  0  0
   -3.6296   -2.2378    0.7501 C   0  0  0  1  0  0  0  0  0  0  0  0
   -4.3324   -2.7345    1.3859 H   0  0  0  1  0  0  0  0  0  0  0  0
   -2.6615   -3.2345    0.1858 C   0  0  0  1  0  0  0  0  0  0  0  0
   -2.8957   -4.2136    0.5483 H   0  0  0  1  0  0  0  0  0  0  0  0
   -2.7828   -3.2027   -1.3095 C   0  0  0  1  0  0  0  0  0  0  0  0
   -3.0758   -4.1664   -1.6705 H   0  0  0  1  0  0  0  0  0  0  0  0
   -3.8264   -2.1858   -1.6682 O   0  0  0  1  0  0  0  0  0  0  0  0
   -1.4955   -2.8268   -1.9056 N   0  0  0  1  0  0  0  0  0  0  0  0
   -0.4386   -3.6509   -2.1853 C   0  0  0  1  0  0  0  0  0  0  0  0
   -0.4539   -4.6719   -1.9881 H   0  0  0  1  0  0  0  0  0  0  0  0
    0.5899   -3.0507   -2.7198 N   0  0  0  1  0  0  0  0  0  0  0  0
    0.1858   -1.7328   -2.7974 C   0  0  0  1  0  0  0  0  0  0  0  0
    0.7986   -0.5719   -3.2756 C   0  0  0  1  0  0  0  0  0  0  0  0
    0.1405    0.5910   -3.2183 N   0  0  0  1  0  0  0  0  0  0  0  0
   -1.1101    0.5804   -2.7097 C   0  0  0  1  0  0  0  0  0  0  0  0
   -1.5959    1.4998   -2.6903 H   0  0  0  1  0  0  0  0  0  0  0  0
   -1.8045   -0.4480   -2.2301 N   0  0  0  1  0  0  0  0  0  0  0  0
   -1.0970   -1.5772   -2.3000 C   0  0  0  1  0  0  0  0  0  0  0  0
    2.0635   -0.6243   -3.7991 N   0  0  0  1  0  0  0  0  0  0  0  0
    2.5178    0.2019   -4.0663 H   0  0  0  1  0  0  0  0  0  0  0  0
    2.5140   -1.4880   -3.9064 H   0  0  0  1  0  0  0  0  0  0  0  0
   -1.3303   -2.8891    0.5715 O   0  0  0  1  0  0  0  0  0  0  0  0
   -0.7925   -3.6833    0.6133 H   0  0  0  1  0  0  0  0  0  0  0  0
   -2.9128   -1.2331    1.5123 O   0  0  0  1  0  0  0  0  0  0  0  0
   -2.4352   -1.5289    3.0531 P   0  0  0  1  0  0  0  0  0  0  0  0
   -1.7260   -0.4280    3.7427 O   0  0  0  1  0  0  0  0  0  0  0  0
   -3.8154   -2.0331    3.7351 O   0  5  0  1  0  0  0  0  0  0  0  0
   -1.6172   -2.9173    2.8872 O   0  5  0  1  0  0  0  0  0  0  0  0
  -10.8425    0.9016   -7.2201 C   0  0  0  1  0  0  0  0  0  0  0  0
  -11.4519    0.5026   -6.4363 H   0  0  0  1  0  0  0  0  0  0  0  0
  -11.0917    2.3962   -7.3045 C   0  0  0  1  0  0  0  0  0  0  0  0
  -10.8921    3.0110   -8.3513 O   0  0  0  1  0  0  0  0  0  0  0  0
  -11.5355    3.0251   -6.2047 N   0  0  0  1  0  0  0  0  0  0  0  0
  -11.6597    2.5078   -5.3816 H   0  0  0  1  0  0  0  0  0  0  0  0
  -11.8386    4.4484   -6.1920 C   0  0  0  1  0  0  0  0  0  0  0  0
  -12.7661    4.5969   -5.6797 H   0  0  0  1  0  0  0  0  0  0  0  0
  -11.9301    4.7885   -7.2024 H   0  0  0  1  0  0  0  0  0  0  0  0
  -10.7602    5.2691   -5.4967 C   0  0  0  1  0  0  0  0  0  0  0  0
   -9.8079    4.9871   -5.8947 H   0  0  0  1  0  0  0  0  0  0  0  0
  -10.7884    5.0511   -4.4495 H   0  0  0  1  0  0  0  0  0  0  0  0
  -10.9393    6.7739   -5.6849 C   0  0  0  1  0  0  0  0  0  0  0  0
  -11.9520    7.2303   -6.2132 O   0  0  0  1  0  0  0  0  0  0  0  0
   -9.8902    7.5229   -5.3103 N   0  0  0  1  0  0  0  0  0  0  0  0
   -9.1145    7.1005   -4.8856 H   0  0  0  1  0  0  0  0  0  0  0  0
   -9.9022    8.9610   -5.5334 C   0  0  0  1  0  0  0  0  0  0  0  0
  -10.6890    9.3919   -4.9501 H   0  0  0  1  0  0  0  0  0  0  0  0
  -10.0852    9.1453   -6.5715 H   0  0  0  1  0  0  0  0  0  0  0  0
   -8.5898    9.6222   -5.1453 C   0  0  0  1  0  0  0  0  0  0  0  0
   -8.4531    9.4940   -4.0918 H   0  0  0  1  0  0  0  0  0  0  0  0
   -8.6648   10.6654   -5.3713 H   0  0  0  1  0  0  0  0  0  0  0  0
   -7.1253    8.9714   -5.9835 S   0  0  0  1  0  0  0  0  0  0  0  0
   -6.0038    8.5695   -4.6640 C   0  0  0  1  0  0  0  0  0  0  0  0
   -6.2630    8.7243   -3.5078 O   0  0  0  1  0  0  0  0  0  0  0  0
   -4.6962    8.0143   -5.1734 C   0  0  0  1  0  0  0  0  0  0  0  0
   -4.0735    8.8443   -5.4346 H   0  0  0  1  0  0  0  0  0  0  0  0
   -4.9100    7.4386   -6.0496 H   0  0  0  1  0  0  0  0  0  0  0  0
   -3.9108    7.1356   -4.2331 C   0  0  0  1  0  0  0  0  0  0  0  0
   -4.1176    5.9339   -4.1944 O   0  0  0  1  0  0  0  0  0  0  0  0
   -2.9028    7.7454   -3.3735 C   0  0  0  1  0  0  0  0  0  0  0  0
   -2.3347    7.1298   -2.7571 H   0  0  0  1  0  0  0  0  0  0  0  0
   -2.6796    9.0587   -3.3453 C   0  0  0  1  0  0  0  0  0  0  0  0
   -3.2765    9.6246   -3.9818 H   0  0  0  1  0  0  0  0  0  0  0  0
   -1.7059    9.8295   -2.5400 C   0  0  0  1  0  0  0  0  0  0  0  0
   -1.9293   11.1496   -2.1972 C   0  0  0  1  0  0  0  0  0  0  0  0
   -2.7982   11.6281   -2.5095 H   0  0  0  1  0  0  0  0  0  0  0  0
   -0.9951   11.8357   -1.4370 C   0  0  0  1  0  0  0  0  0  0  0  0
    0.1622   11.2014   -1.0263 C   0  0  0  1  0  0  0  0  0  0  0  0
    0.3861    9.8773   -1.3703 C   0  0  0  1  0  0  0  0  0  0  0  0
    1.2550    9.3987   -1.0580 H   0  0  0  1  0  0  0  0  0  0  0  0
   -0.5453    9.1931   -2.1283 C   0  0  0  1  0  0  0  0  0  0  0  0
   -0.3754    8.2009   -2.3898 H   0  0  0  1  0  0  0  0  0  0  0  0
    1.1484   11.7729   -0.2844 O   0  5  0  1  0  0  0  0  0  0  0  0
   -1.3236   13.1163   -1.1597 O   0  0  0  1  0  0  0  0  0  0  0  0
   -0.5502   13.8528   -0.1995 C   0  0  0  1  0  0  0  0  0  0  0  0
    0.4765   13.8639   -0.5008 H   0  0  0  1  0  0  0  0  0  0  0  0
   -0.6351   13.3863    0.7597 H   0  0  0  1  0  0  0  0  0  0  0  0
   -0.9157   14.8568   -0.1421 H   0  0  0  1  0  0  0  0  0  0  0  0
  -11.1700    0.2801   -8.4426 O   0  0  0  1  0  0  0  0  0  0  0  0
  -11.7455    0.8562   -8.9510 H   0  0  0  1  0  0  0  0  0  0  0  0
  1  2  1  0  0  0  0
  1  3  1  0  0  0  0
  1  4  1  0  0  0  0
  1  5  1  0  0  0  0
  5  6  1  0  0  0  0
  5 10  1  0  0  0  0
  5 55  1  0  0  0  0
  6  7  1  0  0  0  0
  6  8  1  0  0  0  0
  6  9  1  0  0  0  0
 10 11  1  0  0  0  0
 10 12  1  0  0  0  0
 10 13  1  0  0  0  0
 13 14  1  0  0  0  0
 14 15  2  0  0  0  0
 14 16  1  0  0  0  0
 14 17  1  0  0  0  0
 17 18  1  0  0  0  0
 18 19  1  0  0  0  0
 18 20  2  0  0  0  0
 18 21  1  0  0  0  0
 21 22  1  0  0  0  0
 22 23  1  0  0  0  0
 22 24  1  0  0  0  0
 22 25  1  0  0  0  0
 25 26  1  0  0  0  0
 25 27  1  0  0  0  0
 25 33  1  0  0  0  0
 27 28  1  0  0  0  0
 27 29  1  0  0  0  0
 27 50  1  0  0  0  0
 29 30  1  0  0  0  0
 29 31  1  0  0  0  0
 29 48  1  0  0  0  0
 31 32  1  0  0  0  0
 31 33  1  0  0  0  0
 31 34  1  0  0  0  0
 34 35  1  0  0  0  0
 34 44  1  0  0  0  0
 35 36  1  0  0  0  0
 35 37  2  0  0  0  0
 37 38  1  0  0  0  0
 38 39  1  0  0  0  0
 38 44  2  0  0  0  0
 39 40  2  0  0  0  0
 39 45  1  0  0  0  0
 40 41  1  0  0  0  0
 41 42  1  0  0  0  0
 41 43  2  0  0  0  0
 43 44  1  0  0  0  0
 45 46  1  0  0  0  0
 45 47  1  0  0  0  0
 48 49  1  0  0  0  0
 50 51  1  0  0  0  0
 51 52  2  0  0  0  0
 51 53  1  0  0  0  0
 51 54  1  0  0  0  0
 55 56  1  0  0  0  0
 55 57  1  0  0  0  0
 55104  1  0  0  0  0
 57 58  2  0  0  0  0
 57 59  1  0  0  0  0
 59 60  1  0  0  0  0
 59 61  1  0  0  0  0
 61 62  1  0  0  0  0
 61 63  1  0  0  0  0
 61 64  1  0  0  0  0
 64 65  1  0  0  0  0
 64 66  1  0  0  0  0
 64 67  1  0  0  0  0
 67 68  2  0  0  0  0
 67 69  1  0  0  0  0
 69 70  1  0  0  0  0
 69 71  1  0  0  0  0
 71 72  1  0  0  0  0
 71 73  1  0  0  0  0
 71 74  1  0  0  0  0
 74 75  1  0  0  0  0
 74 76  1  0  0  0  0
 74 77  1  0  0  0  0
 77 78  1  0  0  0  0
 78 79  2  0  0  0  0
 78 80  1  0  0  0  0
 80 81  1  0  0  0  0
 80 82  1  0  0  0  0
 80 83  1  0  0  0  0
 83 84  2  0  0  0  0
 83 85  1  0  0  0  0
 85 86  1  0  0  0  0
 85 87  2  0  0  0  0
 87 88  1  0  0  0  0
 87 89  1  0  0  0  0
 89 90  2  0  0  0  0
 89 96  1  0  0  0  0
 90 91  1  0  0  0  0
 90 92  1  0  0  0  0
 92 93  2  0  0  0  0
 92 99  1  0  0  0  0
 93 94  1  0  0  0  0
 93 98  1  0  0  0  0
 94 95  1  0  0  0  0
 94 96  2  0  0  0  0
 96 97  1  0  0  0  0
 99100  1  0  0  0  0
100101  1  0  0  0  0
100102  1  0  0  0  0
100103  1  0  0  0  0
104105  1  0  0  0  0
M  BCL ATM C_TeTeTeTe H_S H_S H_S C_TeTeTeTe C_TeTeTeTe H_S H_S H_S C_TeTeTeTe H_S H_S O_Tr2TrTrPi2 P_TeTeTeTePi O_Tr2Tr2TrPi O_Te2Te2Te2Te O_Tr2TrTrPi2 P_TeTeTeTePi O_Te2Te2TeTe O_Tr2Tr2TrPi O_Tr2TrTrPi2 C_TeTeTeTe H_S H_S C_TeTeTeTe H_S C_TeTeTeTe H_S C_TeTeTeTe H_S C_TeTeTeTe H_S O_Te2Te2TeTe N_TrTrTrPi2 C_TrTrTrPi H_S N_Tr2TrTrPi C_TrTrTrPi C_TrTrTrPi N_Tr2TrTrPi C_TrTrTrPi H_S N_Tr2TrTrPi C_TrTrTrPi N_TrTrTrPi2 H_S H_S O_Te2Te2TeTe H_S O_Tr2TrTrPi2 P_TeTeTeTePi O_Tr2Tr2TrPi O_Te2Te2Te2Te O_Te2Te2Te2Te C_TeTeTeTe H_S C_TrTrTrPi O_Tr2Tr2TrPi N_TrTrTrPi2 H_S C_TeTeTeTe H_S H_S C_TeTeTeTe H_S H_S C_TrTrTrPi O_Tr2Tr2TrPi N_TrTrTrPi2 H_S C_TeTeTeTe H_S H_S C_TeTeTeTe H_S H_S S_Te2Te2TeTe C_TrTrTrPi O_Tr2Tr2TrPi C_TeTeTeTe H_S H_S C_TrTrTrPi O_Tr2Tr2TrPi C_TrTrTrPi H_S C_TrTrTrPi H_S C_TrTrTrPi C_TrTrTrPi H_S C_TrTrTrPi C_TrTrTrPi C_TrTrTrPi H_S C_TrTrTrPi H_S O_Te2Te2Te2Te O_Tr2TrTrPi2 C_TeTeTeTe H_S H_S H_S O_Te2Te2TeTe H_S
M  BCL BND NonConjugatedSingleBond NonConjugatedSingleBond NonConjugatedSingleBond NonConjugatedSingleBond NonConjugatedSingleBond NonConjugatedSingleBond NonConjugatedSingleBond NonConjugatedSingleBond NonConjugatedSingleBond NonConjugatedSingleBond NonConjugatedSingleBond NonConjugatedSingleBond NonConjugatedSingleBond ConjugatedSingleBond ConjugatedDoubleBond ConjugatedSingleBond ConjugatedSingleBond ConjugatedSingleBond ConjugatedSingleBond ConjugatedDoubleBond ConjugatedSingleBond NonConjugatedSingleBond NonConjugatedSingleBond NonConjugatedSingleBond NonConjugatedSingleBond NonConjugatedSingleBond NonConjugatedSingleBondInRing NonConjugatedSingleBondInRing NonConjugatedSingleBond NonConjugatedSingleBondInRing NonConjugatedSingleBond NonConjugatedSingleBond NonConjugatedSingleBondInRing NonConjugatedSingleBond NonConjugatedSingleBond NonConjugatedSingleBondInRing NonConjugatedSingleBond AromaticSingleBond AromaticSingleBond NonConjugatedSingleBond AromaticDoubleBond AromaticSingleBond AromaticSingleBond AromaticDoubleBond AromaticDoubleBond ConjugatedSingleBond AromaticSingleBond NonConjugatedSingleBond AromaticDoubleBond AromaticSingleBond NonConjugatedSingleBond NonConjugatedSingleBond NonConjugatedSingleBond ConjugatedSingleBond ConjugatedDoubleBond ConjugatedSingleBond ConjugatedSingleBond NonConjugatedSingleBond NonConjugatedSingleBond NonConjugatedSingleBond ConjugatedDoubleBond AmideSingleBond NonConjugatedSingleBond NonConjugatedSingleBond NonConjugatedSingleBond NonConjugatedSingleBond NonConjugatedSingleBond NonConjugatedSingleBond NonConjugatedSingleBond NonConjugatedSingleBond ConjugatedDoubleBond AmideSingleBond NonConjugatedSingleBond NonConjugatedSingleBond NonConjugatedSingleBond NonConjugatedSingleBond NonConjugatedSingleBond NonConjugatedSingleBond NonConjugatedSingleBond NonConjugatedSingleBond ConjugatedSingleBond ConjugatedDoubleBond NonConjugatedSingleBond NonConjugatedSingleBond NonConjugatedSingleBond NonConjugatedSingleBond ConjugatedDoubleBond ConjugatedSingleBond NonConjugatedSingleBond ConjugatedDoubleBond NonConjugatedSingleBond ConjugatedSingleBond AromaticDoubleBond AromaticSingleBond NonConjugatedSingleBond AromaticSingleBond AromaticDoubleBond ConjugatedSingleBond AromaticSingleBond ConjugatedSingleBond NonConjugatedSingleBond AromaticDoubleBond NonConjugatedSingleBond NonConjugatedSingleBond NonConjugatedSingleBond NonConjugatedSingleBond NonConjugatedSingleBond NonConjugatedSingleBond
M  BCL CHI  14   R  18   S  25   R  27   R  29   R  31   S  55   R
M  BCL DBI - - - - - - - - - - - E - - -
M  END
> <ConfClashScore>
0.000155477 

> <ConfOneFourInteractionScore>
-0.976902 

> <ConfScore>
0.0949072 

> <ConfScorePBest>
0.0127295 

> <ConfTolerance>
2.74305 

$$$$
L03.****
  PyMOL2.5          3D                             0

105108  0  0  0  0  0  0  0  0999 V2000
   -0.4271   -8.0599   -7.7659 C   0  0  0  1  0  0  0  0  0  0  0  0
    0.3263   -8.3908   -8.4499 H   0  0  0  1  0  0  0  0  0  0  0  0
   -1.3718   -8.0225   -8.2669 H   0  0  0  1  0  0  0  0  0  0  0  0
   -0.4858   -8.7415   -6.9432 H   0  0  0  1  0  0  0  0  0  0  0  0
   -0.0688   -6.6623   -7.2466 C   0  0  0  1  0  0  0  0  0  0  0  0
    1.4457   -6.5242   -7.0504 C   0  0  0  1  0  0  0  0  0  0  0  0
    1.9129   -7.4759   -7.1952 H   0  0  0  1  0  0  0  0  0  0  0  0
    1.6463   -6.1759   -6.0587 H   0  0  0  1  0  0  0  0  0  0  0  0
    1.8347   -5.8245   -7.7603 H   0  0  0  1  0  0  0  0  0  0  0  0
   -0.7662   -6.4750   -5.9276 C   0  0  0  1  0  0  0  0  0  0  0  0
   -1.8277   -6.4812   -6.0625 H   0  0  0  1  0  0  0  0  0  0  0  0
   -0.4689   -5.5517   -5.4760 H   0  0  0  1  0  0  0  0  0  0  0  0
   -0.3607   -7.5785   -5.1181 O   0  0  0  1  0  0  0  0  0  0  0  0
   -0.2538   -7.6568   -3.5502 P   0  0  0  1  0  0  0  0  0  0  0  0
    0.5117   -6.3903   -3.5387 O   0  0  0  1  0  0  0  0  0  0  0  0
   -1.6885   -8.1473   -4.1208 O   0  5  0  1  0  0  0  0  0  0  0  0
   -0.1444   -7.7364   -1.9487 O   0  0  0  1  0  0  0  0  0  0  0  0
   -1.1197   -8.4651   -0.9473 P   0  0  0  1  0  0  0  0  0  0  0  0
   -0.2965   -8.6948    0.2643 O   0  0  0  0  0  0  0  0  0  0  0  0
   -1.8420   -9.6118   -1.5477 O   0  0  0  1  0  0  0  0  0  0  0  0
   -2.1481   -7.3038   -0.7040 O   0  0  0  1  0  0  0  0  0  0  0  0
   -2.8750   -6.6507   -1.7756 C   0  0  0  1  0  0  0  0  0  0  0  0
   -3.5751   -7.3333   -2.2099 H   0  0  0  1  0  0  0  0  0  0  0  0
   -2.1917   -6.3137   -2.5268 H   0  0  0  1  0  0  0  0  0  0  0  0
   -3.6105   -5.4671   -1.1783 C   0  0  0  1  0  0  0  0  0  0  0  0
   -4.2963   -5.8120   -0.4328 H   0  0  0  1  0  0  0  0  0  0  0  0
   -4.3550   -4.7344   -2.2550 C   0  0  0  1  0  0  0  0  0  0  0  0
   -5.4012   -4.7248   -2.0306 H   0  0  0  1  0  0  0  0  0  0  0  0
   -3.8333   -3.3293   -2.3068 C   0  0  0  1  0  0  0  0  0  0  0  0
   -4.6268   -2.6397   -2.1073 H   0  0  0  1  0  0  0  0  0  0  0  0
   -2.7654   -3.1929   -1.2615 C   0  0  0  1  0  0  0  0  0  0  0  0
   -3.0422   -2.4374   -0.5562 H   0  0  0  1  0  0  0  0  0  0  0  0
   -2.6280   -4.5145   -0.5643 O   0  0  0  1  0  0  0  0  0  0  0  0
   -1.4961   -2.8303   -1.8929 N   0  0  0  1  0  0  0  0  0  0  0  0
   -0.4550   -3.6728   -2.1993 C   0  0  0  1  0  0  0  0  0  0  0  0
   -0.4811   -4.6980   -2.0267 H   0  0  0  1  0  0  0  0  0  0  0  0
    0.5789   -3.0564   -2.7328 N   0  0  0  1  0  0  0  0  0  0  0  0
    0.1807   -1.7287   -2.8013 C   0  0  0  1  0  0  0  0  0  0  0  0
    0.8131   -0.5661   -3.2804 C   0  0  0  1  0  0  0  0  0  0  0  0
    0.1323    0.5968   -3.2182 N   0  0  0  1  0  0  0  0  0  0  0  0
   -1.1117    0.5775   -2.7125 C   0  0  0  1  0  0  0  0  0  0  0  0
   -1.5961    1.4976   -2.6954 H   0  0  0  1  0  0  0  0  0  0  0  0
   -1.8177   -0.4422   -2.2299 N   0  0  0  1  0  0  0  0  0  0  0  0
   -1.1039   -1.5803   -2.2990 C   0  0  0  1  0  0  0  0  0  0  0  0
    2.0820   -0.6141   -3.7946 N   0  0  0  1  0  0  0  0  0  0  0  0
    2.5019    0.2012   -4.1401 H   0  0  0  1  0  0  0  0  0  0  0  0
    2.5699   -1.4637   -3.8169 H   0  0  0  1  0  0  0  0  0  0  0  0
   -3.2841   -3.0635   -3.5983 O   0  0  0  1  0  0  0  0  0  0  0  0
   -3.9703   -3.1552   -4.2633 H   0  0  0  1  0  0  0  0  0  0  0  0
   -4.1398   -5.3864   -3.5328 O   0  0  0  1  0  0  0  0  0  0  0  0
   -5.1319   -5.1816   -4.8226 P   0  0  0  1  0  0  0  0  0  0  0  0
   -6.4345   -4.5101   -4.6161 O   0  0  0  1  0  0  0  0  0  0  0  0
   -4.1678   -4.3905   -5.8565 O   0  5  0  1  0  0  0  0  0  0  0  0
   -5.5011   -6.6587   -5.3761 O   0  5  0  1  0  0  0  0  0  0  0  0
   -0.5855   -5.6123   -8.2373 C   0  0  0  1  0  0  0  0  0  0  0  0
   -1.5728   -5.8976   -8.5350 H   0  0  0  1  0  0  0  0  0  0  0  0
   -0.6595   -4.2272   -7.6216 C   0  0  0  1  0  0  0  0  0  0  0  0
   -1.3165   -4.0159   -6.6155 O   0  0  0  1  0  0  0  0  0  0  0  0
    0.0380   -3.2700   -8.2535 N   0  0  0  1  0  0  0  0  0  0  0  0
    0.5997   -3.5199   -9.0167 H   0  0  0  1  0  0  0  0  0  0  0  0
   -0.0110   -1.8742   -7.8448 C   0  0  0  1  0  0  0  0  0  0  0  0
    0.7104   -1.3329   -8.4204 H   0  0  0  1  0  0  0  0  0  0  0  0
    0.2471   -1.8214   -6.8077 H   0  0  0  1  0  0  0  0  0  0  0  0
   -1.3660   -1.2040   -8.0309 C   0  0  0  1  0  0  0  0  0  0  0  0
   -1.3000   -0.1974   -7.6742 H   0  0  0  1  0  0  0  0  0  0  0  0
   -2.0927   -1.7396   -7.4565 H   0  0  0  1  0  0  0  0  0  0  0  0
   -1.8236   -1.1744   -9.4875 C   0  0  0  1  0  0  0  0  0  0  0  0
   -3.0051   -1.2671   -9.7771 O   0  0  0  1  0  0  0  0  0  0  0  0
   -0.8350   -1.1231  -10.3932 N   0  0  0  1  0  0  0  0  0  0  0  0
    0.0863   -1.0659  -10.0640 H   0  0  0  1  0  0  0  0  0  0  0  0
   -1.0437   -1.1471  -11.8332 C   0  0  0  1  0  0  0  0  0  0  0  0
   -0.0951   -1.1255  -12.3279 H   0  0  0  1  0  0  0  0  0  0  0  0
   -1.6164   -0.2904  -12.1213 H   0  0  0  1  0  0  0  0  0  0  0  0
   -1.7907   -2.4082  -12.2358 C   0  0  0  1  0  0  0  0  0  0  0  0
   -1.6217   -2.5977  -13.2752 H   0  0  0  1  0  0  0  0  0  0  0  0
   -2.8370   -2.2643  -12.0645 H   0  0  0  1  0  0  0  0  0  0  0  0
   -1.2257   -3.8334  -11.2763 S   0  0  0  1  0  0  0  0  0  0  0  0
   -2.1899   -5.1582  -11.9658 C   0  0  0  1  0  0  0  0  0  0  0  0
   -3.0006   -5.0039  -12.8514 O   0  0  0  1  0  0  0  0  0  0  0  0
   -1.8800   -6.4872  -11.3213 C   0  0  0  1  0  0  0  0  0  0  0  0
   -2.7454   -7.1128  -11.3891 H   0  0  0  1  0  0  0  0  0  0  0  0
   -1.6381   -6.3226  -10.2921 H   0  0  0  1  0  0  0  0  0  0  0  0
   -0.7219   -7.1872  -11.9860 C   0  0  0  1  0  0  0  0  0  0  0  0
    0.3911   -6.7172  -11.9845 O   0  0  0  1  0  0  0  0  0  0  0  0
   -1.0462   -8.4584  -12.6219 C   0  0  0  1  0  0  0  0  0  0  0  0
   -2.0527   -8.7091  -12.6976 H   0  0  0  1  0  0  0  0  0  0  0  0
   -0.1635   -9.3266  -13.1144 C   0  0  0  1  0  0  0  0  0  0  0  0
    0.8430   -9.0759  -13.0387 H   0  0  0  1  0  0  0  0  0  0  0  0
   -0.4938  -10.6212  -13.7621 C   0  0  0  1  0  0  0  0  0  0  0  0
   -1.8067  -11.0508  -13.8067 C   0  0  0  1  0  0  0  0  0  0  0  0
   -2.5494  -10.5041  -13.3260 H   0  0  0  1  0  0  0  0  0  0  0  0
   -2.1333  -12.2105  -14.4922 C   0  0  0  1  0  0  0  0  0  0  0  0
   -1.1455  -12.9400  -15.1266 C   0  0  0  1  0  0  0  0  0  0  0  0
    0.1712  -12.5089  -15.0817 C   0  0  0  1  0  0  0  0  0  0  0  0
    0.9140  -13.0555  -15.5624 H   0  0  0  1  0  0  0  0  0  0  0  0
    0.4970  -11.3526  -14.3982 C   0  0  0  1  0  0  0  0  0  0  0  0
    1.4855  -11.0314  -14.3612 H   0  0  0  1  0  0  0  0  0  0  0  0
   -1.3458  -14.0913  -15.8223 O   0  5  0  1  0  0  0  0  0  0  0  0
   -3.3803  -12.7254  -14.6090 O   0  0  0  1  0  0  0  0  0  0  0  0
   -4.4698  -11.9212  -14.1306 C   0  0  0  1  0  0  0  0  0  0  0  0
   -4.4689  -10.9797  -14.6390 H   0  0  0  1  0  0  0  0  0  0  0  0
   -4.3577  -11.7584  -13.0790 H   0  0  0  1  0  0  0  0  0  0  0  0
   -5.3944  -12.4262  -14.3173 H   0  0  0  1  0  0  0  0  0  0  0  0
    0.2818   -5.6574   -9.3727 O   0  0  0  1  0  0  0  0  0  0  0  0
    0.0458   -6.4051   -9.9267 H   0  0  0  1  0  0  0  0  0  0  0  0
  1  2  1  0  0  0  0
  1  3  1  0  0  0  0
  1  4  1  0  0  0  0
  1  5  1  0  0  0  0
  5  6  1  0  0  0  0
  5 10  1  0  0  0  0
  5 55  1  0  0  0  0
  6  7  1  0  0  0  0
  6  8  1  0  0  0  0
  6  9  1  0  0  0  0
 10 11  1  0  0  0  0
 10 12  1  0  0  0  0
 10 13  1  0  0  0  0
 13 14  1  0  0  0  0
 14 15  2  0  0  0  0
 14 16  1  0  0  0  0
 14 17  1  0  0  0  0
 17 18  1  0  0  0  0
 18 19  1  0  0  0  0
 18 20  2  0  0  0  0
 18 21  1  0  0  0  0
 21 22  1  0  0  0  0
 22 23  1  0  0  0  0
 22 24  1  0  0  0  0
 22 25  1  0  0  0  0
 25 26  1  0  0  0  0
 25 27  1  0  0  0  0
 25 33  1  0  0  0  0
 27 28  1  0  0  0  0
 27 29  1  0  0  0  0
 27 50  1  0  0  0  0
 29 30  1  0  0  0  0
 29 31  1  0  0  0  0
 29 48  1  0  0  0  0
 31 32  1  0  0  0  0
 31 33  1  0  0  0  0
 31 34  1  0  0  0  0
 34 35  1  0  0  0  0
 34 44  1  0  0  0  0
 35 36  1  0  0  0  0
 35 37  2  0  0  0  0
 37 38  1  0  0  0  0
 38 39  1  0  0  0  0
 38 44  2  0  0  0  0
 39 40  2  0  0  0  0
 39 45  1  0  0  0  0
 40 41  1  0  0  0  0
 41 42  1  0  0  0  0
 41 43  2  0  0  0  0
 43 44  1  0  0  0  0
 45 46  1  0  0  0  0
 45 47  1  0  0  0  0
 48 49  1  0  0  0  0
 50 51  1  0  0  0  0
 51 52  2  0  0  0  0
 51 53  1  0  0  0  0
 51 54  1  0  0  0  0
 55 56  1  0  0  0  0
 55 57  1  0  0  0  0
 55104  1  0  0  0  0
 57 58  2  0  0  0  0
 57 59  1  0  0  0  0
 59 60  1  0  0  0  0
 59 61  1  0  0  0  0
 61 62  1  0  0  0  0
 61 63  1  0  0  0  0
 61 64  1  0  0  0  0
 64 65  1  0  0  0  0
 64 66  1  0  0  0  0
 64 67  1  0  0  0  0
 67 68  2  0  0  0  0
 67 69  1  0  0  0  0
 69 70  1  0  0  0  0
 69 71  1  0  0  0  0
 71 72  1  0  0  0  0
 71 73  1  0  0  0  0
 71 74  1  0  0  0  0
 74 75  1  0  0  0  0
 74 76  1  0  0  0  0
 74 77  1  0  0  0  0
 77 78  1  0  0  0  0
 78 79  2  0  0  0  0
 78 80  1  0  0  0  0
 80 81  1  0  0  0  0
 80 82  1  0  0  0  0
 80 83  1  0  0  0  0
 83 84  2  0  0  0  0
 83 85  1  0  0  0  0
 85 86  1  0  0  0  0
 85 87  2  0  0  0  0
 87 88  1  0  0  0  0
 87 89  1  0  0  0  0
 89 90  2  0  0  0  0
 89 96  1  0  0  0  0
 90 91  1  0  0  0  0
 90 92  1  0  0  0  0
 92 93  2  0  0  0  0
 92 99  1  0  0  0  0
 93 94  1  0  0  0  0
 93 98  1  0  0  0  0
 94 95  1  0  0  0  0
 94 96  2  0  0  0  0
 96 97  1  0  0  0  0
 99100  1  0  0  0  0
100101  1  0  0  0  0
100102  1  0  0  0  0
100103  1  0  0  0  0
104105  1  0  0  0  0
M  BCL ATM C_TeTeTeTe H_S H_S H_S C_TeTeTeTe C_TeTeTeTe H_S H_S H_S C_TeTeTeTe H_S H_S O_Tr2TrTrPi2 P_TeTeTeTePi O_Tr2Tr2TrPi O_Te2Te2Te2Te O_Tr2TrTrPi2 P_TeTeTeTePi O_Te2Te2TeTe O_Tr2Tr2TrPi O_Tr2TrTrPi2 C_TeTeTeTe H_S H_S C_TeTeTeTe H_S C_TeTeTeTe H_S C_TeTeTeTe H_S C_TeTeTeTe H_S O_Te2Te2TeTe N_TrTrTrPi2 C_TrTrTrPi H_S N_Tr2TrTrPi C_TrTrTrPi C_TrTrTrPi N_Tr2TrTrPi C_TrTrTrPi H_S N_Tr2TrTrPi C_TrTrTrPi N_TrTrTrPi2 H_S H_S O_Te2Te2TeTe H_S O_Tr2TrTrPi2 P_TeTeTeTePi O_Tr2Tr2TrPi O_Te2Te2Te2Te O_Te2Te2Te2Te C_TeTeTeTe H_S C_TrTrTrPi O_Tr2Tr2TrPi N_TrTrTrPi2 H_S C_TeTeTeTe H_S H_S C_TeTeTeTe H_S H_S C_TrTrTrPi O_Tr2Tr2TrPi N_TrTrTrPi2 H_S C_TeTeTeTe H_S H_S C_TeTeTeTe H_S H_S S_Te2Te2TeTe C_TrTrTrPi O_Tr2Tr2TrPi C_TeTeTeTe H_S H_S C_TrTrTrPi O_Tr2Tr2TrPi C_TrTrTrPi H_S C_TrTrTrPi H_S C_TrTrTrPi C_TrTrTrPi H_S C_TrTrTrPi C_TrTrTrPi C_TrTrTrPi H_S C_TrTrTrPi H_S O_Te2Te2Te2Te O_Tr2TrTrPi2 C_TeTeTeTe H_S H_S H_S O_Te2Te2TeTe H_S
M  BCL BND NonConjugatedSingleBond NonConjugatedSingleBond NonConjugatedSingleBond NonConjugatedSingleBond NonConjugatedSingleBond NonConjugatedSingleBond NonConjugatedSingleBond NonConjugatedSingleBond NonConjugatedSingleBond NonConjugatedSingleBond NonConjugatedSingleBond NonConjugatedSingleBond NonConjugatedSingleBond ConjugatedSingleBond ConjugatedDoubleBond ConjugatedSingleBond ConjugatedSingleBond ConjugatedSingleBond ConjugatedSingleBond ConjugatedDoubleBond ConjugatedSingleBond NonConjugatedSingleBond NonConjugatedSingleBond NonConjugatedSingleBond NonConjugatedSingleBond NonConjugatedSingleBond NonConjugatedSingleBondInRing NonConjugatedSingleBondInRing NonConjugatedSingleBond NonConjugatedSingleBondInRing NonConjugatedSingleBond NonConjugatedSingleBond NonConjugatedSingleBondInRing NonConjugatedSingleBond NonConjugatedSingleBond NonConjugatedSingleBondInRing NonConjugatedSingleBond AromaticSingleBond AromaticSingleBond NonConjugatedSingleBond AromaticDoubleBond AromaticSingleBond AromaticSingleBond AromaticDoubleBond AromaticDoubleBond ConjugatedSingleBond AromaticSingleBond NonConjugatedSingleBond AromaticDoubleBond AromaticSingleBond NonConjugatedSingleBond NonConjugatedSingleBond NonConjugatedSingleBond ConjugatedSingleBond ConjugatedDoubleBond ConjugatedSingleBond ConjugatedSingleBond NonConjugatedSingleBond NonConjugatedSingleBond NonConjugatedSingleBond ConjugatedDoubleBond AmideSingleBond NonConjugatedSingleBond NonConjugatedSingleBond NonConjugatedSingleBond NonConjugatedSingleBond NonConjugatedSingleBond NonConjugatedSingleBond NonConjugatedSingleBond NonConjugatedSingleBond ConjugatedDoubleBond AmideSingleBond NonConjugatedSingleBond NonConjugatedSingleBond NonConjugatedSingleBond NonConjugatedSingleBond NonConjugatedSingleBond NonConjugatedSingleBond NonConjugatedSingleBond NonConjugatedSingleBond ConjugatedSingleBond ConjugatedDoubleBond NonConjugatedSingleBond NonConjugatedSingleBond NonConjugatedSingleBond NonConjugatedSingleBond ConjugatedDoubleBond ConjugatedSingleBond NonConjugatedSingleBond ConjugatedDoubleBond NonConjugatedSingleBond ConjugatedSingleBond AromaticDoubleBond AromaticSingleBond NonConjugatedSingleBond AromaticSingleBond AromaticDoubleBond ConjugatedSingleBond AromaticSingleBond ConjugatedSingleBond NonConjugatedSingleBond AromaticDoubleBond NonConjugatedSingleBond NonConjugatedSingleBond NonConjugatedSingleBond NonConjugatedSingleBond NonConjugatedSingleBond NonConjugatedSingleBond
M  BCL CHI  14   R  18   S  25   R  27   R  29   R  31   S  55   R
M  BCL DBI - - - - - - - - - - - E - - -
M  END
> <ConfClashScore>
0 

> <ConfOneFourInteractionScore>
-0.968406 

> <ConfScore>
0.0952678 

> <ConfScorePBest>
0.0126265 

> <ConfTolerance>
2.97949 

$$$$
L03.****
  PyMOL2.5          3D                             0

105108  0  0  0  0  0  0  0  0999 V2000
   -7.8801    0.9244   -9.1530 C   0  0  0  1  0  0  0  0  0  0  0  0
   -7.9721    1.5366   -8.2802 H   0  0  0  1  0  0  0  0  0  0  0  0
   -8.8458    0.7807   -9.5909 H   0  0  0  1  0  0  0  0  0  0  0  0
   -7.2357    1.4051   -9.8591 H   0  0  0  1  0  0  0  0  0  0  0  0
   -7.2888   -0.4335   -8.7648 C   0  0  0  1  0  0  0  0  0  0  0  0
   -8.2792   -1.5394   -9.1462 C   0  0  0  1  0  0  0  0  0  0  0  0
   -8.8335   -1.2397  -10.0109 H   0  0  0  1  0  0  0  0  0  0  0  0
   -8.9528   -1.7106   -8.3327 H   0  0  0  1  0  0  0  0  0  0  0  0
   -7.7426   -2.4398   -9.3612 H   0  0  0  1  0  0  0  0  0  0  0  0
   -7.0053   -0.4950   -7.3404 C   0  0  0  1  0  0  0  0  0  0  0  0
   -6.6705   -1.4827   -7.1012 H   0  0  0  1  0  0  0  0  0  0  0  0
   -7.9063   -0.2834   -6.8035 H   0  0  0  1  0  0  0  0  0  0  0  0
   -5.9895    0.4495   -6.9285 O   0  0  0  1  0  0  0  0  0  0  0  0
   -5.9265    0.9707   -5.4451 P   0  0  0  1  0  0  0  0  0  0  0  0
   -4.4568    1.1060   -5.5546 O   0  0  0  1  0  0  0  0  0  0  0  0
   -7.2124    1.5190   -6.2638 O   0  5  0  1  0  0  0  0  0  0  0  0
   -5.8619    1.5018   -3.9335 O   0  0  0  1  0  0  0  0  0  0  0  0
   -4.6579    1.6190   -2.8744 P   0  0  0  1  0  0  0  0  0  0  0  0
   -4.9824    2.6925   -1.9035 O   0  0  0  0  0  0  0  0  0  0  0  0
   -3.3900    1.6903   -3.6016 O   0  0  0  1  0  0  0  0  0  0  0  0
   -4.7087    0.2079   -2.1963 O   0  0  0  1  0  0  0  0  0  0  0  0
   -4.2977   -0.0835   -0.8399 C   0  0  0  1  0  0  0  0  0  0  0  0
   -4.9142    0.4529   -0.1492 H   0  0  0  1  0  0  0  0  0  0  0  0
   -3.2753    0.1993   -0.7002 H   0  0  0  1  0  0  0  0  0  0  0  0
   -4.4549   -1.5714   -0.6222 C   0  0  0  1  0  0  0  0  0  0  0  0
   -5.4932   -1.8104   -0.5245 H   0  0  0  1  0  0  0  0  0  0  0  0
   -3.7184   -1.9850    0.6176 C   0  0  0  1  0  0  0  0  0  0  0  0
   -4.4005   -2.4240    1.3153 H   0  0  0  1  0  0  0  0  0  0  0  0
   -2.6758   -2.9892    0.2253 C   0  0  0  1  0  0  0  0  0  0  0  0
   -2.8534   -3.9142    0.7330 H   0  0  0  1  0  0  0  0  0  0  0  0
   -2.7674   -3.1967   -1.2579 C   0  0  0  1  0  0  0  0  0  0  0  0
   -2.9894   -4.2221   -1.4680 H   0  0  0  1  0  0  0  0  0  0  0  0
   -3.8672   -2.3202   -1.7814 O   0  0  0  1  0  0  0  0  0  0  0  0
   -1.4980   -2.8320   -1.8899 N   0  0  0  1  0  0  0  0  0  0  0  0
   -0.4553   -3.6728   -2.1958 C   0  0  0  1  0  0  0  0  0  0  0  0
   -0.4795   -4.6979   -2.0223 H   0  0  0  1  0  0  0  0  0  0  0  0
    0.5774   -3.0549   -2.7297 N   0  0  0  1  0  0  0  0  0  0  0  0
    0.1768   -1.7280   -2.7992 C   0  0  0  1  0  0  0  0  0  0  0  0
    0.8070   -0.5646   -3.2792 C   0  0  0  1  0  0  0  0  0  0  0  0
    0.1241    0.5971   -3.2178 N   0  0  0  1  0  0  0  0  0  0  0  0
   -1.1200    0.5758   -2.7121 C   0  0  0  1  0  0  0  0  0  0  0  0
   -1.6061    1.4951   -2.6958 H   0  0  0  1  0  0  0  0  0  0  0  0
   -1.8240   -0.4447   -2.2288 N   0  0  0  1  0  0  0  0  0  0  0  0
   -1.1081   -1.5816   -2.2970 C   0  0  0  1  0  0  0  0  0  0  0  0
    2.0991   -0.6114   -3.8027 N   0  0  0  1  0  0  0  0  0  0  0  0
    2.5889   -1.4600   -3.8233 H   0  0  0  1  0  0  0  0  0  0  0  0
    2.5170    0.2042   -4.1498 H   0  0  0  1  0  0  0  0  0  0  0  0
   -1.3783   -2.4993    0.5669 O   0  0  0  1  0  0  0  0  0  0  0  0
   -0.7096   -3.0299    0.1277 H   0  0  0  1  0  0  0  0  0  0  0  0
   -3.0845   -0.8282    1.2224 O   0  0  0  1  0  0  0  0  0  0  0  0
   -3.6539   -0.3804    2.6937 P   0  0  0  1  0  0  0  0  0  0  0  0
   -3.0916    0.8802    3.2274 O   0  0  0  1  0  0  0  0  0  0  0  0
   -5.2692   -0.2723    2.6347 O   0  5  0  1  0  0  0  0  0  0  0  0
   -3.4461   -1.6519    3.6758 O   0  5  0  1  0  0  0  0  0  0  0  0
   -5.9962   -0.6524   -9.5541 C   0  0  0  1  0  0  0  0  0  0  0  0
   -5.7195   -1.6809   -9.4514 H   0  0  0  1  0  0  0  0  0  0  0  0
   -6.1468   -0.3525  -11.0330 C   0  0  0  1  0  0  0  0  0  0  0  0
   -7.0391   -0.8719  -11.7022 O   0  0  0  1  0  0  0  0  0  0  0  0
   -5.2517    0.5050  -11.5483 N   0  0  0  1  0  0  0  0  0  0  0  0
   -4.5659    0.8835  -10.9592 H   0  0  0  1  0  0  0  0  0  0  0  0
   -5.2641    0.8921  -12.9511 C   0  0  0  1  0  0  0  0  0  0  0  0
   -6.1006    1.5341  -13.1327 H   0  0  0  1  0  0  0  0  0  0  0  0
   -5.3483    0.0153  -13.5586 H   0  0  0  1  0  0  0  0  0  0  0  0
   -3.9790    1.6284  -13.3064 C   0  0  0  1  0  0  0  0  0  0  0  0
   -3.1473    1.0142  -13.0308 H   0  0  0  1  0  0  0  0  0  0  0  0
   -3.9464    2.5433  -12.7525 H   0  0  0  1  0  0  0  0  0  0  0  0
   -3.8696    1.9556  -14.7901 C   0  0  0  1  0  0  0  0  0  0  0  0
   -4.8210    2.3837  -15.4224 O   0  0  0  1  0  0  0  0  0  0  0  0
   -2.6507    1.7276  -15.3044 N   0  0  0  1  0  0  0  0  0  0  0  0
   -1.9292    1.4882  -14.6858 H   0  0  0  1  0  0  0  0  0  0  0  0
   -2.3325    1.8133  -16.7218 C   0  0  0  1  0  0  0  0  0  0  0  0
   -1.5663    2.5477  -16.8575 H   0  0  0  1  0  0  0  0  0  0  0  0
   -3.2118    2.1122  -17.2532 H   0  0  0  1  0  0  0  0  0  0  0  0
   -1.8492    0.5005  -17.2867 C   0  0  0  1  0  0  0  0  0  0  0  0
   -1.0329    0.1351  -16.6994 H   0  0  0  1  0  0  0  0  0  0  0  0
   -1.5273    0.6407  -18.2975 H   0  0  0  1  0  0  0  0  0  0  0  0
   -3.2144   -0.6923  -17.2418 S   0  0  0  1  0  0  0  0  0  0  0  0
   -2.8993   -1.4567  -15.6829 C   0  0  0  1  0  0  0  0  0  0  0  0
   -1.9596   -1.2159  -14.9740 O   0  0  0  1  0  0  0  0  0  0  0  0
   -3.9466   -2.4740  -15.3025 C   0  0  0  1  0  0  0  0  0  0  0  0
   -3.8559   -3.3205  -15.9506 H   0  0  0  1  0  0  0  0  0  0  0  0
   -4.9143   -2.0337  -15.4234 H   0  0  0  1  0  0  0  0  0  0  0  0
   -3.7994   -2.9382  -13.8740 C   0  0  0  1  0  0  0  0  0  0  0  0
   -2.7858   -2.6841  -13.2442 O   0  0  0  1  0  0  0  0  0  0  0  0
   -4.8875   -3.6940  -13.2610 C   0  0  0  1  0  0  0  0  0  0  0  0
   -5.3934   -4.3129  -13.9262 H   0  0  0  1  0  0  0  0  0  0  0  0
   -5.3592   -3.7461  -12.0160 C   0  0  0  1  0  0  0  0  0  0  0  0
   -4.9087   -3.1567  -11.2871 H   0  0  0  1  0  0  0  0  0  0  0  0
   -6.4987   -4.6090  -11.6271 C   0  0  0  1  0  0  0  0  0  0  0  0
   -6.7603   -4.8301  -10.2882 C   0  0  0  1  0  0  0  0  0  0  0  0
   -6.1566   -4.3952   -9.5616 H   0  0  0  1  0  0  0  0  0  0  0  0
   -7.8275   -5.6316   -9.9138 C   0  0  0  1  0  0  0  0  0  0  0  0
   -8.6267   -6.2140  -10.8794 C   0  0  0  1  0  0  0  0  0  0  0  0
   -8.3642   -5.9922  -12.2223 C   0  0  0  1  0  0  0  0  0  0  0  0
   -8.9679   -6.4271  -12.9489 H   0  0  0  1  0  0  0  0  0  0  0  0
   -7.3001   -5.1930  -12.5957 C   0  0  0  1  0  0  0  0  0  0  0  0
   -7.1008   -5.0298  -13.6033 H   0  0  0  1  0  0  0  0  0  0  0  0
   -9.6623   -6.9991  -10.4785 O   0  5  0  1  0  0  0  0  0  0  0  0
   -8.1406   -5.8838   -8.6206 O   0  0  0  1  0  0  0  0  0  0  0  0
   -7.2635   -5.3493   -7.6168 C   0  0  0  1  0  0  0  0  0  0  0  0
   -7.7470   -5.3875   -6.6631 H   0  0  0  1  0  0  0  0  0  0  0  0
   -7.0257   -4.3338   -7.8555 H   0  0  0  1  0  0  0  0  0  0  0  0
   -6.3645   -5.9286   -7.5841 H   0  0  0  1  0  0  0  0  0  0  0  0
   -4.9651    0.1675   -9.0073 O   0  0  0  1  0  0  0  0  0  0  0  0
   -5.3354    1.0115   -8.7386 H   0  0  0  1  0  0  0  0  0  0  0  0
  1  2  1  0  0  0  0
  1  3  1  0  0  0  0
  1  4  1  0  0  0  0
  1  5  1  0  0  0  0
  5  6  1  0  0  0  0
  5 10  1  0  0  0  0
  5 55  1  0  0  0  0
  6  7  1  0  0  0  0
  6  8  1  0  0  0  0
  6  9  1  0  0  0  0
 10 11  1  0  0  0  0
 10 12  1  0  0  0  0
 10 13  1  0  0  0  0
 13 14  1  0  0  0  0
 14 15  2  0  0  0  0
 14 16  1  0  0  0  0
 14 17  1  0  0  0  0
 17 18  1  0  0  0  0
 18 19  1  0  0  0  0
 18 20  2  0  0  0  0
 18 21  1  0  0  0  0
 21 22  1  0  0  0  0
 22 23  1  0  0  0  0
 22 24  1  0  0  0  0
 22 25  1  0  0  0  0
 25 26  1  0  0  0  0
 25 27  1  0  0  0  0
 25 33  1  0  0  0  0
 27 28  1  0  0  0  0
 27 29  1  0  0  0  0
 27 50  1  0  0  0  0
 29 30  1  0  0  0  0
 29 31  1  0  0  0  0
 29 48  1  0  0  0  0
 31 32  1  0  0  0  0
 31 33  1  0  0  0  0
 31 34  1  0  0  0  0
 34 35  1  0  0  0  0
 34 44  1  0  0  0  0
 35 36  1  0  0  0  0
 35 37  2  0  0  0  0
 37 38  1  0  0  0  0
 38 39  1  0  0  0  0
 38 44  2  0  0  0  0
 39 40  2  0  0  0  0
 39 45  1  0  0  0  0
 40 41  1  0  0  0  0
 41 42  1  0  0  0  0
 41 43  2  0  0  0  0
 43 44  1  0  0  0  0
 45 46  1  0  0  0  0
 45 47  1  0  0  0  0
 48 49  1  0  0  0  0
 50 51  1  0  0  0  0
 51 52  2  0  0  0  0
 51 53  1  0  0  0  0
 51 54  1  0  0  0  0
 55 56  1  0  0  0  0
 55 57  1  0  0  0  0
 55104  1  0  0  0  0
 57 58  2  0  0  0  0
 57 59  1  0  0  0  0
 59 60  1  0  0  0  0
 59 61  1  0  0  0  0
 61 62  1  0  0  0  0
 61 63  1  0  0  0  0
 61 64  1  0  0  0  0
 64 65  1  0  0  0  0
 64 66  1  0  0  0  0
 64 67  1  0  0  0  0
 67 68  2  0  0  0  0
 67 69  1  0  0  0  0
 69 70  1  0  0  0  0
 69 71  1  0  0  0  0
 71 72  1  0  0  0  0
 71 73  1  0  0  0  0
 71 74  1  0  0  0  0
 74 75  1  0  0  0  0
 74 76  1  0  0  0  0
 74 77  1  0  0  0  0
 77 78  1  0  0  0  0
 78 79  2  0  0  0  0
 78 80  1  0  0  0  0
 80 81  1  0  0  0  0
 80 82  1  0  0  0  0
 80 83  1  0  0  0  0
 83 84  2  0  0  0  0
 83 85  1  0  0  0  0
 85 86  1  0  0  0  0
 85 87  2  0  0  0  0
 87 88  1  0  0  0  0
 87 89  1  0  0  0  0
 89 90  2  0  0  0  0
 89 96  1  0  0  0  0
 90 91  1  0  0  0  0
 90 92  1  0  0  0  0
 92 93  2  0  0  0  0
 92 99  1  0  0  0  0
 93 94  1  0  0  0  0
 93 98  1  0  0  0  0
 94 95  1  0  0  0  0
 94 96  2  0  0  0  0
 96 97  1  0  0  0  0
 99100  1  0  0  0  0
100101  1  0  0  0  0
100102  1  0  0  0  0
100103  1  0  0  0  0
104105  1  0  0  0  0
M  BCL ATM C_TeTeTeTe H_S H_S H_S C_TeTeTeTe C_TeTeTeTe H_S H_S H_S C_TeTeTeTe H_S H_S O_Tr2TrTrPi2 P_TeTeTeTePi O_Tr2Tr2TrPi O_Te2Te2Te2Te O_Tr2TrTrPi2 P_TeTeTeTePi O_Te2Te2TeTe O_Tr2Tr2TrPi O_Tr2TrTrPi2 C_TeTeTeTe H_S H_S C_TeTeTeTe H_S C_TeTeTeTe H_S C_TeTeTeTe H_S C_TeTeTeTe H_S O_Te2Te2TeTe N_TrTrTrPi2 C_TrTrTrPi H_S N_Tr2TrTrPi C_TrTrTrPi C_TrTrTrPi N_Tr2TrTrPi C_TrTrTrPi H_S N_Tr2TrTrPi C_TrTrTrPi N_TrTrTrPi2 H_S H_S O_Te2Te2TeTe H_S O_Tr2TrTrPi2 P_TeTeTeTePi O_Tr2Tr2TrPi O_Te2Te2Te2Te O_Te2Te2Te2Te C_TeTeTeTe H_S C_TrTrTrPi O_Tr2Tr2TrPi N_TrTrTrPi2 H_S C_TeTeTeTe H_S H_S C_TeTeTeTe H_S H_S C_TrTrTrPi O_Tr2Tr2TrPi N_TrTrTrPi2 H_S C_TeTeTeTe H_S H_S C_TeTeTeTe H_S H_S S_Te2Te2TeTe C_TrTrTrPi O_Tr2Tr2TrPi C_TeTeTeTe H_S H_S C_TrTrTrPi O_Tr2Tr2TrPi C_TrTrTrPi H_S C_TrTrTrPi H_S C_TrTrTrPi C_TrTrTrPi H_S C_TrTrTrPi C_TrTrTrPi C_TrTrTrPi H_S C_TrTrTrPi H_S O_Te2Te2Te2Te O_Tr2TrTrPi2 C_TeTeTeTe H_S H_S H_S O_Te2Te2TeTe H_S
M  BCL BND NonConjugatedSingleBond NonConjugatedSingleBond NonConjugatedSingleBond NonConjugatedSingleBond NonConjugatedSingleBond NonConjugatedSingleBond NonConjugatedSingleBond NonConjugatedSingleBond NonConjugatedSingleBond NonConjugatedSingleBond NonConjugatedSingleBond NonConjugatedSingleBond NonConjugatedSingleBond ConjugatedSingleBond ConjugatedDoubleBond ConjugatedSingleBond ConjugatedSingleBond ConjugatedSingleBond ConjugatedSingleBond ConjugatedDoubleBond ConjugatedSingleBond NonConjugatedSingleBond NonConjugatedSingleBond NonConjugatedSingleBond NonConjugatedSingleBond NonConjugatedSingleBond NonConjugatedSingleBondInRing NonConjugatedSingleBondInRing NonConjugatedSingleBond NonConjugatedSingleBondInRing NonConjugatedSingleBond NonConjugatedSingleBond NonConjugatedSingleBondInRing NonConjugatedSingleBond NonConjugatedSingleBond NonConjugatedSingleBondInRing NonConjugatedSingleBond AromaticSingleBond AromaticSingleBond NonConjugatedSingleBond AromaticDoubleBond AromaticSingleBond AromaticSingleBond AromaticDoubleBond AromaticDoubleBond ConjugatedSingleBond AromaticSingleBond NonConjugatedSingleBond AromaticDoubleBond AromaticSingleBond NonConjugatedSingleBond NonConjugatedSingleBond NonConjugatedSingleBond ConjugatedSingleBond ConjugatedDoubleBond ConjugatedSingleBond ConjugatedSingleBond NonConjugatedSingleBond NonConjugatedSingleBond NonConjugatedSingleBond ConjugatedDoubleBond AmideSingleBond NonConjugatedSingleBond NonConjugatedSingleBond NonConjugatedSingleBond NonConjugatedSingleBond NonConjugatedSingleBond NonConjugatedSingleBond NonConjugatedSingleBond NonConjugatedSingleBond ConjugatedDoubleBond AmideSingleBond NonConjugatedSingleBond NonConjugatedSingleBond NonConjugatedSingleBond NonConjugatedSingleBond NonConjugatedSingleBond NonConjugatedSingleBond NonConjugatedSingleBond NonConjugatedSingleBond ConjugatedSingleBond ConjugatedDoubleBond NonConjugatedSingleBond NonConjugatedSingleBond NonConjugatedSingleBond NonConjugatedSingleBond ConjugatedDoubleBond ConjugatedSingleBond NonConjugatedSingleBond ConjugatedDoubleBond NonConjugatedSingleBond ConjugatedSingleBond AromaticDoubleBond AromaticSingleBond NonConjugatedSingleBond AromaticSingleBond AromaticDoubleBond ConjugatedSingleBond AromaticSingleBond ConjugatedSingleBond NonConjugatedSingleBond AromaticDoubleBond NonConjugatedSingleBond NonConjugatedSingleBond NonConjugatedSingleBond NonConjugatedSingleBond NonConjugatedSingleBond NonConjugatedSingleBond
M  BCL CHI  14   R  18   S  25   R  27   R  29   R  31   S  55   R
M  BCL DBI - - - - - - - - - - - E - - -
M  END
> <ConfClashScore>
0 

> <ConfOneFourInteractionScore>
-0.973404 

> <ConfScore>
0.0957218 

> <ConfScorePBest>
0.0125235 

> <ConfTolerance>
2.82528 

$$$$
L03.****
  PyMOL2.5          3D                             0

105108  0  0  0  0  0  0  0  0999 V2000
    3.5905   -3.4822   -8.2752 C   0  0  0  1  0  0  0  0  0  0  0  0
    3.6291   -2.6076   -8.8905 H   0  0  0  1  0  0  0  0  0  0  0  0
    2.7727   -4.0993   -8.5840 H   0  0  0  1  0  0  0  0  0  0  0  0
    4.5060   -4.0273   -8.3728 H   0  0  0  1  0  0  0  0  0  0  0  0
    3.3950   -3.0699   -6.8113 C   0  0  0  1  0  0  0  0  0  0  0  0
    3.3036   -4.3350   -5.9497 C   0  0  0  1  0  0  0  0  0  0  0  0
    4.2540   -4.8265   -5.9349 H   0  0  0  1  0  0  0  0  0  0  0  0
    2.5679   -4.9941   -6.3612 H   0  0  0  1  0  0  0  0  0  0  0  0
    3.0252   -4.0673   -4.9519 H   0  0  0  1  0  0  0  0  0  0  0  0
    2.1031   -2.3292   -6.7005 C   0  0  0  1  0  0  0  0  0  0  0  0
    2.1401   -1.4410   -7.2960 H   0  0  0  1  0  0  0  0  0  0  0  0
    1.9197   -2.0672   -5.6794 H   0  0  0  1  0  0  0  0  0  0  0  0
    1.0537   -3.2016   -7.1815 O   0  0  0  1  0  0  0  0  0  0  0  0
    0.1565   -3.9528   -6.1294 P   0  0  0  1  0  0  0  0  0  0  0  0
   -0.2678   -2.6530   -5.5628 O   0  0  0  1  0  0  0  0  0  0  0  0
    0.1454   -4.6461   -7.5936 O   0  5  0  1  0  0  0  0  0  0  0  0
   -0.7598   -4.7192   -5.0551 O   0  0  0  1  0  0  0  0  0  0  0  0
   -2.1656   -5.5293   -5.1879 P   0  0  0  1  0  0  0  0  0  0  0  0
   -1.9197   -6.8869   -5.7346 O   0  0  0  0  0  0  0  0  0  0  0  0
   -3.2079   -4.6777   -5.7904 O   0  0  0  1  0  0  0  0  0  0  0  0
   -2.3472   -5.5975   -3.6264 O   0  0  0  1  0  0  0  0  0  0  0  0
   -3.5529   -6.1451   -3.0430 C   0  0  0  1  0  0  0  0  0  0  0  0
   -3.3443   -7.0974   -2.6019 H   0  0  0  1  0  0  0  0  0  0  0  0
   -4.3039   -6.2574   -3.7968 H   0  0  0  1  0  0  0  0  0  0  0  0
   -4.0285   -5.1802   -1.9826 C   0  0  0  1  0  0  0  0  0  0  0  0
   -4.7343   -5.6700   -1.3448 H   0  0  0  1  0  0  0  0  0  0  0  0
   -4.6690   -3.9879   -2.6298 C   0  0  0  1  0  0  0  0  0  0  0  0
   -5.6848   -3.9009   -2.3051 H   0  0  0  1  0  0  0  0  0  0  0  0
   -3.8984   -2.7678   -2.2214 C   0  0  0  1  0  0  0  0  0  0  0  0
   -4.5411   -2.0904   -1.6990 H   0  0  0  1  0  0  0  0  0  0  0  0
   -2.7806   -3.2058   -1.3212 C   0  0  0  1  0  0  0  0  0  0  0  0
   -2.8825   -2.7403   -0.3632 H   0  0  0  1  0  0  0  0  0  0  0  0
   -2.8614   -4.6969   -1.1739 O   0  0  0  1  0  0  0  0  0  0  0  0
   -1.4950   -2.8344   -1.9101 N   0  0  0  1  0  0  0  0  0  0  0  0
   -0.4478   -3.6605   -2.1836 C   0  0  0  1  0  0  0  0  0  0  0  0
   -0.4708   -4.6838   -1.9993 H   0  0  0  1  0  0  0  0  0  0  0  0
    0.5987   -3.0475   -2.7032 N   0  0  0  1  0  0  0  0  0  0  0  0
    0.1749   -1.7212   -2.7901 C   0  0  0  1  0  0  0  0  0  0  0  0
    0.8118   -0.5694   -3.2835 C   0  0  0  1  0  0  0  0  0  0  0  0
    0.1260    0.5977   -3.2220 N   0  0  0  1  0  0  0  0  0  0  0  0
   -1.1142    0.5803   -2.7018 C   0  0  0  1  0  0  0  0  0  0  0  0
   -1.5957    1.5017   -2.6754 H   0  0  0  1  0  0  0  0  0  0  0  0
   -1.8186   -0.4414   -2.2151 N   0  0  0  1  0  0  0  0  0  0  0  0
   -1.0927   -1.5747   -2.3031 C   0  0  0  1  0  0  0  0  0  0  0  0
    2.0769   -0.6246   -3.8064 N   0  0  0  1  0  0  0  0  0  0  0  0
    2.5069    0.1919   -4.1361 H   0  0  0  1  0  0  0  0  0  0  0  0
    2.5519   -1.4807   -3.8507 H   0  0  0  1  0  0  0  0  0  0  0  0
   -3.3644   -2.1222   -3.3782 O   0  0  0  1  0  0  0  0  0  0  0  0
   -3.7293   -1.2370   -3.4483 H   0  0  0  1  0  0  0  0  0  0  0  0
   -4.6328   -4.1312   -4.0589 O   0  0  0  1  0  0  0  0  0  0  0  0
   -5.9682   -4.0253   -5.0050 P   0  0  0  1  0  0  0  0  0  0  0  0
   -5.6847   -4.2063   -6.4463 O   0  0  0  1  0  0  0  0  0  0  0  0
   -6.8770   -5.2820   -4.5369 O   0  5  0  1  0  0  0  0  0  0  0  0
   -6.9146   -2.7633   -4.6360 O   0  5  0  1  0  0  0  0  0  0  0  0
    4.6122   -2.2600   -6.3494 C   0  0  0  1  0  0  0  0  0  0  0  0
    5.4754   -2.6749   -6.8266 H   0  0  0  1  0  0  0  0  0  0  0  0
    4.4660   -0.8227   -6.8276 C   0  0  0  1  0  0  0  0  0  0  0  0
    3.8435    0.0089   -6.1690 O   0  0  0  1  0  0  0  0  0  0  0  0
    5.0554   -0.5350   -7.9989 N   0  0  0  1  0  0  0  0  0  0  0  0
    5.4565   -1.2518   -8.5335 H   0  0  0  1  0  0  0  0  0  0  0  0
    5.0998    0.8389   -8.4766 C   0  0  0  1  0  0  0  0  0  0  0  0
    6.1212    1.1552   -8.5162 H   0  0  0  1  0  0  0  0  0  0  0  0
    4.5606    1.4580   -7.7904 H   0  0  0  1  0  0  0  0  0  0  0  0
    4.4874    0.9957   -9.8588 C   0  0  0  1  0  0  0  0  0  0  0  0
    3.4408    0.7798   -9.8054 H   0  0  0  1  0  0  0  0  0  0  0  0
    4.9595    0.3105  -10.5315 H   0  0  0  1  0  0  0  0  0  0  0  0
    4.6768    2.4018  -10.3715 C   0  0  0  1  0  0  0  0  0  0  0  0
    5.5903    2.6814  -11.1303 O   0  0  0  1  0  0  0  0  0  0  0  0
    3.7888    3.2998   -9.9420 N   0  0  0  1  0  0  0  0  0  0  0  0
    3.0620    3.0223   -9.3460 H   0  0  0  1  0  0  0  0  0  0  0  0
    3.8970    4.6906  -10.3565 C   0  0  0  1  0  0  0  0  0  0  0  0
    3.9464    4.7271  -11.4248 H   0  0  0  1  0  0  0  0  0  0  0  0
    4.7939    5.1027   -9.9433 H   0  0  0  1  0  0  0  0  0  0  0  0
    2.7260    5.5239   -9.8979 C   0  0  0  1  0  0  0  0  0  0  0  0
    1.8258    5.0749  -10.2625 H   0  0  0  1  0  0  0  0  0  0  0  0
    2.8267    6.5068  -10.3085 H   0  0  0  1  0  0  0  0  0  0  0  0
    2.6113    5.6619   -8.0982 S   0  0  0  1  0  0  0  0  0  0  0  0
    3.9999    6.7020   -7.7107 C   0  0  0  1  0  0  0  0  0  0  0  0
    4.8093    7.0639   -8.5282 O   0  0  0  1  0  0  0  0  0  0  0  0
    4.0451    7.0755   -6.2483 C   0  0  0  1  0  0  0  0  0  0  0  0
    3.2493    7.7641   -6.0550 H   0  0  0  1  0  0  0  0  0  0  0  0
    4.9839    7.5508   -6.0542 H   0  0  0  1  0  0  0  0  0  0  0  0
    3.9017    5.9127   -5.2995 C   0  0  0  1  0  0  0  0  0  0  0  0
    3.1445    5.9846   -4.3456 O   0  0  0  1  0  0  0  0  0  0  0  0
    4.6821    4.7031   -5.5413 C   0  0  0  1  0  0  0  0  0  0  0  0
    5.3349    4.7340   -6.3503 H   0  0  0  1  0  0  0  0  0  0  0  0
    4.6588    3.5641   -4.8503 C   0  0  0  1  0  0  0  0  0  0  0  0
    4.0119    3.5143   -4.0375 H   0  0  0  1  0  0  0  0  0  0  0  0
    5.4754    2.3627   -5.1406 C   0  0  0  1  0  0  0  0  0  0  0  0
    6.3945    2.3965   -6.1721 C   0  0  0  1  0  0  0  0  0  0  0  0
    6.5064    3.2598   -6.7410 H   0  0  0  1  0  0  0  0  0  0  0  0
    7.1673    1.2793   -6.4484 C   0  0  0  1  0  0  0  0  0  0  0  0
    7.0149    0.1301   -5.6959 C   0  0  0  1  0  0  0  0  0  0  0  0
    6.0930    0.0965   -4.6612 C   0  0  0  1  0  0  0  0  0  0  0  0
    5.9811   -0.7669   -4.0923 H   0  0  0  1  0  0  0  0  0  0  0  0
    5.3224    1.2103   -4.3857 C   0  0  0  1  0  0  0  0  0  0  0  0
    4.6279    1.1837   -3.6120 H   0  0  0  1  0  0  0  0  0  0  0  0
    7.7511   -0.9871   -5.9402 O   0  5  0  1  0  0  0  0  0  0  0  0
    7.9835    1.3204   -7.5282 O   0  0  0  1  0  0  0  0  0  0  0  0
    8.0079    2.5400   -8.2863 C   0  0  0  1  0  0  0  0  0  0  0  0
    7.0961    2.6360   -8.8379 H   0  0  0  1  0  0  0  0  0  0  0  0
    8.8348    2.5212   -8.9650 H   0  0  0  1  0  0  0  0  0  0  0  0
    8.1110    3.3714   -7.6207 H   0  0  0  1  0  0  0  0  0  0  0  0
    4.7785   -2.3424   -4.9416 O   0  0  0  1  0  0  0  0  0  0  0  0
    5.7143   -2.3260   -4.7279 H   0  0  0  1  0  0  0  0  0  0  0  0
  1  2  1  0  0  0  0
  1  3  1  0  0  0  0
  1  4  1  0  0  0  0
  1  5  1  0  0  0  0
  5  6  1  0  0  0  0
  5 10  1  0  0  0  0
  5 55  1  0  0  0  0
  6  7  1  0  0  0  0
  6  8  1  0  0  0  0
  6  9  1  0  0  0  0
 10 11  1  0  0  0  0
 10 12  1  0  0  0  0
 10 13  1  0  0  0  0
 13 14  1  0  0  0  0
 14 15  2  0  0  0  0
 14 16  1  0  0  0  0
 14 17  1  0  0  0  0
 17 18  1  0  0  0  0
 18 19  1  0  0  0  0
 18 20  2  0  0  0  0
 18 21  1  0  0  0  0
 21 22  1  0  0  0  0
 22 23  1  0  0  0  0
 22 24  1  0  0  0  0
 22 25  1  0  0  0  0
 25 26  1  0  0  0  0
 25 27  1  0  0  0  0
 25 33  1  0  0  0  0
 27 28  1  0  0  0  0
 27 29  1  0  0  0  0
 27 50  1  0  0  0  0
 29 30  1  0  0  0  0
 29 31  1  0  0  0  0
 29 48  1  0  0  0  0
 31 32  1  0  0  0  0
 31 33  1  0  0  0  0
 31 34  1  0  0  0  0
 34 35  1  0  0  0  0
 34 44  1  0  0  0  0
 35 36  1  0  0  0  0
 35 37  2  0  0  0  0
 37 38  1  0  0  0  0
 38 39  1  0  0  0  0
 38 44  2  0  0  0  0
 39 40  2  0  0  0  0
 39 45  1  0  0  0  0
 40 41  1  0  0  0  0
 41 42  1  0  0  0  0
 41 43  2  0  0  0  0
 43 44  1  0  0  0  0
 45 46  1  0  0  0  0
 45 47  1  0  0  0  0
 48 49  1  0  0  0  0
 50 51  1  0  0  0  0
 51 52  2  0  0  0  0
 51 53  1  0  0  0  0
 51 54  1  0  0  0  0
 55 56  1  0  0  0  0
 55 57  1  0  0  0  0
 55104  1  0  0  0  0
 57 58  2  0  0  0  0
 57 59  1  0  0  0  0
 59 60  1  0  0  0  0
 59 61  1  0  0  0  0
 61 62  1  0  0  0  0
 61 63  1  0  0  0  0
 61 64  1  0  0  0  0
 64 65  1  0  0  0  0
 64 66  1  0  0  0  0
 64 67  1  0  0  0  0
 67 68  2  0  0  0  0
 67 69  1  0  0  0  0
 69 70  1  0  0  0  0
 69 71  1  0  0  0  0
 71 72  1  0  0  0  0
 71 73  1  0  0  0  0
 71 74  1  0  0  0  0
 74 75  1  0  0  0  0
 74 76  1  0  0  0  0
 74 77  1  0  0  0  0
 77 78  1  0  0  0  0
 78 79  2  0  0  0  0
 78 80  1  0  0  0  0
 80 81  1  0  0  0  0
 80 82  1  0  0  0  0
 80 83  1  0  0  0  0
 83 84  2  0  0  0  0
 83 85  1  0  0  0  0
 85 86  1  0  0  0  0
 85 87  2  0  0  0  0
 87 88  1  0  0  0  0
 87 89  1  0  0  0  0
 89 90  2  0  0  0  0
 89 96  1  0  0  0  0
 90 91  1  0  0  0  0
 90 92  1  0  0  0  0
 92 93  2  0  0  0  0
 92 99  1  0  0  0  0
 93 94  1  0  0  0  0
 93 98  1  0  0  0  0
 94 95  1  0  0  0  0
 94 96  2  0  0  0  0
 96 97  1  0  0  0  0
 99100  1  0  0  0  0
100101  1  0  0  0  0
100102  1  0  0  0  0
100103  1  0  0  0  0
104105  1  0  0  0  0
M  BCL ATM C_TeTeTeTe H_S H_S H_S C_TeTeTeTe C_TeTeTeTe H_S H_S H_S C_TeTeTeTe H_S H_S O_Tr2TrTrPi2 P_TeTeTeTePi O_Tr2Tr2TrPi O_Te2Te2Te2Te O_Tr2TrTrPi2 P_TeTeTeTePi O_Te2Te2TeTe O_Tr2Tr2TrPi O_Tr2TrTrPi2 C_TeTeTeTe H_S H_S C_TeTeTeTe H_S C_TeTeTeTe H_S C_TeTeTeTe H_S C_TeTeTeTe H_S O_Te2Te2TeTe N_TrTrTrPi2 C_TrTrTrPi H_S N_Tr2TrTrPi C_TrTrTrPi C_TrTrTrPi N_Tr2TrTrPi C_TrTrTrPi H_S N_Tr2TrTrPi C_TrTrTrPi N_TrTrTrPi2 H_S H_S O_Te2Te2TeTe H_S O_Tr2TrTrPi2 P_TeTeTeTePi O_Tr2Tr2TrPi O_Te2Te2Te2Te O_Te2Te2Te2Te C_TeTeTeTe H_S C_TrTrTrPi O_Tr2Tr2TrPi N_TrTrTrPi2 H_S C_TeTeTeTe H_S H_S C_TeTeTeTe H_S H_S C_TrTrTrPi O_Tr2Tr2TrPi N_TrTrTrPi2 H_S C_TeTeTeTe H_S H_S C_TeTeTeTe H_S H_S S_Te2Te2TeTe C_TrTrTrPi O_Tr2Tr2TrPi C_TeTeTeTe H_S H_S C_TrTrTrPi O_Tr2Tr2TrPi C_TrTrTrPi H_S C_TrTrTrPi H_S C_TrTrTrPi C_TrTrTrPi H_S C_TrTrTrPi C_TrTrTrPi C_TrTrTrPi H_S C_TrTrTrPi H_S O_Te2Te2Te2Te O_Tr2TrTrPi2 C_TeTeTeTe H_S H_S H_S O_Te2Te2TeTe H_S
M  BCL BND NonConjugatedSingleBond NonConjugatedSingleBond NonConjugatedSingleBond NonConjugatedSingleBond NonConjugatedSingleBond NonConjugatedSingleBond NonConjugatedSingleBond NonConjugatedSingleBond NonConjugatedSingleBond NonConjugatedSingleBond NonConjugatedSingleBond NonConjugatedSingleBond NonConjugatedSingleBond ConjugatedSingleBond ConjugatedDoubleBond ConjugatedSingleBond ConjugatedSingleBond ConjugatedSingleBond ConjugatedSingleBond ConjugatedDoubleBond ConjugatedSingleBond NonConjugatedSingleBond NonConjugatedSingleBond NonConjugatedSingleBond NonConjugatedSingleBond NonConjugatedSingleBond NonConjugatedSingleBondInRing NonConjugatedSingleBondInRing NonConjugatedSingleBond NonConjugatedSingleBondInRing NonConjugatedSingleBond NonConjugatedSingleBond NonConjugatedSingleBondInRing NonConjugatedSingleBond NonConjugatedSingleBond NonConjugatedSingleBondInRing NonConjugatedSingleBond AromaticSingleBond AromaticSingleBond NonConjugatedSingleBond AromaticDoubleBond AromaticSingleBond AromaticSingleBond AromaticDoubleBond AromaticDoubleBond ConjugatedSingleBond AromaticSingleBond NonConjugatedSingleBond AromaticDoubleBond AromaticSingleBond NonConjugatedSingleBond NonConjugatedSingleBond NonConjugatedSingleBond ConjugatedSingleBond ConjugatedDoubleBond ConjugatedSingleBond ConjugatedSingleBond NonConjugatedSingleBond NonConjugatedSingleBond NonConjugatedSingleBond ConjugatedDoubleBond AmideSingleBond NonConjugatedSingleBond NonConjugatedSingleBond NonConjugatedSingleBond NonConjugatedSingleBond NonConjugatedSingleBond NonConjugatedSingleBond NonConjugatedSingleBond NonConjugatedSingleBond ConjugatedDoubleBond AmideSingleBond NonConjugatedSingleBond NonConjugatedSingleBond NonConjugatedSingleBond NonConjugatedSingleBond NonConjugatedSingleBond NonConjugatedSingleBond NonConjugatedSingleBond NonConjugatedSingleBond ConjugatedSingleBond ConjugatedDoubleBond NonConjugatedSingleBond NonConjugatedSingleBond NonConjugatedSingleBond NonConjugatedSingleBond ConjugatedDoubleBond ConjugatedSingleBond NonConjugatedSingleBond ConjugatedDoubleBond NonConjugatedSingleBond ConjugatedSingleBond AromaticDoubleBond AromaticSingleBond NonConjugatedSingleBond AromaticSingleBond AromaticDoubleBond ConjugatedSingleBond AromaticSingleBond ConjugatedSingleBond NonConjugatedSingleBond AromaticDoubleBond NonConjugatedSingleBond NonConjugatedSingleBond NonConjugatedSingleBond NonConjugatedSingleBond NonConjugatedSingleBond NonConjugatedSingleBond
M  BCL CHI  14   R  18   S  25   R  27   R  29   R  31   S  55   R
M  BCL DBI - - - - - - - - - - - E - - -
M  END
> <ConfClashScore>
0 

> <ConfOneFourInteractionScore>
-0.974795 

> <ConfScore>
0.102731 

> <ConfScorePBest>
0.0124205 

> <ConfTolerance>
3.06257 

$$$$
L03.****
  PyMOL2.5          3D                             0

105108  0  0  0  0  0  0  0  0999 V2000
    0.3022  -12.7276   -5.1141 C   0  0  0  1  0  0  0  0  0  0  0  0
   -0.1432  -13.6031   -4.6897 H   0  0  0  1  0  0  0  0  0  0  0  0
    1.1637  -12.4530   -4.5421 H   0  0  0  1  0  0  0  0  0  0  0  0
    0.5933  -12.9296   -6.1237 H   0  0  0  1  0  0  0  0  0  0  0  0
   -0.7102  -11.5787   -5.0953 C   0  0  0  1  0  0  0  0  0  0  0  0
   -0.2234  -10.3630   -5.8930 C   0  0  0  1  0  0  0  0  0  0  0  0
    0.1393  -10.6838   -6.8471 H   0  0  0  1  0  0  0  0  0  0  0  0
    0.5650   -9.8773   -5.3569 H   0  0  0  1  0  0  0  0  0  0  0  0
   -1.0349   -9.6795   -6.0317 H   0  0  0  1  0  0  0  0  0  0  0  0
   -0.9555  -11.1849   -3.7177 C   0  0  0  1  0  0  0  0  0  0  0  0
   -0.0239  -10.9068   -3.2709 H   0  0  0  1  0  0  0  0  0  0  0  0
   -1.3684  -12.0204   -3.1920 H   0  0  0  1  0  0  0  0  0  0  0  0
   -1.8719  -10.0705   -3.6065 O   0  0  0  1  0  0  0  0  0  0  0  0
   -2.1938   -9.4274   -2.2069 P   0  0  0  1  0  0  0  0  0  0  0  0
   -2.9440  -10.6432   -1.8204 O   0  0  0  1  0  0  0  0  0  0  0  0
   -0.6981   -9.0986   -2.7353 O   0  5  0  1  0  0  0  0  0  0  0  0
   -2.5250   -8.7667   -0.7679 O   0  0  0  1  0  0  0  0  0  0  0  0
   -3.9565   -8.1388   -0.4303 P   0  0  0  1  0  0  0  0  0  0  0  0
   -3.8403   -6.9539    0.4765 O   0  0  0  0  0  0  0  0  0  0  0  0
   -4.9165   -9.1980    0.0017 O   0  0  0  1  0  0  0  0  0  0  0  0
   -4.3111   -7.5468   -1.8540 O   0  0  0  1  0  0  0  0  0  0  0  0
   -3.4329   -6.5446   -2.4285 C   0  0  0  1  0  0  0  0  0  0  0  0
   -3.5292   -6.5306   -3.4941 H   0  0  0  1  0  0  0  0  0  0  0  0
   -2.4154   -6.7444   -2.1645 H   0  0  0  1  0  0  0  0  0  0  0  0
   -3.8805   -5.2268   -1.8417 C   0  0  0  1  0  0  0  0  0  0  0  0
   -4.7427   -5.3837   -1.2279 H   0  0  0  1  0  0  0  0  0  0  0  0
   -4.1816   -4.2108   -2.9530 C   0  0  0  1  0  0  0  0  0  0  0  0
   -5.1962   -4.2897   -3.2833 H   0  0  0  1  0  0  0  0  0  0  0  0
   -3.9337   -2.8911   -2.2707 C   0  0  0  1  0  0  0  0  0  0  0  0
   -4.8019   -2.5664   -1.7362 H   0  0  0  1  0  0  0  0  0  0  0  0
   -2.7831   -3.2060   -1.3102 C   0  0  0  1  0  0  0  0  0  0  0  0
   -2.9140   -2.6864   -0.3840 H   0  0  0  1  0  0  0  0  0  0  0  0
   -2.8462   -4.6352   -1.1034 O   0  0  0  1  0  0  0  0  0  0  0  0
   -1.4993   -2.8290   -1.9049 N   0  0  0  1  0  0  0  0  0  0  0  0
   -0.4417   -3.6518   -2.1861 C   0  0  0  1  0  0  0  0  0  0  0  0
   -0.4561   -4.6731   -1.9902 H   0  0  0  1  0  0  0  0  0  0  0  0
    0.5860   -3.0499   -2.7201 N   0  0  0  1  0  0  0  0  0  0  0  0
    0.1807   -1.7323   -2.7957 C   0  0  0  1  0  0  0  0  0  0  0  0
    0.7923   -0.5702   -3.2726 C   0  0  0  1  0  0  0  0  0  0  0  0
    0.1332    0.5920   -3.2135 N   0  0  0  1  0  0  0  0  0  0  0  0
   -1.1172    0.5797   -2.7044 C   0  0  0  1  0  0  0  0  0  0  0  0
   -1.6038    1.4986   -2.6835 H   0  0  0  1  0  0  0  0  0  0  0  0
   -1.8105   -0.4500   -2.2259 N   0  0  0  1  0  0  0  0  0  0  0  0
   -1.1021   -1.5785   -2.2977 C   0  0  0  1  0  0  0  0  0  0  0  0
    2.0829   -0.6218   -3.8073 N   0  0  0  1  0  0  0  0  0  0  0  0
    2.5793   -1.4667   -3.8085 H   0  0  0  1  0  0  0  0  0  0  0  0
    2.4911    0.1870   -4.1810 H   0  0  0  1  0  0  0  0  0  0  0  0
   -3.5530   -1.8895   -3.2152 O   0  0  0  1  0  0  0  0  0  0  0  0
   -3.8897   -1.0366   -2.9311 H   0  0  0  1  0  0  0  0  0  0  0  0
   -3.2933   -4.3905   -4.0773 O   0  0  0  1  0  0  0  0  0  0  0  0
   -3.8857   -4.6781   -5.5793 P   0  0  0  1  0  0  0  0  0  0  0  0
   -2.7241   -4.6720   -6.4964 O   0  0  0  1  0  0  0  0  0  0  0  0
   -5.0244   -5.8291   -5.5256 O   0  5  0  1  0  0  0  0  0  0  0  0
   -4.7798   -3.3517   -5.8352 O   0  5  0  1  0  0  0  0  0  0  0  0
   -2.0329  -12.0706   -5.6903 C   0  0  0  1  0  0  0  0  0  0  0  0
   -2.7426  -11.2719   -5.6329 H   0  0  0  1  0  0  0  0  0  0  0  0
   -1.8498  -12.4439   -7.1440 C   0  0  0  1  0  0  0  0  0  0  0  0
   -0.7365  -12.6956   -7.6031 O   0  0  0  1  0  0  0  0  0  0  0  0
   -2.9702  -12.4796   -7.8825 N   0  0  0  1  0  0  0  0  0  0  0  0
   -3.8358  -12.3799   -7.4339 H   0  0  0  1  0  0  0  0  0  0  0  0
   -2.9441  -12.6618   -9.3295 C   0  0  0  1  0  0  0  0  0  0  0  0
   -2.4217  -13.5688   -9.5515 H   0  0  0  1  0  0  0  0  0  0  0  0
   -2.4272  -11.8349   -9.7699 H   0  0  0  1  0  0  0  0  0  0  0  0
   -4.3294  -12.7417   -9.9288 C   0  0  0  1  0  0  0  0  0  0  0  0
   -4.7612  -11.7633   -9.8935 H   0  0  0  1  0  0  0  0  0  0  0  0
   -4.9106  -13.4104   -9.3288 H   0  0  0  1  0  0  0  0  0  0  0  0
   -4.3893  -13.2241  -11.3520 C   0  0  0  1  0  0  0  0  0  0  0  0
   -3.3708  -13.5870  -11.9385 O   0  0  0  1  0  0  0  0  0  0  0  0
   -5.5854  -13.2465  -11.9611 N   0  0  0  1  0  0  0  0  0  0  0  0
   -6.3673  -12.9030  -11.4804 H   0  0  0  1  0  0  0  0  0  0  0  0
   -5.7613  -13.7630  -13.3102 C   0  0  0  1  0  0  0  0  0  0  0  0
   -5.4671  -14.7914  -13.3357 H   0  0  0  1  0  0  0  0  0  0  0  0
   -5.1517  -13.2003  -13.9860 H   0  0  0  1  0  0  0  0  0  0  0  0
   -7.2060  -13.6480  -13.7293 C   0  0  0  1  0  0  0  0  0  0  0  0
   -7.8055  -14.1352  -12.9890 H   0  0  0  1  0  0  0  0  0  0  0  0
   -7.3197  -14.1495  -14.6677 H   0  0  0  1  0  0  0  0  0  0  0  0
   -7.8158  -11.9603  -13.9201 S   0  0  0  1  0  0  0  0  0  0  0  0
   -6.8122  -11.4245  -15.2862 C   0  0  0  1  0  0  0  0  0  0  0  0
   -5.9605  -12.1053  -15.7906 O   0  0  0  1  0  0  0  0  0  0  0  0
   -7.1545  -10.0243  -15.7333 C   0  0  0  1  0  0  0  0  0  0  0  0
   -8.0333   -9.7024  -15.2146 H   0  0  0  1  0  0  0  0  0  0  0  0
   -7.3454  -10.0360  -16.7861 H   0  0  0  1  0  0  0  0  0  0  0  0
   -6.0406   -9.0477  -15.4530 C   0  0  0  1  0  0  0  0  0  0  0  0
   -5.2260   -8.7777  -16.3177 O   0  0  0  1  0  0  0  0  0  0  0  0
   -5.9555   -8.4333  -14.1311 C   0  0  0  1  0  0  0  0  0  0  0  0
   -5.1034   -7.8579  -13.9746 H   0  0  0  1  0  0  0  0  0  0  0  0
   -6.7968   -8.4876  -13.0806 C   0  0  0  1  0  0  0  0  0  0  0  0
   -7.6392   -9.0690  -13.2646 H   0  0  0  1  0  0  0  0  0  0  0  0
   -6.7851   -7.9006  -11.7206 C   0  0  0  1  0  0  0  0  0  0  0  0
   -5.7262   -7.1019  -11.3321 C   0  0  0  1  0  0  0  0  0  0  0  0
   -4.9429   -6.9198  -11.9915 H   0  0  0  1  0  0  0  0  0  0  0  0
   -5.7083   -6.5435  -10.0635 C   0  0  0  1  0  0  0  0  0  0  0  0
   -6.7467   -6.7898   -9.1852 C   0  0  0  1  0  0  0  0  0  0  0  0
   -7.8087   -7.5910   -9.5750 C   0  0  0  1  0  0  0  0  0  0  0  0
   -8.5920   -7.7731   -8.9156 H   0  0  0  1  0  0  0  0  0  0  0  0
   -7.8266   -8.1478  -10.8399 C   0  0  0  1  0  0  0  0  0  0  0  0
   -8.6214   -8.7521  -11.1308 H   0  0  0  1  0  0  0  0  0  0  0  0
   -6.6959   -6.2312   -7.9463 O   0  5  0  1  0  0  0  0  0  0  0  0
   -4.6116   -5.7869   -9.8409 O   0  0  0  1  0  0  0  0  0  0  0  0
   -4.5370   -4.9748   -8.6461 C   0  0  0  1  0  0  0  0  0  0  0  0
   -4.1023   -5.5459   -7.8526 H   0  0  0  1  0  0  0  0  0  0  0  0
   -5.5215   -4.6646   -8.3640 H   0  0  0  1  0  0  0  0  0  0  0  0
   -3.9323   -4.1132   -8.8379 H   0  0  0  1  0  0  0  0  0  0  0  0
   -2.5103  -13.1887   -4.9481 O   0  0  0  1  0  0  0  0  0  0  0  0
   -1.7749  -13.7657   -4.7294 H   0  0  0  1  0  0  0  0  0  0  0  0
  1  2  1  0  0  0  0
  1  3  1  0  0  0  0
  1  4  1  0  0  0  0
  1  5  1  0  0  0  0
  5  6  1  0  0  0  0
  5 10  1  0  0  0  0
  5 55  1  0  0  0  0
  6  7  1  0  0  0  0
  6  8  1  0  0  0  0
  6  9  1  0  0  0  0
 10 11  1  0  0  0  0
 10 12  1  0  0  0  0
 10 13  1  0  0  0  0
 13 14  1  0  0  0  0
 14 15  2  0  0  0  0
 14 16  1  0  0  0  0
 14 17  1  0  0  0  0
 17 18  1  0  0  0  0
 18 19  1  0  0  0  0
 18 20  2  0  0  0  0
 18 21  1  0  0  0  0
 21 22  1  0  0  0  0
 22 23  1  0  0  0  0
 22 24  1  0  0  0  0
 22 25  1  0  0  0  0
 25 26  1  0  0  0  0
 25 27  1  0  0  0  0
 25 33  1  0  0  0  0
 27 28  1  0  0  0  0
 27 29  1  0  0  0  0
 27 50  1  0  0  0  0
 29 30  1  0  0  0  0
 29 31  1  0  0  0  0
 29 48  1  0  0  0  0
 31 32  1  0  0  0  0
 31 33  1  0  0  0  0
 31 34  1  0  0  0  0
 34 35  1  0  0  0  0
 34 44  1  0  0  0  0
 35 36  1  0  0  0  0
 35 37  2  0  0  0  0
 37 38  1  0  0  0  0
 38 39  1  0  0  0  0
 38 44  2  0  0  0  0
 39 40  2  0  0  0  0
 39 45  1  0  0  0  0
 40 41  1  0  0  0  0
 41 42  1  0  0  0  0
 41 43  2  0  0  0  0
 43 44  1  0  0  0  0
 45 46  1  0  0  0  0
 45 47  1  0  0  0  0
 48 49  1  0  0  0  0
 50 51  1  0  0  0  0
 51 52  2  0  0  0  0
 51 53  1  0  0  0  0
 51 54  1  0  0  0  0
 55 56  1  0  0  0  0
 55 57  1  0  0  0  0
 55104  1  0  0  0  0
 57 58  2  0  0  0  0
 57 59  1  0  0  0  0
 59 60  1  0  0  0  0
 59 61  1  0  0  0  0
 61 62  1  0  0  0  0
 61 63  1  0  0  0  0
 61 64  1  0  0  0  0
 64 65  1  0  0  0  0
 64 66  1  0  0  0  0
 64 67  1  0  0  0  0
 67 68  2  0  0  0  0
 67 69  1  0  0  0  0
 69 70  1  0  0  0  0
 69 71  1  0  0  0  0
 71 72  1  0  0  0  0
 71 73  1  0  0  0  0
 71 74  1  0  0  0  0
 74 75  1  0  0  0  0
 74 76  1  0  0  0  0
 74 77  1  0  0  0  0
 77 78  1  0  0  0  0
 78 79  2  0  0  0  0
 78 80  1  0  0  0  0
 80 81  1  0  0  0  0
 80 82  1  0  0  0  0
 80 83  1  0  0  0  0
 83 84  2  0  0  0  0
 83 85  1  0  0  0  0
 85 86  1  0  0  0  0
 85 87  2  0  0  0  0
 87 88  1  0  0  0  0
 87 89  1  0  0  0  0
 89 90  2  0  0  0  0
 89 96  1  0  0  0  0
 90 91  1  0  0  0  0
 90 92  1  0  0  0  0
 92 93  2  0  0  0  0
 92 99  1  0  0  0  0
 93 94  1  0  0  0  0
 93 98  1  0  0  0  0
 94 95  1  0  0  0  0
 94 96  2  0  0  0  0
 96 97  1  0  0  0  0
 99100  1  0  0  0  0
100101  1  0  0  0  0
100102  1  0  0  0  0
100103  1  0  0  0  0
104105  1  0  0  0  0
M  BCL ATM C_TeTeTeTe H_S H_S H_S C_TeTeTeTe C_TeTeTeTe H_S H_S H_S C_TeTeTeTe H_S H_S O_Tr2TrTrPi2 P_TeTeTeTePi O_Tr2Tr2TrPi O_Te2Te2Te2Te O_Tr2TrTrPi2 P_TeTeTeTePi O_Te2Te2TeTe O_Tr2Tr2TrPi O_Tr2TrTrPi2 C_TeTeTeTe H_S H_S C_TeTeTeTe H_S C_TeTeTeTe H_S C_TeTeTeTe H_S C_TeTeTeTe H_S O_Te2Te2TeTe N_TrTrTrPi2 C_TrTrTrPi H_S N_Tr2TrTrPi C_TrTrTrPi C_TrTrTrPi N_Tr2TrTrPi C_TrTrTrPi H_S N_Tr2TrTrPi C_TrTrTrPi N_TrTrTrPi2 H_S H_S O_Te2Te2TeTe H_S O_Tr2TrTrPi2 P_TeTeTeTePi O_Tr2Tr2TrPi O_Te2Te2Te2Te O_Te2Te2Te2Te C_TeTeTeTe H_S C_TrTrTrPi O_Tr2Tr2TrPi N_TrTrTrPi2 H_S C_TeTeTeTe H_S H_S C_TeTeTeTe H_S H_S C_TrTrTrPi O_Tr2Tr2TrPi N_TrTrTrPi2 H_S C_TeTeTeTe H_S H_S C_TeTeTeTe H_S H_S S_Te2Te2TeTe C_TrTrTrPi O_Tr2Tr2TrPi C_TeTeTeTe H_S H_S C_TrTrTrPi O_Tr2Tr2TrPi C_TrTrTrPi H_S C_TrTrTrPi H_S C_TrTrTrPi C_TrTrTrPi H_S C_TrTrTrPi C_TrTrTrPi C_TrTrTrPi H_S C_TrTrTrPi H_S O_Te2Te2Te2Te O_Tr2TrTrPi2 C_TeTeTeTe H_S H_S H_S O_Te2Te2TeTe H_S
M  BCL BND NonConjugatedSingleBond NonConjugatedSingleBond NonConjugatedSingleBond NonConjugatedSingleBond NonConjugatedSingleBond NonConjugatedSingleBond NonConjugatedSingleBond NonConjugatedSingleBond NonConjugatedSingleBond NonConjugatedSingleBond NonConjugatedSingleBond NonConjugatedSingleBond NonConjugatedSingleBond ConjugatedSingleBond ConjugatedDoubleBond ConjugatedSingleBond ConjugatedSingleBond ConjugatedSingleBond ConjugatedSingleBond ConjugatedDoubleBond ConjugatedSingleBond NonConjugatedSingleBond NonConjugatedSingleBond NonConjugatedSingleBond NonConjugatedSingleBond NonConjugatedSingleBond NonConjugatedSingleBondInRing NonConjugatedSingleBondInRing NonConjugatedSingleBond NonConjugatedSingleBondInRing NonConjugatedSingleBond NonConjugatedSingleBond NonConjugatedSingleBondInRing NonConjugatedSingleBond NonConjugatedSingleBond NonConjugatedSingleBondInRing NonConjugatedSingleBond AromaticSingleBond AromaticSingleBond NonConjugatedSingleBond AromaticDoubleBond AromaticSingleBond AromaticSingleBond AromaticDoubleBond AromaticDoubleBond ConjugatedSingleBond AromaticSingleBond NonConjugatedSingleBond AromaticDoubleBond AromaticSingleBond NonConjugatedSingleBond NonConjugatedSingleBond NonConjugatedSingleBond ConjugatedSingleBond ConjugatedDoubleBond ConjugatedSingleBond ConjugatedSingleBond NonConjugatedSingleBond NonConjugatedSingleBond NonConjugatedSingleBond ConjugatedDoubleBond AmideSingleBond NonConjugatedSingleBond NonConjugatedSingleBond NonConjugatedSingleBond NonConjugatedSingleBond NonConjugatedSingleBond NonConjugatedSingleBond NonConjugatedSingleBond NonConjugatedSingleBond ConjugatedDoubleBond AmideSingleBond NonConjugatedSingleBond NonConjugatedSingleBond NonConjugatedSingleBond NonConjugatedSingleBond NonConjugatedSingleBond NonConjugatedSingleBond NonConjugatedSingleBond NonConjugatedSingleBond ConjugatedSingleBond ConjugatedDoubleBond NonConjugatedSingleBond NonConjugatedSingleBond NonConjugatedSingleBond NonConjugatedSingleBond ConjugatedDoubleBond ConjugatedSingleBond NonConjugatedSingleBond ConjugatedDoubleBond NonConjugatedSingleBond ConjugatedSingleBond AromaticDoubleBond AromaticSingleBond NonConjugatedSingleBond AromaticSingleBond AromaticDoubleBond ConjugatedSingleBond AromaticSingleBond ConjugatedSingleBond NonConjugatedSingleBond AromaticDoubleBond NonConjugatedSingleBond NonConjugatedSingleBond NonConjugatedSingleBond NonConjugatedSingleBond NonConjugatedSingleBond NonConjugatedSingleBond
M  BCL CHI  14   R  18   S  25   R  27   R  29   R  31   S  55   R
M  BCL DBI - - - - - - - - - - - E - - -
M  END
> <ConfClashScore>
0.000568909 

> <ConfOneFourInteractionScore>
-0.964166 

> <ConfScore>
0.103424 

> <ConfScorePBest>
0.0123175 

> <ConfTolerance>
2.87933 

$$$$
L03.****
  PyMOL2.5          3D                             0

105108  0  0  0  0  0  0  0  0999 V2000
    4.2032    1.3808    6.6827 C   0  0  0  1  0  0  0  0  0  0  0  0
    3.9864    1.2004    7.7149 H   0  0  0  1  0  0  0  0  0  0  0  0
    5.0594    2.0178    6.6044 H   0  0  0  1  0  0  0  0  0  0  0  0
    4.4039    0.4509    6.1929 H   0  0  0  1  0  0  0  0  0  0  0  0
    2.9975    2.0601    6.0167 C   0  0  0  1  0  0  0  0  0  0  0  0
    2.1378    2.7279    7.0966 C   0  0  0  1  0  0  0  0  0  0  0  0
    1.2632    3.1493    6.6469 H   0  0  0  1  0  0  0  0  0  0  0  0
    2.7020    3.5023    7.5729 H   0  0  0  1  0  0  0  0  0  0  0  0
    1.8484    1.9980    7.8236 H   0  0  0  1  0  0  0  0  0  0  0  0
    2.1762    1.0736    5.2534 C   0  0  0  1  0  0  0  0  0  0  0  0
    1.8688    0.2781    5.8995 H   0  0  0  1  0  0  0  0  0  0  0  0
    2.7478    0.6740    4.4419 H   0  0  0  1  0  0  0  0  0  0  0  0
    1.0147    1.7706    4.7423 O   0  0  0  1  0  0  0  0  0  0  0  0
   -0.1877    1.0387    4.0390 P   0  0  0  1  0  0  0  0  0  0  0  0
   -0.0421   -0.0995    4.9738 O   0  0  0  1  0  0  0  0  0  0  0  0
   -0.4011    2.6389    4.1741 O   0  5  0  1  0  0  0  0  0  0  0  0
   -1.4129    0.2924    3.3226 O   0  0  0  1  0  0  0  0  0  0  0  0
   -2.4356   -0.8419    3.8902 P   0  0  0  1  0  0  0  0  0  0  0  0
   -3.5083   -0.1783    4.6748 O   0  0  0  0  0  0  0  0  0  0  0  0
   -1.6385   -1.9404    4.4910 O   0  0  0  1  0  0  0  0  0  0  0  0
   -2.9856   -1.3659    2.5160 O   0  0  0  1  0  0  0  0  0  0  0  0
   -2.8623   -2.7432    2.0871 C   0  0  0  1  0  0  0  0  0  0  0  0
   -3.1996   -3.3880    2.8715 H   0  0  0  1  0  0  0  0  0  0  0  0
   -1.8362   -2.9535    1.8682 H   0  0  0  1  0  0  0  0  0  0  0  0
   -3.6942   -2.9867    0.8512 C   0  0  0  1  0  0  0  0  0  0  0  0
   -4.6933   -2.6427    1.0196 H   0  0  0  1  0  0  0  0  0  0  0  0
   -3.6990   -4.4943    0.4969 C   0  0  0  1  0  0  0  0  0  0  0  0
   -4.6616   -4.8050    0.1479 H   0  0  0  1  0  0  0  0  0  0  0  0
   -2.6616   -4.5834   -0.6084 C   0  0  0  1  0  0  0  0  0  0  0  0
   -2.8913   -5.3752   -1.2906 H   0  0  0  1  0  0  0  0  0  0  0  0
   -2.7800   -3.2115   -1.2910 C   0  0  0  1  0  0  0  0  0  0  0  0
   -3.5437   -3.2334   -2.0402 H   0  0  0  1  0  0  0  0  0  0  0  0
   -3.1178   -2.3076   -0.2786 O   0  0  0  1  0  0  0  0  0  0  0  0
   -1.4950   -2.8333   -1.9086 N   0  0  0  1  0  0  0  0  0  0  0  0
   -0.4495   -3.6549   -2.1993 C   0  0  0  1  0  0  0  0  0  0  0  0
   -0.4710   -4.6767   -2.0067 H   0  0  0  1  0  0  0  0  0  0  0  0
    0.5821   -3.0638   -2.7381 N   0  0  0  1  0  0  0  0  0  0  0  0
    0.1889   -1.7373   -2.8221 C   0  0  0  1  0  0  0  0  0  0  0  0
    0.7966   -0.5722   -3.2806 C   0  0  0  1  0  0  0  0  0  0  0  0
    0.1348    0.5885   -3.2210 N   0  0  0  1  0  0  0  0  0  0  0  0
   -1.1023    0.5816   -2.6999 C   0  0  0  1  0  0  0  0  0  0  0  0
   -1.5817    1.5039   -2.6673 H   0  0  0  1  0  0  0  0  0  0  0  0
   -1.7962   -0.4434   -2.2205 N   0  0  0  1  0  0  0  0  0  0  0  0
   -1.1058   -1.5811   -2.3089 C   0  0  0  1  0  0  0  0  0  0  0  0
    2.0673   -0.6141   -3.7908 N   0  0  0  1  0  0  0  0  0  0  0  0
    2.5128   -1.4764   -3.9263 H   0  0  0  1  0  0  0  0  0  0  0  0
    2.5309    0.2183   -4.0204 H   0  0  0  1  0  0  0  0  0  0  0  0
   -1.3526   -4.7809   -0.0720 O   0  0  0  1  0  0  0  0  0  0  0  0
   -0.9047   -5.4715   -0.5661 H   0  0  0  1  0  0  0  0  0  0  0  0
   -3.3148   -5.3010    1.6404 O   0  0  0  1  0  0  0  0  0  0  0  0
   -4.4208   -5.7408    2.7687 P   0  0  0  1  0  0  0  0  0  0  0  0
   -5.1409   -4.6012    3.3796 O   0  0  0  1  0  0  0  0  0  0  0  0
   -5.4393   -6.8073    2.0982 O   0  5  0  1  0  0  0  0  0  0  0  0
   -3.5627   -6.5496    3.8795 O   0  5  0  1  0  0  0  0  0  0  0  0
    3.5071    3.1488    5.0649 C   0  0  0  1  0  0  0  0  0  0  0  0
    4.4379    3.5162    5.4439 H   0  0  0  1  0  0  0  0  0  0  0  0
    3.7500    2.5716    3.6840 C   0  0  0  1  0  0  0  0  0  0  0  0
    4.4216    1.5652    3.5276 O   0  0  0  1  0  0  0  0  0  0  0  0
    3.1822    3.2369    2.6656 N   0  0  0  1  0  0  0  0  0  0  0  0
    2.6666    4.0419    2.8817 H   0  0  0  1  0  0  0  0  0  0  0  0
    3.2746    2.8530    1.2649 C   0  0  0  1  0  0  0  0  0  0  0  0
    4.1892    2.3181    1.1157 H   0  0  0  1  0  0  0  0  0  0  0  0
    3.2774    3.7396    0.6659 H   0  0  0  1  0  0  0  0  0  0  0  0
    2.1174    1.9714    0.8246 C   0  0  0  1  0  0  0  0  0  0  0  0
    2.1368    1.0705    1.4016 H   0  0  0  1  0  0  0  0  0  0  0  0
    2.2444    1.7349   -0.2112 H   0  0  0  1  0  0  0  0  0  0  0  0
    0.7647    2.6320    1.0065 C   0  0  0  1  0  0  0  0  0  0  0  0
    0.6671    3.8334    1.1953 O   0  0  0  1  0  0  0  0  0  0  0  0
   -0.2922    1.8169    0.9459 N   0  0  0  1  0  0  0  0  0  0  0  0
   -0.1413    0.8527    0.8567 H   0  0  0  1  0  0  0  0  0  0  0  0
   -1.6596    2.3111    1.0079 C   0  0  0  1  0  0  0  0  0  0  0  0
   -1.6963    3.2767    0.5484 H   0  0  0  1  0  0  0  0  0  0  0  0
   -1.9482    2.3931    2.0350 H   0  0  0  1  0  0  0  0  0  0  0  0
   -2.6431    1.3956    0.2972 C   0  0  0  1  0  0  0  0  0  0  0  0
   -2.5861    0.4297    0.7539 H   0  0  0  1  0  0  0  0  0  0  0  0
   -2.3470    1.3238   -0.7285 H   0  0  0  1  0  0  0  0  0  0  0  0
   -4.3680    1.9372    0.3456 S   0  0  0  1  0  0  0  0  0  0  0  0
   -4.8417    1.5381    2.0120 C   0  0  0  1  0  0  0  0  0  0  0  0
   -4.0894    1.0637    2.8198 O   0  0  0  1  0  0  0  0  0  0  0  0
   -6.2909    1.8640    2.2895 C   0  0  0  1  0  0  0  0  0  0  0  0
   -6.5955    1.3177    3.1576 H   0  0  0  1  0  0  0  0  0  0  0  0
   -6.8709    1.5487    1.4474 H   0  0  0  1  0  0  0  0  0  0  0  0
   -6.5700    3.3271    2.5321 C   0  0  0  1  0  0  0  0  0  0  0  0
   -5.6128    4.1047    2.5283 O   0  0  0  1  0  0  0  0  0  0  0  0
   -7.9371    3.7958    2.7632 C   0  0  0  1  0  0  0  0  0  0  0  0
   -8.0607    4.7989    3.0085 H   0  0  0  1  0  0  0  0  0  0  0  0
   -9.0368    3.0474    2.6863 C   0  0  0  1  0  0  0  0  0  0  0  0
   -8.9131    2.0444    2.4410 H   0  0  0  1  0  0  0  0  0  0  0  0
  -10.4205    3.5218    2.9202 C   0  0  0  1  0  0  0  0  0  0  0  0
  -11.4671    2.6205    2.8724 C   0  0  0  1  0  0  0  0  0  0  0  0
  -11.2810    1.6176    2.6693 H   0  0  0  1  0  0  0  0  0  0  0  0
  -12.7650    3.0533    3.0951 C   0  0  0  1  0  0  0  0  0  0  0  0
  -13.0131    4.3870    3.3597 C   0  0  0  1  0  0  0  0  0  0  0  0
  -11.9632    5.2909    3.4076 C   0  0  0  1  0  0  0  0  0  0  0  0
  -12.1493    6.2938    3.6107 H   0  0  0  1  0  0  0  0  0  0  0  0
  -10.6690    4.8595    3.1855 C   0  0  0  1  0  0  0  0  0  0  0  0
   -9.8818    5.5383    3.2175 H   0  0  0  1  0  0  0  0  0  0  0  0
  -14.2730    4.8501    3.5783 O   0  5  0  1  0  0  0  0  0  0  0  0
  -13.7181    2.0676    3.0273 O   0  0  0  1  0  0  0  0  0  0  0  0
  -15.0754    2.4471    3.3031 C   0  0  0  1  0  0  0  0  0  0  0  0
  -15.0988    3.0986    4.1516 H   0  0  0  1  0  0  0  0  0  0  0  0
  -15.6553    1.5719    3.5098 H   0  0  0  1  0  0  0  0  0  0  0  0
  -15.4836    2.9535    2.4535 H   0  0  0  1  0  0  0  0  0  0  0  0
    2.5625    4.2128    4.9980 O   0  0  0  1  0  0  0  0  0  0  0  0
    3.0126    5.0499    5.1330 H   0  0  0  1  0  0  0  0  0  0  0  0
  1  2  1  0  0  0  0
  1  3  1  0  0  0  0
  1  4  1  0  0  0  0
  1  5  1  0  0  0  0
  5  6  1  0  0  0  0
  5 10  1  0  0  0  0
  5 55  1  0  0  0  0
  6  7  1  0  0  0  0
  6  8  1  0  0  0  0
  6  9  1  0  0  0  0
 10 11  1  0  0  0  0
 10 12  1  0  0  0  0
 10 13  1  0  0  0  0
 13 14  1  0  0  0  0
 14 15  2  0  0  0  0
 14 16  1  0  0  0  0
 14 17  1  0  0  0  0
 17 18  1  0  0  0  0
 18 19  1  0  0  0  0
 18 20  2  0  0  0  0
 18 21  1  0  0  0  0
 21 22  1  0  0  0  0
 22 23  1  0  0  0  0
 22 24  1  0  0  0  0
 22 25  1  0  0  0  0
 25 26  1  0  0  0  0
 25 27  1  0  0  0  0
 25 33  1  0  0  0  0
 27 28  1  0  0  0  0
 27 29  1  0  0  0  0
 27 50  1  0  0  0  0
 29 30  1  0  0  0  0
 29 31  1  0  0  0  0
 29 48  1  0  0  0  0
 31 32  1  0  0  0  0
 31 33  1  0  0  0  0
 31 34  1  0  0  0  0
 34 35  1  0  0  0  0
 34 44  1  0  0  0  0
 35 36  1  0  0  0  0
 35 37  2  0  0  0  0
 37 38  1  0  0  0  0
 38 39  1  0  0  0  0
 38 44  2  0  0  0  0
 39 40  2  0  0  0  0
 39 45  1  0  0  0  0
 40 41  1  0  0  0  0
 41 42  1  0  0  0  0
 41 43  2  0  0  0  0
 43 44  1  0  0  0  0
 45 46  1  0  0  0  0
 45 47  1  0  0  0  0
 48 49  1  0  0  0  0
 50 51  1  0  0  0  0
 51 52  2  0  0  0  0
 51 53  1  0  0  0  0
 51 54  1  0  0  0  0
 55 56  1  0  0  0  0
 55 57  1  0  0  0  0
 55104  1  0  0  0  0
 57 58  2  0  0  0  0
 57 59  1  0  0  0  0
 59 60  1  0  0  0  0
 59 61  1  0  0  0  0
 61 62  1  0  0  0  0
 61 63  1  0  0  0  0
 61 64  1  0  0  0  0
 64 65  1  0  0  0  0
 64 66  1  0  0  0  0
 64 67  1  0  0  0  0
 67 68  2  0  0  0  0
 67 69  1  0  0  0  0
 69 70  1  0  0  0  0
 69 71  1  0  0  0  0
 71 72  1  0  0  0  0
 71 73  1  0  0  0  0
 71 74  1  0  0  0  0
 74 75  1  0  0  0  0
 74 76  1  0  0  0  0
 74 77  1  0  0  0  0
 77 78  1  0  0  0  0
 78 79  2  0  0  0  0
 78 80  1  0  0  0  0
 80 81  1  0  0  0  0
 80 82  1  0  0  0  0
 80 83  1  0  0  0  0
 83 84  2  0  0  0  0
 83 85  1  0  0  0  0
 85 86  1  0  0  0  0
 85 87  2  0  0  0  0
 87 88  1  0  0  0  0
 87 89  1  0  0  0  0
 89 90  2  0  0  0  0
 89 96  1  0  0  0  0
 90 91  1  0  0  0  0
 90 92  1  0  0  0  0
 92 93  2  0  0  0  0
 92 99  1  0  0  0  0
 93 94  1  0  0  0  0
 93 98  1  0  0  0  0
 94 95  1  0  0  0  0
 94 96  2  0  0  0  0
 96 97  1  0  0  0  0
 99100  1  0  0  0  0
100101  1  0  0  0  0
100102  1  0  0  0  0
100103  1  0  0  0  0
104105  1  0  0  0  0
M  BCL ATM C_TeTeTeTe H_S H_S H_S C_TeTeTeTe C_TeTeTeTe H_S H_S H_S C_TeTeTeTe H_S H_S O_Tr2TrTrPi2 P_TeTeTeTePi O_Tr2Tr2TrPi O_Te2Te2Te2Te O_Tr2TrTrPi2 P_TeTeTeTePi O_Te2Te2TeTe O_Tr2Tr2TrPi O_Tr2TrTrPi2 C_TeTeTeTe H_S H_S C_TeTeTeTe H_S C_TeTeTeTe H_S C_TeTeTeTe H_S C_TeTeTeTe H_S O_Te2Te2TeTe N_TrTrTrPi2 C_TrTrTrPi H_S N_Tr2TrTrPi C_TrTrTrPi C_TrTrTrPi N_Tr2TrTrPi C_TrTrTrPi H_S N_Tr2TrTrPi C_TrTrTrPi N_TrTrTrPi2 H_S H_S O_Te2Te2TeTe H_S O_Tr2TrTrPi2 P_TeTeTeTePi O_Tr2Tr2TrPi O_Te2Te2Te2Te O_Te2Te2Te2Te C_TeTeTeTe H_S C_TrTrTrPi O_Tr2Tr2TrPi N_TrTrTrPi2 H_S C_TeTeTeTe H_S H_S C_TeTeTeTe H_S H_S C_TrTrTrPi O_Tr2Tr2TrPi N_TrTrTrPi2 H_S C_TeTeTeTe H_S H_S C_TeTeTeTe H_S H_S S_Te2Te2TeTe C_TrTrTrPi O_Tr2Tr2TrPi C_TeTeTeTe H_S H_S C_TrTrTrPi O_Tr2Tr2TrPi C_TrTrTrPi H_S C_TrTrTrPi H_S C_TrTrTrPi C_TrTrTrPi H_S C_TrTrTrPi C_TrTrTrPi C_TrTrTrPi H_S C_TrTrTrPi H_S O_Te2Te2Te2Te O_Tr2TrTrPi2 C_TeTeTeTe H_S H_S H_S O_Te2Te2TeTe H_S
M  BCL BND NonConjugatedSingleBond NonConjugatedSingleBond NonConjugatedSingleBond NonConjugatedSingleBond NonConjugatedSingleBond NonConjugatedSingleBond NonConjugatedSingleBond NonConjugatedSingleBond NonConjugatedSingleBond NonConjugatedSingleBond NonConjugatedSingleBond NonConjugatedSingleBond NonConjugatedSingleBond ConjugatedSingleBond ConjugatedDoubleBond ConjugatedSingleBond ConjugatedSingleBond ConjugatedSingleBond ConjugatedSingleBond ConjugatedDoubleBond ConjugatedSingleBond NonConjugatedSingleBond NonConjugatedSingleBond NonConjugatedSingleBond NonConjugatedSingleBond NonConjugatedSingleBond NonConjugatedSingleBondInRing NonConjugatedSingleBondInRing NonConjugatedSingleBond NonConjugatedSingleBondInRing NonConjugatedSingleBond NonConjugatedSingleBond NonConjugatedSingleBondInRing NonConjugatedSingleBond NonConjugatedSingleBond NonConjugatedSingleBondInRing NonConjugatedSingleBond AromaticSingleBond AromaticSingleBond NonConjugatedSingleBond AromaticDoubleBond AromaticSingleBond AromaticSingleBond AromaticDoubleBond AromaticDoubleBond ConjugatedSingleBond AromaticSingleBond NonConjugatedSingleBond AromaticDoubleBond AromaticSingleBond NonConjugatedSingleBond NonConjugatedSingleBond NonConjugatedSingleBond ConjugatedSingleBond ConjugatedDoubleBond ConjugatedSingleBond ConjugatedSingleBond NonConjugatedSingleBond NonConjugatedSingleBond NonConjugatedSingleBond ConjugatedDoubleBond AmideSingleBond NonConjugatedSingleBond NonConjugatedSingleBond NonConjugatedSingleBond NonConjugatedSingleBond NonConjugatedSingleBond NonConjugatedSingleBond NonConjugatedSingleBond NonConjugatedSingleBond ConjugatedDoubleBond AmideSingleBond NonConjugatedSingleBond NonConjugatedSingleBond NonConjugatedSingleBond NonConjugatedSingleBond NonConjugatedSingleBond NonConjugatedSingleBond NonConjugatedSingleBond NonConjugatedSingleBond ConjugatedSingleBond ConjugatedDoubleBond NonConjugatedSingleBond NonConjugatedSingleBond NonConjugatedSingleBond NonConjugatedSingleBond ConjugatedDoubleBond ConjugatedSingleBond NonConjugatedSingleBond ConjugatedDoubleBond NonConjugatedSingleBond ConjugatedSingleBond AromaticDoubleBond AromaticSingleBond NonConjugatedSingleBond AromaticSingleBond AromaticDoubleBond ConjugatedSingleBond AromaticSingleBond ConjugatedSingleBond NonConjugatedSingleBond AromaticDoubleBond NonConjugatedSingleBond NonConjugatedSingleBond NonConjugatedSingleBond NonConjugatedSingleBond NonConjugatedSingleBond NonConjugatedSingleBond
M  BCL CHI  14   R  18   S  25   R  27   R  29   R  31   S  55   R
M  BCL DBI - - - - - - - - - - - E - - -
M  END
> <ConfClashScore>
0.000206643 

> <ConfOneFourInteractionScore>
-0.965282 

> <ConfScore>
0.103869 

> <ConfScorePBest>
0.0122145 

> <ConfTolerance>
2.93125 

$$$$
L03.****
  PyMOL2.5          3D                             0

105108  0  0  0  0  0  0  0  0999 V2000
    2.7912   -5.7847    2.5325 C   0  0  0  1  0  0  0  0  0  0  0  0
    3.3908   -6.3579    3.2084 H   0  0  0  1  0  0  0  0  0  0  0  0
    3.1077   -5.9730    1.5279 H   0  0  0  1  0  0  0  0  0  0  0  0
    1.7643   -6.0647    2.6418 H   0  0  0  1  0  0  0  0  0  0  0  0
    2.9500   -4.2924    2.8469 C   0  0  0  1  0  0  0  0  0  0  0  0
    1.8998   -3.8701    3.8813 C   0  0  0  1  0  0  0  0  0  0  0  0
    1.5525   -4.7329    4.4104 H   0  0  0  1  0  0  0  0  0  0  0  0
    1.0765   -3.4024    3.3828 H   0  0  0  1  0  0  0  0  0  0  0  0
    2.3374   -3.1804    4.5724 H   0  0  0  1  0  0  0  0  0  0  0  0
    2.8163   -3.5311    1.5692 C   0  0  0  1  0  0  0  0  0  0  0  0
    1.8624   -3.7275    1.1261 H   0  0  0  1  0  0  0  0  0  0  0  0
    3.5916   -3.8194    0.8904 H   0  0  0  1  0  0  0  0  0  0  0  0
    2.9338   -2.1232    1.8823 O   0  0  0  1  0  0  0  0  0  0  0  0
    1.8154   -1.1414    1.3712 P   0  0  0  1  0  0  0  0  0  0  0  0
    0.7770   -2.0204    1.9539 O   0  0  0  1  0  0  0  0  0  0  0  0
    3.1381   -0.3801    1.9146 O   0  5  0  1  0  0  0  0  0  0  0  0
    0.6731   -0.1393    0.8496 O   0  0  0  1  0  0  0  0  0  0  0  0
   -0.7236    0.3194    1.4703 P   0  0  0  1  0  0  0  0  0  0  0  0
   -1.1451    1.6304    0.9208 O   0  0  0  0  0  0  0  0  0  0  0  0
   -0.5755    0.1356    2.9231 O   0  0  0  1  0  0  0  0  0  0  0  0
   -1.7649   -0.6954    0.8878 O   0  0  0  1  0  0  0  0  0  0  0  0
   -3.1997   -0.6096    1.0544 C   0  0  0  1  0  0  0  0  0  0  0  0
   -3.5790    0.2354    0.5186 H   0  0  0  1  0  0  0  0  0  0  0  0
   -3.4409   -0.5120    2.0923 H   0  0  0  1  0  0  0  0  0  0  0  0
   -3.8028   -1.8818    0.5032 C   0  0  0  1  0  0  0  0  0  0  0  0
   -4.8534   -1.8960    0.7056 H   0  0  0  1  0  0  0  0  0  0  0  0
   -3.1461   -3.0726    1.1368 C   0  0  0  1  0  0  0  0  0  0  0  0
   -3.8791   -3.6629    1.6460 H   0  0  0  1  0  0  0  0  0  0  0  0
   -2.5061   -3.8835    0.0496 C   0  0  0  1  0  0  0  0  0  0  0  0
   -2.9293   -4.8660    0.0324 H   0  0  0  1  0  0  0  0  0  0  0  0
   -2.7670   -3.1938   -1.2573 C   0  0  0  1  0  0  0  0  0  0  0  0
   -3.3165   -3.8426   -1.9068 H   0  0  0  1  0  0  0  0  0  0  0  0
   -3.5685   -1.9566   -0.9765 O   0  0  0  1  0  0  0  0  0  0  0  0
   -1.4981   -2.8305   -1.8889 N   0  0  0  1  0  0  0  0  0  0  0  0
   -0.4556   -3.6720   -2.1934 C   0  0  0  1  0  0  0  0  0  0  0  0
   -0.4802   -4.6970   -2.0187 H   0  0  0  1  0  0  0  0  0  0  0  0
    0.5776   -3.0552   -2.7277 N   0  0  0  1  0  0  0  0  0  0  0  0
    0.1774   -1.7282   -2.7990 C   0  0  0  1  0  0  0  0  0  0  0  0
    0.8082   -0.5656   -3.2802 C   0  0  0  1  0  0  0  0  0  0  0  0
    0.1256    0.5964   -3.2205 N   0  0  0  1  0  0  0  0  0  0  0  0
   -1.1185    0.5762   -2.7151 C   0  0  0  1  0  0  0  0  0  0  0  0
   -1.6043    1.4956   -2.7001 H   0  0  0  1  0  0  0  0  0  0  0  0
   -1.8231   -0.4435   -2.2308 N   0  0  0  1  0  0  0  0  0  0  0  0
   -1.1076   -1.5807   -2.2974 C   0  0  0  1  0  0  0  0  0  0  0  0
    2.0965   -0.6134   -3.8016 N   0  0  0  1  0  0  0  0  0  0  0  0
    2.5410    0.2124   -4.0859 H   0  0  0  1  0  0  0  0  0  0  0  0
    2.5599   -1.4729   -3.8848 H   0  0  0  1  0  0  0  0  0  0  0  0
   -1.0974   -3.9744    0.2774 O   0  0  0  1  0  0  0  0  0  0  0  0
   -0.8339   -4.8975    0.2912 H   0  0  0  1  0  0  0  0  0  0  0  0
   -2.1369   -2.6330    2.0815 O   0  0  0  1  0  0  0  0  0  0  0  0
   -2.1469   -3.3740    3.5446 P   0  0  0  1  0  0  0  0  0  0  0  0
   -3.5468   -3.7464    3.8478 O   0  0  0  1  0  0  0  0  0  0  0  0
   -1.2111   -4.6904    3.4184 O   0  5  0  1  0  0  0  0  0  0  0  0
   -1.5172   -2.3212    4.6026 O   0  5  0  1  0  0  0  0  0  0  0  0
    4.3317   -4.0520    3.4643 C   0  0  0  1  0  0  0  0  0  0  0  0
    5.0719   -4.4011    2.7750 H   0  0  0  1  0  0  0  0  0  0  0  0
    4.6131   -2.5929    3.7723 C   0  0  0  1  0  0  0  0  0  0  0  0
    4.1093   -2.0376    4.7477 O   0  0  0  1  0  0  0  0  0  0  0  0
    5.4366   -1.9649    2.9181 N   0  0  0  1  0  0  0  0  0  0  0  0
    5.8362   -2.4587    2.1719 H   0  0  0  1  0  0  0  0  0  0  0  0
    5.7370   -0.5524    3.0978 C   0  0  0  1  0  0  0  0  0  0  0  0
    6.0137   -0.3771    4.1165 H   0  0  0  1  0  0  0  0  0  0  0  0
    4.8693    0.0264    2.8588 H   0  0  0  1  0  0  0  0  0  0  0  0
    6.8771   -0.1400    2.1928 C   0  0  0  1  0  0  0  0  0  0  0  0
    6.6434   -0.4626    1.1997 H   0  0  0  1  0  0  0  0  0  0  0  0
    7.7627   -0.6365    2.5306 H   0  0  0  1  0  0  0  0  0  0  0  0
    7.1653    1.3550    2.1457 C   0  0  0  1  0  0  0  0  0  0  0  0
    6.4361    2.1645    2.6946 O   0  0  0  1  0  0  0  0  0  0  0  0
    8.2774    1.6705    1.4536 N   0  0  0  1  0  0  0  0  0  0  0  0
    8.7952    0.9652    1.0122 H   0  0  0  1  0  0  0  0  0  0  0  0
    8.7114    3.0564    1.3602 C   0  0  0  1  0  0  0  0  0  0  0  0
    8.0817    3.6557    1.9841 H   0  0  0  1  0  0  0  0  0  0  0  0
    8.6169    3.3775    0.3439 H   0  0  0  1  0  0  0  0  0  0  0  0
   10.1462    3.2453    1.7964 C   0  0  0  1  0  0  0  0  0  0  0  0
   10.4488    4.2545    1.6101 H   0  0  0  1  0  0  0  0  0  0  0  0
   10.7788    2.5763    1.2513 H   0  0  0  1  0  0  0  0  0  0  0  0
   10.2682    2.8910    3.5658 S   0  0  0  1  0  0  0  0  0  0  0  0
    9.6754    4.4097    4.2980 C   0  0  0  1  0  0  0  0  0  0  0  0
    9.2624    5.3479    3.6714 O   0  0  0  1  0  0  0  0  0  0  0  0
    9.9552    4.5229    5.7767 C   0  0  0  1  0  0  0  0  0  0  0  0
   10.5957    5.3660    5.9316 H   0  0  0  1  0  0  0  0  0  0  0  0
   10.4563    3.6312    6.0908 H   0  0  0  1  0  0  0  0  0  0  0  0
    8.7270    4.7005    6.6364 C   0  0  0  1  0  0  0  0  0  0  0  0
    8.4160    5.8528    6.9639 O   0  0  0  1  0  0  0  0  0  0  0  0
    7.9009    3.5884    7.0925 C   0  0  0  1  0  0  0  0  0  0  0  0
    8.1963    2.6412    6.7809 H   0  0  0  1  0  0  0  0  0  0  0  0
    6.8140    3.6401    7.8596 C   0  0  0  1  0  0  0  0  0  0  0  0
    6.5031    4.5790    8.1811 H   0  0  0  1  0  0  0  0  0  0  0  0
    6.0092    2.4739    8.2949 C   0  0  0  1  0  0  0  0  0  0  0  0
    4.8933    2.5687    9.1048 C   0  0  0  1  0  0  0  0  0  0  0  0
    4.5774    3.4982    9.4481 H   0  0  0  1  0  0  0  0  0  0  0  0
    4.1954    1.4248    9.4595 C   0  0  0  1  0  0  0  0  0  0  0  0
    4.6184    0.1890    9.0077 C   0  0  0  1  0  0  0  0  0  0  0  0
    5.7376    0.0941    8.1953 C   0  0  0  1  0  0  0  0  0  0  0  0
    6.0536   -0.8353    7.8520 H   0  0  0  1  0  0  0  0  0  0  0  0
    6.4336    1.2346    7.8416 C   0  0  0  1  0  0  0  0  0  0  0  0
    7.2756    1.1630    7.2354 H   0  0  0  1  0  0  0  0  0  0  0  0
    4.0185   -0.9976    9.2938 O   0  5  0  1  0  0  0  0  0  0  0  0
    3.1027    1.3941   10.2311 O   0  0  0  1  0  0  0  0  0  0  0  0
    2.8647    0.3073   11.1878 C   0  0  0  1  0  0  0  0  0  0  0  0
    2.0356    0.5592   11.8155 H   0  0  0  1  0  0  0  0  0  0  0  0
    3.7376    0.1652   11.7901 H   0  0  0  1  0  0  0  0  0  0  0  0
    2.6474   -0.5950   10.6554 H   0  0  0  1  0  0  0  0  0  0  0  0
    4.3857   -4.8280    4.6599 O   0  0  0  1  0  0  0  0  0  0  0  0
    4.1154   -4.2870    5.4055 H   0  0  0  1  0  0  0  0  0  0  0  0
  1  2  1  0  0  0  0
  1  3  1  0  0  0  0
  1  4  1  0  0  0  0
  1  5  1  0  0  0  0
  5  6  1  0  0  0  0
  5 10  1  0  0  0  0
  5 55  1  0  0  0  0
  6  7  1  0  0  0  0
  6  8  1  0  0  0  0
  6  9  1  0  0  0  0
 10 11  1  0  0  0  0
 10 12  1  0  0  0  0
 10 13  1  0  0  0  0
 13 14  1  0  0  0  0
 14 15  2  0  0  0  0
 14 16  1  0  0  0  0
 14 17  1  0  0  0  0
 17 18  1  0  0  0  0
 18 19  1  0  0  0  0
 18 20  2  0  0  0  0
 18 21  1  0  0  0  0
 21 22  1  0  0  0  0
 22 23  1  0  0  0  0
 22 24  1  0  0  0  0
 22 25  1  0  0  0  0
 25 26  1  0  0  0  0
 25 27  1  0  0  0  0
 25 33  1  0  0  0  0
 27 28  1  0  0  0  0
 27 29  1  0  0  0  0
 27 50  1  0  0  0  0
 29 30  1  0  0  0  0
 29 31  1  0  0  0  0
 29 48  1  0  0  0  0
 31 32  1  0  0  0  0
 31 33  1  0  0  0  0
 31 34  1  0  0  0  0
 34 35  1  0  0  0  0
 34 44  1  0  0  0  0
 35 36  1  0  0  0  0
 35 37  2  0  0  0  0
 37 38  1  0  0  0  0
 38 39  1  0  0  0  0
 38 44  2  0  0  0  0
 39 40  2  0  0  0  0
 39 45  1  0  0  0  0
 40 41  1  0  0  0  0
 41 42  1  0  0  0  0
 41 43  2  0  0  0  0
 43 44  1  0  0  0  0
 45 46  1  0  0  0  0
 45 47  1  0  0  0  0
 48 49  1  0  0  0  0
 50 51  1  0  0  0  0
 51 52  2  0  0  0  0
 51 53  1  0  0  0  0
 51 54  1  0  0  0  0
 55 56  1  0  0  0  0
 55 57  1  0  0  0  0
 55104  1  0  0  0  0
 57 58  2  0  0  0  0
 57 59  1  0  0  0  0
 59 60  1  0  0  0  0
 59 61  1  0  0  0  0
 61 62  1  0  0  0  0
 61 63  1  0  0  0  0
 61 64  1  0  0  0  0
 64 65  1  0  0  0  0
 64 66  1  0  0  0  0
 64 67  1  0  0  0  0
 67 68  2  0  0  0  0
 67 69  1  0  0  0  0
 69 70  1  0  0  0  0
 69 71  1  0  0  0  0
 71 72  1  0  0  0  0
 71 73  1  0  0  0  0
 71 74  1  0  0  0  0
 74 75  1  0  0  0  0
 74 76  1  0  0  0  0
 74 77  1  0  0  0  0
 77 78  1  0  0  0  0
 78 79  2  0  0  0  0
 78 80  1  0  0  0  0
 80 81  1  0  0  0  0
 80 82  1  0  0  0  0
 80 83  1  0  0  0  0
 83 84  2  0  0  0  0
 83 85  1  0  0  0  0
 85 86  1  0  0  0  0
 85 87  2  0  0  0  0
 87 88  1  0  0  0  0
 87 89  1  0  0  0  0
 89 90  2  0  0  0  0
 89 96  1  0  0  0  0
 90 91  1  0  0  0  0
 90 92  1  0  0  0  0
 92 93  2  0  0  0  0
 92 99  1  0  0  0  0
 93 94  1  0  0  0  0
 93 98  1  0  0  0  0
 94 95  1  0  0  0  0
 94 96  2  0  0  0  0
 96 97  1  0  0  0  0
 99100  1  0  0  0  0
100101  1  0  0  0  0
100102  1  0  0  0  0
100103  1  0  0  0  0
104105  1  0  0  0  0
M  BCL ATM C_TeTeTeTe H_S H_S H_S C_TeTeTeTe C_TeTeTeTe H_S H_S H_S C_TeTeTeTe H_S H_S O_Tr2TrTrPi2 P_TeTeTeTePi O_Tr2Tr2TrPi O_Te2Te2Te2Te O_Tr2TrTrPi2 P_TeTeTeTePi O_Te2Te2TeTe O_Tr2Tr2TrPi O_Tr2TrTrPi2 C_TeTeTeTe H_S H_S C_TeTeTeTe H_S C_TeTeTeTe H_S C_TeTeTeTe H_S C_TeTeTeTe H_S O_Te2Te2TeTe N_TrTrTrPi2 C_TrTrTrPi H_S N_Tr2TrTrPi C_TrTrTrPi C_TrTrTrPi N_Tr2TrTrPi C_TrTrTrPi H_S N_Tr2TrTrPi C_TrTrTrPi N_TrTrTrPi2 H_S H_S O_Te2Te2TeTe H_S O_Tr2TrTrPi2 P_TeTeTeTePi O_Tr2Tr2TrPi O_Te2Te2Te2Te O_Te2Te2Te2Te C_TeTeTeTe H_S C_TrTrTrPi O_Tr2Tr2TrPi N_TrTrTrPi2 H_S C_TeTeTeTe H_S H_S C_TeTeTeTe H_S H_S C_TrTrTrPi O_Tr2Tr2TrPi N_TrTrTrPi2 H_S C_TeTeTeTe H_S H_S C_TeTeTeTe H_S H_S S_Te2Te2TeTe C_TrTrTrPi O_Tr2Tr2TrPi C_TeTeTeTe H_S H_S C_TrTrTrPi O_Tr2Tr2TrPi C_TrTrTrPi H_S C_TrTrTrPi H_S C_TrTrTrPi C_TrTrTrPi H_S C_TrTrTrPi C_TrTrTrPi C_TrTrTrPi H_S C_TrTrTrPi H_S O_Te2Te2Te2Te O_Tr2TrTrPi2 C_TeTeTeTe H_S H_S H_S O_Te2Te2TeTe H_S
M  BCL BND NonConjugatedSingleBond NonConjugatedSingleBond NonConjugatedSingleBond NonConjugatedSingleBond NonConjugatedSingleBond NonConjugatedSingleBond NonConjugatedSingleBond NonConjugatedSingleBond NonConjugatedSingleBond NonConjugatedSingleBond NonConjugatedSingleBond NonConjugatedSingleBond NonConjugatedSingleBond ConjugatedSingleBond ConjugatedDoubleBond ConjugatedSingleBond ConjugatedSingleBond ConjugatedSingleBond ConjugatedSingleBond ConjugatedDoubleBond ConjugatedSingleBond NonConjugatedSingleBond NonConjugatedSingleBond NonConjugatedSingleBond NonConjugatedSingleBond NonConjugatedSingleBond NonConjugatedSingleBondInRing NonConjugatedSingleBondInRing NonConjugatedSingleBond NonConjugatedSingleBondInRing NonConjugatedSingleBond NonConjugatedSingleBond NonConjugatedSingleBondInRing NonConjugatedSingleBond NonConjugatedSingleBond NonConjugatedSingleBondInRing NonConjugatedSingleBond AromaticSingleBond AromaticSingleBond NonConjugatedSingleBond AromaticDoubleBond AromaticSingleBond AromaticSingleBond AromaticDoubleBond AromaticDoubleBond ConjugatedSingleBond AromaticSingleBond NonConjugatedSingleBond AromaticDoubleBond AromaticSingleBond NonConjugatedSingleBond NonConjugatedSingleBond NonConjugatedSingleBond ConjugatedSingleBond ConjugatedDoubleBond ConjugatedSingleBond ConjugatedSingleBond NonConjugatedSingleBond NonConjugatedSingleBond NonConjugatedSingleBond ConjugatedDoubleBond AmideSingleBond NonConjugatedSingleBond NonConjugatedSingleBond NonConjugatedSingleBond NonConjugatedSingleBond NonConjugatedSingleBond NonConjugatedSingleBond NonConjugatedSingleBond NonConjugatedSingleBond ConjugatedDoubleBond AmideSingleBond NonConjugatedSingleBond NonConjugatedSingleBond NonConjugatedSingleBond NonConjugatedSingleBond NonConjugatedSingleBond NonConjugatedSingleBond NonConjugatedSingleBond NonConjugatedSingleBond ConjugatedSingleBond ConjugatedDoubleBond NonConjugatedSingleBond NonConjugatedSingleBond NonConjugatedSingleBond NonConjugatedSingleBond ConjugatedDoubleBond ConjugatedSingleBond NonConjugatedSingleBond ConjugatedDoubleBond NonConjugatedSingleBond ConjugatedSingleBond AromaticDoubleBond AromaticSingleBond NonConjugatedSingleBond AromaticSingleBond AromaticDoubleBond ConjugatedSingleBond AromaticSingleBond ConjugatedSingleBond NonConjugatedSingleBond AromaticDoubleBond NonConjugatedSingleBond NonConjugatedSingleBond NonConjugatedSingleBond NonConjugatedSingleBond NonConjugatedSingleBond NonConjugatedSingleBond
M  BCL CHI  14   R  18   S  25   R  27   R  29   R  31   S  55   R
M  BCL DBI - - - - - - - - - - - E - - -
M  END
> <ConfClashScore>
0.000250053 

> <ConfOneFourInteractionScore>
-0.970707 

> <ConfScore>
0.109143 

> <ConfScorePBest>
0.0121115 

> <ConfTolerance>
3.01125 

$$$$
L03.****
  PyMOL2.5          3D                             0

105108  0  0  0  0  0  0  0  0999 V2000
   -6.6088  -11.3732   -0.9668 C   0  0  0  1  0  0  0  0  0  0  0  0
   -6.8146  -10.3358   -1.1291 H   0  0  0  1  0  0  0  0  0  0  0  0
   -7.5292  -11.9031   -0.8369 H   0  0  0  1  0  0  0  0  0  0  0  0
   -6.0849  -11.7690   -1.8117 H   0  0  0  1  0  0  0  0  0  0  0  0
   -5.7455  -11.5332    0.2903 C   0  0  0  1  0  0  0  0  0  0  0  0
   -6.5611  -11.0210    1.4835 C   0  0  0  1  0  0  0  0  0  0  0  0
   -6.0551  -11.2665    2.3938 H   0  0  0  1  0  0  0  0  0  0  0  0
   -7.5276  -11.4800    1.4780 H   0  0  0  1  0  0  0  0  0  0  0  0
   -6.6697   -9.9589    1.4114 H   0  0  0  1  0  0  0  0  0  0  0  0
   -4.5328  -10.7445    0.1473 C   0  0  0  1  0  0  0  0  0  0  0  0
   -3.9612  -10.8308    1.0477 H   0  0  0  1  0  0  0  0  0  0  0  0
   -4.8067   -9.7215   -0.0053 H   0  0  0  1  0  0  0  0  0  0  0  0
   -3.7174  -11.1704   -0.9561 O   0  0  0  1  0  0  0  0  0  0  0  0
   -2.8308  -10.2260   -1.8495 P   0  0  0  1  0  0  0  0  0  0  0  0
   -4.0530   -9.5968   -2.3979 O   0  0  0  1  0  0  0  0  0  0  0  0
   -2.2117  -10.4808   -0.3743 O   0  5  0  1  0  0  0  0  0  0  0  0
   -1.9261   -9.2615   -2.7619 O   0  0  0  1  0  0  0  0  0  0  0  0
   -0.9926   -8.0067   -2.4148 P   0  0  0  1  0  0  0  0  0  0  0  0
   -0.5861   -7.4202   -3.7144 O   0  0  0  0  0  0  0  0  0  0  0  0
   -0.0057   -8.3593   -1.3826 O   0  0  0  1  0  0  0  0  0  0  0  0
   -1.9901   -7.0392   -1.6766 O   0  0  0  1  0  0  0  0  0  0  0  0
   -3.1549   -6.5099   -2.3595 C   0  0  0  1  0  0  0  0  0  0  0  0
   -3.8708   -7.2937   -2.4942 H   0  0  0  1  0  0  0  0  0  0  0  0
   -2.8600   -6.1276   -3.3144 H   0  0  0  1  0  0  0  0  0  0  0  0
   -3.7812   -5.3974   -1.5497 C   0  0  0  1  0  0  0  0  0  0  0  0
   -4.4701   -5.8133   -0.8445 H   0  0  0  1  0  0  0  0  0  0  0  0
   -4.4981   -4.4457   -2.4612 C   0  0  0  1  0  0  0  0  0  0  0  0
   -5.5340   -4.4012   -2.1971 H   0  0  0  1  0  0  0  0  0  0  0  0
   -3.8741   -3.0912   -2.3023 C   0  0  0  1  0  0  0  0  0  0  0  0
   -4.6080   -2.3912   -1.9611 H   0  0  0  1  0  0  0  0  0  0  0  0
   -2.7707   -3.2052   -1.2919 C   0  0  0  1  0  0  0  0  0  0  0  0
   -2.9706   -2.5604   -0.4617 H   0  0  0  1  0  0  0  0  0  0  0  0
   -2.7136   -4.6308   -0.8270 O   0  0  0  1  0  0  0  0  0  0  0  0
   -1.4957   -2.8314   -1.9048 N   0  0  0  1  0  0  0  0  0  0  0  0
   -0.4497   -3.6536   -2.1923 C   0  0  0  1  0  0  0  0  0  0  0  0
   -0.4709   -4.6748   -1.9966 H   0  0  0  1  0  0  0  0  0  0  0  0
    0.5820   -3.0638   -2.7322 N   0  0  0  1  0  0  0  0  0  0  0  0
    0.1883   -1.7376   -2.8205 C   0  0  0  1  0  0  0  0  0  0  0  0
    0.7960   -0.5737   -3.2822 C   0  0  0  1  0  0  0  0  0  0  0  0
    0.1337    0.5869   -3.2265 N   0  0  0  1  0  0  0  0  0  0  0  0
   -1.1037    0.5812   -2.7062 C   0  0  0  1  0  0  0  0  0  0  0  0
   -1.5836    1.5034   -2.6768 H   0  0  0  1  0  0  0  0  0  0  0  0
   -1.7976   -0.4426   -2.2243 N   0  0  0  1  0  0  0  0  0  0  0  0
   -1.1067   -1.5803   -2.3087 C   0  0  0  1  0  0  0  0  0  0  0  0
    2.0670   -0.6167   -3.7914 N   0  0  0  1  0  0  0  0  0  0  0  0
    2.4839    0.1997   -4.1380 H   0  0  0  1  0  0  0  0  0  0  0  0
    2.5594   -1.4638   -3.8091 H   0  0  0  1  0  0  0  0  0  0  0  0
   -3.3423   -2.6527   -3.5533 O   0  0  0  1  0  0  0  0  0  0  0  0
   -4.0163   -2.1687   -4.0361 H   0  0  0  1  0  0  0  0  0  0  0  0
   -4.3675   -4.8890   -3.8363 O   0  0  0  1  0  0  0  0  0  0  0  0
   -5.0853   -4.0630   -5.0577 P   0  0  0  1  0  0  0  0  0  0  0  0
   -6.1107   -3.1202   -4.5576 O   0  0  0  1  0  0  0  0  0  0  0  0
   -3.9341   -3.1728   -5.7695 O   0  5  0  1  0  0  0  0  0  0  0  0
   -5.6482   -5.1760   -6.0915 O   0  5  0  1  0  0  0  0  0  0  0  0
   -5.4268  -13.0177    0.5035 C   0  0  0  1  0  0  0  0  0  0  0  0
   -4.7433  -13.3127   -0.2651 H   0  0  0  1  0  0  0  0  0  0  0  0
   -4.7268  -13.2093    1.8394 C   0  0  0  1  0  0  0  0  0  0  0  0
   -3.6418  -12.6990    2.0646 O   0  0  0  1  0  0  0  0  0  0  0  0
   -5.3743  -13.9621    2.7301 N   0  0  0  1  0  0  0  0  0  0  0  0
   -6.2372  -14.3537    2.4802 H   0  0  0  1  0  0  0  0  0  0  0  0
   -4.8439  -14.2220    4.0602 C   0  0  0  1  0  0  0  0  0  0  0  0
   -3.9045  -14.7227    3.9523 H   0  0  0  1  0  0  0  0  0  0  0  0
   -5.5318  -14.8602    4.5744 H   0  0  0  1  0  0  0  0  0  0  0  0
   -4.6240  -12.9810    4.9096 C   0  0  0  1  0  0  0  0  0  0  0  0
   -4.1659  -12.2359    4.2932 H   0  0  0  1  0  0  0  0  0  0  0  0
   -3.9610  -13.2408    5.7082 H   0  0  0  1  0  0  0  0  0  0  0  0
   -5.8759  -12.3796    5.5181 C   0  0  0  1  0  0  0  0  0  0  0  0
   -6.7844  -11.9653    4.8170 O   0  0  0  1  0  0  0  0  0  0  0  0
   -5.9101  -12.3375    6.8587 N   0  0  0  1  0  0  0  0  0  0  0  0
   -5.1818  -12.7362    7.3792 H   0  0  0  1  0  0  0  0  0  0  0  0
   -7.0265  -11.7008    7.5415 C   0  0  0  1  0  0  0  0  0  0  0  0
   -7.5781  -12.4505    8.0694 H   0  0  0  1  0  0  0  0  0  0  0  0
   -7.6583  -11.2410    6.8106 H   0  0  0  1  0  0  0  0  0  0  0  0
   -6.5756  -10.6399    8.5321 C   0  0  0  1  0  0  0  0  0  0  0  0
   -5.9706  -11.1161    9.2752 H   0  0  0  1  0  0  0  0  0  0  0  0
   -7.4475  -10.2253    8.9935 H   0  0  0  1  0  0  0  0  0  0  0  0
   -5.6196   -9.2805    7.8184 S   0  0  0  1  0  0  0  0  0  0  0  0
   -4.9643   -8.4151    9.2263 C   0  0  0  1  0  0  0  0  0  0  0  0
   -5.1469   -8.7656   10.3705 O   0  0  0  1  0  0  0  0  0  0  0  0
   -4.1600   -7.2016    8.8287 C   0  0  0  1  0  0  0  0  0  0  0  0
   -4.8247   -6.3651    8.7707 H   0  0  0  1  0  0  0  0  0  0  0  0
   -3.7326   -7.3856    7.8652 H   0  0  0  1  0  0  0  0  0  0  0  0
   -3.0436   -6.8503    9.7791 C   0  0  0  1  0  0  0  0  0  0  0  0
   -2.7697   -7.5770   10.7200 O   0  0  0  1  0  0  0  0  0  0  0  0
   -2.2692   -5.6299    9.5882 C   0  0  0  1  0  0  0  0  0  0  0  0
   -1.6584   -5.3266   10.3733 H   0  0  0  1  0  0  0  0  0  0  0  0
   -2.2771   -4.8698    8.4938 C   0  0  0  1  0  0  0  0  0  0  0  0
   -2.8879   -5.1730    7.7087 H   0  0  0  1  0  0  0  0  0  0  0  0
   -1.4902   -3.6298    8.2998 C   0  0  0  1  0  0  0  0  0  0  0  0
   -1.0634   -2.9140    9.4023 C   0  0  0  1  0  0  0  0  0  0  0  0
   -1.2986   -3.2446   10.3599 H   0  0  0  1  0  0  0  0  0  0  0  0
   -0.3220   -1.7553    9.2316 C   0  0  0  1  0  0  0  0  0  0  0  0
   -0.0140   -1.3129    7.9589 C   0  0  0  1  0  0  0  0  0  0  0  0
   -0.4421   -2.0310    6.8532 C   0  0  0  1  0  0  0  0  0  0  0  0
   -0.2070   -1.7004    5.8956 H   0  0  0  1  0  0  0  0  0  0  0  0
   -1.1814   -3.1864    7.0233 C   0  0  0  1  0  0  0  0  0  0  0  0
   -1.5060   -3.7229    6.1936 H   0  0  0  1  0  0  0  0  0  0  0  0
    0.7067   -0.1783    7.7515 O   0  5  0  1  0  0  0  0  0  0  0  0
    0.1535   -0.9762   10.2320 O   0  0  0  1  0  0  0  0  0  0  0  0
   -0.3418   -1.2327   11.5555 C   0  0  0  1  0  0  0  0  0  0  0  0
    0.3644   -0.8769   12.2763 H   0  0  0  1  0  0  0  0  0  0  0  0
   -0.4838   -2.2853   11.6851 H   0  0  0  1  0  0  0  0  0  0  0  0
   -1.2749   -0.7270   11.6910 H   0  0  0  1  0  0  0  0  0  0  0  0
   -6.6197  -13.7648    0.3696 O   0  0  0  1  0  0  0  0  0  0  0  0
   -6.5789  -14.2928   -0.4311 H   0  0  0  1  0  0  0  0  0  0  0  0
  1  2  1  0  0  0  0
  1  3  1  0  0  0  0
  1  4  1  0  0  0  0
  1  5  1  0  0  0  0
  5  6  1  0  0  0  0
  5 10  1  0  0  0  0
  5 55  1  0  0  0  0
  6  7  1  0  0  0  0
  6  8  1  0  0  0  0
  6  9  1  0  0  0  0
 10 11  1  0  0  0  0
 10 12  1  0  0  0  0
 10 13  1  0  0  0  0
 13 14  1  0  0  0  0
 14 15  2  0  0  0  0
 14 16  1  0  0  0  0
 14 17  1  0  0  0  0
 17 18  1  0  0  0  0
 18 19  1  0  0  0  0
 18 20  2  0  0  0  0
 18 21  1  0  0  0  0
 21 22  1  0  0  0  0
 22 23  1  0  0  0  0
 22 24  1  0  0  0  0
 22 25  1  0  0  0  0
 25 26  1  0  0  0  0
 25 27  1  0  0  0  0
 25 33  1  0  0  0  0
 27 28  1  0  0  0  0
 27 29  1  0  0  0  0
 27 50  1  0  0  0  0
 29 30  1  0  0  0  0
 29 31  1  0  0  0  0
 29 48  1  0  0  0  0
 31 32  1  0  0  0  0
 31 33  1  0  0  0  0
 31 34  1  0  0  0  0
 34 35  1  0  0  0  0
 34 44  1  0  0  0  0
 35 36  1  0  0  0  0
 35 37  2  0  0  0  0
 37 38  1  0  0  0  0
 38 39  1  0  0  0  0
 38 44  2  0  0  0  0
 39 40  2  0  0  0  0
 39 45  1  0  0  0  0
 40 41  1  0  0  0  0
 41 42  1  0  0  0  0
 41 43  2  0  0  0  0
 43 44  1  0  0  0  0
 45 46  1  0  0  0  0
 45 47  1  0  0  0  0
 48 49  1  0  0  0  0
 50 51  1  0  0  0  0
 51 52  2  0  0  0  0
 51 53  1  0  0  0  0
 51 54  1  0  0  0  0
 55 56  1  0  0  0  0
 55 57  1  0  0  0  0
 55104  1  0  0  0  0
 57 58  2  0  0  0  0
 57 59  1  0  0  0  0
 59 60  1  0  0  0  0
 59 61  1  0  0  0  0
 61 62  1  0  0  0  0
 61 63  1  0  0  0  0
 61 64  1  0  0  0  0
 64 65  1  0  0  0  0
 64 66  1  0  0  0  0
 64 67  1  0  0  0  0
 67 68  2  0  0  0  0
 67 69  1  0  0  0  0
 69 70  1  0  0  0  0
 69 71  1  0  0  0  0
 71 72  1  0  0  0  0
 71 73  1  0  0  0  0
 71 74  1  0  0  0  0
 74 75  1  0  0  0  0
 74 76  1  0  0  0  0
 74 77  1  0  0  0  0
 77 78  1  0  0  0  0
 78 79  2  0  0  0  0
 78 80  1  0  0  0  0
 80 81  1  0  0  0  0
 80 82  1  0  0  0  0
 80 83  1  0  0  0  0
 83 84  2  0  0  0  0
 83 85  1  0  0  0  0
 85 86  1  0  0  0  0
 85 87  2  0  0  0  0
 87 88  1  0  0  0  0
 87 89  1  0  0  0  0
 89 90  2  0  0  0  0
 89 96  1  0  0  0  0
 90 91  1  0  0  0  0
 90 92  1  0  0  0  0
 92 93  2  0  0  0  0
 92 99  1  0  0  0  0
 93 94  1  0  0  0  0
 93 98  1  0  0  0  0
 94 95  1  0  0  0  0
 94 96  2  0  0  0  0
 96 97  1  0  0  0  0
 99100  1  0  0  0  0
100101  1  0  0  0  0
100102  1  0  0  0  0
100103  1  0  0  0  0
104105  1  0  0  0  0
M  BCL ATM C_TeTeTeTe H_S H_S H_S C_TeTeTeTe C_TeTeTeTe H_S H_S H_S C_TeTeTeTe H_S H_S O_Tr2TrTrPi2 P_TeTeTeTePi O_Tr2Tr2TrPi O_Te2Te2Te2Te O_Tr2TrTrPi2 P_TeTeTeTePi O_Te2Te2TeTe O_Tr2Tr2TrPi O_Tr2TrTrPi2 C_TeTeTeTe H_S H_S C_TeTeTeTe H_S C_TeTeTeTe H_S C_TeTeTeTe H_S C_TeTeTeTe H_S O_Te2Te2TeTe N_TrTrTrPi2 C_TrTrTrPi H_S N_Tr2TrTrPi C_TrTrTrPi C_TrTrTrPi N_Tr2TrTrPi C_TrTrTrPi H_S N_Tr2TrTrPi C_TrTrTrPi N_TrTrTrPi2 H_S H_S O_Te2Te2TeTe H_S O_Tr2TrTrPi2 P_TeTeTeTePi O_Tr2Tr2TrPi O_Te2Te2Te2Te O_Te2Te2Te2Te C_TeTeTeTe H_S C_TrTrTrPi O_Tr2Tr2TrPi N_TrTrTrPi2 H_S C_TeTeTeTe H_S H_S C_TeTeTeTe H_S H_S C_TrTrTrPi O_Tr2Tr2TrPi N_TrTrTrPi2 H_S C_TeTeTeTe H_S H_S C_TeTeTeTe H_S H_S S_Te2Te2TeTe C_TrTrTrPi O_Tr2Tr2TrPi C_TeTeTeTe H_S H_S C_TrTrTrPi O_Tr2Tr2TrPi C_TrTrTrPi H_S C_TrTrTrPi H_S C_TrTrTrPi C_TrTrTrPi H_S C_TrTrTrPi C_TrTrTrPi C_TrTrTrPi H_S C_TrTrTrPi H_S O_Te2Te2Te2Te O_Tr2TrTrPi2 C_TeTeTeTe H_S H_S H_S O_Te2Te2TeTe H_S
M  BCL BND NonConjugatedSingleBond NonConjugatedSingleBond NonConjugatedSingleBond NonConjugatedSingleBond NonConjugatedSingleBond NonConjugatedSingleBond NonConjugatedSingleBond NonConjugatedSingleBond NonConjugatedSingleBond NonConjugatedSingleBond NonConjugatedSingleBond NonConjugatedSingleBond NonConjugatedSingleBond ConjugatedSingleBond ConjugatedDoubleBond ConjugatedSingleBond ConjugatedSingleBond ConjugatedSingleBond ConjugatedSingleBond ConjugatedDoubleBond ConjugatedSingleBond NonConjugatedSingleBond NonConjugatedSingleBond NonConjugatedSingleBond NonConjugatedSingleBond NonConjugatedSingleBond NonConjugatedSingleBondInRing NonConjugatedSingleBondInRing NonConjugatedSingleBond NonConjugatedSingleBondInRing NonConjugatedSingleBond NonConjugatedSingleBond NonConjugatedSingleBondInRing NonConjugatedSingleBond NonConjugatedSingleBond NonConjugatedSingleBondInRing NonConjugatedSingleBond AromaticSingleBond AromaticSingleBond NonConjugatedSingleBond AromaticDoubleBond AromaticSingleBond AromaticSingleBond AromaticDoubleBond AromaticDoubleBond ConjugatedSingleBond AromaticSingleBond NonConjugatedSingleBond AromaticDoubleBond AromaticSingleBond NonConjugatedSingleBond NonConjugatedSingleBond NonConjugatedSingleBond ConjugatedSingleBond ConjugatedDoubleBond ConjugatedSingleBond ConjugatedSingleBond NonConjugatedSingleBond NonConjugatedSingleBond NonConjugatedSingleBond ConjugatedDoubleBond AmideSingleBond NonConjugatedSingleBond NonConjugatedSingleBond NonConjugatedSingleBond NonConjugatedSingleBond NonConjugatedSingleBond NonConjugatedSingleBond NonConjugatedSingleBond NonConjugatedSingleBond ConjugatedDoubleBond AmideSingleBond NonConjugatedSingleBond NonConjugatedSingleBond NonConjugatedSingleBond NonConjugatedSingleBond NonConjugatedSingleBond NonConjugatedSingleBond NonConjugatedSingleBond NonConjugatedSingleBond ConjugatedSingleBond ConjugatedDoubleBond NonConjugatedSingleBond NonConjugatedSingleBond NonConjugatedSingleBond NonConjugatedSingleBond ConjugatedDoubleBond ConjugatedSingleBond NonConjugatedSingleBond ConjugatedDoubleBond NonConjugatedSingleBond ConjugatedSingleBond AromaticDoubleBond AromaticSingleBond NonConjugatedSingleBond AromaticSingleBond AromaticDoubleBond ConjugatedSingleBond AromaticSingleBond ConjugatedSingleBond NonConjugatedSingleBond AromaticDoubleBond NonConjugatedSingleBond NonConjugatedSingleBond NonConjugatedSingleBond NonConjugatedSingleBond NonConjugatedSingleBond NonConjugatedSingleBond
M  BCL CHI  14   R  18   S  25   R  27   R  29   R  31   S  55   R
M  BCL DBI - - - - - - - - - - - E - - -
M  END
> <ConfClashScore>
0 

> <ConfOneFourInteractionScore>
-0.975663 

> <ConfScore>
0.110084 

> <ConfScorePBest>
0.0120085 

> <ConfTolerance>
2.17646 

$$$$
L03.****
  PyMOL2.5          3D                             0

105108  0  0  0  0  0  0  0  0999 V2000
    3.7396   -6.6176   -4.5063 C   0  0  0  1  0  0  0  0  0  0  0  0
    3.7099   -7.0525   -5.4835 H   0  0  0  1  0  0  0  0  0  0  0  0
    4.4912   -7.1056   -3.9217 H   0  0  0  1  0  0  0  0  0  0  0  0
    3.9701   -5.5758   -4.5868 H   0  0  0  1  0  0  0  0  0  0  0  0
    2.3747   -6.7878   -3.8286 C   0  0  0  1  0  0  0  0  0  0  0  0
    1.3005   -6.1362   -4.7076 C   0  0  0  1  0  0  0  0  0  0  0  0
    0.4443   -5.9016   -4.1103 H   0  0  0  1  0  0  0  0  0  0  0  0
    1.0173   -6.8139   -5.4857 H   0  0  0  1  0  0  0  0  0  0  0  0
    1.6901   -5.2385   -5.1401 H   0  0  0  1  0  0  0  0  0  0  0  0
    2.3938   -6.1043   -2.5210 C   0  0  0  1  0  0  0  0  0  0  0  0
    2.8038   -5.1235   -2.6421 H   0  0  0  1  0  0  0  0  0  0  0  0
    3.0007   -6.6636   -1.8399 H   0  0  0  1  0  0  0  0  0  0  0  0
    1.0531   -5.9976   -1.9872 O   0  0  0  1  0  0  0  0  0  0  0  0
    0.7345   -6.6825   -0.6068 P   0  0  0  1  0  0  0  0  0  0  0  0
    1.6186   -7.8144   -0.9640 O   0  0  0  1  0  0  0  0  0  0  0  0
    0.8844   -5.0727   -0.5049 O   0  5  0  1  0  0  0  0  0  0  0  0
    0.4096   -7.3822    0.8025 O   0  0  0  1  0  0  0  0  0  0  0  0
   -0.6063   -7.0012    2.0034 P   0  0  0  1  0  0  0  0  0  0  0  0
    0.1511   -6.2545    3.0562 O   0  0  0  0  0  0  0  0  0  0  0  0
   -1.2940   -8.2624    2.3307 O   0  0  0  1  0  0  0  0  0  0  0  0
   -1.5646   -5.9282    1.3839 O   0  0  0  1  0  0  0  0  0  0  0  0
   -2.5122   -6.1694    0.3172 C   0  0  0  1  0  0  0  0  0  0  0  0
   -3.1249   -7.0129    0.5580 H   0  0  0  1  0  0  0  0  0  0  0  0
   -1.9906   -6.3565   -0.5981 H   0  0  0  1  0  0  0  0  0  0  0  0
   -3.3693   -4.9343    0.1775 C   0  0  0  1  0  0  0  0  0  0  0  0
   -3.9708   -4.8159    1.0545 H   0  0  0  1  0  0  0  0  0  0  0  0
   -4.2638   -5.0516   -1.0627 C   0  0  0  1  0  0  0  0  0  0  0  0
   -5.2303   -4.6304   -0.8800 H   0  0  0  1  0  0  0  0  0  0  0  0
   -3.5020   -4.2426   -2.1204 C   0  0  0  1  0  0  0  0  0  0  0  0
   -4.1738   -3.7768   -2.8108 H   0  0  0  1  0  0  0  0  0  0  0  0
   -2.7685   -3.1946   -1.2609 C   0  0  0  1  0  0  0  0  0  0  0  0
   -3.3767   -2.3210   -1.1528 H   0  0  0  1  0  0  0  0  0  0  0  0
   -2.5318   -3.7659   -0.0134 O   0  0  0  1  0  0  0  0  0  0  0  0
   -1.4995   -2.8312   -1.8923 N   0  0  0  1  0  0  0  0  0  0  0  0
   -0.4582   -3.6732   -2.1997 C   0  0  0  1  0  0  0  0  0  0  0  0
   -0.4840   -4.6986   -2.0279 H   0  0  0  1  0  0  0  0  0  0  0  0
    0.5754   -3.0561   -2.7329 N   0  0  0  1  0  0  0  0  0  0  0  0
    0.1769   -1.7284   -2.8001 C   0  0  0  1  0  0  0  0  0  0  0  0
    0.8090   -0.5653   -3.2784 C   0  0  0  1  0  0  0  0  0  0  0  0
    0.1279    0.5974   -3.2149 N   0  0  0  1  0  0  0  0  0  0  0  0
   -1.1160    0.5774   -2.7090 C   0  0  0  1  0  0  0  0  0  0  0  0
   -1.6006    1.4974   -2.6910 H   0  0  0  1  0  0  0  0  0  0  0  0
   -1.8216   -0.4428   -2.2272 N   0  0  0  1  0  0  0  0  0  0  0  0
   -1.1076   -1.5807   -2.2974 C   0  0  0  1  0  0  0  0  0  0  0  0
    2.0969   -0.6132   -3.8006 N   0  0  0  1  0  0  0  0  0  0  0  0
    2.5089    0.1983   -4.1640 H   0  0  0  1  0  0  0  0  0  0  0  0
    2.5927   -1.4586   -3.8052 H   0  0  0  1  0  0  0  0  0  0  0  0
   -2.5782   -5.0647   -2.8351 O   0  0  0  1  0  0  0  0  0  0  0  0
   -1.9792   -5.4873   -2.2152 H   0  0  0  1  0  0  0  0  0  0  0  0
   -4.4079   -6.4326   -1.4699 O   0  0  0  1  0  0  0  0  0  0  0  0
   -5.6907   -6.9140   -2.3712 P   0  0  0  1  0  0  0  0  0  0  0  0
   -6.9498   -6.6683   -1.6331 O   0  0  0  1  0  0  0  0  0  0  0  0
   -5.5880   -6.1937   -3.8186 O   0  5  0  1  0  0  0  0  0  0  0  0
   -5.4910   -8.4991   -2.6393 O   0  5  0  1  0  0  0  0  0  0  0  0
    2.1303   -8.2873   -3.6508 C   0  0  0  1  0  0  0  0  0  0  0  0
    1.2146   -8.3895   -3.1068 H   0  0  0  1  0  0  0  0  0  0  0  0
    1.9303   -8.9639   -4.9854 C   0  0  0  1  0  0  0  0  0  0  0  0
    0.8295   -8.9628   -5.5347 O   0  0  0  1  0  0  0  0  0  0  0  0
    2.9829   -9.5623   -5.5502 N   0  0  0  1  0  0  0  0  0  0  0  0
    3.7917   -9.7013   -5.0144 H   0  0  0  1  0  0  0  0  0  0  0  0
    2.9702  -10.0149   -6.9332 C   0  0  0  1  0  0  0  0  0  0  0  0
    3.9604   -9.9323   -7.3301 H   0  0  0  1  0  0  0  0  0  0  0  0
    2.3075   -9.3884   -7.4929 H   0  0  0  1  0  0  0  0  0  0  0  0
    2.5083  -11.4598   -7.0708 C   0  0  0  1  0  0  0  0  0  0  0  0
    3.0536  -12.0596   -6.3724 H   0  0  0  1  0  0  0  0  0  0  0  0
    2.7182  -11.7911   -8.0663 H   0  0  0  1  0  0  0  0  0  0  0  0
    1.0367  -11.6361   -6.8074 C   0  0  0  1  0  0  0  0  0  0  0  0
    0.2100  -10.8105   -7.1500 O   0  0  0  1  0  0  0  0  0  0  0  0
    0.6174  -12.7359   -6.1754 N   0  0  0  1  0  0  0  0  0  0  0  0
    1.2774  -13.4110   -5.9125 H   0  0  0  1  0  0  0  0  0  0  0  0
   -0.7853  -12.9664   -5.8637 C   0  0  0  1  0  0  0  0  0  0  0  0
   -0.8835  -13.9357   -5.4214 H   0  0  0  1  0  0  0  0  0  0  0  0
   -1.3490  -12.9296   -6.7724 H   0  0  0  1  0  0  0  0  0  0  0  0
   -1.3428  -11.9384   -4.9060 C   0  0  0  1  0  0  0  0  0  0  0  0
   -2.3006  -11.6309   -5.2708 H   0  0  0  1  0  0  0  0  0  0  0  0
   -0.6782  -11.0999   -4.8963 H   0  0  0  1  0  0  0  0  0  0  0  0
   -1.5485  -12.5072   -3.2084 S   0  0  0  1  0  0  0  0  0  0  0  0
   -3.3222  -12.4658   -3.1579 C   0  0  0  1  0  0  0  0  0  0  0  0
   -3.9542  -12.0660   -4.0981 O   0  0  0  1  0  0  0  0  0  0  0  0
   -3.9508  -12.9586   -1.8773 C   0  0  0  1  0  0  0  0  0  0  0  0
   -3.2055  -13.4657   -1.3008 H   0  0  0  1  0  0  0  0  0  0  0  0
   -4.7390  -13.6400   -2.1207 H   0  0  0  1  0  0  0  0  0  0  0  0
   -4.5202  -11.8330   -1.0516 C   0  0  0  1  0  0  0  0  0  0  0  0
   -3.9697  -10.7445   -1.0294 O   0  0  0  1  0  0  0  0  0  0  0  0
   -5.7379  -12.0677   -0.2817 C   0  0  0  1  0  0  0  0  0  0  0  0
   -6.1350  -11.2414    0.2094 H   0  0  0  1  0  0  0  0  0  0  0  0
   -6.4019  -13.2132   -0.1324 C   0  0  0  1  0  0  0  0  0  0  0  0
   -5.9852  -14.0241   -0.6327 H   0  0  0  1  0  0  0  0  0  0  0  0
   -7.6348  -13.5241    0.6277 C   0  0  0  1  0  0  0  0  0  0  0  0
   -8.3730  -12.4943    1.1797 C   0  0  0  1  0  0  0  0  0  0  0  0
   -8.0596  -11.5095    1.0636 H   0  0  0  1  0  0  0  0  0  0  0  0
   -9.5311  -12.7743    1.8882 C   0  0  0  1  0  0  0  0  0  0  0  0
   -9.9447  -14.0834    2.0471 C   0  0  0  1  0  0  0  0  0  0  0  0
   -9.2042  -15.1162    1.4934 C   0  0  0  1  0  0  0  0  0  0  0  0
   -9.5176  -16.1010    1.6095 H   0  0  0  1  0  0  0  0  0  0  0  0
   -8.0495  -14.8372    0.7869 C   0  0  0  1  0  0  0  0  0  0  0  0
   -7.4918  -15.6123    0.3749 H   0  0  0  1  0  0  0  0  0  0  0  0
  -11.0568  -14.4774    2.7236 O   0  5  0  1  0  0  0  0  0  0  0  0
  -10.3449  -11.8419    2.4739 O   0  0  0  1  0  0  0  0  0  0  0  0
   -9.8489  -10.4967    2.5558 C   0  0  0  1  0  0  0  0  0  0  0  0
   -9.4404  -10.2084    1.6098 H   0  0  0  1  0  0  0  0  0  0  0  0
   -9.0864  -10.4429    3.3046 H   0  0  0  1  0  0  0  0  0  0  0  0
  -10.6503   -9.8364    2.8141 H   0  0  0  1  0  0  0  0  0  0  0  0
    3.1683   -8.8963   -2.8890 O   0  0  0  1  0  0  0  0  0  0  0  0
    3.2126   -8.4859   -2.0222 H   0  0  0  1  0  0  0  0  0  0  0  0
  1  2  1  0  0  0  0
  1  3  1  0  0  0  0
  1  4  1  0  0  0  0
  1  5  1  0  0  0  0
  5  6  1  0  0  0  0
  5 10  1  0  0  0  0
  5 55  1  0  0  0  0
  6  7  1  0  0  0  0
  6  8  1  0  0  0  0
  6  9  1  0  0  0  0
 10 11  1  0  0  0  0
 10 12  1  0  0  0  0
 10 13  1  0  0  0  0
 13 14  1  0  0  0  0
 14 15  2  0  0  0  0
 14 16  1  0  0  0  0
 14 17  1  0  0  0  0
 17 18  1  0  0  0  0
 18 19  1  0  0  0  0
 18 20  2  0  0  0  0
 18 21  1  0  0  0  0
 21 22  1  0  0  0  0
 22 23  1  0  0  0  0
 22 24  1  0  0  0  0
 22 25  1  0  0  0  0
 25 26  1  0  0  0  0
 25 27  1  0  0  0  0
 25 33  1  0  0  0  0
 27 28  1  0  0  0  0
 27 29  1  0  0  0  0
 27 50  1  0  0  0  0
 29 30  1  0  0  0  0
 29 31  1  0  0  0  0
 29 48  1  0  0  0  0
 31 32  1  0  0  0  0
 31 33  1  0  0  0  0
 31 34  1  0  0  0  0
 34 35  1  0  0  0  0
 34 44  1  0  0  0  0
 35 36  1  0  0  0  0
 35 37  2  0  0  0  0
 37 38  1  0  0  0  0
 38 39  1  0  0  0  0
 38 44  2  0  0  0  0
 39 40  2  0  0  0  0
 39 45  1  0  0  0  0
 40 41  1  0  0  0  0
 41 42  1  0  0  0  0
 41 43  2  0  0  0  0
 43 44  1  0  0  0  0
 45 46  1  0  0  0  0
 45 47  1  0  0  0  0
 48 49  1  0  0  0  0
 50 51  1  0  0  0  0
 51 52  2  0  0  0  0
 51 53  1  0  0  0  0
 51 54  1  0  0  0  0
 55 56  1  0  0  0  0
 55 57  1  0  0  0  0
 55104  1  0  0  0  0
 57 58  2  0  0  0  0
 57 59  1  0  0  0  0
 59 60  1  0  0  0  0
 59 61  1  0  0  0  0
 61 62  1  0  0  0  0
 61 63  1  0  0  0  0
 61 64  1  0  0  0  0
 64 65  1  0  0  0  0
 64 66  1  0  0  0  0
 64 67  1  0  0  0  0
 67 68  2  0  0  0  0
 67 69  1  0  0  0  0
 69 70  1  0  0  0  0
 69 71  1  0  0  0  0
 71 72  1  0  0  0  0
 71 73  1  0  0  0  0
 71 74  1  0  0  0  0
 74 75  1  0  0  0  0
 74 76  1  0  0  0  0
 74 77  1  0  0  0  0
 77 78  1  0  0  0  0
 78 79  2  0  0  0  0
 78 80  1  0  0  0  0
 80 81  1  0  0  0  0
 80 82  1  0  0  0  0
 80 83  1  0  0  0  0
 83 84  2  0  0  0  0
 83 85  1  0  0  0  0
 85 86  1  0  0  0  0
 85 87  2  0  0  0  0
 87 88  1  0  0  0  0
 87 89  1  0  0  0  0
 89 90  2  0  0  0  0
 89 96  1  0  0  0  0
 90 91  1  0  0  0  0
 90 92  1  0  0  0  0
 92 93  2  0  0  0  0
 92 99  1  0  0  0  0
 93 94  1  0  0  0  0
 93 98  1  0  0  0  0
 94 95  1  0  0  0  0
 94 96  2  0  0  0  0
 96 97  1  0  0  0  0
 99100  1  0  0  0  0
100101  1  0  0  0  0
100102  1  0  0  0  0
100103  1  0  0  0  0
104105  1  0  0  0  0
M  BCL ATM C_TeTeTeTe H_S H_S H_S C_TeTeTeTe C_TeTeTeTe H_S H_S H_S C_TeTeTeTe H_S H_S O_Tr2TrTrPi2 P_TeTeTeTePi O_Tr2Tr2TrPi O_Te2Te2Te2Te O_Tr2TrTrPi2 P_TeTeTeTePi O_Te2Te2TeTe O_Tr2Tr2TrPi O_Tr2TrTrPi2 C_TeTeTeTe H_S H_S C_TeTeTeTe H_S C_TeTeTeTe H_S C_TeTeTeTe H_S C_TeTeTeTe H_S O_Te2Te2TeTe N_TrTrTrPi2 C_TrTrTrPi H_S N_Tr2TrTrPi C_TrTrTrPi C_TrTrTrPi N_Tr2TrTrPi C_TrTrTrPi H_S N_Tr2TrTrPi C_TrTrTrPi N_TrTrTrPi2 H_S H_S O_Te2Te2TeTe H_S O_Tr2TrTrPi2 P_TeTeTeTePi O_Tr2Tr2TrPi O_Te2Te2Te2Te O_Te2Te2Te2Te C_TeTeTeTe H_S C_TrTrTrPi O_Tr2Tr2TrPi N_TrTrTrPi2 H_S C_TeTeTeTe H_S H_S C_TeTeTeTe H_S H_S C_TrTrTrPi O_Tr2Tr2TrPi N_TrTrTrPi2 H_S C_TeTeTeTe H_S H_S C_TeTeTeTe H_S H_S S_Te2Te2TeTe C_TrTrTrPi O_Tr2Tr2TrPi C_TeTeTeTe H_S H_S C_TrTrTrPi O_Tr2Tr2TrPi C_TrTrTrPi H_S C_TrTrTrPi H_S C_TrTrTrPi C_TrTrTrPi H_S C_TrTrTrPi C_TrTrTrPi C_TrTrTrPi H_S C_TrTrTrPi H_S O_Te2Te2Te2Te O_Tr2TrTrPi2 C_TeTeTeTe H_S H_S H_S O_Te2Te2TeTe H_S
M  BCL BND NonConjugatedSingleBond NonConjugatedSingleBond NonConjugatedSingleBond NonConjugatedSingleBond NonConjugatedSingleBond NonConjugatedSingleBond NonConjugatedSingleBond NonConjugatedSingleBond NonConjugatedSingleBond NonConjugatedSingleBond NonConjugatedSingleBond NonConjugatedSingleBond NonConjugatedSingleBond ConjugatedSingleBond ConjugatedDoubleBond ConjugatedSingleBond ConjugatedSingleBond ConjugatedSingleBond ConjugatedSingleBond ConjugatedDoubleBond ConjugatedSingleBond NonConjugatedSingleBond NonConjugatedSingleBond NonConjugatedSingleBond NonConjugatedSingleBond NonConjugatedSingleBond NonConjugatedSingleBondInRing NonConjugatedSingleBondInRing NonConjugatedSingleBond NonConjugatedSingleBondInRing NonConjugatedSingleBond NonConjugatedSingleBond NonConjugatedSingleBondInRing NonConjugatedSingleBond NonConjugatedSingleBond NonConjugatedSingleBondInRing NonConjugatedSingleBond AromaticSingleBond AromaticSingleBond NonConjugatedSingleBond AromaticDoubleBond AromaticSingleBond AromaticSingleBond AromaticDoubleBond AromaticDoubleBond ConjugatedSingleBond AromaticSingleBond NonConjugatedSingleBond AromaticDoubleBond AromaticSingleBond NonConjugatedSingleBond NonConjugatedSingleBond NonConjugatedSingleBond ConjugatedSingleBond ConjugatedDoubleBond ConjugatedSingleBond ConjugatedSingleBond NonConjugatedSingleBond NonConjugatedSingleBond NonConjugatedSingleBond ConjugatedDoubleBond AmideSingleBond NonConjugatedSingleBond NonConjugatedSingleBond NonConjugatedSingleBond NonConjugatedSingleBond NonConjugatedSingleBond NonConjugatedSingleBond NonConjugatedSingleBond NonConjugatedSingleBond ConjugatedDoubleBond AmideSingleBond NonConjugatedSingleBond NonConjugatedSingleBond NonConjugatedSingleBond NonConjugatedSingleBond NonConjugatedSingleBond NonConjugatedSingleBond NonConjugatedSingleBond NonConjugatedSingleBond ConjugatedSingleBond ConjugatedDoubleBond NonConjugatedSingleBond NonConjugatedSingleBond NonConjugatedSingleBond NonConjugatedSingleBond ConjugatedDoubleBond ConjugatedSingleBond NonConjugatedSingleBond ConjugatedDoubleBond NonConjugatedSingleBond ConjugatedSingleBond AromaticDoubleBond AromaticSingleBond NonConjugatedSingleBond AromaticSingleBond AromaticDoubleBond ConjugatedSingleBond AromaticSingleBond ConjugatedSingleBond NonConjugatedSingleBond AromaticDoubleBond NonConjugatedSingleBond NonConjugatedSingleBond NonConjugatedSingleBond NonConjugatedSingleBond NonConjugatedSingleBond NonConjugatedSingleBond
M  BCL CHI  14   R  18   S  25   R  27   R  29   R  31   S  55   R
M  BCL DBI - - - - - - - - - - - E - - -
M  END
> <ConfClashScore>
0 

> <ConfOneFourInteractionScore>
-0.974874 

> <ConfScore>
0.11305 

> <ConfScorePBest>
0.0119055 

> <ConfTolerance>
2.95279 

$$$$
L03.****
  PyMOL2.5          3D                             0

105108  0  0  0  0  0  0  0  0999 V2000
   -5.7908   -7.8170  -11.0580 C   0  0  0  1  0  0  0  0  0  0  0  0
   -4.9131   -7.3331  -10.6833 H   0  0  0  1  0  0  0  0  0  0  0  0
   -6.5986   -7.1160  -11.0889 H   0  0  0  1  0  0  0  0  0  0  0  0
   -5.6007   -8.1866  -12.0440 H   0  0  0  1  0  0  0  0  0  0  0  0
   -6.1636   -8.9855  -10.1377 C   0  0  0  1  0  0  0  0  0  0  0  0
   -7.6551   -9.3129  -10.2896 C   0  0  0  1  0  0  0  0  0  0  0  0
   -8.1570   -9.1313   -9.3623 H   0  0  0  1  0  0  0  0  0  0  0  0
   -7.7683  -10.3418  -10.5606 H   0  0  0  1  0  0  0  0  0  0  0  0
   -8.0800   -8.6940  -11.0520 H   0  0  0  1  0  0  0  0  0  0  0  0
   -5.8762   -8.6117   -8.7207 C   0  0  0  1  0  0  0  0  0  0  0  0
   -4.8239   -8.4712   -8.5871 H   0  0  0  1  0  0  0  0  0  0  0  0
   -6.2198   -9.3831   -8.0635 H   0  0  0  1  0  0  0  0  0  0  0  0
   -6.5776   -7.3774   -8.4410 O   0  0  0  1  0  0  0  0  0  0  0  0
   -6.5733   -6.9035   -6.9405 P   0  0  0  1  0  0  0  0  0  0  0  0
   -5.1737   -6.4457   -7.0888 O   0  0  0  1  0  0  0  0  0  0  0  0
   -7.9781   -6.6244   -7.6975 O   0  5  0  1  0  0  0  0  0  0  0  0
   -6.5684   -6.4162   -5.3980 O   0  0  0  1  0  0  0  0  0  0  0  0
   -7.0433   -4.9957   -4.9016 P   0  0  0  1  0  0  0  0  0  0  0  0
   -8.5485   -4.9032   -4.8873 O   0  0  0  0  0  0  0  0  0  0  0  0
   -6.3337   -4.0478   -5.7680 O   0  0  0  1  0  0  0  0  0  0  0  0
   -6.3684   -4.9331   -3.4815 O   0  0  0  1  0  0  0  0  0  0  0  0
   -4.9257   -4.9777   -3.3413 C   0  0  0  1  0  0  0  0  0  0  0  0
   -4.4708   -4.3062   -4.0392 H   0  0  0  1  0  0  0  0  0  0  0  0
   -4.5728   -5.9719   -3.5204 H   0  0  0  1  0  0  0  0  0  0  0  0
   -4.5878   -4.5575   -1.9256 C   0  0  0  1  0  0  0  0  0  0  0  0
   -5.0194   -5.2511   -1.2345 H   0  0  0  1  0  0  0  0  0  0  0  0
   -5.1324   -3.1458   -1.6565 C   0  0  0  1  0  0  0  0  0  0  0  0
   -5.5795   -3.0834   -0.6864 H   0  0  0  1  0  0  0  0  0  0  0  0
   -3.8715   -2.2752   -1.7412 C   0  0  0  1  0  0  0  0  0  0  0  0
   -3.9457   -1.4304   -1.0888 H   0  0  0  1  0  0  0  0  0  0  0  0
   -2.7685   -3.2072   -1.2948 C   0  0  0  1  0  0  0  0  0  0  0  0
   -2.6700   -3.1949   -0.2294 H   0  0  0  1  0  0  0  0  0  0  0  0
   -3.1984   -4.5231   -1.7590 O   0  0  0  1  0  0  0  0  0  0  0  0
   -1.4946   -2.8328   -1.9071 N   0  0  0  1  0  0  0  0  0  0  0  0
   -0.4488   -3.6545   -2.1965 C   0  0  0  1  0  0  0  0  0  0  0  0
   -0.4700   -4.6761   -2.0025 H   0  0  0  1  0  0  0  0  0  0  0  0
    0.5828   -3.0639   -2.7357 N   0  0  0  1  0  0  0  0  0  0  0  0
    0.1892   -1.7375   -2.8216 C   0  0  0  1  0  0  0  0  0  0  0  0
    0.7968   -0.5729   -3.2815 C   0  0  0  1  0  0  0  0  0  0  0  0
    0.1347    0.5877   -3.2236 N   0  0  0  1  0  0  0  0  0  0  0  0
   -1.1025    0.5812   -2.7028 C   0  0  0  1  0  0  0  0  0  0  0  0
   -1.5822    1.5034   -2.6716 H   0  0  0  1  0  0  0  0  0  0  0  0
   -1.7963   -0.4434   -2.2223 N   0  0  0  1  0  0  0  0  0  0  0  0
   -1.1056   -1.5810   -2.3090 C   0  0  0  1  0  0  0  0  0  0  0  0
    2.0626   -0.6150   -3.7893 N   0  0  0  1  0  0  0  0  0  0  0  0
    2.5216   -1.4749   -3.8905 H   0  0  0  1  0  0  0  0  0  0  0  0
    2.5127    0.2147   -4.0527 H   0  0  0  1  0  0  0  0  0  0  0  0
   -3.6502   -1.8264   -3.0790 O   0  0  0  1  0  0  0  0  0  0  0  0
   -3.9194   -0.9083   -3.1577 H   0  0  0  1  0  0  0  0  0  0  0  0
   -6.1031   -2.7593   -2.6628 O   0  0  0  1  0  0  0  0  0  0  0  0
   -6.7487   -1.2517   -2.6731 P   0  0  0  1  0  0  0  0  0  0  0  0
   -5.7481   -0.1793   -2.4751 O   0  0  0  1  0  0  0  0  0  0  0  0
   -7.5771   -1.2245   -4.0649 O   0  5  0  1  0  0  0  0  0  0  0  0
   -8.0143   -1.2441   -1.6618 O   0  5  0  1  0  0  0  0  0  0  0  0
   -5.3305  -10.2167  -10.5131 C   0  0  0  1  0  0  0  0  0  0  0  0
   -4.3029   -9.9730  -10.3415 H   0  0  0  1  0  0  0  0  0  0  0  0
   -5.6898  -11.3899   -9.5925 C   0  0  0  1  0  0  0  0  0  0  0  0
   -5.7714  -11.2134   -8.3799 O   0  0  0  1  0  0  0  0  0  0  0  0
   -5.9835  -12.5493  -10.1831 N   0  0  0  1  0  0  0  0  0  0  0  0
   -5.9212  -12.5886  -11.1603 H   0  0  0  1  0  0  0  0  0  0  0  0
   -6.3894  -13.7604   -9.4856 C   0  0  0  1  0  0  0  0  0  0  0  0
   -7.0365  -14.3237  -10.1249 H   0  0  0  1  0  0  0  0  0  0  0  0
   -6.9175  -13.4836   -8.5971 H   0  0  0  1  0  0  0  0  0  0  0  0
   -5.2073  -14.6335   -9.0974 C   0  0  0  1  0  0  0  0  0  0  0  0
   -4.6492  -14.8635   -9.9809 H   0  0  0  1  0  0  0  0  0  0  0  0
   -5.5799  -15.5384   -8.6646 H   0  0  0  1  0  0  0  0  0  0  0  0
   -4.2793  -13.9679   -8.0999 C   0  0  0  1  0  0  0  0  0  0  0  0
   -4.6973  -13.5449   -7.0229 O   0  0  0  1  0  0  0  0  0  0  0  0
   -2.9934  -13.8760   -8.4716 N   0  0  0  1  0  0  0  0  0  0  0  0
   -2.7050  -14.3265   -9.2926 H   0  0  0  1  0  0  0  0  0  0  0  0
   -2.0119  -13.1304   -7.6977 C   0  0  0  1  0  0  0  0  0  0  0  0
   -1.0288  -13.3882   -8.0322 H   0  0  0  1  0  0  0  0  0  0  0  0
   -2.1142  -13.3811   -6.6625 H   0  0  0  1  0  0  0  0  0  0  0  0
   -2.2257  -11.6419   -7.8748 C   0  0  0  1  0  0  0  0  0  0  0  0
   -3.2628  -11.4783   -8.0811 H   0  0  0  1  0  0  0  0  0  0  0  0
   -1.6402  -11.3202   -8.7106 H   0  0  0  1  0  0  0  0  0  0  0  0
   -1.7715  -10.6265   -6.4487 S   0  0  0  1  0  0  0  0  0  0  0  0
   -0.0200  -10.9283   -6.4906 C   0  0  0  1  0  0  0  0  0  0  0  0
    0.5194  -11.5832   -7.3397 O   0  0  0  1  0  0  0  0  0  0  0  0
    0.7025  -10.2682   -5.3407 C   0  0  0  1  0  0  0  0  0  0  0  0
    0.2861  -10.6397   -4.4277 H   0  0  0  1  0  0  0  0  0  0  0  0
    0.5380   -9.2129   -5.4049 H   0  0  0  1  0  0  0  0  0  0  0  0
    2.2025  -10.5135   -5.3121 C   0  0  0  1  0  0  0  0  0  0  0  0
    2.6985  -11.3305   -6.0702 O   0  0  0  1  0  0  0  0  0  0  0  0
    3.0120   -9.8311   -4.3073 C   0  0  0  1  0  0  0  0  0  0  0  0
    2.5242   -9.1080   -3.7408 H   0  0  0  1  0  0  0  0  0  0  0  0
    4.3007  -10.0231   -4.0285 C   0  0  0  1  0  0  0  0  0  0  0  0
    4.7885  -10.7461   -4.5950 H   0  0  0  1  0  0  0  0  0  0  0  0
    5.1246   -9.3286   -3.0058 C   0  0  0  1  0  0  0  0  0  0  0  0
    4.5862   -8.2181   -2.3837 C   0  0  0  1  0  0  0  0  0  0  0  0
    3.6056   -7.9347   -2.5828 H   0  0  0  1  0  0  0  0  0  0  0  0
    5.3535   -7.4821   -1.4943 C   0  0  0  1  0  0  0  0  0  0  0  0
    6.6584   -7.8555   -1.2336 C   0  0  0  1  0  0  0  0  0  0  0  0
    7.1982   -8.9694   -1.8577 C   0  0  0  1  0  0  0  0  0  0  0  0
    8.1788   -9.2528   -1.6586 H   0  0  0  1  0  0  0  0  0  0  0  0
    6.4333   -9.7034   -2.7445 C   0  0  0  1  0  0  0  0  0  0  0  0
    6.8396  -10.5367   -3.2158 H   0  0  0  1  0  0  0  0  0  0  0  0
    7.5044   -7.2095   -0.3871 O   0  5  0  1  0  0  0  0  0  0  0  0
    4.8244   -6.3970   -0.8807 O   0  0  0  1  0  0  0  0  0  0  0  0
    3.4681   -6.0552   -1.2065 C   0  0  0  1  0  0  0  0  0  0  0  0
    2.9067   -6.9490   -1.3819 H   0  0  0  1  0  0  0  0  0  0  0  0
    3.4554   -5.4478   -2.0873 H   0  0  0  1  0  0  0  0  0  0  0  0
    3.0317   -5.5140   -0.3931 H   0  0  0  1  0  0  0  0  0  0  0  0
   -5.5142  -10.4905  -11.8881 O   0  0  0  1  0  0  0  0  0  0  0  0
   -6.0608   -9.8059  -12.2809 H   0  0  0  1  0  0  0  0  0  0  0  0
  1  2  1  0  0  0  0
  1  3  1  0  0  0  0
  1  4  1  0  0  0  0
  1  5  1  0  0  0  0
  5  6  1  0  0  0  0
  5 10  1  0  0  0  0
  5 55  1  0  0  0  0
  6  7  1  0  0  0  0
  6  8  1  0  0  0  0
  6  9  1  0  0  0  0
 10 11  1  0  0  0  0
 10 12  1  0  0  0  0
 10 13  1  0  0  0  0
 13 14  1  0  0  0  0
 14 15  2  0  0  0  0
 14 16  1  0  0  0  0
 14 17  1  0  0  0  0
 17 18  1  0  0  0  0
 18 19  1  0  0  0  0
 18 20  2  0  0  0  0
 18 21  1  0  0  0  0
 21 22  1  0  0  0  0
 22 23  1  0  0  0  0
 22 24  1  0  0  0  0
 22 25  1  0  0  0  0
 25 26  1  0  0  0  0
 25 27  1  0  0  0  0
 25 33  1  0  0  0  0
 27 28  1  0  0  0  0
 27 29  1  0  0  0  0
 27 50  1  0  0  0  0
 29 30  1  0  0  0  0
 29 31  1  0  0  0  0
 29 48  1  0  0  0  0
 31 32  1  0  0  0  0
 31 33  1  0  0  0  0
 31 34  1  0  0  0  0
 34 35  1  0  0  0  0
 34 44  1  0  0  0  0
 35 36  1  0  0  0  0
 35 37  2  0  0  0  0
 37 38  1  0  0  0  0
 38 39  1  0  0  0  0
 38 44  2  0  0  0  0
 39 40  2  0  0  0  0
 39 45  1  0  0  0  0
 40 41  1  0  0  0  0
 41 42  1  0  0  0  0
 41 43  2  0  0  0  0
 43 44  1  0  0  0  0
 45 46  1  0  0  0  0
 45 47  1  0  0  0  0
 48 49  1  0  0  0  0
 50 51  1  0  0  0  0
 51 52  2  0  0  0  0
 51 53  1  0  0  0  0
 51 54  1  0  0  0  0
 55 56  1  0  0  0  0
 55 57  1  0  0  0  0
 55104  1  0  0  0  0
 57 58  2  0  0  0  0
 57 59  1  0  0  0  0
 59 60  1  0  0  0  0
 59 61  1  0  0  0  0
 61 62  1  0  0  0  0
 61 63  1  0  0  0  0
 61 64  1  0  0  0  0
 64 65  1  0  0  0  0
 64 66  1  0  0  0  0
 64 67  1  0  0  0  0
 67 68  2  0  0  0  0
 67 69  1  0  0  0  0
 69 70  1  0  0  0  0
 69 71  1  0  0  0  0
 71 72  1  0  0  0  0
 71 73  1  0  0  0  0
 71 74  1  0  0  0  0
 74 75  1  0  0  0  0
 74 76  1  0  0  0  0
 74 77  1  0  0  0  0
 77 78  1  0  0  0  0
 78 79  2  0  0  0  0
 78 80  1  0  0  0  0
 80 81  1  0  0  0  0
 80 82  1  0  0  0  0
 80 83  1  0  0  0  0
 83 84  2  0  0  0  0
 83 85  1  0  0  0  0
 85 86  1  0  0  0  0
 85 87  2  0  0  0  0
 87 88  1  0  0  0  0
 87 89  1  0  0  0  0
 89 90  2  0  0  0  0
 89 96  1  0  0  0  0
 90 91  1  0  0  0  0
 90 92  1  0  0  0  0
 92 93  2  0  0  0  0
 92 99  1  0  0  0  0
 93 94  1  0  0  0  0
 93 98  1  0  0  0  0
 94 95  1  0  0  0  0
 94 96  2  0  0  0  0
 96 97  1  0  0  0  0
 99100  1  0  0  0  0
100101  1  0  0  0  0
100102  1  0  0  0  0
100103  1  0  0  0  0
104105  1  0  0  0  0
M  BCL ATM C_TeTeTeTe H_S H_S H_S C_TeTeTeTe C_TeTeTeTe H_S H_S H_S C_TeTeTeTe H_S H_S O_Tr2TrTrPi2 P_TeTeTeTePi O_Tr2Tr2TrPi O_Te2Te2Te2Te O_Tr2TrTrPi2 P_TeTeTeTePi O_Te2Te2TeTe O_Tr2Tr2TrPi O_Tr2TrTrPi2 C_TeTeTeTe H_S H_S C_TeTeTeTe H_S C_TeTeTeTe H_S C_TeTeTeTe H_S C_TeTeTeTe H_S O_Te2Te2TeTe N_TrTrTrPi2 C_TrTrTrPi H_S N_Tr2TrTrPi C_TrTrTrPi C_TrTrTrPi N_Tr2TrTrPi C_TrTrTrPi H_S N_Tr2TrTrPi C_TrTrTrPi N_TrTrTrPi2 H_S H_S O_Te2Te2TeTe H_S O_Tr2TrTrPi2 P_TeTeTeTePi O_Tr2Tr2TrPi O_Te2Te2Te2Te O_Te2Te2Te2Te C_TeTeTeTe H_S C_TrTrTrPi O_Tr2Tr2TrPi N_TrTrTrPi2 H_S C_TeTeTeTe H_S H_S C_TeTeTeTe H_S H_S C_TrTrTrPi O_Tr2Tr2TrPi N_TrTrTrPi2 H_S C_TeTeTeTe H_S H_S C_TeTeTeTe H_S H_S S_Te2Te2TeTe C_TrTrTrPi O_Tr2Tr2TrPi C_TeTeTeTe H_S H_S C_TrTrTrPi O_Tr2Tr2TrPi C_TrTrTrPi H_S C_TrTrTrPi H_S C_TrTrTrPi C_TrTrTrPi H_S C_TrTrTrPi C_TrTrTrPi C_TrTrTrPi H_S C_TrTrTrPi H_S O_Te2Te2Te2Te O_Tr2TrTrPi2 C_TeTeTeTe H_S H_S H_S O_Te2Te2TeTe H_S
M  BCL BND NonConjugatedSingleBond NonConjugatedSingleBond NonConjugatedSingleBond NonConjugatedSingleBond NonConjugatedSingleBond NonConjugatedSingleBond NonConjugatedSingleBond NonConjugatedSingleBond NonConjugatedSingleBond NonConjugatedSingleBond NonConjugatedSingleBond NonConjugatedSingleBond NonConjugatedSingleBond ConjugatedSingleBond ConjugatedDoubleBond ConjugatedSingleBond ConjugatedSingleBond ConjugatedSingleBond ConjugatedSingleBond ConjugatedDoubleBond ConjugatedSingleBond NonConjugatedSingleBond NonConjugatedSingleBond NonConjugatedSingleBond NonConjugatedSingleBond NonConjugatedSingleBond NonConjugatedSingleBondInRing NonConjugatedSingleBondInRing NonConjugatedSingleBond NonConjugatedSingleBondInRing NonConjugatedSingleBond NonConjugatedSingleBond NonConjugatedSingleBondInRing NonConjugatedSingleBond NonConjugatedSingleBond NonConjugatedSingleBondInRing NonConjugatedSingleBond AromaticSingleBond AromaticSingleBond NonConjugatedSingleBond AromaticDoubleBond AromaticSingleBond AromaticSingleBond AromaticDoubleBond AromaticDoubleBond ConjugatedSingleBond AromaticSingleBond NonConjugatedSingleBond AromaticDoubleBond AromaticSingleBond NonConjugatedSingleBond NonConjugatedSingleBond NonConjugatedSingleBond ConjugatedSingleBond ConjugatedDoubleBond ConjugatedSingleBond ConjugatedSingleBond NonConjugatedSingleBond NonConjugatedSingleBond NonConjugatedSingleBond ConjugatedDoubleBond AmideSingleBond NonConjugatedSingleBond NonConjugatedSingleBond NonConjugatedSingleBond NonConjugatedSingleBond NonConjugatedSingleBond NonConjugatedSingleBond NonConjugatedSingleBond NonConjugatedSingleBond ConjugatedDoubleBond AmideSingleBond NonConjugatedSingleBond NonConjugatedSingleBond NonConjugatedSingleBond NonConjugatedSingleBond NonConjugatedSingleBond NonConjugatedSingleBond NonConjugatedSingleBond NonConjugatedSingleBond ConjugatedSingleBond ConjugatedDoubleBond NonConjugatedSingleBond NonConjugatedSingleBond NonConjugatedSingleBond NonConjugatedSingleBond ConjugatedDoubleBond ConjugatedSingleBond NonConjugatedSingleBond ConjugatedDoubleBond NonConjugatedSingleBond ConjugatedSingleBond AromaticDoubleBond AromaticSingleBond NonConjugatedSingleBond AromaticSingleBond AromaticDoubleBond ConjugatedSingleBond AromaticSingleBond ConjugatedSingleBond NonConjugatedSingleBond AromaticDoubleBond NonConjugatedSingleBond NonConjugatedSingleBond NonConjugatedSingleBond NonConjugatedSingleBond NonConjugatedSingleBond NonConjugatedSingleBond
M  BCL CHI  14   R  18   S  25   R  27   R  29   R  31   S  55   R
M  BCL DBI - - - - - - - - - - - E - - -
M  END
> <ConfClashScore>
0.000849376 

> <ConfOneFourInteractionScore>
-0.975656 

> <ConfScore>
0.115662 

> <ConfScorePBest>
0.0118025 

> <ConfTolerance>
2.63494 

$$$$
L03.****
  PyMOL2.5          3D                             0

105108  0  0  0  0  0  0  0  0999 V2000
  -10.3042   -9.6778   -9.3878 C   0  0  0  1  0  0  0  0  0  0  0  0
  -10.7769   -9.6752   -8.4278 H   0  0  0  1  0  0  0  0  0  0  0  0
  -10.5657  -10.5736   -9.9114 H   0  0  0  1  0  0  0  0  0  0  0  0
  -10.6319   -8.8276   -9.9487 H   0  0  0  1  0  0  0  0  0  0  0  0
   -8.7826   -9.6164   -9.2091 C   0  0  0  1  0  0  0  0  0  0  0  0
   -8.1904  -11.0249   -9.0802 C   0  0  0  1  0  0  0  0  0  0  0  0
   -8.7109  -11.5626   -8.3155 H   0  0  0  1  0  0  0  0  0  0  0  0
   -7.1541  -10.9538   -8.8235 H   0  0  0  1  0  0  0  0  0  0  0  0
   -8.2930  -11.5413  -10.0118 H   0  0  0  1  0  0  0  0  0  0  0  0
   -8.5054   -8.8419   -7.9628 C   0  0  0  1  0  0  0  0  0  0  0  0
   -8.9663   -9.3224   -7.1251 H   0  0  0  1  0  0  0  0  0  0  0  0
   -8.8882   -7.8473   -8.0591 H   0  0  0  1  0  0  0  0  0  0  0  0
   -7.0627   -8.8019   -7.7791 O   0  0  0  1  0  0  0  0  0  0  0  0
   -6.4297   -8.1225   -6.5087 P   0  0  0  1  0  0  0  0  0  0  0  0
   -6.7974   -6.7901   -7.0377 O   0  0  0  1  0  0  0  0  0  0  0  0
   -7.2118   -9.5017   -6.1762 O   0  5  0  1  0  0  0  0  0  0  0  0
   -5.7792   -7.4235   -5.2029 O   0  0  0  1  0  0  0  0  0  0  0  0
   -6.2357   -6.0166   -4.6002 P   0  0  0  1  0  0  0  0  0  0  0  0
   -7.7306   -5.9063   -4.6151 O   0  0  0  0  0  0  0  0  0  0  0  0
   -5.4916   -4.9062   -5.2758 O   0  0  0  1  0  0  0  0  0  0  0  0
   -5.6659   -6.1329   -3.1380 O   0  0  0  1  0  0  0  0  0  0  0  0
   -4.2779   -5.8767   -2.8050 C   0  0  0  1  0  0  0  0  0  0  0  0
   -3.7943   -5.3772   -3.6182 H   0  0  0  1  0  0  0  0  0  0  0  0
   -3.7753   -6.7995   -2.6030 H   0  0  0  1  0  0  0  0  0  0  0  0
   -4.2556   -4.9969   -1.5728 C   0  0  0  1  0  0  0  0  0  0  0  0
   -4.6811   -5.5279   -0.7470 H   0  0  0  1  0  0  0  0  0  0  0  0
   -5.0446   -3.6899   -1.8332 C   0  0  0  1  0  0  0  0  0  0  0  0
   -5.6013   -3.3970   -0.9676 H   0  0  0  1  0  0  0  0  0  0  0  0
   -3.9449   -2.6888   -2.1407 C   0  0  0  1  0  0  0  0  0  0  0  0
   -4.2276   -1.7010   -1.8421 H   0  0  0  1  0  0  0  0  0  0  0  0
   -2.7716   -3.2092   -1.2953 C   0  0  0  1  0  0  0  0  0  0  0  0
   -2.8222   -2.8111   -0.3035 H   0  0  0  1  0  0  0  0  0  0  0  0
   -2.9064   -4.6010   -1.2681 O   0  0  0  1  0  0  0  0  0  0  0  0
   -1.4992   -2.8341   -1.9070 N   0  0  0  1  0  0  0  0  0  0  0  0
   -0.4534   -3.6553   -2.1982 C   0  0  0  1  0  0  0  0  0  0  0  0
   -0.4746   -4.6772   -2.0059 H   0  0  0  1  0  0  0  0  0  0  0  0
    0.5779   -3.0638   -2.7368 N   0  0  0  1  0  0  0  0  0  0  0  0
    0.1843   -1.7373   -2.8204 C   0  0  0  1  0  0  0  0  0  0  0  0
    0.7916   -0.5718   -3.2785 C   0  0  0  1  0  0  0  0  0  0  0  0
    0.1295    0.5886   -3.2183 N   0  0  0  1  0  0  0  0  0  0  0  0
   -1.1075    0.5812   -2.6971 C   0  0  0  1  0  0  0  0  0  0  0  0
   -1.5872    1.5034   -2.6641 H   0  0  0  1  0  0  0  0  0  0  0  0
   -1.8011   -0.4441   -2.2180 N   0  0  0  1  0  0  0  0  0  0  0  0
   -1.1103   -1.5816   -2.3069 C   0  0  0  1  0  0  0  0  0  0  0  0
    2.0815   -0.6138   -3.7966 N   0  0  0  1  0  0  0  0  0  0  0  0
    2.5248   -1.4763   -3.9383 H   0  0  0  1  0  0  0  0  0  0  0  0
    2.5471    0.2190   -4.0201 H   0  0  0  1  0  0  0  0  0  0  0  0
   -3.6193   -2.6919   -3.5314 O   0  0  0  1  0  0  0  0  0  0  0  0
   -4.2166   -3.2802   -3.9991 H   0  0  0  1  0  0  0  0  0  0  0  0
   -5.9452   -3.8392   -2.9605 O   0  0  0  1  0  0  0  0  0  0  0  0
   -7.4843   -3.2777   -2.8872 P   0  0  0  1  0  0  0  0  0  0  0  0
   -7.4882   -1.8470   -2.5085 O   0  0  0  1  0  0  0  0  0  0  0  0
   -8.3156   -3.7113   -4.2083 O   0  5  0  1  0  0  0  0  0  0  0  0
   -8.0302   -4.1640   -1.6459 O   0  5  0  1  0  0  0  0  0  0  0  0
   -8.1655   -8.8739  -10.4071 C   0  0  0  1  0  0  0  0  0  0  0  0
   -8.4908   -7.8567  -10.3412 H   0  0  0  1  0  0  0  0  0  0  0  0
   -6.6516   -8.8632  -10.3175 C   0  0  0  1  0  0  0  0  0  0  0  0
   -6.0145   -9.9025  -10.1515 O   0  0  0  1  0  0  0  0  0  0  0  0
   -6.0693   -7.6590  -10.4305 N   0  0  0  1  0  0  0  0  0  0  0  0
   -6.6369   -6.8674  -10.5383 H   0  0  0  1  0  0  0  0  0  0  0  0
   -4.6244   -7.4881  -10.3985 C   0  0  0  1  0  0  0  0  0  0  0  0
   -4.2043   -8.2397   -9.7633 H   0  0  0  1  0  0  0  0  0  0  0  0
   -4.4024   -6.5197  -10.0012 H   0  0  0  1  0  0  0  0  0  0  0  0
   -3.9915   -7.6061  -11.7788 C   0  0  0  1  0  0  0  0  0  0  0  0
   -2.9609   -7.3279  -11.7058 H   0  0  0  1  0  0  0  0  0  0  0  0
   -4.4961   -6.9361  -12.4433 H   0  0  0  1  0  0  0  0  0  0  0  0
   -4.0744   -9.0198  -12.3572 C   0  0  0  1  0  0  0  0  0  0  0  0
   -3.5147   -9.9602  -11.7951 O   0  0  0  1  0  0  0  0  0  0  0  0
   -4.8594   -9.1385  -13.4389 N   0  0  0  1  0  0  0  0  0  0  0  0
   -5.2565   -8.3398  -13.8449 H   0  0  0  1  0  0  0  0  0  0  0  0
   -5.1226  -10.4507  -14.0104 C   0  0  0  1  0  0  0  0  0  0  0  0
   -5.0022  -11.1885  -13.2448 H   0  0  0  1  0  0  0  0  0  0  0  0
   -4.4169  -10.6310  -14.7943 H   0  0  0  1  0  0  0  0  0  0  0  0
   -6.5261  -10.5668  -14.5823 C   0  0  0  1  0  0  0  0  0  0  0  0
   -7.2206  -10.5082  -13.7704 H   0  0  0  1  0  0  0  0  0  0  0  0
   -6.6122  -11.5214  -15.0579 H   0  0  0  1  0  0  0  0  0  0  0  0
   -6.9695   -9.2967  -15.7912 S   0  0  0  1  0  0  0  0  0  0  0  0
   -7.9316   -8.1241  -14.7839 C   0  0  0  1  0  0  0  0  0  0  0  0
   -8.1827   -8.2932  -13.6212 O   0  0  0  1  0  0  0  0  0  0  0  0
   -8.5010   -7.0123  -15.6308 C   0  0  0  1  0  0  0  0  0  0  0  0
   -9.0850   -7.4531  -16.4115 H   0  0  0  1  0  0  0  0  0  0  0  0
   -7.6855   -6.4677  -16.0588 H   0  0  0  1  0  0  0  0  0  0  0  0
   -9.3753   -6.0386  -14.8821 C   0  0  0  1  0  0  0  0  0  0  0  0
  -10.5846   -6.1828  -14.8466 O   0  0  0  1  0  0  0  0  0  0  0  0
   -8.7848   -4.9026  -14.1848 C   0  0  0  1  0  0  0  0  0  0  0  0
   -9.4377   -4.2199  -13.7499 H   0  0  0  1  0  0  0  0  0  0  0  0
   -7.4801   -4.6642  -14.0569 C   0  0  0  1  0  0  0  0  0  0  0  0
   -6.8429   -5.3576  -14.4983 H   0  0  0  1  0  0  0  0  0  0  0  0
   -6.8280   -3.5302  -13.3618 C   0  0  0  1  0  0  0  0  0  0  0  0
   -7.6016   -2.4935  -12.8751 C   0  0  0  1  0  0  0  0  0  0  0  0
   -8.6337   -2.5110  -13.0015 H   0  0  0  1  0  0  0  0  0  0  0  0
   -7.0016   -1.4304  -12.2184 C   0  0  0  1  0  0  0  0  0  0  0  0
   -5.6294   -1.4044  -12.0550 C   0  0  0  1  0  0  0  0  0  0  0  0
   -4.8537   -2.4443  -12.5432 C   0  0  0  1  0  0  0  0  0  0  0  0
   -3.8215   -2.4268  -12.4168 H   0  0  0  1  0  0  0  0  0  0  0  0
   -5.4518   -3.5044  -13.1980 C   0  0  0  1  0  0  0  0  0  0  0  0
   -4.8693   -4.2826  -13.5679 H   0  0  0  1  0  0  0  0  0  0  0  0
   -5.1530   -0.3111  -11.4013 O   0  5  0  1  0  0  0  0  0  0  0  0
   -7.7582   -0.4195  -11.7380 O   0  0  0  1  0  0  0  0  0  0  0  0
   -7.4931    0.1020  -10.4150 C   0  0  0  1  0  0  0  0  0  0  0  0
   -8.3128    0.7143  -10.1016 H   0  0  0  1  0  0  0  0  0  0  0  0
   -6.5981    0.6879  -10.4356 H   0  0  0  1  0  0  0  0  0  0  0  0
   -7.3725   -0.7104   -9.7292 H   0  0  0  1  0  0  0  0  0  0  0  0
   -8.6282   -9.4092  -11.6456 O   0  0  0  1  0  0  0  0  0  0  0  0
   -9.5864   -9.3598  -11.6780 H   0  0  0  1  0  0  0  0  0  0  0  0
  1  2  1  0  0  0  0
  1  3  1  0  0  0  0
  1  4  1  0  0  0  0
  1  5  1  0  0  0  0
  5  6  1  0  0  0  0
  5 10  1  0  0  0  0
  5 55  1  0  0  0  0
  6  7  1  0  0  0  0
  6  8  1  0  0  0  0
  6  9  1  0  0  0  0
 10 11  1  0  0  0  0
 10 12  1  0  0  0  0
 10 13  1  0  0  0  0
 13 14  1  0  0  0  0
 14 15  2  0  0  0  0
 14 16  1  0  0  0  0
 14 17  1  0  0  0  0
 17 18  1  0  0  0  0
 18 19  1  0  0  0  0
 18 20  2  0  0  0  0
 18 21  1  0  0  0  0
 21 22  1  0  0  0  0
 22 23  1  0  0  0  0
 22 24  1  0  0  0  0
 22 25  1  0  0  0  0
 25 26  1  0  0  0  0
 25 27  1  0  0  0  0
 25 33  1  0  0  0  0
 27 28  1  0  0  0  0
 27 29  1  0  0  0  0
 27 50  1  0  0  0  0
 29 30  1  0  0  0  0
 29 31  1  0  0  0  0
 29 48  1  0  0  0  0
 31 32  1  0  0  0  0
 31 33  1  0  0  0  0
 31 34  1  0  0  0  0
 34 35  1  0  0  0  0
 34 44  1  0  0  0  0
 35 36  1  0  0  0  0
 35 37  2  0  0  0  0
 37 38  1  0  0  0  0
 38 39  1  0  0  0  0
 38 44  2  0  0  0  0
 39 40  2  0  0  0  0
 39 45  1  0  0  0  0
 40 41  1  0  0  0  0
 41 42  1  0  0  0  0
 41 43  2  0  0  0  0
 43 44  1  0  0  0  0
 45 46  1  0  0  0  0
 45 47  1  0  0  0  0
 48 49  1  0  0  0  0
 50 51  1  0  0  0  0
 51 52  2  0  0  0  0
 51 53  1  0  0  0  0
 51 54  1  0  0  0  0
 55 56  1  0  0  0  0
 55 57  1  0  0  0  0
 55104  1  0  0  0  0
 57 58  2  0  0  0  0
 57 59  1  0  0  0  0
 59 60  1  0  0  0  0
 59 61  1  0  0  0  0
 61 62  1  0  0  0  0
 61 63  1  0  0  0  0
 61 64  1  0  0  0  0
 64 65  1  0  0  0  0
 64 66  1  0  0  0  0
 64 67  1  0  0  0  0
 67 68  2  0  0  0  0
 67 69  1  0  0  0  0
 69 70  1  0  0  0  0
 69 71  1  0  0  0  0
 71 72  1  0  0  0  0
 71 73  1  0  0  0  0
 71 74  1  0  0  0  0
 74 75  1  0  0  0  0
 74 76  1  0  0  0  0
 74 77  1  0  0  0  0
 77 78  1  0  0  0  0
 78 79  2  0  0  0  0
 78 80  1  0  0  0  0
 80 81  1  0  0  0  0
 80 82  1  0  0  0  0
 80 83  1  0  0  0  0
 83 84  2  0  0  0  0
 83 85  1  0  0  0  0
 85 86  1  0  0  0  0
 85 87  2  0  0  0  0
 87 88  1  0  0  0  0
 87 89  1  0  0  0  0
 89 90  2  0  0  0  0
 89 96  1  0  0  0  0
 90 91  1  0  0  0  0
 90 92  1  0  0  0  0
 92 93  2  0  0  0  0
 92 99  1  0  0  0  0
 93 94  1  0  0  0  0
 93 98  1  0  0  0  0
 94 95  1  0  0  0  0
 94 96  2  0  0  0  0
 96 97  1  0  0  0  0
 99100  1  0  0  0  0
100101  1  0  0  0  0
100102  1  0  0  0  0
100103  1  0  0  0  0
104105  1  0  0  0  0
M  BCL ATM C_TeTeTeTe H_S H_S H_S C_TeTeTeTe C_TeTeTeTe H_S H_S H_S C_TeTeTeTe H_S H_S O_Tr2TrTrPi2 P_TeTeTeTePi O_Tr2Tr2TrPi O_Te2Te2Te2Te O_Tr2TrTrPi2 P_TeTeTeTePi O_Te2Te2TeTe O_Tr2Tr2TrPi O_Tr2TrTrPi2 C_TeTeTeTe H_S H_S C_TeTeTeTe H_S C_TeTeTeTe H_S C_TeTeTeTe H_S C_TeTeTeTe H_S O_Te2Te2TeTe N_TrTrTrPi2 C_TrTrTrPi H_S N_Tr2TrTrPi C_TrTrTrPi C_TrTrTrPi N_Tr2TrTrPi C_TrTrTrPi H_S N_Tr2TrTrPi C_TrTrTrPi N_TrTrTrPi2 H_S H_S O_Te2Te2TeTe H_S O_Tr2TrTrPi2 P_TeTeTeTePi O_Tr2Tr2TrPi O_Te2Te2Te2Te O_Te2Te2Te2Te C_TeTeTeTe H_S C_TrTrTrPi O_Tr2Tr2TrPi N_TrTrTrPi2 H_S C_TeTeTeTe H_S H_S C_TeTeTeTe H_S H_S C_TrTrTrPi O_Tr2Tr2TrPi N_TrTrTrPi2 H_S C_TeTeTeTe H_S H_S C_TeTeTeTe H_S H_S S_Te2Te2TeTe C_TrTrTrPi O_Tr2Tr2TrPi C_TeTeTeTe H_S H_S C_TrTrTrPi O_Tr2Tr2TrPi C_TrTrTrPi H_S C_TrTrTrPi H_S C_TrTrTrPi C_TrTrTrPi H_S C_TrTrTrPi C_TrTrTrPi C_TrTrTrPi H_S C_TrTrTrPi H_S O_Te2Te2Te2Te O_Tr2TrTrPi2 C_TeTeTeTe H_S H_S H_S O_Te2Te2TeTe H_S
M  BCL BND NonConjugatedSingleBond NonConjugatedSingleBond NonConjugatedSingleBond NonConjugatedSingleBond NonConjugatedSingleBond NonConjugatedSingleBond NonConjugatedSingleBond NonConjugatedSingleBond NonConjugatedSingleBond NonConjugatedSingleBond NonConjugatedSingleBond NonConjugatedSingleBond NonConjugatedSingleBond ConjugatedSingleBond ConjugatedDoubleBond ConjugatedSingleBond ConjugatedSingleBond ConjugatedSingleBond ConjugatedSingleBond ConjugatedDoubleBond ConjugatedSingleBond NonConjugatedSingleBond NonConjugatedSingleBond NonConjugatedSingleBond NonConjugatedSingleBond NonConjugatedSingleBond NonConjugatedSingleBondInRing NonConjugatedSingleBondInRing NonConjugatedSingleBond NonConjugatedSingleBondInRing NonConjugatedSingleBond NonConjugatedSingleBond NonConjugatedSingleBondInRing NonConjugatedSingleBond NonConjugatedSingleBond NonConjugatedSingleBondInRing NonConjugatedSingleBond AromaticSingleBond AromaticSingleBond NonConjugatedSingleBond AromaticDoubleBond AromaticSingleBond AromaticSingleBond AromaticDoubleBond AromaticDoubleBond ConjugatedSingleBond AromaticSingleBond NonConjugatedSingleBond AromaticDoubleBond AromaticSingleBond NonConjugatedSingleBond NonConjugatedSingleBond NonConjugatedSingleBond ConjugatedSingleBond ConjugatedDoubleBond ConjugatedSingleBond ConjugatedSingleBond NonConjugatedSingleBond NonConjugatedSingleBond NonConjugatedSingleBond ConjugatedDoubleBond AmideSingleBond NonConjugatedSingleBond NonConjugatedSingleBond NonConjugatedSingleBond NonConjugatedSingleBond NonConjugatedSingleBond NonConjugatedSingleBond NonConjugatedSingleBond NonConjugatedSingleBond ConjugatedDoubleBond AmideSingleBond NonConjugatedSingleBond NonConjugatedSingleBond NonConjugatedSingleBond NonConjugatedSingleBond NonConjugatedSingleBond NonConjugatedSingleBond NonConjugatedSingleBond NonConjugatedSingleBond ConjugatedSingleBond ConjugatedDoubleBond NonConjugatedSingleBond NonConjugatedSingleBond NonConjugatedSingleBond NonConjugatedSingleBond ConjugatedDoubleBond ConjugatedSingleBond NonConjugatedSingleBond ConjugatedDoubleBond NonConjugatedSingleBond ConjugatedSingleBond AromaticDoubleBond AromaticSingleBond NonConjugatedSingleBond AromaticSingleBond AromaticDoubleBond ConjugatedSingleBond AromaticSingleBond ConjugatedSingleBond NonConjugatedSingleBond AromaticDoubleBond NonConjugatedSingleBond NonConjugatedSingleBond NonConjugatedSingleBond NonConjugatedSingleBond NonConjugatedSingleBond NonConjugatedSingleBond
M  BCL CHI  14   R  18   S  25   R  27   R  29   R  31   S  55   R
M  BCL DBI - - - - - - - - - - - E - - -
M  END
> <ConfClashScore>
0 

> <ConfOneFourInteractionScore>
-0.96983 

> <ConfScore>
0.118314 

> <ConfScorePBest>
0.0116995 

> <ConfTolerance>
2.95131 

$$$$
L03.****
  PyMOL2.5          3D                             0

105108  0  0  0  0  0  0  0  0999 V2000
   -1.8579  -15.2170    1.6915 C   0  0  0  1  0  0  0  0  0  0  0  0
   -2.5111  -15.8445    1.1220 H   0  0  0  1  0  0  0  0  0  0  0  0
   -2.4281  -14.4449    2.1644 H   0  0  0  1  0  0  0  0  0  0  0  0
   -1.3618  -15.8023    2.4373 H   0  0  0  1  0  0  0  0  0  0  0  0
   -0.8155  -14.5852    0.7612 C   0  0  0  1  0  0  0  0  0  0  0  0
    0.2508  -13.9175    1.6379 C   0  0  0  1  0  0  0  0  0  0  0  0
    0.0692  -14.1559    2.6650 H   0  0  0  1  0  0  0  0  0  0  0  0
    0.2081  -12.8566    1.5052 H   0  0  0  1  0  0  0  0  0  0  0  0
    1.2192  -14.2741    1.3550 H   0  0  0  1  0  0  0  0  0  0  0  0
   -1.5009  -13.5347   -0.0491 C   0  0  0  1  0  0  0  0  0  0  0  0
   -2.3659  -13.9478   -0.5246 H   0  0  0  1  0  0  0  0  0  0  0  0
   -0.8322  -13.1539   -0.7926 H   0  0  0  1  0  0  0  0  0  0  0  0
   -1.8937  -12.4720    0.8511 O   0  0  0  1  0  0  0  0  0  0  0  0
   -2.3358  -11.0673    0.2966 P   0  0  0  1  0  0  0  0  0  0  0  0
   -0.9225  -10.7359    0.0084 O   0  0  0  1  0  0  0  0  0  0  0  0
   -3.3569  -12.2623   -0.0957 O   0  5  0  1  0  0  0  0  0  0  0  0
   -2.7858   -9.6357   -0.2685 O   0  0  0  1  0  0  0  0  0  0  0  0
   -2.6787   -8.9276   -1.5988 P   0  0  0  1  0  0  0  0  0  0  0  0
   -3.8875   -9.1904   -2.4830 O   0  0  0  0  0  0  0  0  0  0  0  0
   -1.3601   -9.1146   -2.3064 O   0  0  0  1  0  0  0  0  0  0  0  0
   -2.8192   -7.3750   -1.3294 O   0  0  0  1  0  0  0  0  0  0  0  0
   -2.9434   -6.4828   -2.4628 C   0  0  0  1  0  0  0  0  0  0  0  0
   -3.5243   -6.9321   -3.2410 H   0  0  0  1  0  0  0  0  0  0  0  0
   -1.9808   -6.2144   -2.8453 H   0  0  0  1  0  0  0  0  0  0  0  0
   -3.6519   -5.2762   -1.8879 C   0  0  0  1  0  0  0  0  0  0  0  0
   -4.5532   -5.5886   -1.4032 H   0  0  0  1  0  0  0  0  0  0  0  0
   -3.9564   -4.2574   -2.9853 C   0  0  0  1  0  0  0  0  0  0  0  0
   -4.9210   -4.4250   -3.4170 H   0  0  0  1  0  0  0  0  0  0  0  0
   -3.9161   -2.9626   -2.2152 C   0  0  0  1  0  0  0  0  0  0  0  0
   -4.8319   -2.7978   -1.6868 H   0  0  0  1  0  0  0  0  0  0  0  0
   -2.7620   -3.1912   -1.2560 C   0  0  0  1  0  0  0  0  0  0  0  0
   -2.8958   -2.6127   -0.3659 H   0  0  0  1  0  0  0  0  0  0  0  0
   -2.7875   -4.5708   -0.9561 O   0  0  0  1  0  0  0  0  0  0  0  0
   -1.4940   -2.8292   -1.8874 N   0  0  0  1  0  0  0  0  0  0  0  0
   -0.4509   -3.6709   -2.1890 C   0  0  0  1  0  0  0  0  0  0  0  0
   -0.4750   -4.6954   -2.0116 H   0  0  0  1  0  0  0  0  0  0  0  0
    0.5822   -3.0549   -2.7244 N   0  0  0  1  0  0  0  0  0  0  0  0
    0.1814   -1.7283   -2.7995 C   0  0  0  1  0  0  0  0  0  0  0  0
    0.8118   -0.5667   -3.2834 C   0  0  0  1  0  0  0  0  0  0  0  0
    0.1286    0.5951   -3.2272 N   0  0  0  1  0  0  0  0  0  0  0  0
   -1.1159    0.5755   -2.7225 C   0  0  0  1  0  0  0  0  0  0  0  0
   -1.6022    1.4947   -2.7101 H   0  0  0  1  0  0  0  0  0  0  0  0
   -1.8202   -0.4433   -2.2358 N   0  0  0  1  0  0  0  0  0  0  0  0
   -1.1040   -1.5803   -2.2990 C   0  0  0  1  0  0  0  0  0  0  0  0
    2.0813   -0.6144   -3.7962 N   0  0  0  1  0  0  0  0  0  0  0  0
    2.5543    0.2164   -4.0117 H   0  0  0  1  0  0  0  0  0  0  0  0
    2.5164   -1.4794   -3.9476 H   0  0  0  1  0  0  0  0  0  0  0  0
   -3.6583   -1.8551   -3.0794 O   0  0  0  1  0  0  0  0  0  0  0  0
   -4.1456   -1.9678   -3.8989 H   0  0  0  1  0  0  0  0  0  0  0  0
   -2.9492   -4.2848   -4.0264 O   0  0  0  1  0  0  0  0  0  0  0  0
   -3.0427   -5.3631   -5.2585 P   0  0  0  1  0  0  0  0  0  0  0  0
   -4.3760   -5.9972   -5.3619 O   0  0  0  1  0  0  0  0  0  0  0  0
   -2.5191   -4.7081   -6.6445 O   0  5  0  1  0  0  0  0  0  0  0  0
   -2.0742   -6.6056   -4.8808 O   0  5  0  1  0  0  0  0  0  0  0  0
   -0.1563  -15.6388   -0.1341 C   0  0  0  1  0  0  0  0  0  0  0  0
    0.3977  -16.3044    0.4944 H   0  0  0  1  0  0  0  0  0  0  0  0
   -1.1740  -16.4568   -0.9048 C   0  0  0  1  0  0  0  0  0  0  0  0
   -1.9529  -17.2009   -0.3320 O   0  0  0  1  0  0  0  0  0  0  0  0
   -1.1552  -16.3055   -2.2321 N   0  0  0  1  0  0  0  0  0  0  0  0
   -0.4621  -15.7412   -2.6341 H   0  0  0  1  0  0  0  0  0  0  0  0
   -2.1283  -16.9494   -3.1018 C   0  0  0  1  0  0  0  0  0  0  0  0
   -2.8494  -17.4448   -2.4858 H   0  0  0  1  0  0  0  0  0  0  0  0
   -1.6137  -17.6715   -3.7006 H   0  0  0  1  0  0  0  0  0  0  0  0
   -2.8705  -16.0048   -4.0331 C   0  0  0  1  0  0  0  0  0  0  0  0
   -3.4736  -15.3559   -3.4330 H   0  0  0  1  0  0  0  0  0  0  0  0
   -3.5005  -16.5934   -4.6667 H   0  0  0  1  0  0  0  0  0  0  0  0
   -1.9996  -15.1487   -4.9109 C   0  0  0  1  0  0  0  0  0  0  0  0
   -1.2384  -15.5898   -5.7510 O   0  0  0  1  0  0  0  0  0  0  0  0
   -2.0992  -13.8295   -4.7238 N   0  0  0  1  0  0  0  0  0  0  0  0
   -2.7286  -13.4933   -4.0521 H   0  0  0  1  0  0  0  0  0  0  0  0
   -1.3054  -12.8746   -5.4828 C   0  0  0  1  0  0  0  0  0  0  0  0
   -1.9373  -12.4006   -6.2046 H   0  0  0  1  0  0  0  0  0  0  0  0
   -0.5223  -13.4027   -5.9856 H   0  0  0  1  0  0  0  0  0  0  0  0
   -0.6831  -11.8034   -4.6021 C   0  0  0  1  0  0  0  0  0  0  0  0
   -1.4411  -11.4351   -3.9427 H   0  0  0  1  0  0  0  0  0  0  0  0
   -0.3439  -11.0101   -5.2349 H   0  0  0  1  0  0  0  0  0  0  0  0
    0.7152  -12.3542   -3.5959 S   0  0  0  1  0  0  0  0  0  0  0  0
    1.3411  -10.8390   -2.9672 C   0  0  0  1  0  0  0  0  0  0  0  0
    0.7857   -9.7785   -3.0693 O   0  0  0  1  0  0  0  0  0  0  0  0
    2.6702  -10.9158   -2.2566 C   0  0  0  1  0  0  0  0  0  0  0  0
    3.3681  -10.3019   -2.7866 H   0  0  0  1  0  0  0  0  0  0  0  0
    3.0016  -11.9330   -2.2776 H   0  0  0  1  0  0  0  0  0  0  0  0
    2.6402  -10.4606   -0.8196 C   0  0  0  1  0  0  0  0  0  0  0  0
    1.6594  -10.6693   -0.1276 O   0  0  0  1  0  0  0  0  0  0  0  0
    3.8018   -9.7686   -0.2743 C   0  0  0  1  0  0  0  0  0  0  0  0
    4.7395  -10.1097   -0.5677 H   0  0  0  1  0  0  0  0  0  0  0  0
    3.7650   -8.7366    0.5677 C   0  0  0  1  0  0  0  0  0  0  0  0
    2.8273   -8.3955    0.8611 H   0  0  0  1  0  0  0  0  0  0  0  0
    4.9460   -8.0330    1.1220 C   0  0  0  1  0  0  0  0  0  0  0  0
    6.2526   -8.3965    0.8564 C   0  0  0  1  0  0  0  0  0  0  0  0
    6.4510   -9.2090    0.2382 H   0  0  0  1  0  0  0  0  0  0  0  0
    7.2988   -7.6780    1.4139 C   0  0  0  1  0  0  0  0  0  0  0  0
    7.0353   -6.6015    2.2397 C   0  0  0  1  0  0  0  0  0  0  0  0
    5.7246   -6.2370    2.5060 C   0  0  0  1  0  0  0  0  0  0  0  0
    5.5263   -5.4245    3.1242 H   0  0  0  1  0  0  0  0  0  0  0  0
    4.6814   -6.9533    1.9502 C   0  0  0  1  0  0  0  0  0  0  0  0
    3.6981   -6.6823    2.1533 H   0  0  0  1  0  0  0  0  0  0  0  0
    8.1382   -5.9767    2.7325 O   0  5  0  1  0  0  0  0  0  0  0  0
    8.6144   -7.9358    1.2227 O   0  0  0  1  0  0  0  0  0  0  0  0
    8.9491   -9.0608    0.3951 C   0  0  0  1  0  0  0  0  0  0  0  0
    8.0850   -9.6783    0.2652 H   0  0  0  1  0  0  0  0  0  0  0  0
    9.7260   -9.6288    0.8629 H   0  0  0  1  0  0  0  0  0  0  0  0
    9.2857   -8.7135   -0.5593 H   0  0  0  1  0  0  0  0  0  0  0  0
    0.7376  -14.9451   -0.9888 O   0  0  0  1  0  0  0  0  0  0  0  0
    0.2459  -14.3229   -1.5299 H   0  0  0  1  0  0  0  0  0  0  0  0
  1  2  1  0  0  0  0
  1  3  1  0  0  0  0
  1  4  1  0  0  0  0
  1  5  1  0  0  0  0
  5  6  1  0  0  0  0
  5 10  1  0  0  0  0
  5 55  1  0  0  0  0
  6  7  1  0  0  0  0
  6  8  1  0  0  0  0
  6  9  1  0  0  0  0
 10 11  1  0  0  0  0
 10 12  1  0  0  0  0
 10 13  1  0  0  0  0
 13 14  1  0  0  0  0
 14 15  2  0  0  0  0
 14 16  1  0  0  0  0
 14 17  1  0  0  0  0
 17 18  1  0  0  0  0
 18 19  1  0  0  0  0
 18 20  2  0  0  0  0
 18 21  1  0  0  0  0
 21 22  1  0  0  0  0
 22 23  1  0  0  0  0
 22 24  1  0  0  0  0
 22 25  1  0  0  0  0
 25 26  1  0  0  0  0
 25 27  1  0  0  0  0
 25 33  1  0  0  0  0
 27 28  1  0  0  0  0
 27 29  1  0  0  0  0
 27 50  1  0  0  0  0
 29 30  1  0  0  0  0
 29 31  1  0  0  0  0
 29 48  1  0  0  0  0
 31 32  1  0  0  0  0
 31 33  1  0  0  0  0
 31 34  1  0  0  0  0
 34 35  1  0  0  0  0
 34 44  1  0  0  0  0
 35 36  1  0  0  0  0
 35 37  2  0  0  0  0
 37 38  1  0  0  0  0
 38 39  1  0  0  0  0
 38 44  2  0  0  0  0
 39 40  2  0  0  0  0
 39 45  1  0  0  0  0
 40 41  1  0  0  0  0
 41 42  1  0  0  0  0
 41 43  2  0  0  0  0
 43 44  1  0  0  0  0
 45 46  1  0  0  0  0
 45 47  1  0  0  0  0
 48 49  1  0  0  0  0
 50 51  1  0  0  0  0
 51 52  2  0  0  0  0
 51 53  1  0  0  0  0
 51 54  1  0  0  0  0
 55 56  1  0  0  0  0
 55 57  1  0  0  0  0
 55104  1  0  0  0  0
 57 58  2  0  0  0  0
 57 59  1  0  0  0  0
 59 60  1  0  0  0  0
 59 61  1  0  0  0  0
 61 62  1  0  0  0  0
 61 63  1  0  0  0  0
 61 64  1  0  0  0  0
 64 65  1  0  0  0  0
 64 66  1  0  0  0  0
 64 67  1  0  0  0  0
 67 68  2  0  0  0  0
 67 69  1  0  0  0  0
 69 70  1  0  0  0  0
 69 71  1  0  0  0  0
 71 72  1  0  0  0  0
 71 73  1  0  0  0  0
 71 74  1  0  0  0  0
 74 75  1  0  0  0  0
 74 76  1  0  0  0  0
 74 77  1  0  0  0  0
 77 78  1  0  0  0  0
 78 79  2  0  0  0  0
 78 80  1  0  0  0  0
 80 81  1  0  0  0  0
 80 82  1  0  0  0  0
 80 83  1  0  0  0  0
 83 84  2  0  0  0  0
 83 85  1  0  0  0  0
 85 86  1  0  0  0  0
 85 87  2  0  0  0  0
 87 88  1  0  0  0  0
 87 89  1  0  0  0  0
 89 90  2  0  0  0  0
 89 96  1  0  0  0  0
 90 91  1  0  0  0  0
 90 92  1  0  0  0  0
 92 93  2  0  0  0  0
 92 99  1  0  0  0  0
 93 94  1  0  0  0  0
 93 98  1  0  0  0  0
 94 95  1  0  0  0  0
 94 96  2  0  0  0  0
 96 97  1  0  0  0  0
 99100  1  0  0  0  0
100101  1  0  0  0  0
100102  1  0  0  0  0
100103  1  0  0  0  0
104105  1  0  0  0  0
M  BCL ATM C_TeTeTeTe H_S H_S H_S C_TeTeTeTe C_TeTeTeTe H_S H_S H_S C_TeTeTeTe H_S H_S O_Tr2TrTrPi2 P_TeTeTeTePi O_Tr2Tr2TrPi O_Te2Te2Te2Te O_Tr2TrTrPi2 P_TeTeTeTePi O_Te2Te2TeTe O_Tr2Tr2TrPi O_Tr2TrTrPi2 C_TeTeTeTe H_S H_S C_TeTeTeTe H_S C_TeTeTeTe H_S C_TeTeTeTe H_S C_TeTeTeTe H_S O_Te2Te2TeTe N_TrTrTrPi2 C_TrTrTrPi H_S N_Tr2TrTrPi C_TrTrTrPi C_TrTrTrPi N_Tr2TrTrPi C_TrTrTrPi H_S N_Tr2TrTrPi C_TrTrTrPi N_TrTrTrPi2 H_S H_S O_Te2Te2TeTe H_S O_Tr2TrTrPi2 P_TeTeTeTePi O_Tr2Tr2TrPi O_Te2Te2Te2Te O_Te2Te2Te2Te C_TeTeTeTe H_S C_TrTrTrPi O_Tr2Tr2TrPi N_TrTrTrPi2 H_S C_TeTeTeTe H_S H_S C_TeTeTeTe H_S H_S C_TrTrTrPi O_Tr2Tr2TrPi N_TrTrTrPi2 H_S C_TeTeTeTe H_S H_S C_TeTeTeTe H_S H_S S_Te2Te2TeTe C_TrTrTrPi O_Tr2Tr2TrPi C_TeTeTeTe H_S H_S C_TrTrTrPi O_Tr2Tr2TrPi C_TrTrTrPi H_S C_TrTrTrPi H_S C_TrTrTrPi C_TrTrTrPi H_S C_TrTrTrPi C_TrTrTrPi C_TrTrTrPi H_S C_TrTrTrPi H_S O_Te2Te2Te2Te O_Tr2TrTrPi2 C_TeTeTeTe H_S H_S H_S O_Te2Te2TeTe H_S
M  BCL BND NonConjugatedSingleBond NonConjugatedSingleBond NonConjugatedSingleBond NonConjugatedSingleBond NonConjugatedSingleBond NonConjugatedSingleBond NonConjugatedSingleBond NonConjugatedSingleBond NonConjugatedSingleBond NonConjugatedSingleBond NonConjugatedSingleBond NonConjugatedSingleBond NonConjugatedSingleBond ConjugatedSingleBond ConjugatedDoubleBond ConjugatedSingleBond ConjugatedSingleBond ConjugatedSingleBond ConjugatedSingleBond ConjugatedDoubleBond ConjugatedSingleBond NonConjugatedSingleBond NonConjugatedSingleBond NonConjugatedSingleBond NonConjugatedSingleBond NonConjugatedSingleBond NonConjugatedSingleBondInRing NonConjugatedSingleBondInRing NonConjugatedSingleBond NonConjugatedSingleBondInRing NonConjugatedSingleBond NonConjugatedSingleBond NonConjugatedSingleBondInRing NonConjugatedSingleBond NonConjugatedSingleBond NonConjugatedSingleBondInRing NonConjugatedSingleBond AromaticSingleBond AromaticSingleBond NonConjugatedSingleBond AromaticDoubleBond AromaticSingleBond AromaticSingleBond AromaticDoubleBond AromaticDoubleBond ConjugatedSingleBond AromaticSingleBond NonConjugatedSingleBond AromaticDoubleBond AromaticSingleBond NonConjugatedSingleBond NonConjugatedSingleBond NonConjugatedSingleBond ConjugatedSingleBond ConjugatedDoubleBond ConjugatedSingleBond ConjugatedSingleBond NonConjugatedSingleBond NonConjugatedSingleBond NonConjugatedSingleBond ConjugatedDoubleBond AmideSingleBond NonConjugatedSingleBond NonConjugatedSingleBond NonConjugatedSingleBond NonConjugatedSingleBond NonConjugatedSingleBond NonConjugatedSingleBond NonConjugatedSingleBond NonConjugatedSingleBond ConjugatedDoubleBond AmideSingleBond NonConjugatedSingleBond NonConjugatedSingleBond NonConjugatedSingleBond NonConjugatedSingleBond NonConjugatedSingleBond NonConjugatedSingleBond NonConjugatedSingleBond NonConjugatedSingleBond ConjugatedSingleBond ConjugatedDoubleBond NonConjugatedSingleBond NonConjugatedSingleBond NonConjugatedSingleBond NonConjugatedSingleBond ConjugatedDoubleBond ConjugatedSingleBond NonConjugatedSingleBond ConjugatedDoubleBond NonConjugatedSingleBond ConjugatedSingleBond AromaticDoubleBond AromaticSingleBond NonConjugatedSingleBond AromaticSingleBond AromaticDoubleBond ConjugatedSingleBond AromaticSingleBond ConjugatedSingleBond NonConjugatedSingleBond AromaticDoubleBond NonConjugatedSingleBond NonConjugatedSingleBond NonConjugatedSingleBond NonConjugatedSingleBond NonConjugatedSingleBond NonConjugatedSingleBond
M  BCL CHI  14   R  18   S  25   R  27   R  29   R  31   S  55   R
M  BCL DBI - - - - - - - - - - - E - - -
M  END
> <ConfClashScore>
0 

> <ConfOneFourInteractionScore>
-0.97415 

> <ConfScore>
0.119645 

> <ConfScorePBest>
0.0115965 

> <ConfTolerance>
3.01347 

$$$$
L03.****
  PyMOL2.5          3D                             0

105108  0  0  0  0  0  0  0  0999 V2000
   -4.6561  -11.9828    2.7140 C   0  0  0  1  0  0  0  0  0  0  0  0
   -5.4113  -12.5927    3.1643 H   0  0  0  1  0  0  0  0  0  0  0  0
   -4.2975  -11.2730    3.4299 H   0  0  0  1  0  0  0  0  0  0  0  0
   -3.8463  -12.6013    2.3877 H   0  0  0  1  0  0  0  0  0  0  0  0
   -5.2484  -11.2398    1.5106 C   0  0  0  1  0  0  0  0  0  0  0  0
   -5.3798  -12.2457    0.3608 C   0  0  0  1  0  0  0  0  0  0  0  0
   -4.4128  -12.6282    0.1087 H   0  0  0  1  0  0  0  0  0  0  0  0
   -5.8038  -11.7585   -0.4923 H   0  0  0  1  0  0  0  0  0  0  0  0
   -6.0143  -13.0523    0.6636 H   0  0  0  1  0  0  0  0  0  0  0  0
   -4.3420  -10.1443    1.1159 C   0  0  0  1  0  0  0  0  0  0  0  0
   -4.4077   -9.3558    1.8362 H   0  0  0  1  0  0  0  0  0  0  0  0
   -4.6331   -9.7752    0.1547 H   0  0  0  1  0  0  0  0  0  0  0  0
   -2.9731  -10.6185    1.0507 O   0  0  0  1  0  0  0  0  0  0  0  0
   -1.8416   -9.7314    0.4114 P   0  0  0  1  0  0  0  0  0  0  0  0
   -2.5756   -9.7205   -0.8737 O   0  0  0  1  0  0  0  0  0  0  0  0
   -2.1738   -9.3388    1.9476 O   0  5  0  1  0  0  0  0  0  0  0  0
   -0.6861   -8.8252   -0.2420 O   0  0  0  1  0  0  0  0  0  0  0  0
   -0.8310   -7.7392   -1.4147 P   0  0  0  1  0  0  0  0  0  0  0  0
   -0.5307   -8.3624   -2.7351 O   0  0  0  0  0  0  0  0  0  0  0  0
   -0.0402   -6.5133   -1.0756 O   0  0  0  1  0  0  0  0  0  0  0  0
   -2.3521   -7.3631   -1.2705 O   0  0  0  1  0  0  0  0  0  0  0  0
   -3.0670   -6.5605   -2.2454 C   0  0  0  1  0  0  0  0  0  0  0  0
   -3.8024   -7.1591   -2.7413 H   0  0  0  1  0  0  0  0  0  0  0  0
   -2.3815   -6.1669   -2.9665 H   0  0  0  1  0  0  0  0  0  0  0  0
   -3.7400   -5.4283   -1.5031 C   0  0  0  1  0  0  0  0  0  0  0  0
   -4.4395   -5.8286   -0.7993 H   0  0  0  1  0  0  0  0  0  0  0  0
   -4.4513   -4.5340   -2.4752 C   0  0  0  1  0  0  0  0  0  0  0  0
   -5.4950   -4.5017   -2.2417 H   0  0  0  1  0  0  0  0  0  0  0  0
   -3.8616   -3.1599   -2.3594 C   0  0  0  1  0  0  0  0  0  0  0  0
   -4.6198   -2.4627   -2.0698 H   0  0  0  1  0  0  0  0  0  0  0  0
   -2.7851   -3.2044   -1.3151 C   0  0  0  1  0  0  0  0  0  0  0  0
   -3.0223   -2.5286   -0.5201 H   0  0  0  1  0  0  0  0  0  0  0  0
   -2.7102   -4.6066   -0.7861 O   0  0  0  1  0  0  0  0  0  0  0  0
   -1.5016   -2.8286   -1.9089 N   0  0  0  1  0  0  0  0  0  0  0  0
   -0.4460   -3.6529   -2.1934 C   0  0  0  1  0  0  0  0  0  0  0  0
   -0.4626   -4.6748   -2.0008 H   0  0  0  1  0  0  0  0  0  0  0  0
    0.5827   -3.0517   -2.7260 N   0  0  0  1  0  0  0  0  0  0  0  0
    0.1805   -1.7329   -2.7972 C   0  0  0  1  0  0  0  0  0  0  0  0
    0.7944   -0.5706   -3.2706 C   0  0  0  1  0  0  0  0  0  0  0  0
    0.1380    0.5929   -3.2074 N   0  0  0  1  0  0  0  0  0  0  0  0
   -1.1122    0.5817   -2.6977 C   0  0  0  1  0  0  0  0  0  0  0  0
   -1.5967    1.5017   -2.6736 H   0  0  0  1  0  0  0  0  0  0  0  0
   -1.8076   -0.4479   -2.2221 N   0  0  0  1  0  0  0  0  0  0  0  0
   -1.1017   -1.5778   -2.2979 C   0  0  0  1  0  0  0  0  0  0  0  0
    2.0817   -0.6233   -3.8050 N   0  0  0  1  0  0  0  0  0  0  0  0
    2.4849    0.1817   -4.1921 H   0  0  0  1  0  0  0  0  0  0  0  0
    2.5830   -1.4653   -3.7934 H   0  0  0  1  0  0  0  0  0  0  0  0
   -3.3042   -2.7644   -3.6136 O   0  0  0  1  0  0  0  0  0  0  0  0
   -2.4992   -3.2611   -3.7774 H   0  0  0  1  0  0  0  0  0  0  0  0
   -4.2722   -5.0341   -3.8256 O   0  0  0  1  0  0  0  0  0  0  0  0
   -5.4232   -4.9116   -4.9874 P   0  0  0  1  0  0  0  0  0  0  0  0
   -6.7624   -5.1186   -4.3922 O   0  0  0  1  0  0  0  0  0  0  0  0
   -5.1372   -3.5210   -5.7677 O   0  5  0  1  0  0  0  0  0  0  0  0
   -4.9871   -5.9340   -6.1659 O   0  5  0  1  0  0  0  0  0  0  0  0
   -6.6413  -10.7114    1.8736 C   0  0  0  1  0  0  0  0  0  0  0  0
   -7.2493  -11.5559    2.1227 H   0  0  0  1  0  0  0  0  0  0  0  0
   -6.5529   -9.8230    3.1148 C   0  0  0  1  0  0  0  0  0  0  0  0
   -6.1817  -10.2917    4.1876 O   0  0  0  1  0  0  0  0  0  0  0  0
   -6.9794   -8.5627    2.9930 N   0  0  0  1  0  0  0  0  0  0  0  0
   -7.3923   -8.2650    2.1555 H   0  0  0  1  0  0  0  0  0  0  0  0
   -6.8320   -7.6310    4.1012 C   0  0  0  1  0  0  0  0  0  0  0  0
   -7.1635   -8.1105    4.9985 H   0  0  0  1  0  0  0  0  0  0  0  0
   -7.4401   -6.7717    3.9098 H   0  0  0  1  0  0  0  0  0  0  0  0
   -5.3913   -7.1763    4.2944 C   0  0  0  1  0  0  0  0  0  0  0  0
   -5.1268   -6.5294    3.4842 H   0  0  0  1  0  0  0  0  0  0  0  0
   -4.7578   -8.0385    4.2845 H   0  0  0  1  0  0  0  0  0  0  0  0
   -5.1731   -6.4320    5.5973 C   0  0  0  1  0  0  0  0  0  0  0  0
   -5.6121   -6.8645    6.6597 O   0  0  0  1  0  0  0  0  0  0  0  0
   -4.4782   -5.2879    5.5057 N   0  0  0  1  0  0  0  0  0  0  0  0
   -4.1622   -5.0196    4.6177 H   0  0  0  1  0  0  0  0  0  0  0  0
   -4.1576   -4.4134    6.6282 C   0  0  0  1  0  0  0  0  0  0  0  0
   -4.7855   -4.6726    7.4549 H   0  0  0  1  0  0  0  0  0  0  0  0
   -4.3474   -3.4009    6.3391 H   0  0  0  1  0  0  0  0  0  0  0  0
   -2.7168   -4.5308    7.0600 C   0  0  0  1  0  0  0  0  0  0  0  0
   -2.0913   -4.2916    6.2256 H   0  0  0  1  0  0  0  0  0  0  0  0
   -2.5346   -5.5400    7.3654 H   0  0  0  1  0  0  0  0  0  0  0  0
   -2.2921   -3.4302    8.4308 S   0  0  0  1  0  0  0  0  0  0  0  0
   -0.8090   -4.2307    8.9234 C   0  0  0  1  0  0  0  0  0  0  0  0
   -0.4783   -4.3871   10.0619 O   0  0  0  1  0  0  0  0  0  0  0  0
    0.0121   -4.8072    7.7961 C   0  0  0  1  0  0  0  0  0  0  0  0
    1.0466   -4.6966    8.0463 H   0  0  0  1  0  0  0  0  0  0  0  0
   -0.2021   -4.2498    6.9082 H   0  0  0  1  0  0  0  0  0  0  0  0
   -0.2499   -6.2658    7.5108 C   0  0  0  1  0  0  0  0  0  0  0  0
   -1.1729   -6.8574    8.0185 O   0  0  0  1  0  0  0  0  0  0  0  0
    0.6855   -6.8962    6.5871 C   0  0  0  1  0  0  0  0  0  0  0  0
    1.4328   -6.2958    6.1837 H   0  0  0  1  0  0  0  0  0  0  0  0
    0.6650   -8.1756    6.2155 C   0  0  0  1  0  0  0  0  0  0  0  0
   -0.0823   -8.7759    6.6189 H   0  0  0  1  0  0  0  0  0  0  0  0
    1.6176   -8.8176    5.2749 C   0  0  0  1  0  0  0  0  0  0  0  0
    1.5505  -10.1782    5.0420 C   0  0  0  1  0  0  0  0  0  0  0  0
    0.7930  -10.7434    5.4760 H   0  0  0  1  0  0  0  0  0  0  0  0
    2.4929  -10.7896    4.2298 C   0  0  0  1  0  0  0  0  0  0  0  0
    3.5028  -10.0395    3.6572 C   0  0  0  1  0  0  0  0  0  0  0  0
    3.5700   -8.6748    3.8909 C   0  0  0  1  0  0  0  0  0  0  0  0
    4.3275   -8.1096    3.4569 H   0  0  0  1  0  0  0  0  0  0  0  0
    2.6304   -8.0651    4.7007 C   0  0  0  1  0  0  0  0  0  0  0  0
    2.6832   -7.0419    4.8793 H   0  0  0  1  0  0  0  0  0  0  0  0
    4.3939  -10.7077    2.8769 O   0  5  0  1  0  0  0  0  0  0  0  0
    2.3235  -12.1167    4.0713 O   0  0  0  1  0  0  0  0  0  0  0  0
    0.9514  -12.5704    4.1343 C   0  0  0  1  0  0  0  0  0  0  0  0
    0.9116  -13.6183    3.9215 H   0  0  0  1  0  0  0  0  0  0  0  0
    0.3664  -12.0379    3.4137 H   0  0  0  1  0  0  0  0  0  0  0  0
    0.5611  -12.3907    5.1143 H   0  0  0  1  0  0  0  0  0  0  0  0
   -7.1914  -10.0660    0.7471 O   0  0  0  1  0  0  0  0  0  0  0  0
   -6.4943   -9.6180    0.2623 H   0  0  0  1  0  0  0  0  0  0  0  0
  1  2  1  0  0  0  0
  1  3  1  0  0  0  0
  1  4  1  0  0  0  0
  1  5  1  0  0  0  0
  5  6  1  0  0  0  0
  5 10  1  0  0  0  0
  5 55  1  0  0  0  0
  6  7  1  0  0  0  0
  6  8  1  0  0  0  0
  6  9  1  0  0  0  0
 10 11  1  0  0  0  0
 10 12  1  0  0  0  0
 10 13  1  0  0  0  0
 13 14  1  0  0  0  0
 14 15  2  0  0  0  0
 14 16  1  0  0  0  0
 14 17  1  0  0  0  0
 17 18  1  0  0  0  0
 18 19  1  0  0  0  0
 18 20  2  0  0  0  0
 18 21  1  0  0  0  0
 21 22  1  0  0  0  0
 22 23  1  0  0  0  0
 22 24  1  0  0  0  0
 22 25  1  0  0  0  0
 25 26  1  0  0  0  0
 25 27  1  0  0  0  0
 25 33  1  0  0  0  0
 27 28  1  0  0  0  0
 27 29  1  0  0  0  0
 27 50  1  0  0  0  0
 29 30  1  0  0  0  0
 29 31  1  0  0  0  0
 29 48  1  0  0  0  0
 31 32  1  0  0  0  0
 31 33  1  0  0  0  0
 31 34  1  0  0  0  0
 34 35  1  0  0  0  0
 34 44  1  0  0  0  0
 35 36  1  0  0  0  0
 35 37  2  0  0  0  0
 37 38  1  0  0  0  0
 38 39  1  0  0  0  0
 38 44  2  0  0  0  0
 39 40  2  0  0  0  0
 39 45  1  0  0  0  0
 40 41  1  0  0  0  0
 41 42  1  0  0  0  0
 41 43  2  0  0  0  0
 43 44  1  0  0  0  0
 45 46  1  0  0  0  0
 45 47  1  0  0  0  0
 48 49  1  0  0  0  0
 50 51  1  0  0  0  0
 51 52  2  0  0  0  0
 51 53  1  0  0  0  0
 51 54  1  0  0  0  0
 55 56  1  0  0  0  0
 55 57  1  0  0  0  0
 55104  1  0  0  0  0
 57 58  2  0  0  0  0
 57 59  1  0  0  0  0
 59 60  1  0  0  0  0
 59 61  1  0  0  0  0
 61 62  1  0  0  0  0
 61 63  1  0  0  0  0
 61 64  1  0  0  0  0
 64 65  1  0  0  0  0
 64 66  1  0  0  0  0
 64 67  1  0  0  0  0
 67 68  2  0  0  0  0
 67 69  1  0  0  0  0
 69 70  1  0  0  0  0
 69 71  1  0  0  0  0
 71 72  1  0  0  0  0
 71 73  1  0  0  0  0
 71 74  1  0  0  0  0
 74 75  1  0  0  0  0
 74 76  1  0  0  0  0
 74 77  1  0  0  0  0
 77 78  1  0  0  0  0
 78 79  2  0  0  0  0
 78 80  1  0  0  0  0
 80 81  1  0  0  0  0
 80 82  1  0  0  0  0
 80 83  1  0  0  0  0
 83 84  2  0  0  0  0
 83 85  1  0  0  0  0
 85 86  1  0  0  0  0
 85 87  2  0  0  0  0
 87 88  1  0  0  0  0
 87 89  1  0  0  0  0
 89 90  2  0  0  0  0
 89 96  1  0  0  0  0
 90 91  1  0  0  0  0
 90 92  1  0  0  0  0
 92 93  2  0  0  0  0
 92 99  1  0  0  0  0
 93 94  1  0  0  0  0
 93 98  1  0  0  0  0
 94 95  1  0  0  0  0
 94 96  2  0  0  0  0
 96 97  1  0  0  0  0
 99100  1  0  0  0  0
100101  1  0  0  0  0
100102  1  0  0  0  0
100103  1  0  0  0  0
104105  1  0  0  0  0
M  BCL ATM C_TeTeTeTe H_S H_S H_S C_TeTeTeTe C_TeTeTeTe H_S H_S H_S C_TeTeTeTe H_S H_S O_Tr2TrTrPi2 P_TeTeTeTePi O_Tr2Tr2TrPi O_Te2Te2Te2Te O_Tr2TrTrPi2 P_TeTeTeTePi O_Te2Te2TeTe O_Tr2Tr2TrPi O_Tr2TrTrPi2 C_TeTeTeTe H_S H_S C_TeTeTeTe H_S C_TeTeTeTe H_S C_TeTeTeTe H_S C_TeTeTeTe H_S O_Te2Te2TeTe N_TrTrTrPi2 C_TrTrTrPi H_S N_Tr2TrTrPi C_TrTrTrPi C_TrTrTrPi N_Tr2TrTrPi C_TrTrTrPi H_S N_Tr2TrTrPi C_TrTrTrPi N_TrTrTrPi2 H_S H_S O_Te2Te2TeTe H_S O_Tr2TrTrPi2 P_TeTeTeTePi O_Tr2Tr2TrPi O_Te2Te2Te2Te O_Te2Te2Te2Te C_TeTeTeTe H_S C_TrTrTrPi O_Tr2Tr2TrPi N_TrTrTrPi2 H_S C_TeTeTeTe H_S H_S C_TeTeTeTe H_S H_S C_TrTrTrPi O_Tr2Tr2TrPi N_TrTrTrPi2 H_S C_TeTeTeTe H_S H_S C_TeTeTeTe H_S H_S S_Te2Te2TeTe C_TrTrTrPi O_Tr2Tr2TrPi C_TeTeTeTe H_S H_S C_TrTrTrPi O_Tr2Tr2TrPi C_TrTrTrPi H_S C_TrTrTrPi H_S C_TrTrTrPi C_TrTrTrPi H_S C_TrTrTrPi C_TrTrTrPi C_TrTrTrPi H_S C_TrTrTrPi H_S O_Te2Te2Te2Te O_Tr2TrTrPi2 C_TeTeTeTe H_S H_S H_S O_Te2Te2TeTe H_S
M  BCL BND NonConjugatedSingleBond NonConjugatedSingleBond NonConjugatedSingleBond NonConjugatedSingleBond NonConjugatedSingleBond NonConjugatedSingleBond NonConjugatedSingleBond NonConjugatedSingleBond NonConjugatedSingleBond NonConjugatedSingleBond NonConjugatedSingleBond NonConjugatedSingleBond NonConjugatedSingleBond ConjugatedSingleBond ConjugatedDoubleBond ConjugatedSingleBond ConjugatedSingleBond ConjugatedSingleBond ConjugatedSingleBond ConjugatedDoubleBond ConjugatedSingleBond NonConjugatedSingleBond NonConjugatedSingleBond NonConjugatedSingleBond NonConjugatedSingleBond NonConjugatedSingleBond NonConjugatedSingleBondInRing NonConjugatedSingleBondInRing NonConjugatedSingleBond NonConjugatedSingleBondInRing NonConjugatedSingleBond NonConjugatedSingleBond NonConjugatedSingleBondInRing NonConjugatedSingleBond NonConjugatedSingleBond NonConjugatedSingleBondInRing NonConjugatedSingleBond AromaticSingleBond AromaticSingleBond NonConjugatedSingleBond AromaticDoubleBond AromaticSingleBond AromaticSingleBond AromaticDoubleBond AromaticDoubleBond ConjugatedSingleBond AromaticSingleBond NonConjugatedSingleBond AromaticDoubleBond AromaticSingleBond NonConjugatedSingleBond NonConjugatedSingleBond NonConjugatedSingleBond ConjugatedSingleBond ConjugatedDoubleBond ConjugatedSingleBond ConjugatedSingleBond NonConjugatedSingleBond NonConjugatedSingleBond NonConjugatedSingleBond ConjugatedDoubleBond AmideSingleBond NonConjugatedSingleBond NonConjugatedSingleBond NonConjugatedSingleBond NonConjugatedSingleBond NonConjugatedSingleBond NonConjugatedSingleBond NonConjugatedSingleBond NonConjugatedSingleBond ConjugatedDoubleBond AmideSingleBond NonConjugatedSingleBond NonConjugatedSingleBond NonConjugatedSingleBond NonConjugatedSingleBond NonConjugatedSingleBond NonConjugatedSingleBond NonConjugatedSingleBond NonConjugatedSingleBond ConjugatedSingleBond ConjugatedDoubleBond NonConjugatedSingleBond NonConjugatedSingleBond NonConjugatedSingleBond NonConjugatedSingleBond ConjugatedDoubleBond ConjugatedSingleBond NonConjugatedSingleBond ConjugatedDoubleBond NonConjugatedSingleBond ConjugatedSingleBond AromaticDoubleBond AromaticSingleBond NonConjugatedSingleBond AromaticSingleBond AromaticDoubleBond ConjugatedSingleBond AromaticSingleBond ConjugatedSingleBond NonConjugatedSingleBond AromaticDoubleBond NonConjugatedSingleBond NonConjugatedSingleBond NonConjugatedSingleBond NonConjugatedSingleBond NonConjugatedSingleBond NonConjugatedSingleBond
M  BCL CHI  14   R  18   S  25   R  27   R  29   R  31   S  55   R
M  BCL DBI - - - - - - - - - - - E - - -
M  END
> <ConfClashScore>
0 

> <ConfOneFourInteractionScore>
-0.964134 

> <ConfScore>
0.12213 

> <ConfScorePBest>
0.0114935 

> <ConfTolerance>
2.75222 

$$$$
L03.****
  PyMOL2.5          3D                             0

105108  0  0  0  0  0  0  0  0999 V2000
  -10.9152    0.2991   -7.0754 C   0  0  0  1  0  0  0  0  0  0  0  0
  -11.8091    0.3491   -6.4895 H   0  0  0  1  0  0  0  0  0  0  0  0
  -11.0478    0.8606   -7.9765 H   0  0  0  1  0  0  0  0  0  0  0  0
  -10.0994    0.7079   -6.5166 H   0  0  0  1  0  0  0  0  0  0  0  0
  -10.6136   -1.1614   -7.4241 C   0  0  0  1  0  0  0  0  0  0  0  0
  -11.8958   -1.9955   -7.3163 C   0  0  0  1  0  0  0  0  0  0  0  0
  -11.9886   -2.3810   -6.3225 H   0  0  0  1  0  0  0  0  0  0  0  0
  -11.8519   -2.8080   -8.0112 H   0  0  0  1  0  0  0  0  0  0  0  0
  -12.7416   -1.3794   -7.5401 H   0  0  0  1  0  0  0  0  0  0  0  0
   -9.5741   -1.6466   -6.4680 C   0  0  0  1  0  0  0  0  0  0  0  0
   -9.3636   -2.6794   -6.6519 H   0  0  0  1  0  0  0  0  0  0  0  0
   -9.9192   -1.5260   -5.4624 H   0  0  0  1  0  0  0  0  0  0  0  0
   -8.3808   -0.8555   -6.6778 O   0  0  0  1  0  0  0  0  0  0  0  0
   -7.0049   -1.1727   -5.9832 P   0  0  0  1  0  0  0  0  0  0  0  0
   -6.6822   -2.1344   -7.0609 O   0  0  0  1  0  0  0  0  0  0  0  0
   -7.4195    0.3912   -5.9013 O   0  5  0  1  0  0  0  0  0  0  0  0
   -5.5902   -1.4992   -5.2695 O   0  0  0  1  0  0  0  0  0  0  0  0
   -4.9416   -0.5212   -4.1726 P   0  0  0  1  0  0  0  0  0  0  0  0
   -5.1871    0.9015   -4.5162 O   0  0  0  0  0  0  0  0  0  0  0  0
   -3.5753   -1.0111   -3.9865 O   0  0  0  1  0  0  0  0  0  0  0  0
   -5.7990   -0.7595   -2.8748 O   0  0  0  1  0  0  0  0  0  0  0  0
   -5.1737   -0.7918   -1.5657 C   0  0  0  1  0  0  0  0  0  0  0  0
   -5.8297   -0.3620   -0.8378 H   0  0  0  1  0  0  0  0  0  0  0  0
   -4.2552   -0.2433   -1.5869 H   0  0  0  1  0  0  0  0  0  0  0  0
   -4.9010   -2.2410   -1.2221 C   0  0  0  1  0  0  0  0  0  0  0  0
   -5.7917   -2.8160   -1.3665 H   0  0  0  1  0  0  0  0  0  0  0  0
   -4.4167   -2.3622    0.2439 C   0  0  0  1  0  0  0  0  0  0  0  0
   -4.8246   -3.2327    0.7137 H   0  0  0  1  0  0  0  0  0  0  0  0
   -2.9102   -2.4779    0.0919 C   0  0  0  1  0  0  0  0  0  0  0  0
   -2.4859   -3.0596    0.8834 H   0  0  0  1  0  0  0  0  0  0  0  0
   -2.7634   -3.1919   -1.2612 C   0  0  0  1  0  0  0  0  0  0  0  0
   -2.8064   -4.2528   -1.1286 H   0  0  0  1  0  0  0  0  0  0  0  0
   -3.8376   -2.7556   -2.0432 O   0  0  0  1  0  0  0  0  0  0  0  0
   -1.4950   -2.8299   -1.8922 N   0  0  0  1  0  0  0  0  0  0  0  0
   -0.4536   -3.6724   -2.1976 C   0  0  0  1  0  0  0  0  0  0  0  0
   -0.4794   -4.6975   -2.0240 H   0  0  0  1  0  0  0  0  0  0  0  0
    0.5803   -3.0563   -2.7315 N   0  0  0  1  0  0  0  0  0  0  0  0
    0.1818   -1.7287   -2.8013 C   0  0  0  1  0  0  0  0  0  0  0  0
    0.8140   -0.5664   -3.2814 C   0  0  0  1  0  0  0  0  0  0  0  0
    0.1329    0.5964   -3.2204 N   0  0  0  1  0  0  0  0  0  0  0  0
   -1.1113    0.5772   -2.7149 C   0  0  0  1  0  0  0  0  0  0  0  0
   -1.5959    1.4972   -2.6988 H   0  0  0  1  0  0  0  0  0  0  0  0
   -1.8170   -0.4421   -2.2316 N   0  0  0  1  0  0  0  0  0  0  0  0
   -1.1030   -1.5802   -2.2994 C   0  0  0  1  0  0  0  0  0  0  0  0
    2.0779   -0.6144   -3.7932 N   0  0  0  1  0  0  0  0  0  0  0  0
    2.5081    0.2056   -4.1141 H   0  0  0  1  0  0  0  0  0  0  0  0
    2.5556   -1.4688   -3.8398 H   0  0  0  1  0  0  0  0  0  0  0  0
   -2.2945   -1.1894    0.0641 O   0  0  0  1  0  0  0  0  0  0  0  0
   -2.9664   -0.5110    0.1634 H   0  0  0  1  0  0  0  0  0  0  0  0
   -4.7736   -1.1900    1.0080 O   0  0  0  1  0  0  0  0  0  0  0  0
   -6.3293   -0.9151    1.4485 P   0  0  0  1  0  0  0  0  0  0  0  0
   -6.4795   -0.9763    2.9196 O   0  0  0  1  0  0  0  0  0  0  0  0
   -6.5810    0.6070    0.9543 O   0  5  0  1  0  0  0  0  0  0  0  0
   -7.3046   -1.9213    0.6356 O   0  5  0  1  0  0  0  0  0  0  0  0
  -10.0772   -1.2822   -8.8554 C   0  0  0  1  0  0  0  0  0  0  0  0
  -10.8965   -1.0721   -9.5108 H   0  0  0  1  0  0  0  0  0  0  0  0
   -9.0137   -0.2343   -9.1269 C   0  0  0  1  0  0  0  0  0  0  0  0
   -9.2156    0.9562   -8.8913 O   0  0  0  1  0  0  0  0  0  0  0  0
   -7.8585   -0.6935   -9.6336 N   0  0  0  1  0  0  0  0  0  0  0  0
   -7.7974   -1.6366   -9.8927 H   0  0  0  1  0  0  0  0  0  0  0  0
   -6.6765    0.1731   -9.8139 C   0  0  0  1  0  0  0  0  0  0  0  0
   -5.7827   -0.3928   -9.6529 H   0  0  0  1  0  0  0  0  0  0  0  0
   -6.7134    0.9873   -9.1207 H   0  0  0  1  0  0  0  0  0  0  0  0
   -6.7014    0.7052  -11.2375 C   0  0  0  1  0  0  0  0  0  0  0  0
   -7.6357    1.2051  -11.3866 H   0  0  0  1  0  0  0  0  0  0  0  0
   -6.6328   -0.1296  -11.9032 H   0  0  0  1  0  0  0  0  0  0  0  0
   -5.5904    1.6757  -11.5882 C   0  0  0  1  0  0  0  0  0  0  0  0
   -5.4773    2.7537  -11.0066 O   0  0  0  1  0  0  0  0  0  0  0  0
   -4.7554    1.2791  -12.5616 N   0  0  0  1  0  0  0  0  0  0  0  0
   -4.8910    0.4267  -13.0257 H   0  0  0  1  0  0  0  0  0  0  0  0
   -3.6429    2.1511  -12.9081 C   0  0  0  1  0  0  0  0  0  0  0  0
   -3.8991    3.1555  -12.6428 H   0  0  0  1  0  0  0  0  0  0  0  0
   -3.4765    2.0917  -13.9634 H   0  0  0  1  0  0  0  0  0  0  0  0
   -2.3583    1.7704  -12.1903 C   0  0  0  1  0  0  0  0  0  0  0  0
   -2.0124    0.8376  -12.5842 H   0  0  0  1  0  0  0  0  0  0  0  0
   -2.5713    1.6606  -11.1474 H   0  0  0  1  0  0  0  0  0  0  0  0
   -1.0442    2.9980  -12.3823 S   0  0  0  1  0  0  0  0  0  0  0  0
   -1.4379    4.1638  -11.1298 C   0  0  0  1  0  0  0  0  0  0  0  0
   -2.3984    4.1039  -10.4106 O   0  0  0  1  0  0  0  0  0  0  0  0
   -0.4864    5.3345  -11.0908 C   0  0  0  1  0  0  0  0  0  0  0  0
    0.2935    5.1545  -11.8009 H   0  0  0  1  0  0  0  0  0  0  0  0
   -0.0680    5.3919  -10.1076 H   0  0  0  1  0  0  0  0  0  0  0  0
   -1.1167    6.6659  -11.4120 C   0  0  0  1  0  0  0  0  0  0  0  0
   -0.9956    7.1530  -12.5221 O   0  0  0  1  0  0  0  0  0  0  0  0
   -1.8712    7.3581  -10.3741 C   0  0  0  1  0  0  0  0  0  0  0  0
   -2.2329    8.3063  -10.6016 H   0  0  0  1  0  0  0  0  0  0  0  0
   -2.1371    6.8799   -9.1592 C   0  0  0  1  0  0  0  0  0  0  0  0
   -1.7860    5.9338   -8.9080 H   0  0  0  1  0  0  0  0  0  0  0  0
   -2.9121    7.6404   -8.1516 C   0  0  0  1  0  0  0  0  0  0  0  0
   -3.2455    8.9583   -8.4008 C   0  0  0  1  0  0  0  0  0  0  0  0
   -2.9490    9.4107   -9.2891 H   0  0  0  1  0  0  0  0  0  0  0  0
   -3.9751    9.6770   -7.4667 C   0  0  0  1  0  0  0  0  0  0  0  0
   -4.3646    9.0775   -6.2838 C   0  0  0  1  0  0  0  0  0  0  0  0
   -4.0301    7.7556   -6.0340 C   0  0  0  1  0  0  0  0  0  0  0  0
   -4.3265    7.3032   -5.1457 H   0  0  0  1  0  0  0  0  0  0  0  0
   -3.3026    7.0389   -6.9653 C   0  0  0  1  0  0  0  0  0  0  0  0
   -3.0482    6.0484   -6.7761 H   0  0  0  1  0  0  0  0  0  0  0  0
   -5.0758    9.6829   -5.2953 O   0  5  0  1  0  0  0  0  0  0  0  0
   -4.3632   10.9674   -7.6017 O   0  0  0  1  0  0  0  0  0  0  0  0
   -3.8464   11.6937   -8.7277 C   0  0  0  1  0  0  0  0  0  0  0  0
   -4.4800   11.5363   -9.5755 H   0  0  0  1  0  0  0  0  0  0  0  0
   -2.8588   11.3483   -8.9518 H   0  0  0  1  0  0  0  0  0  0  0  0
   -3.8155   12.7376   -8.4948 H   0  0  0  1  0  0  0  0  0  0  0  0
   -9.6191   -2.5883   -9.1246 O   0  0  0  1  0  0  0  0  0  0  0  0
   -9.2638   -2.6259  -10.0156 H   0  0  0  1  0  0  0  0  0  0  0  0
  1  2  1  0  0  0  0
  1  3  1  0  0  0  0
  1  4  1  0  0  0  0
  1  5  1  0  0  0  0
  5  6  1  0  0  0  0
  5 10  1  0  0  0  0
  5 55  1  0  0  0  0
  6  7  1  0  0  0  0
  6  8  1  0  0  0  0
  6  9  1  0  0  0  0
 10 11  1  0  0  0  0
 10 12  1  0  0  0  0
 10 13  1  0  0  0  0
 13 14  1  0  0  0  0
 14 15  2  0  0  0  0
 14 16  1  0  0  0  0
 14 17  1  0  0  0  0
 17 18  1  0  0  0  0
 18 19  1  0  0  0  0
 18 20  2  0  0  0  0
 18 21  1  0  0  0  0
 21 22  1  0  0  0  0
 22 23  1  0  0  0  0
 22 24  1  0  0  0  0
 22 25  1  0  0  0  0
 25 26  1  0  0  0  0
 25 27  1  0  0  0  0
 25 33  1  0  0  0  0
 27 28  1  0  0  0  0
 27 29  1  0  0  0  0
 27 50  1  0  0  0  0
 29 30  1  0  0  0  0
 29 31  1  0  0  0  0
 29 48  1  0  0  0  0
 31 32  1  0  0  0  0
 31 33  1  0  0  0  0
 31 34  1  0  0  0  0
 34 35  1  0  0  0  0
 34 44  1  0  0  0  0
 35 36  1  0  0  0  0
 35 37  2  0  0  0  0
 37 38  1  0  0  0  0
 38 39  1  0  0  0  0
 38 44  2  0  0  0  0
 39 40  2  0  0  0  0
 39 45  1  0  0  0  0
 40 41  1  0  0  0  0
 41 42  1  0  0  0  0
 41 43  2  0  0  0  0
 43 44  1  0  0  0  0
 45 46  1  0  0  0  0
 45 47  1  0  0  0  0
 48 49  1  0  0  0  0
 50 51  1  0  0  0  0
 51 52  2  0  0  0  0
 51 53  1  0  0  0  0
 51 54  1  0  0  0  0
 55 56  1  0  0  0  0
 55 57  1  0  0  0  0
 55104  1  0  0  0  0
 57 58  2  0  0  0  0
 57 59  1  0  0  0  0
 59 60  1  0  0  0  0
 59 61  1  0  0  0  0
 61 62  1  0  0  0  0
 61 63  1  0  0  0  0
 61 64  1  0  0  0  0
 64 65  1  0  0  0  0
 64 66  1  0  0  0  0
 64 67  1  0  0  0  0
 67 68  2  0  0  0  0
 67 69  1  0  0  0  0
 69 70  1  0  0  0  0
 69 71  1  0  0  0  0
 71 72  1  0  0  0  0
 71 73  1  0  0  0  0
 71 74  1  0  0  0  0
 74 75  1  0  0  0  0
 74 76  1  0  0  0  0
 74 77  1  0  0  0  0
 77 78  1  0  0  0  0
 78 79  2  0  0  0  0
 78 80  1  0  0  0  0
 80 81  1  0  0  0  0
 80 82  1  0  0  0  0
 80 83  1  0  0  0  0
 83 84  2  0  0  0  0
 83 85  1  0  0  0  0
 85 86  1  0  0  0  0
 85 87  2  0  0  0  0
 87 88  1  0  0  0  0
 87 89  1  0  0  0  0
 89 90  2  0  0  0  0
 89 96  1  0  0  0  0
 90 91  1  0  0  0  0
 90 92  1  0  0  0  0
 92 93  2  0  0  0  0
 92 99  1  0  0  0  0
 93 94  1  0  0  0  0
 93 98  1  0  0  0  0
 94 95  1  0  0  0  0
 94 96  2  0  0  0  0
 96 97  1  0  0  0  0
 99100  1  0  0  0  0
100101  1  0  0  0  0
100102  1  0  0  0  0
100103  1  0  0  0  0
104105  1  0  0  0  0
M  BCL ATM C_TeTeTeTe H_S H_S H_S C_TeTeTeTe C_TeTeTeTe H_S H_S H_S C_TeTeTeTe H_S H_S O_Tr2TrTrPi2 P_TeTeTeTePi O_Tr2Tr2TrPi O_Te2Te2Te2Te O_Tr2TrTrPi2 P_TeTeTeTePi O_Te2Te2TeTe O_Tr2Tr2TrPi O_Tr2TrTrPi2 C_TeTeTeTe H_S H_S C_TeTeTeTe H_S C_TeTeTeTe H_S C_TeTeTeTe H_S C_TeTeTeTe H_S O_Te2Te2TeTe N_TrTrTrPi2 C_TrTrTrPi H_S N_Tr2TrTrPi C_TrTrTrPi C_TrTrTrPi N_Tr2TrTrPi C_TrTrTrPi H_S N_Tr2TrTrPi C_TrTrTrPi N_TrTrTrPi2 H_S H_S O_Te2Te2TeTe H_S O_Tr2TrTrPi2 P_TeTeTeTePi O_Tr2Tr2TrPi O_Te2Te2Te2Te O_Te2Te2Te2Te C_TeTeTeTe H_S C_TrTrTrPi O_Tr2Tr2TrPi N_TrTrTrPi2 H_S C_TeTeTeTe H_S H_S C_TeTeTeTe H_S H_S C_TrTrTrPi O_Tr2Tr2TrPi N_TrTrTrPi2 H_S C_TeTeTeTe H_S H_S C_TeTeTeTe H_S H_S S_Te2Te2TeTe C_TrTrTrPi O_Tr2Tr2TrPi C_TeTeTeTe H_S H_S C_TrTrTrPi O_Tr2Tr2TrPi C_TrTrTrPi H_S C_TrTrTrPi H_S C_TrTrTrPi C_TrTrTrPi H_S C_TrTrTrPi C_TrTrTrPi C_TrTrTrPi H_S C_TrTrTrPi H_S O_Te2Te2Te2Te O_Tr2TrTrPi2 C_TeTeTeTe H_S H_S H_S O_Te2Te2TeTe H_S
M  BCL BND NonConjugatedSingleBond NonConjugatedSingleBond NonConjugatedSingleBond NonConjugatedSingleBond NonConjugatedSingleBond NonConjugatedSingleBond NonConjugatedSingleBond NonConjugatedSingleBond NonConjugatedSingleBond NonConjugatedSingleBond NonConjugatedSingleBond NonConjugatedSingleBond NonConjugatedSingleBond ConjugatedSingleBond ConjugatedDoubleBond ConjugatedSingleBond ConjugatedSingleBond ConjugatedSingleBond ConjugatedSingleBond ConjugatedDoubleBond ConjugatedSingleBond NonConjugatedSingleBond NonConjugatedSingleBond NonConjugatedSingleBond NonConjugatedSingleBond NonConjugatedSingleBond NonConjugatedSingleBondInRing NonConjugatedSingleBondInRing NonConjugatedSingleBond NonConjugatedSingleBondInRing NonConjugatedSingleBond NonConjugatedSingleBond NonConjugatedSingleBondInRing NonConjugatedSingleBond NonConjugatedSingleBond NonConjugatedSingleBondInRing NonConjugatedSingleBond AromaticSingleBond AromaticSingleBond NonConjugatedSingleBond AromaticDoubleBond AromaticSingleBond AromaticSingleBond AromaticDoubleBond AromaticDoubleBond ConjugatedSingleBond AromaticSingleBond NonConjugatedSingleBond AromaticDoubleBond AromaticSingleBond NonConjugatedSingleBond NonConjugatedSingleBond NonConjugatedSingleBond ConjugatedSingleBond ConjugatedDoubleBond ConjugatedSingleBond ConjugatedSingleBond NonConjugatedSingleBond NonConjugatedSingleBond NonConjugatedSingleBond ConjugatedDoubleBond AmideSingleBond NonConjugatedSingleBond NonConjugatedSingleBond NonConjugatedSingleBond NonConjugatedSingleBond NonConjugatedSingleBond NonConjugatedSingleBond NonConjugatedSingleBond NonConjugatedSingleBond ConjugatedDoubleBond AmideSingleBond NonConjugatedSingleBond NonConjugatedSingleBond NonConjugatedSingleBond NonConjugatedSingleBond NonConjugatedSingleBond NonConjugatedSingleBond NonConjugatedSingleBond NonConjugatedSingleBond ConjugatedSingleBond ConjugatedDoubleBond NonConjugatedSingleBond NonConjugatedSingleBond NonConjugatedSingleBond NonConjugatedSingleBond ConjugatedDoubleBond ConjugatedSingleBond NonConjugatedSingleBond ConjugatedDoubleBond NonConjugatedSingleBond ConjugatedSingleBond AromaticDoubleBond AromaticSingleBond NonConjugatedSingleBond AromaticSingleBond AromaticDoubleBond ConjugatedSingleBond AromaticSingleBond ConjugatedSingleBond NonConjugatedSingleBond AromaticDoubleBond NonConjugatedSingleBond NonConjugatedSingleBond NonConjugatedSingleBond NonConjugatedSingleBond NonConjugatedSingleBond NonConjugatedSingleBond
M  BCL CHI  14   R  18   S  25   R  27   R  29   R  31   S  55   R
M  BCL DBI - - - - - - - - - - - E - - -
M  END
> <ConfClashScore>
0 

> <ConfOneFourInteractionScore>
-0.97439 

> <ConfScore>
0.123602 

> <ConfScorePBest>
0.0113905 

> <ConfTolerance>
2.67855 

$$$$
L03.****
  PyMOL2.5          3D                             0

105108  0  0  0  0  0  0  0  0999 V2000
   -6.0847  -14.3167    5.4627 C   0  0  0  1  0  0  0  0  0  0  0  0
   -7.0407  -14.5171    5.8995 H   0  0  0  1  0  0  0  0  0  0  0  0
   -5.3585  -14.9881    5.8710 H   0  0  0  1  0  0  0  0  0  0  0  0
   -6.1414  -14.4534    4.4029 H   0  0  0  1  0  0  0  0  0  0  0  0
   -5.6742  -12.8717    5.7701 C   0  0  0  1  0  0  0  0  0  0  0  0
   -6.8789  -12.2132    6.4529 C   0  0  0  1  0  0  0  0  0  0  0  0
   -7.1194  -12.7490    7.3474 H   0  0  0  1  0  0  0  0  0  0  0  0
   -7.7185  -12.2316    5.7898 H   0  0  0  1  0  0  0  0  0  0  0  0
   -6.6396  -11.1996    6.6981 H   0  0  0  1  0  0  0  0  0  0  0  0
   -5.3480  -12.1235    4.5407 C   0  0  0  1  0  0  0  0  0  0  0  0
   -6.1983  -12.1254    3.8911 H   0  0  0  1  0  0  0  0  0  0  0  0
   -4.5225  -12.5952    4.0498 H   0  0  0  1  0  0  0  0  0  0  0  0
   -4.9943  -10.7539    4.8604 O   0  0  0  1  0  0  0  0  0  0  0  0
   -4.7120   -9.7065    3.7204 P   0  0  0  1  0  0  0  0  0  0  0  0
   -3.7191  -10.6260    3.1211 O   0  0  0  1  0  0  0  0  0  0  0  0
   -6.2739   -9.7907    4.1420 O   0  5  0  1  0  0  0  0  0  0  0  0
   -4.4233   -8.6375    2.5564 O   0  0  0  1  0  0  0  0  0  0  0  0
   -3.0679   -8.0207    1.9658 P   0  0  0  1  0  0  0  0  0  0  0  0
   -2.0670   -9.1089    1.7191 O   0  0  0  0  0  0  0  0  0  0  0  0
   -2.6033   -6.8889    2.8297 O   0  0  0  1  0  0  0  0  0  0  0  0
   -3.5999   -7.3914    0.6253 O   0  0  0  1  0  0  0  0  0  0  0  0
   -2.8175   -6.4054   -0.0950 C   0  0  0  1  0  0  0  0  0  0  0  0
   -2.6961   -6.7243   -1.1091 H   0  0  0  1  0  0  0  0  0  0  0  0
   -1.8571   -6.3116    0.3673 H   0  0  0  1  0  0  0  0  0  0  0  0
   -3.5141   -5.0604   -0.0750 C   0  0  0  1  0  0  0  0  0  0  0  0
   -4.0877   -4.9686    0.8235 H   0  0  0  1  0  0  0  0  0  0  0  0
   -4.4316   -4.9137   -1.3140 C   0  0  0  1  0  0  0  0  0  0  0  0
   -5.3433   -4.4140   -1.0612 H   0  0  0  1  0  0  0  0  0  0  0  0
   -3.5904   -4.0725   -2.2577 C   0  0  0  1  0  0  0  0  0  0  0  0
   -4.2069   -3.4671   -2.8888 H   0  0  0  1  0  0  0  0  0  0  0  0
   -2.7667   -3.2066   -1.2914 C   0  0  0  1  0  0  0  0  0  0  0  0
   -3.3099   -2.3231   -1.0283 H   0  0  0  1  0  0  0  0  0  0  0  0
   -2.5476   -3.9980   -0.1594 O   0  0  0  1  0  0  0  0  0  0  0  0
   -1.4942   -2.8324   -1.9035 N   0  0  0  1  0  0  0  0  0  0  0  0
   -0.4471   -3.6535   -2.1902 C   0  0  0  1  0  0  0  0  0  0  0  0
   -0.4671   -4.6746   -1.9935 H   0  0  0  1  0  0  0  0  0  0  0  0
    0.5839   -3.0629   -2.7305 N   0  0  0  1  0  0  0  0  0  0  0  0
    0.1886   -1.7373   -2.8201 C   0  0  0  1  0  0  0  0  0  0  0  0
    0.7949   -0.5731   -3.2828 C   0  0  0  1  0  0  0  0  0  0  0  0
    0.1312    0.5867   -3.2283 N   0  0  0  1  0  0  0  0  0  0  0  0
   -1.1063    0.5800   -2.7081 C   0  0  0  1  0  0  0  0  0  0  0  0
   -1.5873    1.5016   -2.6796 H   0  0  0  1  0  0  0  0  0  0  0  0
   -1.7990   -0.4442   -2.2252 N   0  0  0  1  0  0  0  0  0  0  0  0
   -1.1066   -1.5812   -2.3086 C   0  0  0  1  0  0  0  0  0  0  0  0
    2.0661   -0.6150   -3.7919 N   0  0  0  1  0  0  0  0  0  0  0  0
    2.5558   -1.4635   -3.8178 H   0  0  0  1  0  0  0  0  0  0  0  0
    2.4857    0.2035   -4.1301 H   0  0  0  1  0  0  0  0  0  0  0  0
   -2.7436   -4.8931   -3.0638 O   0  0  0  1  0  0  0  0  0  0  0  0
   -2.8721   -5.8149   -2.8282 H   0  0  0  1  0  0  0  0  0  0  0  0
   -4.7339   -6.2075   -1.8962 O   0  0  0  1  0  0  0  0  0  0  0  0
   -5.1191   -6.3455   -3.4844 P   0  0  0  1  0  0  0  0  0  0  0  0
   -5.6294   -5.0307   -3.9330 O   0  0  0  1  0  0  0  0  0  0  0  0
   -3.9436   -7.0091   -4.3800 O   0  5  0  1  0  0  0  0  0  0  0  0
   -6.3852   -7.3561   -3.4766 O   0  5  0  1  0  0  0  0  0  0  0  0
   -4.4716  -12.8310    6.7238 C   0  0  0  1  0  0  0  0  0  0  0  0
   -4.5908  -13.6295    7.4260 H   0  0  0  1  0  0  0  0  0  0  0  0
   -3.2072  -13.0983    5.9391 C   0  0  0  1  0  0  0  0  0  0  0  0
   -3.0357  -14.1732    5.3658 O   0  0  0  1  0  0  0  0  0  0  0  0
   -2.2803  -12.1295    5.8873 N   0  0  0  1  0  0  0  0  0  0  0  0
   -2.4876  -11.2553    6.2787 H   0  0  0  1  0  0  0  0  0  0  0  0
   -0.9779  -12.3319    5.2703 C   0  0  0  1  0  0  0  0  0  0  0  0
   -1.1334  -12.6596    4.2637 H   0  0  0  1  0  0  0  0  0  0  0  0
   -0.4642  -13.0937    5.8186 H   0  0  0  1  0  0  0  0  0  0  0  0
   -0.0935  -11.0963    5.2347 C   0  0  0  1  0  0  0  0  0  0  0  0
    0.1200  -10.8140    6.2444 H   0  0  0  1  0  0  0  0  0  0  0  0
   -0.6401  -10.3129    4.7527 H   0  0  0  1  0  0  0  0  0  0  0  0
    1.2261  -11.2624    4.5064 C   0  0  0  1  0  0  0  0  0  0  0  0
    1.9492  -12.2221    4.7173 O   0  0  0  1  0  0  0  0  0  0  0  0
    1.5341  -10.2939    3.6293 N   0  0  0  1  0  0  0  0  0  0  0  0
    0.8484   -9.6351    3.3921 H   0  0  0  1  0  0  0  0  0  0  0  0
    2.8507  -10.1882    3.0185 C   0  0  0  1  0  0  0  0  0  0  0  0
    2.8194   -9.4288    2.2654 H   0  0  0  1  0  0  0  0  0  0  0  0
    3.0964  -11.1275    2.5686 H   0  0  0  1  0  0  0  0  0  0  0  0
    3.9332   -9.8321    4.0244 C   0  0  0  1  0  0  0  0  0  0  0  0
    4.8740   -9.7711    3.5184 H   0  0  0  1  0  0  0  0  0  0  0  0
    3.9791  -10.5952    4.7731 H   0  0  0  1  0  0  0  0  0  0  0  0
    3.5861   -8.2450    4.8192 S   0  0  0  1  0  0  0  0  0  0  0  0
    4.1674   -7.1245    3.6618 C   0  0  0  1  0  0  0  0  0  0  0  0
    3.6656   -6.0256    3.4447 O   0  0  0  1  0  0  0  0  0  0  0  0
    5.4109   -7.5654    2.8563 C   0  0  0  1  0  0  0  0  0  0  0  0
    5.9437   -8.2904    3.4353 H   0  0  0  1  0  0  0  0  0  0  0  0
    6.0301   -6.7066    2.7018 H   0  0  0  1  0  0  0  0  0  0  0  0
    5.1037   -8.1718    1.5106 C   0  0  0  1  0  0  0  0  0  0  0  0
    3.9356   -8.1116    1.1059 O   0  0  0  1  0  0  0  0  0  0  0  0
    6.1091   -8.8183    0.6749 C   0  0  0  1  0  0  0  0  0  0  0  0
    7.0867   -8.7865    1.0282 H   0  0  0  1  0  0  0  0  0  0  0  0
    5.9258   -9.4446   -0.4867 C   0  0  0  1  0  0  0  0  0  0  0  0
    4.9545   -9.4866   -0.8562 H   0  0  0  1  0  0  0  0  0  0  0  0
    6.9876  -10.0867   -1.2975 C   0  0  0  1  0  0  0  0  0  0  0  0
    6.7376  -10.9051   -2.3828 C   0  0  0  1  0  0  0  0  0  0  0  0
    5.7579  -11.1040   -2.6695 H   0  0  0  1  0  0  0  0  0  0  0  0
    7.7929  -11.4609   -3.0891 C   0  0  0  1  0  0  0  0  0  0  0  0
    9.0949  -11.2010   -2.7049 C   0  0  0  1  0  0  0  0  0  0  0  0
    9.3454  -10.3801   -1.6163 C   0  0  0  1  0  0  0  0  0  0  0  0
   10.3251  -10.1812   -1.3296 H   0  0  0  1  0  0  0  0  0  0  0  0
    8.2933   -9.8259   -0.9120 C   0  0  0  1  0  0  0  0  0  0  0  0
    8.4812   -9.2133   -0.0929 H   0  0  0  1  0  0  0  0  0  0  0  0
   10.0966  -11.8530   -3.3539 O   0  5  0  1  0  0  0  0  0  0  0  0
    7.6722  -12.2706   -4.1679 O   0  0  0  1  0  0  0  0  0  0  0  0
    6.3430  -12.5411   -4.6398 C   0  0  0  1  0  0  0  0  0  0  0  0
    5.6707  -12.5842   -3.8085 H   0  0  0  1  0  0  0  0  0  0  0  0
    6.3320  -13.4782   -5.1561 H   0  0  0  1  0  0  0  0  0  0  0  0
    6.0361  -11.7624   -5.3063 H   0  0  0  1  0  0  0  0  0  0  0  0
   -4.4165  -11.6071    7.4216 O   0  0  0  1  0  0  0  0  0  0  0  0
   -4.6583  -10.8901    6.8307 H   0  0  0  1  0  0  0  0  0  0  0  0
  1  2  1  0  0  0  0
  1  3  1  0  0  0  0
  1  4  1  0  0  0  0
  1  5  1  0  0  0  0
  5  6  1  0  0  0  0
  5 10  1  0  0  0  0
  5 55  1  0  0  0  0
  6  7  1  0  0  0  0
  6  8  1  0  0  0  0
  6  9  1  0  0  0  0
 10 11  1  0  0  0  0
 10 12  1  0  0  0  0
 10 13  1  0  0  0  0
 13 14  1  0  0  0  0
 14 15  2  0  0  0  0
 14 16  1  0  0  0  0
 14 17  1  0  0  0  0
 17 18  1  0  0  0  0
 18 19  1  0  0  0  0
 18 20  2  0  0  0  0
 18 21  1  0  0  0  0
 21 22  1  0  0  0  0
 22 23  1  0  0  0  0
 22 24  1  0  0  0  0
 22 25  1  0  0  0  0
 25 26  1  0  0  0  0
 25 27  1  0  0  0  0
 25 33  1  0  0  0  0
 27 28  1  0  0  0  0
 27 29  1  0  0  0  0
 27 50  1  0  0  0  0
 29 30  1  0  0  0  0
 29 31  1  0  0  0  0
 29 48  1  0  0  0  0
 31 32  1  0  0  0  0
 31 33  1  0  0  0  0
 31 34  1  0  0  0  0
 34 35  1  0  0  0  0
 34 44  1  0  0  0  0
 35 36  1  0  0  0  0
 35 37  2  0  0  0  0
 37 38  1  0  0  0  0
 38 39  1  0  0  0  0
 38 44  2  0  0  0  0
 39 40  2  0  0  0  0
 39 45  1  0  0  0  0
 40 41  1  0  0  0  0
 41 42  1  0  0  0  0
 41 43  2  0  0  0  0
 43 44  1  0  0  0  0
 45 46  1  0  0  0  0
 45 47  1  0  0  0  0
 48 49  1  0  0  0  0
 50 51  1  0  0  0  0
 51 52  2  0  0  0  0
 51 53  1  0  0  0  0
 51 54  1  0  0  0  0
 55 56  1  0  0  0  0
 55 57  1  0  0  0  0
 55104  1  0  0  0  0
 57 58  2  0  0  0  0
 57 59  1  0  0  0  0
 59 60  1  0  0  0  0
 59 61  1  0  0  0  0
 61 62  1  0  0  0  0
 61 63  1  0  0  0  0
 61 64  1  0  0  0  0
 64 65  1  0  0  0  0
 64 66  1  0  0  0  0
 64 67  1  0  0  0  0
 67 68  2  0  0  0  0
 67 69  1  0  0  0  0
 69 70  1  0  0  0  0
 69 71  1  0  0  0  0
 71 72  1  0  0  0  0
 71 73  1  0  0  0  0
 71 74  1  0  0  0  0
 74 75  1  0  0  0  0
 74 76  1  0  0  0  0
 74 77  1  0  0  0  0
 77 78  1  0  0  0  0
 78 79  2  0  0  0  0
 78 80  1  0  0  0  0
 80 81  1  0  0  0  0
 80 82  1  0  0  0  0
 80 83  1  0  0  0  0
 83 84  2  0  0  0  0
 83 85  1  0  0  0  0
 85 86  1  0  0  0  0
 85 87  2  0  0  0  0
 87 88  1  0  0  0  0
 87 89  1  0  0  0  0
 89 90  2  0  0  0  0
 89 96  1  0  0  0  0
 90 91  1  0  0  0  0
 90 92  1  0  0  0  0
 92 93  2  0  0  0  0
 92 99  1  0  0  0  0
 93 94  1  0  0  0  0
 93 98  1  0  0  0  0
 94 95  1  0  0  0  0
 94 96  2  0  0  0  0
 96 97  1  0  0  0  0
 99100  1  0  0  0  0
100101  1  0  0  0  0
100102  1  0  0  0  0
100103  1  0  0  0  0
104105  1  0  0  0  0
M  BCL ATM C_TeTeTeTe H_S H_S H_S C_TeTeTeTe C_TeTeTeTe H_S H_S H_S C_TeTeTeTe H_S H_S O_Tr2TrTrPi2 P_TeTeTeTePi O_Tr2Tr2TrPi O_Te2Te2Te2Te O_Tr2TrTrPi2 P_TeTeTeTePi O_Te2Te2TeTe O_Tr2Tr2TrPi O_Tr2TrTrPi2 C_TeTeTeTe H_S H_S C_TeTeTeTe H_S C_TeTeTeTe H_S C_TeTeTeTe H_S C_TeTeTeTe H_S O_Te2Te2TeTe N_TrTrTrPi2 C_TrTrTrPi H_S N_Tr2TrTrPi C_TrTrTrPi C_TrTrTrPi N_Tr2TrTrPi C_TrTrTrPi H_S N_Tr2TrTrPi C_TrTrTrPi N_TrTrTrPi2 H_S H_S O_Te2Te2TeTe H_S O_Tr2TrTrPi2 P_TeTeTeTePi O_Tr2Tr2TrPi O_Te2Te2Te2Te O_Te2Te2Te2Te C_TeTeTeTe H_S C_TrTrTrPi O_Tr2Tr2TrPi N_TrTrTrPi2 H_S C_TeTeTeTe H_S H_S C_TeTeTeTe H_S H_S C_TrTrTrPi O_Tr2Tr2TrPi N_TrTrTrPi2 H_S C_TeTeTeTe H_S H_S C_TeTeTeTe H_S H_S S_Te2Te2TeTe C_TrTrTrPi O_Tr2Tr2TrPi C_TeTeTeTe H_S H_S C_TrTrTrPi O_Tr2Tr2TrPi C_TrTrTrPi H_S C_TrTrTrPi H_S C_TrTrTrPi C_TrTrTrPi H_S C_TrTrTrPi C_TrTrTrPi C_TrTrTrPi H_S C_TrTrTrPi H_S O_Te2Te2Te2Te O_Tr2TrTrPi2 C_TeTeTeTe H_S H_S H_S O_Te2Te2TeTe H_S
M  BCL BND NonConjugatedSingleBond NonConjugatedSingleBond NonConjugatedSingleBond NonConjugatedSingleBond NonConjugatedSingleBond NonConjugatedSingleBond NonConjugatedSingleBond NonConjugatedSingleBond NonConjugatedSingleBond NonConjugatedSingleBond NonConjugatedSingleBond NonConjugatedSingleBond NonConjugatedSingleBond ConjugatedSingleBond ConjugatedDoubleBond ConjugatedSingleBond ConjugatedSingleBond ConjugatedSingleBond ConjugatedSingleBond ConjugatedDoubleBond ConjugatedSingleBond NonConjugatedSingleBond NonConjugatedSingleBond NonConjugatedSingleBond NonConjugatedSingleBond NonConjugatedSingleBond NonConjugatedSingleBondInRing NonConjugatedSingleBondInRing NonConjugatedSingleBond NonConjugatedSingleBondInRing NonConjugatedSingleBond NonConjugatedSingleBond NonConjugatedSingleBondInRing NonConjugatedSingleBond NonConjugatedSingleBond NonConjugatedSingleBondInRing NonConjugatedSingleBond AromaticSingleBond AromaticSingleBond NonConjugatedSingleBond AromaticDoubleBond AromaticSingleBond AromaticSingleBond AromaticDoubleBond AromaticDoubleBond ConjugatedSingleBond AromaticSingleBond NonConjugatedSingleBond AromaticDoubleBond AromaticSingleBond NonConjugatedSingleBond NonConjugatedSingleBond NonConjugatedSingleBond ConjugatedSingleBond ConjugatedDoubleBond ConjugatedSingleBond ConjugatedSingleBond NonConjugatedSingleBond NonConjugatedSingleBond NonConjugatedSingleBond ConjugatedDoubleBond AmideSingleBond NonConjugatedSingleBond NonConjugatedSingleBond NonConjugatedSingleBond NonConjugatedSingleBond NonConjugatedSingleBond NonConjugatedSingleBond NonConjugatedSingleBond NonConjugatedSingleBond ConjugatedDoubleBond AmideSingleBond NonConjugatedSingleBond NonConjugatedSingleBond NonConjugatedSingleBond NonConjugatedSingleBond NonConjugatedSingleBond NonConjugatedSingleBond NonConjugatedSingleBond NonConjugatedSingleBond ConjugatedSingleBond ConjugatedDoubleBond NonConjugatedSingleBond NonConjugatedSingleBond NonConjugatedSingleBond NonConjugatedSingleBond ConjugatedDoubleBond ConjugatedSingleBond NonConjugatedSingleBond ConjugatedDoubleBond NonConjugatedSingleBond ConjugatedSingleBond AromaticDoubleBond AromaticSingleBond NonConjugatedSingleBond AromaticSingleBond AromaticDoubleBond ConjugatedSingleBond AromaticSingleBond ConjugatedSingleBond NonConjugatedSingleBond AromaticDoubleBond NonConjugatedSingleBond NonConjugatedSingleBond NonConjugatedSingleBond NonConjugatedSingleBond NonConjugatedSingleBond NonConjugatedSingleBond
M  BCL CHI  14   R  18   S  25   R  27   R  29   R  31   S  55   R
M  BCL DBI - - - - - - - - - - - E - - -
M  END
> <ConfClashScore>
0 

> <ConfOneFourInteractionScore>
-0.959807 

> <ConfScore>
0.123795 

> <ConfScorePBest>
0.0112875 

> <ConfTolerance>
2.95341 

$$$$
L03.****
  PyMOL2.5          3D                             0

105108  0  0  0  0  0  0  0  0999 V2000
   -0.3464   -9.6918   -9.8696 C   0  0  0  1  0  0  0  0  0  0  0  0
   -0.5343  -10.0760  -10.8504 H   0  0  0  1  0  0  0  0  0  0  0  0
   -0.6278  -10.4226   -9.1405 H   0  0  0  1  0  0  0  0  0  0  0  0
    0.6951   -9.4683   -9.7678 H   0  0  0  1  0  0  0  0  0  0  0  0
   -1.1663   -8.4140   -9.6548 C   0  0  0  1  0  0  0  0  0  0  0  0
   -0.2269   -7.2187   -9.8555 C   0  0  0  1  0  0  0  0  0  0  0  0
    0.7325   -7.5683  -10.1751 H   0  0  0  1  0  0  0  0  0  0  0  0
   -0.1235   -6.6877   -8.9324 H   0  0  0  1  0  0  0  0  0  0  0  0
   -0.6344   -6.5662  -10.5992 H   0  0  0  1  0  0  0  0  0  0  0  0
   -1.7113   -8.4017   -8.2645 C   0  0  0  1  0  0  0  0  0  0  0  0
   -2.3469   -9.2493   -8.1147 H   0  0  0  1  0  0  0  0  0  0  0  0
   -2.2689   -7.5035   -8.0996 H   0  0  0  1  0  0  0  0  0  0  0  0
   -0.5895   -8.4596   -7.3523 O   0  0  0  1  0  0  0  0  0  0  0  0
   -0.6164   -7.6732   -5.9896 P   0  0  0  1  0  0  0  0  0  0  0  0
   -0.3914   -6.4042   -6.7171 O   0  0  0  1  0  0  0  0  0  0  0  0
   -1.6954   -8.8798   -6.0555 O   0  5  0  1  0  0  0  0  0  0  0  0
   -0.6436   -6.8735   -4.6047 O   0  0  0  1  0  0  0  0  0  0  0  0
   -0.7233   -7.2715   -3.1023 P   0  0  0  1  0  0  0  0  0  0  0  0
    0.6331   -7.0331   -2.4320 O   0  0  0  0  0  0  0  0  0  0  0  0
   -1.1778   -8.6801   -3.0363 O   0  0  0  1  0  0  0  0  0  0  0  0
   -1.7092   -6.2842   -2.3747 O   0  0  0  1  0  0  0  0  0  0  0  0
   -2.6037   -6.6972   -1.3138 C   0  0  0  1  0  0  0  0  0  0  0  0
   -2.0380   -7.0097   -0.4611 H   0  0  0  1  0  0  0  0  0  0  0  0
   -3.2190   -7.5054   -1.6500 H   0  0  0  1  0  0  0  0  0  0  0  0
   -3.4651   -5.5109   -0.9527 C   0  0  0  1  0  0  0  0  0  0  0  0
   -4.1815   -5.8017   -0.2130 H   0  0  0  1  0  0  0  0  0  0  0  0
   -4.1723   -5.0044   -2.1750 C   0  0  0  1  0  0  0  0  0  0  0  0
   -5.2310   -5.0503   -2.0267 H   0  0  0  1  0  0  0  0  0  0  0  0
   -3.7515   -3.5825   -2.3994 C   0  0  0  1  0  0  0  0  0  0  0  0
   -4.6064   -2.9403   -2.3597 H   0  0  0  1  0  0  0  0  0  0  0  0
   -2.7835   -3.2094   -1.3153 C   0  0  0  1  0  0  0  0  0  0  0  0
   -3.1700   -2.3865   -0.7510 H   0  0  0  1  0  0  0  0  0  0  0  0
   -2.6067   -4.4015   -0.4213 O   0  0  0  1  0  0  0  0  0  0  0  0
   -1.4956   -2.8355   -1.9059 N   0  0  0  1  0  0  0  0  0  0  0  0
   -0.4464   -3.6598   -2.1773 C   0  0  0  1  0  0  0  0  0  0  0  0
   -0.4671   -4.6827   -1.9908 H   0  0  0  1  0  0  0  0  0  0  0  0
    0.5988   -3.0455   -2.6979 N   0  0  0  1  0  0  0  0  0  0  0  0
    0.1720   -1.7204   -2.7878 C   0  0  0  1  0  0  0  0  0  0  0  0
    0.8065   -0.5682   -3.2835 C   0  0  0  1  0  0  0  0  0  0  0  0
    0.1180    0.5975   -3.2247 N   0  0  0  1  0  0  0  0  0  0  0  0
   -1.1224    0.5783   -2.7049 C   0  0  0  1  0  0  0  0  0  0  0  0
   -1.6059    1.4987   -2.6806 H   0  0  0  1  0  0  0  0  0  0  0  0
   -1.8245   -0.4439   -2.2162 N   0  0  0  1  0  0  0  0  0  0  0  0
   -1.0961   -1.5757   -2.3015 C   0  0  0  1  0  0  0  0  0  0  0  0
    2.0910   -0.6225   -3.8138 N   0  0  0  1  0  0  0  0  0  0  0  0
    2.5999   -1.4593   -3.7804 H   0  0  0  1  0  0  0  0  0  0  0  0
    2.4872    0.1761   -4.2208 H   0  0  0  1  0  0  0  0  0  0  0  0
   -3.1214   -3.4592   -3.6753 O   0  0  0  1  0  0  0  0  0  0  0  0
   -2.2548   -3.8711   -3.6459 H   0  0  0  1  0  0  0  0  0  0  0  0
   -3.8078   -5.8142   -3.3266 O   0  0  0  1  0  0  0  0  0  0  0  0
   -4.5636   -7.2385   -3.6261 P   0  0  0  1  0  0  0  0  0  0  0  0
   -3.5357   -8.3030   -3.5999 O   0  0  0  1  0  0  0  0  0  0  0  0
   -5.6491   -7.3323   -2.4273 O   0  5  0  1  0  0  0  0  0  0  0  0
   -5.2712   -7.1004   -5.0768 O   0  5  0  1  0  0  0  0  0  0  0  0
   -2.2889   -8.3478  -10.6975 C   0  0  0  1  0  0  0  0  0  0  0  0
   -2.8828   -7.4814  -10.4937 H   0  0  0  1  0  0  0  0  0  0  0  0
   -1.7057   -8.2096  -12.0957 C   0  0  0  1  0  0  0  0  0  0  0  0
   -0.7806   -8.9235  -12.4738 O   0  0  0  1  0  0  0  0  0  0  0  0
   -2.2634   -7.2721  -12.8671 N   0  0  0  1  0  0  0  0  0  0  0  0
   -2.9812   -6.7185  -12.4946 H   0  0  0  1  0  0  0  0  0  0  0  0
   -1.8421   -7.0444  -14.2414 C   0  0  0  1  0  0  0  0  0  0  0  0
   -2.6852   -7.1823  -14.8857 H   0  0  0  1  0  0  0  0  0  0  0  0
   -1.0827   -7.7562  -14.4896 H   0  0  0  1  0  0  0  0  0  0  0  0
   -1.2867   -5.6428  -14.4575 C   0  0  0  1  0  0  0  0  0  0  0  0
   -2.0590   -4.9337  -14.2438 H   0  0  0  1  0  0  0  0  0  0  0  0
   -0.9887   -5.5487  -15.4809 H   0  0  0  1  0  0  0  0  0  0  0  0
   -0.0916   -5.3351  -13.5765 C   0  0  0  1  0  0  0  0  0  0  0  0
   -0.2289   -5.0787  -12.3810 O   0  0  0  1  0  0  0  0  0  0  0  0
    1.0987   -5.3623  -14.1827 N   0  0  0  1  0  0  0  0  0  0  0  0
    1.1535   -5.5411  -15.1446 H   0  0  0  1  0  0  0  0  0  0  0  0
    2.3139   -5.1269  -13.4174 C   0  0  0  1  0  0  0  0  0  0  0  0
    3.1317   -5.6017  -13.9181 H   0  0  0  1  0  0  0  0  0  0  0  0
    2.1943   -5.5546  -12.4439 H   0  0  0  1  0  0  0  0  0  0  0  0
    2.6268   -3.6590  -13.2654 C   0  0  0  1  0  0  0  0  0  0  0  0
    1.7804   -3.1748  -12.8249 H   0  0  0  1  0  0  0  0  0  0  0  0
    2.8083   -3.2477  -14.2364 H   0  0  0  1  0  0  0  0  0  0  0  0
    4.0740   -3.3427  -12.2278 S   0  0  0  1  0  0  0  0  0  0  0  0
    5.3614   -3.9024  -13.3187 C   0  0  0  1  0  0  0  0  0  0  0  0
    5.1352   -4.4242  -14.3944 O   0  0  0  1  0  0  0  0  0  0  0  0
    6.7693   -3.6867  -12.8200 C   0  0  0  1  0  0  0  0  0  0  0  0
    6.7871   -2.7797  -12.2525 H   0  0  0  1  0  0  0  0  0  0  0  0
    7.4129   -3.5892  -13.6693 H   0  0  0  1  0  0  0  0  0  0  0  0
    7.3040   -4.7973  -11.9493 C   0  0  0  1  0  0  0  0  0  0  0  0
    7.5474   -4.5947  -10.7711 O   0  0  0  1  0  0  0  0  0  0  0  0
    7.5237   -6.1125  -12.5388 C   0  0  0  1  0  0  0  0  0  0  0  0
    7.2209   -6.2483  -13.5244 H   0  0  0  1  0  0  0  0  0  0  0  0
    8.0793   -7.1553  -11.9230 C   0  0  0  1  0  0  0  0  0  0  0  0
    8.5931   -6.9669  -11.0387 H   0  0  0  1  0  0  0  0  0  0  0  0
    8.0277   -8.5634  -12.3913 C   0  0  0  1  0  0  0  0  0  0  0  0
    7.3763   -8.8784  -13.5688 C   0  0  0  1  0  0  0  0  0  0  0  0
    6.9767   -8.1222  -14.1605 H   0  0  0  1  0  0  0  0  0  0  0  0
    7.2559  -10.2024  -13.9612 C   0  0  0  1  0  0  0  0  0  0  0  0
    7.7824  -11.2078  -13.1724 C   0  0  0  1  0  0  0  0  0  0  0  0
    8.4356  -10.8916  -11.9913 C   0  0  0  1  0  0  0  0  0  0  0  0
    8.8353  -11.6478  -11.3997 H   0  0  0  1  0  0  0  0  0  0  0  0
    8.5558   -9.5715  -11.5999 C   0  0  0  1  0  0  0  0  0  0  0  0
    9.0424   -9.3346  -10.7119 H   0  0  0  1  0  0  0  0  0  0  0  0
    7.6424  -12.4967  -13.5834 O   0  5  0  1  0  0  0  0  0  0  0  0
    6.6462  -10.6309  -15.0920 O   0  0  0  1  0  0  0  0  0  0  0  0
    6.0351   -9.6343  -15.9260 C   0  0  0  1  0  0  0  0  0  0  0  0
    5.6640  -10.0938  -16.8182 H   0  0  0  1  0  0  0  0  0  0  0  0
    6.7606   -8.8910  -16.1832 H   0  0  0  1  0  0  0  0  0  0  0  0
    5.2253   -9.1754  -15.3981 H   0  0  0  1  0  0  0  0  0  0  0  0
   -3.0916   -9.5086  -10.6121 O   0  0  0  1  0  0  0  0  0  0  0  0
   -2.9593   -9.9276   -9.7586 H   0  0  0  1  0  0  0  0  0  0  0  0
  1  2  1  0  0  0  0
  1  3  1  0  0  0  0
  1  4  1  0  0  0  0
  1  5  1  0  0  0  0
  5  6  1  0  0  0  0
  5 10  1  0  0  0  0
  5 55  1  0  0  0  0
  6  7  1  0  0  0  0
  6  8  1  0  0  0  0
  6  9  1  0  0  0  0
 10 11  1  0  0  0  0
 10 12  1  0  0  0  0
 10 13  1  0  0  0  0
 13 14  1  0  0  0  0
 14 15  2  0  0  0  0
 14 16  1  0  0  0  0
 14 17  1  0  0  0  0
 17 18  1  0  0  0  0
 18 19  1  0  0  0  0
 18 20  2  0  0  0  0
 18 21  1  0  0  0  0
 21 22  1  0  0  0  0
 22 23  1  0  0  0  0
 22 24  1  0  0  0  0
 22 25  1  0  0  0  0
 25 26  1  0  0  0  0
 25 27  1  0  0  0  0
 25 33  1  0  0  0  0
 27 28  1  0  0  0  0
 27 29  1  0  0  0  0
 27 50  1  0  0  0  0
 29 30  1  0  0  0  0
 29 31  1  0  0  0  0
 29 48  1  0  0  0  0
 31 32  1  0  0  0  0
 31 33  1  0  0  0  0
 31 34  1  0  0  0  0
 34 35  1  0  0  0  0
 34 44  1  0  0  0  0
 35 36  1  0  0  0  0
 35 37  2  0  0  0  0
 37 38  1  0  0  0  0
 38 39  1  0  0  0  0
 38 44  2  0  0  0  0
 39 40  2  0  0  0  0
 39 45  1  0  0  0  0
 40 41  1  0  0  0  0
 41 42  1  0  0  0  0
 41 43  2  0  0  0  0
 43 44  1  0  0  0  0
 45 46  1  0  0  0  0
 45 47  1  0  0  0  0
 48 49  1  0  0  0  0
 50 51  1  0  0  0  0
 51 52  2  0  0  0  0
 51 53  1  0  0  0  0
 51 54  1  0  0  0  0
 55 56  1  0  0  0  0
 55 57  1  0  0  0  0
 55104  1  0  0  0  0
 57 58  2  0  0  0  0
 57 59  1  0  0  0  0
 59 60  1  0  0  0  0
 59 61  1  0  0  0  0
 61 62  1  0  0  0  0
 61 63  1  0  0  0  0
 61 64  1  0  0  0  0
 64 65  1  0  0  0  0
 64 66  1  0  0  0  0
 64 67  1  0  0  0  0
 67 68  2  0  0  0  0
 67 69  1  0  0  0  0
 69 70  1  0  0  0  0
 69 71  1  0  0  0  0
 71 72  1  0  0  0  0
 71 73  1  0  0  0  0
 71 74  1  0  0  0  0
 74 75  1  0  0  0  0
 74 76  1  0  0  0  0
 74 77  1  0  0  0  0
 77 78  1  0  0  0  0
 78 79  2  0  0  0  0
 78 80  1  0  0  0  0
 80 81  1  0  0  0  0
 80 82  1  0  0  0  0
 80 83  1  0  0  0  0
 83 84  2  0  0  0  0
 83 85  1  0  0  0  0
 85 86  1  0  0  0  0
 85 87  2  0  0  0  0
 87 88  1  0  0  0  0
 87 89  1  0  0  0  0
 89 90  2  0  0  0  0
 89 96  1  0  0  0  0
 90 91  1  0  0  0  0
 90 92  1  0  0  0  0
 92 93  2  0  0  0  0
 92 99  1  0  0  0  0
 93 94  1  0  0  0  0
 93 98  1  0  0  0  0
 94 95  1  0  0  0  0
 94 96  2  0  0  0  0
 96 97  1  0  0  0  0
 99100  1  0  0  0  0
100101  1  0  0  0  0
100102  1  0  0  0  0
100103  1  0  0  0  0
104105  1  0  0  0  0
M  BCL ATM C_TeTeTeTe H_S H_S H_S C_TeTeTeTe C_TeTeTeTe H_S H_S H_S C_TeTeTeTe H_S H_S O_Tr2TrTrPi2 P_TeTeTeTePi O_Tr2Tr2TrPi O_Te2Te2Te2Te O_Tr2TrTrPi2 P_TeTeTeTePi O_Te2Te2TeTe O_Tr2Tr2TrPi O_Tr2TrTrPi2 C_TeTeTeTe H_S H_S C_TeTeTeTe H_S C_TeTeTeTe H_S C_TeTeTeTe H_S C_TeTeTeTe H_S O_Te2Te2TeTe N_TrTrTrPi2 C_TrTrTrPi H_S N_Tr2TrTrPi C_TrTrTrPi C_TrTrTrPi N_Tr2TrTrPi C_TrTrTrPi H_S N_Tr2TrTrPi C_TrTrTrPi N_TrTrTrPi2 H_S H_S O_Te2Te2TeTe H_S O_Tr2TrTrPi2 P_TeTeTeTePi O_Tr2Tr2TrPi O_Te2Te2Te2Te O_Te2Te2Te2Te C_TeTeTeTe H_S C_TrTrTrPi O_Tr2Tr2TrPi N_TrTrTrPi2 H_S C_TeTeTeTe H_S H_S C_TeTeTeTe H_S H_S C_TrTrTrPi O_Tr2Tr2TrPi N_TrTrTrPi2 H_S C_TeTeTeTe H_S H_S C_TeTeTeTe H_S H_S S_Te2Te2TeTe C_TrTrTrPi O_Tr2Tr2TrPi C_TeTeTeTe H_S H_S C_TrTrTrPi O_Tr2Tr2TrPi C_TrTrTrPi H_S C_TrTrTrPi H_S C_TrTrTrPi C_TrTrTrPi H_S C_TrTrTrPi C_TrTrTrPi C_TrTrTrPi H_S C_TrTrTrPi H_S O_Te2Te2Te2Te O_Tr2TrTrPi2 C_TeTeTeTe H_S H_S H_S O_Te2Te2TeTe H_S
M  BCL BND NonConjugatedSingleBond NonConjugatedSingleBond NonConjugatedSingleBond NonConjugatedSingleBond NonConjugatedSingleBond NonConjugatedSingleBond NonConjugatedSingleBond NonConjugatedSingleBond NonConjugatedSingleBond NonConjugatedSingleBond NonConjugatedSingleBond NonConjugatedSingleBond NonConjugatedSingleBond ConjugatedSingleBond ConjugatedDoubleBond ConjugatedSingleBond ConjugatedSingleBond ConjugatedSingleBond ConjugatedSingleBond ConjugatedDoubleBond ConjugatedSingleBond NonConjugatedSingleBond NonConjugatedSingleBond NonConjugatedSingleBond NonConjugatedSingleBond NonConjugatedSingleBond NonConjugatedSingleBondInRing NonConjugatedSingleBondInRing NonConjugatedSingleBond NonConjugatedSingleBondInRing NonConjugatedSingleBond NonConjugatedSingleBond NonConjugatedSingleBondInRing NonConjugatedSingleBond NonConjugatedSingleBond NonConjugatedSingleBondInRing NonConjugatedSingleBond AromaticSingleBond AromaticSingleBond NonConjugatedSingleBond AromaticDoubleBond AromaticSingleBond AromaticSingleBond AromaticDoubleBond AromaticDoubleBond ConjugatedSingleBond AromaticSingleBond NonConjugatedSingleBond AromaticDoubleBond AromaticSingleBond NonConjugatedSingleBond NonConjugatedSingleBond NonConjugatedSingleBond ConjugatedSingleBond ConjugatedDoubleBond ConjugatedSingleBond ConjugatedSingleBond NonConjugatedSingleBond NonConjugatedSingleBond NonConjugatedSingleBond ConjugatedDoubleBond AmideSingleBond NonConjugatedSingleBond NonConjugatedSingleBond NonConjugatedSingleBond NonConjugatedSingleBond NonConjugatedSingleBond NonConjugatedSingleBond NonConjugatedSingleBond NonConjugatedSingleBond ConjugatedDoubleBond AmideSingleBond NonConjugatedSingleBond NonConjugatedSingleBond NonConjugatedSingleBond NonConjugatedSingleBond NonConjugatedSingleBond NonConjugatedSingleBond NonConjugatedSingleBond NonConjugatedSingleBond ConjugatedSingleBond ConjugatedDoubleBond NonConjugatedSingleBond NonConjugatedSingleBond NonConjugatedSingleBond NonConjugatedSingleBond ConjugatedDoubleBond ConjugatedSingleBond NonConjugatedSingleBond ConjugatedDoubleBond NonConjugatedSingleBond ConjugatedSingleBond AromaticDoubleBond AromaticSingleBond NonConjugatedSingleBond AromaticSingleBond AromaticDoubleBond ConjugatedSingleBond AromaticSingleBond ConjugatedSingleBond NonConjugatedSingleBond AromaticDoubleBond NonConjugatedSingleBond NonConjugatedSingleBond NonConjugatedSingleBond NonConjugatedSingleBond NonConjugatedSingleBond NonConjugatedSingleBond
M  BCL CHI  14   R  18   S  25   R  27   R  29   R  31   S  55   R
M  BCL DBI - - - - - - - - - - - E - - -
M  END
> <ConfClashScore>
0 

> <ConfOneFourInteractionScore>
-0.980195 

> <ConfScore>
0.126932 

> <ConfScorePBest>
0.0111845 

> <ConfTolerance>
2.38408 

$$$$
L03.****
  PyMOL2.5          3D                             0

105108  0  0  0  0  0  0  0  0999 V2000
    2.3458   -3.2590    4.1655 C   0  0  0  1  0  0  0  0  0  0  0  0
    2.6321   -3.7567    3.2626 H   0  0  0  1  0  0  0  0  0  0  0  0
    3.1842   -3.2140    4.8288 H   0  0  0  1  0  0  0  0  0  0  0  0
    2.0176   -2.2666    3.9368 H   0  0  0  1  0  0  0  0  0  0  0  0
    1.2045   -4.0325    4.8366 C   0  0  0  1  0  0  0  0  0  0  0  0
    1.7382   -4.5931    6.1603 C   0  0  0  1  0  0  0  0  0  0  0  0
    0.9679   -5.1538    6.6472 H   0  0  0  1  0  0  0  0  0  0  0  0
    2.0444   -3.7854    6.7918 H   0  0  0  1  0  0  0  0  0  0  0  0
    2.5748   -5.2312    5.9657 H   0  0  0  1  0  0  0  0  0  0  0  0
    0.8210   -5.1732    3.9826 C   0  0  0  1  0  0  0  0  0  0  0  0
    1.6706   -5.8078    3.8399 H   0  0  0  1  0  0  0  0  0  0  0  0
    0.4857   -4.8067    3.0349 H   0  0  0  1  0  0  0  0  0  0  0  0
   -0.2427   -5.9333    4.6028 O   0  0  0  1  0  0  0  0  0  0  0  0
   -0.9358   -7.0761    3.7724 P   0  0  0  1  0  0  0  0  0  0  0  0
   -1.1440   -7.8530    5.0147 O   0  0  0  1  0  0  0  0  0  0  0  0
   -1.3080   -5.5881    3.2511 O   0  5  0  1  0  0  0  0  0  0  0  0
   -1.6403   -8.2381    2.9287 O   0  0  0  1  0  0  0  0  0  0  0  0
   -1.5994   -8.5560    1.3326 P   0  0  0  1  0  0  0  0  0  0  0  0
   -2.3384   -9.8106    1.0457 O   0  0  0  0  0  0  0  0  0  0  0  0
   -0.2467   -8.3721    0.7977 O   0  0  0  1  0  0  0  0  0  0  0  0
   -2.4971   -7.3081    0.9964 O   0  0  0  1  0  0  0  0  0  0  0  0
   -1.9082   -6.0825    0.5015 C   0  0  0  1  0  0  0  0  0  0  0  0
   -1.3326   -6.2838   -0.3777 H   0  0  0  1  0  0  0  0  0  0  0  0
   -1.2770   -5.6529    1.2511 H   0  0  0  1  0  0  0  0  0  0  0  0
   -3.0354   -5.1325    0.1720 C   0  0  0  1  0  0  0  0  0  0  0  0
   -3.7968   -5.2087    0.9199 H   0  0  0  1  0  0  0  0  0  0  0  0
   -3.6077   -5.4689   -1.1733 C   0  0  0  1  0  0  0  0  0  0  0  0
   -4.6462   -5.7080   -1.0763 H   0  0  0  1  0  0  0  0  0  0  0  0
   -3.4424   -4.2715   -2.0611 C   0  0  0  1  0  0  0  0  0  0  0  0
   -4.4008   -3.9309   -2.3936 H   0  0  0  1  0  0  0  0  0  0  0  0
   -2.7675   -3.1939   -1.2644 C   0  0  0  1  0  0  0  0  0  0  0  0
   -3.3992   -2.3319   -1.2113 H   0  0  0  1  0  0  0  0  0  0  0  0
   -2.5160   -3.7265    0.1158 O   0  0  0  1  0  0  0  0  0  0  0  0
   -1.4973   -2.8309   -1.8958 N   0  0  0  1  0  0  0  0  0  0  0  0
   -0.4572   -3.6737   -2.2049 C   0  0  0  1  0  0  0  0  0  0  0  0
   -0.4843   -4.6994   -2.0348 H   0  0  0  1  0  0  0  0  0  0  0  0
    0.5771   -3.0572   -2.7373 N   0  0  0  1  0  0  0  0  0  0  0  0
    0.1804   -1.7289   -2.8023 C   0  0  0  1  0  0  0  0  0  0  0  0
    0.8138   -0.5658   -3.2788 C   0  0  0  1  0  0  0  0  0  0  0  0
    0.1344    0.5977   -3.2134 N   0  0  0  1  0  0  0  0  0  0  0  0
   -1.1095    0.5785   -2.7071 C   0  0  0  1  0  0  0  0  0  0  0  0
   -1.5929    1.4991   -2.6875 H   0  0  0  1  0  0  0  0  0  0  0  0
   -1.8163   -0.4415   -2.2268 N   0  0  0  1  0  0  0  0  0  0  0  0
   -1.1039   -1.5803   -2.2990 C   0  0  0  1  0  0  0  0  0  0  0  0
    2.0825   -0.6139   -3.7937 N   0  0  0  1  0  0  0  0  0  0  0  0
    2.4741    0.1837   -4.2071 H   0  0  0  1  0  0  0  0  0  0  0  0
    2.5984   -1.4459   -3.7486 H   0  0  0  1  0  0  0  0  0  0  0  0
   -2.6394   -4.6135   -3.1916 O   0  0  0  1  0  0  0  0  0  0  0  0
   -2.7908   -5.5320   -3.4262 H   0  0  0  1  0  0  0  0  0  0  0  0
   -2.9007   -6.6021   -1.7393 O   0  0  0  1  0  0  0  0  0  0  0  0
   -3.7745   -7.8579   -2.3300 P   0  0  0  1  0  0  0  0  0  0  0  0
   -4.9260   -7.4514   -3.1661 O   0  0  0  1  0  0  0  0  0  0  0  0
   -2.8039   -8.8230   -3.1967 O   0  5  0  1  0  0  0  0  0  0  0  0
   -4.2489   -8.7503   -1.0639 O   0  5  0  1  0  0  0  0  0  0  0  0
    0.0140   -3.1359    5.1980 C   0  0  0  1  0  0  0  0  0  0  0  0
    0.3897   -2.2666    5.6961 H   0  0  0  1  0  0  0  0  0  0  0  0
   -0.7140   -2.6892    3.9391 C   0  0  0  1  0  0  0  0  0  0  0  0
   -0.1473   -2.0374    3.0776 O   0  0  0  1  0  0  0  0  0  0  0  0
   -2.0008   -3.0581    3.8481 N   0  0  0  1  0  0  0  0  0  0  0  0
   -2.3421   -3.6819    4.5224 H   0  0  0  1  0  0  0  0  0  0  0  0
   -2.9279   -2.6015    2.8235 C   0  0  0  1  0  0  0  0  0  0  0  0
   -2.4620   -2.7342    1.8695 H   0  0  0  1  0  0  0  0  0  0  0  0
   -3.1185   -1.5612    2.9862 H   0  0  0  1  0  0  0  0  0  0  0  0
   -4.2520   -3.3243    2.8044 C   0  0  0  1  0  0  0  0  0  0  0  0
   -4.6747   -3.2442    3.7841 H   0  0  0  1  0  0  0  0  0  0  0  0
   -4.0524   -4.3523    2.5845 H   0  0  0  1  0  0  0  0  0  0  0  0
   -5.3075   -2.8404    1.8097 C   0  0  0  1  0  0  0  0  0  0  0  0
   -4.9840   -2.1568    0.8524 O   0  0  0  1  0  0  0  0  0  0  0  0
   -6.5891   -3.1237    2.0916 N   0  0  0  1  0  0  0  0  0  0  0  0
   -6.8103   -3.6425    2.8930 H   0  0  0  1  0  0  0  0  0  0  0  0
   -7.6505   -2.6620    1.2095 C   0  0  0  1  0  0  0  0  0  0  0  0
   -8.0868   -3.5103    0.7249 H   0  0  0  1  0  0  0  0  0  0  0  0
   -7.2264   -2.0098    0.4749 H   0  0  0  1  0  0  0  0  0  0  0  0
   -8.7384   -1.9146    1.9517 C   0  0  0  1  0  0  0  0  0  0  0  0
   -9.5007   -1.6275    1.2579 H   0  0  0  1  0  0  0  0  0  0  0  0
   -8.3169   -1.0400    2.4015 H   0  0  0  1  0  0  0  0  0  0  0  0
   -9.4711   -2.9447    3.2395 S   0  0  0  1  0  0  0  0  0  0  0  0
  -10.5418   -3.9744    2.3249 C   0  0  0  1  0  0  0  0  0  0  0  0
  -10.8104   -3.7966    1.1675 O   0  0  0  1  0  0  0  0  0  0  0  0
  -11.0164   -5.1663    3.1197 C   0  0  0  1  0  0  0  0  0  0  0  0
  -12.0588   -5.3056    2.9221 H   0  0  0  1  0  0  0  0  0  0  0  0
  -10.8753   -4.9524    4.1586 H   0  0  0  1  0  0  0  0  0  0  0  0
  -10.3016   -6.4556    2.8038 C   0  0  0  1  0  0  0  0  0  0  0  0
   -9.3566   -6.4116    2.0127 O   0  0  0  1  0  0  0  0  0  0  0  0
  -10.7240   -7.7092    3.4209 C   0  0  0  1  0  0  0  0  0  0  0  0
  -10.2614   -8.5713    3.0683 H   0  0  0  1  0  0  0  0  0  0  0  0
  -11.6311   -7.8817    4.3816 C   0  0  0  1  0  0  0  0  0  0  0  0
  -12.1183   -7.0459    4.7632 H   0  0  0  1  0  0  0  0  0  0  0  0
  -11.9742   -9.2150    4.9284 C   0  0  0  1  0  0  0  0  0  0  0  0
  -12.5221   -9.3123    6.1935 C   0  0  0  1  0  0  0  0  0  0  0  0
  -12.6872   -8.4534    6.7562 H   0  0  0  1  0  0  0  0  0  0  0  0
  -12.8516  -10.5548    6.7122 C   0  0  0  1  0  0  0  0  0  0  0  0
  -12.6273  -11.6968    5.9665 C   0  0  0  1  0  0  0  0  0  0  0  0
  -12.0777  -11.5990    4.6977 C   0  0  0  1  0  0  0  0  0  0  0  0
  -11.9127  -12.4579    4.1350 H   0  0  0  1  0  0  0  0  0  0  0  0
  -11.7491  -10.3601    4.1804 C   0  0  0  1  0  0  0  0  0  0  0  0
  -11.3331  -10.2871    3.2300 H   0  0  0  1  0  0  0  0  0  0  0  0
  -12.9048  -12.9648    6.3722 O   0  5  0  1  0  0  0  0  0  0  0  0
  -13.3965  -10.7737    7.9325 O   0  0  0  1  0  0  0  0  0  0  0  0
  -13.8647   -9.6259    8.6575 C   0  0  0  1  0  0  0  0  0  0  0  0
  -13.3181   -8.7600    8.3471 H   0  0  0  1  0  0  0  0  0  0  0  0
  -13.7188   -9.7826    9.7059 H   0  0  0  1  0  0  0  0  0  0  0  0
  -14.9061   -9.4798    8.4598 H   0  0  0  1  0  0  0  0  0  0  0  0
   -0.8717   -3.8355    6.0585 O   0  0  0  1  0  0  0  0  0  0  0  0
   -0.6624   -3.6269    6.9719 H   0  0  0  1  0  0  0  0  0  0  0  0
  1  2  1  0  0  0  0
  1  3  1  0  0  0  0
  1  4  1  0  0  0  0
  1  5  1  0  0  0  0
  5  6  1  0  0  0  0
  5 10  1  0  0  0  0
  5 55  1  0  0  0  0
  6  7  1  0  0  0  0
  6  8  1  0  0  0  0
  6  9  1  0  0  0  0
 10 11  1  0  0  0  0
 10 12  1  0  0  0  0
 10 13  1  0  0  0  0
 13 14  1  0  0  0  0
 14 15  2  0  0  0  0
 14 16  1  0  0  0  0
 14 17  1  0  0  0  0
 17 18  1  0  0  0  0
 18 19  1  0  0  0  0
 18 20  2  0  0  0  0
 18 21  1  0  0  0  0
 21 22  1  0  0  0  0
 22 23  1  0  0  0  0
 22 24  1  0  0  0  0
 22 25  1  0  0  0  0
 25 26  1  0  0  0  0
 25 27  1  0  0  0  0
 25 33  1  0  0  0  0
 27 28  1  0  0  0  0
 27 29  1  0  0  0  0
 27 50  1  0  0  0  0
 29 30  1  0  0  0  0
 29 31  1  0  0  0  0
 29 48  1  0  0  0  0
 31 32  1  0  0  0  0
 31 33  1  0  0  0  0
 31 34  1  0  0  0  0
 34 35  1  0  0  0  0
 34 44  1  0  0  0  0
 35 36  1  0  0  0  0
 35 37  2  0  0  0  0
 37 38  1  0  0  0  0
 38 39  1  0  0  0  0
 38 44  2  0  0  0  0
 39 40  2  0  0  0  0
 39 45  1  0  0  0  0
 40 41  1  0  0  0  0
 41 42  1  0  0  0  0
 41 43  2  0  0  0  0
 43 44  1  0  0  0  0
 45 46  1  0  0  0  0
 45 47  1  0  0  0  0
 48 49  1  0  0  0  0
 50 51  1  0  0  0  0
 51 52  2  0  0  0  0
 51 53  1  0  0  0  0
 51 54  1  0  0  0  0
 55 56  1  0  0  0  0
 55 57  1  0  0  0  0
 55104  1  0  0  0  0
 57 58  2  0  0  0  0
 57 59  1  0  0  0  0
 59 60  1  0  0  0  0
 59 61  1  0  0  0  0
 61 62  1  0  0  0  0
 61 63  1  0  0  0  0
 61 64  1  0  0  0  0
 64 65  1  0  0  0  0
 64 66  1  0  0  0  0
 64 67  1  0  0  0  0
 67 68  2  0  0  0  0
 67 69  1  0  0  0  0
 69 70  1  0  0  0  0
 69 71  1  0  0  0  0
 71 72  1  0  0  0  0
 71 73  1  0  0  0  0
 71 74  1  0  0  0  0
 74 75  1  0  0  0  0
 74 76  1  0  0  0  0
 74 77  1  0  0  0  0
 77 78  1  0  0  0  0
 78 79  2  0  0  0  0
 78 80  1  0  0  0  0
 80 81  1  0  0  0  0
 80 82  1  0  0  0  0
 80 83  1  0  0  0  0
 83 84  2  0  0  0  0
 83 85  1  0  0  0  0
 85 86  1  0  0  0  0
 85 87  2  0  0  0  0
 87 88  1  0  0  0  0
 87 89  1  0  0  0  0
 89 90  2  0  0  0  0
 89 96  1  0  0  0  0
 90 91  1  0  0  0  0
 90 92  1  0  0  0  0
 92 93  2  0  0  0  0
 92 99  1  0  0  0  0
 93 94  1  0  0  0  0
 93 98  1  0  0  0  0
 94 95  1  0  0  0  0
 94 96  2  0  0  0  0
 96 97  1  0  0  0  0
 99100  1  0  0  0  0
100101  1  0  0  0  0
100102  1  0  0  0  0
100103  1  0  0  0  0
104105  1  0  0  0  0
M  BCL ATM C_TeTeTeTe H_S H_S H_S C_TeTeTeTe C_TeTeTeTe H_S H_S H_S C_TeTeTeTe H_S H_S O_Tr2TrTrPi2 P_TeTeTeTePi O_Tr2Tr2TrPi O_Te2Te2Te2Te O_Tr2TrTrPi2 P_TeTeTeTePi O_Te2Te2TeTe O_Tr2Tr2TrPi O_Tr2TrTrPi2 C_TeTeTeTe H_S H_S C_TeTeTeTe H_S C_TeTeTeTe H_S C_TeTeTeTe H_S C_TeTeTeTe H_S O_Te2Te2TeTe N_TrTrTrPi2 C_TrTrTrPi H_S N_Tr2TrTrPi C_TrTrTrPi C_TrTrTrPi N_Tr2TrTrPi C_TrTrTrPi H_S N_Tr2TrTrPi C_TrTrTrPi N_TrTrTrPi2 H_S H_S O_Te2Te2TeTe H_S O_Tr2TrTrPi2 P_TeTeTeTePi O_Tr2Tr2TrPi O_Te2Te2Te2Te O_Te2Te2Te2Te C_TeTeTeTe H_S C_TrTrTrPi O_Tr2Tr2TrPi N_TrTrTrPi2 H_S C_TeTeTeTe H_S H_S C_TeTeTeTe H_S H_S C_TrTrTrPi O_Tr2Tr2TrPi N_TrTrTrPi2 H_S C_TeTeTeTe H_S H_S C_TeTeTeTe H_S H_S S_Te2Te2TeTe C_TrTrTrPi O_Tr2Tr2TrPi C_TeTeTeTe H_S H_S C_TrTrTrPi O_Tr2Tr2TrPi C_TrTrTrPi H_S C_TrTrTrPi H_S C_TrTrTrPi C_TrTrTrPi H_S C_TrTrTrPi C_TrTrTrPi C_TrTrTrPi H_S C_TrTrTrPi H_S O_Te2Te2Te2Te O_Tr2TrTrPi2 C_TeTeTeTe H_S H_S H_S O_Te2Te2TeTe H_S
M  BCL BND NonConjugatedSingleBond NonConjugatedSingleBond NonConjugatedSingleBond NonConjugatedSingleBond NonConjugatedSingleBond NonConjugatedSingleBond NonConjugatedSingleBond NonConjugatedSingleBond NonConjugatedSingleBond NonConjugatedSingleBond NonConjugatedSingleBond NonConjugatedSingleBond NonConjugatedSingleBond ConjugatedSingleBond ConjugatedDoubleBond ConjugatedSingleBond ConjugatedSingleBond ConjugatedSingleBond ConjugatedSingleBond ConjugatedDoubleBond ConjugatedSingleBond NonConjugatedSingleBond NonConjugatedSingleBond NonConjugatedSingleBond NonConjugatedSingleBond NonConjugatedSingleBond NonConjugatedSingleBondInRing NonConjugatedSingleBondInRing NonConjugatedSingleBond NonConjugatedSingleBondInRing NonConjugatedSingleBond NonConjugatedSingleBond NonConjugatedSingleBondInRing NonConjugatedSingleBond NonConjugatedSingleBond NonConjugatedSingleBondInRing NonConjugatedSingleBond AromaticSingleBond AromaticSingleBond NonConjugatedSingleBond AromaticDoubleBond AromaticSingleBond AromaticSingleBond AromaticDoubleBond AromaticDoubleBond ConjugatedSingleBond AromaticSingleBond NonConjugatedSingleBond AromaticDoubleBond AromaticSingleBond NonConjugatedSingleBond NonConjugatedSingleBond NonConjugatedSingleBond ConjugatedSingleBond ConjugatedDoubleBond ConjugatedSingleBond ConjugatedSingleBond NonConjugatedSingleBond NonConjugatedSingleBond NonConjugatedSingleBond ConjugatedDoubleBond AmideSingleBond NonConjugatedSingleBond NonConjugatedSingleBond NonConjugatedSingleBond NonConjugatedSingleBond NonConjugatedSingleBond NonConjugatedSingleBond NonConjugatedSingleBond NonConjugatedSingleBond ConjugatedDoubleBond AmideSingleBond NonConjugatedSingleBond NonConjugatedSingleBond NonConjugatedSingleBond NonConjugatedSingleBond NonConjugatedSingleBond NonConjugatedSingleBond NonConjugatedSingleBond NonConjugatedSingleBond ConjugatedSingleBond ConjugatedDoubleBond NonConjugatedSingleBond NonConjugatedSingleBond NonConjugatedSingleBond NonConjugatedSingleBond ConjugatedDoubleBond ConjugatedSingleBond NonConjugatedSingleBond ConjugatedDoubleBond NonConjugatedSingleBond ConjugatedSingleBond AromaticDoubleBond AromaticSingleBond NonConjugatedSingleBond AromaticSingleBond AromaticDoubleBond ConjugatedSingleBond AromaticSingleBond ConjugatedSingleBond NonConjugatedSingleBond AromaticDoubleBond NonConjugatedSingleBond NonConjugatedSingleBond NonConjugatedSingleBond NonConjugatedSingleBond NonConjugatedSingleBond NonConjugatedSingleBond
M  BCL CHI  14   R  18   S  25   R  27   R  29   R  31   S  55   R
M  BCL DBI - - - - - - - - - - - E - - -
M  END
> <ConfClashScore>
0.000299807 

> <ConfOneFourInteractionScore>
-0.968861 

> <ConfScore>
0.127121 

> <ConfScorePBest>
0.0110815 

> <ConfTolerance>
2.90847 

$$$$
L03.****
  PyMOL2.5          3D                             0

105108  0  0  0  0  0  0  0  0999 V2000
   -3.2434  -13.4238    1.6489 C   0  0  0  1  0  0  0  0  0  0  0  0
   -3.6146  -14.1138    2.3776 H   0  0  0  1  0  0  0  0  0  0  0  0
   -3.6258  -13.6842    0.6841 H   0  0  0  1  0  0  0  0  0  0  0  0
   -3.5588  -12.4334    1.9028 H   0  0  0  1  0  0  0  0  0  0  0  0
   -1.7113  -13.4812    1.6235 C   0  0  0  1  0  0  0  0  0  0  0  0
   -1.1866  -13.9764    2.9765 C   0  0  0  1  0  0  0  0  0  0  0  0
   -1.4472  -15.0062    3.1055 H   0  0  0  1  0  0  0  0  0  0  0  0
   -1.6242  -13.3969    3.7623 H   0  0  0  1  0  0  0  0  0  0  0  0
   -0.1221  -13.8719    3.0059 H   0  0  0  1  0  0  0  0  0  0  0  0
   -1.1831  -12.1541    1.3536 C   0  0  0  1  0  0  0  0  0  0  0  0
   -0.1153  -12.1933    1.4111 H   0  0  0  1  0  0  0  0  0  0  0  0
   -1.5563  -11.4803    2.0963 H   0  0  0  1  0  0  0  0  0  0  0  0
   -1.5572  -11.6553    0.0476 O   0  0  0  1  0  0  0  0  0  0  0  0
   -1.4503  -10.1385   -0.3574 P   0  0  0  1  0  0  0  0  0  0  0  0
   -1.2019  -10.5308   -1.7627 O   0  0  0  1  0  0  0  0  0  0  0  0
   -2.5978  -10.4279    0.7488 O   0  5  0  1  0  0  0  0  0  0  0  0
   -1.3412   -8.5930   -0.7706 O   0  0  0  1  0  0  0  0  0  0  0  0
   -1.7644   -7.8500   -2.1196 P   0  0  0  1  0  0  0  0  0  0  0  0
   -1.7989   -8.8232   -3.2592 O   0  0  0  0  0  0  0  0  0  0  0  0
   -0.9116   -6.6357   -2.3228 O   0  0  0  1  0  0  0  0  0  0  0  0
   -3.1997   -7.3462   -1.7302 O   0  0  0  1  0  0  0  0  0  0  0  0
   -3.8344   -6.2055   -2.3545 C   0  0  0  1  0  0  0  0  0  0  0  0
   -4.7783   -6.4944   -2.7674 H   0  0  0  1  0  0  0  0  0  0  0  0
   -3.2078   -5.8197   -3.1313 H   0  0  0  1  0  0  0  0  0  0  0  0
   -4.0391   -5.1546   -1.2890 C   0  0  0  1  0  0  0  0  0  0  0  0
   -4.4850   -5.6030   -0.4259 H   0  0  0  1  0  0  0  0  0  0  0  0
   -4.9372   -4.0317   -1.8224 C   0  0  0  1  0  0  0  0  0  0  0  0
   -5.5972   -3.6734   -1.0603 H   0  0  0  1  0  0  0  0  0  0  0  0
   -3.9331   -2.9477   -2.2351 C   0  0  0  1  0  0  0  0  0  0  0  0
   -4.3455   -1.9685   -2.1087 H   0  0  0  1  0  0  0  0  0  0  0  0
   -2.7689   -3.1944   -1.2559 C   0  0  0  1  0  0  0  0  0  0  0  0
   -2.9070   -2.6103   -0.3701 H   0  0  0  1  0  0  0  0  0  0  0  0
   -2.7693   -4.5495   -0.9360 O   0  0  0  1  0  0  0  0  0  0  0  0
   -1.4978   -2.8305   -1.8887 N   0  0  0  1  0  0  0  0  0  0  0  0
   -0.4551   -3.6719   -2.1929 C   0  0  0  1  0  0  0  0  0  0  0  0
   -0.4796   -4.6968   -2.0179 H   0  0  0  1  0  0  0  0  0  0  0  0
    0.5779   -3.0550   -2.7274 N   0  0  0  1  0  0  0  0  0  0  0  0
    0.1776   -1.7281   -2.7990 C   0  0  0  1  0  0  0  0  0  0  0  0
    0.8083   -0.5656   -3.2805 C   0  0  0  1  0  0  0  0  0  0  0  0
    0.1255    0.5964   -3.2211 N   0  0  0  1  0  0  0  0  0  0  0  0
   -1.1187    0.5761   -2.7158 C   0  0  0  1  0  0  0  0  0  0  0  0
   -1.6046    1.4955   -2.7010 H   0  0  0  1  0  0  0  0  0  0  0  0
   -1.8231   -0.4436   -2.2312 N   0  0  0  1  0  0  0  0  0  0  0  0
   -1.1075   -1.5807   -2.2975 C   0  0  0  1  0  0  0  0  0  0  0  0
    2.0966   -0.6133   -3.8018 N   0  0  0  1  0  0  0  0  0  0  0  0
    2.5442    0.2134   -4.0785 H   0  0  0  1  0  0  0  0  0  0  0  0
    2.5569   -1.4737   -3.8924 H   0  0  0  1  0  0  0  0  0  0  0  0
   -3.5150   -3.1177   -3.5902 O   0  0  0  1  0  0  0  0  0  0  0  0
   -2.8930   -2.4246   -3.8230 H   0  0  0  1  0  0  0  0  0  0  0  0
   -5.7123   -4.4826   -2.9608 O   0  0  0  1  0  0  0  0  0  0  0  0
   -7.2291   -5.0743   -2.7639 P   0  0  0  1  0  0  0  0  0  0  0  0
   -7.2812   -6.3727   -2.0553 O   0  0  0  1  0  0  0  0  0  0  0  0
   -8.0013   -3.8877   -1.9765 O   0  5  0  1  0  0  0  0  0  0  0  0
   -7.8880   -5.1340   -4.2426 O   0  5  0  1  0  0  0  0  0  0  0  0
   -1.2547  -14.4401    0.5177 C   0  0  0  1  0  0  0  0  0  0  0  0
   -1.6450  -14.0854   -0.4133 H   0  0  0  1  0  0  0  0  0  0  0  0
    0.2600  -14.4540    0.4265 C   0  0  0  1  0  0  0  0  0  0  0  0
    0.9496  -14.7529    1.3978 O   0  0  0  1  0  0  0  0  0  0  0  0
    0.7628  -14.0428   -0.7476 N   0  0  0  1  0  0  0  0  0  0  0  0
    0.1446  -13.7651   -1.4555 H   0  0  0  1  0  0  0  0  0  0  0  0
    2.1941  -13.9950   -1.0063 C   0  0  0  1  0  0  0  0  0  0  0  0
    2.4223  -14.6775   -1.7982 H   0  0  0  1  0  0  0  0  0  0  0  0
    2.7130  -14.2913   -0.1187 H   0  0  0  1  0  0  0  0  0  0  0  0
    2.6653  -12.6153   -1.4052 C   0  0  0  1  0  0  0  0  0  0  0  0
    2.0169  -12.2552   -2.1763 H   0  0  0  1  0  0  0  0  0  0  0  0
    3.6605  -12.7043   -1.7879 H   0  0  0  1  0  0  0  0  0  0  0  0
    2.6829  -11.5924   -0.2965 C   0  0  0  1  0  0  0  0  0  0  0  0
    3.0571  -11.8867    0.8380 O   0  0  0  1  0  0  0  0  0  0  0  0
    2.2682  -10.3614   -0.6325 N   0  0  0  1  0  0  0  0  0  0  0  0
    1.9473  -10.2031   -1.5449 H   0  0  0  1  0  0  0  0  0  0  0  0
    2.2783   -9.2531    0.3106 C   0  0  0  1  0  0  0  0  0  0  0  0
    3.2855   -8.9041    0.4038 H   0  0  0  1  0  0  0  0  0  0  0  0
    1.9378   -9.6180    1.2571 H   0  0  0  1  0  0  0  0  0  0  0  0
    1.4069   -8.0792   -0.0835 C   0  0  0  1  0  0  0  0  0  0  0  0
    0.3932   -8.2732    0.1987 H   0  0  0  1  0  0  0  0  0  0  0  0
    1.4609   -7.9307   -1.1418 H   0  0  0  1  0  0  0  0  0  0  0  0
    2.0027   -6.5997    0.7691 S   0  0  0  1  0  0  0  0  0  0  0  0
    0.8809   -6.4888    1.9602 C   0  0  0  1  0  0  0  0  0  0  0  0
    0.0379   -7.0139    2.3826 O   0  0  0  1  0  0  0  0  0  0  0  0
    1.1851   -5.2466    2.7629 C   0  0  0  1  0  0  0  0  0  0  0  0
    0.8492   -5.4195    3.7640 H   0  0  0  1  0  0  0  0  0  0  0  0
    0.6275   -4.4407    2.3333 H   0  0  0  1  0  0  0  0  0  0  0  0
    2.6431   -4.8079    2.8371 C   0  0  0  1  0  0  0  0  0  0  0  0
    3.5113   -5.6623    2.8649 O   0  0  0  1  0  0  0  0  0  0  0  0
    2.9149   -3.3755    2.8708 C   0  0  0  1  0  0  0  0  0  0  0  0
    2.0966   -2.7379    2.9453 H   0  0  0  1  0  0  0  0  0  0  0  0
    4.1218   -2.8136    2.8143 C   0  0  0  1  0  0  0  0  0  0  0  0
    4.9105   -3.4874    2.7404 H   0  0  0  1  0  0  0  0  0  0  0  0
    4.5271   -1.3890    2.8393 C   0  0  0  1  0  0  0  0  0  0  0  0
    5.8673   -1.0633    2.9292 C   0  0  0  1  0  0  0  0  0  0  0  0
    6.5829   -1.8160    2.9829 H   0  0  0  1  0  0  0  0  0  0  0  0
    6.2574    0.2667    2.9479 C   0  0  0  1  0  0  0  0  0  0  0  0
    5.3059    1.2671    2.8820 C   0  0  0  1  0  0  0  0  0  0  0  0
    3.9618    0.9402    2.7918 C   0  0  0  1  0  0  0  0  0  0  0  0
    3.2461    1.6929    2.7382 H   0  0  0  1  0  0  0  0  0  0  0  0
    3.5728   -0.3859    2.7732 C   0  0  0  1  0  0  0  0  0  0  0  0
    2.5641   -0.6311    2.7096 H   0  0  0  1  0  0  0  0  0  0  0  0
    5.6496    2.5828    2.9030 O   0  5  0  1  0  0  0  0  0  0  0  0
    7.5358    0.7060    3.0279 O   0  0  0  1  0  0  0  0  0  0  0  0
    8.5637   -0.2876    3.1646 C   0  0  0  1  0  0  0  0  0  0  0  0
    8.1775   -1.1297    3.6999 H   0  0  0  1  0  0  0  0  0  0  0  0
    9.3911    0.1272    3.7016 H   0  0  0  1  0  0  0  0  0  0  0  0
    8.8884   -0.6004    2.1943 H   0  0  0  1  0  0  0  0  0  0  0  0
   -1.7983  -15.7187    0.8076 O   0  0  0  1  0  0  0  0  0  0  0  0
   -2.1586  -16.1032    0.0052 H   0  0  0  1  0  0  0  0  0  0  0  0
  1  2  1  0  0  0  0
  1  3  1  0  0  0  0
  1  4  1  0  0  0  0
  1  5  1  0  0  0  0
  5  6  1  0  0  0  0
  5 10  1  0  0  0  0
  5 55  1  0  0  0  0
  6  7  1  0  0  0  0
  6  8  1  0  0  0  0
  6  9  1  0  0  0  0
 10 11  1  0  0  0  0
 10 12  1  0  0  0  0
 10 13  1  0  0  0  0
 13 14  1  0  0  0  0
 14 15  2  0  0  0  0
 14 16  1  0  0  0  0
 14 17  1  0  0  0  0
 17 18  1  0  0  0  0
 18 19  1  0  0  0  0
 18 20  2  0  0  0  0
 18 21  1  0  0  0  0
 21 22  1  0  0  0  0
 22 23  1  0  0  0  0
 22 24  1  0  0  0  0
 22 25  1  0  0  0  0
 25 26  1  0  0  0  0
 25 27  1  0  0  0  0
 25 33  1  0  0  0  0
 27 28  1  0  0  0  0
 27 29  1  0  0  0  0
 27 50  1  0  0  0  0
 29 30  1  0  0  0  0
 29 31  1  0  0  0  0
 29 48  1  0  0  0  0
 31 32  1  0  0  0  0
 31 33  1  0  0  0  0
 31 34  1  0  0  0  0
 34 35  1  0  0  0  0
 34 44  1  0  0  0  0
 35 36  1  0  0  0  0
 35 37  2  0  0  0  0
 37 38  1  0  0  0  0
 38 39  1  0  0  0  0
 38 44  2  0  0  0  0
 39 40  2  0  0  0  0
 39 45  1  0  0  0  0
 40 41  1  0  0  0  0
 41 42  1  0  0  0  0
 41 43  2  0  0  0  0
 43 44  1  0  0  0  0
 45 46  1  0  0  0  0
 45 47  1  0  0  0  0
 48 49  1  0  0  0  0
 50 51  1  0  0  0  0
 51 52  2  0  0  0  0
 51 53  1  0  0  0  0
 51 54  1  0  0  0  0
 55 56  1  0  0  0  0
 55 57  1  0  0  0  0
 55104  1  0  0  0  0
 57 58  2  0  0  0  0
 57 59  1  0  0  0  0
 59 60  1  0  0  0  0
 59 61  1  0  0  0  0
 61 62  1  0  0  0  0
 61 63  1  0  0  0  0
 61 64  1  0  0  0  0
 64 65  1  0  0  0  0
 64 66  1  0  0  0  0
 64 67  1  0  0  0  0
 67 68  2  0  0  0  0
 67 69  1  0  0  0  0
 69 70  1  0  0  0  0
 69 71  1  0  0  0  0
 71 72  1  0  0  0  0
 71 73  1  0  0  0  0
 71 74  1  0  0  0  0
 74 75  1  0  0  0  0
 74 76  1  0  0  0  0
 74 77  1  0  0  0  0
 77 78  1  0  0  0  0
 78 79  2  0  0  0  0
 78 80  1  0  0  0  0
 80 81  1  0  0  0  0
 80 82  1  0  0  0  0
 80 83  1  0  0  0  0
 83 84  2  0  0  0  0
 83 85  1  0  0  0  0
 85 86  1  0  0  0  0
 85 87  2  0  0  0  0
 87 88  1  0  0  0  0
 87 89  1  0  0  0  0
 89 90  2  0  0  0  0
 89 96  1  0  0  0  0
 90 91  1  0  0  0  0
 90 92  1  0  0  0  0
 92 93  2  0  0  0  0
 92 99  1  0  0  0  0
 93 94  1  0  0  0  0
 93 98  1  0  0  0  0
 94 95  1  0  0  0  0
 94 96  2  0  0  0  0
 96 97  1  0  0  0  0
 99100  1  0  0  0  0
100101  1  0  0  0  0
100102  1  0  0  0  0
100103  1  0  0  0  0
104105  1  0  0  0  0
M  BCL ATM C_TeTeTeTe H_S H_S H_S C_TeTeTeTe C_TeTeTeTe H_S H_S H_S C_TeTeTeTe H_S H_S O_Tr2TrTrPi2 P_TeTeTeTePi O_Tr2Tr2TrPi O_Te2Te2Te2Te O_Tr2TrTrPi2 P_TeTeTeTePi O_Te2Te2TeTe O_Tr2Tr2TrPi O_Tr2TrTrPi2 C_TeTeTeTe H_S H_S C_TeTeTeTe H_S C_TeTeTeTe H_S C_TeTeTeTe H_S C_TeTeTeTe H_S O_Te2Te2TeTe N_TrTrTrPi2 C_TrTrTrPi H_S N_Tr2TrTrPi C_TrTrTrPi C_TrTrTrPi N_Tr2TrTrPi C_TrTrTrPi H_S N_Tr2TrTrPi C_TrTrTrPi N_TrTrTrPi2 H_S H_S O_Te2Te2TeTe H_S O_Tr2TrTrPi2 P_TeTeTeTePi O_Tr2Tr2TrPi O_Te2Te2Te2Te O_Te2Te2Te2Te C_TeTeTeTe H_S C_TrTrTrPi O_Tr2Tr2TrPi N_TrTrTrPi2 H_S C_TeTeTeTe H_S H_S C_TeTeTeTe H_S H_S C_TrTrTrPi O_Tr2Tr2TrPi N_TrTrTrPi2 H_S C_TeTeTeTe H_S H_S C_TeTeTeTe H_S H_S S_Te2Te2TeTe C_TrTrTrPi O_Tr2Tr2TrPi C_TeTeTeTe H_S H_S C_TrTrTrPi O_Tr2Tr2TrPi C_TrTrTrPi H_S C_TrTrTrPi H_S C_TrTrTrPi C_TrTrTrPi H_S C_TrTrTrPi C_TrTrTrPi C_TrTrTrPi H_S C_TrTrTrPi H_S O_Te2Te2Te2Te O_Tr2TrTrPi2 C_TeTeTeTe H_S H_S H_S O_Te2Te2TeTe H_S
M  BCL BND NonConjugatedSingleBond NonConjugatedSingleBond NonConjugatedSingleBond NonConjugatedSingleBond NonConjugatedSingleBond NonConjugatedSingleBond NonConjugatedSingleBond NonConjugatedSingleBond NonConjugatedSingleBond NonConjugatedSingleBond NonConjugatedSingleBond NonConjugatedSingleBond NonConjugatedSingleBond ConjugatedSingleBond ConjugatedDoubleBond ConjugatedSingleBond ConjugatedSingleBond ConjugatedSingleBond ConjugatedSingleBond ConjugatedDoubleBond ConjugatedSingleBond NonConjugatedSingleBond NonConjugatedSingleBond NonConjugatedSingleBond NonConjugatedSingleBond NonConjugatedSingleBond NonConjugatedSingleBondInRing NonConjugatedSingleBondInRing NonConjugatedSingleBond NonConjugatedSingleBondInRing NonConjugatedSingleBond NonConjugatedSingleBond NonConjugatedSingleBondInRing NonConjugatedSingleBond NonConjugatedSingleBond NonConjugatedSingleBondInRing NonConjugatedSingleBond AromaticSingleBond AromaticSingleBond NonConjugatedSingleBond AromaticDoubleBond AromaticSingleBond AromaticSingleBond AromaticDoubleBond AromaticDoubleBond ConjugatedSingleBond AromaticSingleBond NonConjugatedSingleBond AromaticDoubleBond AromaticSingleBond NonConjugatedSingleBond NonConjugatedSingleBond NonConjugatedSingleBond ConjugatedSingleBond ConjugatedDoubleBond ConjugatedSingleBond ConjugatedSingleBond NonConjugatedSingleBond NonConjugatedSingleBond NonConjugatedSingleBond ConjugatedDoubleBond AmideSingleBond NonConjugatedSingleBond NonConjugatedSingleBond NonConjugatedSingleBond NonConjugatedSingleBond NonConjugatedSingleBond NonConjugatedSingleBond NonConjugatedSingleBond NonConjugatedSingleBond ConjugatedDoubleBond AmideSingleBond NonConjugatedSingleBond NonConjugatedSingleBond NonConjugatedSingleBond NonConjugatedSingleBond NonConjugatedSingleBond NonConjugatedSingleBond NonConjugatedSingleBond NonConjugatedSingleBond ConjugatedSingleBond ConjugatedDoubleBond NonConjugatedSingleBond NonConjugatedSingleBond NonConjugatedSingleBond NonConjugatedSingleBond ConjugatedDoubleBond ConjugatedSingleBond NonConjugatedSingleBond ConjugatedDoubleBond NonConjugatedSingleBond ConjugatedSingleBond AromaticDoubleBond AromaticSingleBond NonConjugatedSingleBond AromaticSingleBond AromaticDoubleBond ConjugatedSingleBond AromaticSingleBond ConjugatedSingleBond NonConjugatedSingleBond AromaticDoubleBond NonConjugatedSingleBond NonConjugatedSingleBond NonConjugatedSingleBond NonConjugatedSingleBond NonConjugatedSingleBond NonConjugatedSingleBond
M  BCL CHI  14   R  18   S  25   R  27   R  29   R  31   S  55   R
M  BCL DBI - - - - - - - - - - - E - - -
M  END
> <ConfClashScore>
0 

> <ConfOneFourInteractionScore>
-0.971517 

> <ConfScore>
0.129569 

> <ConfScorePBest>
0.0109785 

> <ConfTolerance>
2.95886 

$$$$
L03.****
  PyMOL2.5          3D                             0

105108  0  0  0  0  0  0  0  0999 V2000
    4.7165   -6.8113   -8.0591 C   0  0  0  1  0  0  0  0  0  0  0  0
    5.6980   -6.9091   -7.6445 H   0  0  0  1  0  0  0  0  0  0  0  0
    4.7762   -6.8400   -9.1270 H   0  0  0  1  0  0  0  0  0  0  0  0
    4.1020   -7.6164   -7.7139 H   0  0  0  1  0  0  0  0  0  0  0  0
    4.1049   -5.4764   -7.6174 C   0  0  0  1  0  0  0  0  0  0  0  0
    4.7190   -5.0854   -6.2679 C   0  0  0  1  0  0  0  0  0  0  0  0
    5.7744   -4.9505   -6.3813 H   0  0  0  1  0  0  0  0  0  0  0  0
    4.5335   -5.8605   -5.5539 H   0  0  0  1  0  0  0  0  0  0  0  0
    4.2777   -4.1724   -5.9266 H   0  0  0  1  0  0  0  0  0  0  0  0
    2.6468   -5.6239   -7.4452 C   0  0  0  1  0  0  0  0  0  0  0  0
    2.2244   -6.0219   -8.3441 H   0  0  0  1  0  0  0  0  0  0  0  0
    2.2172   -4.6651   -7.2427 H   0  0  0  1  0  0  0  0  0  0  0  0
    2.3560   -6.5182   -6.3454 O   0  0  0  1  0  0  0  0  0  0  0  0
    1.0844   -6.2379   -5.4619 P   0  0  0  1  0  0  0  0  0  0  0  0
    0.9503   -7.6873   -5.1945 O   0  0  0  1  0  0  0  0  0  0  0  0
    2.2459   -5.1222   -5.2869 O   0  5  0  1  0  0  0  0  0  0  0  0
   -0.2139   -5.9523   -4.5597 O   0  0  0  1  0  0  0  0  0  0  0  0
   -1.3192   -6.9144   -4.0586 P   0  0  0  1  0  0  0  0  0  0  0  0
   -0.5799   -8.1370   -3.4609 O   0  0  0  0  0  0  0  0  0  0  0  0
   -2.3085   -7.1916   -5.1060 O   0  0  0  1  0  0  0  0  0  0  0  0
   -1.9069   -6.1060   -2.8432 O   0  0  0  1  0  0  0  0  0  0  0  0
   -2.9054   -6.6432   -1.9442 C   0  0  0  1  0  0  0  0  0  0  0  0
   -2.4324   -7.2194   -1.1767 H   0  0  0  1  0  0  0  0  0  0  0  0
   -3.5884   -7.2630   -2.4866 H   0  0  0  1  0  0  0  0  0  0  0  0
   -3.6454   -5.4765   -1.3301 C   0  0  0  1  0  0  0  0  0  0  0  0
   -4.3513   -5.8391   -0.6124 H   0  0  0  1  0  0  0  0  0  0  0  0
   -4.3590   -4.7055   -2.4014 C   0  0  0  1  0  0  0  0  0  0  0  0
   -5.4102   -4.6949   -2.2021 H   0  0  0  1  0  0  0  0  0  0  0  0
   -3.8260   -3.3037   -2.3960 C   0  0  0  1  0  0  0  0  0  0  0  0
   -4.6193   -2.6146   -2.1942 H   0  0  0  1  0  0  0  0  0  0  0  0
   -2.7830   -3.2072   -1.3219 C   0  0  0  1  0  0  0  0  0  0  0  0
   -3.0718   -2.4717   -0.6004 H   0  0  0  1  0  0  0  0  0  0  0  0
   -2.6714   -4.5501   -0.6631 O   0  0  0  1  0  0  0  0  0  0  0  0
   -1.4986   -2.8354   -1.9101 N   0  0  0  1  0  0  0  0  0  0  0  0
   -0.4516   -3.6611   -2.1851 C   0  0  0  1  0  0  0  0  0  0  0  0
   -0.4745   -4.6847   -2.0022 H   0  0  0  1  0  0  0  0  0  0  0  0
    0.5948   -3.0474   -2.7042 N   0  0  0  1  0  0  0  0  0  0  0  0
    0.1710   -1.7210   -2.7891 C   0  0  0  1  0  0  0  0  0  0  0  0
    0.8078   -0.5686   -3.2810 C   0  0  0  1  0  0  0  0  0  0  0  0
    0.1220    0.5985   -3.2176 N   0  0  0  1  0  0  0  0  0  0  0  0
   -1.1181    0.5804   -2.6971 C   0  0  0  1  0  0  0  0  0  0  0  0
   -1.5995    1.5018   -2.6692 H   0  0  0  1  0  0  0  0  0  0  0  0
   -1.8223   -0.4419   -2.2116 N   0  0  0  1  0  0  0  0  0  0  0  0
   -1.0965   -1.5752   -2.3014 C   0  0  0  1  0  0  0  0  0  0  0  0
    2.0918   -0.6239   -3.8122 N   0  0  0  1  0  0  0  0  0  0  0  0
    2.5074    0.1862   -4.1749 H   0  0  0  1  0  0  0  0  0  0  0  0
    2.5811   -1.4729   -3.8239 H   0  0  0  1  0  0  0  0  0  0  0  0
   -3.2437   -3.0020   -3.6649 O   0  0  0  1  0  0  0  0  0  0  0  0
   -2.8535   -2.1253   -3.6381 H   0  0  0  1  0  0  0  0  0  0  0  0
   -4.1196   -5.3130   -3.6809 O   0  0  0  1  0  0  0  0  0  0  0  0
   -4.6980   -4.7642   -5.1140 P   0  0  0  1  0  0  0  0  0  0  0  0
   -3.8548   -3.8489   -5.9151 O   0  0  0  1  0  0  0  0  0  0  0  0
   -4.9227   -6.1415   -5.9367 O   0  5  0  1  0  0  0  0  0  0  0  0
   -6.1923   -4.1849   -4.8779 O   0  5  0  1  0  0  0  0  0  0  0  0
    4.3896   -4.3715   -8.6320 C   0  0  0  1  0  0  0  0  0  0  0  0
    5.2678   -4.6406   -9.1810 H   0  0  0  1  0  0  0  0  0  0  0  0
    3.2362   -4.2463   -9.6102 C   0  0  0  1  0  0  0  0  0  0  0  0
    2.7195   -5.2403  -10.1187 O   0  0  0  1  0  0  0  0  0  0  0  0
    2.8291   -2.9947   -9.8746 N   0  0  0  1  0  0  0  0  0  0  0  0
    3.2936   -2.2458   -9.4460 H   0  0  0  1  0  0  0  0  0  0  0  0
    1.7219   -2.7114  -10.7756 C   0  0  0  1  0  0  0  0  0  0  0  0
    1.4813   -3.6040  -11.3144 H   0  0  0  1  0  0  0  0  0  0  0  0
    2.0257   -1.9500  -11.4632 H   0  0  0  1  0  0  0  0  0  0  0  0
    0.4861   -2.2389  -10.0447 C   0  0  0  1  0  0  0  0  0  0  0  0
    0.1968   -3.0050   -9.3559 H   0  0  0  1  0  0  0  0  0  0  0  0
   -0.2903   -2.0964  -10.7671 H   0  0  0  1  0  0  0  0  0  0  0  0
    0.6457   -0.9396   -9.2632 C   0  0  0  1  0  0  0  0  0  0  0  0
    0.3000    0.1070   -9.8092 O   0  0  0  1  0  0  0  0  0  0  0  0
    1.1499   -1.0039   -8.0328 N   0  0  0  1  0  0  0  0  0  0  0  0
    1.4956   -1.8613   -7.7076 H   0  0  0  1  0  0  0  0  0  0  0  0
    1.2055    0.1546   -7.1538 C   0  0  0  1  0  0  0  0  0  0  0  0
    0.8647   -0.1455   -6.1850 H   0  0  0  1  0  0  0  0  0  0  0  0
    0.5496    0.9030   -7.5471 H   0  0  0  1  0  0  0  0  0  0  0  0
    2.5768    0.7647   -7.0014 C   0  0  0  1  0  0  0  0  0  0  0  0
    2.9105    1.1169   -7.9551 H   0  0  0  1  0  0  0  0  0  0  0  0
    3.2530    0.0184   -6.6397 H   0  0  0  1  0  0  0  0  0  0  0  0
    2.5474    2.1489   -5.8378 S   0  0  0  1  0  0  0  0  0  0  0  0
    1.9142    3.4721   -6.8421 C   0  0  0  1  0  0  0  0  0  0  0  0
    1.7413    3.3807   -8.0303 O   0  0  0  1  0  0  0  0  0  0  0  0
    1.6215    4.7134   -6.0352 C   0  0  0  1  0  0  0  0  0  0  0  0
    1.7884    4.4987   -5.0003 H   0  0  0  1  0  0  0  0  0  0  0  0
    0.5975    4.9864   -6.1826 H   0  0  0  1  0  0  0  0  0  0  0  0
    2.4957    5.8742   -6.4369 C   0  0  0  1  0  0  0  0  0  0  0  0
    2.1346    6.6443   -7.3092 O   0  0  0  1  0  0  0  0  0  0  0  0
    3.7816    6.0589   -5.7630 C   0  0  0  1  0  0  0  0  0  0  0  0
    4.4057    6.8413   -6.0456 H   0  0  0  1  0  0  0  0  0  0  0  0
    4.1615    5.2215   -4.7788 C   0  0  0  1  0  0  0  0  0  0  0  0
    3.4592    4.4799   -4.5830 H   0  0  0  1  0  0  0  0  0  0  0  0
    5.3594    5.1255   -3.9149 C   0  0  0  1  0  0  0  0  0  0  0  0
    6.3800    6.0551   -3.9811 C   0  0  0  1  0  0  0  0  0  0  0  0
    6.3201    6.8461   -4.6537 H   0  0  0  1  0  0  0  0  0  0  0  0
    7.4834    5.9331   -3.1510 C   0  0  0  1  0  0  0  0  0  0  0  0
    7.5655    4.8789   -2.2609 C   0  0  0  1  0  0  0  0  0  0  0  0
    6.5418    3.9466   -2.1946 C   0  0  0  1  0  0  0  0  0  0  0  0
    6.6017    3.1556   -1.5220 H   0  0  0  1  0  0  0  0  0  0  0  0
    5.4416    4.0682   -3.0222 C   0  0  0  1  0  0  0  0  0  0  0  0
    4.6755    3.3664   -2.9753 H   0  0  0  1  0  0  0  0  0  0  0  0
    8.5809    4.7804   -1.3615 O   0  5  0  1  0  0  0  0  0  0  0  0
    8.5139    6.8116   -3.1623 O   0  0  0  1  0  0  0  0  0  0  0  0
    8.4044    7.9402   -4.0437 C   0  0  0  1  0  0  0  0  0  0  0  0
    7.4260    8.3651   -3.9601 H   0  0  0  1  0  0  0  0  0  0  0  0
    8.5699    7.6224   -5.0519 H   0  0  0  1  0  0  0  0  0  0  0  0
    9.1357    8.6739   -3.7759 H   0  0  0  1  0  0  0  0  0  0  0  0
    4.6253   -3.1802   -7.9106 O   0  0  0  1  0  0  0  0  0  0  0  0
    5.5385   -2.9090   -8.0293 H   0  0  0  1  0  0  0  0  0  0  0  0
  1  2  1  0  0  0  0
  1  3  1  0  0  0  0
  1  4  1  0  0  0  0
  1  5  1  0  0  0  0
  5  6  1  0  0  0  0
  5 10  1  0  0  0  0
  5 55  1  0  0  0  0
  6  7  1  0  0  0  0
  6  8  1  0  0  0  0
  6  9  1  0  0  0  0
 10 11  1  0  0  0  0
 10 12  1  0  0  0  0
 10 13  1  0  0  0  0
 13 14  1  0  0  0  0
 14 15  2  0  0  0  0
 14 16  1  0  0  0  0
 14 17  1  0  0  0  0
 17 18  1  0  0  0  0
 18 19  1  0  0  0  0
 18 20  2  0  0  0  0
 18 21  1  0  0  0  0
 21 22  1  0  0  0  0
 22 23  1  0  0  0  0
 22 24  1  0  0  0  0
 22 25  1  0  0  0  0
 25 26  1  0  0  0  0
 25 27  1  0  0  0  0
 25 33  1  0  0  0  0
 27 28  1  0  0  0  0
 27 29  1  0  0  0  0
 27 50  1  0  0  0  0
 29 30  1  0  0  0  0
 29 31  1  0  0  0  0
 29 48  1  0  0  0  0
 31 32  1  0  0  0  0
 31 33  1  0  0  0  0
 31 34  1  0  0  0  0
 34 35  1  0  0  0  0
 34 44  1  0  0  0  0
 35 36  1  0  0  0  0
 35 37  2  0  0  0  0
 37 38  1  0  0  0  0
 38 39  1  0  0  0  0
 38 44  2  0  0  0  0
 39 40  2  0  0  0  0
 39 45  1  0  0  0  0
 40 41  1  0  0  0  0
 41 42  1  0  0  0  0
 41 43  2  0  0  0  0
 43 44  1  0  0  0  0
 45 46  1  0  0  0  0
 45 47  1  0  0  0  0
 48 49  1  0  0  0  0
 50 51  1  0  0  0  0
 51 52  2  0  0  0  0
 51 53  1  0  0  0  0
 51 54  1  0  0  0  0
 55 56  1  0  0  0  0
 55 57  1  0  0  0  0
 55104  1  0  0  0  0
 57 58  2  0  0  0  0
 57 59  1  0  0  0  0
 59 60  1  0  0  0  0
 59 61  1  0  0  0  0
 61 62  1  0  0  0  0
 61 63  1  0  0  0  0
 61 64  1  0  0  0  0
 64 65  1  0  0  0  0
 64 66  1  0  0  0  0
 64 67  1  0  0  0  0
 67 68  2  0  0  0  0
 67 69  1  0  0  0  0
 69 70  1  0  0  0  0
 69 71  1  0  0  0  0
 71 72  1  0  0  0  0
 71 73  1  0  0  0  0
 71 74  1  0  0  0  0
 74 75  1  0  0  0  0
 74 76  1  0  0  0  0
 74 77  1  0  0  0  0
 77 78  1  0  0  0  0
 78 79  2  0  0  0  0
 78 80  1  0  0  0  0
 80 81  1  0  0  0  0
 80 82  1  0  0  0  0
 80 83  1  0  0  0  0
 83 84  2  0  0  0  0
 83 85  1  0  0  0  0
 85 86  1  0  0  0  0
 85 87  2  0  0  0  0
 87 88  1  0  0  0  0
 87 89  1  0  0  0  0
 89 90  2  0  0  0  0
 89 96  1  0  0  0  0
 90 91  1  0  0  0  0
 90 92  1  0  0  0  0
 92 93  2  0  0  0  0
 92 99  1  0  0  0  0
 93 94  1  0  0  0  0
 93 98  1  0  0  0  0
 94 95  1  0  0  0  0
 94 96  2  0  0  0  0
 96 97  1  0  0  0  0
 99100  1  0  0  0  0
100101  1  0  0  0  0
100102  1  0  0  0  0
100103  1  0  0  0  0
104105  1  0  0  0  0
M  BCL ATM C_TeTeTeTe H_S H_S H_S C_TeTeTeTe C_TeTeTeTe H_S H_S H_S C_TeTeTeTe H_S H_S O_Tr2TrTrPi2 P_TeTeTeTePi O_Tr2Tr2TrPi O_Te2Te2Te2Te O_Tr2TrTrPi2 P_TeTeTeTePi O_Te2Te2TeTe O_Tr2Tr2TrPi O_Tr2TrTrPi2 C_TeTeTeTe H_S H_S C_TeTeTeTe H_S C_TeTeTeTe H_S C_TeTeTeTe H_S C_TeTeTeTe H_S O_Te2Te2TeTe N_TrTrTrPi2 C_TrTrTrPi H_S N_Tr2TrTrPi C_TrTrTrPi C_TrTrTrPi N_Tr2TrTrPi C_TrTrTrPi H_S N_Tr2TrTrPi C_TrTrTrPi N_TrTrTrPi2 H_S H_S O_Te2Te2TeTe H_S O_Tr2TrTrPi2 P_TeTeTeTePi O_Tr2Tr2TrPi O_Te2Te2Te2Te O_Te2Te2Te2Te C_TeTeTeTe H_S C_TrTrTrPi O_Tr2Tr2TrPi N_TrTrTrPi2 H_S C_TeTeTeTe H_S H_S C_TeTeTeTe H_S H_S C_TrTrTrPi O_Tr2Tr2TrPi N_TrTrTrPi2 H_S C_TeTeTeTe H_S H_S C_TeTeTeTe H_S H_S S_Te2Te2TeTe C_TrTrTrPi O_Tr2Tr2TrPi C_TeTeTeTe H_S H_S C_TrTrTrPi O_Tr2Tr2TrPi C_TrTrTrPi H_S C_TrTrTrPi H_S C_TrTrTrPi C_TrTrTrPi H_S C_TrTrTrPi C_TrTrTrPi C_TrTrTrPi H_S C_TrTrTrPi H_S O_Te2Te2Te2Te O_Tr2TrTrPi2 C_TeTeTeTe H_S H_S H_S O_Te2Te2TeTe H_S
M  BCL BND NonConjugatedSingleBond NonConjugatedSingleBond NonConjugatedSingleBond NonConjugatedSingleBond NonConjugatedSingleBond NonConjugatedSingleBond NonConjugatedSingleBond NonConjugatedSingleBond NonConjugatedSingleBond NonConjugatedSingleBond NonConjugatedSingleBond NonConjugatedSingleBond NonConjugatedSingleBond ConjugatedSingleBond ConjugatedDoubleBond ConjugatedSingleBond ConjugatedSingleBond ConjugatedSingleBond ConjugatedSingleBond ConjugatedDoubleBond ConjugatedSingleBond NonConjugatedSingleBond NonConjugatedSingleBond NonConjugatedSingleBond NonConjugatedSingleBond NonConjugatedSingleBond NonConjugatedSingleBondInRing NonConjugatedSingleBondInRing NonConjugatedSingleBond NonConjugatedSingleBondInRing NonConjugatedSingleBond NonConjugatedSingleBond NonConjugatedSingleBondInRing NonConjugatedSingleBond NonConjugatedSingleBond NonConjugatedSingleBondInRing NonConjugatedSingleBond AromaticSingleBond AromaticSingleBond NonConjugatedSingleBond AromaticDoubleBond AromaticSingleBond AromaticSingleBond AromaticDoubleBond AromaticDoubleBond ConjugatedSingleBond AromaticSingleBond NonConjugatedSingleBond AromaticDoubleBond AromaticSingleBond NonConjugatedSingleBond NonConjugatedSingleBond NonConjugatedSingleBond ConjugatedSingleBond ConjugatedDoubleBond ConjugatedSingleBond ConjugatedSingleBond NonConjugatedSingleBond NonConjugatedSingleBond NonConjugatedSingleBond ConjugatedDoubleBond AmideSingleBond NonConjugatedSingleBond NonConjugatedSingleBond NonConjugatedSingleBond NonConjugatedSingleBond NonConjugatedSingleBond NonConjugatedSingleBond NonConjugatedSingleBond NonConjugatedSingleBond ConjugatedDoubleBond AmideSingleBond NonConjugatedSingleBond NonConjugatedSingleBond NonConjugatedSingleBond NonConjugatedSingleBond NonConjugatedSingleBond NonConjugatedSingleBond NonConjugatedSingleBond NonConjugatedSingleBond ConjugatedSingleBond ConjugatedDoubleBond NonConjugatedSingleBond NonConjugatedSingleBond NonConjugatedSingleBond NonConjugatedSingleBond ConjugatedDoubleBond ConjugatedSingleBond NonConjugatedSingleBond ConjugatedDoubleBond NonConjugatedSingleBond ConjugatedSingleBond AromaticDoubleBond AromaticSingleBond NonConjugatedSingleBond AromaticSingleBond AromaticDoubleBond ConjugatedSingleBond AromaticSingleBond ConjugatedSingleBond NonConjugatedSingleBond AromaticDoubleBond NonConjugatedSingleBond NonConjugatedSingleBond NonConjugatedSingleBond NonConjugatedSingleBond NonConjugatedSingleBond NonConjugatedSingleBond
M  BCL CHI  14   R  18   S  25   R  27   R  29   R  31   S  55   R
M  BCL DBI - - - - - - - - - - - E - - -
M  END
> <ConfClashScore>
0 

> <ConfOneFourInteractionScore>
-0.963315 

> <ConfScore>
0.13261 

> <ConfScorePBest>
0.0108755 

> <ConfTolerance>
2.89385 

$$$$
L03.****
  PyMOL2.5          3D                             0

105108  0  0  0  0  0  0  0  0999 V2000
   -9.1557   -7.3981   -0.9492 C   0  0  0  1  0  0  0  0  0  0  0  0
   -8.1311   -7.1243   -0.8073 H   0  0  0  1  0  0  0  0  0  0  0  0
   -9.6690   -7.3563   -0.0112 H   0  0  0  1  0  0  0  0  0  0  0  0
   -9.6140   -6.7192   -1.6376 H   0  0  0  1  0  0  0  0  0  0  0  0
   -9.2318   -8.8231   -1.5101 C   0  0  0  1  0  0  0  0  0  0  0  0
   -9.4899   -9.8422   -0.3938 C   0  0  0  1  0  0  0  0  0  0  0  0
   -8.7083  -10.5729   -0.3895 H   0  0  0  1  0  0  0  0  0  0  0  0
  -10.4292  -10.3259   -0.5630 H   0  0  0  1  0  0  0  0  0  0  0  0
   -9.5123   -9.3388    0.5502 H   0  0  0  1  0  0  0  0  0  0  0  0
   -7.9440   -9.1122   -2.1192 C   0  0  0  1  0  0  0  0  0  0  0  0
   -7.8601   -8.5480   -3.0245 H   0  0  0  1  0  0  0  0  0  0  0  0
   -7.8995  -10.1573   -2.3442 H   0  0  0  1  0  0  0  0  0  0  0  0
   -6.8284   -8.7766   -1.2609 O   0  0  0  1  0  0  0  0  0  0  0  0
   -5.3460   -8.9604   -1.7557 P   0  0  0  1  0  0  0  0  0  0  0  0
   -4.9319   -7.7892   -0.9511 O   0  0  0  1  0  0  0  0  0  0  0  0
   -6.1054  -10.3624   -1.4692 O   0  5  0  1  0  0  0  0  0  0  0  0
   -3.8318   -9.1477   -2.2607 O   0  0  0  1  0  0  0  0  0  0  0  0
   -2.2929   -9.0132   -1.7470 P   0  0  0  1  0  0  0  0  0  0  0  0
   -1.3630   -9.1017   -2.9001 O   0  0  0  0  0  0  0  0  0  0  0  0
   -2.0612   -9.8516   -0.5570 O   0  0  0  1  0  0  0  0  0  0  0  0
   -2.4970   -7.5102   -1.3282 O   0  0  0  1  0  0  0  0  0  0  0  0
   -3.0868   -6.5559   -2.2473 C   0  0  0  1  0  0  0  0  0  0  0  0
   -3.8225   -7.0515   -2.8456 H   0  0  0  1  0  0  0  0  0  0  0  0
   -2.3217   -6.1567   -2.8798 H   0  0  0  1  0  0  0  0  0  0  0  0
   -3.7429   -5.4263   -1.4860 C   0  0  0  1  0  0  0  0  0  0  0  0
   -4.4323   -5.8288   -0.7735 H   0  0  0  1  0  0  0  0  0  0  0  0
   -4.4667   -4.5223   -2.4402 C   0  0  0  1  0  0  0  0  0  0  0  0
   -5.5063   -4.4873   -2.1894 H   0  0  0  1  0  0  0  0  0  0  0  0
   -3.8686   -3.1519   -2.3235 C   0  0  0  1  0  0  0  0  0  0  0  0
   -4.6188   -2.4536   -2.0163 H   0  0  0  1  0  0  0  0  0  0  0  0
   -2.7753   -3.2079   -1.2977 C   0  0  0  1  0  0  0  0  0  0  0  0
   -2.9966   -2.5368   -0.4942 H   0  0  0  1  0  0  0  0  0  0  0  0
   -2.6976   -4.6135   -0.7800 O   0  0  0  1  0  0  0  0  0  0  0  0
   -1.5013   -2.8334   -1.9095 N   0  0  0  1  0  0  0  0  0  0  0  0
   -0.4571   -3.6559   -2.2027 C   0  0  0  1  0  0  0  0  0  0  0  0
   -0.4800   -4.6781   -2.0126 H   0  0  0  1  0  0  0  0  0  0  0  0
    0.5751   -3.0650   -2.7405 N   0  0  0  1  0  0  0  0  0  0  0  0
    0.1837   -1.7376   -2.8212 C   0  0  0  1  0  0  0  0  0  0  0  0
    0.7930   -0.5723   -3.2771 C   0  0  0  1  0  0  0  0  0  0  0  0
    0.1329    0.5892   -3.2144 N   0  0  0  1  0  0  0  0  0  0  0  0
   -1.1039    0.5828   -2.6927 C   0  0  0  1  0  0  0  0  0  0  0  0
   -1.5820    1.5058   -2.6577 H   0  0  0  1  0  0  0  0  0  0  0  0
   -1.7992   -0.4423   -2.2156 N   0  0  0  1  0  0  0  0  0  0  0  0
   -1.1104   -1.5808   -2.3070 C   0  0  0  1  0  0  0  0  0  0  0  0
    2.0826   -0.6155   -3.7958 N   0  0  0  1  0  0  0  0  0  0  0  0
    2.4402    0.1550   -4.2845 H   0  0  0  1  0  0  0  0  0  0  0  0
    2.6337   -1.4164   -3.6725 H   0  0  0  1  0  0  0  0  0  0  0  0
   -3.3301   -2.7496   -3.5837 O   0  0  0  1  0  0  0  0  0  0  0  0
   -4.0140   -2.8009   -4.2555 H   0  0  0  1  0  0  0  0  0  0  0  0
   -4.3120   -5.0130   -3.7965 O   0  0  0  1  0  0  0  0  0  0  0  0
   -5.5815   -5.3810   -4.7674 P   0  0  0  1  0  0  0  0  0  0  0  0
   -6.7553   -4.5866   -4.3413 O   0  0  0  1  0  0  0  0  0  0  0  0
   -5.1717   -5.1676   -6.3201 O   0  5  0  1  0  0  0  0  0  0  0  0
   -5.7565   -6.9512   -4.4093 O   0  5  0  1  0  0  0  0  0  0  0  0
  -10.3217   -8.9609   -2.5796 C   0  0  0  1  0  0  0  0  0  0  0  0
  -11.2775   -8.9076   -2.1015 H   0  0  0  1  0  0  0  0  0  0  0  0
  -10.1982   -7.8051   -3.5552 C   0  0  0  1  0  0  0  0  0  0  0  0
   -9.1624   -7.6143   -4.1911 O   0  0  0  1  0  0  0  0  0  0  0  0
  -11.2818   -7.0212   -3.6708 N   0  0  0  1  0  0  0  0  0  0  0  0
  -12.1029   -7.2771   -3.2012 H   0  0  0  1  0  0  0  0  0  0  0  0
  -11.2794   -5.8045   -4.4693 C   0  0  0  1  0  0  0  0  0  0  0  0
  -10.9994   -6.0529   -5.4717 H   0  0  0  1  0  0  0  0  0  0  0  0
  -10.5636   -5.1248   -4.0565 H   0  0  0  1  0  0  0  0  0  0  0  0
  -12.6378   -5.1233   -4.4978 C   0  0  0  1  0  0  0  0  0  0  0  0
  -12.9172   -4.8559   -3.5001 H   0  0  0  1  0  0  0  0  0  0  0  0
  -13.3613   -5.8001   -4.9020 H   0  0  0  1  0  0  0  0  0  0  0  0
  -12.5942   -3.8725   -5.3539 C   0  0  0  1  0  0  0  0  0  0  0  0
  -11.6467   -3.1055   -5.3064 O   0  0  0  1  0  0  0  0  0  0  0  0
  -13.6477   -3.6767   -6.1473 N   0  0  0  1  0  0  0  0  0  0  0  0
  -14.3501   -4.3601   -6.1449 H   0  0  0  1  0  0  0  0  0  0  0  0
  -13.8332   -2.5244   -7.0167 C   0  0  0  1  0  0  0  0  0  0  0  0
  -14.5303   -2.7736   -7.7893 H   0  0  0  1  0  0  0  0  0  0  0  0
  -12.8942   -2.2581   -7.4551 H   0  0  0  1  0  0  0  0  0  0  0  0
  -14.3655   -1.3495   -6.2235 C   0  0  0  1  0  0  0  0  0  0  0  0
  -15.3544   -1.5848   -5.8896 H   0  0  0  1  0  0  0  0  0  0  0  0
  -14.3991   -0.4937   -6.8648 H   0  0  0  1  0  0  0  0  0  0  0  0
  -13.3546   -0.9476   -4.7835 S   0  0  0  1  0  0  0  0  0  0  0  0
  -13.7208    0.7514   -4.5342 C   0  0  0  1  0  0  0  0  0  0  0  0
  -14.4266    1.4162   -5.2436 O   0  0  0  1  0  0  0  0  0  0  0  0
  -13.0502    1.3258   -3.3103 C   0  0  0  1  0  0  0  0  0  0  0  0
  -12.4873    0.5461   -2.8412 H   0  0  0  1  0  0  0  0  0  0  0  0
  -13.8125    1.6679   -2.6417 H   0  0  0  1  0  0  0  0  0  0  0  0
  -12.1175    2.4772   -3.5885 C   0  0  0  1  0  0  0  0  0  0  0  0
  -11.8340    2.7916   -4.7326 O   0  0  0  1  0  0  0  0  0  0  0  0
  -11.5362    3.2376   -2.4888 C   0  0  0  1  0  0  0  0  0  0  0  0
  -11.7576    2.9217   -1.5230 H   0  0  0  1  0  0  0  0  0  0  0  0
  -10.7455    4.3026   -2.6151 C   0  0  0  1  0  0  0  0  0  0  0  0
  -10.5096    4.6378   -3.5709 H   0  0  0  1  0  0  0  0  0  0  0  0
  -10.1886    5.0289   -1.4503 C   0  0  0  1  0  0  0  0  0  0  0  0
  -10.8620    5.0001   -0.2437 C   0  0  0  1  0  0  0  0  0  0  0  0
  -11.7553    4.4744   -0.1591 H   0  0  0  1  0  0  0  0  0  0  0  0
  -10.3465    5.6720    0.8537 C   0  0  0  1  0  0  0  0  0  0  0  0
   -9.1620    6.3751    0.7400 C   0  0  0  1  0  0  0  0  0  0  0  0
   -8.4867    6.4039   -0.4703 C   0  0  0  1  0  0  0  0  0  0  0  0
   -7.5934    6.9296   -0.5549 H   0  0  0  1  0  0  0  0  0  0  0  0
   -9.0006    5.7340   -1.5646 C   0  0  0  1  0  0  0  0  0  0  0  0
   -8.4961    5.7589   -2.4737 H   0  0  0  1  0  0  0  0  0  0  0  0
   -8.5656    7.0735    1.7430 O   0  5  0  1  0  0  0  0  0  0  0  0
  -10.9120    5.7113    2.0835 O   0  0  0  1  0  0  0  0  0  0  0  0
  -12.1775    5.0518    2.2452 C   0  0  0  1  0  0  0  0  0  0  0  0
  -12.5866    4.8231    1.2833 H   0  0  0  1  0  0  0  0  0  0  0  0
  -12.8494    5.6947    2.7745 H   0  0  0  1  0  0  0  0  0  0  0  0
  -12.0395    4.1463    2.7982 H   0  0  0  1  0  0  0  0  0  0  0  0
  -10.1852  -10.1975   -3.2627 O   0  0  0  1  0  0  0  0  0  0  0  0
   -9.2714  -10.3156   -3.5321 H   0  0  0  1  0  0  0  0  0  0  0  0
  1  2  1  0  0  0  0
  1  3  1  0  0  0  0
  1  4  1  0  0  0  0
  1  5  1  0  0  0  0
  5  6  1  0  0  0  0
  5 10  1  0  0  0  0
  5 55  1  0  0  0  0
  6  7  1  0  0  0  0
  6  8  1  0  0  0  0
  6  9  1  0  0  0  0
 10 11  1  0  0  0  0
 10 12  1  0  0  0  0
 10 13  1  0  0  0  0
 13 14  1  0  0  0  0
 14 15  2  0  0  0  0
 14 16  1  0  0  0  0
 14 17  1  0  0  0  0
 17 18  1  0  0  0  0
 18 19  1  0  0  0  0
 18 20  2  0  0  0  0
 18 21  1  0  0  0  0
 21 22  1  0  0  0  0
 22 23  1  0  0  0  0
 22 24  1  0  0  0  0
 22 25  1  0  0  0  0
 25 26  1  0  0  0  0
 25 27  1  0  0  0  0
 25 33  1  0  0  0  0
 27 28  1  0  0  0  0
 27 29  1  0  0  0  0
 27 50  1  0  0  0  0
 29 30  1  0  0  0  0
 29 31  1  0  0  0  0
 29 48  1  0  0  0  0
 31 32  1  0  0  0  0
 31 33  1  0  0  0  0
 31 34  1  0  0  0  0
 34 35  1  0  0  0  0
 34 44  1  0  0  0  0
 35 36  1  0  0  0  0
 35 37  2  0  0  0  0
 37 38  1  0  0  0  0
 38 39  1  0  0  0  0
 38 44  2  0  0  0  0
 39 40  2  0  0  0  0
 39 45  1  0  0  0  0
 40 41  1  0  0  0  0
 41 42  1  0  0  0  0
 41 43  2  0  0  0  0
 43 44  1  0  0  0  0
 45 46  1  0  0  0  0
 45 47  1  0  0  0  0
 48 49  1  0  0  0  0
 50 51  1  0  0  0  0
 51 52  2  0  0  0  0
 51 53  1  0  0  0  0
 51 54  1  0  0  0  0
 55 56  1  0  0  0  0
 55 57  1  0  0  0  0
 55104  1  0  0  0  0
 57 58  2  0  0  0  0
 57 59  1  0  0  0  0
 59 60  1  0  0  0  0
 59 61  1  0  0  0  0
 61 62  1  0  0  0  0
 61 63  1  0  0  0  0
 61 64  1  0  0  0  0
 64 65  1  0  0  0  0
 64 66  1  0  0  0  0
 64 67  1  0  0  0  0
 67 68  2  0  0  0  0
 67 69  1  0  0  0  0
 69 70  1  0  0  0  0
 69 71  1  0  0  0  0
 71 72  1  0  0  0  0
 71 73  1  0  0  0  0
 71 74  1  0  0  0  0
 74 75  1  0  0  0  0
 74 76  1  0  0  0  0
 74 77  1  0  0  0  0
 77 78  1  0  0  0  0
 78 79  2  0  0  0  0
 78 80  1  0  0  0  0
 80 81  1  0  0  0  0
 80 82  1  0  0  0  0
 80 83  1  0  0  0  0
 83 84  2  0  0  0  0
 83 85  1  0  0  0  0
 85 86  1  0  0  0  0
 85 87  2  0  0  0  0
 87 88  1  0  0  0  0
 87 89  1  0  0  0  0
 89 90  2  0  0  0  0
 89 96  1  0  0  0  0
 90 91  1  0  0  0  0
 90 92  1  0  0  0  0
 92 93  2  0  0  0  0
 92 99  1  0  0  0  0
 93 94  1  0  0  0  0
 93 98  1  0  0  0  0
 94 95  1  0  0  0  0
 94 96  2  0  0  0  0
 96 97  1  0  0  0  0
 99100  1  0  0  0  0
100101  1  0  0  0  0
100102  1  0  0  0  0
100103  1  0  0  0  0
104105  1  0  0  0  0
M  BCL ATM C_TeTeTeTe H_S H_S H_S C_TeTeTeTe C_TeTeTeTe H_S H_S H_S C_TeTeTeTe H_S H_S O_Tr2TrTrPi2 P_TeTeTeTePi O_Tr2Tr2TrPi O_Te2Te2Te2Te O_Tr2TrTrPi2 P_TeTeTeTePi O_Te2Te2TeTe O_Tr2Tr2TrPi O_Tr2TrTrPi2 C_TeTeTeTe H_S H_S C_TeTeTeTe H_S C_TeTeTeTe H_S C_TeTeTeTe H_S C_TeTeTeTe H_S O_Te2Te2TeTe N_TrTrTrPi2 C_TrTrTrPi H_S N_Tr2TrTrPi C_TrTrTrPi C_TrTrTrPi N_Tr2TrTrPi C_TrTrTrPi H_S N_Tr2TrTrPi C_TrTrTrPi N_TrTrTrPi2 H_S H_S O_Te2Te2TeTe H_S O_Tr2TrTrPi2 P_TeTeTeTePi O_Tr2Tr2TrPi O_Te2Te2Te2Te O_Te2Te2Te2Te C_TeTeTeTe H_S C_TrTrTrPi O_Tr2Tr2TrPi N_TrTrTrPi2 H_S C_TeTeTeTe H_S H_S C_TeTeTeTe H_S H_S C_TrTrTrPi O_Tr2Tr2TrPi N_TrTrTrPi2 H_S C_TeTeTeTe H_S H_S C_TeTeTeTe H_S H_S S_Te2Te2TeTe C_TrTrTrPi O_Tr2Tr2TrPi C_TeTeTeTe H_S H_S C_TrTrTrPi O_Tr2Tr2TrPi C_TrTrTrPi H_S C_TrTrTrPi H_S C_TrTrTrPi C_TrTrTrPi H_S C_TrTrTrPi C_TrTrTrPi C_TrTrTrPi H_S C_TrTrTrPi H_S O_Te2Te2Te2Te O_Tr2TrTrPi2 C_TeTeTeTe H_S H_S H_S O_Te2Te2TeTe H_S
M  BCL BND NonConjugatedSingleBond NonConjugatedSingleBond NonConjugatedSingleBond NonConjugatedSingleBond NonConjugatedSingleBond NonConjugatedSingleBond NonConjugatedSingleBond NonConjugatedSingleBond NonConjugatedSingleBond NonConjugatedSingleBond NonConjugatedSingleBond NonConjugatedSingleBond NonConjugatedSingleBond ConjugatedSingleBond ConjugatedDoubleBond ConjugatedSingleBond ConjugatedSingleBond ConjugatedSingleBond ConjugatedSingleBond ConjugatedDoubleBond ConjugatedSingleBond NonConjugatedSingleBond NonConjugatedSingleBond NonConjugatedSingleBond NonConjugatedSingleBond NonConjugatedSingleBond NonConjugatedSingleBondInRing NonConjugatedSingleBondInRing NonConjugatedSingleBond NonConjugatedSingleBondInRing NonConjugatedSingleBond NonConjugatedSingleBond NonConjugatedSingleBondInRing NonConjugatedSingleBond NonConjugatedSingleBond NonConjugatedSingleBondInRing NonConjugatedSingleBond AromaticSingleBond AromaticSingleBond NonConjugatedSingleBond AromaticDoubleBond AromaticSingleBond AromaticSingleBond AromaticDoubleBond AromaticDoubleBond ConjugatedSingleBond AromaticSingleBond NonConjugatedSingleBond AromaticDoubleBond AromaticSingleBond NonConjugatedSingleBond NonConjugatedSingleBond NonConjugatedSingleBond ConjugatedSingleBond ConjugatedDoubleBond ConjugatedSingleBond ConjugatedSingleBond NonConjugatedSingleBond NonConjugatedSingleBond NonConjugatedSingleBond ConjugatedDoubleBond AmideSingleBond NonConjugatedSingleBond NonConjugatedSingleBond NonConjugatedSingleBond NonConjugatedSingleBond NonConjugatedSingleBond NonConjugatedSingleBond NonConjugatedSingleBond NonConjugatedSingleBond ConjugatedDoubleBond AmideSingleBond NonConjugatedSingleBond NonConjugatedSingleBond NonConjugatedSingleBond NonConjugatedSingleBond NonConjugatedSingleBond NonConjugatedSingleBond NonConjugatedSingleBond NonConjugatedSingleBond ConjugatedSingleBond ConjugatedDoubleBond NonConjugatedSingleBond NonConjugatedSingleBond NonConjugatedSingleBond NonConjugatedSingleBond ConjugatedDoubleBond ConjugatedSingleBond NonConjugatedSingleBond ConjugatedDoubleBond NonConjugatedSingleBond ConjugatedSingleBond AromaticDoubleBond AromaticSingleBond NonConjugatedSingleBond AromaticSingleBond AromaticDoubleBond ConjugatedSingleBond AromaticSingleBond ConjugatedSingleBond NonConjugatedSingleBond AromaticDoubleBond NonConjugatedSingleBond NonConjugatedSingleBond NonConjugatedSingleBond NonConjugatedSingleBond NonConjugatedSingleBond NonConjugatedSingleBond
M  BCL CHI  14   R  18   S  25   R  27   R  29   R  31   S  55   R
M  BCL DBI - - - - - - - - - - - E - - -
M  END
> <ConfClashScore>
0.000170884 

> <ConfOneFourInteractionScore>
-0.968822 

> <ConfScore>
0.134039 

> <ConfScorePBest>
0.0107725 

> <ConfTolerance>
2.75611 

$$$$
L03.****
  PyMOL2.5          3D                             0

105108  0  0  0  0  0  0  0  0999 V2000
   -0.6571   -7.8701    2.9186 C   0  0  0  1  0  0  0  0  0  0  0  0
   -0.4562   -8.7577    2.3559 H   0  0  0  1  0  0  0  0  0  0  0  0
   -1.7043   -7.6536    2.8811 H   0  0  0  1  0  0  0  0  0  0  0  0
   -0.3590   -8.0177    3.9355 H   0  0  0  1  0  0  0  0  0  0  0  0
    0.1286   -6.6966    2.3212 C   0  0  0  1  0  0  0  0  0  0  0  0
   -0.2280   -5.4143    3.0827 C   0  0  0  1  0  0  0  0  0  0  0  0
    0.4851   -5.2527    3.8638 H   0  0  0  1  0  0  0  0  0  0  0  0
   -1.2054   -5.5120    3.5070 H   0  0  0  1  0  0  0  0  0  0  0  0
   -0.2127   -4.5835    2.4086 H   0  0  0  1  0  0  0  0  0  0  0  0
   -0.1775   -6.5257    0.8696 C   0  0  0  1  0  0  0  0  0  0  0  0
    0.4279   -5.7448    0.4590 H   0  0  0  1  0  0  0  0  0  0  0  0
   -1.2112   -6.2810    0.7416 H   0  0  0  1  0  0  0  0  0  0  0  0
    0.1181   -7.7781    0.2078 O   0  0  0  1  0  0  0  0  0  0  0  0
   -0.5297   -8.1282   -1.1828 P   0  0  0  1  0  0  0  0  0  0  0  0
   -1.7880   -8.5069   -0.5017 O   0  0  0  1  0  0  0  0  0  0  0  0
    0.4222   -6.8183   -1.2300 O   0  5  0  1  0  0  0  0  0  0  0  0
   -1.1916   -8.4857   -2.6024 O   0  0  0  1  0  0  0  0  0  0  0  0
   -1.4527   -7.5135   -3.8261 P   0  0  0  1  0  0  0  0  0  0  0  0
   -2.3207   -8.2342   -4.7837 O   0  0  0  0  0  0  0  0  0  0  0  0
   -0.1828   -6.9303   -4.3100 O   0  0  0  1  0  0  0  0  0  0  0  0
   -2.2546   -6.3232   -3.1810 O   0  0  0  1  0  0  0  0  0  0  0  0
   -3.4039   -6.5738   -2.3369 C   0  0  0  1  0  0  0  0  0  0  0  0
   -3.1337   -7.2348   -1.5401 H   0  0  0  1  0  0  0  0  0  0  0  0
   -4.1909   -7.0129   -2.9138 H   0  0  0  1  0  0  0  0  0  0  0  0
   -3.8577   -5.2463   -1.7733 C   0  0  0  1  0  0  0  0  0  0  0  0
   -4.7136   -5.3972   -1.1490 H   0  0  0  1  0  0  0  0  0  0  0  0
   -4.1761   -4.2561   -2.9029 C   0  0  0  1  0  0  0  0  0  0  0  0
   -5.1928   -4.3499   -3.2229 H   0  0  0  1  0  0  0  0  0  0  0  0
   -3.9333   -2.9206   -2.2502 C   0  0  0  1  0  0  0  0  0  0  0  0
   -4.7996   -2.5917   -1.7152 H   0  0  0  1  0  0  0  0  0  0  0  0
   -2.7723   -3.2063   -1.2931 C   0  0  0  1  0  0  0  0  0  0  0  0
   -2.8998   -2.6685   -0.3769 H   0  0  0  1  0  0  0  0  0  0  0  0
   -2.8222   -4.6313   -1.0561 O   0  0  0  1  0  0  0  0  0  0  0  0
   -1.4987   -2.8323   -1.9053 N   0  0  0  1  0  0  0  0  0  0  0  0
   -0.4529   -3.6543   -2.1943 C   0  0  0  1  0  0  0  0  0  0  0  0
   -0.4743   -4.6757   -2.0001 H   0  0  0  1  0  0  0  0  0  0  0  0
    0.5787   -3.0639   -2.7337 N   0  0  0  1  0  0  0  0  0  0  0  0
    0.1853   -1.7375   -2.8200 C   0  0  0  1  0  0  0  0  0  0  0  0
    0.7930   -0.5730   -3.2801 C   0  0  0  1  0  0  0  0  0  0  0  0
    0.1311    0.5876   -3.2225 N   0  0  0  1  0  0  0  0  0  0  0  0
   -1.1062    0.5814   -2.7018 C   0  0  0  1  0  0  0  0  0  0  0  0
   -1.5858    1.5037   -2.6708 H   0  0  0  1  0  0  0  0  0  0  0  0
   -1.8001   -0.4429   -2.2211 N   0  0  0  1  0  0  0  0  0  0  0  0
   -1.1095   -1.5807   -2.3075 C   0  0  0  1  0  0  0  0  0  0  0  0
    2.0781   -0.6160   -3.7955 N   0  0  0  1  0  0  0  0  0  0  0  0
    2.4798    0.1917   -4.1784 H   0  0  0  1  0  0  0  0  0  0  0  0
    2.5856   -1.4542   -3.7773 H   0  0  0  1  0  0  0  0  0  0  0  0
   -3.5685   -1.9359   -3.2185 O   0  0  0  1  0  0  0  0  0  0  0  0
   -3.7671   -1.0612   -2.8765 H   0  0  0  1  0  0  0  0  0  0  0  0
   -3.3004   -4.4511   -4.0248 O   0  0  0  1  0  0  0  0  0  0  0  0
   -3.6351   -4.0279   -5.5734 P   0  0  0  1  0  0  0  0  0  0  0  0
   -4.9687   -3.3862   -5.5696 O   0  0  0  1  0  0  0  0  0  0  0  0
   -2.4564   -2.9833   -5.9528 O   0  5  0  1  0  0  0  0  0  0  0  0
   -3.3445   -5.3789   -6.4188 O   0  5  0  1  0  0  0  0  0  0  0  0
    1.6278   -6.9629    2.5015 C   0  0  0  1  0  0  0  0  0  0  0  0
    2.1253   -6.0206    2.5989 H   0  0  0  1  0  0  0  0  0  0  0  0
    1.8735   -7.7670    3.7648 C   0  0  0  1  0  0  0  0  0  0  0  0
    1.8075   -8.9954    3.7537 O   0  0  0  1  0  0  0  0  0  0  0  0
    2.1644   -7.0983    4.8919 N   0  0  0  1  0  0  0  0  0  0  0  0
    2.2327   -6.1213    4.8580 H   0  0  0  1  0  0  0  0  0  0  0  0
    2.3819   -7.7738    6.1624 C   0  0  0  1  0  0  0  0  0  0  0  0
    3.3397   -7.4871    6.5436 H   0  0  0  1  0  0  0  0  0  0  0  0
    2.3654   -8.8307    5.9960 H   0  0  0  1  0  0  0  0  0  0  0  0
    1.3205   -7.4262    7.1980 C   0  0  0  1  0  0  0  0  0  0  0  0
    1.5074   -7.9985    8.0826 H   0  0  0  1  0  0  0  0  0  0  0  0
    0.3607   -7.6843    6.8018 H   0  0  0  1  0  0  0  0  0  0  0  0
    1.3105   -5.9557    7.5678 C   0  0  0  1  0  0  0  0  0  0  0  0
    2.3034   -5.4099    8.0201 O   0  0  0  1  0  0  0  0  0  0  0  0
    0.1506   -5.3112    7.3645 N   0  0  0  1  0  0  0  0  0  0  0  0
   -0.6195   -5.8443    7.0762 H   0  0  0  1  0  0  0  0  0  0  0  0
   -0.0493   -3.8804    7.5400 C   0  0  0  1  0  0  0  0  0  0  0  0
    0.8722   -3.4424    7.8624 H   0  0  0  1  0  0  0  0  0  0  0  0
   -0.7984   -3.7282    8.2887 H   0  0  0  1  0  0  0  0  0  0  0  0
   -0.4904   -3.1976    6.2691 C   0  0  0  1  0  0  0  0  0  0  0  0
   -1.4394   -3.6035    5.9871 H   0  0  0  1  0  0  0  0  0  0  0  0
    0.2308   -3.4144    5.5090 H   0  0  0  1  0  0  0  0  0  0  0  0
   -0.6613   -1.4007    6.3829 S   0  0  0  1  0  0  0  0  0  0  0  0
   -1.5015   -0.9999    4.8462 C   0  0  0  1  0  0  0  0  0  0  0  0
   -1.4342   -1.7106    3.8799 O   0  0  0  1  0  0  0  0  0  0  0  0
   -2.3774    0.2253    4.9384 C   0  0  0  1  0  0  0  0  0  0  0  0
   -2.1029    0.9131    4.1661 H   0  0  0  1  0  0  0  0  0  0  0  0
   -2.2378    0.6867    5.8937 H   0  0  0  1  0  0  0  0  0  0  0  0
   -3.8286   -0.1495    4.7759 C   0  0  0  1  0  0  0  0  0  0  0  0
   -4.1523   -1.3176    4.6372 O   0  0  0  1  0  0  0  0  0  0  0  0
   -4.8368    0.9067    4.7875 C   0  0  0  1  0  0  0  0  0  0  0  0
   -4.4529    1.8718    4.8418 H   0  0  0  1  0  0  0  0  0  0  0  0
   -6.1668    0.8400    4.7402 C   0  0  0  1  0  0  0  0  0  0  0  0
   -6.5752   -0.1148    4.6855 H   0  0  0  1  0  0  0  0  0  0  0  0
   -7.1357    1.9650    4.7560 C   0  0  0  1  0  0  0  0  0  0  0  0
   -8.4847    1.7199    4.5819 C   0  0  0  1  0  0  0  0  0  0  0  0
   -8.8296    0.7419    4.5031 H   0  0  0  1  0  0  0  0  0  0  0  0
   -9.3778    2.7777    4.5123 C   0  0  0  1  0  0  0  0  0  0  0  0
   -8.9188    4.0776    4.6116 C   0  0  0  1  0  0  0  0  0  0  0  0
   -7.5657    4.3232    4.7862 C   0  0  0  1  0  0  0  0  0  0  0  0
   -7.2207    5.3012    4.8650 H   0  0  0  1  0  0  0  0  0  0  0  0
   -6.6751    3.2686    4.8557 C   0  0  0  1  0  0  0  0  0  0  0  0
   -5.6595    3.4530    4.9827 H   0  0  0  1  0  0  0  0  0  0  0  0
   -9.8516    5.0638    4.5293 O   0  5  0  1  0  0  0  0  0  0  0  0
  -10.7138    2.6617    4.3495 O   0  0  0  1  0  0  0  0  0  0  0  0
  -11.2998    1.3569    4.2210 C   0  0  0  1  0  0  0  0  0  0  0  0
  -11.0174    0.7544    5.0590 H   0  0  0  1  0  0  0  0  0  0  0  0
  -10.9532    0.8977    3.3189 H   0  0  0  1  0  0  0  0  0  0  0  0
  -12.3656    1.4464    4.1896 H   0  0  0  1  0  0  0  0  0  0  0  0
    2.1351   -7.6571    1.3659 O   0  0  0  1  0  0  0  0  0  0  0  0
    1.9790   -7.1354    0.5753 H   0  0  0  1  0  0  0  0  0  0  0  0
  1  2  1  0  0  0  0
  1  3  1  0  0  0  0
  1  4  1  0  0  0  0
  1  5  1  0  0  0  0
  5  6  1  0  0  0  0
  5 10  1  0  0  0  0
  5 55  1  0  0  0  0
  6  7  1  0  0  0  0
  6  8  1  0  0  0  0
  6  9  1  0  0  0  0
 10 11  1  0  0  0  0
 10 12  1  0  0  0  0
 10 13  1  0  0  0  0
 13 14  1  0  0  0  0
 14 15  2  0  0  0  0
 14 16  1  0  0  0  0
 14 17  1  0  0  0  0
 17 18  1  0  0  0  0
 18 19  1  0  0  0  0
 18 20  2  0  0  0  0
 18 21  1  0  0  0  0
 21 22  1  0  0  0  0
 22 23  1  0  0  0  0
 22 24  1  0  0  0  0
 22 25  1  0  0  0  0
 25 26  1  0  0  0  0
 25 27  1  0  0  0  0
 25 33  1  0  0  0  0
 27 28  1  0  0  0  0
 27 29  1  0  0  0  0
 27 50  1  0  0  0  0
 29 30  1  0  0  0  0
 29 31  1  0  0  0  0
 29 48  1  0  0  0  0
 31 32  1  0  0  0  0
 31 33  1  0  0  0  0
 31 34  1  0  0  0  0
 34 35  1  0  0  0  0
 34 44  1  0  0  0  0
 35 36  1  0  0  0  0
 35 37  2  0  0  0  0
 37 38  1  0  0  0  0
 38 39  1  0  0  0  0
 38 44  2  0  0  0  0
 39 40  2  0  0  0  0
 39 45  1  0  0  0  0
 40 41  1  0  0  0  0
 41 42  1  0  0  0  0
 41 43  2  0  0  0  0
 43 44  1  0  0  0  0
 45 46  1  0  0  0  0
 45 47  1  0  0  0  0
 48 49  1  0  0  0  0
 50 51  1  0  0  0  0
 51 52  2  0  0  0  0
 51 53  1  0  0  0  0
 51 54  1  0  0  0  0
 55 56  1  0  0  0  0
 55 57  1  0  0  0  0
 55104  1  0  0  0  0
 57 58  2  0  0  0  0
 57 59  1  0  0  0  0
 59 60  1  0  0  0  0
 59 61  1  0  0  0  0
 61 62  1  0  0  0  0
 61 63  1  0  0  0  0
 61 64  1  0  0  0  0
 64 65  1  0  0  0  0
 64 66  1  0  0  0  0
 64 67  1  0  0  0  0
 67 68  2  0  0  0  0
 67 69  1  0  0  0  0
 69 70  1  0  0  0  0
 69 71  1  0  0  0  0
 71 72  1  0  0  0  0
 71 73  1  0  0  0  0
 71 74  1  0  0  0  0
 74 75  1  0  0  0  0
 74 76  1  0  0  0  0
 74 77  1  0  0  0  0
 77 78  1  0  0  0  0
 78 79  2  0  0  0  0
 78 80  1  0  0  0  0
 80 81  1  0  0  0  0
 80 82  1  0  0  0  0
 80 83  1  0  0  0  0
 83 84  2  0  0  0  0
 83 85  1  0  0  0  0
 85 86  1  0  0  0  0
 85 87  2  0  0  0  0
 87 88  1  0  0  0  0
 87 89  1  0  0  0  0
 89 90  2  0  0  0  0
 89 96  1  0  0  0  0
 90 91  1  0  0  0  0
 90 92  1  0  0  0  0
 92 93  2  0  0  0  0
 92 99  1  0  0  0  0
 93 94  1  0  0  0  0
 93 98  1  0  0  0  0
 94 95  1  0  0  0  0
 94 96  2  0  0  0  0
 96 97  1  0  0  0  0
 99100  1  0  0  0  0
100101  1  0  0  0  0
100102  1  0  0  0  0
100103  1  0  0  0  0
104105  1  0  0  0  0
M  BCL ATM C_TeTeTeTe H_S H_S H_S C_TeTeTeTe C_TeTeTeTe H_S H_S H_S C_TeTeTeTe H_S H_S O_Tr2TrTrPi2 P_TeTeTeTePi O_Tr2Tr2TrPi O_Te2Te2Te2Te O_Tr2TrTrPi2 P_TeTeTeTePi O_Te2Te2TeTe O_Tr2Tr2TrPi O_Tr2TrTrPi2 C_TeTeTeTe H_S H_S C_TeTeTeTe H_S C_TeTeTeTe H_S C_TeTeTeTe H_S C_TeTeTeTe H_S O_Te2Te2TeTe N_TrTrTrPi2 C_TrTrTrPi H_S N_Tr2TrTrPi C_TrTrTrPi C_TrTrTrPi N_Tr2TrTrPi C_TrTrTrPi H_S N_Tr2TrTrPi C_TrTrTrPi N_TrTrTrPi2 H_S H_S O_Te2Te2TeTe H_S O_Tr2TrTrPi2 P_TeTeTeTePi O_Tr2Tr2TrPi O_Te2Te2Te2Te O_Te2Te2Te2Te C_TeTeTeTe H_S C_TrTrTrPi O_Tr2Tr2TrPi N_TrTrTrPi2 H_S C_TeTeTeTe H_S H_S C_TeTeTeTe H_S H_S C_TrTrTrPi O_Tr2Tr2TrPi N_TrTrTrPi2 H_S C_TeTeTeTe H_S H_S C_TeTeTeTe H_S H_S S_Te2Te2TeTe C_TrTrTrPi O_Tr2Tr2TrPi C_TeTeTeTe H_S H_S C_TrTrTrPi O_Tr2Tr2TrPi C_TrTrTrPi H_S C_TrTrTrPi H_S C_TrTrTrPi C_TrTrTrPi H_S C_TrTrTrPi C_TrTrTrPi C_TrTrTrPi H_S C_TrTrTrPi H_S O_Te2Te2Te2Te O_Tr2TrTrPi2 C_TeTeTeTe H_S H_S H_S O_Te2Te2TeTe H_S
M  BCL BND NonConjugatedSingleBond NonConjugatedSingleBond NonConjugatedSingleBond NonConjugatedSingleBond NonConjugatedSingleBond NonConjugatedSingleBond NonConjugatedSingleBond NonConjugatedSingleBond NonConjugatedSingleBond NonConjugatedSingleBond NonConjugatedSingleBond NonConjugatedSingleBond NonConjugatedSingleBond ConjugatedSingleBond ConjugatedDoubleBond ConjugatedSingleBond ConjugatedSingleBond ConjugatedSingleBond ConjugatedSingleBond ConjugatedDoubleBond ConjugatedSingleBond NonConjugatedSingleBond NonConjugatedSingleBond NonConjugatedSingleBond NonConjugatedSingleBond NonConjugatedSingleBond NonConjugatedSingleBondInRing NonConjugatedSingleBondInRing NonConjugatedSingleBond NonConjugatedSingleBondInRing NonConjugatedSingleBond NonConjugatedSingleBond NonConjugatedSingleBondInRing NonConjugatedSingleBond NonConjugatedSingleBond NonConjugatedSingleBondInRing NonConjugatedSingleBond AromaticSingleBond AromaticSingleBond NonConjugatedSingleBond AromaticDoubleBond AromaticSingleBond AromaticSingleBond AromaticDoubleBond AromaticDoubleBond ConjugatedSingleBond AromaticSingleBond NonConjugatedSingleBond AromaticDoubleBond AromaticSingleBond NonConjugatedSingleBond NonConjugatedSingleBond NonConjugatedSingleBond ConjugatedSingleBond ConjugatedDoubleBond ConjugatedSingleBond ConjugatedSingleBond NonConjugatedSingleBond NonConjugatedSingleBond NonConjugatedSingleBond ConjugatedDoubleBond AmideSingleBond NonConjugatedSingleBond NonConjugatedSingleBond NonConjugatedSingleBond NonConjugatedSingleBond NonConjugatedSingleBond NonConjugatedSingleBond NonConjugatedSingleBond NonConjugatedSingleBond ConjugatedDoubleBond AmideSingleBond NonConjugatedSingleBond NonConjugatedSingleBond NonConjugatedSingleBond NonConjugatedSingleBond NonConjugatedSingleBond NonConjugatedSingleBond NonConjugatedSingleBond NonConjugatedSingleBond ConjugatedSingleBond ConjugatedDoubleBond NonConjugatedSingleBond NonConjugatedSingleBond NonConjugatedSingleBond NonConjugatedSingleBond ConjugatedDoubleBond ConjugatedSingleBond NonConjugatedSingleBond ConjugatedDoubleBond NonConjugatedSingleBond ConjugatedSingleBond AromaticDoubleBond AromaticSingleBond NonConjugatedSingleBond AromaticSingleBond AromaticDoubleBond ConjugatedSingleBond AromaticSingleBond ConjugatedSingleBond NonConjugatedSingleBond AromaticDoubleBond NonConjugatedSingleBond NonConjugatedSingleBond NonConjugatedSingleBond NonConjugatedSingleBond NonConjugatedSingleBond NonConjugatedSingleBond
M  BCL CHI  14   R  18   S  25   R  27   R  29   R  31   S  55   R
M  BCL DBI - - - - - - - - - - - E - - -
M  END
> <ConfClashScore>
0.000253587 

> <ConfOneFourInteractionScore>
-0.974301 

> <ConfScore>
0.13937 

> <ConfScorePBest>
0.0106695 

> <ConfTolerance>
2.78779 

$$$$
L03.****
  PyMOL2.5          3D                             0

105108  0  0  0  0  0  0  0  0999 V2000
    5.2195   -3.6720   -0.0777 C   0  0  0  1  0  0  0  0  0  0  0  0
    5.3117   -3.0456   -0.9403 H   0  0  0  1  0  0  0  0  0  0  0  0
    5.8033   -3.2658    0.7218 H   0  0  0  1  0  0  0  0  0  0  0  0
    4.1926   -3.7210    0.2190 H   0  0  0  1  0  0  0  0  0  0  0  0
    5.7268   -5.0942   -0.4155 C   0  0  0  1  0  0  0  0  0  0  0  0
    6.2052   -5.2381   -1.8652 C   0  0  0  1  0  0  0  0  0  0  0  0
    5.5379   -4.7120   -2.5154 H   0  0  0  1  0  0  0  0  0  0  0  0
    6.2221   -6.2737   -2.1338 H   0  0  0  1  0  0  0  0  0  0  0  0
    7.1896   -4.8289   -1.9579 H   0  0  0  1  0  0  0  0  0  0  0  0
    4.5587   -6.0064   -0.2325 C   0  0  0  1  0  0  0  0  0  0  0  0
    4.1771   -5.9146    0.7630 H   0  0  0  1  0  0  0  0  0  0  0  0
    4.8558   -7.0190   -0.4092 H   0  0  0  1  0  0  0  0  0  0  0  0
    3.5411   -5.6162   -1.1893 O   0  0  0  1  0  0  0  0  0  0  0  0
    2.0925   -6.2267   -1.1204 P   0  0  0  1  0  0  0  0  0  0  0  0
    2.6610   -7.5888   -1.2292 O   0  0  0  1  0  0  0  0  0  0  0  0
    2.2985   -4.9516   -0.1426 O   0  5  0  1  0  0  0  0  0  0  0  0
    0.6051   -6.8542   -1.0497 O   0  0  0  1  0  0  0  0  0  0  0  0
   -0.3075   -7.3452   -2.2599 P   0  0  0  1  0  0  0  0  0  0  0  0
   -0.6909   -8.7605   -2.1034 O   0  0  0  0  0  0  0  0  0  0  0  0
    0.2922   -6.9023   -3.5309 O   0  0  0  1  0  0  0  0  0  0  0  0
   -1.5363   -6.4290   -1.9191 O   0  0  0  1  0  0  0  0  0  0  0  0
   -2.3794   -6.6328   -0.7569 C   0  0  0  1  0  0  0  0  0  0  0  0
   -1.7633   -6.7314    0.1124 H   0  0  0  1  0  0  0  0  0  0  0  0
   -2.9540   -7.5255   -0.8906 H   0  0  0  1  0  0  0  0  0  0  0  0
   -3.3176   -5.4592   -0.5725 C   0  0  0  1  0  0  0  0  0  0  0  0
   -4.0248   -5.6850    0.1981 H   0  0  0  1  0  0  0  0  0  0  0  0
   -4.0379   -5.1765   -1.8577 C   0  0  0  1  0  0  0  0  0  0  0  0
   -5.0938   -5.2656   -1.7090 H   0  0  0  1  0  0  0  0  0  0  0  0
   -3.7004   -3.7780   -2.2814 C   0  0  0  1  0  0  0  0  0  0  0  0
   -4.5928   -3.1903   -2.3377 H   0  0  0  1  0  0  0  0  0  0  0  0
   -2.7708   -3.1955   -1.2577 C   0  0  0  1  0  0  0  0  0  0  0  0
   -3.2133   -2.3259   -0.8185 H   0  0  0  1  0  0  0  0  0  0  0  0
   -2.5344   -4.2349   -0.2016 O   0  0  0  1  0  0  0  0  0  0  0  0
   -1.4997   -2.8312   -1.8903 N   0  0  0  1  0  0  0  0  0  0  0  0
   -0.4577   -3.6727   -2.1965 C   0  0  0  1  0  0  0  0  0  0  0  0
   -0.4827   -4.6979   -2.0234 H   0  0  0  1  0  0  0  0  0  0  0  0
    0.5756   -3.0554   -2.7302 N   0  0  0  1  0  0  0  0  0  0  0  0
    0.1760   -1.7282   -2.7992 C   0  0  0  1  0  0  0  0  0  0  0  0
    0.8072   -0.5651   -3.2787 C   0  0  0  1  0  0  0  0  0  0  0  0
    0.1252    0.5971   -3.2169 N   0  0  0  1  0  0  0  0  0  0  0  0
   -1.1188    0.5767   -2.7112 C   0  0  0  1  0  0  0  0  0  0  0  0
   -1.6042    1.4963   -2.6945 H   0  0  0  1  0  0  0  0  0  0  0  0
   -1.8237   -0.4435   -2.2282 N   0  0  0  1  0  0  0  0  0  0  0  0
   -1.1088   -1.5809   -2.2969 C   0  0  0  1  0  0  0  0  0  0  0  0
    2.1021   -0.6129   -3.8034 N   0  0  0  1  0  0  0  0  0  0  0  0
    2.5291    0.2065   -4.1299 H   0  0  0  1  0  0  0  0  0  0  0  0
    2.5829   -1.4659   -3.8446 H   0  0  0  1  0  0  0  0  0  0  0  0
   -3.0623   -3.7994   -3.5591 O   0  0  0  1  0  0  0  0  0  0  0  0
   -2.4639   -4.5486   -3.6059 H   0  0  0  1  0  0  0  0  0  0  0  0
   -3.6113   -6.1162   -2.8778 O   0  0  0  1  0  0  0  0  0  0  0  0
   -4.5395   -7.4101   -3.2700 P   0  0  0  1  0  0  0  0  0  0  0  0
   -5.9438   -7.0628   -2.9575 O   0  0  0  1  0  0  0  0  0  0  0  0
   -4.2387   -7.6070   -4.8496 O   0  5  0  1  0  0  0  0  0  0  0  0
   -4.0027   -8.6593   -2.3892 O   0  5  0  1  0  0  0  0  0  0  0  0
    6.8328   -5.5761    0.5275 C   0  0  0  1  0  0  0  0  0  0  0  0
    6.4022   -5.7351    1.4940 H   0  0  0  1  0  0  0  0  0  0  0  0
    7.4090   -6.8959    0.0374 C   0  0  0  1  0  0  0  0  0  0  0  0
    6.6793   -7.8342   -0.2718 O   0  0  0  1  0  0  0  0  0  0  0  0
    8.7419   -6.9578   -0.0305 N   0  0  0  1  0  0  0  0  0  0  0  0
    9.2808   -6.1773    0.2159 H   0  0  0  1  0  0  0  0  0  0  0  0
    9.3951   -8.1819   -0.4695 C   0  0  0  1  0  0  0  0  0  0  0  0
    8.7162   -8.9986   -0.3389 H   0  0  0  1  0  0  0  0  0  0  0  0
   10.2653   -8.3410    0.1324 H   0  0  0  1  0  0  0  0  0  0  0  0
    9.8158   -8.1270   -1.9290 C   0  0  0  1  0  0  0  0  0  0  0  0
   10.3208   -9.0384   -2.1724 H   0  0  0  1  0  0  0  0  0  0  0  0
   10.4848   -7.3022   -2.0598 H   0  0  0  1  0  0  0  0  0  0  0  0
    8.6551   -7.9563   -2.8710 C   0  0  0  1  0  0  0  0  0  0  0  0
    7.5222   -8.2911   -2.5764 O   0  0  0  1  0  0  0  0  0  0  0  0
    8.8697   -7.4186   -4.0751 N   0  0  0  1  0  0  0  0  0  0  0  0
    9.7474   -7.0283   -4.2692 H   0  0  0  1  0  0  0  0  0  0  0  0
    7.8454   -7.3924   -5.1085 C   0  0  0  1  0  0  0  0  0  0  0  0
    7.6234   -6.3729   -5.3455 H   0  0  0  1  0  0  0  0  0  0  0  0
    6.9658   -7.8712   -4.7317 H   0  0  0  1  0  0  0  0  0  0  0  0
    8.2784   -8.1001   -6.3720 C   0  0  0  1  0  0  0  0  0  0  0  0
    7.4267   -8.1816   -7.0146 H   0  0  0  1  0  0  0  0  0  0  0  0
    8.6185   -9.0785   -6.1039 H   0  0  0  1  0  0  0  0  0  0  0  0
    9.6003   -7.2812   -7.2956 S   0  0  0  1  0  0  0  0  0  0  0  0
    8.6270   -6.3555   -8.4702 C   0  0  0  1  0  0  0  0  0  0  0  0
    7.4355   -6.4559   -8.3531 O   0  0  0  1  0  0  0  0  0  0  0  0
    9.2979   -5.5122   -9.5280 C   0  0  0  1  0  0  0  0  0  0  0  0
    9.9890   -6.1402  -10.0504 H   0  0  0  1  0  0  0  0  0  0  0  0
    9.8323   -4.7321   -9.0272 H   0  0  0  1  0  0  0  0  0  0  0  0
    8.4047   -4.8629  -10.5583 C   0  0  0  1  0  0  0  0  0  0  0  0
    8.2091   -5.4042  -11.6341 O   0  0  0  1  0  0  0  0  0  0  0  0
    7.7799   -3.5772  -10.2447 C   0  0  0  1  0  0  0  0  0  0  0  0
    8.0285   -3.0828   -9.3641 H   0  0  0  1  0  0  0  0  0  0  0  0
    6.8945   -3.0363  -11.0806 C   0  0  0  1  0  0  0  0  0  0  0  0
    6.6759   -3.5651  -11.9490 H   0  0  0  1  0  0  0  0  0  0  0  0
    6.1949   -1.7462  -10.8791 C   0  0  0  1  0  0  0  0  0  0  0  0
    5.0727   -1.4548  -11.6312 C   0  0  0  1  0  0  0  0  0  0  0  0
    4.7271   -2.1373  -12.3357 H   0  0  0  1  0  0  0  0  0  0  0  0
    4.4077   -0.2526  -11.4464 C   0  0  0  1  0  0  0  0  0  0  0  0
    4.8700    0.6568  -10.5139 C   0  0  0  1  0  0  0  0  0  0  0  0
    5.9957    0.3643   -9.7596 C   0  0  0  1  0  0  0  0  0  0  0  0
    6.3412    1.0468   -9.0551 H   0  0  0  1  0  0  0  0  0  0  0  0
    6.6588   -0.8343   -9.9438 C   0  0  0  1  0  0  0  0  0  0  0  0
    7.5056   -1.0520   -9.3807 H   0  0  0  1  0  0  0  0  0  0  0  0
    4.2476    1.8484  -10.3080 O   0  5  0  1  0  0  0  0  0  0  0  0
    3.2992    0.1396  -12.1182 O   0  0  0  1  0  0  0  0  0  0  0  0
    2.2120    0.6644  -11.3404 C   0  0  0  1  0  0  0  0  0  0  0  0
    2.1064    0.0924  -10.4424 H   0  0  0  1  0  0  0  0  0  0  0  0
    1.3070    0.6065  -11.9083 H   0  0  0  1  0  0  0  0  0  0  0  0
    2.4124    1.6855  -11.0911 H   0  0  0  1  0  0  0  0  0  0  0  0
    7.8526   -4.5945    0.6138 O   0  0  0  1  0  0  0  0  0  0  0  0
    7.7905   -4.0009   -0.1381 H   0  0  0  1  0  0  0  0  0  0  0  0
  1  2  1  0  0  0  0
  1  3  1  0  0  0  0
  1  4  1  0  0  0  0
  1  5  1  0  0  0  0
  5  6  1  0  0  0  0
  5 10  1  0  0  0  0
  5 55  1  0  0  0  0
  6  7  1  0  0  0  0
  6  8  1  0  0  0  0
  6  9  1  0  0  0  0
 10 11  1  0  0  0  0
 10 12  1  0  0  0  0
 10 13  1  0  0  0  0
 13 14  1  0  0  0  0
 14 15  2  0  0  0  0
 14 16  1  0  0  0  0
 14 17  1  0  0  0  0
 17 18  1  0  0  0  0
 18 19  1  0  0  0  0
 18 20  2  0  0  0  0
 18 21  1  0  0  0  0
 21 22  1  0  0  0  0
 22 23  1  0  0  0  0
 22 24  1  0  0  0  0
 22 25  1  0  0  0  0
 25 26  1  0  0  0  0
 25 27  1  0  0  0  0
 25 33  1  0  0  0  0
 27 28  1  0  0  0  0
 27 29  1  0  0  0  0
 27 50  1  0  0  0  0
 29 30  1  0  0  0  0
 29 31  1  0  0  0  0
 29 48  1  0  0  0  0
 31 32  1  0  0  0  0
 31 33  1  0  0  0  0
 31 34  1  0  0  0  0
 34 35  1  0  0  0  0
 34 44  1  0  0  0  0
 35 36  1  0  0  0  0
 35 37  2  0  0  0  0
 37 38  1  0  0  0  0
 38 39  1  0  0  0  0
 38 44  2  0  0  0  0
 39 40  2  0  0  0  0
 39 45  1  0  0  0  0
 40 41  1  0  0  0  0
 41 42  1  0  0  0  0
 41 43  2  0  0  0  0
 43 44  1  0  0  0  0
 45 46  1  0  0  0  0
 45 47  1  0  0  0  0
 48 49  1  0  0  0  0
 50 51  1  0  0  0  0
 51 52  2  0  0  0  0
 51 53  1  0  0  0  0
 51 54  1  0  0  0  0
 55 56  1  0  0  0  0
 55 57  1  0  0  0  0
 55104  1  0  0  0  0
 57 58  2  0  0  0  0
 57 59  1  0  0  0  0
 59 60  1  0  0  0  0
 59 61  1  0  0  0  0
 61 62  1  0  0  0  0
 61 63  1  0  0  0  0
 61 64  1  0  0  0  0
 64 65  1  0  0  0  0
 64 66  1  0  0  0  0
 64 67  1  0  0  0  0
 67 68  2  0  0  0  0
 67 69  1  0  0  0  0
 69 70  1  0  0  0  0
 69 71  1  0  0  0  0
 71 72  1  0  0  0  0
 71 73  1  0  0  0  0
 71 74  1  0  0  0  0
 74 75  1  0  0  0  0
 74 76  1  0  0  0  0
 74 77  1  0  0  0  0
 77 78  1  0  0  0  0
 78 79  2  0  0  0  0
 78 80  1  0  0  0  0
 80 81  1  0  0  0  0
 80 82  1  0  0  0  0
 80 83  1  0  0  0  0
 83 84  2  0  0  0  0
 83 85  1  0  0  0  0
 85 86  1  0  0  0  0
 85 87  2  0  0  0  0
 87 88  1  0  0  0  0
 87 89  1  0  0  0  0
 89 90  2  0  0  0  0
 89 96  1  0  0  0  0
 90 91  1  0  0  0  0
 90 92  1  0  0  0  0
 92 93  2  0  0  0  0
 92 99  1  0  0  0  0
 93 94  1  0  0  0  0
 93 98  1  0  0  0  0
 94 95  1  0  0  0  0
 94 96  2  0  0  0  0
 96 97  1  0  0  0  0
 99100  1  0  0  0  0
100101  1  0  0  0  0
100102  1  0  0  0  0
100103  1  0  0  0  0
104105  1  0  0  0  0
M  BCL ATM C_TeTeTeTe H_S H_S H_S C_TeTeTeTe C_TeTeTeTe H_S H_S H_S C_TeTeTeTe H_S H_S O_Tr2TrTrPi2 P_TeTeTeTePi O_Tr2Tr2TrPi O_Te2Te2Te2Te O_Tr2TrTrPi2 P_TeTeTeTePi O_Te2Te2TeTe O_Tr2Tr2TrPi O_Tr2TrTrPi2 C_TeTeTeTe H_S H_S C_TeTeTeTe H_S C_TeTeTeTe H_S C_TeTeTeTe H_S C_TeTeTeTe H_S O_Te2Te2TeTe N_TrTrTrPi2 C_TrTrTrPi H_S N_Tr2TrTrPi C_TrTrTrPi C_TrTrTrPi N_Tr2TrTrPi C_TrTrTrPi H_S N_Tr2TrTrPi C_TrTrTrPi N_TrTrTrPi2 H_S H_S O_Te2Te2TeTe H_S O_Tr2TrTrPi2 P_TeTeTeTePi O_Tr2Tr2TrPi O_Te2Te2Te2Te O_Te2Te2Te2Te C_TeTeTeTe H_S C_TrTrTrPi O_Tr2Tr2TrPi N_TrTrTrPi2 H_S C_TeTeTeTe H_S H_S C_TeTeTeTe H_S H_S C_TrTrTrPi O_Tr2Tr2TrPi N_TrTrTrPi2 H_S C_TeTeTeTe H_S H_S C_TeTeTeTe H_S H_S S_Te2Te2TeTe C_TrTrTrPi O_Tr2Tr2TrPi C_TeTeTeTe H_S H_S C_TrTrTrPi O_Tr2Tr2TrPi C_TrTrTrPi H_S C_TrTrTrPi H_S C_TrTrTrPi C_TrTrTrPi H_S C_TrTrTrPi C_TrTrTrPi C_TrTrTrPi H_S C_TrTrTrPi H_S O_Te2Te2Te2Te O_Tr2TrTrPi2 C_TeTeTeTe H_S H_S H_S O_Te2Te2TeTe H_S
M  BCL BND NonConjugatedSingleBond NonConjugatedSingleBond NonConjugatedSingleBond NonConjugatedSingleBond NonConjugatedSingleBond NonConjugatedSingleBond NonConjugatedSingleBond NonConjugatedSingleBond NonConjugatedSingleBond NonConjugatedSingleBond NonConjugatedSingleBond NonConjugatedSingleBond NonConjugatedSingleBond ConjugatedSingleBond ConjugatedDoubleBond ConjugatedSingleBond ConjugatedSingleBond ConjugatedSingleBond ConjugatedSingleBond ConjugatedDoubleBond ConjugatedSingleBond NonConjugatedSingleBond NonConjugatedSingleBond NonConjugatedSingleBond NonConjugatedSingleBond NonConjugatedSingleBond NonConjugatedSingleBondInRing NonConjugatedSingleBondInRing NonConjugatedSingleBond NonConjugatedSingleBondInRing NonConjugatedSingleBond NonConjugatedSingleBond NonConjugatedSingleBondInRing NonConjugatedSingleBond NonConjugatedSingleBond NonConjugatedSingleBondInRing NonConjugatedSingleBond AromaticSingleBond AromaticSingleBond NonConjugatedSingleBond AromaticDoubleBond AromaticSingleBond AromaticSingleBond AromaticDoubleBond AromaticDoubleBond ConjugatedSingleBond AromaticSingleBond NonConjugatedSingleBond AromaticDoubleBond AromaticSingleBond NonConjugatedSingleBond NonConjugatedSingleBond NonConjugatedSingleBond ConjugatedSingleBond ConjugatedDoubleBond ConjugatedSingleBond ConjugatedSingleBond NonConjugatedSingleBond NonConjugatedSingleBond NonConjugatedSingleBond ConjugatedDoubleBond AmideSingleBond NonConjugatedSingleBond NonConjugatedSingleBond NonConjugatedSingleBond NonConjugatedSingleBond NonConjugatedSingleBond NonConjugatedSingleBond NonConjugatedSingleBond NonConjugatedSingleBond ConjugatedDoubleBond AmideSingleBond NonConjugatedSingleBond NonConjugatedSingleBond NonConjugatedSingleBond NonConjugatedSingleBond NonConjugatedSingleBond NonConjugatedSingleBond NonConjugatedSingleBond NonConjugatedSingleBond ConjugatedSingleBond ConjugatedDoubleBond NonConjugatedSingleBond NonConjugatedSingleBond NonConjugatedSingleBond NonConjugatedSingleBond ConjugatedDoubleBond ConjugatedSingleBond NonConjugatedSingleBond ConjugatedDoubleBond NonConjugatedSingleBond ConjugatedSingleBond AromaticDoubleBond AromaticSingleBond NonConjugatedSingleBond AromaticSingleBond AromaticDoubleBond ConjugatedSingleBond AromaticSingleBond ConjugatedSingleBond NonConjugatedSingleBond AromaticDoubleBond NonConjugatedSingleBond NonConjugatedSingleBond NonConjugatedSingleBond NonConjugatedSingleBond NonConjugatedSingleBond NonConjugatedSingleBond
M  BCL CHI  14   R  18   S  25   R  27   R  29   R  31   S  55   R
M  BCL DBI - - - - - - - - - - - E - - -
M  END
> <ConfClashScore>
0 

> <ConfOneFourInteractionScore>
-0.979727 

> <ConfScore>
0.150102 

> <ConfScorePBest>
0.0105665 

> <ConfTolerance>
2.88668 

$$$$
L03.****
  PyMOL2.5          3D                             0

105108  0  0  0  0  0  0  0  0999 V2000
   -6.3180    6.2299   -2.8502 C   0  0  0  1  0  0  0  0  0  0  0  0
   -7.3298    6.0804   -2.5359 H   0  0  0  1  0  0  0  0  0  0  0  0
   -6.2445    6.0657   -3.9050 H   0  0  0  1  0  0  0  0  0  0  0  0
   -6.0185    7.2317   -2.6230 H   0  0  0  1  0  0  0  0  0  0  0  0
   -5.4025    5.2438   -2.1149 C   0  0  0  1  0  0  0  0  0  0  0  0
   -3.9552    5.5164   -2.5416 C   0  0  0  1  0  0  0  0  0  0  0  0
   -3.2873    5.1720   -1.7798 H   0  0  0  1  0  0  0  0  0  0  0  0
   -3.8184    6.5677   -2.6868 H   0  0  0  1  0  0  0  0  0  0  0  0
   -3.7498    4.9998   -3.4558 H   0  0  0  1  0  0  0  0  0  0  0  0
   -5.7451    3.8802   -2.4842 C   0  0  0  1  0  0  0  0  0  0  0  0
   -6.7680    3.7029   -2.2249 H   0  0  0  1  0  0  0  0  0  0  0  0
   -5.1164    3.2098   -1.9364 H   0  0  0  1  0  0  0  0  0  0  0  0
   -5.5754    3.6215   -3.8977 O   0  0  0  1  0  0  0  0  0  0  0  0
   -5.7963    2.1788   -4.4860 P   0  0  0  1  0  0  0  0  0  0  0  0
   -6.3043    2.7693   -5.7444 O   0  0  0  1  0  0  0  0  0  0  0  0
   -4.4483    2.3099   -3.5971 O   0  5  0  1  0  0  0  0  0  0  0  0
   -6.0219    0.7061   -5.0870 O   0  0  0  1  0  0  0  0  0  0  0  0
   -5.9326   -0.8046   -4.5622 P   0  0  0  1  0  0  0  0  0  0  0  0
   -5.6339   -1.7071   -5.7105 O   0  0  0  0  0  0  0  0  0  0  0  0
   -7.1130   -1.0460   -3.7026 O   0  0  0  1  0  0  0  0  0  0  0  0
   -4.6726   -0.7716   -3.6202 O   0  0  0  1  0  0  0  0  0  0  0  0
   -4.8116   -0.5039   -2.2017 C   0  0  0  1  0  0  0  0  0  0  0  0
   -5.7432   -0.0125   -2.0132 H   0  0  0  1  0  0  0  0  0  0  0  0
   -4.0065    0.1165   -1.8673 H   0  0  0  1  0  0  0  0  0  0  0  0
   -4.7739   -1.8296   -1.4789 C   0  0  0  1  0  0  0  0  0  0  0  0
   -5.7659   -2.2235   -1.4031 H   0  0  0  1  0  0  0  0  0  0  0  0
   -4.1931   -1.6457   -0.1079 C   0  0  0  1  0  0  0  0  0  0  0  0
   -4.9042   -1.9504    0.6312 H   0  0  0  1  0  0  0  0  0  0  0  0
   -2.9605   -2.4942   -0.0079 C   0  0  0  1  0  0  0  0  0  0  0  0
   -3.0751   -3.2096    0.7795 H   0  0  0  1  0  0  0  0  0  0  0  0
   -2.7789   -3.2034   -1.3177 C   0  0  0  1  0  0  0  0  0  0  0  0
   -2.8056   -4.2620   -1.1642 H   0  0  0  1  0  0  0  0  0  0  0  0
   -3.8999   -2.7923   -2.2267 O   0  0  0  1  0  0  0  0  0  0  0  0
   -1.4953   -2.8282   -1.9116 N   0  0  0  1  0  0  0  0  0  0  0  0
   -0.4400   -3.6530   -2.1958 C   0  0  0  1  0  0  0  0  0  0  0  0
   -0.4570   -4.6748   -2.0030 H   0  0  0  1  0  0  0  0  0  0  0  0
    0.5890   -3.0522   -2.7285 N   0  0  0  1  0  0  0  0  0  0  0  0
    0.1872   -1.7333   -2.7999 C   0  0  0  1  0  0  0  0  0  0  0  0
    0.8016   -0.5713   -3.2736 C   0  0  0  1  0  0  0  0  0  0  0  0
    0.1457    0.5924   -3.2107 N   0  0  0  1  0  0  0  0  0  0  0  0
   -1.1045    0.5818   -2.7010 C   0  0  0  1  0  0  0  0  0  0  0  0
   -1.5886    1.5019   -2.6771 H   0  0  0  1  0  0  0  0  0  0  0  0
   -1.8003   -0.4475   -2.2252 N   0  0  0  1  0  0  0  0  0  0  0  0
   -1.0949   -1.5776   -2.3008 C   0  0  0  1  0  0  0  0  0  0  0  0
    2.0544   -0.6232   -3.7937 N   0  0  0  1  0  0  0  0  0  0  0  0
    2.5096   -1.4857   -3.8903 H   0  0  0  1  0  0  0  0  0  0  0  0
    2.5038    0.2018   -4.0725 H   0  0  0  1  0  0  0  0  0  0  0  0
   -1.8362   -1.6781    0.2558 O   0  0  0  1  0  0  0  0  0  0  0  0
   -2.1021   -0.9320    0.7983 H   0  0  0  1  0  0  0  0  0  0  0  0
   -3.8469   -0.2451    0.0982 O   0  0  0  1  0  0  0  0  0  0  0  0
   -5.0054    0.8672    0.4301 P   0  0  0  1  0  0  0  0  0  0  0  0
   -4.6386    2.0807   -0.3337 O   0  0  0  1  0  0  0  0  0  0  0  0
   -6.4376    0.2064    0.0608 O   0  5  0  1  0  0  0  0  0  0  0  0
   -4.9874    1.0860    2.0352 O   0  5  0  1  0  0  0  0  0  0  0  0
   -5.5143    5.4067   -0.5888 C   0  0  0  1  0  0  0  0  0  0  0  0
   -4.9370    4.6363   -0.1218 H   0  0  0  1  0  0  0  0  0  0  0  0
   -4.9349    6.7570   -0.1966 C   0  0  0  1  0  0  0  0  0  0  0  0
   -3.7795    6.8621    0.2065 O   0  0  0  1  0  0  0  0  0  0  0  0
   -5.7599    7.8007   -0.3205 N   0  0  0  1  0  0  0  0  0  0  0  0
   -6.6949    7.6752   -0.5856 H   0  0  0  1  0  0  0  0  0  0  0  0
   -5.2303    9.1290   -0.0506 C   0  0  0  1  0  0  0  0  0  0  0  0
   -4.1640    9.0962   -0.1324 H   0  0  0  1  0  0  0  0  0  0  0  0
   -5.5037    9.4114    0.9445 H   0  0  0  1  0  0  0  0  0  0  0  0
   -5.7579   10.1697   -1.0116 C   0  0  0  1  0  0  0  0  0  0  0  0
   -5.5910   11.1290   -0.5679 H   0  0  0  1  0  0  0  0  0  0  0  0
   -6.8095   10.0034   -1.1179 H   0  0  0  1  0  0  0  0  0  0  0  0
   -5.1609   10.2042   -2.4050 C   0  0  0  1  0  0  0  0  0  0  0  0
   -4.0628    9.7022   -2.6417 O   0  0  0  1  0  0  0  0  0  0  0  0
   -5.9046   10.8113   -3.3433 N   0  0  0  1  0  0  0  0  0  0  0  0
   -6.8125   11.1000   -3.1135 H   0  0  0  1  0  0  0  0  0  0  0  0
   -5.4096   11.0555   -4.6898 C   0  0  0  1  0  0  0  0  0  0  0  0
   -6.2220   11.4219   -5.2821 H   0  0  0  1  0  0  0  0  0  0  0  0
   -5.0653   10.1257   -5.0920 H   0  0  0  1  0  0  0  0  0  0  0  0
   -4.2772   12.0537   -4.7750 C   0  0  0  1  0  0  0  0  0  0  0  0
   -3.9613   12.1377   -5.7938 H   0  0  0  1  0  0  0  0  0  0  0  0
   -3.4611   11.7083   -4.1753 H   0  0  0  1  0  0  0  0  0  0  0  0
   -4.7983   13.6810   -4.1822 S   0  0  0  1  0  0  0  0  0  0  0  0
   -4.5838   13.5281   -2.4241 C   0  0  0  1  0  0  0  0  0  0  0  0
   -4.0432   12.5914   -1.9008 O   0  0  0  1  0  0  0  0  0  0  0  0
   -5.1568   14.7051   -1.6731 C   0  0  0  1  0  0  0  0  0  0  0  0
   -6.2143   14.7215   -1.8351 H   0  0  0  1  0  0  0  0  0  0  0  0
   -4.7209   15.5982   -2.0696 H   0  0  0  1  0  0  0  0  0  0  0  0
   -4.9109   14.6812   -0.1963 C   0  0  0  1  0  0  0  0  0  0  0  0
   -4.2249   15.5113    0.3770 O   0  0  0  1  0  0  0  0  0  0  0  0
   -5.5355   13.6000    0.5671 C   0  0  0  1  0  0  0  0  0  0  0  0
   -6.0672   12.8568    0.0707 H   0  0  0  1  0  0  0  0  0  0  0  0
   -5.4269   13.5624    1.8946 C   0  0  0  1  0  0  0  0  0  0  0  0
   -4.8830   14.3338    2.3312 H   0  0  0  1  0  0  0  0  0  0  0  0
   -5.9878   12.5539    2.8234 C   0  0  0  1  0  0  0  0  0  0  0  0
   -6.9148   11.6403    2.3585 C   0  0  0  1  0  0  0  0  0  0  0  0
   -7.2171   11.6664    1.3637 H   0  0  0  1  0  0  0  0  0  0  0  0
   -7.4417   10.6891    3.2182 C   0  0  0  1  0  0  0  0  0  0  0  0
   -7.0442   10.6577    4.5416 C   0  0  0  1  0  0  0  0  0  0  0  0
   -6.1144   11.5741    5.0077 C   0  0  0  1  0  0  0  0  0  0  0  0
   -5.8122   11.5479    6.0025 H   0  0  0  1  0  0  0  0  0  0  0  0
   -5.5889   12.5225    4.1506 C   0  0  0  1  0  0  0  0  0  0  0  0
   -4.8944   13.2126    4.5013 H   0  0  0  1  0  0  0  0  0  0  0  0
   -7.4949    9.7769    5.4747 O   0  5  0  1  0  0  0  0  0  0  0  0
   -8.3443    9.7482    2.8790 O   0  0  0  1  0  0  0  0  0  0  0  0
   -8.8113    9.8127    1.5114 C   0  0  0  1  0  0  0  0  0  0  0  0
   -8.0608    9.4184    0.8587 H   0  0  0  1  0  0  0  0  0  0  0  0
   -9.0111   10.8310    1.2507 H   0  0  0  1  0  0  0  0  0  0  0  0
   -9.7075    9.2365    1.4133 H   0  0  0  1  0  0  0  0  0  0  0  0
   -6.8628    5.3184   -0.1867 O   0  0  0  1  0  0  0  0  0  0  0  0
   -7.0161    5.9108    0.5530 H   0  0  0  1  0  0  0  0  0  0  0  0
  1  2  1  0  0  0  0
  1  3  1  0  0  0  0
  1  4  1  0  0  0  0
  1  5  1  0  0  0  0
  5  6  1  0  0  0  0
  5 10  1  0  0  0  0
  5 55  1  0  0  0  0
  6  7  1  0  0  0  0
  6  8  1  0  0  0  0
  6  9  1  0  0  0  0
 10 11  1  0  0  0  0
 10 12  1  0  0  0  0
 10 13  1  0  0  0  0
 13 14  1  0  0  0  0
 14 15  2  0  0  0  0
 14 16  1  0  0  0  0
 14 17  1  0  0  0  0
 17 18  1  0  0  0  0
 18 19  1  0  0  0  0
 18 20  2  0  0  0  0
 18 21  1  0  0  0  0
 21 22  1  0  0  0  0
 22 23  1  0  0  0  0
 22 24  1  0  0  0  0
 22 25  1  0  0  0  0
 25 26  1  0  0  0  0
 25 27  1  0  0  0  0
 25 33  1  0  0  0  0
 27 28  1  0  0  0  0
 27 29  1  0  0  0  0
 27 50  1  0  0  0  0
 29 30  1  0  0  0  0
 29 31  1  0  0  0  0
 29 48  1  0  0  0  0
 31 32  1  0  0  0  0
 31 33  1  0  0  0  0
 31 34  1  0  0  0  0
 34 35  1  0  0  0  0
 34 44  1  0  0  0  0
 35 36  1  0  0  0  0
 35 37  2  0  0  0  0
 37 38  1  0  0  0  0
 38 39  1  0  0  0  0
 38 44  2  0  0  0  0
 39 40  2  0  0  0  0
 39 45  1  0  0  0  0
 40 41  1  0  0  0  0
 41 42  1  0  0  0  0
 41 43  2  0  0  0  0
 43 44  1  0  0  0  0
 45 46  1  0  0  0  0
 45 47  1  0  0  0  0
 48 49  1  0  0  0  0
 50 51  1  0  0  0  0
 51 52  2  0  0  0  0
 51 53  1  0  0  0  0
 51 54  1  0  0  0  0
 55 56  1  0  0  0  0
 55 57  1  0  0  0  0
 55104  1  0  0  0  0
 57 58  2  0  0  0  0
 57 59  1  0  0  0  0
 59 60  1  0  0  0  0
 59 61  1  0  0  0  0
 61 62  1  0  0  0  0
 61 63  1  0  0  0  0
 61 64  1  0  0  0  0
 64 65  1  0  0  0  0
 64 66  1  0  0  0  0
 64 67  1  0  0  0  0
 67 68  2  0  0  0  0
 67 69  1  0  0  0  0
 69 70  1  0  0  0  0
 69 71  1  0  0  0  0
 71 72  1  0  0  0  0
 71 73  1  0  0  0  0
 71 74  1  0  0  0  0
 74 75  1  0  0  0  0
 74 76  1  0  0  0  0
 74 77  1  0  0  0  0
 77 78  1  0  0  0  0
 78 79  2  0  0  0  0
 78 80  1  0  0  0  0
 80 81  1  0  0  0  0
 80 82  1  0  0  0  0
 80 83  1  0  0  0  0
 83 84  2  0  0  0  0
 83 85  1  0  0  0  0
 85 86  1  0  0  0  0
 85 87  2  0  0  0  0
 87 88  1  0  0  0  0
 87 89  1  0  0  0  0
 89 90  2  0  0  0  0
 89 96  1  0  0  0  0
 90 91  1  0  0  0  0
 90 92  1  0  0  0  0
 92 93  2  0  0  0  0
 92 99  1  0  0  0  0
 93 94  1  0  0  0  0
 93 98  1  0  0  0  0
 94 95  1  0  0  0  0
 94 96  2  0  0  0  0
 96 97  1  0  0  0  0
 99100  1  0  0  0  0
100101  1  0  0  0  0
100102  1  0  0  0  0
100103  1  0  0  0  0
104105  1  0  0  0  0
M  BCL ATM C_TeTeTeTe H_S H_S H_S C_TeTeTeTe C_TeTeTeTe H_S H_S H_S C_TeTeTeTe H_S H_S O_Tr2TrTrPi2 P_TeTeTeTePi O_Tr2Tr2TrPi O_Te2Te2Te2Te O_Tr2TrTrPi2 P_TeTeTeTePi O_Te2Te2TeTe O_Tr2Tr2TrPi O_Tr2TrTrPi2 C_TeTeTeTe H_S H_S C_TeTeTeTe H_S C_TeTeTeTe H_S C_TeTeTeTe H_S C_TeTeTeTe H_S O_Te2Te2TeTe N_TrTrTrPi2 C_TrTrTrPi H_S N_Tr2TrTrPi C_TrTrTrPi C_TrTrTrPi N_Tr2TrTrPi C_TrTrTrPi H_S N_Tr2TrTrPi C_TrTrTrPi N_TrTrTrPi2 H_S H_S O_Te2Te2TeTe H_S O_Tr2TrTrPi2 P_TeTeTeTePi O_Tr2Tr2TrPi O_Te2Te2Te2Te O_Te2Te2Te2Te C_TeTeTeTe H_S C_TrTrTrPi O_Tr2Tr2TrPi N_TrTrTrPi2 H_S C_TeTeTeTe H_S H_S C_TeTeTeTe H_S H_S C_TrTrTrPi O_Tr2Tr2TrPi N_TrTrTrPi2 H_S C_TeTeTeTe H_S H_S C_TeTeTeTe H_S H_S S_Te2Te2TeTe C_TrTrTrPi O_Tr2Tr2TrPi C_TeTeTeTe H_S H_S C_TrTrTrPi O_Tr2Tr2TrPi C_TrTrTrPi H_S C_TrTrTrPi H_S C_TrTrTrPi C_TrTrTrPi H_S C_TrTrTrPi C_TrTrTrPi C_TrTrTrPi H_S C_TrTrTrPi H_S O_Te2Te2Te2Te O_Tr2TrTrPi2 C_TeTeTeTe H_S H_S H_S O_Te2Te2TeTe H_S
M  BCL BND NonConjugatedSingleBond NonConjugatedSingleBond NonConjugatedSingleBond NonConjugatedSingleBond NonConjugatedSingleBond NonConjugatedSingleBond NonConjugatedSingleBond NonConjugatedSingleBond NonConjugatedSingleBond NonConjugatedSingleBond NonConjugatedSingleBond NonConjugatedSingleBond NonConjugatedSingleBond ConjugatedSingleBond ConjugatedDoubleBond ConjugatedSingleBond ConjugatedSingleBond ConjugatedSingleBond ConjugatedSingleBond ConjugatedDoubleBond ConjugatedSingleBond NonConjugatedSingleBond NonConjugatedSingleBond NonConjugatedSingleBond NonConjugatedSingleBond NonConjugatedSingleBond NonConjugatedSingleBondInRing NonConjugatedSingleBondInRing NonConjugatedSingleBond NonConjugatedSingleBondInRing NonConjugatedSingleBond NonConjugatedSingleBond NonConjugatedSingleBondInRing NonConjugatedSingleBond NonConjugatedSingleBond NonConjugatedSingleBondInRing NonConjugatedSingleBond AromaticSingleBond AromaticSingleBond NonConjugatedSingleBond AromaticDoubleBond AromaticSingleBond AromaticSingleBond AromaticDoubleBond AromaticDoubleBond ConjugatedSingleBond AromaticSingleBond NonConjugatedSingleBond AromaticDoubleBond AromaticSingleBond NonConjugatedSingleBond NonConjugatedSingleBond NonConjugatedSingleBond ConjugatedSingleBond ConjugatedDoubleBond ConjugatedSingleBond ConjugatedSingleBond NonConjugatedSingleBond NonConjugatedSingleBond NonConjugatedSingleBond ConjugatedDoubleBond AmideSingleBond NonConjugatedSingleBond NonConjugatedSingleBond NonConjugatedSingleBond NonConjugatedSingleBond NonConjugatedSingleBond NonConjugatedSingleBond NonConjugatedSingleBond NonConjugatedSingleBond ConjugatedDoubleBond AmideSingleBond NonConjugatedSingleBond NonConjugatedSingleBond NonConjugatedSingleBond NonConjugatedSingleBond NonConjugatedSingleBond NonConjugatedSingleBond NonConjugatedSingleBond NonConjugatedSingleBond ConjugatedSingleBond ConjugatedDoubleBond NonConjugatedSingleBond NonConjugatedSingleBond NonConjugatedSingleBond NonConjugatedSingleBond ConjugatedDoubleBond ConjugatedSingleBond NonConjugatedSingleBond ConjugatedDoubleBond NonConjugatedSingleBond ConjugatedSingleBond AromaticDoubleBond AromaticSingleBond NonConjugatedSingleBond AromaticSingleBond AromaticDoubleBond ConjugatedSingleBond AromaticSingleBond ConjugatedSingleBond NonConjugatedSingleBond AromaticDoubleBond NonConjugatedSingleBond NonConjugatedSingleBond NonConjugatedSingleBond NonConjugatedSingleBond NonConjugatedSingleBond NonConjugatedSingleBond
M  BCL CHI  14   R  18   S  25   R  27   R  29   R  31   S  55   R
M  BCL DBI - - - - - - - - - - - E - - -
M  END
> <ConfClashScore>
0 

> <ConfOneFourInteractionScore>
-0.973882 

> <ConfScore>
0.155014 

> <ConfScorePBest>
0.0104635 

> <ConfTolerance>
3.02817 

$$$$
L03.****
  PyMOL2.5          3D                             0

105108  0  0  0  0  0  0  0  0999 V2000
   -1.9266   -3.3788    6.5660 C   0  0  0  1  0  0  0  0  0  0  0  0
   -2.4833   -3.4183    5.6531 H   0  0  0  1  0  0  0  0  0  0  0  0
   -0.8820   -3.3123    6.3438 H   0  0  0  1  0  0  0  0  0  0  0  0
   -2.2272   -2.5206    7.1299 H   0  0  0  1  0  0  0  0  0  0  0  0
   -2.1949   -4.6474    7.3844 C   0  0  0  1  0  0  0  0  0  0  0  0
   -1.1553   -4.6682    8.5270 C   0  0  0  1  0  0  0  0  0  0  0  0
   -1.2407   -3.7712    9.1040 H   0  0  0  1  0  0  0  0  0  0  0  0
   -0.1711   -4.7328    8.1122 H   0  0  0  1  0  0  0  0  0  0  0  0
   -1.3340   -5.5151    9.1561 H   0  0  0  1  0  0  0  0  0  0  0  0
   -2.0431   -5.8157    6.4958 C   0  0  0  1  0  0  0  0  0  0  0  0
   -2.6654   -5.6867    5.6349 H   0  0  0  1  0  0  0  0  0  0  0  0
   -2.3396   -6.6991    7.0216 H   0  0  0  1  0  0  0  0  0  0  0  0
   -0.6632   -5.9530    6.0714 O   0  0  0  1  0  0  0  0  0  0  0  0
   -0.2425   -6.1803    4.5722 P   0  0  0  1  0  0  0  0  0  0  0  0
    1.1754   -5.9638    4.9369 O   0  0  0  1  0  0  0  0  0  0  0  0
   -1.4353   -7.1621    5.0599 O   0  5  0  1  0  0  0  0  0  0  0  0
    0.1875   -6.4124    3.0417 O   0  0  0  1  0  0  0  0  0  0  0  0
   -0.1628   -5.9398    1.5736 P   0  0  0  1  0  0  0  0  0  0  0  0
    0.0910   -7.1271    0.6587 O   0  0  0  0  0  0  0  0  0  0  0  0
    0.5439   -4.6695    1.2273 O   0  0  0  1  0  0  0  0  0  0  0  0
   -1.7067   -5.6625    1.6430 O   0  0  0  1  0  0  0  0  0  0  0  0
   -2.6280   -6.0335    0.5850 C   0  0  0  1  0  0  0  0  0  0  0  0
   -3.2683   -6.8228    0.9195 H   0  0  0  1  0  0  0  0  0  0  0  0
   -2.0822   -6.3572   -0.2766 H   0  0  0  1  0  0  0  0  0  0  0  0
   -3.4505   -4.8133    0.2443 C   0  0  0  1  0  0  0  0  0  0  0  0
   -4.1126   -4.5911    1.0550 H   0  0  0  1  0  0  0  0  0  0  0  0
   -4.2573   -5.0566   -1.0551 C   0  0  0  1  0  0  0  0  0  0  0  0
   -5.2337   -4.6240   -0.9891 H   0  0  0  1  0  0  0  0  0  0  0  0
   -3.4182   -4.3547   -2.1083 C   0  0  0  1  0  0  0  0  0  0  0  0
   -4.0293   -3.9828   -2.9040 H   0  0  0  1  0  0  0  0  0  0  0  0
   -2.7788   -3.2037   -1.3155 C   0  0  0  1  0  0  0  0  0  0  0  0
   -3.4291   -2.3541   -1.3034 H   0  0  0  1  0  0  0  0  0  0  0  0
   -2.5902   -3.6904   -0.0181 O   0  0  0  1  0  0  0  0  0  0  0  0
   -1.4965   -2.8284   -1.9091 N   0  0  0  1  0  0  0  0  0  0  0  0
   -0.4404   -3.6525   -2.1921 C   0  0  0  1  0  0  0  0  0  0  0  0
   -0.4564   -4.6741   -1.9980 H   0  0  0  1  0  0  0  0  0  0  0  0
    0.5882   -3.0514   -2.7253 N   0  0  0  1  0  0  0  0  0  0  0  0
    0.1852   -1.7330   -2.7985 C   0  0  0  1  0  0  0  0  0  0  0  0
    0.7986   -0.5711   -3.2735 C   0  0  0  1  0  0  0  0  0  0  0  0
    0.1415    0.5921   -3.2121 N   0  0  0  1  0  0  0  0  0  0  0  0
   -1.1088    0.5810   -2.7027 C   0  0  0  1  0  0  0  0  0  0  0  0
   -1.5938    1.5007   -2.6801 H   0  0  0  1  0  0  0  0  0  0  0  0
   -1.8037   -0.4483   -2.2258 N   0  0  0  1  0  0  0  0  0  0  0  0
   -1.0972   -1.5779   -2.2998 C   0  0  0  1  0  0  0  0  0  0  0  0
    2.0631   -0.6229   -3.7980 N   0  0  0  1  0  0  0  0  0  0  0  0
    2.5349   -1.4799   -3.8558 H   0  0  0  1  0  0  0  0  0  0  0  0
    2.4959    0.1971   -4.1153 H   0  0  0  1  0  0  0  0  0  0  0  0
   -2.4223   -5.2293   -2.6409 O   0  0  0  1  0  0  0  0  0  0  0  0
   -1.9475   -5.6505   -1.9207 H   0  0  0  1  0  0  0  0  0  0  0  0
   -4.3740   -6.4747   -1.3399 O   0  0  0  1  0  0  0  0  0  0  0  0
   -5.4237   -7.0206   -2.4756 P   0  0  0  1  0  0  0  0  0  0  0  0
   -5.6413   -8.4839   -2.5172 O   0  0  0  1  0  0  0  0  0  0  0  0
   -6.8298   -6.2405   -2.2786 O   0  5  0  1  0  0  0  0  0  0  0  0
   -4.8134   -6.4958   -3.8815 O   0  5  0  1  0  0  0  0  0  0  0  0
   -3.6343   -4.5974    7.9103 C   0  0  0  1  0  0  0  0  0  0  0  0
   -3.9046   -5.5644    8.2801 H   0  0  0  1  0  0  0  0  0  0  0  0
   -3.7913   -3.5754    9.0210 C   0  0  0  1  0  0  0  0  0  0  0  0
   -3.9193   -3.9194   10.1844 O   0  0  0  1  0  0  0  0  0  0  0  0
   -3.7790   -2.2894    8.6361 N   0  0  0  1  0  0  0  0  0  0  0  0
   -3.7941   -2.0821    7.6784 H   0  0  0  1  0  0  0  0  0  0  0  0
   -3.7442   -1.1922    9.5916 C   0  0  0  1  0  0  0  0  0  0  0  0
   -2.8837   -1.3092   10.2166 H   0  0  0  1  0  0  0  0  0  0  0  0
   -4.6294   -1.2317   10.1914 H   0  0  0  1  0  0  0  0  0  0  0  0
   -3.6741    0.1674    8.9157 C   0  0  0  1  0  0  0  0  0  0  0  0
   -3.7588    0.9177    9.6739 H   0  0  0  1  0  0  0  0  0  0  0  0
   -4.5024    0.2446    8.2428 H   0  0  0  1  0  0  0  0  0  0  0  0
   -2.3983    0.4395    8.1249 C   0  0  0  1  0  0  0  0  0  0  0  0
   -2.2037   -0.0901    7.0319 O   0  0  0  1  0  0  0  0  0  0  0  0
   -1.5572    1.3472    8.6454 N   0  0  0  1  0  0  0  0  0  0  0  0
   -1.7422    1.7373    9.5251 H   0  0  0  1  0  0  0  0  0  0  0  0
   -0.3714    1.7531    7.9059 C   0  0  0  1  0  0  0  0  0  0  0  0
   -0.1427    0.9977    7.1833 H   0  0  0  1  0  0  0  0  0  0  0  0
    0.4441    1.8496    8.5918 H   0  0  0  1  0  0  0  0  0  0  0  0
   -0.5582    3.0672    7.1889 C   0  0  0  1  0  0  0  0  0  0  0  0
   -0.9409    3.7769    7.8922 H   0  0  0  1  0  0  0  0  0  0  0  0
   -1.2726    2.9191    6.4063 H   0  0  0  1  0  0  0  0  0  0  0  0
    0.9420    3.7603    6.4538 S   0  0  0  1  0  0  0  0  0  0  0  0
    1.2935    2.6886    5.0712 C   0  0  0  1  0  0  0  0  0  0  0  0
    0.5328    1.7716    4.9165 O   0  0  0  1  0  0  0  0  0  0  0  0
    2.4808    2.9528    4.1778 C   0  0  0  1  0  0  0  0  0  0  0  0
    3.2151    3.4837    4.7470 H   0  0  0  1  0  0  0  0  0  0  0  0
    2.1545    3.5608    3.3601 H   0  0  0  1  0  0  0  0  0  0  0  0
    3.1289    1.7140    3.6134 C   0  0  0  1  0  0  0  0  0  0  0  0
    3.0487    0.6445    4.1949 O   0  0  0  1  0  0  0  0  0  0  0  0
    3.8658    1.7745    2.3569 C   0  0  0  1  0  0  0  0  0  0  0  0
    3.9142    2.6964    1.8780 H   0  0  0  1  0  0  0  0  0  0  0  0
    4.4827    0.7498    1.7697 C   0  0  0  1  0  0  0  0  0  0  0  0
    4.4234   -0.1636    2.2633 H   0  0  0  1  0  0  0  0  0  0  0  0
    5.2429    0.7553    0.4983 C   0  0  0  1  0  0  0  0  0  0  0  0
    5.8149   -0.4169    0.0412 C   0  0  0  1  0  0  0  0  0  0  0  0
    5.7135   -1.2939    0.5910 H   0  0  0  1  0  0  0  0  0  0  0  0
    6.5236   -0.4236   -1.1500 C   0  0  0  1  0  0  0  0  0  0  0  0
    6.6629    0.7430   -1.8780 C   0  0  0  1  0  0  0  0  0  0  0  0
    6.0891    1.9186   -1.4195 C   0  0  0  1  0  0  0  0  0  0  0  0
    6.1904    2.7956   -1.9692 H   0  0  0  1  0  0  0  0  0  0  0  0
    5.3824    1.9254   -0.2317 C   0  0  0  1  0  0  0  0  0  0  0  0
    4.9553    2.8083    0.1143 H   0  0  0  1  0  0  0  0  0  0  0  0
    7.3268    0.9025   -3.0542 O   0  5  0  1  0  0  0  0  0  0  0  0
    7.1215   -1.5078   -1.6986 O   0  0  0  1  0  0  0  0  0  0  0  0
    8.4083   -1.3109   -2.3052 C   0  0  0  1  0  0  0  0  0  0  0  0
    9.1301   -1.9362   -1.8225 H   0  0  0  1  0  0  0  0  0  0  0  0
    8.6982   -0.2862   -2.2014 H   0  0  0  1  0  0  0  0  0  0  0  0
    8.3553   -1.5637   -3.3435 H   0  0  0  1  0  0  0  0  0  0  0  0
   -4.4514   -4.2414    6.7966 O   0  0  0  1  0  0  0  0  0  0  0  0
   -5.3481   -4.5501    6.9454 H   0  0  0  1  0  0  0  0  0  0  0  0
  1  2  1  0  0  0  0
  1  3  1  0  0  0  0
  1  4  1  0  0  0  0
  1  5  1  0  0  0  0
  5  6  1  0  0  0  0
  5 10  1  0  0  0  0
  5 55  1  0  0  0  0
  6  7  1  0  0  0  0
  6  8  1  0  0  0  0
  6  9  1  0  0  0  0
 10 11  1  0  0  0  0
 10 12  1  0  0  0  0
 10 13  1  0  0  0  0
 13 14  1  0  0  0  0
 14 15  2  0  0  0  0
 14 16  1  0  0  0  0
 14 17  1  0  0  0  0
 17 18  1  0  0  0  0
 18 19  1  0  0  0  0
 18 20  2  0  0  0  0
 18 21  1  0  0  0  0
 21 22  1  0  0  0  0
 22 23  1  0  0  0  0
 22 24  1  0  0  0  0
 22 25  1  0  0  0  0
 25 26  1  0  0  0  0
 25 27  1  0  0  0  0
 25 33  1  0  0  0  0
 27 28  1  0  0  0  0
 27 29  1  0  0  0  0
 27 50  1  0  0  0  0
 29 30  1  0  0  0  0
 29 31  1  0  0  0  0
 29 48  1  0  0  0  0
 31 32  1  0  0  0  0
 31 33  1  0  0  0  0
 31 34  1  0  0  0  0
 34 35  1  0  0  0  0
 34 44  1  0  0  0  0
 35 36  1  0  0  0  0
 35 37  2  0  0  0  0
 37 38  1  0  0  0  0
 38 39  1  0  0  0  0
 38 44  2  0  0  0  0
 39 40  2  0  0  0  0
 39 45  1  0  0  0  0
 40 41  1  0  0  0  0
 41 42  1  0  0  0  0
 41 43  2  0  0  0  0
 43 44  1  0  0  0  0
 45 46  1  0  0  0  0
 45 47  1  0  0  0  0
 48 49  1  0  0  0  0
 50 51  1  0  0  0  0
 51 52  2  0  0  0  0
 51 53  1  0  0  0  0
 51 54  1  0  0  0  0
 55 56  1  0  0  0  0
 55 57  1  0  0  0  0
 55104  1  0  0  0  0
 57 58  2  0  0  0  0
 57 59  1  0  0  0  0
 59 60  1  0  0  0  0
 59 61  1  0  0  0  0
 61 62  1  0  0  0  0
 61 63  1  0  0  0  0
 61 64  1  0  0  0  0
 64 65  1  0  0  0  0
 64 66  1  0  0  0  0
 64 67  1  0  0  0  0
 67 68  2  0  0  0  0
 67 69  1  0  0  0  0
 69 70  1  0  0  0  0
 69 71  1  0  0  0  0
 71 72  1  0  0  0  0
 71 73  1  0  0  0  0
 71 74  1  0  0  0  0
 74 75  1  0  0  0  0
 74 76  1  0  0  0  0
 74 77  1  0  0  0  0
 77 78  1  0  0  0  0
 78 79  2  0  0  0  0
 78 80  1  0  0  0  0
 80 81  1  0  0  0  0
 80 82  1  0  0  0  0
 80 83  1  0  0  0  0
 83 84  2  0  0  0  0
 83 85  1  0  0  0  0
 85 86  1  0  0  0  0
 85 87  2  0  0  0  0
 87 88  1  0  0  0  0
 87 89  1  0  0  0  0
 89 90  2  0  0  0  0
 89 96  1  0  0  0  0
 90 91  1  0  0  0  0
 90 92  1  0  0  0  0
 92 93  2  0  0  0  0
 92 99  1  0  0  0  0
 93 94  1  0  0  0  0
 93 98  1  0  0  0  0
 94 95  1  0  0  0  0
 94 96  2  0  0  0  0
 96 97  1  0  0  0  0
 99100  1  0  0  0  0
100101  1  0  0  0  0
100102  1  0  0  0  0
100103  1  0  0  0  0
104105  1  0  0  0  0
M  BCL ATM C_TeTeTeTe H_S H_S H_S C_TeTeTeTe C_TeTeTeTe H_S H_S H_S C_TeTeTeTe H_S H_S O_Tr2TrTrPi2 P_TeTeTeTePi O_Tr2Tr2TrPi O_Te2Te2Te2Te O_Tr2TrTrPi2 P_TeTeTeTePi O_Te2Te2TeTe O_Tr2Tr2TrPi O_Tr2TrTrPi2 C_TeTeTeTe H_S H_S C_TeTeTeTe H_S C_TeTeTeTe H_S C_TeTeTeTe H_S C_TeTeTeTe H_S O_Te2Te2TeTe N_TrTrTrPi2 C_TrTrTrPi H_S N_Tr2TrTrPi C_TrTrTrPi C_TrTrTrPi N_Tr2TrTrPi C_TrTrTrPi H_S N_Tr2TrTrPi C_TrTrTrPi N_TrTrTrPi2 H_S H_S O_Te2Te2TeTe H_S O_Tr2TrTrPi2 P_TeTeTeTePi O_Tr2Tr2TrPi O_Te2Te2Te2Te O_Te2Te2Te2Te C_TeTeTeTe H_S C_TrTrTrPi O_Tr2Tr2TrPi N_TrTrTrPi2 H_S C_TeTeTeTe H_S H_S C_TeTeTeTe H_S H_S C_TrTrTrPi O_Tr2Tr2TrPi N_TrTrTrPi2 H_S C_TeTeTeTe H_S H_S C_TeTeTeTe H_S H_S S_Te2Te2TeTe C_TrTrTrPi O_Tr2Tr2TrPi C_TeTeTeTe H_S H_S C_TrTrTrPi O_Tr2Tr2TrPi C_TrTrTrPi H_S C_TrTrTrPi H_S C_TrTrTrPi C_TrTrTrPi H_S C_TrTrTrPi C_TrTrTrPi C_TrTrTrPi H_S C_TrTrTrPi H_S O_Te2Te2Te2Te O_Tr2TrTrPi2 C_TeTeTeTe H_S H_S H_S O_Te2Te2TeTe H_S
M  BCL BND NonConjugatedSingleBond NonConjugatedSingleBond NonConjugatedSingleBond NonConjugatedSingleBond NonConjugatedSingleBond NonConjugatedSingleBond NonConjugatedSingleBond NonConjugatedSingleBond NonConjugatedSingleBond NonConjugatedSingleBond NonConjugatedSingleBond NonConjugatedSingleBond NonConjugatedSingleBond ConjugatedSingleBond ConjugatedDoubleBond ConjugatedSingleBond ConjugatedSingleBond ConjugatedSingleBond ConjugatedSingleBond ConjugatedDoubleBond ConjugatedSingleBond NonConjugatedSingleBond NonConjugatedSingleBond NonConjugatedSingleBond NonConjugatedSingleBond NonConjugatedSingleBond NonConjugatedSingleBondInRing NonConjugatedSingleBondInRing NonConjugatedSingleBond NonConjugatedSingleBondInRing NonConjugatedSingleBond NonConjugatedSingleBond NonConjugatedSingleBondInRing NonConjugatedSingleBond NonConjugatedSingleBond NonConjugatedSingleBondInRing NonConjugatedSingleBond AromaticSingleBond AromaticSingleBond NonConjugatedSingleBond AromaticDoubleBond AromaticSingleBond AromaticSingleBond AromaticDoubleBond AromaticDoubleBond ConjugatedSingleBond AromaticSingleBond NonConjugatedSingleBond AromaticDoubleBond AromaticSingleBond NonConjugatedSingleBond NonConjugatedSingleBond NonConjugatedSingleBond ConjugatedSingleBond ConjugatedDoubleBond ConjugatedSingleBond ConjugatedSingleBond NonConjugatedSingleBond NonConjugatedSingleBond NonConjugatedSingleBond ConjugatedDoubleBond AmideSingleBond NonConjugatedSingleBond NonConjugatedSingleBond NonConjugatedSingleBond NonConjugatedSingleBond NonConjugatedSingleBond NonConjugatedSingleBond NonConjugatedSingleBond NonConjugatedSingleBond ConjugatedDoubleBond AmideSingleBond NonConjugatedSingleBond NonConjugatedSingleBond NonConjugatedSingleBond NonConjugatedSingleBond NonConjugatedSingleBond NonConjugatedSingleBond NonConjugatedSingleBond NonConjugatedSingleBond ConjugatedSingleBond ConjugatedDoubleBond NonConjugatedSingleBond NonConjugatedSingleBond NonConjugatedSingleBond NonConjugatedSingleBond ConjugatedDoubleBond ConjugatedSingleBond NonConjugatedSingleBond ConjugatedDoubleBond NonConjugatedSingleBond ConjugatedSingleBond AromaticDoubleBond AromaticSingleBond NonConjugatedSingleBond AromaticSingleBond AromaticDoubleBond ConjugatedSingleBond AromaticSingleBond ConjugatedSingleBond NonConjugatedSingleBond AromaticDoubleBond NonConjugatedSingleBond NonConjugatedSingleBond NonConjugatedSingleBond NonConjugatedSingleBond NonConjugatedSingleBond NonConjugatedSingleBond
M  BCL CHI  14   R  18   S  25   R  27   R  29   R  31   S  55   R
M  BCL DBI - - - - - - - - - - - E - - -
M  END
> <ConfClashScore>
0 

> <ConfOneFourInteractionScore>
-0.967886 

> <ConfScore>
0.161326 

> <ConfScorePBest>
0.0103605 

> <ConfTolerance>
2.88723 

$$$$
L03.****
  PyMOL2.5          3D                             0

105108  0  0  0  0  0  0  0  0999 V2000
    5.7779   -9.3881    2.6550 C   0  0  0  1  0  0  0  0  0  0  0  0
    5.4646   -9.1619    3.6528 H   0  0  0  1  0  0  0  0  0  0  0  0
    6.7889   -9.0660    2.5172 H   0  0  0  1  0  0  0  0  0  0  0  0
    5.7139  -10.4436    2.4920 H   0  0  0  1  0  0  0  0  0  0  0  0
    4.8697   -8.6611    1.6561 C   0  0  0  1  0  0  0  0  0  0  0  0
    4.8489   -7.1653    1.9932 C   0  0  0  1  0  0  0  0  0  0  0  0
    5.8507   -6.7901    2.0144 H   0  0  0  1  0  0  0  0  0  0  0  0
    4.3942   -7.0221    2.9511 H   0  0  0  1  0  0  0  0  0  0  0  0
    4.2873   -6.6401    1.2491 H   0  0  0  1  0  0  0  0  0  0  0  0
    3.4806   -9.2081    1.6929 C   0  0  0  1  0  0  0  0  0  0  0  0
    3.2537   -9.5605    2.6774 H   0  0  0  1  0  0  0  0  0  0  0  0
    3.3877  -10.0138    0.9949 H   0  0  0  1  0  0  0  0  0  0  0  0
    2.5749   -8.1347    1.3316 O   0  0  0  1  0  0  0  0  0  0  0  0
    1.0762   -8.0764    1.8076 P   0  0  0  1  0  0  0  0  0  0  0  0
    0.8720   -9.4643    1.3359 O   0  0  0  1  0  0  0  0  0  0  0  0
    2.0989   -7.3255    2.8148 O   0  5  0  1  0  0  0  0  0  0  0  0
   -0.4541   -8.0174    2.2934 O   0  0  0  1  0  0  0  0  0  0  0  0
   -1.4206   -6.9577    2.9512 P   0  0  0  1  0  0  0  0  0  0  0  0
   -0.8926   -6.5005    4.2878 O   0  0  0  0  0  0  0  0  0  0  0  0
   -2.7411   -7.6126    2.9507 O   0  0  0  1  0  0  0  0  0  0  0  0
   -1.4458   -5.8465    1.8422 O   0  0  0  1  0  0  0  0  0  0  0  0
   -1.9072   -6.0872    0.4885 C   0  0  0  1  0  0  0  0  0  0  0  0
   -2.2510   -7.0973    0.4079 H   0  0  0  1  0  0  0  0  0  0  0  0
   -1.0973   -5.9302   -0.1929 H   0  0  0  1  0  0  0  0  0  0  0  0
   -3.0412   -5.1451    0.1410 C   0  0  0  1  0  0  0  0  0  0  0  0
   -3.8127   -5.2276    0.8778 H   0  0  0  1  0  0  0  0  0  0  0  0
   -3.5909   -5.4875   -1.2122 C   0  0  0  1  0  0  0  0  0  0  0  0
   -4.6284   -5.7359   -1.1301 H   0  0  0  1  0  0  0  0  0  0  0  0
   -3.4236   -4.2892   -2.0984 C   0  0  0  1  0  0  0  0  0  0  0  0
   -4.3800   -3.9576   -2.4450 H   0  0  0  1  0  0  0  0  0  0  0  0
   -2.7700   -3.2050   -1.2928 C   0  0  0  1  0  0  0  0  0  0  0  0
   -3.4102   -2.3488   -1.2497 H   0  0  0  1  0  0  0  0  0  0  0  0
   -2.5338   -3.7344    0.0912 O   0  0  0  1  0  0  0  0  0  0  0  0
   -1.4960   -2.8315   -1.9052 N   0  0  0  1  0  0  0  0  0  0  0  0
   -0.4502   -3.6538   -2.1932 C   0  0  0  1  0  0  0  0  0  0  0  0
   -0.4716   -4.6750   -1.9979 H   0  0  0  1  0  0  0  0  0  0  0  0
    0.5816   -3.0639   -2.7329 N   0  0  0  1  0  0  0  0  0  0  0  0
    0.1882   -1.7376   -2.8207 C   0  0  0  1  0  0  0  0  0  0  0  0
    0.7960   -0.5737   -3.2819 C   0  0  0  1  0  0  0  0  0  0  0  0
    0.1340    0.5870   -3.2257 N   0  0  0  1  0  0  0  0  0  0  0  0
   -1.1034    0.5813   -2.7053 C   0  0  0  1  0  0  0  0  0  0  0  0
   -1.5830    1.5036   -2.6755 H   0  0  0  1  0  0  0  0  0  0  0  0
   -1.7975   -0.4425   -2.2237 N   0  0  0  1  0  0  0  0  0  0  0  0
   -1.1067   -1.5803   -2.3087 C   0  0  0  1  0  0  0  0  0  0  0  0
    2.0670   -0.6167   -3.7912 N   0  0  0  1  0  0  0  0  0  0  0  0
    2.4793    0.1971   -4.1492 H   0  0  0  1  0  0  0  0  0  0  0  0
    2.5640   -1.4613   -3.7976 H   0  0  0  1  0  0  0  0  0  0  0  0
   -2.6012   -4.6247   -3.2170 O   0  0  0  1  0  0  0  0  0  0  0  0
   -2.6245   -3.9102   -3.8577 H   0  0  0  1  0  0  0  0  0  0  0  0
   -2.8622   -6.6199   -1.7695 O   0  0  0  1  0  0  0  0  0  0  0  0
   -3.6563   -7.9580   -2.2875 P   0  0  0  1  0  0  0  0  0  0  0  0
   -4.7030   -7.5709   -3.2596 O   0  0  0  1  0  0  0  0  0  0  0  0
   -2.6013   -8.9666   -2.9905 O   0  5  0  1  0  0  0  0  0  0  0  0
   -4.3344   -8.7032   -1.0190 O   0  5  0  1  0  0  0  0  0  0  0  0
    5.4496   -8.8293    0.2484 C   0  0  0  1  0  0  0  0  0  0  0  0
    4.7659   -8.3930   -0.4495 H   0  0  0  1  0  0  0  0  0  0  0  0
    6.7772   -8.1056    0.1343 C   0  0  0  1  0  0  0  0  0  0  0  0
    7.3850   -7.7404    1.1394 O   0  0  0  1  0  0  0  0  0  0  0  0
    7.2675   -7.8764   -1.0942 N   0  0  0  1  0  0  0  0  0  0  0  0
    6.7192   -8.1073   -1.8729 H   0  0  0  1  0  0  0  0  0  0  0  0
    8.5850   -7.2971   -1.3097 C   0  0  0  1  0  0  0  0  0  0  0  0
    9.0955   -7.2712   -0.3697 H   0  0  0  1  0  0  0  0  0  0  0  0
    8.4548   -6.2991   -1.6730 H   0  0  0  1  0  0  0  0  0  0  0  0
    9.4578   -8.0533   -2.3028 C   0  0  0  1  0  0  0  0  0  0  0  0
   10.4257   -7.5975   -2.3215 H   0  0  0  1  0  0  0  0  0  0  0  0
    9.0106   -7.9820   -3.2723 H   0  0  0  1  0  0  0  0  0  0  0  0
    9.6206   -9.5122   -1.9552 C   0  0  0  1  0  0  0  0  0  0  0  0
    9.1532  -10.3940   -2.6710 O   0  0  0  1  0  0  0  0  0  0  0  0
   10.3011   -9.7705   -0.8272 N   0  0  0  1  0  0  0  0  0  0  0  0
   10.6545   -9.0315   -0.2893 H   0  0  0  1  0  0  0  0  0  0  0  0
   10.5150  -11.1456   -0.4015 C   0  0  0  1  0  0  0  0  0  0  0  0
   11.1406  -11.6334   -1.1196 H   0  0  0  1  0  0  0  0  0  0  0  0
    9.5682  -11.6420   -0.3570 H   0  0  0  1  0  0  0  0  0  0  0  0
   11.1738  -11.2365    0.9558 C   0  0  0  1  0  0  0  0  0  0  0  0
   11.9624  -10.5146    1.0000 H   0  0  0  1  0  0  0  0  0  0  0  0
   11.5821  -12.2189    1.0705 H   0  0  0  1  0  0  0  0  0  0  0  0
   10.0350  -10.9259    2.3209 S   0  0  0  1  0  0  0  0  0  0  0  0
   10.5634  -12.0811    3.5128 C   0  0  0  1  0  0  0  0  0  0  0  0
   11.5193  -12.8306    3.3559 O   0  0  0  1  0  0  0  0  0  0  0  0
    9.8359  -12.0025    4.8327 C   0  0  0  1  0  0  0  0  0  0  0  0
   10.5219  -11.6426    5.5708 H   0  0  0  1  0  0  0  0  0  0  0  0
    9.5135  -12.9884    5.0952 H   0  0  0  1  0  0  0  0  0  0  0  0
    8.6276  -11.0965    4.8310 C   0  0  0  1  0  0  0  0  0  0  0  0
    8.7578   -9.8962    4.6676 O   0  0  0  1  0  0  0  0  0  0  0  0
    7.3052  -11.6823    5.0278 C   0  0  0  1  0  0  0  0  0  0  0  0
    7.2747  -12.7158    5.1397 H   0  0  0  1  0  0  0  0  0  0  0  0
    6.1324  -11.0522    5.0815 C   0  0  0  1  0  0  0  0  0  0  0  0
    6.1168  -10.0178    4.9743 H   0  0  0  1  0  0  0  0  0  0  0  0
    4.8494  -11.7643    5.2877 C   0  0  0  1  0  0  0  0  0  0  0  0
    4.9155  -13.1238    5.5279 C   0  0  0  1  0  0  0  0  0  0  0  0
    5.8381  -13.6031    5.5537 H   0  0  0  1  0  0  0  0  0  0  0  0
    3.7520  -13.8483    5.7346 C   0  0  0  1  0  0  0  0  0  0  0  0
    2.5255  -13.2123    5.6950 C   0  0  0  1  0  0  0  0  0  0  0  0
    2.4594  -11.8488    5.4540 C   0  0  0  1  0  0  0  0  0  0  0  0
    1.5368  -11.3695    5.4282 H   0  0  0  1  0  0  0  0  0  0  0  0
    3.6195  -11.1263    5.2480 C   0  0  0  1  0  0  0  0  0  0  0  0
    3.5696  -10.1041    5.0632 H   0  0  0  1  0  0  0  0  0  0  0  0
    1.3623  -13.8902    5.8877 O   0  5  0  1  0  0  0  0  0  0  0  0
    3.6921  -15.1782    5.9828 O   0  0  0  1  0  0  0  0  0  0  0  0
    4.9324  -15.9021    5.9831 C   0  0  0  1  0  0  0  0  0  0  0  0
    4.7462  -16.9296    6.2165 H   0  0  0  1  0  0  0  0  0  0  0  0
    5.5894  -15.4834    6.7166 H   0  0  0  1  0  0  0  0  0  0  0  0
    5.3858  -15.8328    5.0164 H   0  0  0  1  0  0  0  0  0  0  0  0
    5.6135  -10.2156   -0.0448 O   0  0  0  1  0  0  0  0  0  0  0  0
    4.9570  -10.7247    0.4363 H   0  0  0  1  0  0  0  0  0  0  0  0
  1  2  1  0  0  0  0
  1  3  1  0  0  0  0
  1  4  1  0  0  0  0
  1  5  1  0  0  0  0
  5  6  1  0  0  0  0
  5 10  1  0  0  0  0
  5 55  1  0  0  0  0
  6  7  1  0  0  0  0
  6  8  1  0  0  0  0
  6  9  1  0  0  0  0
 10 11  1  0  0  0  0
 10 12  1  0  0  0  0
 10 13  1  0  0  0  0
 13 14  1  0  0  0  0
 14 15  2  0  0  0  0
 14 16  1  0  0  0  0
 14 17  1  0  0  0  0
 17 18  1  0  0  0  0
 18 19  1  0  0  0  0
 18 20  2  0  0  0  0
 18 21  1  0  0  0  0
 21 22  1  0  0  0  0
 22 23  1  0  0  0  0
 22 24  1  0  0  0  0
 22 25  1  0  0  0  0
 25 26  1  0  0  0  0
 25 27  1  0  0  0  0
 25 33  1  0  0  0  0
 27 28  1  0  0  0  0
 27 29  1  0  0  0  0
 27 50  1  0  0  0  0
 29 30  1  0  0  0  0
 29 31  1  0  0  0  0
 29 48  1  0  0  0  0
 31 32  1  0  0  0  0
 31 33  1  0  0  0  0
 31 34  1  0  0  0  0
 34 35  1  0  0  0  0
 34 44  1  0  0  0  0
 35 36  1  0  0  0  0
 35 37  2  0  0  0  0
 37 38  1  0  0  0  0
 38 39  1  0  0  0  0
 38 44  2  0  0  0  0
 39 40  2  0  0  0  0
 39 45  1  0  0  0  0
 40 41  1  0  0  0  0
 41 42  1  0  0  0  0
 41 43  2  0  0  0  0
 43 44  1  0  0  0  0
 45 46  1  0  0  0  0
 45 47  1  0  0  0  0
 48 49  1  0  0  0  0
 50 51  1  0  0  0  0
 51 52  2  0  0  0  0
 51 53  1  0  0  0  0
 51 54  1  0  0  0  0
 55 56  1  0  0  0  0
 55 57  1  0  0  0  0
 55104  1  0  0  0  0
 57 58  2  0  0  0  0
 57 59  1  0  0  0  0
 59 60  1  0  0  0  0
 59 61  1  0  0  0  0
 61 62  1  0  0  0  0
 61 63  1  0  0  0  0
 61 64  1  0  0  0  0
 64 65  1  0  0  0  0
 64 66  1  0  0  0  0
 64 67  1  0  0  0  0
 67 68  2  0  0  0  0
 67 69  1  0  0  0  0
 69 70  1  0  0  0  0
 69 71  1  0  0  0  0
 71 72  1  0  0  0  0
 71 73  1  0  0  0  0
 71 74  1  0  0  0  0
 74 75  1  0  0  0  0
 74 76  1  0  0  0  0
 74 77  1  0  0  0  0
 77 78  1  0  0  0  0
 78 79  2  0  0  0  0
 78 80  1  0  0  0  0
 80 81  1  0  0  0  0
 80 82  1  0  0  0  0
 80 83  1  0  0  0  0
 83 84  2  0  0  0  0
 83 85  1  0  0  0  0
 85 86  1  0  0  0  0
 85 87  2  0  0  0  0
 87 88  1  0  0  0  0
 87 89  1  0  0  0  0
 89 90  2  0  0  0  0
 89 96  1  0  0  0  0
 90 91  1  0  0  0  0
 90 92  1  0  0  0  0
 92 93  2  0  0  0  0
 92 99  1  0  0  0  0
 93 94  1  0  0  0  0
 93 98  1  0  0  0  0
 94 95  1  0  0  0  0
 94 96  2  0  0  0  0
 96 97  1  0  0  0  0
 99100  1  0  0  0  0
100101  1  0  0  0  0
100102  1  0  0  0  0
100103  1  0  0  0  0
104105  1  0  0  0  0
M  BCL ATM C_TeTeTeTe H_S H_S H_S C_TeTeTeTe C_TeTeTeTe H_S H_S H_S C_TeTeTeTe H_S H_S O_Tr2TrTrPi2 P_TeTeTeTePi O_Tr2Tr2TrPi O_Te2Te2Te2Te O_Tr2TrTrPi2 P_TeTeTeTePi O_Te2Te2TeTe O_Tr2Tr2TrPi O_Tr2TrTrPi2 C_TeTeTeTe H_S H_S C_TeTeTeTe H_S C_TeTeTeTe H_S C_TeTeTeTe H_S C_TeTeTeTe H_S O_Te2Te2TeTe N_TrTrTrPi2 C_TrTrTrPi H_S N_Tr2TrTrPi C_TrTrTrPi C_TrTrTrPi N_Tr2TrTrPi C_TrTrTrPi H_S N_Tr2TrTrPi C_TrTrTrPi N_TrTrTrPi2 H_S H_S O_Te2Te2TeTe H_S O_Tr2TrTrPi2 P_TeTeTeTePi O_Tr2Tr2TrPi O_Te2Te2Te2Te O_Te2Te2Te2Te C_TeTeTeTe H_S C_TrTrTrPi O_Tr2Tr2TrPi N_TrTrTrPi2 H_S C_TeTeTeTe H_S H_S C_TeTeTeTe H_S H_S C_TrTrTrPi O_Tr2Tr2TrPi N_TrTrTrPi2 H_S C_TeTeTeTe H_S H_S C_TeTeTeTe H_S H_S S_Te2Te2TeTe C_TrTrTrPi O_Tr2Tr2TrPi C_TeTeTeTe H_S H_S C_TrTrTrPi O_Tr2Tr2TrPi C_TrTrTrPi H_S C_TrTrTrPi H_S C_TrTrTrPi C_TrTrTrPi H_S C_TrTrTrPi C_TrTrTrPi C_TrTrTrPi H_S C_TrTrTrPi H_S O_Te2Te2Te2Te O_Tr2TrTrPi2 C_TeTeTeTe H_S H_S H_S O_Te2Te2TeTe H_S
M  BCL BND NonConjugatedSingleBond NonConjugatedSingleBond NonConjugatedSingleBond NonConjugatedSingleBond NonConjugatedSingleBond NonConjugatedSingleBond NonConjugatedSingleBond NonConjugatedSingleBond NonConjugatedSingleBond NonConjugatedSingleBond NonConjugatedSingleBond NonConjugatedSingleBond NonConjugatedSingleBond ConjugatedSingleBond ConjugatedDoubleBond ConjugatedSingleBond ConjugatedSingleBond ConjugatedSingleBond ConjugatedSingleBond ConjugatedDoubleBond ConjugatedSingleBond NonConjugatedSingleBond NonConjugatedSingleBond NonConjugatedSingleBond NonConjugatedSingleBond NonConjugatedSingleBond NonConjugatedSingleBondInRing NonConjugatedSingleBondInRing NonConjugatedSingleBond NonConjugatedSingleBondInRing NonConjugatedSingleBond NonConjugatedSingleBond NonConjugatedSingleBondInRing NonConjugatedSingleBond NonConjugatedSingleBond NonConjugatedSingleBondInRing NonConjugatedSingleBond AromaticSingleBond AromaticSingleBond NonConjugatedSingleBond AromaticDoubleBond AromaticSingleBond AromaticSingleBond AromaticDoubleBond AromaticDoubleBond ConjugatedSingleBond AromaticSingleBond NonConjugatedSingleBond AromaticDoubleBond AromaticSingleBond NonConjugatedSingleBond NonConjugatedSingleBond NonConjugatedSingleBond ConjugatedSingleBond ConjugatedDoubleBond ConjugatedSingleBond ConjugatedSingleBond NonConjugatedSingleBond NonConjugatedSingleBond NonConjugatedSingleBond ConjugatedDoubleBond AmideSingleBond NonConjugatedSingleBond NonConjugatedSingleBond NonConjugatedSingleBond NonConjugatedSingleBond NonConjugatedSingleBond NonConjugatedSingleBond NonConjugatedSingleBond NonConjugatedSingleBond ConjugatedDoubleBond AmideSingleBond NonConjugatedSingleBond NonConjugatedSingleBond NonConjugatedSingleBond NonConjugatedSingleBond NonConjugatedSingleBond NonConjugatedSingleBond NonConjugatedSingleBond NonConjugatedSingleBond ConjugatedSingleBond ConjugatedDoubleBond NonConjugatedSingleBond NonConjugatedSingleBond NonConjugatedSingleBond NonConjugatedSingleBond ConjugatedDoubleBond ConjugatedSingleBond NonConjugatedSingleBond ConjugatedDoubleBond NonConjugatedSingleBond ConjugatedSingleBond AromaticDoubleBond AromaticSingleBond NonConjugatedSingleBond AromaticSingleBond AromaticDoubleBond ConjugatedSingleBond AromaticSingleBond ConjugatedSingleBond NonConjugatedSingleBond AromaticDoubleBond NonConjugatedSingleBond NonConjugatedSingleBond NonConjugatedSingleBond NonConjugatedSingleBond NonConjugatedSingleBond NonConjugatedSingleBond
M  BCL CHI  14   R  18   S  25   R  27   R  29   R  31   S  55   R
M  BCL DBI - - - - - - - - - - - E - - -
M  END
> <ConfClashScore>
0 

> <ConfOneFourInteractionScore>
-0.968002 

> <ConfScore>
0.162625 

> <ConfScorePBest>
0.0102575 

> <ConfTolerance>
3.11091 

$$$$
L03.****
  PyMOL2.5          3D                             0

105108  0  0  0  0  0  0  0  0999 V2000
    3.0215   -6.0991   -7.5458 C   0  0  0  1  0  0  0  0  0  0  0  0
    3.1524   -5.0447   -7.6720 H   0  0  0  1  0  0  0  0  0  0  0  0
    2.4589   -6.4894   -8.3680 H   0  0  0  1  0  0  0  0  0  0  0  0
    3.9790   -6.5754   -7.5101 H   0  0  0  1  0  0  0  0  0  0  0  0
    2.2680   -6.3684   -6.2378 C   0  0  0  1  0  0  0  0  0  0  0  0
    2.8132   -7.6406   -5.5780 C   0  0  0  1  0  0  0  0  0  0  0  0
    2.4771   -7.6890   -4.5634 H   0  0  0  1  0  0  0  0  0  0  0  0
    3.8829   -7.6225   -5.5986 H   0  0  0  1  0  0  0  0  0  0  0  0
    2.4602   -8.4982   -6.1117 H   0  0  0  1  0  0  0  0  0  0  0  0
    0.8243   -6.5673   -6.4696 C   0  0  0  1  0  0  0  0  0  0  0  0
    0.3245   -6.6518   -5.5272 H   0  0  0  1  0  0  0  0  0  0  0  0
    0.6783   -7.4651   -7.0331 H   0  0  0  1  0  0  0  0  0  0  0  0
    0.2718   -5.4491   -7.2033 O   0  0  0  1  0  0  0  0  0  0  0  0
   -1.1146   -4.8245   -6.7984 P   0  0  0  1  0  0  0  0  0  0  0  0
   -0.6628   -3.5031   -7.2887 O   0  0  0  1  0  0  0  0  0  0  0  0
   -1.2391   -6.3171   -7.4155 O   0  5  0  1  0  0  0  0  0  0  0  0
   -2.5236   -4.1891   -6.3870 O   0  0  0  1  0  0  0  0  0  0  0  0
   -3.9140   -4.7680   -5.7947 P   0  0  0  1  0  0  0  0  0  0  0  0
   -3.8988   -6.2690   -5.9030 O   0  0  0  0  0  0  0  0  0  0  0  0
   -4.9710   -3.9774   -6.4662 O   0  0  0  1  0  0  0  0  0  0  0  0
   -3.8320   -4.4906   -4.2480 O   0  0  0  1  0  0  0  0  0  0  0  0
   -4.8896   -4.9978   -3.3936 C   0  0  0  1  0  0  0  0  0  0  0  0
   -4.9230   -6.0658   -3.4500 H   0  0  0  1  0  0  0  0  0  0  0  0
   -5.8317   -4.5943   -3.7013 H   0  0  0  1  0  0  0  0  0  0  0  0
   -4.5828   -4.5667   -1.9789 C   0  0  0  1  0  0  0  0  0  0  0  0
   -5.0272   -5.2556   -1.2912 H   0  0  0  1  0  0  0  0  0  0  0  0
   -5.1356   -3.1539   -1.7325 C   0  0  0  1  0  0  0  0  0  0  0  0
   -5.6028   -3.0847   -0.7724 H   0  0  0  1  0  0  0  0  0  0  0  0
   -3.8750   -2.2814   -1.7983 C   0  0  0  1  0  0  0  0  0  0  0  0
   -3.9643   -1.4315   -1.1544 H   0  0  0  1  0  0  0  0  0  0  0  0
   -2.7797   -3.2075   -1.3216 C   0  0  0  1  0  0  0  0  0  0  0  0
   -2.7032   -3.1862   -0.2545 H   0  0  0  1  0  0  0  0  0  0  0  0
   -3.1972   -4.5279   -1.7839 O   0  0  0  1  0  0  0  0  0  0  0  0
   -1.4942   -2.8353   -1.9104 N   0  0  0  1  0  0  0  0  0  0  0  0
   -0.4467   -3.6608   -2.1844 C   0  0  0  1  0  0  0  0  0  0  0  0
   -0.4692   -4.6842   -2.0005 H   0  0  0  1  0  0  0  0  0  0  0  0
    0.5994   -3.0472   -2.7039 N   0  0  0  1  0  0  0  0  0  0  0  0
    0.1750   -1.7210   -2.7903 C   0  0  0  1  0  0  0  0  0  0  0  0
    0.8114   -0.5688   -3.2833 C   0  0  0  1  0  0  0  0  0  0  0  0
    0.1251    0.5980   -3.2213 N   0  0  0  1  0  0  0  0  0  0  0  0
   -1.1151    0.5798   -2.7009 C   0  0  0  1  0  0  0  0  0  0  0  0
   -1.5970    1.5011   -2.6741 H   0  0  0  1  0  0  0  0  0  0  0  0
   -1.8189   -0.4423   -2.2145 N   0  0  0  1  0  0  0  0  0  0  0  0
   -1.0926   -1.5753   -2.3030 C   0  0  0  1  0  0  0  0  0  0  0  0
    2.0765   -0.6233   -3.8064 N   0  0  0  1  0  0  0  0  0  0  0  0
    2.5526   -1.4787   -3.8491 H   0  0  0  1  0  0  0  0  0  0  0  0
    2.5052    0.1933   -4.1378 H   0  0  0  1  0  0  0  0  0  0  0  0
   -3.6268   -1.8428   -3.1355 O   0  0  0  1  0  0  0  0  0  0  0  0
   -4.4324   -1.4761   -3.5072 H   0  0  0  1  0  0  0  0  0  0  0  0
   -6.0885   -2.7767   -2.7645 O   0  0  0  1  0  0  0  0  0  0  0  0
   -6.9606   -1.3935   -2.6385 P   0  0  0  1  0  0  0  0  0  0  0  0
   -7.6096   -1.3866   -1.3084 O   0  0  0  1  0  0  0  0  0  0  0  0
   -5.8757   -0.1961   -2.5225 O   0  5  0  1  0  0  0  0  0  0  0  0
   -7.8678   -1.1204   -3.9525 O   0  5  0  1  0  0  0  0  0  0  0  0
    2.4452   -5.1703   -5.2975 C   0  0  0  1  0  0  0  0  0  0  0  0
    1.9082   -5.3743   -4.3948 H   0  0  0  1  0  0  0  0  0  0  0  0
    3.8757   -4.8589   -4.9400 C   0  0  0  1  0  0  0  0  0  0  0  0
    4.7011   -4.5682   -5.8048 O   0  0  0  1  0  0  0  0  0  0  0  0
    4.1768   -4.9208   -3.6340 N   0  0  0  1  0  0  0  0  0  0  0  0
    3.4416   -5.0833   -3.0067 H   0  0  0  1  0  0  0  0  0  0  0  0
    5.5130   -4.7648   -3.0787 C   0  0  0  1  0  0  0  0  0  0  0  0
    6.2233   -5.1461   -3.7823 H   0  0  0  1  0  0  0  0  0  0  0  0
    5.5741   -5.3259   -2.1697 H   0  0  0  1  0  0  0  0  0  0  0  0
    5.8524   -3.3222   -2.7813 C   0  0  0  1  0  0  0  0  0  0  0  0
    5.0901   -2.9289   -2.1417 H   0  0  0  1  0  0  0  0  0  0  0  0
    5.8537   -2.7858   -3.7071 H   0  0  0  1  0  0  0  0  0  0  0  0
    7.1915   -3.0953   -2.1073 C   0  0  0  1  0  0  0  0  0  0  0  0
    8.1960   -3.7125   -2.4589 O   0  0  0  1  0  0  0  0  0  0  0  0
    7.2000   -2.1885   -1.1175 N   0  0  0  1  0  0  0  0  0  0  0  0
    6.3667   -1.7229   -0.8955 H   0  0  0  1  0  0  0  0  0  0  0  0
    8.4035   -1.8727   -0.3627 C   0  0  0  1  0  0  0  0  0  0  0  0
    9.0383   -1.2614   -0.9695 H   0  0  0  1  0  0  0  0  0  0  0  0
    8.9083   -2.7857   -0.1246 H   0  0  0  1  0  0  0  0  0  0  0  0
    8.1034   -1.1308    0.9296 C   0  0  0  1  0  0  0  0  0  0  0  0
    9.0240   -0.9693    1.4505 H   0  0  0  1  0  0  0  0  0  0  0  0
    7.4563   -1.7379    1.5277 H   0  0  0  1  0  0  0  0  0  0  0  0
    7.3054    0.4702    0.6631 S   0  0  0  1  0  0  0  0  0  0  0  0
    5.5957    0.0719    0.4007 C   0  0  0  1  0  0  0  0  0  0  0  0
    5.1897   -1.0437    0.5851 O   0  0  0  1  0  0  0  0  0  0  0  0
    4.7223    1.2135   -0.0584 C   0  0  0  1  0  0  0  0  0  0  0  0
    4.9758    2.0883    0.5032 H   0  0  0  1  0  0  0  0  0  0  0  0
    3.6990    0.9579    0.1213 H   0  0  0  1  0  0  0  0  0  0  0  0
    4.8978    1.5116   -1.5274 C   0  0  0  1  0  0  0  0  0  0  0  0
    4.1784    0.9776   -2.3554 O   0  0  0  1  0  0  0  0  0  0  0  0
    5.9401    2.4471   -1.9388 C   0  0  0  1  0  0  0  0  0  0  0  0
    6.5707    2.7894   -1.1859 H   0  0  0  1  0  0  0  0  0  0  0  0
    6.1806    2.9148   -3.1618 C   0  0  0  1  0  0  0  0  0  0  0  0
    5.4251    2.7733   -3.8624 H   0  0  0  1  0  0  0  0  0  0  0  0
    7.3948    3.6124   -3.6448 C   0  0  0  1  0  0  0  0  0  0  0  0
    7.5836    3.7912   -5.0022 C   0  0  0  1  0  0  0  0  0  0  0  0
    6.8778    3.4333   -5.6770 H   0  0  0  1  0  0  0  0  0  0  0  0
    8.7138    4.4474   -5.4641 C   0  0  0  1  0  0  0  0  0  0  0  0
    9.6545    4.9183   -4.5676 C   0  0  0  1  0  0  0  0  0  0  0  0
    9.4650    4.7390   -3.2062 C   0  0  0  1  0  0  0  0  0  0  0  0
   10.1708    5.0968   -2.5314 H   0  0  0  1  0  0  0  0  0  0  0  0
    8.3381    4.0846   -2.7455 C   0  0  0  1  0  0  0  0  0  0  0  0
    8.1979    3.9466   -1.7243 H   0  0  0  1  0  0  0  0  0  0  0  0
   10.7546    5.5531   -5.0539 O   0  5  0  1  0  0  0  0  0  0  0  0
    8.7876    4.5677   -6.8109 O   0  0  0  1  0  0  0  0  0  0  0  0
    8.0804    3.5952   -7.5962 C   0  0  0  1  0  0  0  0  0  0  0  0
    8.5737    3.4690   -8.5373 H   0  0  0  1  0  0  0  0  0  0  0  0
    7.0781    3.9313   -7.7615 H   0  0  0  1  0  0  0  0  0  0  0  0
    8.0625    2.6610   -7.0750 H   0  0  0  1  0  0  0  0  0  0  0  0
    1.8231   -4.0768   -5.9844 O   0  0  0  1  0  0  0  0  0  0  0  0
    1.8420   -4.2401   -6.9302 H   0  0  0  1  0  0  0  0  0  0  0  0
  1  2  1  0  0  0  0
  1  3  1  0  0  0  0
  1  4  1  0  0  0  0
  1  5  1  0  0  0  0
  5  6  1  0  0  0  0
  5 10  1  0  0  0  0
  5 55  1  0  0  0  0
  6  7  1  0  0  0  0
  6  8  1  0  0  0  0
  6  9  1  0  0  0  0
 10 11  1  0  0  0  0
 10 12  1  0  0  0  0
 10 13  1  0  0  0  0
 13 14  1  0  0  0  0
 14 15  2  0  0  0  0
 14 16  1  0  0  0  0
 14 17  1  0  0  0  0
 17 18  1  0  0  0  0
 18 19  1  0  0  0  0
 18 20  2  0  0  0  0
 18 21  1  0  0  0  0
 21 22  1  0  0  0  0
 22 23  1  0  0  0  0
 22 24  1  0  0  0  0
 22 25  1  0  0  0  0
 25 26  1  0  0  0  0
 25 27  1  0  0  0  0
 25 33  1  0  0  0  0
 27 28  1  0  0  0  0
 27 29  1  0  0  0  0
 27 50  1  0  0  0  0
 29 30  1  0  0  0  0
 29 31  1  0  0  0  0
 29 48  1  0  0  0  0
 31 32  1  0  0  0  0
 31 33  1  0  0  0  0
 31 34  1  0  0  0  0
 34 35  1  0  0  0  0
 34 44  1  0  0  0  0
 35 36  1  0  0  0  0
 35 37  2  0  0  0  0
 37 38  1  0  0  0  0
 38 39  1  0  0  0  0
 38 44  2  0  0  0  0
 39 40  2  0  0  0  0
 39 45  1  0  0  0  0
 40 41  1  0  0  0  0
 41 42  1  0  0  0  0
 41 43  2  0  0  0  0
 43 44  1  0  0  0  0
 45 46  1  0  0  0  0
 45 47  1  0  0  0  0
 48 49  1  0  0  0  0
 50 51  1  0  0  0  0
 51 52  2  0  0  0  0
 51 53  1  0  0  0  0
 51 54  1  0  0  0  0
 55 56  1  0  0  0  0
 55 57  1  0  0  0  0
 55104  1  0  0  0  0
 57 58  2  0  0  0  0
 57 59  1  0  0  0  0
 59 60  1  0  0  0  0
 59 61  1  0  0  0  0
 61 62  1  0  0  0  0
 61 63  1  0  0  0  0
 61 64  1  0  0  0  0
 64 65  1  0  0  0  0
 64 66  1  0  0  0  0
 64 67  1  0  0  0  0
 67 68  2  0  0  0  0
 67 69  1  0  0  0  0
 69 70  1  0  0  0  0
 69 71  1  0  0  0  0
 71 72  1  0  0  0  0
 71 73  1  0  0  0  0
 71 74  1  0  0  0  0
 74 75  1  0  0  0  0
 74 76  1  0  0  0  0
 74 77  1  0  0  0  0
 77 78  1  0  0  0  0
 78 79  2  0  0  0  0
 78 80  1  0  0  0  0
 80 81  1  0  0  0  0
 80 82  1  0  0  0  0
 80 83  1  0  0  0  0
 83 84  2  0  0  0  0
 83 85  1  0  0  0  0
 85 86  1  0  0  0  0
 85 87  2  0  0  0  0
 87 88  1  0  0  0  0
 87 89  1  0  0  0  0
 89 90  2  0  0  0  0
 89 96  1  0  0  0  0
 90 91  1  0  0  0  0
 90 92  1  0  0  0  0
 92 93  2  0  0  0  0
 92 99  1  0  0  0  0
 93 94  1  0  0  0  0
 93 98  1  0  0  0  0
 94 95  1  0  0  0  0
 94 96  2  0  0  0  0
 96 97  1  0  0  0  0
 99100  1  0  0  0  0
100101  1  0  0  0  0
100102  1  0  0  0  0
100103  1  0  0  0  0
104105  1  0  0  0  0
M  BCL ATM C_TeTeTeTe H_S H_S H_S C_TeTeTeTe C_TeTeTeTe H_S H_S H_S C_TeTeTeTe H_S H_S O_Tr2TrTrPi2 P_TeTeTeTePi O_Tr2Tr2TrPi O_Te2Te2Te2Te O_Tr2TrTrPi2 P_TeTeTeTePi O_Te2Te2TeTe O_Tr2Tr2TrPi O_Tr2TrTrPi2 C_TeTeTeTe H_S H_S C_TeTeTeTe H_S C_TeTeTeTe H_S C_TeTeTeTe H_S C_TeTeTeTe H_S O_Te2Te2TeTe N_TrTrTrPi2 C_TrTrTrPi H_S N_Tr2TrTrPi C_TrTrTrPi C_TrTrTrPi N_Tr2TrTrPi C_TrTrTrPi H_S N_Tr2TrTrPi C_TrTrTrPi N_TrTrTrPi2 H_S H_S O_Te2Te2TeTe H_S O_Tr2TrTrPi2 P_TeTeTeTePi O_Tr2Tr2TrPi O_Te2Te2Te2Te O_Te2Te2Te2Te C_TeTeTeTe H_S C_TrTrTrPi O_Tr2Tr2TrPi N_TrTrTrPi2 H_S C_TeTeTeTe H_S H_S C_TeTeTeTe H_S H_S C_TrTrTrPi O_Tr2Tr2TrPi N_TrTrTrPi2 H_S C_TeTeTeTe H_S H_S C_TeTeTeTe H_S H_S S_Te2Te2TeTe C_TrTrTrPi O_Tr2Tr2TrPi C_TeTeTeTe H_S H_S C_TrTrTrPi O_Tr2Tr2TrPi C_TrTrTrPi H_S C_TrTrTrPi H_S C_TrTrTrPi C_TrTrTrPi H_S C_TrTrTrPi C_TrTrTrPi C_TrTrTrPi H_S C_TrTrTrPi H_S O_Te2Te2Te2Te O_Tr2TrTrPi2 C_TeTeTeTe H_S H_S H_S O_Te2Te2TeTe H_S
M  BCL BND NonConjugatedSingleBond NonConjugatedSingleBond NonConjugatedSingleBond NonConjugatedSingleBond NonConjugatedSingleBond NonConjugatedSingleBond NonConjugatedSingleBond NonConjugatedSingleBond NonConjugatedSingleBond NonConjugatedSingleBond NonConjugatedSingleBond NonConjugatedSingleBond NonConjugatedSingleBond ConjugatedSingleBond ConjugatedDoubleBond ConjugatedSingleBond ConjugatedSingleBond ConjugatedSingleBond ConjugatedSingleBond ConjugatedDoubleBond ConjugatedSingleBond NonConjugatedSingleBond NonConjugatedSingleBond NonConjugatedSingleBond NonConjugatedSingleBond NonConjugatedSingleBond NonConjugatedSingleBondInRing NonConjugatedSingleBondInRing NonConjugatedSingleBond NonConjugatedSingleBondInRing NonConjugatedSingleBond NonConjugatedSingleBond NonConjugatedSingleBondInRing NonConjugatedSingleBond NonConjugatedSingleBond NonConjugatedSingleBondInRing NonConjugatedSingleBond AromaticSingleBond AromaticSingleBond NonConjugatedSingleBond AromaticDoubleBond AromaticSingleBond AromaticSingleBond AromaticDoubleBond AromaticDoubleBond ConjugatedSingleBond AromaticSingleBond NonConjugatedSingleBond AromaticDoubleBond AromaticSingleBond NonConjugatedSingleBond NonConjugatedSingleBond NonConjugatedSingleBond ConjugatedSingleBond ConjugatedDoubleBond ConjugatedSingleBond ConjugatedSingleBond NonConjugatedSingleBond NonConjugatedSingleBond NonConjugatedSingleBond ConjugatedDoubleBond AmideSingleBond NonConjugatedSingleBond NonConjugatedSingleBond NonConjugatedSingleBond NonConjugatedSingleBond NonConjugatedSingleBond NonConjugatedSingleBond NonConjugatedSingleBond NonConjugatedSingleBond ConjugatedDoubleBond AmideSingleBond NonConjugatedSingleBond NonConjugatedSingleBond NonConjugatedSingleBond NonConjugatedSingleBond NonConjugatedSingleBond NonConjugatedSingleBond NonConjugatedSingleBond NonConjugatedSingleBond ConjugatedSingleBond ConjugatedDoubleBond NonConjugatedSingleBond NonConjugatedSingleBond NonConjugatedSingleBond NonConjugatedSingleBond ConjugatedDoubleBond ConjugatedSingleBond NonConjugatedSingleBond ConjugatedDoubleBond NonConjugatedSingleBond ConjugatedSingleBond AromaticDoubleBond AromaticSingleBond NonConjugatedSingleBond AromaticSingleBond AromaticDoubleBond ConjugatedSingleBond AromaticSingleBond ConjugatedSingleBond NonConjugatedSingleBond AromaticDoubleBond NonConjugatedSingleBond NonConjugatedSingleBond NonConjugatedSingleBond NonConjugatedSingleBond NonConjugatedSingleBond NonConjugatedSingleBond
M  BCL CHI  14   R  18   S  25   R  27   R  29   R  31   S  55   R
M  BCL DBI - - - - - - - - - - - E - - -
M  END
> <ConfClashScore>
0 

> <ConfOneFourInteractionScore>
-0.976111 

> <ConfScore>
0.16821 

> <ConfScorePBest>
0.0101545 

> <ConfTolerance>
3.10671 

$$$$
L03.****
  PyMOL2.5          3D                             0

105108  0  0  0  0  0  0  0  0999 V2000
   -3.9700  -10.6150    2.1603 C   0  0  0  1  0  0  0  0  0  0  0  0
   -4.6979  -10.0115    2.6611 H   0  0  0  1  0  0  0  0  0  0  0  0
   -3.0502  -10.0736    2.0833 H   0  0  0  1  0  0  0  0  0  0  0  0
   -3.8093  -11.5148    2.7166 H   0  0  0  1  0  0  0  0  0  0  0  0
   -4.4751  -10.9661    0.7558 C   0  0  0  1  0  0  0  0  0  0  0  0
   -4.1814  -12.4414    0.4580 C   0  0  0  1  0  0  0  0  0  0  0  0
   -4.6977  -12.7358   -0.4318 H   0  0  0  1  0  0  0  0  0  0  0  0
   -4.5127  -13.0434    1.2781 H   0  0  0  1  0  0  0  0  0  0  0  0
   -3.1287  -12.5743    0.3197 H   0  0  0  1  0  0  0  0  0  0  0  0
   -3.8358  -10.0713   -0.2281 C   0  0  0  1  0  0  0  0  0  0  0  0
   -4.0105   -9.0543    0.0549 H   0  0  0  1  0  0  0  0  0  0  0  0
   -4.2587  -10.2508   -1.1945 H   0  0  0  1  0  0  0  0  0  0  0  0
   -2.4295  -10.3101   -0.2788 O   0  0  0  1  0  0  0  0  0  0  0  0
   -1.2780   -9.3069   -0.6580 P   0  0  0  1  0  0  0  0  0  0  0  0
   -1.7651   -9.2754   -2.0552 O   0  0  0  1  0  0  0  0  0  0  0  0
   -1.9146   -9.0294    0.8056 O   0  5  0  1  0  0  0  0  0  0  0  0
   -0.1145   -8.2931   -1.0418 O   0  0  0  1  0  0  0  0  0  0  0  0
    0.4634   -6.8872   -0.5490 P   0  0  0  1  0  0  0  0  0  0  0  0
    1.3611   -6.3291   -1.6001 O   0  0  0  0  0  0  0  0  0  0  0  0
    0.9493   -7.0687    0.8360 O   0  0  0  1  0  0  0  0  0  0  0  0
   -0.8248   -5.9892   -0.4735 O   0  0  0  1  0  0  0  0  0  0  0  0
   -1.9633   -6.1186    0.4105 C   0  0  0  1  0  0  0  0  0  0  0  0
   -1.6425   -5.9203    1.4118 H   0  0  0  1  0  0  0  0  0  0  0  0
   -2.3338   -7.1204    0.3459 H   0  0  0  1  0  0  0  0  0  0  0  0
   -3.0845   -5.1669    0.0660 C   0  0  0  1  0  0  0  0  0  0  0  0
   -3.8649   -5.2564    0.7926 H   0  0  0  1  0  0  0  0  0  0  0  0
   -3.6206   -5.4845   -1.2987 C   0  0  0  1  0  0  0  0  0  0  0  0
   -4.6605   -5.7278   -1.2323 H   0  0  0  1  0  0  0  0  0  0  0  0
   -3.4360   -4.2734   -2.1637 C   0  0  0  1  0  0  0  0  0  0  0  0
   -4.3864   -3.9305   -2.5159 H   0  0  0  1  0  0  0  0  0  0  0  0
   -2.7854   -3.2061   -1.3336 C   0  0  0  1  0  0  0  0  0  0  0  0
   -3.4209   -2.3467   -1.2842 H   0  0  0  1  0  0  0  0  0  0  0  0
   -2.5682   -3.7587    0.0445 O   0  0  0  1  0  0  0  0  0  0  0  0
   -1.5033   -2.8310   -1.9249 N   0  0  0  1  0  0  0  0  0  0  0  0
   -0.4531   -3.6578   -2.2218 C   0  0  0  1  0  0  0  0  0  0  0  0
   -0.4750   -4.6818   -2.0415 H   0  0  0  1  0  0  0  0  0  0  0  0
    0.5778   -3.0559   -2.7495 N   0  0  0  1  0  0  0  0  0  0  0  0
    0.1829   -1.7342   -2.8038 C   0  0  0  1  0  0  0  0  0  0  0  0
    0.8023   -0.5697   -3.2646 C   0  0  0  1  0  0  0  0  0  0  0  0
    0.1526    0.5966   -3.1858 N   0  0  0  1  0  0  0  0  0  0  0  0
   -1.0964    0.5863   -2.6734 C   0  0  0  1  0  0  0  0  0  0  0  0
   -1.5756    1.5086   -2.6370 H   0  0  0  1  0  0  0  0  0  0  0  0
   -1.7965   -0.4451   -2.2086 N   0  0  0  1  0  0  0  0  0  0  0  0
   -1.0973   -1.5779   -2.2997 C   0  0  0  1  0  0  0  0  0  0  0  0
    2.0651   -0.6223   -3.7931 N   0  0  0  1  0  0  0  0  0  0  0  0
    2.3741   -1.4356   -4.2441 H   0  0  0  1  0  0  0  0  0  0  0  0
    2.6595    0.1535   -3.7200 H   0  0  0  1  0  0  0  0  0  0  0  0
   -2.6027   -4.5961   -3.2781 O   0  0  0  1  0  0  0  0  0  0  0  0
   -3.1303   -5.0149   -3.9621 H   0  0  0  1  0  0  0  0  0  0  0  0
   -2.8956   -6.6071   -1.8629 O   0  0  0  1  0  0  0  0  0  0  0  0
   -3.5363   -7.4928   -3.0855 P   0  0  0  1  0  0  0  0  0  0  0  0
   -4.5020   -6.6723   -3.8501 O   0  0  0  1  0  0  0  0  0  0  0  0
   -2.2934   -7.7670   -4.0876 O   0  5  0  1  0  0  0  0  0  0  0  0
   -4.1260   -8.8900   -2.5157 O   0  5  0  1  0  0  0  0  0  0  0  0
   -5.9904  -10.7337    0.7297 C   0  0  0  1  0  0  0  0  0  0  0  0
   -6.3512  -11.0308   -0.2328 H   0  0  0  1  0  0  0  0  0  0  0  0
   -6.7324  -11.5406    1.7791 C   0  0  0  1  0  0  0  0  0  0  0  0
   -6.2753  -11.6720    2.9138 O   0  0  0  1  0  0  0  0  0  0  0  0
   -7.8998  -12.1053    1.4321 N   0  0  0  1  0  0  0  0  0  0  0  0
   -8.1906  -12.0542    0.4977 H   0  0  0  1  0  0  0  0  0  0  0  0
   -8.7485  -12.7907    2.3953 C   0  0  0  1  0  0  0  0  0  0  0  0
   -8.3468  -12.6568    3.3780 H   0  0  0  1  0  0  0  0  0  0  0  0
   -8.7776  -13.8343    2.1605 H   0  0  0  1  0  0  0  0  0  0  0  0
  -10.1592  -12.2266    2.3489 C   0  0  0  1  0  0  0  0  0  0  0  0
  -10.7594  -12.7816    3.0392 H   0  0  0  1  0  0  0  0  0  0  0  0
  -10.5368  -12.3632    1.3571 H   0  0  0  1  0  0  0  0  0  0  0  0
  -10.2820  -10.7683    2.6954 C   0  0  0  1  0  0  0  0  0  0  0  0
   -9.6030  -10.2444    3.5597 O   0  0  0  1  0  0  0  0  0  0  0  0
  -11.1650  -10.0173    2.0354 N   0  0  0  1  0  0  0  0  0  0  0  0
  -11.7117  -10.4568    1.3510 H   0  0  0  1  0  0  0  0  0  0  0  0
  -11.3775   -8.5944    2.2549 C   0  0  0  1  0  0  0  0  0  0  0  0
  -10.7803   -8.2828    3.0862 H   0  0  0  1  0  0  0  0  0  0  0  0
  -12.4115   -8.4325    2.4773 H   0  0  0  1  0  0  0  0  0  0  0  0
  -11.0040   -7.7586    1.0488 C   0  0  0  1  0  0  0  0  0  0  0  0
  -10.9820   -6.7323    1.3509 H   0  0  0  1  0  0  0  0  0  0  0  0
  -11.7598   -7.8955    0.3039 H   0  0  0  1  0  0  0  0  0  0  0  0
   -9.4084   -8.1568    0.3058 S   0  0  0  1  0  0  0  0  0  0  0  0
   -9.7230   -9.7414   -0.4360 C   0  0  0  1  0  0  0  0  0  0  0  0
  -10.7909  -10.2997   -0.3861 O   0  0  0  1  0  0  0  0  0  0  0  0
   -8.5050  -10.3004   -1.1300 C   0  0  0  1  0  0  0  0  0  0  0  0
   -8.5558  -11.3683   -1.0847 H   0  0  0  1  0  0  0  0  0  0  0  0
   -7.6367   -9.9615   -0.6047 H   0  0  0  1  0  0  0  0  0  0  0  0
   -8.3658   -9.8938   -2.5882 C   0  0  0  1  0  0  0  0  0  0  0  0
   -9.2438   -9.2386   -3.1213 O   0  0  0  1  0  0  0  0  0  0  0  0
   -7.2219  -10.3788   -3.3510 C   0  0  0  1  0  0  0  0  0  0  0  0
   -6.4704  -10.8665   -2.8228 H   0  0  0  1  0  0  0  0  0  0  0  0
   -7.0568  -10.2507   -4.6669 C   0  0  0  1  0  0  0  0  0  0  0  0
   -7.8083   -9.7630   -5.1952 H   0  0  0  1  0  0  0  0  0  0  0  0
   -5.8919  -10.7447   -5.4438 C   0  0  0  1  0  0  0  0  0  0  0  0
   -5.8006  -10.4672   -6.7946 C   0  0  0  1  0  0  0  0  0  0  0  0
   -6.5794   -9.9764   -7.2786 H   0  0  0  1  0  0  0  0  0  0  0  0
   -4.6708  -10.8432   -7.5044 C   0  0  0  1  0  0  0  0  0  0  0  0
   -3.6381  -11.5002   -6.8626 C   0  0  0  1  0  0  0  0  0  0  0  0
   -3.7298  -11.7784   -5.5077 C   0  0  0  1  0  0  0  0  0  0  0  0
   -2.9510  -12.2692   -5.0237 H   0  0  0  1  0  0  0  0  0  0  0  0
   -4.8562  -11.4036   -4.7998 C   0  0  0  1  0  0  0  0  0  0  0  0
   -4.9268  -11.6159   -3.7842 H   0  0  0  1  0  0  0  0  0  0  0  0
   -2.5461  -11.8599   -7.5890 O   0  5  0  1  0  0  0  0  0  0  0  0
   -4.6174  -10.6533   -8.8442 O   0  0  0  1  0  0  0  0  0  0  0  0
   -5.6549   -9.8558   -9.4358 C   0  0  0  1  0  0  0  0  0  0  0  0
   -6.5924  -10.0920   -8.9773 H   0  0  0  1  0  0  0  0  0  0  0  0
   -5.7090  -10.0622  -10.4844 H   0  0  0  1  0  0  0  0  0  0  0  0
   -5.4364   -8.8191   -9.2867 H   0  0  0  1  0  0  0  0  0  0  0  0
   -6.2588   -9.3430    0.9233 O   0  0  0  1  0  0  0  0  0  0  0  0
   -7.1077   -9.2381    1.3591 H   0  0  0  1  0  0  0  0  0  0  0  0
  1  2  1  0  0  0  0
  1  3  1  0  0  0  0
  1  4  1  0  0  0  0
  1  5  1  0  0  0  0
  5  6  1  0  0  0  0
  5 10  1  0  0  0  0
  5 55  1  0  0  0  0
  6  7  1  0  0  0  0
  6  8  1  0  0  0  0
  6  9  1  0  0  0  0
 10 11  1  0  0  0  0
 10 12  1  0  0  0  0
 10 13  1  0  0  0  0
 13 14  1  0  0  0  0
 14 15  2  0  0  0  0
 14 16  1  0  0  0  0
 14 17  1  0  0  0  0
 17 18  1  0  0  0  0
 18 19  1  0  0  0  0
 18 20  2  0  0  0  0
 18 21  1  0  0  0  0
 21 22  1  0  0  0  0
 22 23  1  0  0  0  0
 22 24  1  0  0  0  0
 22 25  1  0  0  0  0
 25 26  1  0  0  0  0
 25 27  1  0  0  0  0
 25 33  1  0  0  0  0
 27 28  1  0  0  0  0
 27 29  1  0  0  0  0
 27 50  1  0  0  0  0
 29 30  1  0  0  0  0
 29 31  1  0  0  0  0
 29 48  1  0  0  0  0
 31 32  1  0  0  0  0
 31 33  1  0  0  0  0
 31 34  1  0  0  0  0
 34 35  1  0  0  0  0
 34 44  1  0  0  0  0
 35 36  1  0  0  0  0
 35 37  2  0  0  0  0
 37 38  1  0  0  0  0
 38 39  1  0  0  0  0
 38 44  2  0  0  0  0
 39 40  2  0  0  0  0
 39 45  1  0  0  0  0
 40 41  1  0  0  0  0
 41 42  1  0  0  0  0
 41 43  2  0  0  0  0
 43 44  1  0  0  0  0
 45 46  1  0  0  0  0
 45 47  1  0  0  0  0
 48 49  1  0  0  0  0
 50 51  1  0  0  0  0
 51 52  2  0  0  0  0
 51 53  1  0  0  0  0
 51 54  1  0  0  0  0
 55 56  1  0  0  0  0
 55 57  1  0  0  0  0
 55104  1  0  0  0  0
 57 58  2  0  0  0  0
 57 59  1  0  0  0  0
 59 60  1  0  0  0  0
 59 61  1  0  0  0  0
 61 62  1  0  0  0  0
 61 63  1  0  0  0  0
 61 64  1  0  0  0  0
 64 65  1  0  0  0  0
 64 66  1  0  0  0  0
 64 67  1  0  0  0  0
 67 68  2  0  0  0  0
 67 69  1  0  0  0  0
 69 70  1  0  0  0  0
 69 71  1  0  0  0  0
 71 72  1  0  0  0  0
 71 73  1  0  0  0  0
 71 74  1  0  0  0  0
 74 75  1  0  0  0  0
 74 76  1  0  0  0  0
 74 77  1  0  0  0  0
 77 78  1  0  0  0  0
 78 79  2  0  0  0  0
 78 80  1  0  0  0  0
 80 81  1  0  0  0  0
 80 82  1  0  0  0  0
 80 83  1  0  0  0  0
 83 84  2  0  0  0  0
 83 85  1  0  0  0  0
 85 86  1  0  0  0  0
 85 87  2  0  0  0  0
 87 88  1  0  0  0  0
 87 89  1  0  0  0  0
 89 90  2  0  0  0  0
 89 96  1  0  0  0  0
 90 91  1  0  0  0  0
 90 92  1  0  0  0  0
 92 93  2  0  0  0  0
 92 99  1  0  0  0  0
 93 94  1  0  0  0  0
 93 98  1  0  0  0  0
 94 95  1  0  0  0  0
 94 96  2  0  0  0  0
 96 97  1  0  0  0  0
 99100  1  0  0  0  0
100101  1  0  0  0  0
100102  1  0  0  0  0
100103  1  0  0  0  0
104105  1  0  0  0  0
M  BCL ATM C_TeTeTeTe H_S H_S H_S C_TeTeTeTe C_TeTeTeTe H_S H_S H_S C_TeTeTeTe H_S H_S O_Tr2TrTrPi2 P_TeTeTeTePi O_Tr2Tr2TrPi O_Te2Te2Te2Te O_Tr2TrTrPi2 P_TeTeTeTePi O_Te2Te2TeTe O_Tr2Tr2TrPi O_Tr2TrTrPi2 C_TeTeTeTe H_S H_S C_TeTeTeTe H_S C_TeTeTeTe H_S C_TeTeTeTe H_S C_TeTeTeTe H_S O_Te2Te2TeTe N_TrTrTrPi2 C_TrTrTrPi H_S N_Tr2TrTrPi C_TrTrTrPi C_TrTrTrPi N_Tr2TrTrPi C_TrTrTrPi H_S N_Tr2TrTrPi C_TrTrTrPi N_TrTrTrPi2 H_S H_S O_Te2Te2TeTe H_S O_Tr2TrTrPi2 P_TeTeTeTePi O_Tr2Tr2TrPi O_Te2Te2Te2Te O_Te2Te2Te2Te C_TeTeTeTe H_S C_TrTrTrPi O_Tr2Tr2TrPi N_TrTrTrPi2 H_S C_TeTeTeTe H_S H_S C_TeTeTeTe H_S H_S C_TrTrTrPi O_Tr2Tr2TrPi N_TrTrTrPi2 H_S C_TeTeTeTe H_S H_S C_TeTeTeTe H_S H_S S_Te2Te2TeTe C_TrTrTrPi O_Tr2Tr2TrPi C_TeTeTeTe H_S H_S C_TrTrTrPi O_Tr2Tr2TrPi C_TrTrTrPi H_S C_TrTrTrPi H_S C_TrTrTrPi C_TrTrTrPi H_S C_TrTrTrPi C_TrTrTrPi C_TrTrTrPi H_S C_TrTrTrPi H_S O_Te2Te2Te2Te O_Tr2TrTrPi2 C_TeTeTeTe H_S H_S H_S O_Te2Te2TeTe H_S
M  BCL BND NonConjugatedSingleBond NonConjugatedSingleBond NonConjugatedSingleBond NonConjugatedSingleBond NonConjugatedSingleBond NonConjugatedSingleBond NonConjugatedSingleBond NonConjugatedSingleBond NonConjugatedSingleBond NonConjugatedSingleBond NonConjugatedSingleBond NonConjugatedSingleBond NonConjugatedSingleBond ConjugatedSingleBond ConjugatedDoubleBond ConjugatedSingleBond ConjugatedSingleBond ConjugatedSingleBond ConjugatedSingleBond ConjugatedDoubleBond ConjugatedSingleBond NonConjugatedSingleBond NonConjugatedSingleBond NonConjugatedSingleBond NonConjugatedSingleBond NonConjugatedSingleBond NonConjugatedSingleBondInRing NonConjugatedSingleBondInRing NonConjugatedSingleBond NonConjugatedSingleBondInRing NonConjugatedSingleBond NonConjugatedSingleBond NonConjugatedSingleBondInRing NonConjugatedSingleBond NonConjugatedSingleBond NonConjugatedSingleBondInRing NonConjugatedSingleBond AromaticSingleBond AromaticSingleBond NonConjugatedSingleBond AromaticDoubleBond AromaticSingleBond AromaticSingleBond AromaticDoubleBond AromaticDoubleBond ConjugatedSingleBond AromaticSingleBond NonConjugatedSingleBond AromaticDoubleBond AromaticSingleBond NonConjugatedSingleBond NonConjugatedSingleBond NonConjugatedSingleBond ConjugatedSingleBond ConjugatedDoubleBond ConjugatedSingleBond ConjugatedSingleBond NonConjugatedSingleBond NonConjugatedSingleBond NonConjugatedSingleBond ConjugatedDoubleBond AmideSingleBond NonConjugatedSingleBond NonConjugatedSingleBond NonConjugatedSingleBond NonConjugatedSingleBond NonConjugatedSingleBond NonConjugatedSingleBond NonConjugatedSingleBond NonConjugatedSingleBond ConjugatedDoubleBond AmideSingleBond NonConjugatedSingleBond NonConjugatedSingleBond NonConjugatedSingleBond NonConjugatedSingleBond NonConjugatedSingleBond NonConjugatedSingleBond NonConjugatedSingleBond NonConjugatedSingleBond ConjugatedSingleBond ConjugatedDoubleBond NonConjugatedSingleBond NonConjugatedSingleBond NonConjugatedSingleBond NonConjugatedSingleBond ConjugatedDoubleBond ConjugatedSingleBond NonConjugatedSingleBond ConjugatedDoubleBond NonConjugatedSingleBond ConjugatedSingleBond AromaticDoubleBond AromaticSingleBond NonConjugatedSingleBond AromaticSingleBond AromaticDoubleBond ConjugatedSingleBond AromaticSingleBond ConjugatedSingleBond NonConjugatedSingleBond AromaticDoubleBond NonConjugatedSingleBond NonConjugatedSingleBond NonConjugatedSingleBond NonConjugatedSingleBond NonConjugatedSingleBond NonConjugatedSingleBond
M  BCL CHI  14   R  18   S  25   R  27   R  29   R  31   S  55   R
M  BCL DBI - - - - - - - - - - - E - - -
M  END
> <ConfClashScore>
0.00134217 

> <ConfOneFourInteractionScore>
-0.975952 

> <ConfScore>
0.181468 

> <ConfScorePBest>
0.0100515 

> <ConfTolerance>
2.86564 

$$$$
L03.****
  PyMOL2.5          3D                             0

105108  0  0  0  0  0  0  0  0999 V2000
    1.0879   -6.6552   -5.0658 C   0  0  0  1  0  0  0  0  0  0  0  0
    2.0500   -6.2350   -5.2727 H   0  0  0  1  0  0  0  0  0  0  0  0
    1.0772   -7.6837   -5.3608 H   0  0  0  1  0  0  0  0  0  0  0  0
    0.8849   -6.5821   -4.0178 H   0  0  0  1  0  0  0  0  0  0  0  0
    0.0154   -5.8882   -5.8485 C   0  0  0  1  0  0  0  0  0  0  0  0
    0.4047   -4.4078   -5.9381 C   0  0  0  1  0  0  0  0  0  0  0  0
    0.3277   -3.9590   -4.9698 H   0  0  0  1  0  0  0  0  0  0  0  0
   -0.2536   -3.9066   -6.6165 H   0  0  0  1  0  0  0  0  0  0  0  0
    1.4116   -4.3248   -6.2903 H   0  0  0  1  0  0  0  0  0  0  0  0
   -1.3074   -6.0737   -5.1807 C   0  0  0  1  0  0  0  0  0  0  0  0
   -2.0636   -5.5371   -5.7147 H   0  0  0  1  0  0  0  0  0  0  0  0
   -1.2601   -5.7166   -4.1731 H   0  0  0  1  0  0  0  0  0  0  0  0
   -1.6088   -7.4889   -5.1883 O   0  0  0  1  0  0  0  0  0  0  0  0
   -2.9711   -8.0267   -4.6128 P   0  0  0  1  0  0  0  0  0  0  0  0
   -2.9437   -9.1400   -5.5875 O   0  0  0  1  0  0  0  0  0  0  0  0
   -1.9754   -7.4506   -3.4721 O   0  5  0  1  0  0  0  0  0  0  0  0
   -4.3619   -8.5761   -4.0255 O   0  0  0  1  0  0  0  0  0  0  0  0
   -5.0691   -8.5739   -2.5833 P   0  0  0  1  0  0  0  0  0  0  0  0
   -4.2645   -9.3776   -1.6106 O   0  0  0  0  0  0  0  0  0  0  0  0
   -6.5087   -8.9636   -2.7200 O   0  0  0  1  0  0  0  0  0  0  0  0
   -5.0355   -7.0363   -2.2502 O   0  0  0  1  0  0  0  0  0  0  0  0
   -3.7509   -6.4019   -2.0255 C   0  0  0  1  0  0  0  0  0  0  0  0
   -3.3366   -6.0779   -2.9573 H   0  0  0  1  0  0  0  0  0  0  0  0
   -3.0806   -7.0922   -1.5574 H   0  0  0  1  0  0  0  0  0  0  0  0
   -3.9783   -5.2128   -1.1224 C   0  0  0  1  0  0  0  0  0  0  0  0
   -4.4198   -5.5406   -0.2045 H   0  0  0  1  0  0  0  0  0  0  0  0
   -4.8965   -4.1785   -1.8193 C   0  0  0  1  0  0  0  0  0  0  0  0
   -5.5785   -3.7376   -1.1226 H   0  0  0  1  0  0  0  0  0  0  0  0
   -3.9087   -3.1506   -2.3425 C   0  0  0  1  0  0  0  0  0  0  0  0
   -4.3483   -2.1757   -2.3776 H   0  0  0  1  0  0  0  0  0  0  0  0
   -2.7783   -3.2122   -1.3031 C   0  0  0  1  0  0  0  0  0  0  0  0
   -2.9892   -2.5560   -0.4846 H   0  0  0  1  0  0  0  0  0  0  0  0
   -2.7338   -4.5391   -0.8635 O   0  0  0  1  0  0  0  0  0  0  0  0
   -1.5035   -2.8358   -1.9148 N   0  0  0  1  0  0  0  0  0  0  0  0
   -0.4606   -3.6581   -2.2134 C   0  0  0  1  0  0  0  0  0  0  0  0
   -0.4846   -4.6812   -2.0284 H   0  0  0  1  0  0  0  0  0  0  0  0
    0.5717   -3.0658   -2.7493 N   0  0  0  1  0  0  0  0  0  0  0  0
    0.1819   -1.7375   -2.8227 C   0  0  0  1  0  0  0  0  0  0  0  0
    0.7921   -0.5707   -3.2734 C   0  0  0  1  0  0  0  0  0  0  0  0
    0.1336    0.5913   -3.2040 N   0  0  0  1  0  0  0  0  0  0  0  0
   -1.1027    0.5838   -2.6811 C   0  0  0  1  0  0  0  0  0  0  0  0
   -1.5796    1.5072   -2.6408 H   0  0  0  1  0  0  0  0  0  0  0  0
   -1.7987   -0.4429   -2.2084 N   0  0  0  1  0  0  0  0  0  0  0  0
   -1.1115   -1.5817   -2.3064 C   0  0  0  1  0  0  0  0  0  0  0  0
    2.0879   -0.6130   -3.7964 N   0  0  0  1  0  0  0  0  0  0  0  0
    2.4490   -1.4554   -4.1433 H   0  0  0  1  0  0  0  0  0  0  0  0
    2.6351    0.1997   -3.8161 H   0  0  0  1  0  0  0  0  0  0  0  0
   -3.4341   -3.5067   -3.6418 O   0  0  0  1  0  0  0  0  0  0  0  0
   -2.6015   -3.0602   -3.8123 H   0  0  0  1  0  0  0  0  0  0  0  0
   -5.6330   -4.7823   -2.8947 O   0  0  0  1  0  0  0  0  0  0  0  0
   -7.0164   -4.1896   -3.5463 P   0  0  0  1  0  0  0  0  0  0  0  0
   -8.0117   -4.0403   -2.4612 O   0  0  0  1  0  0  0  0  0  0  0  0
   -6.6786   -2.7374   -4.1798 O   0  5  0  1  0  0  0  0  0  0  0  0
   -7.4527   -5.1324   -4.7894 O   0  5  0  1  0  0  0  0  0  0  0  0
   -0.0515   -6.4830   -7.2601 C   0  0  0  1  0  0  0  0  0  0  0  0
   -0.7800   -5.9272   -7.8126 H   0  0  0  1  0  0  0  0  0  0  0  0
    1.2813   -6.3389   -7.9711 C   0  0  0  1  0  0  0  0  0  0  0  0
    1.8779   -5.2657   -7.9956 O   0  0  0  1  0  0  0  0  0  0  0  0
    1.7510   -7.4494   -8.5598 N   0  0  0  1  0  0  0  0  0  0  0  0
    1.2087   -8.2652   -8.5314 H   0  0  0  1  0  0  0  0  0  0  0  0
    3.0376   -7.4845   -9.2389 C   0  0  0  1  0  0  0  0  0  0  0  0
    3.2673   -6.5000   -9.5893 H   0  0  0  1  0  0  0  0  0  0  0  0
    2.9677   -8.1527  -10.0717 H   0  0  0  1  0  0  0  0  0  0  0  0
    4.1632   -7.9534   -8.3314 C   0  0  0  1  0  0  0  0  0  0  0  0
    4.9720   -8.2973   -8.9418 H   0  0  0  1  0  0  0  0  0  0  0  0
    3.8016   -8.7609   -7.7296 H   0  0  0  1  0  0  0  0  0  0  0  0
    4.6807   -6.8622   -7.4145 C   0  0  0  1  0  0  0  0  0  0  0  0
    4.7989   -5.7020   -7.8062 O   0  0  0  1  0  0  0  0  0  0  0  0
    4.9941   -7.2481   -6.1683 N   0  0  0  1  0  0  0  0  0  0  0  0
    4.9648   -8.2024   -5.9472 H   0  0  0  1  0  0  0  0  0  0  0  0
    5.3759   -6.2988   -5.1334 C   0  0  0  1  0  0  0  0  0  0  0  0
    4.5507   -5.6433   -4.9481 H   0  0  0  1  0  0  0  0  0  0  0  0
    6.2126   -5.7300   -5.4818 H   0  0  0  1  0  0  0  0  0  0  0  0
    5.7575   -6.9776   -3.8348 C   0  0  0  1  0  0  0  0  0  0  0  0
    4.8779   -7.1655   -3.2553 H   0  0  0  1  0  0  0  0  0  0  0  0
    6.4220   -6.3474   -3.2814 H   0  0  0  1  0  0  0  0  0  0  0  0
    6.5802   -8.5425   -4.2158 S   0  0  0  1  0  0  0  0  0  0  0  0
    8.2847   -8.1232   -4.3299 C   0  0  0  1  0  0  0  0  0  0  0  0
    8.7525   -7.0382   -4.0670 O   0  0  0  1  0  0  0  0  0  0  0  0
    9.1443   -9.2711   -4.7998 C   0  0  0  1  0  0  0  0  0  0  0  0
    8.5207  -10.1343   -4.9038 H   0  0  0  1  0  0  0  0  0  0  0  0
    9.8897   -9.4567   -4.0549 H   0  0  0  1  0  0  0  0  0  0  0  0
    9.8438   -9.0339   -6.1172 C   0  0  0  1  0  0  0  0  0  0  0  0
   10.5098   -8.0263   -6.2893 O   0  0  0  1  0  0  0  0  0  0  0  0
    9.7091  -10.0307   -7.1802 C   0  0  0  1  0  0  0  0  0  0  0  0
    9.9860   -9.7895   -8.1532 H   0  0  0  1  0  0  0  0  0  0  0  0
    9.2338  -11.2455   -6.9088 C   0  0  0  1  0  0  0  0  0  0  0  0
    8.9748  -11.4245   -5.9176 H   0  0  0  1  0  0  0  0  0  0  0  0
    9.0298  -12.3718   -7.8490 C   0  0  0  1  0  0  0  0  0  0  0  0
    9.3179  -12.2009   -9.1899 C   0  0  0  1  0  0  0  0  0  0  0  0
    9.6714  -11.2851   -9.5333 H   0  0  0  1  0  0  0  0  0  0  0  0
    9.1355  -13.2503  -10.0771 C   0  0  0  1  0  0  0  0  0  0  0  0
    8.6606  -14.4658   -9.6217 C   0  0  0  1  0  0  0  0  0  0  0  0
    8.3717  -14.6371   -8.2768 C   0  0  0  1  0  0  0  0  0  0  0  0
    8.0182  -15.5529   -7.9334 H   0  0  0  1  0  0  0  0  0  0  0  0
    8.5535  -13.5908   -7.3921 C   0  0  0  1  0  0  0  0  0  0  0  0
    8.3330  -13.7181   -6.3838 H   0  0  0  1  0  0  0  0  0  0  0  0
    8.4880  -15.4731  -10.5190 O   0  5  0  1  0  0  0  0  0  0  0  0
    9.4227  -13.0845  -11.3900 O   0  0  0  1  0  0  0  0  0  0  0  0
    9.9313  -11.8036  -11.7938 C   0  0  0  1  0  0  0  0  0  0  0  0
    9.4730  -11.0359  -11.2060 H   0  0  0  1  0  0  0  0  0  0  0  0
    9.7087  -11.6416  -12.8278 H   0  0  0  1  0  0  0  0  0  0  0  0
   10.9911  -11.7790  -11.6485 H   0  0  0  1  0  0  0  0  0  0  0  0
   -0.4621   -7.8394   -7.1818 O   0  0  0  1  0  0  0  0  0  0  0  0
   -0.6147   -8.1796   -8.0664 H   0  0  0  1  0  0  0  0  0  0  0  0
  1  2  1  0  0  0  0
  1  3  1  0  0  0  0
  1  4  1  0  0  0  0
  1  5  1  0  0  0  0
  5  6  1  0  0  0  0
  5 10  1  0  0  0  0
  5 55  1  0  0  0  0
  6  7  1  0  0  0  0
  6  8  1  0  0  0  0
  6  9  1  0  0  0  0
 10 11  1  0  0  0  0
 10 12  1  0  0  0  0
 10 13  1  0  0  0  0
 13 14  1  0  0  0  0
 14 15  2  0  0  0  0
 14 16  1  0  0  0  0
 14 17  1  0  0  0  0
 17 18  1  0  0  0  0
 18 19  1  0  0  0  0
 18 20  2  0  0  0  0
 18 21  1  0  0  0  0
 21 22  1  0  0  0  0
 22 23  1  0  0  0  0
 22 24  1  0  0  0  0
 22 25  1  0  0  0  0
 25 26  1  0  0  0  0
 25 27  1  0  0  0  0
 25 33  1  0  0  0  0
 27 28  1  0  0  0  0
 27 29  1  0  0  0  0
 27 50  1  0  0  0  0
 29 30  1  0  0  0  0
 29 31  1  0  0  0  0
 29 48  1  0  0  0  0
 31 32  1  0  0  0  0
 31 33  1  0  0  0  0
 31 34  1  0  0  0  0
 34 35  1  0  0  0  0
 34 44  1  0  0  0  0
 35 36  1  0  0  0  0
 35 37  2  0  0  0  0
 37 38  1  0  0  0  0
 38 39  1  0  0  0  0
 38 44  2  0  0  0  0
 39 40  2  0  0  0  0
 39 45  1  0  0  0  0
 40 41  1  0  0  0  0
 41 42  1  0  0  0  0
 41 43  2  0  0  0  0
 43 44  1  0  0  0  0
 45 46  1  0  0  0  0
 45 47  1  0  0  0  0
 48 49  1  0  0  0  0
 50 51  1  0  0  0  0
 51 52  2  0  0  0  0
 51 53  1  0  0  0  0
 51 54  1  0  0  0  0
 55 56  1  0  0  0  0
 55 57  1  0  0  0  0
 55104  1  0  0  0  0
 57 58  2  0  0  0  0
 57 59  1  0  0  0  0
 59 60  1  0  0  0  0
 59 61  1  0  0  0  0
 61 62  1  0  0  0  0
 61 63  1  0  0  0  0
 61 64  1  0  0  0  0
 64 65  1  0  0  0  0
 64 66  1  0  0  0  0
 64 67  1  0  0  0  0
 67 68  2  0  0  0  0
 67 69  1  0  0  0  0
 69 70  1  0  0  0  0
 69 71  1  0  0  0  0
 71 72  1  0  0  0  0
 71 73  1  0  0  0  0
 71 74  1  0  0  0  0
 74 75  1  0  0  0  0
 74 76  1  0  0  0  0
 74 77  1  0  0  0  0
 77 78  1  0  0  0  0
 78 79  2  0  0  0  0
 78 80  1  0  0  0  0
 80 81  1  0  0  0  0
 80 82  1  0  0  0  0
 80 83  1  0  0  0  0
 83 84  2  0  0  0  0
 83 85  1  0  0  0  0
 85 86  1  0  0  0  0
 85 87  2  0  0  0  0
 87 88  1  0  0  0  0
 87 89  1  0  0  0  0
 89 90  2  0  0  0  0
 89 96  1  0  0  0  0
 90 91  1  0  0  0  0
 90 92  1  0  0  0  0
 92 93  2  0  0  0  0
 92 99  1  0  0  0  0
 93 94  1  0  0  0  0
 93 98  1  0  0  0  0
 94 95  1  0  0  0  0
 94 96  2  0  0  0  0
 96 97  1  0  0  0  0
 99100  1  0  0  0  0
100101  1  0  0  0  0
100102  1  0  0  0  0
100103  1  0  0  0  0
104105  1  0  0  0  0
M  BCL ATM C_TeTeTeTe H_S H_S H_S C_TeTeTeTe C_TeTeTeTe H_S H_S H_S C_TeTeTeTe H_S H_S O_Tr2TrTrPi2 P_TeTeTeTePi O_Tr2Tr2TrPi O_Te2Te2Te2Te O_Tr2TrTrPi2 P_TeTeTeTePi O_Te2Te2TeTe O_Tr2Tr2TrPi O_Tr2TrTrPi2 C_TeTeTeTe H_S H_S C_TeTeTeTe H_S C_TeTeTeTe H_S C_TeTeTeTe H_S C_TeTeTeTe H_S O_Te2Te2TeTe N_TrTrTrPi2 C_TrTrTrPi H_S N_Tr2TrTrPi C_TrTrTrPi C_TrTrTrPi N_Tr2TrTrPi C_TrTrTrPi H_S N_Tr2TrTrPi C_TrTrTrPi N_TrTrTrPi2 H_S H_S O_Te2Te2TeTe H_S O_Tr2TrTrPi2 P_TeTeTeTePi O_Tr2Tr2TrPi O_Te2Te2Te2Te O_Te2Te2Te2Te C_TeTeTeTe H_S C_TrTrTrPi O_Tr2Tr2TrPi N_TrTrTrPi2 H_S C_TeTeTeTe H_S H_S C_TeTeTeTe H_S H_S C_TrTrTrPi O_Tr2Tr2TrPi N_TrTrTrPi2 H_S C_TeTeTeTe H_S H_S C_TeTeTeTe H_S H_S S_Te2Te2TeTe C_TrTrTrPi O_Tr2Tr2TrPi C_TeTeTeTe H_S H_S C_TrTrTrPi O_Tr2Tr2TrPi C_TrTrTrPi H_S C_TrTrTrPi H_S C_TrTrTrPi C_TrTrTrPi H_S C_TrTrTrPi C_TrTrTrPi C_TrTrTrPi H_S C_TrTrTrPi H_S O_Te2Te2Te2Te O_Tr2TrTrPi2 C_TeTeTeTe H_S H_S H_S O_Te2Te2TeTe H_S
M  BCL BND NonConjugatedSingleBond NonConjugatedSingleBond NonConjugatedSingleBond NonConjugatedSingleBond NonConjugatedSingleBond NonConjugatedSingleBond NonConjugatedSingleBond NonConjugatedSingleBond NonConjugatedSingleBond NonConjugatedSingleBond NonConjugatedSingleBond NonConjugatedSingleBond NonConjugatedSingleBond ConjugatedSingleBond ConjugatedDoubleBond ConjugatedSingleBond ConjugatedSingleBond ConjugatedSingleBond ConjugatedSingleBond ConjugatedDoubleBond ConjugatedSingleBond NonConjugatedSingleBond NonConjugatedSingleBond NonConjugatedSingleBond NonConjugatedSingleBond NonConjugatedSingleBond NonConjugatedSingleBondInRing NonConjugatedSingleBondInRing NonConjugatedSingleBond NonConjugatedSingleBondInRing NonConjugatedSingleBond NonConjugatedSingleBond NonConjugatedSingleBondInRing NonConjugatedSingleBond NonConjugatedSingleBond NonConjugatedSingleBondInRing NonConjugatedSingleBond AromaticSingleBond AromaticSingleBond NonConjugatedSingleBond AromaticDoubleBond AromaticSingleBond AromaticSingleBond AromaticDoubleBond AromaticDoubleBond ConjugatedSingleBond AromaticSingleBond NonConjugatedSingleBond AromaticDoubleBond AromaticSingleBond NonConjugatedSingleBond NonConjugatedSingleBond NonConjugatedSingleBond ConjugatedSingleBond ConjugatedDoubleBond ConjugatedSingleBond ConjugatedSingleBond NonConjugatedSingleBond NonConjugatedSingleBond NonConjugatedSingleBond ConjugatedDoubleBond AmideSingleBond NonConjugatedSingleBond NonConjugatedSingleBond NonConjugatedSingleBond NonConjugatedSingleBond NonConjugatedSingleBond NonConjugatedSingleBond NonConjugatedSingleBond NonConjugatedSingleBond ConjugatedDoubleBond AmideSingleBond NonConjugatedSingleBond NonConjugatedSingleBond NonConjugatedSingleBond NonConjugatedSingleBond NonConjugatedSingleBond NonConjugatedSingleBond NonConjugatedSingleBond NonConjugatedSingleBond ConjugatedSingleBond ConjugatedDoubleBond NonConjugatedSingleBond NonConjugatedSingleBond NonConjugatedSingleBond NonConjugatedSingleBond ConjugatedDoubleBond ConjugatedSingleBond NonConjugatedSingleBond ConjugatedDoubleBond NonConjugatedSingleBond ConjugatedSingleBond AromaticDoubleBond AromaticSingleBond NonConjugatedSingleBond AromaticSingleBond AromaticDoubleBond ConjugatedSingleBond AromaticSingleBond ConjugatedSingleBond NonConjugatedSingleBond AromaticDoubleBond NonConjugatedSingleBond NonConjugatedSingleBond NonConjugatedSingleBond NonConjugatedSingleBond NonConjugatedSingleBond NonConjugatedSingleBond
M  BCL CHI  14   R  18   S  25   R  27   R  29   R  31   S  55   R
M  BCL DBI - - - - - - - - - - - E - - -
M  END
> <ConfClashScore>
0.000486802 

> <ConfOneFourInteractionScore>
-0.976181 

> <ConfScore>
0.182066 

> <ConfScorePBest>
0.0099485 

> <ConfTolerance>
0.25 

$$$$
L03.****
  PyMOL2.5          3D                             0

105108  0  0  0  0  0  0  0  0999 V2000
   -9.9409   -8.8010   -6.3157 C   0  0  0  1  0  0  0  0  0  0  0  0
  -10.3689   -8.1083   -5.6215 H   0  0  0  1  0  0  0  0  0  0  0  0
   -9.9645   -9.7855   -5.8973 H   0  0  0  1  0  0  0  0  0  0  0  0
  -10.5028   -8.7863   -7.2262 H   0  0  0  1  0  0  0  0  0  0  0  0
   -8.4885   -8.4039   -6.6055 C   0  0  0  1  0  0  0  0  0  0  0  0
   -7.7005   -9.6764   -6.9382 C   0  0  0  1  0  0  0  0  0  0  0  0
   -7.8960  -10.4220   -6.1960 H   0  0  0  1  0  0  0  0  0  0  0  0
   -6.6539   -9.4540   -6.9528 H   0  0  0  1  0  0  0  0  0  0  0  0
   -8.0015  -10.0414   -7.8979 H   0  0  0  1  0  0  0  0  0  0  0  0
   -7.9204   -7.8182   -5.3548 C   0  0  0  1  0  0  0  0  0  0  0  0
   -8.5994   -7.0979   -4.9485 H   0  0  0  1  0  0  0  0  0  0  0  0
   -6.9836   -7.3464   -5.5661 H   0  0  0  1  0  0  0  0  0  0  0  0
   -7.7267   -8.8967   -4.4142 O   0  0  0  1  0  0  0  0  0  0  0  0
   -6.2825   -9.3059   -3.9421 P   0  0  0  1  0  0  0  0  0  0  0  0
   -6.2915   -8.2018   -2.9565 O   0  0  0  1  0  0  0  0  0  0  0  0
   -7.2307  -10.5751   -4.2802 O   0  5  0  1  0  0  0  0  0  0  0  0
   -4.8107   -9.7224   -3.4607 O   0  0  0  1  0  0  0  0  0  0  0  0
   -3.5087   -8.9356   -3.0221 P   0  0  0  1  0  0  0  0  0  0  0  0
   -2.5445   -9.0121   -4.1388 O   0  0  0  0  0  0  0  0  0  0  0  0
   -2.9367   -9.5236   -1.7778 O   0  0  0  1  0  0  0  0  0  0  0  0
   -3.9823   -7.4916   -2.6004 O   0  0  0  1  0  0  0  0  0  0  0  0
   -2.9645   -6.6243   -2.0452 C   0  0  0  1  0  0  0  0  0  0  0  0
   -2.3330   -6.2568   -2.8269 H   0  0  0  1  0  0  0  0  0  0  0  0
   -2.3750   -7.1634   -1.3334 H   0  0  0  1  0  0  0  0  0  0  0  0
   -3.6725   -5.4596   -1.3581 C   0  0  0  1  0  0  0  0  0  0  0  0
   -4.3629   -5.8385   -0.6338 H   0  0  0  1  0  0  0  0  0  0  0  0
   -4.4040   -4.6362   -2.3767 C   0  0  0  1  0  0  0  0  0  0  0  0
   -5.4485   -4.6169   -2.1453 H   0  0  0  1  0  0  0  0  0  0  0  0
   -3.8480   -3.2439   -2.3348 C   0  0  0  1  0  0  0  0  0  0  0  0
   -4.6233   -2.5508   -2.0829 H   0  0  0  1  0  0  0  0  0  0  0  0
   -2.7720   -3.2062   -1.2896 C   0  0  0  1  0  0  0  0  0  0  0  0
   -3.0266   -2.4948   -0.5320 H   0  0  0  1  0  0  0  0  0  0  0  0
   -2.6638   -4.5758   -0.6863 O   0  0  0  1  0  0  0  0  0  0  0  0
   -1.4984   -2.8320   -1.9023 N   0  0  0  1  0  0  0  0  0  0  0  0
   -0.4516   -3.6534   -2.1891 C   0  0  0  1  0  0  0  0  0  0  0  0
   -0.4719   -4.6744   -1.9927 H   0  0  0  1  0  0  0  0  0  0  0  0
    0.5797   -3.0630   -2.7293 N   0  0  0  1  0  0  0  0  0  0  0  0
    0.1848   -1.7372   -2.8187 C   0  0  0  1  0  0  0  0  0  0  0  0
    0.7913   -0.5731   -3.2811 C   0  0  0  1  0  0  0  0  0  0  0  0
    0.1280    0.5869   -3.2264 N   0  0  0  1  0  0  0  0  0  0  0  0
   -1.1094    0.5804   -2.7062 C   0  0  0  1  0  0  0  0  0  0  0  0
   -1.5901    1.5022   -2.6774 H   0  0  0  1  0  0  0  0  0  0  0  0
   -1.8024   -0.4437   -2.2235 N   0  0  0  1  0  0  0  0  0  0  0  0
   -1.1104   -1.5808   -2.3071 C   0  0  0  1  0  0  0  0  0  0  0  0
    2.0817   -0.6159   -3.7980 N   0  0  0  1  0  0  0  0  0  0  0  0
    2.5085    0.2058   -4.1189 H   0  0  0  1  0  0  0  0  0  0  0  0
    2.5641   -1.4679   -3.8413 H   0  0  0  1  0  0  0  0  0  0  0  0
   -3.2988   -2.9028   -3.6084 O   0  0  0  1  0  0  0  0  0  0  0  0
   -3.8006   -3.3389   -4.3010 H   0  0  0  1  0  0  0  0  0  0  0  0
   -4.2130   -5.1977   -3.6851 O   0  0  0  1  0  0  0  0  0  0  0  0
   -5.3704   -5.1789   -4.8469 P   0  0  0  1  0  0  0  0  0  0  0  0
   -5.5683   -3.8226   -5.4053 O   0  0  0  1  0  0  0  0  0  0  0  0
   -5.0323   -6.3872   -5.8716 O   0  5  0  1  0  0  0  0  0  0  0  0
   -6.7660   -5.5230   -4.0997 O   0  5  0  1  0  0  0  0  0  0  0  0
   -8.3307   -7.3784   -7.7384 C   0  0  0  1  0  0  0  0  0  0  0  0
   -8.5439   -7.8623   -8.6686 H   0  0  0  1  0  0  0  0  0  0  0  0
   -9.3238   -6.2698   -7.5297 C   0  0  0  1  0  0  0  0  0  0  0  0
  -10.5138   -6.4119   -7.7448 O   0  0  0  1  0  0  0  0  0  0  0  0
   -8.8908   -5.0839   -7.0926 N   0  0  0  1  0  0  0  0  0  0  0  0
   -7.9291   -4.8962   -7.1090 H   0  0  0  1  0  0  0  0  0  0  0  0
   -9.7976   -4.0611   -6.5931 C   0  0  0  1  0  0  0  0  0  0  0  0
  -10.6695   -4.5392   -6.1981 H   0  0  0  1  0  0  0  0  0  0  0  0
  -10.0769   -3.4238   -7.4060 H   0  0  0  1  0  0  0  0  0  0  0  0
   -9.1715   -3.2103   -5.5002 C   0  0  0  1  0  0  0  0  0  0  0  0
   -8.7125   -3.8430   -4.7695 H   0  0  0  1  0  0  0  0  0  0  0  0
   -9.9256   -2.6128   -5.0322 H   0  0  0  1  0  0  0  0  0  0  0  0
   -8.1331   -2.3191   -6.1219 C   0  0  0  1  0  0  0  0  0  0  0  0
   -8.1522   -2.0214   -7.3023 O   0  0  0  1  0  0  0  0  0  0  0  0
   -7.1518   -1.8334   -5.3563 N   0  0  0  1  0  0  0  0  0  0  0  0
   -7.0750   -2.1464   -4.4308 H   0  0  0  1  0  0  0  0  0  0  0  0
   -6.1929   -0.8558   -5.8489 C   0  0  0  1  0  0  0  0  0  0  0  0
   -6.5854   -0.4086   -6.7382 H   0  0  0  1  0  0  0  0  0  0  0  0
   -5.2765   -1.3590   -6.0767 H   0  0  0  1  0  0  0  0  0  0  0  0
   -5.9074    0.2419   -4.8370 C   0  0  0  1  0  0  0  0  0  0  0  0
   -6.6760    0.9824   -4.9127 H   0  0  0  1  0  0  0  0  0  0  0  0
   -4.9615    0.6834   -5.0723 H   0  0  0  1  0  0  0  0  0  0  0  0
   -5.8533   -0.3579   -3.1316 S   0  0  0  1  0  0  0  0  0  0  0  0
   -6.9725    0.7500   -2.3068 C   0  0  0  1  0  0  0  0  0  0  0  0
   -7.6265    1.5765   -2.8780 O   0  0  0  1  0  0  0  0  0  0  0  0
   -7.0012    0.5283   -0.8146 C   0  0  0  1  0  0  0  0  0  0  0  0
   -6.3062    1.2052   -0.3632 H   0  0  0  1  0  0  0  0  0  0  0  0
   -6.6960   -0.4788   -0.6209 H   0  0  0  1  0  0  0  0  0  0  0  0
   -8.3507    0.7427   -0.1739 C   0  0  0  1  0  0  0  0  0  0  0  0
   -8.8353    1.8759   -0.2167 O   0  0  0  1  0  0  0  0  0  0  0  0
   -9.0498   -0.3637    0.4724 C   0  0  0  1  0  0  0  0  0  0  0  0
   -9.9239   -0.1372    0.9885 H   0  0  0  1  0  0  0  0  0  0  0  0
   -8.6642   -1.6390    0.4578 C   0  0  0  1  0  0  0  0  0  0  0  0
   -7.7881   -1.8460   -0.0631 H   0  0  0  1  0  0  0  0  0  0  0  0
   -9.3331   -2.7974    1.0942 C   0  0  0  1  0  0  0  0  0  0  0  0
  -10.4108   -2.5856    1.9331 C   0  0  0  1  0  0  0  0  0  0  0  0
  -10.7445   -1.6179    2.1170 H   0  0  0  1  0  0  0  0  0  0  0  0
  -11.0470   -3.6632    2.5293 C   0  0  0  1  0  0  0  0  0  0  0  0
  -10.6004   -4.9490    2.2892 C   0  0  0  1  0  0  0  0  0  0  0  0
   -9.5194   -5.1612    1.4478 C   0  0  0  1  0  0  0  0  0  0  0  0
   -9.1857   -6.1289    1.2639 H   0  0  0  1  0  0  0  0  0  0  0  0
   -8.8849   -4.0868    0.8532 C   0  0  0  1  0  0  0  0  0  0  0  0
   -8.0714   -4.2458    0.2252 H   0  0  0  1  0  0  0  0  0  0  0  0
  -11.2434   -5.9836    2.8939 O   0  5  0  1  0  0  0  0  0  0  0  0
  -12.1116   -3.5803    3.3622 O   0  0  0  1  0  0  0  0  0  0  0  0
  -12.6685   -2.2758    3.5874 C   0  0  0  1  0  0  0  0  0  0  0  0
  -11.9282   -1.6431    4.0308 H   0  0  0  1  0  0  0  0  0  0  0  0
  -13.5090   -2.3557    4.2447 H   0  0  0  1  0  0  0  0  0  0  0  0
  -12.9831   -1.8567    2.6545 H   0  0  0  1  0  0  0  0  0  0  0  0
   -7.0051   -6.8576   -7.7499 O   0  0  0  1  0  0  0  0  0  0  0  0
   -6.4748   -7.3450   -8.3846 H   0  0  0  1  0  0  0  0  0  0  0  0
  1  2  1  0  0  0  0
  1  3  1  0  0  0  0
  1  4  1  0  0  0  0
  1  5  1  0  0  0  0
  5  6  1  0  0  0  0
  5 10  1  0  0  0  0
  5 55  1  0  0  0  0
  6  7  1  0  0  0  0
  6  8  1  0  0  0  0
  6  9  1  0  0  0  0
 10 11  1  0  0  0  0
 10 12  1  0  0  0  0
 10 13  1  0  0  0  0
 13 14  1  0  0  0  0
 14 15  2  0  0  0  0
 14 16  1  0  0  0  0
 14 17  1  0  0  0  0
 17 18  1  0  0  0  0
 18 19  1  0  0  0  0
 18 20  2  0  0  0  0
 18 21  1  0  0  0  0
 21 22  1  0  0  0  0
 22 23  1  0  0  0  0
 22 24  1  0  0  0  0
 22 25  1  0  0  0  0
 25 26  1  0  0  0  0
 25 27  1  0  0  0  0
 25 33  1  0  0  0  0
 27 28  1  0  0  0  0
 27 29  1  0  0  0  0
 27 50  1  0  0  0  0
 29 30  1  0  0  0  0
 29 31  1  0  0  0  0
 29 48  1  0  0  0  0
 31 32  1  0  0  0  0
 31 33  1  0  0  0  0
 31 34  1  0  0  0  0
 34 35  1  0  0  0  0
 34 44  1  0  0  0  0
 35 36  1  0  0  0  0
 35 37  2  0  0  0  0
 37 38  1  0  0  0  0
 38 39  1  0  0  0  0
 38 44  2  0  0  0  0
 39 40  2  0  0  0  0
 39 45  1  0  0  0  0
 40 41  1  0  0  0  0
 41 42  1  0  0  0  0
 41 43  2  0  0  0  0
 43 44  1  0  0  0  0
 45 46  1  0  0  0  0
 45 47  1  0  0  0  0
 48 49  1  0  0  0  0
 50 51  1  0  0  0  0
 51 52  2  0  0  0  0
 51 53  1  0  0  0  0
 51 54  1  0  0  0  0
 55 56  1  0  0  0  0
 55 57  1  0  0  0  0
 55104  1  0  0  0  0
 57 58  2  0  0  0  0
 57 59  1  0  0  0  0
 59 60  1  0  0  0  0
 59 61  1  0  0  0  0
 61 62  1  0  0  0  0
 61 63  1  0  0  0  0
 61 64  1  0  0  0  0
 64 65  1  0  0  0  0
 64 66  1  0  0  0  0
 64 67  1  0  0  0  0
 67 68  2  0  0  0  0
 67 69  1  0  0  0  0
 69 70  1  0  0  0  0
 69 71  1  0  0  0  0
 71 72  1  0  0  0  0
 71 73  1  0  0  0  0
 71 74  1  0  0  0  0
 74 75  1  0  0  0  0
 74 76  1  0  0  0  0
 74 77  1  0  0  0  0
 77 78  1  0  0  0  0
 78 79  2  0  0  0  0
 78 80  1  0  0  0  0
 80 81  1  0  0  0  0
 80 82  1  0  0  0  0
 80 83  1  0  0  0  0
 83 84  2  0  0  0  0
 83 85  1  0  0  0  0
 85 86  1  0  0  0  0
 85 87  2  0  0  0  0
 87 88  1  0  0  0  0
 87 89  1  0  0  0  0
 89 90  2  0  0  0  0
 89 96  1  0  0  0  0
 90 91  1  0  0  0  0
 90 92  1  0  0  0  0
 92 93  2  0  0  0  0
 92 99  1  0  0  0  0
 93 94  1  0  0  0  0
 93 98  1  0  0  0  0
 94 95  1  0  0  0  0
 94 96  2  0  0  0  0
 96 97  1  0  0  0  0
 99100  1  0  0  0  0
100101  1  0  0  0  0
100102  1  0  0  0  0
100103  1  0  0  0  0
104105  1  0  0  0  0
M  BCL ATM C_TeTeTeTe H_S H_S H_S C_TeTeTeTe C_TeTeTeTe H_S H_S H_S C_TeTeTeTe H_S H_S O_Tr2TrTrPi2 P_TeTeTeTePi O_Tr2Tr2TrPi O_Te2Te2Te2Te O_Tr2TrTrPi2 P_TeTeTeTePi O_Te2Te2TeTe O_Tr2Tr2TrPi O_Tr2TrTrPi2 C_TeTeTeTe H_S H_S C_TeTeTeTe H_S C_TeTeTeTe H_S C_TeTeTeTe H_S C_TeTeTeTe H_S O_Te2Te2TeTe N_TrTrTrPi2 C_TrTrTrPi H_S N_Tr2TrTrPi C_TrTrTrPi C_TrTrTrPi N_Tr2TrTrPi C_TrTrTrPi H_S N_Tr2TrTrPi C_TrTrTrPi N_TrTrTrPi2 H_S H_S O_Te2Te2TeTe H_S O_Tr2TrTrPi2 P_TeTeTeTePi O_Tr2Tr2TrPi O_Te2Te2Te2Te O_Te2Te2Te2Te C_TeTeTeTe H_S C_TrTrTrPi O_Tr2Tr2TrPi N_TrTrTrPi2 H_S C_TeTeTeTe H_S H_S C_TeTeTeTe H_S H_S C_TrTrTrPi O_Tr2Tr2TrPi N_TrTrTrPi2 H_S C_TeTeTeTe H_S H_S C_TeTeTeTe H_S H_S S_Te2Te2TeTe C_TrTrTrPi O_Tr2Tr2TrPi C_TeTeTeTe H_S H_S C_TrTrTrPi O_Tr2Tr2TrPi C_TrTrTrPi H_S C_TrTrTrPi H_S C_TrTrTrPi C_TrTrTrPi H_S C_TrTrTrPi C_TrTrTrPi C_TrTrTrPi H_S C_TrTrTrPi H_S O_Te2Te2Te2Te O_Tr2TrTrPi2 C_TeTeTeTe H_S H_S H_S O_Te2Te2TeTe H_S
M  BCL BND NonConjugatedSingleBond NonConjugatedSingleBond NonConjugatedSingleBond NonConjugatedSingleBond NonConjugatedSingleBond NonConjugatedSingleBond NonConjugatedSingleBond NonConjugatedSingleBond NonConjugatedSingleBond NonConjugatedSingleBond NonConjugatedSingleBond NonConjugatedSingleBond NonConjugatedSingleBond ConjugatedSingleBond ConjugatedDoubleBond ConjugatedSingleBond ConjugatedSingleBond ConjugatedSingleBond ConjugatedSingleBond ConjugatedDoubleBond ConjugatedSingleBond NonConjugatedSingleBond NonConjugatedSingleBond NonConjugatedSingleBond NonConjugatedSingleBond NonConjugatedSingleBond NonConjugatedSingleBondInRing NonConjugatedSingleBondInRing NonConjugatedSingleBond NonConjugatedSingleBondInRing NonConjugatedSingleBond NonConjugatedSingleBond NonConjugatedSingleBondInRing NonConjugatedSingleBond NonConjugatedSingleBond NonConjugatedSingleBondInRing NonConjugatedSingleBond AromaticSingleBond AromaticSingleBond NonConjugatedSingleBond AromaticDoubleBond AromaticSingleBond AromaticSingleBond AromaticDoubleBond AromaticDoubleBond ConjugatedSingleBond AromaticSingleBond NonConjugatedSingleBond AromaticDoubleBond AromaticSingleBond NonConjugatedSingleBond NonConjugatedSingleBond NonConjugatedSingleBond ConjugatedSingleBond ConjugatedDoubleBond ConjugatedSingleBond ConjugatedSingleBond NonConjugatedSingleBond NonConjugatedSingleBond NonConjugatedSingleBond ConjugatedDoubleBond AmideSingleBond NonConjugatedSingleBond NonConjugatedSingleBond NonConjugatedSingleBond NonConjugatedSingleBond NonConjugatedSingleBond NonConjugatedSingleBond NonConjugatedSingleBond NonConjugatedSingleBond ConjugatedDoubleBond AmideSingleBond NonConjugatedSingleBond NonConjugatedSingleBond NonConjugatedSingleBond NonConjugatedSingleBond NonConjugatedSingleBond NonConjugatedSingleBond NonConjugatedSingleBond NonConjugatedSingleBond ConjugatedSingleBond ConjugatedDoubleBond NonConjugatedSingleBond NonConjugatedSingleBond NonConjugatedSingleBond NonConjugatedSingleBond ConjugatedDoubleBond ConjugatedSingleBond NonConjugatedSingleBond ConjugatedDoubleBond NonConjugatedSingleBond ConjugatedSingleBond AromaticDoubleBond AromaticSingleBond NonConjugatedSingleBond AromaticSingleBond AromaticDoubleBond ConjugatedSingleBond AromaticSingleBond ConjugatedSingleBond NonConjugatedSingleBond AromaticDoubleBond NonConjugatedSingleBond NonConjugatedSingleBond NonConjugatedSingleBond NonConjugatedSingleBond NonConjugatedSingleBond NonConjugatedSingleBond
M  BCL CHI  14   R  18   S  25   R  27   R  29   R  31   S  55   R
M  BCL DBI - - - - - - - - - - - E - - -
M  END
> <ConfClashScore>
0 

> <ConfOneFourInteractionScore>
-0.976829 

> <ConfScore>
0.186263 

> <ConfScorePBest>
0.0098455 

> <ConfTolerance>
3.06862 

$$$$
L03.****
  PyMOL2.5          3D                             0

105108  0  0  0  0  0  0  0  0999 V2000
   -1.9299    3.5683   -1.2927 C   0  0  0  1  0  0  0  0  0  0  0  0
   -1.5666    3.9612   -0.3662 H   0  0  0  1  0  0  0  0  0  0  0  0
   -1.4828    4.1013   -2.1057 H   0  0  0  1  0  0  0  0  0  0  0  0
   -1.6771    2.5310   -1.3636 H   0  0  0  1  0  0  0  0  0  0  0  0
   -3.4698    3.7297   -1.3547 C   0  0  0  1  0  0  0  0  0  0  0  0
   -3.9276    5.1813   -1.1690 C   0  0  0  1  0  0  0  0  0  0  0  0
   -3.7274    5.4933   -0.1652 H   0  0  0  1  0  0  0  0  0  0  0  0
   -4.9778    5.2512   -1.3612 H   0  0  0  1  0  0  0  0  0  0  0  0
   -3.3969    5.8124   -1.8509 H   0  0  0  1  0  0  0  0  0  0  0  0
   -4.1953    2.8598   -0.3815 C   0  0  0  1  0  0  0  0  0  0  0  0
   -4.0124    1.8299   -0.6066 H   0  0  0  1  0  0  0  0  0  0  0  0
   -5.2462    3.0551   -0.4311 H   0  0  0  1  0  0  0  0  0  0  0  0
   -3.7018    3.1687    0.9318 O   0  0  0  1  0  0  0  0  0  0  0  0
   -3.6662    2.1709    2.1480 P   0  0  0  1  0  0  0  0  0  0  0  0
   -5.0706    1.7903    1.8773 O   0  0  0  1  0  0  0  0  0  0  0  0
   -2.2835    2.2039    1.3046 O   0  5  0  1  0  0  0  0  0  0  0  0
   -3.6304    1.1516    3.3902 O   0  0  0  1  0  0  0  0  0  0  0  0
   -2.5426    0.0565    3.8735 P   0  0  0  1  0  0  0  0  0  0  0  0
   -2.8617   -0.2829    5.3046 O   0  0  0  0  0  0  0  0  0  0  0  0
   -1.2248    0.6353    3.6936 O   0  0  0  1  0  0  0  0  0  0  0  0
   -2.7860   -1.1279    2.8719 O   0  0  0  1  0  0  0  0  0  0  0  0
   -2.5845   -1.0107    1.4436 C   0  0  0  1  0  0  0  0  0  0  0  0
   -1.5376   -0.9814    1.2244 H   0  0  0  1  0  0  0  0  0  0  0  0
   -3.0502   -0.1178    1.0819 H   0  0  0  1  0  0  0  0  0  0  0  0
   -3.2137   -2.2204    0.7904 C   0  0  0  1  0  0  0  0  0  0  0  0
   -4.1857   -2.3858    1.2061 H   0  0  0  1  0  0  0  0  0  0  0  0
   -2.3378   -3.4445    0.9867 C   0  0  0  1  0  0  0  0  0  0  0  0
   -2.5806   -3.9523    1.8967 H   0  0  0  1  0  0  0  0  0  0  0  0
   -2.6839   -4.2846   -0.2156 C   0  0  0  1  0  0  0  0  0  0  0  0
   -3.6016   -4.8152   -0.0700 H   0  0  0  1  0  0  0  0  0  0  0  0
   -2.8217   -3.2205   -1.3036 C   0  0  0  1  0  0  0  0  0  0  0  0
   -3.5083   -3.5403   -2.0593 H   0  0  0  1  0  0  0  0  0  0  0  0
   -3.2997   -2.0374   -0.6072 O   0  0  0  1  0  0  0  0  0  0  0  0
   -1.4909   -2.8343   -1.9133 N   0  0  0  1  0  0  0  0  0  0  0  0
   -0.4439   -3.6602   -2.1882 C   0  0  0  1  0  0  0  0  0  0  0  0
   -0.4670   -4.6838   -2.0052 H   0  0  0  1  0  0  0  0  0  0  0  0
    0.6025   -3.0468   -2.7074 N   0  0  0  1  0  0  0  0  0  0  0  0
    0.1789   -1.7203   -2.7924 C   0  0  0  1  0  0  0  0  0  0  0  0
    0.8158   -0.5680   -3.2846 C   0  0  0  1  0  0  0  0  0  0  0  0
    0.1302    0.5992   -3.2214 N   0  0  0  1  0  0  0  0  0  0  0  0
   -1.1099    0.5813   -2.7008 C   0  0  0  1  0  0  0  0  0  0  0  0
   -1.5912    1.5028   -2.6730 H   0  0  0  1  0  0  0  0  0  0  0  0
   -1.8142   -0.4409   -2.2151 N   0  0  0  1  0  0  0  0  0  0  0  0
   -1.0886   -1.5742   -2.3048 C   0  0  0  1  0  0  0  0  0  0  0  0
    2.0756   -0.6225   -3.8058 N   0  0  0  1  0  0  0  0  0  0  0  0
    2.4921    0.1879   -4.1668 H   0  0  0  1  0  0  0  0  0  0  0  0
    2.5640   -1.4720   -3.8192 H   0  0  0  1  0  0  0  0  0  0  0  0
   -1.6406   -5.2114   -0.5219 O   0  0  0  1  0  0  0  0  0  0  0  0
   -1.7492   -5.5307   -1.4207 H   0  0  0  1  0  0  0  0  0  0  0  0
   -0.9311   -3.0884    0.9910 O   0  0  0  1  0  0  0  0  0  0  0  0
    0.0610   -3.3684    2.2665 P   0  0  0  1  0  0  0  0  0  0  0  0
    0.4388   -4.7988    2.3082 O   0  0  0  1  0  0  0  0  0  0  0  0
    1.3007   -2.3299    2.1706 O   0  5  0  1  0  0  0  0  0  0  0  0
   -0.8105   -3.0302    3.5895 O   0  5  0  1  0  0  0  0  0  0  0  0
   -3.8862    3.2961   -2.7652 C   0  0  0  1  0  0  0  0  0  0  0  0
   -3.7023    2.2474   -2.8714 H   0  0  0  1  0  0  0  0  0  0  0  0
   -5.3571    3.5688   -3.0296 C   0  0  0  1  0  0  0  0  0  0  0  0
   -5.7219    4.5070   -3.7855 O   0  0  0  1  0  0  0  0  0  0  0  0
   -6.1844    2.7871   -2.4369 N   0  0  0  1  0  0  0  0  0  0  0  0
   -5.8136    2.0990   -1.8458 H   0  0  0  1  0  0  0  0  0  0  0  0
   -7.6318    2.8455   -2.5763 C   0  0  0  1  0  0  0  0  0  0  0  0
   -7.9184    3.8609   -2.7543 H   0  0  0  1  0  0  0  0  0  0  0  0
   -8.0780    2.5028   -1.6662 H   0  0  0  1  0  0  0  0  0  0  0  0
   -8.1433    1.9856   -3.7247 C   0  0  0  1  0  0  0  0  0  0  0  0
   -7.8630    0.9695   -3.5403 H   0  0  0  1  0  0  0  0  0  0  0  0
   -7.6873    2.3229   -4.6320 H   0  0  0  1  0  0  0  0  0  0  0  0
   -9.6563    2.0489   -3.8897 C   0  0  0  1  0  0  0  0  0  0  0  0
  -10.1938    2.9504   -4.5068 O   0  0  0  1  0  0  0  0  0  0  0  0
  -10.3061    1.0347   -3.2987 N   0  0  0  1  0  0  0  0  0  0  0  0
   -9.8001    0.3205   -2.8578 H   0  0  0  1  0  0  0  0  0  0  0  0
  -11.7607    0.9928   -3.3110 C   0  0  0  1  0  0  0  0  0  0  0  0
  -12.1095    1.4578   -4.2093 H   0  0  0  1  0  0  0  0  0  0  0  0
  -12.1265    1.5340   -2.4635 H   0  0  0  1  0  0  0  0  0  0  0  0
  -12.2996   -0.4152   -3.2547 C   0  0  0  1  0  0  0  0  0  0  0  0
  -13.3686   -0.3704   -3.2574 H   0  0  0  1  0  0  0  0  0  0  0  0
  -11.9635   -0.8718   -2.3473 H   0  0  0  1  0  0  0  0  0  0  0  0
  -11.7639   -1.4391   -4.6460 S   0  0  0  1  0  0  0  0  0  0  0  0
  -11.4713   -2.9538   -3.8116 C   0  0  0  1  0  0  0  0  0  0  0  0
  -11.6261   -3.1220   -2.6321 O   0  0  0  1  0  0  0  0  0  0  0  0
  -10.9935   -4.1000   -4.6687 C   0  0  0  1  0  0  0  0  0  0  0  0
   -9.9890   -3.9019   -4.9796 H   0  0  0  1  0  0  0  0  0  0  0  0
  -11.6257   -4.1736   -5.5288 H   0  0  0  1  0  0  0  0  0  0  0  0
  -11.0229   -5.4234   -3.9260 C   0  0  0  1  0  0  0  0  0  0  0  0
  -11.8547   -6.2687   -4.2123 O   0  0  0  1  0  0  0  0  0  0  0  0
   -9.9821   -5.6913   -2.9383 C   0  0  0  1  0  0  0  0  0  0  0  0
   -9.2208   -4.9858   -2.8731 H   0  0  0  1  0  0  0  0  0  0  0  0
   -9.8901   -6.7310   -2.1101 C   0  0  0  1  0  0  0  0  0  0  0  0
  -10.6514   -7.4366   -2.1753 H   0  0  0  1  0  0  0  0  0  0  0  0
   -8.8339   -7.0029   -1.1077 C   0  0  0  1  0  0  0  0  0  0  0  0
   -8.9304   -8.1220   -0.3025 C   0  0  0  1  0  0  0  0  0  0  0  0
   -9.7424   -8.7644   -0.3999 H   0  0  0  1  0  0  0  0  0  0  0  0
   -7.9446   -8.3882    0.6350 C   0  0  0  1  0  0  0  0  0  0  0  0
   -6.8680   -7.5317    0.7682 C   0  0  0  1  0  0  0  0  0  0  0  0
   -6.7714   -6.4093   -0.0395 C   0  0  0  1  0  0  0  0  0  0  0  0
   -5.9594   -5.7669    0.0580 H   0  0  0  1  0  0  0  0  0  0  0  0
   -7.7543   -6.1437   -0.9742 C   0  0  0  1  0  0  0  0  0  0  0  0
   -7.6839   -5.2994   -1.5774 H   0  0  0  1  0  0  0  0  0  0  0  0
   -5.8283   -7.6488    1.6371 O   0  5  0  1  0  0  0  0  0  0  0  0
   -8.1435   -9.5138    1.3613 O   0  0  0  1  0  0  0  0  0  0  0  0
   -7.3064   -9.7088    2.5118 C   0  0  0  1  0  0  0  0  0  0  0  0
   -6.2896   -9.4980    2.2536 H   0  0  0  1  0  0  0  0  0  0  0  0
   -7.3870  -10.7229    2.8434 H   0  0  0  1  0  0  0  0  0  0  0  0
   -7.6188   -9.0507    3.2956 H   0  0  0  1  0  0  0  0  0  0  0  0
   -3.1218    4.0290   -3.7062 O   0  0  0  1  0  0  0  0  0  0  0  0
   -3.0227    4.9344   -3.4030 H   0  0  0  1  0  0  0  0  0  0  0  0
  1  2  1  0  0  0  0
  1  3  1  0  0  0  0
  1  4  1  0  0  0  0
  1  5  1  0  0  0  0
  5  6  1  0  0  0  0
  5 10  1  0  0  0  0
  5 55  1  0  0  0  0
  6  7  1  0  0  0  0
  6  8  1  0  0  0  0
  6  9  1  0  0  0  0
 10 11  1  0  0  0  0
 10 12  1  0  0  0  0
 10 13  1  0  0  0  0
 13 14  1  0  0  0  0
 14 15  2  0  0  0  0
 14 16  1  0  0  0  0
 14 17  1  0  0  0  0
 17 18  1  0  0  0  0
 18 19  1  0  0  0  0
 18 20  2  0  0  0  0
 18 21  1  0  0  0  0
 21 22  1  0  0  0  0
 22 23  1  0  0  0  0
 22 24  1  0  0  0  0
 22 25  1  0  0  0  0
 25 26  1  0  0  0  0
 25 27  1  0  0  0  0
 25 33  1  0  0  0  0
 27 28  1  0  0  0  0
 27 29  1  0  0  0  0
 27 50  1  0  0  0  0
 29 30  1  0  0  0  0
 29 31  1  0  0  0  0
 29 48  1  0  0  0  0
 31 32  1  0  0  0  0
 31 33  1  0  0  0  0
 31 34  1  0  0  0  0
 34 35  1  0  0  0  0
 34 44  1  0  0  0  0
 35 36  1  0  0  0  0
 35 37  2  0  0  0  0
 37 38  1  0  0  0  0
 38 39  1  0  0  0  0
 38 44  2  0  0  0  0
 39 40  2  0  0  0  0
 39 45  1  0  0  0  0
 40 41  1  0  0  0  0
 41 42  1  0  0  0  0
 41 43  2  0  0  0  0
 43 44  1  0  0  0  0
 45 46  1  0  0  0  0
 45 47  1  0  0  0  0
 48 49  1  0  0  0  0
 50 51  1  0  0  0  0
 51 52  2  0  0  0  0
 51 53  1  0  0  0  0
 51 54  1  0  0  0  0
 55 56  1  0  0  0  0
 55 57  1  0  0  0  0
 55104  1  0  0  0  0
 57 58  2  0  0  0  0
 57 59  1  0  0  0  0
 59 60  1  0  0  0  0
 59 61  1  0  0  0  0
 61 62  1  0  0  0  0
 61 63  1  0  0  0  0
 61 64  1  0  0  0  0
 64 65  1  0  0  0  0
 64 66  1  0  0  0  0
 64 67  1  0  0  0  0
 67 68  2  0  0  0  0
 67 69  1  0  0  0  0
 69 70  1  0  0  0  0
 69 71  1  0  0  0  0
 71 72  1  0  0  0  0
 71 73  1  0  0  0  0
 71 74  1  0  0  0  0
 74 75  1  0  0  0  0
 74 76  1  0  0  0  0
 74 77  1  0  0  0  0
 77 78  1  0  0  0  0
 78 79  2  0  0  0  0
 78 80  1  0  0  0  0
 80 81  1  0  0  0  0
 80 82  1  0  0  0  0
 80 83  1  0  0  0  0
 83 84  2  0  0  0  0
 83 85  1  0  0  0  0
 85 86  1  0  0  0  0
 85 87  2  0  0  0  0
 87 88  1  0  0  0  0
 87 89  1  0  0  0  0
 89 90  2  0  0  0  0
 89 96  1  0  0  0  0
 90 91  1  0  0  0  0
 90 92  1  0  0  0  0
 92 93  2  0  0  0  0
 92 99  1  0  0  0  0
 93 94  1  0  0  0  0
 93 98  1  0  0  0  0
 94 95  1  0  0  0  0
 94 96  2  0  0  0  0
 96 97  1  0  0  0  0
 99100  1  0  0  0  0
100101  1  0  0  0  0
100102  1  0  0  0  0
100103  1  0  0  0  0
104105  1  0  0  0  0
M  BCL ATM C_TeTeTeTe H_S H_S H_S C_TeTeTeTe C_TeTeTeTe H_S H_S H_S C_TeTeTeTe H_S H_S O_Tr2TrTrPi2 P_TeTeTeTePi O_Tr2Tr2TrPi O_Te2Te2Te2Te O_Tr2TrTrPi2 P_TeTeTeTePi O_Te2Te2TeTe O_Tr2Tr2TrPi O_Tr2TrTrPi2 C_TeTeTeTe H_S H_S C_TeTeTeTe H_S C_TeTeTeTe H_S C_TeTeTeTe H_S C_TeTeTeTe H_S O_Te2Te2TeTe N_TrTrTrPi2 C_TrTrTrPi H_S N_Tr2TrTrPi C_TrTrTrPi C_TrTrTrPi N_Tr2TrTrPi C_TrTrTrPi H_S N_Tr2TrTrPi C_TrTrTrPi N_TrTrTrPi2 H_S H_S O_Te2Te2TeTe H_S O_Tr2TrTrPi2 P_TeTeTeTePi O_Tr2Tr2TrPi O_Te2Te2Te2Te O_Te2Te2Te2Te C_TeTeTeTe H_S C_TrTrTrPi O_Tr2Tr2TrPi N_TrTrTrPi2 H_S C_TeTeTeTe H_S H_S C_TeTeTeTe H_S H_S C_TrTrTrPi O_Tr2Tr2TrPi N_TrTrTrPi2 H_S C_TeTeTeTe H_S H_S C_TeTeTeTe H_S H_S S_Te2Te2TeTe C_TrTrTrPi O_Tr2Tr2TrPi C_TeTeTeTe H_S H_S C_TrTrTrPi O_Tr2Tr2TrPi C_TrTrTrPi H_S C_TrTrTrPi H_S C_TrTrTrPi C_TrTrTrPi H_S C_TrTrTrPi C_TrTrTrPi C_TrTrTrPi H_S C_TrTrTrPi H_S O_Te2Te2Te2Te O_Tr2TrTrPi2 C_TeTeTeTe H_S H_S H_S O_Te2Te2TeTe H_S
M  BCL BND NonConjugatedSingleBond NonConjugatedSingleBond NonConjugatedSingleBond NonConjugatedSingleBond NonConjugatedSingleBond NonConjugatedSingleBond NonConjugatedSingleBond NonConjugatedSingleBond NonConjugatedSingleBond NonConjugatedSingleBond NonConjugatedSingleBond NonConjugatedSingleBond NonConjugatedSingleBond ConjugatedSingleBond ConjugatedDoubleBond ConjugatedSingleBond ConjugatedSingleBond ConjugatedSingleBond ConjugatedSingleBond ConjugatedDoubleBond ConjugatedSingleBond NonConjugatedSingleBond NonConjugatedSingleBond NonConjugatedSingleBond NonConjugatedSingleBond NonConjugatedSingleBond NonConjugatedSingleBondInRing NonConjugatedSingleBondInRing NonConjugatedSingleBond NonConjugatedSingleBondInRing NonConjugatedSingleBond NonConjugatedSingleBond NonConjugatedSingleBondInRing NonConjugatedSingleBond NonConjugatedSingleBond NonConjugatedSingleBondInRing NonConjugatedSingleBond AromaticSingleBond AromaticSingleBond NonConjugatedSingleBond AromaticDoubleBond AromaticSingleBond AromaticSingleBond AromaticDoubleBond AromaticDoubleBond ConjugatedSingleBond AromaticSingleBond NonConjugatedSingleBond AromaticDoubleBond AromaticSingleBond NonConjugatedSingleBond NonConjugatedSingleBond NonConjugatedSingleBond ConjugatedSingleBond ConjugatedDoubleBond ConjugatedSingleBond ConjugatedSingleBond NonConjugatedSingleBond NonConjugatedSingleBond NonConjugatedSingleBond ConjugatedDoubleBond AmideSingleBond NonConjugatedSingleBond NonConjugatedSingleBond NonConjugatedSingleBond NonConjugatedSingleBond NonConjugatedSingleBond NonConjugatedSingleBond NonConjugatedSingleBond NonConjugatedSingleBond ConjugatedDoubleBond AmideSingleBond NonConjugatedSingleBond NonConjugatedSingleBond NonConjugatedSingleBond NonConjugatedSingleBond NonConjugatedSingleBond NonConjugatedSingleBond NonConjugatedSingleBond NonConjugatedSingleBond ConjugatedSingleBond ConjugatedDoubleBond NonConjugatedSingleBond NonConjugatedSingleBond NonConjugatedSingleBond NonConjugatedSingleBond ConjugatedDoubleBond ConjugatedSingleBond NonConjugatedSingleBond ConjugatedDoubleBond NonConjugatedSingleBond ConjugatedSingleBond AromaticDoubleBond AromaticSingleBond NonConjugatedSingleBond AromaticSingleBond AromaticDoubleBond ConjugatedSingleBond AromaticSingleBond ConjugatedSingleBond NonConjugatedSingleBond AromaticDoubleBond NonConjugatedSingleBond NonConjugatedSingleBond NonConjugatedSingleBond NonConjugatedSingleBond NonConjugatedSingleBond NonConjugatedSingleBond
M  BCL CHI  14   R  18   S  25   R  27   R  29   R  31   S  55   R
M  BCL DBI - - - - - - - - - - - E - - -
M  END
> <ConfClashScore>
0.00119146 

> <ConfOneFourInteractionScore>
-0.970268 

> <ConfScore>
0.187404 

> <ConfScorePBest>
0.0097425 

> <ConfTolerance>
2.77285 

$$$$
L03.****
  PyMOL2.5          3D                             0

105108  0  0  0  0  0  0  0  0999 V2000
    6.2030   -7.2655    4.7097 C   0  0  0  1  0  0  0  0  0  0  0  0
    6.8820   -7.7592    4.0463 H   0  0  0  1  0  0  0  0  0  0  0  0
    6.6878   -7.0848    5.6464 H   0  0  0  1  0  0  0  0  0  0  0  0
    5.8984   -6.3342    4.2798 H   0  0  0  1  0  0  0  0  0  0  0  0
    4.9717   -8.1513    4.9344 C   0  0  0  1  0  0  0  0  0  0  0  0
    5.4124   -9.5907    5.2262 C   0  0  0  1  0  0  0  0  0  0  0  0
    5.4116  -10.1557    4.3175 H   0  0  0  1  0  0  0  0  0  0  0  0
    4.7345  -10.0365    5.9237 H   0  0  0  1  0  0  0  0  0  0  0  0
    6.3988   -9.5843    5.6410 H   0  0  0  1  0  0  0  0  0  0  0  0
    4.1256   -8.1298    3.7256 C   0  0  0  1  0  0  0  0  0  0  0  0
    3.1871   -8.5951    3.9442 H   0  0  0  1  0  0  0  0  0  0  0  0
    4.6169   -8.6676    2.9420 H   0  0  0  1  0  0  0  0  0  0  0  0
    3.8934   -6.7677    3.2958 O   0  0  0  1  0  0  0  0  0  0  0  0
    2.6081   -6.3222    2.5048 P   0  0  0  1  0  0  0  0  0  0  0  0
    1.7592   -7.0542    3.4712 O   0  0  0  1  0  0  0  0  0  0  0  0
    3.7420   -5.1682    2.5889 O   0  5  0  1  0  0  0  0  0  0  0  0
    1.2981   -5.8684    1.6991 O   0  0  0  1  0  0  0  0  0  0  0  0
    0.3931   -6.6782    0.6158 P   0  0  0  1  0  0  0  0  0  0  0  0
    0.2526   -8.1063    0.9834 O   0  0  0  0  0  0  0  0  0  0  0  0
    0.9858   -6.3243   -0.6607 O   0  0  0  1  0  0  0  0  0  0  0  0
   -1.0474   -6.0640    0.7705 O   0  0  0  1  0  0  0  0  0  0  0  0
   -2.1171   -6.4387   -0.1356 C   0  0  0  1  0  0  0  0  0  0  0  0
   -2.5761   -7.3396    0.2146 H   0  0  0  1  0  0  0  0  0  0  0  0
   -1.7110   -6.6009   -1.1121 H   0  0  0  1  0  0  0  0  0  0  0  0
   -3.1578   -5.3442   -0.2047 C   0  0  0  1  0  0  0  0  0  0  0  0
   -3.8876   -5.4962    0.5628 H   0  0  0  1  0  0  0  0  0  0  0  0
   -3.8227   -5.3582   -1.5495 C   0  0  0  1  0  0  0  0  0  0  0  0
   -4.8743   -5.5173   -1.4326 H   0  0  0  1  0  0  0  0  0  0  0  0
   -3.5788   -4.0301   -2.2022 C   0  0  0  1  0  0  0  0  0  0  0  0
   -4.5123   -3.5464   -2.4010 H   0  0  0  1  0  0  0  0  0  0  0  0
   -2.7625   -3.1943   -1.2606 C   0  0  0  1  0  0  0  0  0  0  0  0
   -3.3010   -2.3060   -1.0039 H   0  0  0  1  0  0  0  0  0  0  0  0
   -2.5025   -4.0068   -0.0262 O   0  0  0  1  0  0  0  0  0  0  0  0
   -1.4947   -2.8311   -1.8917 N   0  0  0  1  0  0  0  0  0  0  0  0
   -0.4525   -3.6727   -2.1972 C   0  0  0  1  0  0  0  0  0  0  0  0
   -0.4775   -4.6978   -2.0236 H   0  0  0  1  0  0  0  0  0  0  0  0
    0.5807   -3.0556   -2.7312 N   0  0  0  1  0  0  0  0  0  0  0  0
    0.1810   -1.7284   -2.8009 C   0  0  0  1  0  0  0  0  0  0  0  0
    0.8122   -0.5655   -3.2811 C   0  0  0  1  0  0  0  0  0  0  0  0
    0.1300    0.5966   -3.2200 N   0  0  0  1  0  0  0  0  0  0  0  0
   -1.1141    0.5763   -2.7144 C   0  0  0  1  0  0  0  0  0  0  0  0
   -1.5995    1.4959   -2.6982 H   0  0  0  1  0  0  0  0  0  0  0  0
   -1.8189   -0.4436   -2.2310 N   0  0  0  1  0  0  0  0  0  0  0  0
   -1.1038   -1.5810   -2.2989 C   0  0  0  1  0  0  0  0  0  0  0  0
    2.0812   -0.6125   -3.7950 N   0  0  0  1  0  0  0  0  0  0  0  0
    2.5692   -1.4621   -3.8185 H   0  0  0  1  0  0  0  0  0  0  0  0
    2.5010    0.2034   -4.1392 H   0  0  0  1  0  0  0  0  0  0  0  0
   -2.8674   -4.2154   -3.4268 O   0  0  0  1  0  0  0  0  0  0  0  0
   -2.9242   -3.4155   -3.9546 H   0  0  0  1  0  0  0  0  0  0  0  0
   -3.2614   -6.4160   -2.3638 O   0  0  0  1  0  0  0  0  0  0  0  0
   -4.2809   -7.4893   -3.0696 P   0  0  0  1  0  0  0  0  0  0  0  0
   -5.5763   -6.9043   -3.4821 O   0  0  0  1  0  0  0  0  0  0  0  0
   -3.5268   -8.1720   -4.3303 O   0  5  0  1  0  0  0  0  0  0  0  0
   -4.5252   -8.7506   -2.0827 O   0  5  0  1  0  0  0  0  0  0  0  0
    4.1663   -7.6138    6.1232 C   0  0  0  1  0  0  0  0  0  0  0  0
    3.8713   -6.6098    5.9001 H   0  0  0  1  0  0  0  0  0  0  0  0
    2.9104   -8.4464    6.3320 C   0  0  0  1  0  0  0  0  0  0  0  0
    2.9464   -9.5251    6.8933 O   0  0  0  1  0  0  0  0  0  0  0  0
    1.7935   -7.8739    5.8420 N   0  0  0  1  0  0  0  0  0  0  0  0
    1.8098   -6.9369    5.5554 H   0  0  0  1  0  0  0  0  0  0  0  0
    0.5631   -8.6440    5.7375 C   0  0  0  1  0  0  0  0  0  0  0  0
    0.0022   -8.5181    6.6399 H   0  0  0  1  0  0  0  0  0  0  0  0
    0.8145   -9.6767    5.6143 H   0  0  0  1  0  0  0  0  0  0  0  0
   -0.3021   -8.2074    4.5590 C   0  0  0  1  0  0  0  0  0  0  0  0
   -1.2018   -8.7867    4.5507 H   0  0  0  1  0  0  0  0  0  0  0  0
    0.2363   -8.3708    3.6489 H   0  0  0  1  0  0  0  0  0  0  0  0
   -0.6583   -6.7376    4.6689 C   0  0  0  1  0  0  0  0  0  0  0  0
    0.2140   -5.8713    4.7188 O   0  0  0  1  0  0  0  0  0  0  0  0
   -1.9704   -6.4567    4.7069 N   0  0  0  1  0  0  0  0  0  0  0  0
   -2.2333   -5.5584    4.9974 H   0  0  0  1  0  0  0  0  0  0  0  0
   -3.0320   -7.3857    4.3493 C   0  0  0  1  0  0  0  0  0  0  0  0
   -2.6073   -8.1925    3.7893 H   0  0  0  1  0  0  0  0  0  0  0  0
   -3.7494   -6.8705    3.7453 H   0  0  0  1  0  0  0  0  0  0  0  0
   -3.7408   -7.9575    5.5663 C   0  0  0  1  0  0  0  0  0  0  0  0
   -4.2565   -7.1578    6.0555 H   0  0  0  1  0  0  0  0  0  0  0  0
   -2.9983   -8.3589    6.2239 H   0  0  0  1  0  0  0  0  0  0  0  0
   -4.9405   -9.2638    5.2121 S   0  0  0  1  0  0  0  0  0  0  0  0
   -3.9217  -10.5179    4.4549 C   0  0  0  1  0  0  0  0  0  0  0  0
   -2.7421  -10.2906    4.4385 O   0  0  0  1  0  0  0  0  0  0  0  0
   -4.5424  -11.7691    3.8840 C   0  0  0  1  0  0  0  0  0  0  0  0
   -4.7569  -11.6054    2.8486 H   0  0  0  1  0  0  0  0  0  0  0  0
   -5.4519  -11.9729    4.4093 H   0  0  0  1  0  0  0  0  0  0  0  0
   -3.6314  -12.9659    4.0078 C   0  0  0  1  0  0  0  0  0  0  0  0
   -3.2621  -13.5658    3.0117 O   0  0  0  1  0  0  0  0  0  0  0  0
   -3.2013  -13.3919    5.3360 C   0  0  0  1  0  0  0  0  0  0  0  0
   -3.4262  -12.7453    6.1189 H   0  0  0  1  0  0  0  0  0  0  0  0
   -2.5552  -14.5095    5.6661 C   0  0  0  1  0  0  0  0  0  0  0  0
   -2.3215  -15.1686    4.8963 H   0  0  0  1  0  0  0  0  0  0  0  0
   -2.1412  -14.8935    7.0355 C   0  0  0  1  0  0  0  0  0  0  0  0
   -2.3224  -14.0034    8.0771 C   0  0  0  1  0  0  0  0  0  0  0  0
   -2.7431  -13.0697    7.8960 H   0  0  0  1  0  0  0  0  0  0  0  0
   -1.9432  -14.3552    9.3632 C   0  0  0  1  0  0  0  0  0  0  0  0
   -1.3791  -15.5939    9.6031 C   0  0  0  1  0  0  0  0  0  0  0  0
   -1.1975  -16.4867    8.5582 C   0  0  0  1  0  0  0  0  0  0  0  0
   -0.7767  -17.4204    8.7393 H   0  0  0  1  0  0  0  0  0  0  0  0
   -1.5755  -16.1360    7.2759 C   0  0  0  1  0  0  0  0  0  0  0  0
   -1.4355  -16.8042    6.4913 H   0  0  0  1  0  0  0  0  0  0  0  0
   -1.0422  -15.8262   10.9000 O   0  5  0  1  0  0  0  0  0  0  0  0
   -2.0570  -13.6052   10.4850 O   0  0  0  1  0  0  0  0  0  0  0  0
   -2.5857  -12.2782   10.3363 C   0  0  0  1  0  0  0  0  0  0  0  0
   -3.1448  -12.2164    9.4261 H   0  0  0  1  0  0  0  0  0  0  0  0
   -1.7800  -11.5746   10.3082 H   0  0  0  1  0  0  0  0  0  0  0  0
   -3.2261  -12.0550   11.1639 H   0  0  0  1  0  0  0  0  0  0  0  0
    4.9678   -7.6284    7.2930 O   0  0  0  1  0  0  0  0  0  0  0  0
    5.6771   -8.2667    7.1875 H   0  0  0  1  0  0  0  0  0  0  0  0
  1  2  1  0  0  0  0
  1  3  1  0  0  0  0
  1  4  1  0  0  0  0
  1  5  1  0  0  0  0
  5  6  1  0  0  0  0
  5 10  1  0  0  0  0
  5 55  1  0  0  0  0
  6  7  1  0  0  0  0
  6  8  1  0  0  0  0
  6  9  1  0  0  0  0
 10 11  1  0  0  0  0
 10 12  1  0  0  0  0
 10 13  1  0  0  0  0
 13 14  1  0  0  0  0
 14 15  2  0  0  0  0
 14 16  1  0  0  0  0
 14 17  1  0  0  0  0
 17 18  1  0  0  0  0
 18 19  1  0  0  0  0
 18 20  2  0  0  0  0
 18 21  1  0  0  0  0
 21 22  1  0  0  0  0
 22 23  1  0  0  0  0
 22 24  1  0  0  0  0
 22 25  1  0  0  0  0
 25 26  1  0  0  0  0
 25 27  1  0  0  0  0
 25 33  1  0  0  0  0
 27 28  1  0  0  0  0
 27 29  1  0  0  0  0
 27 50  1  0  0  0  0
 29 30  1  0  0  0  0
 29 31  1  0  0  0  0
 29 48  1  0  0  0  0
 31 32  1  0  0  0  0
 31 33  1  0  0  0  0
 31 34  1  0  0  0  0
 34 35  1  0  0  0  0
 34 44  1  0  0  0  0
 35 36  1  0  0  0  0
 35 37  2  0  0  0  0
 37 38  1  0  0  0  0
 38 39  1  0  0  0  0
 38 44  2  0  0  0  0
 39 40  2  0  0  0  0
 39 45  1  0  0  0  0
 40 41  1  0  0  0  0
 41 42  1  0  0  0  0
 41 43  2  0  0  0  0
 43 44  1  0  0  0  0
 45 46  1  0  0  0  0
 45 47  1  0  0  0  0
 48 49  1  0  0  0  0
 50 51  1  0  0  0  0
 51 52  2  0  0  0  0
 51 53  1  0  0  0  0
 51 54  1  0  0  0  0
 55 56  1  0  0  0  0
 55 57  1  0  0  0  0
 55104  1  0  0  0  0
 57 58  2  0  0  0  0
 57 59  1  0  0  0  0
 59 60  1  0  0  0  0
 59 61  1  0  0  0  0
 61 62  1  0  0  0  0
 61 63  1  0  0  0  0
 61 64  1  0  0  0  0
 64 65  1  0  0  0  0
 64 66  1  0  0  0  0
 64 67  1  0  0  0  0
 67 68  2  0  0  0  0
 67 69  1  0  0  0  0
 69 70  1  0  0  0  0
 69 71  1  0  0  0  0
 71 72  1  0  0  0  0
 71 73  1  0  0  0  0
 71 74  1  0  0  0  0
 74 75  1  0  0  0  0
 74 76  1  0  0  0  0
 74 77  1  0  0  0  0
 77 78  1  0  0  0  0
 78 79  2  0  0  0  0
 78 80  1  0  0  0  0
 80 81  1  0  0  0  0
 80 82  1  0  0  0  0
 80 83  1  0  0  0  0
 83 84  2  0  0  0  0
 83 85  1  0  0  0  0
 85 86  1  0  0  0  0
 85 87  2  0  0  0  0
 87 88  1  0  0  0  0
 87 89  1  0  0  0  0
 89 90  2  0  0  0  0
 89 96  1  0  0  0  0
 90 91  1  0  0  0  0
 90 92  1  0  0  0  0
 92 93  2  0  0  0  0
 92 99  1  0  0  0  0
 93 94  1  0  0  0  0
 93 98  1  0  0  0  0
 94 95  1  0  0  0  0
 94 96  2  0  0  0  0
 96 97  1  0  0  0  0
 99100  1  0  0  0  0
100101  1  0  0  0  0
100102  1  0  0  0  0
100103  1  0  0  0  0
104105  1  0  0  0  0
M  BCL ATM C_TeTeTeTe H_S H_S H_S C_TeTeTeTe C_TeTeTeTe H_S H_S H_S C_TeTeTeTe H_S H_S O_Tr2TrTrPi2 P_TeTeTeTePi O_Tr2Tr2TrPi O_Te2Te2Te2Te O_Tr2TrTrPi2 P_TeTeTeTePi O_Te2Te2TeTe O_Tr2Tr2TrPi O_Tr2TrTrPi2 C_TeTeTeTe H_S H_S C_TeTeTeTe H_S C_TeTeTeTe H_S C_TeTeTeTe H_S C_TeTeTeTe H_S O_Te2Te2TeTe N_TrTrTrPi2 C_TrTrTrPi H_S N_Tr2TrTrPi C_TrTrTrPi C_TrTrTrPi N_Tr2TrTrPi C_TrTrTrPi H_S N_Tr2TrTrPi C_TrTrTrPi N_TrTrTrPi2 H_S H_S O_Te2Te2TeTe H_S O_Tr2TrTrPi2 P_TeTeTeTePi O_Tr2Tr2TrPi O_Te2Te2Te2Te O_Te2Te2Te2Te C_TeTeTeTe H_S C_TrTrTrPi O_Tr2Tr2TrPi N_TrTrTrPi2 H_S C_TeTeTeTe H_S H_S C_TeTeTeTe H_S H_S C_TrTrTrPi O_Tr2Tr2TrPi N_TrTrTrPi2 H_S C_TeTeTeTe H_S H_S C_TeTeTeTe H_S H_S S_Te2Te2TeTe C_TrTrTrPi O_Tr2Tr2TrPi C_TeTeTeTe H_S H_S C_TrTrTrPi O_Tr2Tr2TrPi C_TrTrTrPi H_S C_TrTrTrPi H_S C_TrTrTrPi C_TrTrTrPi H_S C_TrTrTrPi C_TrTrTrPi C_TrTrTrPi H_S C_TrTrTrPi H_S O_Te2Te2Te2Te O_Tr2TrTrPi2 C_TeTeTeTe H_S H_S H_S O_Te2Te2TeTe H_S
M  BCL BND NonConjugatedSingleBond NonConjugatedSingleBond NonConjugatedSingleBond NonConjugatedSingleBond NonConjugatedSingleBond NonConjugatedSingleBond NonConjugatedSingleBond NonConjugatedSingleBond NonConjugatedSingleBond NonConjugatedSingleBond NonConjugatedSingleBond NonConjugatedSingleBond NonConjugatedSingleBond ConjugatedSingleBond ConjugatedDoubleBond ConjugatedSingleBond ConjugatedSingleBond ConjugatedSingleBond ConjugatedSingleBond ConjugatedDoubleBond ConjugatedSingleBond NonConjugatedSingleBond NonConjugatedSingleBond NonConjugatedSingleBond NonConjugatedSingleBond NonConjugatedSingleBond NonConjugatedSingleBondInRing NonConjugatedSingleBondInRing NonConjugatedSingleBond NonConjugatedSingleBondInRing NonConjugatedSingleBond NonConjugatedSingleBond NonConjugatedSingleBondInRing NonConjugatedSingleBond NonConjugatedSingleBond NonConjugatedSingleBondInRing NonConjugatedSingleBond AromaticSingleBond AromaticSingleBond NonConjugatedSingleBond AromaticDoubleBond AromaticSingleBond AromaticSingleBond AromaticDoubleBond AromaticDoubleBond ConjugatedSingleBond AromaticSingleBond NonConjugatedSingleBond AromaticDoubleBond AromaticSingleBond NonConjugatedSingleBond NonConjugatedSingleBond NonConjugatedSingleBond ConjugatedSingleBond ConjugatedDoubleBond ConjugatedSingleBond ConjugatedSingleBond NonConjugatedSingleBond NonConjugatedSingleBond NonConjugatedSingleBond ConjugatedDoubleBond AmideSingleBond NonConjugatedSingleBond NonConjugatedSingleBond NonConjugatedSingleBond NonConjugatedSingleBond NonConjugatedSingleBond NonConjugatedSingleBond NonConjugatedSingleBond NonConjugatedSingleBond ConjugatedDoubleBond AmideSingleBond NonConjugatedSingleBond NonConjugatedSingleBond NonConjugatedSingleBond NonConjugatedSingleBond NonConjugatedSingleBond NonConjugatedSingleBond NonConjugatedSingleBond NonConjugatedSingleBond ConjugatedSingleBond ConjugatedDoubleBond NonConjugatedSingleBond NonConjugatedSingleBond NonConjugatedSingleBond NonConjugatedSingleBond ConjugatedDoubleBond ConjugatedSingleBond NonConjugatedSingleBond ConjugatedDoubleBond NonConjugatedSingleBond ConjugatedSingleBond AromaticDoubleBond AromaticSingleBond NonConjugatedSingleBond AromaticSingleBond AromaticDoubleBond ConjugatedSingleBond AromaticSingleBond ConjugatedSingleBond NonConjugatedSingleBond AromaticDoubleBond NonConjugatedSingleBond NonConjugatedSingleBond NonConjugatedSingleBond NonConjugatedSingleBond NonConjugatedSingleBond NonConjugatedSingleBond
M  BCL CHI  14   R  18   S  25   R  27   R  29   R  31   S  55   R
M  BCL DBI - - - - - - - - - - - E - - -
M  END
> <ConfClashScore>
0 

> <ConfOneFourInteractionScore>
-0.978696 

> <ConfScore>
0.18787 

> <ConfScorePBest>
0.0096395 

> <ConfTolerance>
3.23923 

$$$$
L03.****
  PyMOL2.5          3D                             0

105108  0  0  0  0  0  0  0  0999 V2000
    1.0895   -6.4921    5.4440 C   0  0  0  1  0  0  0  0  0  0  0  0
    0.2567   -6.2249    6.0605 H   0  0  0  1  0  0  0  0  0  0  0  0
    0.9133   -6.1583    4.4427 H   0  0  0  1  0  0  0  0  0  0  0  0
    1.9768   -6.0300    5.8236 H   0  0  0  1  0  0  0  0  0  0  0  0
    1.2637   -8.0155    5.4513 C   0  0  0  1  0  0  0  0  0  0  0  0
    2.4699   -8.3888    4.5813 C   0  0  0  1  0  0  0  0  0  0  0  0
    2.1765   -9.1227    3.8600 H   0  0  0  1  0  0  0  0  0  0  0  0
    3.2460   -8.7879    5.2003 H   0  0  0  1  0  0  0  0  0  0  0  0
    2.8288   -7.5164    4.0763 H   0  0  0  1  0  0  0  0  0  0  0  0
    0.0429   -8.6373    4.8572 C   0  0  0  1  0  0  0  0  0  0  0  0
   -0.5208   -9.1337    5.6192 H   0  0  0  1  0  0  0  0  0  0  0  0
    0.3234   -9.3430    4.1034 H   0  0  0  1  0  0  0  0  0  0  0  0
   -0.7485   -7.5776    4.2702 O   0  0  0  1  0  0  0  0  0  0  0  0
   -0.8490   -7.4164    2.7081 P   0  0  0  1  0  0  0  0  0  0  0  0
    0.5730   -7.0090    2.6584 O   0  0  0  1  0  0  0  0  0  0  0  0
   -1.6792   -8.6859    3.2769 O   0  5  0  1  0  0  0  0  0  0  0  0
   -0.9517   -7.2505    1.1022 O   0  0  0  1  0  0  0  0  0  0  0  0
   -2.1089   -7.9176    0.1726 P   0  0  0  1  0  0  0  0  0  0  0  0
   -3.3452   -7.8541    1.0061 O   0  0  0  0  0  0  0  0  0  0  0  0
   -1.6997   -9.2338   -0.3725 O   0  0  0  1  0  0  0  0  0  0  0  0
   -2.2086   -6.9723   -1.0815 O   0  0  0  1  0  0  0  0  0  0  0  0
   -3.4945   -6.5303   -1.5770 C   0  0  0  1  0  0  0  0  0  0  0  0
   -4.2385   -7.2715   -1.3719 H   0  0  0  1  0  0  0  0  0  0  0  0
   -3.4400   -6.3616   -2.6322 H   0  0  0  1  0  0  0  0  0  0  0  0
   -3.8420   -5.2417   -0.8668 C   0  0  0  1  0  0  0  0  0  0  0  0
   -4.3038   -5.4648    0.0723 H   0  0  0  1  0  0  0  0  0  0  0  0
   -4.7920   -4.3870   -1.7416 C   0  0  0  1  0  0  0  0  0  0  0  0
   -5.5336   -3.9005   -1.1430 H   0  0  0  1  0  0  0  0  0  0  0  0
   -3.8502   -3.3771   -2.3732 C   0  0  0  1  0  0  0  0  0  0  0  0
   -4.3505   -2.4514   -2.5674 H   0  0  0  1  0  0  0  0  0  0  0  0
   -2.7684   -3.2072   -1.2948 C   0  0  0  1  0  0  0  0  0  0  0  0
   -3.0602   -2.4568   -0.5901 H   0  0  0  1  0  0  0  0  0  0  0  0
   -2.6578   -4.4503   -0.6637 O   0  0  0  1  0  0  0  0  0  0  0  0
   -1.4946   -2.8328   -1.9071 N   0  0  0  1  0  0  0  0  0  0  0  0
   -0.4488   -3.6545   -2.1964 C   0  0  0  1  0  0  0  0  0  0  0  0
   -0.4700   -4.6761   -2.0024 H   0  0  0  1  0  0  0  0  0  0  0  0
    0.5828   -3.0639   -2.7357 N   0  0  0  1  0  0  0  0  0  0  0  0
    0.1892   -1.7375   -2.8216 C   0  0  0  1  0  0  0  0  0  0  0  0
    0.7968   -0.5729   -3.2815 C   0  0  0  1  0  0  0  0  0  0  0  0
    0.1347    0.5877   -3.2236 N   0  0  0  1  0  0  0  0  0  0  0  0
   -1.1026    0.5812   -2.7029 C   0  0  0  1  0  0  0  0  0  0  0  0
   -1.5823    1.5034   -2.6717 H   0  0  0  1  0  0  0  0  0  0  0  0
   -1.7964   -0.4434   -2.2224 N   0  0  0  1  0  0  0  0  0  0  0  0
   -1.1056   -1.5810   -2.3090 C   0  0  0  1  0  0  0  0  0  0  0  0
    2.0626   -0.6150   -3.7893 N   0  0  0  1  0  0  0  0  0  0  0  0
    2.5218   -1.4748   -3.8899 H   0  0  0  1  0  0  0  0  0  0  0  0
    2.5124    0.2147   -4.0533 H   0  0  0  1  0  0  0  0  0  0  0  0
   -3.2926   -3.8816   -3.5876 O   0  0  0  1  0  0  0  0  0  0  0  0
   -3.8323   -3.5992   -4.3296 H   0  0  0  1  0  0  0  0  0  0  0  0
   -5.4423   -5.1986   -2.7530 O   0  0  0  1  0  0  0  0  0  0  0  0
   -6.8782   -4.6388   -3.3136 P   0  0  0  1  0  0  0  0  0  0  0  0
   -7.8306   -4.5024   -2.1890 O   0  0  0  1  0  0  0  0  0  0  0  0
   -6.4427   -3.2248   -3.9735 O   0  5  0  1  0  0  0  0  0  0  0  0
   -7.3838   -5.5814   -4.5303 O   0  5  0  1  0  0  0  0  0  0  0  0
    1.4506   -8.5246    6.8845 C   0  0  0  1  0  0  0  0  0  0  0  0
    2.3929   -8.1679    7.2448 H   0  0  0  1  0  0  0  0  0  0  0  0
    0.3580   -7.9781    7.7826 C   0  0  0  1  0  0  0  0  0  0  0  0
   -0.6236   -8.6459    8.0637 O   0  0  0  1  0  0  0  0  0  0  0  0
    0.5468   -6.7290    8.2368 N   0  0  0  1  0  0  0  0  0  0  0  0
    1.3784   -6.2634    8.0087 H   0  0  0  1  0  0  0  0  0  0  0  0
   -0.4405   -6.0423    9.0563 C   0  0  0  1  0  0  0  0  0  0  0  0
   -1.3042   -6.6647    9.1643 H   0  0  0  1  0  0  0  0  0  0  0  0
   -0.7183   -5.1253    8.5802 H   0  0  0  1  0  0  0  0  0  0  0  0
    0.1359   -5.7392   10.4332 C   0  0  0  1  0  0  0  0  0  0  0  0
    0.3799   -6.6647   10.9115 H   0  0  0  1  0  0  0  0  0  0  0  0
   -0.6063   -5.2251   11.0074 H   0  0  0  1  0  0  0  0  0  0  0  0
    1.3753   -4.8865   10.3789 C   0  0  0  1  0  0  0  0  0  0  0  0
    2.4519   -5.3604   10.0185 O   0  0  0  1  0  0  0  0  0  0  0  0
    1.2698   -3.5965   10.7349 N   0  0  0  1  0  0  0  0  0  0  0  0
    0.4103   -3.2440   11.0471 H   0  0  0  1  0  0  0  0  0  0  0  0
    2.4292   -2.7202   10.6583 C   0  0  0  1  0  0  0  0  0  0  0  0
    3.1804   -3.2116   10.0759 H   0  0  0  1  0  0  0  0  0  0  0  0
    2.7939   -2.5625   11.6518 H   0  0  0  1  0  0  0  0  0  0  0  0
    2.1595   -1.3690   10.0357 C   0  0  0  1  0  0  0  0  0  0  0  0
    2.0221   -1.5103    8.9840 H   0  0  0  1  0  0  0  0  0  0  0  0
    3.0158   -0.7498   10.2040 H   0  0  0  1  0  0  0  0  0  0  0  0
    0.7107   -0.5056   10.6776 S   0  0  0  1  0  0  0  0  0  0  0  0
    0.3169    0.6171    9.3440 C   0  0  0  1  0  0  0  0  0  0  0  0
    1.0045    0.7841    8.3745 O   0  0  0  1  0  0  0  0  0  0  0  0
   -0.8470    1.5320    9.6411 C   0  0  0  1  0  0  0  0  0  0  0  0
   -0.8179    2.3316    8.9306 H   0  0  0  1  0  0  0  0  0  0  0  0
   -0.7052    1.9245   10.6263 H   0  0  0  1  0  0  0  0  0  0  0  0
   -2.2269    0.9269    9.5875 C   0  0  0  1  0  0  0  0  0  0  0  0
   -2.8065    0.6208   10.6165 O   0  0  0  1  0  0  0  0  0  0  0  0
   -2.8451    0.7178    8.3078 C   0  0  0  1  0  0  0  0  0  0  0  0
   -2.2657    1.0621    7.5158 H   0  0  0  1  0  0  0  0  0  0  0  0
   -3.9982    0.1793    7.9132 C   0  0  0  1  0  0  0  0  0  0  0  0
   -4.6300   -0.1869    8.6536 H   0  0  0  1  0  0  0  0  0  0  0  0
   -4.4570    0.0577    6.5113 C   0  0  0  1  0  0  0  0  0  0  0  0
   -5.5562   -0.7072    6.1697 C   0  0  0  1  0  0  0  0  0  0  0  0
   -6.0823   -1.2197    6.9061 H   0  0  0  1  0  0  0  0  0  0  0  0
   -5.9574   -0.7914    4.8456 C   0  0  0  1  0  0  0  0  0  0  0  0
   -5.2552   -0.1147    3.8662 C   0  0  0  1  0  0  0  0  0  0  0  0
   -4.1527    0.6526    4.2089 C   0  0  0  1  0  0  0  0  0  0  0  0
   -3.6267    1.1650    3.4726 H   0  0  0  1  0  0  0  0  0  0  0  0
   -3.7525    0.7365    5.5292 C   0  0  0  1  0  0  0  0  0  0  0  0
   -2.9230    1.3089    5.7858 H   0  0  0  1  0  0  0  0  0  0  0  0
   -5.5516   -0.1270    2.5389 O   0  5  0  1  0  0  0  0  0  0  0  0
   -7.0376   -1.5367    4.5115 O   0  0  0  1  0  0  0  0  0  0  0  0
   -7.6566   -2.3010    5.5581 C   0  0  0  1  0  0  0  0  0  0  0  0
   -8.4477   -2.8932    5.1478 H   0  0  0  1  0  0  0  0  0  0  0  0
   -8.0546   -1.6370    6.2967 H   0  0  0  1  0  0  0  0  0  0  0  0
   -6.9286   -2.9422    6.0094 H   0  0  0  1  0  0  0  0  0  0  0  0
    1.4634   -9.9433    6.8372 O   0  0  0  1  0  0  0  0  0  0  0  0
    0.7525  -10.2885    7.3823 H   0  0  0  1  0  0  0  0  0  0  0  0
  1  2  1  0  0  0  0
  1  3  1  0  0  0  0
  1  4  1  0  0  0  0
  1  5  1  0  0  0  0
  5  6  1  0  0  0  0
  5 10  1  0  0  0  0
  5 55  1  0  0  0  0
  6  7  1  0  0  0  0
  6  8  1  0  0  0  0
  6  9  1  0  0  0  0
 10 11  1  0  0  0  0
 10 12  1  0  0  0  0
 10 13  1  0  0  0  0
 13 14  1  0  0  0  0
 14 15  2  0  0  0  0
 14 16  1  0  0  0  0
 14 17  1  0  0  0  0
 17 18  1  0  0  0  0
 18 19  1  0  0  0  0
 18 20  2  0  0  0  0
 18 21  1  0  0  0  0
 21 22  1  0  0  0  0
 22 23  1  0  0  0  0
 22 24  1  0  0  0  0
 22 25  1  0  0  0  0
 25 26  1  0  0  0  0
 25 27  1  0  0  0  0
 25 33  1  0  0  0  0
 27 28  1  0  0  0  0
 27 29  1  0  0  0  0
 27 50  1  0  0  0  0
 29 30  1  0  0  0  0
 29 31  1  0  0  0  0
 29 48  1  0  0  0  0
 31 32  1  0  0  0  0
 31 33  1  0  0  0  0
 31 34  1  0  0  0  0
 34 35  1  0  0  0  0
 34 44  1  0  0  0  0
 35 36  1  0  0  0  0
 35 37  2  0  0  0  0
 37 38  1  0  0  0  0
 38 39  1  0  0  0  0
 38 44  2  0  0  0  0
 39 40  2  0  0  0  0
 39 45  1  0  0  0  0
 40 41  1  0  0  0  0
 41 42  1  0  0  0  0
 41 43  2  0  0  0  0
 43 44  1  0  0  0  0
 45 46  1  0  0  0  0
 45 47  1  0  0  0  0
 48 49  1  0  0  0  0
 50 51  1  0  0  0  0
 51 52  2  0  0  0  0
 51 53  1  0  0  0  0
 51 54  1  0  0  0  0
 55 56  1  0  0  0  0
 55 57  1  0  0  0  0
 55104  1  0  0  0  0
 57 58  2  0  0  0  0
 57 59  1  0  0  0  0
 59 60  1  0  0  0  0
 59 61  1  0  0  0  0
 61 62  1  0  0  0  0
 61 63  1  0  0  0  0
 61 64  1  0  0  0  0
 64 65  1  0  0  0  0
 64 66  1  0  0  0  0
 64 67  1  0  0  0  0
 67 68  2  0  0  0  0
 67 69  1  0  0  0  0
 69 70  1  0  0  0  0
 69 71  1  0  0  0  0
 71 72  1  0  0  0  0
 71 73  1  0  0  0  0
 71 74  1  0  0  0  0
 74 75  1  0  0  0  0
 74 76  1  0  0  0  0
 74 77  1  0  0  0  0
 77 78  1  0  0  0  0
 78 79  2  0  0  0  0
 78 80  1  0  0  0  0
 80 81  1  0  0  0  0
 80 82  1  0  0  0  0
 80 83  1  0  0  0  0
 83 84  2  0  0  0  0
 83 85  1  0  0  0  0
 85 86  1  0  0  0  0
 85 87  2  0  0  0  0
 87 88  1  0  0  0  0
 87 89  1  0  0  0  0
 89 90  2  0  0  0  0
 89 96  1  0  0  0  0
 90 91  1  0  0  0  0
 90 92  1  0  0  0  0
 92 93  2  0  0  0  0
 92 99  1  0  0  0  0
 93 94  1  0  0  0  0
 93 98  1  0  0  0  0
 94 95  1  0  0  0  0
 94 96  2  0  0  0  0
 96 97  1  0  0  0  0
 99100  1  0  0  0  0
100101  1  0  0  0  0
100102  1  0  0  0  0
100103  1  0  0  0  0
104105  1  0  0  0  0
M  BCL ATM C_TeTeTeTe H_S H_S H_S C_TeTeTeTe C_TeTeTeTe H_S H_S H_S C_TeTeTeTe H_S H_S O_Tr2TrTrPi2 P_TeTeTeTePi O_Tr2Tr2TrPi O_Te2Te2Te2Te O_Tr2TrTrPi2 P_TeTeTeTePi O_Te2Te2TeTe O_Tr2Tr2TrPi O_Tr2TrTrPi2 C_TeTeTeTe H_S H_S C_TeTeTeTe H_S C_TeTeTeTe H_S C_TeTeTeTe H_S C_TeTeTeTe H_S O_Te2Te2TeTe N_TrTrTrPi2 C_TrTrTrPi H_S N_Tr2TrTrPi C_TrTrTrPi C_TrTrTrPi N_Tr2TrTrPi C_TrTrTrPi H_S N_Tr2TrTrPi C_TrTrTrPi N_TrTrTrPi2 H_S H_S O_Te2Te2TeTe H_S O_Tr2TrTrPi2 P_TeTeTeTePi O_Tr2Tr2TrPi O_Te2Te2Te2Te O_Te2Te2Te2Te C_TeTeTeTe H_S C_TrTrTrPi O_Tr2Tr2TrPi N_TrTrTrPi2 H_S C_TeTeTeTe H_S H_S C_TeTeTeTe H_S H_S C_TrTrTrPi O_Tr2Tr2TrPi N_TrTrTrPi2 H_S C_TeTeTeTe H_S H_S C_TeTeTeTe H_S H_S S_Te2Te2TeTe C_TrTrTrPi O_Tr2Tr2TrPi C_TeTeTeTe H_S H_S C_TrTrTrPi O_Tr2Tr2TrPi C_TrTrTrPi H_S C_TrTrTrPi H_S C_TrTrTrPi C_TrTrTrPi H_S C_TrTrTrPi C_TrTrTrPi C_TrTrTrPi H_S C_TrTrTrPi H_S O_Te2Te2Te2Te O_Tr2TrTrPi2 C_TeTeTeTe H_S H_S H_S O_Te2Te2TeTe H_S
M  BCL BND NonConjugatedSingleBond NonConjugatedSingleBond NonConjugatedSingleBond NonConjugatedSingleBond NonConjugatedSingleBond NonConjugatedSingleBond NonConjugatedSingleBond NonConjugatedSingleBond NonConjugatedSingleBond NonConjugatedSingleBond NonConjugatedSingleBond NonConjugatedSingleBond NonConjugatedSingleBond ConjugatedSingleBond ConjugatedDoubleBond ConjugatedSingleBond ConjugatedSingleBond ConjugatedSingleBond ConjugatedSingleBond ConjugatedDoubleBond ConjugatedSingleBond NonConjugatedSingleBond NonConjugatedSingleBond NonConjugatedSingleBond NonConjugatedSingleBond NonConjugatedSingleBond NonConjugatedSingleBondInRing NonConjugatedSingleBondInRing NonConjugatedSingleBond NonConjugatedSingleBondInRing NonConjugatedSingleBond NonConjugatedSingleBond NonConjugatedSingleBondInRing NonConjugatedSingleBond NonConjugatedSingleBond NonConjugatedSingleBondInRing NonConjugatedSingleBond AromaticSingleBond AromaticSingleBond NonConjugatedSingleBond AromaticDoubleBond AromaticSingleBond AromaticSingleBond AromaticDoubleBond AromaticDoubleBond ConjugatedSingleBond AromaticSingleBond NonConjugatedSingleBond AromaticDoubleBond AromaticSingleBond NonConjugatedSingleBond NonConjugatedSingleBond NonConjugatedSingleBond ConjugatedSingleBond ConjugatedDoubleBond ConjugatedSingleBond ConjugatedSingleBond NonConjugatedSingleBond NonConjugatedSingleBond NonConjugatedSingleBond ConjugatedDoubleBond AmideSingleBond NonConjugatedSingleBond NonConjugatedSingleBond NonConjugatedSingleBond NonConjugatedSingleBond NonConjugatedSingleBond NonConjugatedSingleBond NonConjugatedSingleBond NonConjugatedSingleBond ConjugatedDoubleBond AmideSingleBond NonConjugatedSingleBond NonConjugatedSingleBond NonConjugatedSingleBond NonConjugatedSingleBond NonConjugatedSingleBond NonConjugatedSingleBond NonConjugatedSingleBond NonConjugatedSingleBond ConjugatedSingleBond ConjugatedDoubleBond NonConjugatedSingleBond NonConjugatedSingleBond NonConjugatedSingleBond NonConjugatedSingleBond ConjugatedDoubleBond ConjugatedSingleBond NonConjugatedSingleBond ConjugatedDoubleBond NonConjugatedSingleBond ConjugatedSingleBond AromaticDoubleBond AromaticSingleBond NonConjugatedSingleBond AromaticSingleBond AromaticDoubleBond ConjugatedSingleBond AromaticSingleBond ConjugatedSingleBond NonConjugatedSingleBond AromaticDoubleBond NonConjugatedSingleBond NonConjugatedSingleBond NonConjugatedSingleBond NonConjugatedSingleBond NonConjugatedSingleBond NonConjugatedSingleBond
M  BCL CHI  14   R  18   S  25   R  27   R  29   R  31   S  55   R
M  BCL DBI - - - - - - - - - - - E - - -
M  END
> <ConfClashScore>
0 

> <ConfOneFourInteractionScore>
-0.972093 

> <ConfScore>
0.196244 

> <ConfScorePBest>
0.0095365 

> <ConfTolerance>
2.93842 

$$$$
L03.****
  PyMOL2.5          3D                             0

105108  0  0  0  0  0  0  0  0999 V2000
  -10.2624   -2.5958    1.2885 C   0  0  0  1  0  0  0  0  0  0  0  0
   -9.8843   -1.8540    1.9605 H   0  0  0  1  0  0  0  0  0  0  0  0
  -11.1736   -2.9988    1.6785 H   0  0  0  1  0  0  0  0  0  0  0  0
  -10.4488   -2.1500    0.3338 H   0  0  0  1  0  0  0  0  0  0  0  0
   -9.2313   -3.7202    1.1345 C   0  0  0  1  0  0  0  0  0  0  0  0
   -8.4303   -3.8508    2.4356 C   0  0  0  1  0  0  0  0  0  0  0  0
   -7.3896   -3.7108    2.2299 H   0  0  0  1  0  0  0  0  0  0  0  0
   -8.5835   -4.8244    2.8522 H   0  0  0  1  0  0  0  0  0  0  0  0
   -8.7589   -3.1084    3.1325 H   0  0  0  1  0  0  0  0  0  0  0  0
   -8.2891   -3.3549    0.0350 C   0  0  0  1  0  0  0  0  0  0  0  0
   -8.8062   -3.3510   -0.9017 H   0  0  0  1  0  0  0  0  0  0  0  0
   -7.4843   -4.0590   -0.0042 H   0  0  0  1  0  0  0  0  0  0  0  0
   -7.7738   -2.0330    0.3190 O   0  0  0  1  0  0  0  0  0  0  0  0
   -7.8185   -0.8985   -0.7706 P   0  0  0  1  0  0  0  0  0  0  0  0
   -9.2859   -1.0583   -0.8773 O   0  0  0  1  0  0  0  0  0  0  0  0
   -6.7611   -0.6028    0.4206 O   0  5  0  1  0  0  0  0  0  0  0  0
   -7.8646    0.2601   -1.8835 O   0  0  0  1  0  0  0  0  0  0  0  0
   -6.6388    0.9264   -2.6527 P   0  0  0  1  0  0  0  0  0  0  0  0
   -6.1740    2.1466   -1.9673 O   0  0  0  0  0  0  0  0  0  0  0  0
   -6.9462    0.9869   -4.1014 O   0  0  0  1  0  0  0  0  0  0  0  0
   -5.6226   -0.2450   -2.3855 O   0  0  0  1  0  0  0  0  0  0  0  0
   -4.7391   -0.2155   -1.2347 C   0  0  0  1  0  0  0  0  0  0  0  0
   -5.2110    0.3266   -0.4421 H   0  0  0  1  0  0  0  0  0  0  0  0
   -3.8248    0.2704   -1.5048 H   0  0  0  1  0  0  0  0  0  0  0  0
   -4.4369   -1.6186   -0.7662 C   0  0  0  1  0  0  0  0  0  0  0  0
   -5.3399   -2.0864   -0.4337 H   0  0  0  1  0  0  0  0  0  0  0  0
   -3.3874   -1.6036    0.3546 C   0  0  0  1  0  0  0  0  0  0  0  0
   -3.8489   -1.4942    1.3138 H   0  0  0  1  0  0  0  0  0  0  0  0
   -2.7364   -2.9548    0.2163 C   0  0  0  1  0  0  0  0  0  0  0  0
   -3.2906   -3.7035    0.7428 H   0  0  0  1  0  0  0  0  0  0  0  0
   -2.7717   -3.2057   -1.2942 C   0  0  0  1  0  0  0  0  0  0  0  0
   -2.9781   -4.2354   -1.4991 H   0  0  0  1  0  0  0  0  0  0  0  0
   -3.8385   -2.3659   -1.7901 O   0  0  0  1  0  0  0  0  0  0  0  0
   -1.4966   -2.8318   -1.9069 N   0  0  0  1  0  0  0  0  0  0  0  0
   -0.4513   -3.6543   -2.1962 C   0  0  0  1  0  0  0  0  0  0  0  0
   -0.4733   -4.6758   -2.0023 H   0  0  0  1  0  0  0  0  0  0  0  0
    0.5807   -3.0643   -2.7354 N   0  0  0  1  0  0  0  0  0  0  0  0
    0.1880   -1.7377   -2.8213 C   0  0  0  1  0  0  0  0  0  0  0  0
    0.7964   -0.5735   -3.2810 C   0  0  0  1  0  0  0  0  0  0  0  0
    0.1351    0.5876   -3.2231 N   0  0  0  1  0  0  0  0  0  0  0  0
   -1.1021    0.5819   -2.7024 C   0  0  0  1  0  0  0  0  0  0  0  0
   -1.5812    1.5044   -2.6711 H   0  0  0  1  0  0  0  0  0  0  0  0
   -1.7967   -0.4422   -2.2220 N   0  0  0  1  0  0  0  0  0  0  0  0
   -1.1067   -1.5803   -2.3087 C   0  0  0  1  0  0  0  0  0  0  0  0
    2.0673   -0.6165   -3.7908 N   0  0  0  1  0  0  0  0  0  0  0  0
    2.4641    0.1875   -4.1864 H   0  0  0  1  0  0  0  0  0  0  0  0
    2.5796   -1.4514   -3.7598 H   0  0  0  1  0  0  0  0  0  0  0  0
   -1.3927   -2.9280    0.6999 O   0  0  0  1  0  0  0  0  0  0  0  0
   -1.1928   -2.0537    1.0423 H   0  0  0  1  0  0  0  0  0  0  0  0
   -2.4294   -0.5414    0.1566 O   0  0  0  1  0  0  0  0  0  0  0  0
   -2.0347    0.5398    1.3249 P   0  0  0  1  0  0  0  0  0  0  0  0
   -3.1492    0.8273    2.2553 O   0  0  0  1  0  0  0  0  0  0  0  0
   -0.8642   -0.1003    2.2439 O   0  5  0  1  0  0  0  0  0  0  0  0
   -1.2889    1.8599    0.7543 O   0  5  0  1  0  0  0  0  0  0  0  0
   -9.9291   -5.0418    0.7920 C   0  0  0  1  0  0  0  0  0  0  0  0
  -10.4279   -4.9210   -0.1468 H   0  0  0  1  0  0  0  0  0  0  0  0
   -8.9069   -6.1542    0.6489 C   0  0  0  1  0  0  0  0  0  0  0  0
   -8.1572   -6.2110   -0.3249 O   0  0  0  1  0  0  0  0  0  0  0  0
   -8.8815   -7.0545    1.6444 N   0  0  0  1  0  0  0  0  0  0  0  0
   -9.5593   -6.9795    2.3482 H   0  0  0  1  0  0  0  0  0  0  0  0
   -7.9114   -8.1347    1.7450 C   0  0  0  1  0  0  0  0  0  0  0  0
   -7.8387   -8.4500    2.7649 H   0  0  0  1  0  0  0  0  0  0  0  0
   -6.9572   -7.7846    1.4105 H   0  0  0  1  0  0  0  0  0  0  0  0
   -8.3434   -9.3116    0.8857 C   0  0  0  1  0  0  0  0  0  0  0  0
   -8.8316   -8.9341    0.0116 H   0  0  0  1  0  0  0  0  0  0  0  0
   -9.0297   -9.9100    1.4477 H   0  0  0  1  0  0  0  0  0  0  0  0
   -7.1840  -10.1868    0.4509 C   0  0  0  1  0  0  0  0  0  0  0  0
   -6.9489  -11.2478    1.0054 O   0  0  0  1  0  0  0  0  0  0  0  0
   -6.4528   -9.7192   -0.5648 N   0  0  0  1  0  0  0  0  0  0  0  0
   -6.6024   -8.8005   -0.8716 H   0  0  0  1  0  0  0  0  0  0  0  0
   -5.4420  -10.5265   -1.2314 C   0  0  0  1  0  0  0  0  0  0  0  0
   -5.6527  -10.5248   -2.2805 H   0  0  0  1  0  0  0  0  0  0  0  0
   -5.5118  -11.5256   -0.8547 H   0  0  0  1  0  0  0  0  0  0  0  0
   -4.0217  -10.0478   -1.0358 C   0  0  0  1  0  0  0  0  0  0  0  0
   -3.6777  -10.4089   -0.0892 H   0  0  0  1  0  0  0  0  0  0  0  0
   -4.0308   -8.9778   -1.0281 H   0  0  0  1  0  0  0  0  0  0  0  0
   -2.8485  -10.5887   -2.3015 S   0  0  0  1  0  0  0  0  0  0  0  0
   -1.3702   -9.8645   -1.7652 C   0  0  0  1  0  0  0  0  0  0  0  0
   -1.2850   -9.2983   -0.6875 O   0  0  0  1  0  0  0  0  0  0  0  0
   -0.2308   -9.8173   -2.7550 C   0  0  0  1  0  0  0  0  0  0  0  0
   -0.6086  -10.1545   -3.6976 H   0  0  0  1  0  0  0  0  0  0  0  0
    0.5237  -10.4931   -2.4103 H   0  0  0  1  0  0  0  0  0  0  0  0
    0.4274   -8.4783   -2.9817 C   0  0  0  1  0  0  0  0  0  0  0  0
    0.0324   -7.4933   -2.3939 O   0  0  0  1  0  0  0  0  0  0  0  0
    1.5426   -8.3896   -3.9165 C   0  0  0  1  0  0  0  0  0  0  0  0
    1.7782   -9.2455   -4.4582 H   0  0  0  1  0  0  0  0  0  0  0  0
    2.2860   -7.3058   -4.1361 C   0  0  0  1  0  0  0  0  0  0  0  0
    2.0504   -6.4499   -3.5943 H   0  0  0  1  0  0  0  0  0  0  0  0
    3.4182   -7.2157   -5.0851 C   0  0  0  1  0  0  0  0  0  0  0  0
    3.7831   -8.2821   -5.8850 C   0  0  0  1  0  0  0  0  0  0  0  0
    3.2599   -9.1790   -5.8264 H   0  0  0  1  0  0  0  0  0  0  0  0
    4.8464   -8.1561   -6.7652 C   0  0  0  1  0  0  0  0  0  0  0  0
    5.5452   -6.9659   -6.8392 C   0  0  0  1  0  0  0  0  0  0  0  0
    5.1791   -5.8964   -6.0369 C   0  0  0  1  0  0  0  0  0  0  0  0
    5.7022   -4.9994   -6.0954 H   0  0  0  1  0  0  0  0  0  0  0  0
    4.1188   -6.0219   -5.1591 C   0  0  0  1  0  0  0  0  0  0  0  0
    3.8467   -5.2208   -4.5543 H   0  0  0  1  0  0  0  0  0  0  0  0
    6.5866   -6.8770   -7.7094 O   0  5  0  1  0  0  0  0  0  0  0  0
    5.1074   -9.2635   -7.4996 O   0  0  0  1  0  0  0  0  0  0  0  0
    6.4505   -9.4310   -7.9797 C   0  0  0  1  0  0  0  0  0  0  0  0
    6.6880   -8.6398   -8.6598 H   0  0  0  1  0  0  0  0  0  0  0  0
    6.5342  -10.3712   -8.4836 H   0  0  0  1  0  0  0  0  0  0  0  0
    7.1299   -9.4069   -7.1535 H   0  0  0  1  0  0  0  0  0  0  0  0
  -10.8756   -5.2987    1.8051 O   0  0  0  1  0  0  0  0  0  0  0  0
  -10.9461   -4.5326    2.3794 H   0  0  0  1  0  0  0  0  0  0  0  0
  1  2  1  0  0  0  0
  1  3  1  0  0  0  0
  1  4  1  0  0  0  0
  1  5  1  0  0  0  0
  5  6  1  0  0  0  0
  5 10  1  0  0  0  0
  5 55  1  0  0  0  0
  6  7  1  0  0  0  0
  6  8  1  0  0  0  0
  6  9  1  0  0  0  0
 10 11  1  0  0  0  0
 10 12  1  0  0  0  0
 10 13  1  0  0  0  0
 13 14  1  0  0  0  0
 14 15  2  0  0  0  0
 14 16  1  0  0  0  0
 14 17  1  0  0  0  0
 17 18  1  0  0  0  0
 18 19  1  0  0  0  0
 18 20  2  0  0  0  0
 18 21  1  0  0  0  0
 21 22  1  0  0  0  0
 22 23  1  0  0  0  0
 22 24  1  0  0  0  0
 22 25  1  0  0  0  0
 25 26  1  0  0  0  0
 25 27  1  0  0  0  0
 25 33  1  0  0  0  0
 27 28  1  0  0  0  0
 27 29  1  0  0  0  0
 27 50  1  0  0  0  0
 29 30  1  0  0  0  0
 29 31  1  0  0  0  0
 29 48  1  0  0  0  0
 31 32  1  0  0  0  0
 31 33  1  0  0  0  0
 31 34  1  0  0  0  0
 34 35  1  0  0  0  0
 34 44  1  0  0  0  0
 35 36  1  0  0  0  0
 35 37  2  0  0  0  0
 37 38  1  0  0  0  0
 38 39  1  0  0  0  0
 38 44  2  0  0  0  0
 39 40  2  0  0  0  0
 39 45  1  0  0  0  0
 40 41  1  0  0  0  0
 41 42  1  0  0  0  0
 41 43  2  0  0  0  0
 43 44  1  0  0  0  0
 45 46  1  0  0  0  0
 45 47  1  0  0  0  0
 48 49  1  0  0  0  0
 50 51  1  0  0  0  0
 51 52  2  0  0  0  0
 51 53  1  0  0  0  0
 51 54  1  0  0  0  0
 55 56  1  0  0  0  0
 55 57  1  0  0  0  0
 55104  1  0  0  0  0
 57 58  2  0  0  0  0
 57 59  1  0  0  0  0
 59 60  1  0  0  0  0
 59 61  1  0  0  0  0
 61 62  1  0  0  0  0
 61 63  1  0  0  0  0
 61 64  1  0  0  0  0
 64 65  1  0  0  0  0
 64 66  1  0  0  0  0
 64 67  1  0  0  0  0
 67 68  2  0  0  0  0
 67 69  1  0  0  0  0
 69 70  1  0  0  0  0
 69 71  1  0  0  0  0
 71 72  1  0  0  0  0
 71 73  1  0  0  0  0
 71 74  1  0  0  0  0
 74 75  1  0  0  0  0
 74 76  1  0  0  0  0
 74 77  1  0  0  0  0
 77 78  1  0  0  0  0
 78 79  2  0  0  0  0
 78 80  1  0  0  0  0
 80 81  1  0  0  0  0
 80 82  1  0  0  0  0
 80 83  1  0  0  0  0
 83 84  2  0  0  0  0
 83 85  1  0  0  0  0
 85 86  1  0  0  0  0
 85 87  2  0  0  0  0
 87 88  1  0  0  0  0
 87 89  1  0  0  0  0
 89 90  2  0  0  0  0
 89 96  1  0  0  0  0
 90 91  1  0  0  0  0
 90 92  1  0  0  0  0
 92 93  2  0  0  0  0
 92 99  1  0  0  0  0
 93 94  1  0  0  0  0
 93 98  1  0  0  0  0
 94 95  1  0  0  0  0
 94 96  2  0  0  0  0
 96 97  1  0  0  0  0
 99100  1  0  0  0  0
100101  1  0  0  0  0
100102  1  0  0  0  0
100103  1  0  0  0  0
104105  1  0  0  0  0
M  BCL ATM C_TeTeTeTe H_S H_S H_S C_TeTeTeTe C_TeTeTeTe H_S H_S H_S C_TeTeTeTe H_S H_S O_Tr2TrTrPi2 P_TeTeTeTePi O_Tr2Tr2TrPi O_Te2Te2Te2Te O_Tr2TrTrPi2 P_TeTeTeTePi O_Te2Te2TeTe O_Tr2Tr2TrPi O_Tr2TrTrPi2 C_TeTeTeTe H_S H_S C_TeTeTeTe H_S C_TeTeTeTe H_S C_TeTeTeTe H_S C_TeTeTeTe H_S O_Te2Te2TeTe N_TrTrTrPi2 C_TrTrTrPi H_S N_Tr2TrTrPi C_TrTrTrPi C_TrTrTrPi N_Tr2TrTrPi C_TrTrTrPi H_S N_Tr2TrTrPi C_TrTrTrPi N_TrTrTrPi2 H_S H_S O_Te2Te2TeTe H_S O_Tr2TrTrPi2 P_TeTeTeTePi O_Tr2Tr2TrPi O_Te2Te2Te2Te O_Te2Te2Te2Te C_TeTeTeTe H_S C_TrTrTrPi O_Tr2Tr2TrPi N_TrTrTrPi2 H_S C_TeTeTeTe H_S H_S C_TeTeTeTe H_S H_S C_TrTrTrPi O_Tr2Tr2TrPi N_TrTrTrPi2 H_S C_TeTeTeTe H_S H_S C_TeTeTeTe H_S H_S S_Te2Te2TeTe C_TrTrTrPi O_Tr2Tr2TrPi C_TeTeTeTe H_S H_S C_TrTrTrPi O_Tr2Tr2TrPi C_TrTrTrPi H_S C_TrTrTrPi H_S C_TrTrTrPi C_TrTrTrPi H_S C_TrTrTrPi C_TrTrTrPi C_TrTrTrPi H_S C_TrTrTrPi H_S O_Te2Te2Te2Te O_Tr2TrTrPi2 C_TeTeTeTe H_S H_S H_S O_Te2Te2TeTe H_S
M  BCL BND NonConjugatedSingleBond NonConjugatedSingleBond NonConjugatedSingleBond NonConjugatedSingleBond NonConjugatedSingleBond NonConjugatedSingleBond NonConjugatedSingleBond NonConjugatedSingleBond NonConjugatedSingleBond NonConjugatedSingleBond NonConjugatedSingleBond NonConjugatedSingleBond NonConjugatedSingleBond ConjugatedSingleBond ConjugatedDoubleBond ConjugatedSingleBond ConjugatedSingleBond ConjugatedSingleBond ConjugatedSingleBond ConjugatedDoubleBond ConjugatedSingleBond NonConjugatedSingleBond NonConjugatedSingleBond NonConjugatedSingleBond NonConjugatedSingleBond NonConjugatedSingleBond NonConjugatedSingleBondInRing NonConjugatedSingleBondInRing NonConjugatedSingleBond NonConjugatedSingleBondInRing NonConjugatedSingleBond NonConjugatedSingleBond NonConjugatedSingleBondInRing NonConjugatedSingleBond NonConjugatedSingleBond NonConjugatedSingleBondInRing NonConjugatedSingleBond AromaticSingleBond AromaticSingleBond NonConjugatedSingleBond AromaticDoubleBond AromaticSingleBond AromaticSingleBond AromaticDoubleBond AromaticDoubleBond ConjugatedSingleBond AromaticSingleBond NonConjugatedSingleBond AromaticDoubleBond AromaticSingleBond NonConjugatedSingleBond NonConjugatedSingleBond NonConjugatedSingleBond ConjugatedSingleBond ConjugatedDoubleBond ConjugatedSingleBond ConjugatedSingleBond NonConjugatedSingleBond NonConjugatedSingleBond NonConjugatedSingleBond ConjugatedDoubleBond AmideSingleBond NonConjugatedSingleBond NonConjugatedSingleBond NonConjugatedSingleBond NonConjugatedSingleBond NonConjugatedSingleBond NonConjugatedSingleBond NonConjugatedSingleBond NonConjugatedSingleBond ConjugatedDoubleBond AmideSingleBond NonConjugatedSingleBond NonConjugatedSingleBond NonConjugatedSingleBond NonConjugatedSingleBond NonConjugatedSingleBond NonConjugatedSingleBond NonConjugatedSingleBond NonConjugatedSingleBond ConjugatedSingleBond ConjugatedDoubleBond NonConjugatedSingleBond NonConjugatedSingleBond NonConjugatedSingleBond NonConjugatedSingleBond ConjugatedDoubleBond ConjugatedSingleBond NonConjugatedSingleBond ConjugatedDoubleBond NonConjugatedSingleBond ConjugatedSingleBond AromaticDoubleBond AromaticSingleBond NonConjugatedSingleBond AromaticSingleBond AromaticDoubleBond ConjugatedSingleBond AromaticSingleBond ConjugatedSingleBond NonConjugatedSingleBond AromaticDoubleBond NonConjugatedSingleBond NonConjugatedSingleBond NonConjugatedSingleBond NonConjugatedSingleBond NonConjugatedSingleBond NonConjugatedSingleBond
M  BCL CHI  14   R  18   S  25   R  27   R  29   R  31   S  55   R
M  BCL DBI - - - - - - - - - - - E - - -
M  END
> <ConfClashScore>
0 

> <ConfOneFourInteractionScore>
-0.966161 

> <ConfScore>
0.199674 

> <ConfScorePBest>
0.00943349 

> <ConfTolerance>
3.02474 

$$$$
L03.****
  PyMOL2.5          3D                             0

105108  0  0  0  0  0  0  0  0999 V2000
    3.9322   -8.9550    4.5784 C   0  0  0  1  0  0  0  0  0  0  0  0
    4.7379   -8.8899    3.8774 H   0  0  0  1  0  0  0  0  0  0  0  0
    3.0066   -9.0490    4.0499 H   0  0  0  1  0  0  0  0  0  0  0  0
    4.0737   -9.8103    5.2056 H   0  0  0  1  0  0  0  0  0  0  0  0
    3.9008   -7.6744    5.4511 C   0  0  0  1  0  0  0  0  0  0  0  0
    2.9470   -7.9781    6.6127 C   0  0  0  1  0  0  0  0  0  0  0  0
    2.8888   -7.1272    7.2588 H   0  0  0  1  0  0  0  0  0  0  0  0
    3.3127   -8.8195    7.1634 H   0  0  0  1  0  0  0  0  0  0  0  0
    1.9741   -8.1995    6.2264 H   0  0  0  1  0  0  0  0  0  0  0  0
    3.3629   -6.4881    4.7208 C   0  0  0  1  0  0  0  0  0  0  0  0
    4.0707   -6.1588    3.9891 H   0  0  0  1  0  0  0  0  0  0  0  0
    3.1665   -5.6939    5.4105 H   0  0  0  1  0  0  0  0  0  0  0  0
    2.1433   -6.8888    4.0761 O   0  0  0  1  0  0  0  0  0  0  0  0
    0.8973   -5.9600    3.8290 P   0  0  0  1  0  0  0  0  0  0  0  0
    0.4873   -6.8124    2.6907 O   0  0  0  1  0  0  0  0  0  0  0  0
    1.2255   -6.1893    5.3988 O   0  5  0  1  0  0  0  0  0  0  0  0
   -0.3714   -5.0147    3.5770 O   0  0  0  1  0  0  0  0  0  0  0  0
   -1.8141   -5.2882    2.9366 P   0  0  0  1  0  0  0  0  0  0  0  0
   -2.4816   -3.9707    2.9700 O   0  0  0  0  0  0  0  0  0  0  0  0
   -2.4594   -6.4726    3.5704 O   0  0  0  1  0  0  0  0  0  0  0  0
   -1.3709   -5.6060    1.4683 O   0  0  0  1  0  0  0  0  0  0  0  0
   -2.1935   -6.2565    0.4667 C   0  0  0  1  0  0  0  0  0  0  0  0
   -2.7783   -7.0213    0.9335 H   0  0  0  1  0  0  0  0  0  0  0  0
   -1.5618   -6.6943   -0.2778 H   0  0  0  1  0  0  0  0  0  0  0  0
   -3.1169   -5.2545   -0.1902 C   0  0  0  1  0  0  0  0  0  0  0  0
   -4.0816   -5.3025    0.2702 H   0  0  0  1  0  0  0  0  0  0  0  0
   -3.2208   -5.5183   -1.6993 C   0  0  0  1  0  0  0  0  0  0  0  0
   -3.9986   -6.2206   -1.9155 H   0  0  0  1  0  0  0  0  0  0  0  0
   -3.5501   -4.1562   -2.2514 C   0  0  0  1  0  0  0  0  0  0  0  0
   -4.6029   -3.9695   -2.2097 H   0  0  0  1  0  0  0  0  0  0  0  0
   -2.7871   -3.2090   -1.3206 C   0  0  0  1  0  0  0  0  0  0  0  0
   -3.3616   -2.3268   -1.1293 H   0  0  0  1  0  0  0  0  0  0  0  0
   -2.5882   -3.9593   -0.1013 O   0  0  0  1  0  0  0  0  0  0  0  0
   -1.5007   -2.8360   -1.9097 N   0  0  0  1  0  0  0  0  0  0  0  0
   -0.4535   -3.6613   -2.1854 C   0  0  0  1  0  0  0  0  0  0  0  0
   -0.4762   -4.6850   -2.0031 H   0  0  0  1  0  0  0  0  0  0  0  0
    0.5927   -3.0472   -2.7042 N   0  0  0  1  0  0  0  0  0  0  0  0
    0.1686   -1.7208   -2.7883 C   0  0  0  1  0  0  0  0  0  0  0  0
    0.8052   -0.5679   -3.2797 C   0  0  0  1  0  0  0  0  0  0  0  0
    0.1192    0.5990   -3.2155 N   0  0  0  1  0  0  0  0  0  0  0  0
   -1.1208    0.5803   -2.6948 C   0  0  0  1  0  0  0  0  0  0  0  0
   -1.6024    1.5017   -2.6663 H   0  0  0  1  0  0  0  0  0  0  0  0
   -1.8248   -0.4424   -2.2098 N   0  0  0  1  0  0  0  0  0  0  0  0
   -1.0988   -1.5754   -2.3004 C   0  0  0  1  0  0  0  0  0  0  0  0
    2.1019   -0.6232   -3.8164 N   0  0  0  1  0  0  0  0  0  0  0  0
    2.5120    0.1842   -4.1908 H   0  0  0  1  0  0  0  0  0  0  0  0
    2.5965   -1.4692   -3.8164 H   0  0  0  1  0  0  0  0  0  0  0  0
   -3.0958   -4.0261   -3.5992 O   0  0  0  1  0  0  0  0  0  0  0  0
   -2.4289   -4.6930   -3.7784 H   0  0  0  1  0  0  0  0  0  0  0  0
   -1.9634   -6.0088   -2.2324 O   0  0  0  1  0  0  0  0  0  0  0  0
   -1.8687   -7.0207   -3.5195 P   0  0  0  1  0  0  0  0  0  0  0  0
   -2.7282   -8.2234   -3.4473 O   0  0  0  1  0  0  0  0  0  0  0  0
   -2.1874   -6.1921   -4.8746 O   0  5  0  1  0  0  0  0  0  0  0  0
   -0.3505   -7.5545   -3.7059 O   0  5  0  1  0  0  0  0  0  0  0  0
    5.2657   -7.3185    6.0522 C   0  0  0  1  0  0  0  0  0  0  0  0
    5.9344   -7.1355    5.2372 H   0  0  0  1  0  0  0  0  0  0  0  0
    5.2357   -6.0709    6.9064 C   0  0  0  1  0  0  0  0  0  0  0  0
    5.0986   -4.9562    6.4040 O   0  0  0  1  0  0  0  0  0  0  0  0
    5.3672   -6.2657    8.2281 N   0  0  0  1  0  0  0  0  0  0  0  0
    5.4162   -7.1835    8.5683 H   0  0  0  1  0  0  0  0  0  0  0  0
    5.4396   -5.1615    9.1733 C   0  0  0  1  0  0  0  0  0  0  0  0
    5.9161   -4.3366    8.6861 H   0  0  0  1  0  0  0  0  0  0  0  0
    6.0324   -5.4749   10.0071 H   0  0  0  1  0  0  0  0  0  0  0  0
    4.0921   -4.6866    9.7011 C   0  0  0  1  0  0  0  0  0  0  0  0
    4.2636   -3.9652   10.4725 H   0  0  0  1  0  0  0  0  0  0  0  0
    3.5702   -5.5274   10.1080 H   0  0  0  1  0  0  0  0  0  0  0  0
    3.2314   -4.0567    8.6387 C   0  0  0  1  0  0  0  0  0  0  0  0
    3.7348   -3.5536    7.6352 O   0  0  0  1  0  0  0  0  0  0  0  0
    1.9020   -4.0609    8.8196 N   0  0  0  1  0  0  0  0  0  0  0  0
    1.5340   -4.5028    9.6131 H   0  0  0  1  0  0  0  0  0  0  0  0
    0.9874   -3.4321    7.8782 C   0  0  0  1  0  0  0  0  0  0  0  0
    1.5295   -3.1777    6.9915 H   0  0  0  1  0  0  0  0  0  0  0  0
    0.5945   -2.5424    8.3243 H   0  0  0  1  0  0  0  0  0  0  0  0
   -0.1677   -4.3357    7.4986 C   0  0  0  1  0  0  0  0  0  0  0  0
    0.1262   -4.9278    6.6572 H   0  0  0  1  0  0  0  0  0  0  0  0
   -1.0038   -3.7242    7.2305 H   0  0  0  1  0  0  0  0  0  0  0  0
   -0.6714   -5.4434    8.8312 S   0  0  0  1  0  0  0  0  0  0  0  0
   -1.6568   -6.6230    7.9824 C   0  0  0  1  0  0  0  0  0  0  0  0
   -1.8786   -6.4615    6.8127 O   0  0  0  1  0  0  0  0  0  0  0  0
   -2.2122   -7.8198    8.7244 C   0  0  0  1  0  0  0  0  0  0  0  0
   -2.6909   -7.4906    9.6229 H   0  0  0  1  0  0  0  0  0  0  0  0
   -1.4135   -8.4884    8.9695 H   0  0  0  1  0  0  0  0  0  0  0  0
   -3.2236   -8.5405    7.8477 C   0  0  0  1  0  0  0  0  0  0  0  0
   -2.9232   -9.5973    7.3173 O   0  0  0  1  0  0  0  0  0  0  0  0
   -4.5076   -7.9039    7.5802 C   0  0  0  1  0  0  0  0  0  0  0  0
   -4.6816   -6.9795    8.0239 H   0  0  0  1  0  0  0  0  0  0  0  0
   -5.4780   -8.4052    6.8154 C   0  0  0  1  0  0  0  0  0  0  0  0
   -5.3277   -9.3284    6.3607 H   0  0  0  1  0  0  0  0  0  0  0  0
   -6.7613   -7.7015    6.5866 C   0  0  0  1  0  0  0  0  0  0  0  0
   -6.9502   -6.4392    7.1168 C   0  0  0  1  0  0  0  0  0  0  0  0
   -6.1958   -5.9915    7.6753 H   0  0  0  1  0  0  0  0  0  0  0  0
   -8.1454   -5.7701    6.9039 C   0  0  0  1  0  0  0  0  0  0  0  0
   -9.1501   -6.3672    6.1662 C   0  0  0  1  0  0  0  0  0  0  0  0
   -8.9604   -7.6333    5.6345 C   0  0  0  1  0  0  0  0  0  0  0  0
   -9.7148   -8.0811    5.0759 H   0  0  0  1  0  0  0  0  0  0  0  0
   -7.7688   -8.3006    5.8466 C   0  0  0  1  0  0  0  0  0  0  0  0
   -7.6280   -9.2521    5.4511 H   0  0  0  1  0  0  0  0  0  0  0  0
  -10.3379   -5.7444    5.9405 O   0  5  0  1  0  0  0  0  0  0  0  0
   -8.2156   -4.4965    7.4863 O   0  0  0  1  0  0  0  0  0  0  0  0
   -9.4809   -3.8193    7.4326 C   0  0  0  1  0  0  0  0  0  0  0  0
  -10.1847   -4.3272    8.0583 H   0  0  0  1  0  0  0  0  0  0  0  0
   -9.8395   -3.8135    6.4245 H   0  0  0  1  0  0  0  0  0  0  0  0
   -9.3611   -2.8126    7.7749 H   0  0  0  1  0  0  0  0  0  0  0  0
    5.7386   -8.4579    6.7833 O   0  0  0  1  0  0  0  0  0  0  0  0
    6.3044   -8.1655    7.5016 H   0  0  0  1  0  0  0  0  0  0  0  0
  1  2  1  0  0  0  0
  1  3  1  0  0  0  0
  1  4  1  0  0  0  0
  1  5  1  0  0  0  0
  5  6  1  0  0  0  0
  5 10  1  0  0  0  0
  5 55  1  0  0  0  0
  6  7  1  0  0  0  0
  6  8  1  0  0  0  0
  6  9  1  0  0  0  0
 10 11  1  0  0  0  0
 10 12  1  0  0  0  0
 10 13  1  0  0  0  0
 13 14  1  0  0  0  0
 14 15  2  0  0  0  0
 14 16  1  0  0  0  0
 14 17  1  0  0  0  0
 17 18  1  0  0  0  0
 18 19  1  0  0  0  0
 18 20  2  0  0  0  0
 18 21  1  0  0  0  0
 21 22  1  0  0  0  0
 22 23  1  0  0  0  0
 22 24  1  0  0  0  0
 22 25  1  0  0  0  0
 25 26  1  0  0  0  0
 25 27  1  0  0  0  0
 25 33  1  0  0  0  0
 27 28  1  0  0  0  0
 27 29  1  0  0  0  0
 27 50  1  0  0  0  0
 29 30  1  0  0  0  0
 29 31  1  0  0  0  0
 29 48  1  0  0  0  0
 31 32  1  0  0  0  0
 31 33  1  0  0  0  0
 31 34  1  0  0  0  0
 34 35  1  0  0  0  0
 34 44  1  0  0  0  0
 35 36  1  0  0  0  0
 35 37  2  0  0  0  0
 37 38  1  0  0  0  0
 38 39  1  0  0  0  0
 38 44  2  0  0  0  0
 39 40  2  0  0  0  0
 39 45  1  0  0  0  0
 40 41  1  0  0  0  0
 41 42  1  0  0  0  0
 41 43  2  0  0  0  0
 43 44  1  0  0  0  0
 45 46  1  0  0  0  0
 45 47  1  0  0  0  0
 48 49  1  0  0  0  0
 50 51  1  0  0  0  0
 51 52  2  0  0  0  0
 51 53  1  0  0  0  0
 51 54  1  0  0  0  0
 55 56  1  0  0  0  0
 55 57  1  0  0  0  0
 55104  1  0  0  0  0
 57 58  2  0  0  0  0
 57 59  1  0  0  0  0
 59 60  1  0  0  0  0
 59 61  1  0  0  0  0
 61 62  1  0  0  0  0
 61 63  1  0  0  0  0
 61 64  1  0  0  0  0
 64 65  1  0  0  0  0
 64 66  1  0  0  0  0
 64 67  1  0  0  0  0
 67 68  2  0  0  0  0
 67 69  1  0  0  0  0
 69 70  1  0  0  0  0
 69 71  1  0  0  0  0
 71 72  1  0  0  0  0
 71 73  1  0  0  0  0
 71 74  1  0  0  0  0
 74 75  1  0  0  0  0
 74 76  1  0  0  0  0
 74 77  1  0  0  0  0
 77 78  1  0  0  0  0
 78 79  2  0  0  0  0
 78 80  1  0  0  0  0
 80 81  1  0  0  0  0
 80 82  1  0  0  0  0
 80 83  1  0  0  0  0
 83 84  2  0  0  0  0
 83 85  1  0  0  0  0
 85 86  1  0  0  0  0
 85 87  2  0  0  0  0
 87 88  1  0  0  0  0
 87 89  1  0  0  0  0
 89 90  2  0  0  0  0
 89 96  1  0  0  0  0
 90 91  1  0  0  0  0
 90 92  1  0  0  0  0
 92 93  2  0  0  0  0
 92 99  1  0  0  0  0
 93 94  1  0  0  0  0
 93 98  1  0  0  0  0
 94 95  1  0  0  0  0
 94 96  2  0  0  0  0
 96 97  1  0  0  0  0
 99100  1  0  0  0  0
100101  1  0  0  0  0
100102  1  0  0  0  0
100103  1  0  0  0  0
104105  1  0  0  0  0
M  BCL ATM C_TeTeTeTe H_S H_S H_S C_TeTeTeTe C_TeTeTeTe H_S H_S H_S C_TeTeTeTe H_S H_S O_Tr2TrTrPi2 P_TeTeTeTePi O_Tr2Tr2TrPi O_Te2Te2Te2Te O_Tr2TrTrPi2 P_TeTeTeTePi O_Te2Te2TeTe O_Tr2Tr2TrPi O_Tr2TrTrPi2 C_TeTeTeTe H_S H_S C_TeTeTeTe H_S C_TeTeTeTe H_S C_TeTeTeTe H_S C_TeTeTeTe H_S O_Te2Te2TeTe N_TrTrTrPi2 C_TrTrTrPi H_S N_Tr2TrTrPi C_TrTrTrPi C_TrTrTrPi N_Tr2TrTrPi C_TrTrTrPi H_S N_Tr2TrTrPi C_TrTrTrPi N_TrTrTrPi2 H_S H_S O_Te2Te2TeTe H_S O_Tr2TrTrPi2 P_TeTeTeTePi O_Tr2Tr2TrPi O_Te2Te2Te2Te O_Te2Te2Te2Te C_TeTeTeTe H_S C_TrTrTrPi O_Tr2Tr2TrPi N_TrTrTrPi2 H_S C_TeTeTeTe H_S H_S C_TeTeTeTe H_S H_S C_TrTrTrPi O_Tr2Tr2TrPi N_TrTrTrPi2 H_S C_TeTeTeTe H_S H_S C_TeTeTeTe H_S H_S S_Te2Te2TeTe C_TrTrTrPi O_Tr2Tr2TrPi C_TeTeTeTe H_S H_S C_TrTrTrPi O_Tr2Tr2TrPi C_TrTrTrPi H_S C_TrTrTrPi H_S C_TrTrTrPi C_TrTrTrPi H_S C_TrTrTrPi C_TrTrTrPi C_TrTrTrPi H_S C_TrTrTrPi H_S O_Te2Te2Te2Te O_Tr2TrTrPi2 C_TeTeTeTe H_S H_S H_S O_Te2Te2TeTe H_S
M  BCL BND NonConjugatedSingleBond NonConjugatedSingleBond NonConjugatedSingleBond NonConjugatedSingleBond NonConjugatedSingleBond NonConjugatedSingleBond NonConjugatedSingleBond NonConjugatedSingleBond NonConjugatedSingleBond NonConjugatedSingleBond NonConjugatedSingleBond NonConjugatedSingleBond NonConjugatedSingleBond ConjugatedSingleBond ConjugatedDoubleBond ConjugatedSingleBond ConjugatedSingleBond ConjugatedSingleBond ConjugatedSingleBond ConjugatedDoubleBond ConjugatedSingleBond NonConjugatedSingleBond NonConjugatedSingleBond NonConjugatedSingleBond NonConjugatedSingleBond NonConjugatedSingleBond NonConjugatedSingleBondInRing NonConjugatedSingleBondInRing NonConjugatedSingleBond NonConjugatedSingleBondInRing NonConjugatedSingleBond NonConjugatedSingleBond NonConjugatedSingleBondInRing NonConjugatedSingleBond NonConjugatedSingleBond NonConjugatedSingleBondInRing NonConjugatedSingleBond AromaticSingleBond AromaticSingleBond NonConjugatedSingleBond AromaticDoubleBond AromaticSingleBond AromaticSingleBond AromaticDoubleBond AromaticDoubleBond ConjugatedSingleBond AromaticSingleBond NonConjugatedSingleBond AromaticDoubleBond AromaticSingleBond NonConjugatedSingleBond NonConjugatedSingleBond NonConjugatedSingleBond ConjugatedSingleBond ConjugatedDoubleBond ConjugatedSingleBond ConjugatedSingleBond NonConjugatedSingleBond NonConjugatedSingleBond NonConjugatedSingleBond ConjugatedDoubleBond AmideSingleBond NonConjugatedSingleBond NonConjugatedSingleBond NonConjugatedSingleBond NonConjugatedSingleBond NonConjugatedSingleBond NonConjugatedSingleBond NonConjugatedSingleBond NonConjugatedSingleBond ConjugatedDoubleBond AmideSingleBond NonConjugatedSingleBond NonConjugatedSingleBond NonConjugatedSingleBond NonConjugatedSingleBond NonConjugatedSingleBond NonConjugatedSingleBond NonConjugatedSingleBond NonConjugatedSingleBond ConjugatedSingleBond ConjugatedDoubleBond NonConjugatedSingleBond NonConjugatedSingleBond NonConjugatedSingleBond NonConjugatedSingleBond ConjugatedDoubleBond ConjugatedSingleBond NonConjugatedSingleBond ConjugatedDoubleBond NonConjugatedSingleBond ConjugatedSingleBond AromaticDoubleBond AromaticSingleBond NonConjugatedSingleBond AromaticSingleBond AromaticDoubleBond ConjugatedSingleBond AromaticSingleBond ConjugatedSingleBond NonConjugatedSingleBond AromaticDoubleBond NonConjugatedSingleBond NonConjugatedSingleBond NonConjugatedSingleBond NonConjugatedSingleBond NonConjugatedSingleBond NonConjugatedSingleBond
M  BCL CHI  14   R  18   S  25   R  27   R  29   R  31   S  55   R
M  BCL DBI - - - - - - - - - - - E - - -
M  END
> <ConfClashScore>
0.00121122 

> <ConfOneFourInteractionScore>
-0.975583 

> <ConfScore>
0.205497 

> <ConfScorePBest>
0.00933049 

> <ConfTolerance>
2.96539 

$$$$
L03.****
  PyMOL2.5          3D                             0

105108  0  0  0  0  0  0  0  0999 V2000
   -6.3518   -2.6181   10.3717 C   0  0  0  1  0  0  0  0  0  0  0  0
   -6.6659   -3.2238   11.1958 H   0  0  0  1  0  0  0  0  0  0  0  0
   -7.0331   -1.8021   10.2490 H   0  0  0  1  0  0  0  0  0  0  0  0
   -5.3700   -2.2380   10.5625 H   0  0  0  1  0  0  0  0  0  0  0  0
   -6.3325   -3.4629    9.0944 C   0  0  0  1  0  0  0  0  0  0  0  0
   -6.8211   -4.8825    9.4058 C   0  0  0  1  0  0  0  0  0  0  0  0
   -6.1696   -5.5941    8.9431 H   0  0  0  1  0  0  0  0  0  0  0  0
   -7.8138   -5.0090    9.0269 H   0  0  0  1  0  0  0  0  0  0  0  0
   -6.8210   -5.0352   10.4649 H   0  0  0  1  0  0  0  0  0  0  0  0
   -4.9225   -3.5439    8.6092 C   0  0  0  1  0  0  0  0  0  0  0  0
   -4.3031   -3.9862    9.3614 H   0  0  0  1  0  0  0  0  0  0  0  0
   -4.5596   -2.5641    8.3786 H   0  0  0  1  0  0  0  0  0  0  0  0
   -4.9141   -4.3655    7.4182 O   0  0  0  1  0  0  0  0  0  0  0  0
   -3.9467   -4.0403    6.2205 P   0  0  0  1  0  0  0  0  0  0  0  0
   -3.9598   -5.4657    5.8224 O   0  0  0  1  0  0  0  0  0  0  0  0
   -5.0589   -2.8908    6.4772 O   0  5  0  1  0  0  0  0  0  0  0  0
   -2.9585   -3.7087    4.9972 O   0  0  0  1  0  0  0  0  0  0  0  0
   -1.5693   -4.3509    4.5239 P   0  0  0  1  0  0  0  0  0  0  0  0
   -1.3139   -5.5632    5.3222 O   0  0  0  0  0  0  0  0  0  0  0  0
   -0.5424   -3.2983    4.4916 O   0  0  0  1  0  0  0  0  0  0  0  0
   -1.8941   -4.7150    3.0190 O   0  0  0  1  0  0  0  0  0  0  0  0
   -1.7011   -3.6527    2.0493 C   0  0  0  1  0  0  0  0  0  0  0  0
   -0.7079   -3.6856    1.6525 H   0  0  0  1  0  0  0  0  0  0  0  0
   -1.8736   -2.6985    2.5017 H   0  0  0  1  0  0  0  0  0  0  0  0
   -2.7133   -3.9091    0.9580 C   0  0  0  1  0  0  0  0  0  0  0  0
   -3.6641   -4.1287    1.3970 H   0  0  0  1  0  0  0  0  0  0  0  0
   -2.2602   -5.0565    0.0735 C   0  0  0  1  0  0  0  0  0  0  0  0
   -2.6020   -5.9966    0.4534 H   0  0  0  1  0  0  0  0  0  0  0  0
   -2.9178   -4.7284   -1.2421 C   0  0  0  1  0  0  0  0  0  0  0  0
   -3.9470   -5.0210   -1.2479 H   0  0  0  1  0  0  0  0  0  0  0  0
   -2.7699   -3.2082   -1.2879 C   0  0  0  1  0  0  0  0  0  0  0  0
   -3.5748   -2.7677   -1.8383 H   0  0  0  1  0  0  0  0  0  0  0  0
   -2.8116   -2.7893    0.1034 O   0  0  0  1  0  0  0  0  0  0  0  0
   -1.4965   -2.8329   -1.9009 N   0  0  0  1  0  0  0  0  0  0  0  0
   -0.4486   -3.6532   -2.1866 C   0  0  0  1  0  0  0  0  0  0  0  0
   -0.4675   -4.6741   -1.9891 H   0  0  0  1  0  0  0  0  0  0  0  0
    0.5819   -3.0620   -2.7274 N   0  0  0  1  0  0  0  0  0  0  0  0
    0.1852   -1.7369   -2.8183 C   0  0  0  1  0  0  0  0  0  0  0  0
    0.7903   -0.5725   -3.2820 C   0  0  0  1  0  0  0  0  0  0  0  0
    0.1254    0.5867   -3.2286 N   0  0  0  1  0  0  0  0  0  0  0  0
   -1.1121    0.5791   -2.7085 C   0  0  0  1  0  0  0  0  0  0  0  0
   -1.5941    1.5003   -2.6809 H   0  0  0  1  0  0  0  0  0  0  0  0
   -1.8038   -0.4454   -2.2248 N   0  0  0  1  0  0  0  0  0  0  0  0
   -1.1102   -1.5817   -2.3070 C   0  0  0  1  0  0  0  0  0  0  0  0
    2.0808   -0.6141   -3.7985 N   0  0  0  1  0  0  0  0  0  0  0  0
    2.5837   -1.4552   -3.7933 H   0  0  0  1  0  0  0  0  0  0  0  0
    2.4872    0.1976   -4.1678 H   0  0  0  1  0  0  0  0  0  0  0  0
   -2.2390   -5.3512   -2.3337 O   0  0  0  1  0  0  0  0  0  0  0  0
   -2.3228   -4.8035   -3.1177 H   0  0  0  1  0  0  0  0  0  0  0  0
   -0.8219   -5.0821   -0.0532 O   0  0  0  1  0  0  0  0  0  0  0  0
    0.0887   -6.3924    0.3255 P   0  0  0  1  0  0  0  0  0  0  0  0
    0.1225   -6.6911    1.7747 O   0  0  0  1  0  0  0  0  0  0  0  0
   -0.4444   -7.6044   -0.6079 O   0  5  0  1  0  0  0  0  0  0  0  0
    1.6166   -6.0467   -0.0873 O   0  5  0  1  0  0  0  0  0  0  0  0
   -7.1438   -2.7920    7.9797 C   0  0  0  1  0  0  0  0  0  0  0  0
   -6.9616   -3.3226    7.0686 H   0  0  0  1  0  0  0  0  0  0  0  0
   -8.6273   -2.8695    8.2899 C   0  0  0  1  0  0  0  0  0  0  0  0
   -9.1022   -2.3555    9.3018 O   0  0  0  1  0  0  0  0  0  0  0  0
   -9.3371   -3.5388    7.3678 N   0  0  0  1  0  0  0  0  0  0  0  0
   -8.8432   -3.9590    6.6330 H   0  0  0  1  0  0  0  0  0  0  0  0
  -10.7880   -3.6877    7.3771 C   0  0  0  1  0  0  0  0  0  0  0  0
  -11.2050   -3.0294    6.6439 H   0  0  0  1  0  0  0  0  0  0  0  0
  -11.1539   -3.4204    8.3465 H   0  0  0  1  0  0  0  0  0  0  0  0
  -11.2303   -5.1078    7.0642 C   0  0  0  1  0  0  0  0  0  0  0  0
  -12.2966   -5.1567    7.1390 H   0  0  0  1  0  0  0  0  0  0  0  0
  -10.7912   -5.7675    7.7831 H   0  0  0  1  0  0  0  0  0  0  0  0
  -10.8253   -5.5617    5.6872 C   0  0  0  1  0  0  0  0  0  0  0  0
   -9.7416   -5.3289    5.1859 O   0  0  0  1  0  0  0  0  0  0  0  0
  -11.7412   -6.2592    5.0092 N   0  0  0  1  0  0  0  0  0  0  0  0
  -12.6319   -6.3761    5.4008 H   0  0  0  1  0  0  0  0  0  0  0  0
  -11.4620   -6.8514    3.7095 C   0  0  0  1  0  0  0  0  0  0  0  0
  -12.0857   -7.7098    3.5714 H   0  0  0  1  0  0  0  0  0  0  0  0
  -10.4343   -7.1464    3.6694 H   0  0  0  1  0  0  0  0  0  0  0  0
  -11.7370   -5.8544    2.6113 C   0  0  0  1  0  0  0  0  0  0  0  0
  -11.1104   -5.0022    2.7728 H   0  0  0  1  0  0  0  0  0  0  0  0
  -12.7637   -5.5608    2.6797 H   0  0  0  1  0  0  0  0  0  0  0  0
  -11.4382   -6.4593    0.9332 S   0  0  0  1  0  0  0  0  0  0  0  0
   -9.7025   -6.1820    0.6669 C   0  0  0  1  0  0  0  0  0  0  0  0
   -8.9652   -5.7390    1.5057 O   0  0  0  1  0  0  0  0  0  0  0  0
   -9.2688   -6.5662   -0.7266 C   0  0  0  1  0  0  0  0  0  0  0  0
   -9.8292   -5.9900   -1.4328 H   0  0  0  1  0  0  0  0  0  0  0  0
   -9.4696   -7.6067   -0.8751 H   0  0  0  1  0  0  0  0  0  0  0  0
   -7.7994   -6.3182   -0.9553 C   0  0  0  1  0  0  0  0  0  0  0  0
   -7.1243   -5.7800   -0.0956 O   0  0  0  1  0  0  0  0  0  0  0  0
   -7.2013   -6.7330   -2.2212 C   0  0  0  1  0  0  0  0  0  0  0  0
   -7.8821   -7.0643   -2.9342 H   0  0  0  1  0  0  0  0  0  0  0  0
   -5.9286   -6.7577   -2.6150 C   0  0  0  1  0  0  0  0  0  0  0  0
   -5.2281   -6.4310   -1.9192 H   0  0  0  1  0  0  0  0  0  0  0  0
   -5.3902   -7.1957   -3.9278 C   0  0  0  1  0  0  0  0  0  0  0  0
   -6.1751   -7.8253   -4.8754 C   0  0  0  1  0  0  0  0  0  0  0  0
   -7.1942   -7.9481   -4.7082 H   0  0  0  1  0  0  0  0  0  0  0  0
   -5.6038   -8.2929   -6.0485 C   0  0  0  1  0  0  0  0  0  0  0  0
   -4.2485   -8.1345   -6.2685 C   0  0  0  1  0  0  0  0  0  0  0  0
   -3.4614   -7.5030   -5.3180 C   0  0  0  1  0  0  0  0  0  0  0  0
   -2.4423   -7.3801   -5.4852 H   0  0  0  1  0  0  0  0  0  0  0  0
   -4.0309   -7.0367   -4.1482 C   0  0  0  1  0  0  0  0  0  0  0  0
   -3.4397   -6.5665   -3.4333 H   0  0  0  1  0  0  0  0  0  0  0  0
   -3.6165   -8.5708   -7.3909 O   0  5  0  1  0  0  0  0  0  0  0  0
   -6.2664   -8.9154   -7.0427 O   0  0  0  1  0  0  0  0  0  0  0  0
   -7.6958   -9.0261   -6.8501 C   0  0  0  1  0  0  0  0  0  0  0  0
   -7.8951   -9.4387   -5.8832 H   0  0  0  1  0  0  0  0  0  0  0  0
   -8.1083   -9.6656   -7.6024 H   0  0  0  1  0  0  0  0  0  0  0  0
   -8.1414   -8.0560   -6.9224 H   0  0  0  1  0  0  0  0  0  0  0  0
   -6.6770   -1.4522    7.8546 O   0  0  0  1  0  0  0  0  0  0  0  0
   -5.7806   -1.3923    8.1928 H   0  0  0  1  0  0  0  0  0  0  0  0
  1  2  1  0  0  0  0
  1  3  1  0  0  0  0
  1  4  1  0  0  0  0
  1  5  1  0  0  0  0
  5  6  1  0  0  0  0
  5 10  1  0  0  0  0
  5 55  1  0  0  0  0
  6  7  1  0  0  0  0
  6  8  1  0  0  0  0
  6  9  1  0  0  0  0
 10 11  1  0  0  0  0
 10 12  1  0  0  0  0
 10 13  1  0  0  0  0
 13 14  1  0  0  0  0
 14 15  2  0  0  0  0
 14 16  1  0  0  0  0
 14 17  1  0  0  0  0
 17 18  1  0  0  0  0
 18 19  1  0  0  0  0
 18 20  2  0  0  0  0
 18 21  1  0  0  0  0
 21 22  1  0  0  0  0
 22 23  1  0  0  0  0
 22 24  1  0  0  0  0
 22 25  1  0  0  0  0
 25 26  1  0  0  0  0
 25 27  1  0  0  0  0
 25 33  1  0  0  0  0
 27 28  1  0  0  0  0
 27 29  1  0  0  0  0
 27 50  1  0  0  0  0
 29 30  1  0  0  0  0
 29 31  1  0  0  0  0
 29 48  1  0  0  0  0
 31 32  1  0  0  0  0
 31 33  1  0  0  0  0
 31 34  1  0  0  0  0
 34 35  1  0  0  0  0
 34 44  1  0  0  0  0
 35 36  1  0  0  0  0
 35 37  2  0  0  0  0
 37 38  1  0  0  0  0
 38 39  1  0  0  0  0
 38 44  2  0  0  0  0
 39 40  2  0  0  0  0
 39 45  1  0  0  0  0
 40 41  1  0  0  0  0
 41 42  1  0  0  0  0
 41 43  2  0  0  0  0
 43 44  1  0  0  0  0
 45 46  1  0  0  0  0
 45 47  1  0  0  0  0
 48 49  1  0  0  0  0
 50 51  1  0  0  0  0
 51 52  2  0  0  0  0
 51 53  1  0  0  0  0
 51 54  1  0  0  0  0
 55 56  1  0  0  0  0
 55 57  1  0  0  0  0
 55104  1  0  0  0  0
 57 58  2  0  0  0  0
 57 59  1  0  0  0  0
 59 60  1  0  0  0  0
 59 61  1  0  0  0  0
 61 62  1  0  0  0  0
 61 63  1  0  0  0  0
 61 64  1  0  0  0  0
 64 65  1  0  0  0  0
 64 66  1  0  0  0  0
 64 67  1  0  0  0  0
 67 68  2  0  0  0  0
 67 69  1  0  0  0  0
 69 70  1  0  0  0  0
 69 71  1  0  0  0  0
 71 72  1  0  0  0  0
 71 73  1  0  0  0  0
 71 74  1  0  0  0  0
 74 75  1  0  0  0  0
 74 76  1  0  0  0  0
 74 77  1  0  0  0  0
 77 78  1  0  0  0  0
 78 79  2  0  0  0  0
 78 80  1  0  0  0  0
 80 81  1  0  0  0  0
 80 82  1  0  0  0  0
 80 83  1  0  0  0  0
 83 84  2  0  0  0  0
 83 85  1  0  0  0  0
 85 86  1  0  0  0  0
 85 87  2  0  0  0  0
 87 88  1  0  0  0  0
 87 89  1  0  0  0  0
 89 90  2  0  0  0  0
 89 96  1  0  0  0  0
 90 91  1  0  0  0  0
 90 92  1  0  0  0  0
 92 93  2  0  0  0  0
 92 99  1  0  0  0  0
 93 94  1  0  0  0  0
 93 98  1  0  0  0  0
 94 95  1  0  0  0  0
 94 96  2  0  0  0  0
 96 97  1  0  0  0  0
 99100  1  0  0  0  0
100101  1  0  0  0  0
100102  1  0  0  0  0
100103  1  0  0  0  0
104105  1  0  0  0  0
M  BCL ATM C_TeTeTeTe H_S H_S H_S C_TeTeTeTe C_TeTeTeTe H_S H_S H_S C_TeTeTeTe H_S H_S O_Tr2TrTrPi2 P_TeTeTeTePi O_Tr2Tr2TrPi O_Te2Te2Te2Te O_Tr2TrTrPi2 P_TeTeTeTePi O_Te2Te2TeTe O_Tr2Tr2TrPi O_Tr2TrTrPi2 C_TeTeTeTe H_S H_S C_TeTeTeTe H_S C_TeTeTeTe H_S C_TeTeTeTe H_S C_TeTeTeTe H_S O_Te2Te2TeTe N_TrTrTrPi2 C_TrTrTrPi H_S N_Tr2TrTrPi C_TrTrTrPi C_TrTrTrPi N_Tr2TrTrPi C_TrTrTrPi H_S N_Tr2TrTrPi C_TrTrTrPi N_TrTrTrPi2 H_S H_S O_Te2Te2TeTe H_S O_Tr2TrTrPi2 P_TeTeTeTePi O_Tr2Tr2TrPi O_Te2Te2Te2Te O_Te2Te2Te2Te C_TeTeTeTe H_S C_TrTrTrPi O_Tr2Tr2TrPi N_TrTrTrPi2 H_S C_TeTeTeTe H_S H_S C_TeTeTeTe H_S H_S C_TrTrTrPi O_Tr2Tr2TrPi N_TrTrTrPi2 H_S C_TeTeTeTe H_S H_S C_TeTeTeTe H_S H_S S_Te2Te2TeTe C_TrTrTrPi O_Tr2Tr2TrPi C_TeTeTeTe H_S H_S C_TrTrTrPi O_Tr2Tr2TrPi C_TrTrTrPi H_S C_TrTrTrPi H_S C_TrTrTrPi C_TrTrTrPi H_S C_TrTrTrPi C_TrTrTrPi C_TrTrTrPi H_S C_TrTrTrPi H_S O_Te2Te2Te2Te O_Tr2TrTrPi2 C_TeTeTeTe H_S H_S H_S O_Te2Te2TeTe H_S
M  BCL BND NonConjugatedSingleBond NonConjugatedSingleBond NonConjugatedSingleBond NonConjugatedSingleBond NonConjugatedSingleBond NonConjugatedSingleBond NonConjugatedSingleBond NonConjugatedSingleBond NonConjugatedSingleBond NonConjugatedSingleBond NonConjugatedSingleBond NonConjugatedSingleBond NonConjugatedSingleBond ConjugatedSingleBond ConjugatedDoubleBond ConjugatedSingleBond ConjugatedSingleBond ConjugatedSingleBond ConjugatedSingleBond ConjugatedDoubleBond ConjugatedSingleBond NonConjugatedSingleBond NonConjugatedSingleBond NonConjugatedSingleBond NonConjugatedSingleBond NonConjugatedSingleBond NonConjugatedSingleBondInRing NonConjugatedSingleBondInRing NonConjugatedSingleBond NonConjugatedSingleBondInRing NonConjugatedSingleBond NonConjugatedSingleBond NonConjugatedSingleBondInRing NonConjugatedSingleBond NonConjugatedSingleBond NonConjugatedSingleBondInRing NonConjugatedSingleBond AromaticSingleBond AromaticSingleBond NonConjugatedSingleBond AromaticDoubleBond AromaticSingleBond AromaticSingleBond AromaticDoubleBond AromaticDoubleBond ConjugatedSingleBond AromaticSingleBond NonConjugatedSingleBond AromaticDoubleBond AromaticSingleBond NonConjugatedSingleBond NonConjugatedSingleBond NonConjugatedSingleBond ConjugatedSingleBond ConjugatedDoubleBond ConjugatedSingleBond ConjugatedSingleBond NonConjugatedSingleBond NonConjugatedSingleBond NonConjugatedSingleBond ConjugatedDoubleBond AmideSingleBond NonConjugatedSingleBond NonConjugatedSingleBond NonConjugatedSingleBond NonConjugatedSingleBond NonConjugatedSingleBond NonConjugatedSingleBond NonConjugatedSingleBond NonConjugatedSingleBond ConjugatedDoubleBond AmideSingleBond NonConjugatedSingleBond NonConjugatedSingleBond NonConjugatedSingleBond NonConjugatedSingleBond NonConjugatedSingleBond NonConjugatedSingleBond NonConjugatedSingleBond NonConjugatedSingleBond ConjugatedSingleBond ConjugatedDoubleBond NonConjugatedSingleBond NonConjugatedSingleBond NonConjugatedSingleBond NonConjugatedSingleBond ConjugatedDoubleBond ConjugatedSingleBond NonConjugatedSingleBond ConjugatedDoubleBond NonConjugatedSingleBond ConjugatedSingleBond AromaticDoubleBond AromaticSingleBond NonConjugatedSingleBond AromaticSingleBond AromaticDoubleBond ConjugatedSingleBond AromaticSingleBond ConjugatedSingleBond NonConjugatedSingleBond AromaticDoubleBond NonConjugatedSingleBond NonConjugatedSingleBond NonConjugatedSingleBond NonConjugatedSingleBond NonConjugatedSingleBond NonConjugatedSingleBond
M  BCL CHI  14   R  18   S  25   R  27   R  29   R  31   S  55   R
M  BCL DBI - - - - - - - - - - - E - - -
M  END
> <ConfClashScore>
0.00169258 

> <ConfOneFourInteractionScore>
-0.975254 

> <ConfScore>
0.207856 

> <ConfScorePBest>
0.00922749 

> <ConfTolerance>
3.04517 

$$$$
L03.****
  PyMOL2.5          3D                             0

105108  0  0  0  0  0  0  0  0999 V2000
  -11.7794    0.6049   -7.9940 C   0  0  0  1  0  0  0  0  0  0  0  0
  -11.2669   -0.3289   -8.0953 H   0  0  0  1  0  0  0  0  0  0  0  0
  -12.0320    0.9799   -8.9638 H   0  0  0  1  0  0  0  0  0  0  0  0
  -12.6727    0.4611   -7.4228 H   0  0  0  1  0  0  0  0  0  0  0  0
  -10.8717    1.6118   -7.2775 C   0  0  0  1  0  0  0  0  0  0  0  0
   -9.9896    2.3183   -8.3138 C   0  0  0  1  0  0  0  0  0  0  0  0
   -9.5998    1.5975   -9.0019 H   0  0  0  1  0  0  0  0  0  0  0  0
   -9.1801    2.8106   -7.8166 H   0  0  0  1  0  0  0  0  0  0  0  0
  -10.5734    3.0399   -8.8462 H   0  0  0  1  0  0  0  0  0  0  0  0
  -10.0142    0.9355   -6.2590 C   0  0  0  1  0  0  0  0  0  0  0  0
   -9.3731    0.2244   -6.7366 H   0  0  0  1  0  0  0  0  0  0  0  0
  -10.6285    0.4357   -5.5394 H   0  0  0  1  0  0  0  0  0  0  0  0
   -9.2205    1.9544   -5.6065 O   0  0  0  1  0  0  0  0  0  0  0  0
   -7.9670    1.5671   -4.7376 P   0  0  0  1  0  0  0  0  0  0  0  0
   -8.8171    0.6907   -3.9012 O   0  0  0  1  0  0  0  0  0  0  0  0
   -7.6346    1.7068   -6.3170 O   0  5  0  1  0  0  0  0  0  0  0  0
   -6.7005    1.1754   -3.8593 O   0  0  0  1  0  0  0  0  0  0  0  0
   -5.9788    1.6515   -2.5211 P   0  0  0  1  0  0  0  0  0  0  0  0
   -6.9232    2.3515   -1.6309 O   0  0  0  0  0  0  0  0  0  0  0  0
   -4.7439    2.3195   -2.9687 O   0  0  0  1  0  0  0  0  0  0  0  0
   -5.6424    0.3143   -1.7555 O   0  0  0  1  0  0  0  0  0  0  0  0
   -4.8974   -0.6794   -2.5043 C   0  0  0  1  0  0  0  0  0  0  0  0
   -3.9101   -0.3192   -2.7058 H   0  0  0  1  0  0  0  0  0  0  0  0
   -5.3961   -0.8896   -3.4273 H   0  0  0  1  0  0  0  0  0  0  0  0
   -4.8260   -1.9373   -1.6568 C   0  0  0  1  0  0  0  0  0  0  0  0
   -5.8028   -2.3653   -1.5699 H   0  0  0  1  0  0  0  0  0  0  0  0
   -4.2932   -1.6039   -0.2946 C   0  0  0  1  0  0  0  0  0  0  0  0
   -5.0124   -1.8704    0.4515 H   0  0  0  1  0  0  0  0  0  0  0  0
   -3.0303   -2.3853   -0.0857 C   0  0  0  1  0  0  0  0  0  0  0  0
   -3.1383   -3.0301    0.7614 H   0  0  0  1  0  0  0  0  0  0  0  0
   -2.7818   -3.2026   -1.3193 C   0  0  0  1  0  0  0  0  0  0  0  0
   -2.7696   -4.2429   -1.0692 H   0  0  0  1  0  0  0  0  0  0  0  0
   -3.8919   -2.9254   -2.2902 O   0  0  0  1  0  0  0  0  0  0  0  0
   -1.4989   -2.8280   -1.9125 N   0  0  0  1  0  0  0  0  0  0  0  0
   -0.4445   -3.6534   -2.1983 C   0  0  0  1  0  0  0  0  0  0  0  0
   -0.4625   -4.6756   -2.0071 H   0  0  0  1  0  0  0  0  0  0  0  0
    0.5850   -3.0529   -2.7303 N   0  0  0  1  0  0  0  0  0  0  0  0
    0.1845   -1.7334   -2.7996 C   0  0  0  1  0  0  0  0  0  0  0  0
    0.7999   -0.5714   -3.2716 C   0  0  0  1  0  0  0  0  0  0  0  0
    0.1452    0.5929   -3.2066 N   0  0  0  1  0  0  0  0  0  0  0  0
   -1.1049    0.5828   -2.6967 C   0  0  0  1  0  0  0  0  0  0  0  0
   -1.5881    1.5034   -2.6712 H   0  0  0  1  0  0  0  0  0  0  0  0
   -1.8016   -0.4465   -2.2224 N   0  0  0  1  0  0  0  0  0  0  0  0
   -1.0973   -1.5773   -2.2998 C   0  0  0  1  0  0  0  0  0  0  0  0
    2.0641   -0.6242   -3.7968 N   0  0  0  1  0  0  0  0  0  0  0  0
    2.4489    0.1671   -4.2284 H   0  0  0  1  0  0  0  0  0  0  0  0
    2.5837   -1.4532   -3.7409 H   0  0  0  1  0  0  0  0  0  0  0  0
   -1.9516   -1.5029    0.1290 O   0  0  0  1  0  0  0  0  0  0  0  0
   -2.2619   -0.7260    0.5998 H   0  0  0  1  0  0  0  0  0  0  0  0
   -4.0121   -0.1832   -0.2106 O   0  0  0  1  0  0  0  0  0  0  0  0
   -4.1553    0.6195    1.2123 P   0  0  0  1  0  0  0  0  0  0  0  0
   -3.6742    2.0186    1.2494 O   0  0  0  1  0  0  0  0  0  0  0  0
   -5.6303    0.4285    1.8545 O   0  5  0  1  0  0  0  0  0  0  0  0
   -3.2898   -0.2161    2.2971 O   0  5  0  1  0  0  0  0  0  0  0  0
  -11.7494    2.6679   -6.5906 C   0  0  0  1  0  0  0  0  0  0  0  0
  -12.2097    2.2139   -5.7380 H   0  0  0  1  0  0  0  0  0  0  0  0
  -10.8969    3.8358   -6.1113 C   0  0  0  1  0  0  0  0  0  0  0  0
  -10.2078    4.4914   -6.8883 O   0  0  0  1  0  0  0  0  0  0  0  0
  -10.9818    4.0599   -4.7855 N   0  0  0  1  0  0  0  0  0  0  0  0
  -11.5265    3.4699   -4.2237 H   0  0  0  1  0  0  0  0  0  0  0  0
  -10.2661    5.1763   -4.1858 C   0  0  0  1  0  0  0  0  0  0  0  0
   -9.9392    5.8323   -4.9653 H   0  0  0  1  0  0  0  0  0  0  0  0
   -9.4160    4.7955   -3.6594 H   0  0  0  1  0  0  0  0  0  0  0  0
  -11.1290    5.9677   -3.2117 C   0  0  0  1  0  0  0  0  0  0  0  0
  -12.0370    6.2423   -3.7067 H   0  0  0  1  0  0  0  0  0  0  0  0
  -10.5970    6.8508   -2.9254 H   0  0  0  1  0  0  0  0  0  0  0  0
  -11.4789    5.1877   -1.9593 C   0  0  0  1  0  0  0  0  0  0  0  0
  -10.9904    5.4791   -0.8684 O   0  0  0  1  0  0  0  0  0  0  0  0
  -12.3445    4.1752   -2.1256 N   0  0  0  1  0  0  0  0  0  0  0  0
  -12.6678    3.9507   -3.0231 H   0  0  0  1  0  0  0  0  0  0  0  0
  -12.8037    3.4102   -0.9759 C   0  0  0  1  0  0  0  0  0  0  0  0
  -11.9627    3.1907   -0.3520 H   0  0  0  1  0  0  0  0  0  0  0  0
  -13.2386    2.4965   -1.3237 H   0  0  0  1  0  0  0  0  0  0  0  0
  -13.8331    4.1558   -0.1569 C   0  0  0  1  0  0  0  0  0  0  0  0
  -14.6358    4.4341   -0.8074 H   0  0  0  1  0  0  0  0  0  0  0  0
  -13.3695    5.0367    0.2354 H   0  0  0  1  0  0  0  0  0  0  0  0
  -14.5289    3.2294    1.2234 S   0  0  0  1  0  0  0  0  0  0  0  0
  -16.0187    2.5313    0.5012 C   0  0  0  1  0  0  0  0  0  0  0  0
  -16.3834    2.8179   -0.6094 O   0  0  0  1  0  0  0  0  0  0  0  0
  -16.6744    1.4819    1.3650 C   0  0  0  1  0  0  0  0  0  0  0  0
  -17.6651    1.3062    1.0011 H   0  0  0  1  0  0  0  0  0  0  0  0
  -16.7223    1.8443    2.3706 H   0  0  0  1  0  0  0  0  0  0  0  0
  -15.9156    0.1791    1.3546 C   0  0  0  1  0  0  0  0  0  0  0  0
  -16.2253   -0.7093    0.5769 O   0  0  0  1  0  0  0  0  0  0  0  0
  -14.8077   -0.0007    2.2878 C   0  0  0  1  0  0  0  0  0  0  0  0
  -14.5764    0.8178    2.8863 H   0  0  0  1  0  0  0  0  0  0  0  0
  -14.0571   -1.0872    2.4651 C   0  0  0  1  0  0  0  0  0  0  0  0
  -14.2541   -1.9290    1.8870 H   0  0  0  1  0  0  0  0  0  0  0  0
  -12.9536   -1.1456    3.4516 C   0  0  0  1  0  0  0  0  0  0  0  0
  -11.9651   -2.1014    3.3126 C   0  0  0  1  0  0  0  0  0  0  0  0
  -12.0014   -2.7759    2.5218 H   0  0  0  1  0  0  0  0  0  0  0  0
  -10.9253   -2.1610    4.2273 C   0  0  0  1  0  0  0  0  0  0  0  0
  -10.8798   -1.2681    5.2813 C   0  0  0  1  0  0  0  0  0  0  0  0
  -11.8714   -0.3094    5.4205 C   0  0  0  1  0  0  0  0  0  0  0  0
  -11.8351    0.3651    6.2113 H   0  0  0  1  0  0  0  0  0  0  0  0
  -12.9082   -0.2499    4.5086 C   0  0  0  1  0  0  0  0  0  0  0  0
  -13.6543    0.4668    4.6153 H   0  0  0  1  0  0  0  0  0  0  0  0
   -9.9151   -1.2347    6.2393 O   0  5  0  1  0  0  0  0  0  0  0  0
  -10.0145   -3.1337    3.9861 O   0  0  0  1  0  0  0  0  0  0  0  0
   -9.8850   -3.5899    2.6305 C   0  0  0  1  0  0  0  0  0  0  0  0
  -10.6990   -4.2430    2.3941 H   0  0  0  1  0  0  0  0  0  0  0  0
   -8.9608   -4.1175    2.5188 H   0  0  0  1  0  0  0  0  0  0  0  0
   -9.8987   -2.7493    1.9687 H   0  0  0  1  0  0  0  0  0  0  0  0
  -12.7419    3.1196   -7.4844 O   0  0  0  1  0  0  0  0  0  0  0  0
  -13.2478    2.3702   -7.8069 H   0  0  0  1  0  0  0  0  0  0  0  0
  1  2  1  0  0  0  0
  1  3  1  0  0  0  0
  1  4  1  0  0  0  0
  1  5  1  0  0  0  0
  5  6  1  0  0  0  0
  5 10  1  0  0  0  0
  5 55  1  0  0  0  0
  6  7  1  0  0  0  0
  6  8  1  0  0  0  0
  6  9  1  0  0  0  0
 10 11  1  0  0  0  0
 10 12  1  0  0  0  0
 10 13  1  0  0  0  0
 13 14  1  0  0  0  0
 14 15  2  0  0  0  0
 14 16  1  0  0  0  0
 14 17  1  0  0  0  0
 17 18  1  0  0  0  0
 18 19  1  0  0  0  0
 18 20  2  0  0  0  0
 18 21  1  0  0  0  0
 21 22  1  0  0  0  0
 22 23  1  0  0  0  0
 22 24  1  0  0  0  0
 22 25  1  0  0  0  0
 25 26  1  0  0  0  0
 25 27  1  0  0  0  0
 25 33  1  0  0  0  0
 27 28  1  0  0  0  0
 27 29  1  0  0  0  0
 27 50  1  0  0  0  0
 29 30  1  0  0  0  0
 29 31  1  0  0  0  0
 29 48  1  0  0  0  0
 31 32  1  0  0  0  0
 31 33  1  0  0  0  0
 31 34  1  0  0  0  0
 34 35  1  0  0  0  0
 34 44  1  0  0  0  0
 35 36  1  0  0  0  0
 35 37  2  0  0  0  0
 37 38  1  0  0  0  0
 38 39  1  0  0  0  0
 38 44  2  0  0  0  0
 39 40  2  0  0  0  0
 39 45  1  0  0  0  0
 40 41  1  0  0  0  0
 41 42  1  0  0  0  0
 41 43  2  0  0  0  0
 43 44  1  0  0  0  0
 45 46  1  0  0  0  0
 45 47  1  0  0  0  0
 48 49  1  0  0  0  0
 50 51  1  0  0  0  0
 51 52  2  0  0  0  0
 51 53  1  0  0  0  0
 51 54  1  0  0  0  0
 55 56  1  0  0  0  0
 55 57  1  0  0  0  0
 55104  1  0  0  0  0
 57 58  2  0  0  0  0
 57 59  1  0  0  0  0
 59 60  1  0  0  0  0
 59 61  1  0  0  0  0
 61 62  1  0  0  0  0
 61 63  1  0  0  0  0
 61 64  1  0  0  0  0
 64 65  1  0  0  0  0
 64 66  1  0  0  0  0
 64 67  1  0  0  0  0
 67 68  2  0  0  0  0
 67 69  1  0  0  0  0
 69 70  1  0  0  0  0
 69 71  1  0  0  0  0
 71 72  1  0  0  0  0
 71 73  1  0  0  0  0
 71 74  1  0  0  0  0
 74 75  1  0  0  0  0
 74 76  1  0  0  0  0
 74 77  1  0  0  0  0
 77 78  1  0  0  0  0
 78 79  2  0  0  0  0
 78 80  1  0  0  0  0
 80 81  1  0  0  0  0
 80 82  1  0  0  0  0
 80 83  1  0  0  0  0
 83 84  2  0  0  0  0
 83 85  1  0  0  0  0
 85 86  1  0  0  0  0
 85 87  2  0  0  0  0
 87 88  1  0  0  0  0
 87 89  1  0  0  0  0
 89 90  2  0  0  0  0
 89 96  1  0  0  0  0
 90 91  1  0  0  0  0
 90 92  1  0  0  0  0
 92 93  2  0  0  0  0
 92 99  1  0  0  0  0
 93 94  1  0  0  0  0
 93 98  1  0  0  0  0
 94 95  1  0  0  0  0
 94 96  2  0  0  0  0
 96 97  1  0  0  0  0
 99100  1  0  0  0  0
100101  1  0  0  0  0
100102  1  0  0  0  0
100103  1  0  0  0  0
104105  1  0  0  0  0
M  BCL ATM C_TeTeTeTe H_S H_S H_S C_TeTeTeTe C_TeTeTeTe H_S H_S H_S C_TeTeTeTe H_S H_S O_Tr2TrTrPi2 P_TeTeTeTePi O_Tr2Tr2TrPi O_Te2Te2Te2Te O_Tr2TrTrPi2 P_TeTeTeTePi O_Te2Te2TeTe O_Tr2Tr2TrPi O_Tr2TrTrPi2 C_TeTeTeTe H_S H_S C_TeTeTeTe H_S C_TeTeTeTe H_S C_TeTeTeTe H_S C_TeTeTeTe H_S O_Te2Te2TeTe N_TrTrTrPi2 C_TrTrTrPi H_S N_Tr2TrTrPi C_TrTrTrPi C_TrTrTrPi N_Tr2TrTrPi C_TrTrTrPi H_S N_Tr2TrTrPi C_TrTrTrPi N_TrTrTrPi2 H_S H_S O_Te2Te2TeTe H_S O_Tr2TrTrPi2 P_TeTeTeTePi O_Tr2Tr2TrPi O_Te2Te2Te2Te O_Te2Te2Te2Te C_TeTeTeTe H_S C_TrTrTrPi O_Tr2Tr2TrPi N_TrTrTrPi2 H_S C_TeTeTeTe H_S H_S C_TeTeTeTe H_S H_S C_TrTrTrPi O_Tr2Tr2TrPi N_TrTrTrPi2 H_S C_TeTeTeTe H_S H_S C_TeTeTeTe H_S H_S S_Te2Te2TeTe C_TrTrTrPi O_Tr2Tr2TrPi C_TeTeTeTe H_S H_S C_TrTrTrPi O_Tr2Tr2TrPi C_TrTrTrPi H_S C_TrTrTrPi H_S C_TrTrTrPi C_TrTrTrPi H_S C_TrTrTrPi C_TrTrTrPi C_TrTrTrPi H_S C_TrTrTrPi H_S O_Te2Te2Te2Te O_Tr2TrTrPi2 C_TeTeTeTe H_S H_S H_S O_Te2Te2TeTe H_S
M  BCL BND NonConjugatedSingleBond NonConjugatedSingleBond NonConjugatedSingleBond NonConjugatedSingleBond NonConjugatedSingleBond NonConjugatedSingleBond NonConjugatedSingleBond NonConjugatedSingleBond NonConjugatedSingleBond NonConjugatedSingleBond NonConjugatedSingleBond NonConjugatedSingleBond NonConjugatedSingleBond ConjugatedSingleBond ConjugatedDoubleBond ConjugatedSingleBond ConjugatedSingleBond ConjugatedSingleBond ConjugatedSingleBond ConjugatedDoubleBond ConjugatedSingleBond NonConjugatedSingleBond NonConjugatedSingleBond NonConjugatedSingleBond NonConjugatedSingleBond NonConjugatedSingleBond NonConjugatedSingleBondInRing NonConjugatedSingleBondInRing NonConjugatedSingleBond NonConjugatedSingleBondInRing NonConjugatedSingleBond NonConjugatedSingleBond NonConjugatedSingleBondInRing NonConjugatedSingleBond NonConjugatedSingleBond NonConjugatedSingleBondInRing NonConjugatedSingleBond AromaticSingleBond AromaticSingleBond NonConjugatedSingleBond AromaticDoubleBond AromaticSingleBond AromaticSingleBond AromaticDoubleBond AromaticDoubleBond ConjugatedSingleBond AromaticSingleBond NonConjugatedSingleBond AromaticDoubleBond AromaticSingleBond NonConjugatedSingleBond NonConjugatedSingleBond NonConjugatedSingleBond ConjugatedSingleBond ConjugatedDoubleBond ConjugatedSingleBond ConjugatedSingleBond NonConjugatedSingleBond NonConjugatedSingleBond NonConjugatedSingleBond ConjugatedDoubleBond AmideSingleBond NonConjugatedSingleBond NonConjugatedSingleBond NonConjugatedSingleBond NonConjugatedSingleBond NonConjugatedSingleBond NonConjugatedSingleBond NonConjugatedSingleBond NonConjugatedSingleBond ConjugatedDoubleBond AmideSingleBond NonConjugatedSingleBond NonConjugatedSingleBond NonConjugatedSingleBond NonConjugatedSingleBond NonConjugatedSingleBond NonConjugatedSingleBond NonConjugatedSingleBond NonConjugatedSingleBond ConjugatedSingleBond ConjugatedDoubleBond NonConjugatedSingleBond NonConjugatedSingleBond NonConjugatedSingleBond NonConjugatedSingleBond ConjugatedDoubleBond ConjugatedSingleBond NonConjugatedSingleBond ConjugatedDoubleBond NonConjugatedSingleBond ConjugatedSingleBond AromaticDoubleBond AromaticSingleBond NonConjugatedSingleBond AromaticSingleBond AromaticDoubleBond ConjugatedSingleBond AromaticSingleBond ConjugatedSingleBond NonConjugatedSingleBond AromaticDoubleBond NonConjugatedSingleBond NonConjugatedSingleBond NonConjugatedSingleBond NonConjugatedSingleBond NonConjugatedSingleBond NonConjugatedSingleBond
M  BCL CHI  14   R  18   S  25   R  27   R  29   R  31   S  55   R
M  BCL DBI - - - - - - - - - - - E - - -
M  END
> <ConfClashScore>
0 

> <ConfOneFourInteractionScore>
-0.968581 

> <ConfScore>
0.209166 

> <ConfScorePBest>
0.00912449 

> <ConfTolerance>
3.00776 

$$$$
L03.****
  PyMOL2.5          3D                             0

105108  0  0  0  0  0  0  0  0999 V2000
    1.2585   -9.8423   -7.9823 C   0  0  0  1  0  0  0  0  0  0  0  0
    1.2564   -8.9846   -7.3426 H   0  0  0  1  0  0  0  0  0  0  0  0
    2.1904   -9.8946   -8.5054 H   0  0  0  1  0  0  0  0  0  0  0  0
    1.1293  -10.7263   -7.3934 H   0  0  0  1  0  0  0  0  0  0  0  0
    0.1110   -9.7298   -8.9931 C   0  0  0  1  0  0  0  0  0  0  0  0
    0.3410   -8.5218   -9.9092 C   0  0  0  1  0  0  0  0  0  0  0  0
   -0.5057   -7.8696   -9.8596 H   0  0  0  1  0  0  0  0  0  0  0  0
    0.4733   -8.8583  -10.9162 H   0  0  0  1  0  0  0  0  0  0  0  0
    1.2161   -7.9947   -9.5909 H   0  0  0  1  0  0  0  0  0  0  0  0
   -1.1646   -9.5648   -8.2699 C   0  0  0  1  0  0  0  0  0  0  0  0
   -1.2972  -10.3864   -7.5974 H   0  0  0  1  0  0  0  0  0  0  0  0
   -1.9695   -9.5468   -8.9748 H   0  0  0  1  0  0  0  0  0  0  0  0
   -1.1625   -8.3260   -7.5158 O   0  0  0  1  0  0  0  0  0  0  0  0
   -2.4215   -7.7887   -6.7399 P   0  0  0  1  0  0  0  0  0  0  0  0
   -1.5343   -7.1444   -5.7458 O   0  0  0  1  0  0  0  0  0  0  0  0
   -2.5938   -7.7459   -8.3501 O   0  5  0  1  0  0  0  0  0  0  0  0
   -3.7067   -7.2398   -5.9472 O   0  0  0  1  0  0  0  0  0  0  0  0
   -4.4870   -7.8492   -4.7464 P   0  0  0  1  0  0  0  0  0  0  0  0
   -3.6011   -8.8623   -4.0153 O   0  0  0  0  0  0  0  0  0  0  0  0
   -5.7409   -8.4328   -5.2777 O   0  0  0  1  0  0  0  0  0  0  0  0
   -4.7499   -6.7116   -3.6915 O   0  0  0  1  0  0  0  0  0  0  0  0
   -3.5760   -6.1272   -3.0797 C   0  0  0  1  0  0  0  0  0  0  0  0
   -3.0064   -5.5989   -3.8155 H   0  0  0  1  0  0  0  0  0  0  0  0
   -2.9717   -6.8952   -2.6438 H   0  0  0  1  0  0  0  0  0  0  0  0
   -4.0453   -5.1705   -2.0073 C   0  0  0  1  0  0  0  0  0  0  0  0
   -4.7518   -5.6637   -1.3728 H   0  0  0  1  0  0  0  0  0  0  0  0
   -4.6820   -3.9687   -2.6404 C   0  0  0  1  0  0  0  0  0  0  0  0
   -5.6967   -3.8806   -2.3125 H   0  0  0  1  0  0  0  0  0  0  0  0
   -3.9051   -2.7563   -2.2213 C   0  0  0  1  0  0  0  0  0  0  0  0
   -4.5436   -2.0815   -1.6903 H   0  0  0  1  0  0  0  0  0  0  0  0
   -2.7872   -3.2085   -1.3283 C   0  0  0  1  0  0  0  0  0  0  0  0
   -2.8848   -2.7525   -0.3653 H   0  0  0  1  0  0  0  0  0  0  0  0
   -2.8742   -4.7007   -1.1963 O   0  0  0  1  0  0  0  0  0  0  0  0
   -1.4994   -2.8361   -1.9172 N   0  0  0  1  0  0  0  0  0  0  0  0
   -0.4548   -3.6632   -2.1976 C   0  0  0  1  0  0  0  0  0  0  0  0
   -0.4803   -4.6876   -2.0201 H   0  0  0  1  0  0  0  0  0  0  0  0
    0.5927   -3.0496   -2.7145 N   0  0  0  1  0  0  0  0  0  0  0  0
    0.1723   -1.7216   -2.7920 C   0  0  0  1  0  0  0  0  0  0  0  0
    0.8118   -0.5683   -3.2786 C   0  0  0  1  0  0  0  0  0  0  0  0
    0.1291    0.6003   -3.2084 N   0  0  0  1  0  0  0  0  0  0  0  0
   -1.1105    0.5827   -2.6867 C   0  0  0  1  0  0  0  0  0  0  0  0
   -1.5894    1.5053   -2.6535 H   0  0  0  1  0  0  0  0  0  0  0  0
   -1.8169   -0.4402   -2.2059 N   0  0  0  1  0  0  0  0  0  0  0  0
   -1.0943   -1.5749   -2.3023 C   0  0  0  1  0  0  0  0  0  0  0  0
    2.0848   -0.6238   -3.8070 N   0  0  0  1  0  0  0  0  0  0  0  0
    2.4386    0.1368   -4.3137 H   0  0  0  1  0  0  0  0  0  0  0  0
    2.6353   -1.4238   -3.6758 H   0  0  0  1  0  0  0  0  0  0  0  0
   -3.3710   -2.1010   -3.3726 O   0  0  0  1  0  0  0  0  0  0  0  0
   -4.0855   -1.8729   -3.9718 H   0  0  0  1  0  0  0  0  0  0  0  0
   -4.6495   -4.0986   -4.0865 O   0  0  0  1  0  0  0  0  0  0  0  0
   -5.9631   -4.6293   -4.9127 P   0  0  0  1  0  0  0  0  0  0  0  0
   -6.8546   -5.6102   -4.2543 O   0  0  0  1  0  0  0  0  0  0  0  0
   -6.9140   -3.3557   -5.2259 O   0  5  0  1  0  0  0  0  0  0  0  0
   -5.4354   -5.1629   -6.3484 O   0  5  0  1  0  0  0  0  0  0  0  0
    0.0493  -11.0051   -9.8382 C   0  0  0  1  0  0  0  0  0  0  0  0
    0.9910  -11.1355  -10.3294 H   0  0  0  1  0  0  0  0  0  0  0  0
   -0.1916  -12.1874   -8.9210 C   0  0  0  1  0  0  0  0  0  0  0  0
    0.7039  -12.6482   -8.2142 O   0  0  0  1  0  0  0  0  0  0  0  0
   -1.4396  -12.6546   -8.9654 N   0  0  0  1  0  0  0  0  0  0  0  0
   -2.0404  -12.2938   -9.6504 H   0  0  0  1  0  0  0  0  0  0  0  0
   -1.9663  -13.6663   -8.0616 C   0  0  0  1  0  0  0  0  0  0  0  0
   -1.1394  -14.1906   -7.6301 H   0  0  0  1  0  0  0  0  0  0  0  0
   -2.5616  -14.3469   -8.6337 H   0  0  0  1  0  0  0  0  0  0  0  0
   -2.8259  -13.1214   -6.9284 C   0  0  0  1  0  0  0  0  0  0  0  0
   -3.7497  -12.7717   -7.3396 H   0  0  0  1  0  0  0  0  0  0  0  0
   -2.3075  -12.3054   -6.4697 H   0  0  0  1  0  0  0  0  0  0  0  0
   -3.1304  -14.1499   -5.8723 C   0  0  0  1  0  0  0  0  0  0  0  0
   -2.2246  -14.6984   -5.2459 O   0  0  0  1  0  0  0  0  0  0  0  0
   -4.4174  -14.4494   -5.6355 N   0  0  0  1  0  0  0  0  0  0  0  0
   -5.1270  -13.9639   -6.1059 H   0  0  0  1  0  0  0  0  0  0  0  0
   -4.7612  -15.4935   -4.6818 C   0  0  0  1  0  0  0  0  0  0  0  0
   -3.9631  -16.2055   -4.6505 H   0  0  0  1  0  0  0  0  0  0  0  0
   -5.6578  -15.9762   -5.0102 H   0  0  0  1  0  0  0  0  0  0  0  0
   -4.9846  -14.9534   -3.2849 C   0  0  0  1  0  0  0  0  0  0  0  0
   -5.2332  -15.7761   -2.6475 H   0  0  0  1  0  0  0  0  0  0  0  0
   -5.8064  -14.2692   -3.3218 H   0  0  0  1  0  0  0  0  0  0  0  0
   -3.5667  -14.0891   -2.5587 S   0  0  0  1  0  0  0  0  0  0  0  0
   -3.6779  -12.4772   -3.3159 C   0  0  0  1  0  0  0  0  0  0  0  0
   -4.6152  -12.3156   -4.0807 O   0  0  0  1  0  0  0  0  0  0  0  0
   -2.6575  -11.4103   -3.0031 C   0  0  0  1  0  0  0  0  0  0  0  0
   -1.9906  -11.7940   -2.2594 H   0  0  0  1  0  0  0  0  0  0  0  0
   -3.1742  -10.5581   -2.6138 H   0  0  0  1  0  0  0  0  0  0  0  0
   -1.8359  -10.9625   -4.1853 C   0  0  0  1  0  0  0  0  0  0  0  0
   -2.3756  -10.6989   -5.2472 O   0  0  0  1  0  0  0  0  0  0  0  0
   -0.3881  -10.8502   -4.0375 C   0  0  0  1  0  0  0  0  0  0  0  0
    0.1495  -10.6837   -4.9120 H   0  0  0  1  0  0  0  0  0  0  0  0
    0.3277  -10.9355   -2.9168 C   0  0  0  1  0  0  0  0  0  0  0  0
   -0.1926  -11.1019   -2.0319 H   0  0  0  1  0  0  0  0  0  0  0  0
    1.8045  -10.8133   -2.8233 C   0  0  0  1  0  0  0  0  0  0  0  0
    2.5295  -10.3352   -3.8984 C   0  0  0  1  0  0  0  0  0  0  0  0
    2.0364  -10.0010   -4.7509 H   0  0  0  1  0  0  0  0  0  0  0  0
    3.9140  -10.3013   -3.8404 C   0  0  0  1  0  0  0  0  0  0  0  0
    4.5697  -10.7504   -2.7096 C   0  0  0  1  0  0  0  0  0  0  0  0
    3.8423  -11.2299   -1.6313 C   0  0  0  1  0  0  0  0  0  0  0  0
    4.3354  -11.5641   -0.7789 H   0  0  0  1  0  0  0  0  0  0  0  0
    2.4618  -11.2638   -1.6891 C   0  0  0  1  0  0  0  0  0  0  0  0
    1.9163  -11.6273   -0.8817 H   0  0  0  1  0  0  0  0  0  0  0  0
    5.9289  -10.7084   -2.6870 O   0  5  0  1  0  0  0  0  0  0  0  0
    4.7276   -9.8517   -4.8252 O   0  0  0  1  0  0  0  0  0  0  0  0
    5.7861  -10.7301   -5.2577 C   0  0  0  1  0  0  0  0  0  0  0  0
    5.5223  -11.1726   -6.1955 H   0  0  0  1  0  0  0  0  0  0  0  0
    5.9308  -11.4997   -4.5286 H   0  0  0  1  0  0  0  0  0  0  0  0
    6.6907  -10.1697   -5.3699 H   0  0  0  1  0  0  0  0  0  0  0  0
   -0.9954  -10.9072  -10.8018 O   0  0  0  1  0  0  0  0  0  0  0  0
   -0.6412  -10.5615  -11.6244 H   0  0  0  1  0  0  0  0  0  0  0  0
  1  2  1  0  0  0  0
  1  3  1  0  0  0  0
  1  4  1  0  0  0  0
  1  5  1  0  0  0  0
  5  6  1  0  0  0  0
  5 10  1  0  0  0  0
  5 55  1  0  0  0  0
  6  7  1  0  0  0  0
  6  8  1  0  0  0  0
  6  9  1  0  0  0  0
 10 11  1  0  0  0  0
 10 12  1  0  0  0  0
 10 13  1  0  0  0  0
 13 14  1  0  0  0  0
 14 15  2  0  0  0  0
 14 16  1  0  0  0  0
 14 17  1  0  0  0  0
 17 18  1  0  0  0  0
 18 19  1  0  0  0  0
 18 20  2  0  0  0  0
 18 21  1  0  0  0  0
 21 22  1  0  0  0  0
 22 23  1  0  0  0  0
 22 24  1  0  0  0  0
 22 25  1  0  0  0  0
 25 26  1  0  0  0  0
 25 27  1  0  0  0  0
 25 33  1  0  0  0  0
 27 28  1  0  0  0  0
 27 29  1  0  0  0  0
 27 50  1  0  0  0  0
 29 30  1  0  0  0  0
 29 31  1  0  0  0  0
 29 48  1  0  0  0  0
 31 32  1  0  0  0  0
 31 33  1  0  0  0  0
 31 34  1  0  0  0  0
 34 35  1  0  0  0  0
 34 44  1  0  0  0  0
 35 36  1  0  0  0  0
 35 37  2  0  0  0  0
 37 38  1  0  0  0  0
 38 39  1  0  0  0  0
 38 44  2  0  0  0  0
 39 40  2  0  0  0  0
 39 45  1  0  0  0  0
 40 41  1  0  0  0  0
 41 42  1  0  0  0  0
 41 43  2  0  0  0  0
 43 44  1  0  0  0  0
 45 46  1  0  0  0  0
 45 47  1  0  0  0  0
 48 49  1  0  0  0  0
 50 51  1  0  0  0  0
 51 52  2  0  0  0  0
 51 53  1  0  0  0  0
 51 54  1  0  0  0  0
 55 56  1  0  0  0  0
 55 57  1  0  0  0  0
 55104  1  0  0  0  0
 57 58  2  0  0  0  0
 57 59  1  0  0  0  0
 59 60  1  0  0  0  0
 59 61  1  0  0  0  0
 61 62  1  0  0  0  0
 61 63  1  0  0  0  0
 61 64  1  0  0  0  0
 64 65  1  0  0  0  0
 64 66  1  0  0  0  0
 64 67  1  0  0  0  0
 67 68  2  0  0  0  0
 67 69  1  0  0  0  0
 69 70  1  0  0  0  0
 69 71  1  0  0  0  0
 71 72  1  0  0  0  0
 71 73  1  0  0  0  0
 71 74  1  0  0  0  0
 74 75  1  0  0  0  0
 74 76  1  0  0  0  0
 74 77  1  0  0  0  0
 77 78  1  0  0  0  0
 78 79  2  0  0  0  0
 78 80  1  0  0  0  0
 80 81  1  0  0  0  0
 80 82  1  0  0  0  0
 80 83  1  0  0  0  0
 83 84  2  0  0  0  0
 83 85  1  0  0  0  0
 85 86  1  0  0  0  0
 85 87  2  0  0  0  0
 87 88  1  0  0  0  0
 87 89  1  0  0  0  0
 89 90  2  0  0  0  0
 89 96  1  0  0  0  0
 90 91  1  0  0  0  0
 90 92  1  0  0  0  0
 92 93  2  0  0  0  0
 92 99  1  0  0  0  0
 93 94  1  0  0  0  0
 93 98  1  0  0  0  0
 94 95  1  0  0  0  0
 94 96  2  0  0  0  0
 96 97  1  0  0  0  0
 99100  1  0  0  0  0
100101  1  0  0  0  0
100102  1  0  0  0  0
100103  1  0  0  0  0
104105  1  0  0  0  0
M  BCL ATM C_TeTeTeTe H_S H_S H_S C_TeTeTeTe C_TeTeTeTe H_S H_S H_S C_TeTeTeTe H_S H_S O_Tr2TrTrPi2 P_TeTeTeTePi O_Tr2Tr2TrPi O_Te2Te2Te2Te O_Tr2TrTrPi2 P_TeTeTeTePi O_Te2Te2TeTe O_Tr2Tr2TrPi O_Tr2TrTrPi2 C_TeTeTeTe H_S H_S C_TeTeTeTe H_S C_TeTeTeTe H_S C_TeTeTeTe H_S C_TeTeTeTe H_S O_Te2Te2TeTe N_TrTrTrPi2 C_TrTrTrPi H_S N_Tr2TrTrPi C_TrTrTrPi C_TrTrTrPi N_Tr2TrTrPi C_TrTrTrPi H_S N_Tr2TrTrPi C_TrTrTrPi N_TrTrTrPi2 H_S H_S O_Te2Te2TeTe H_S O_Tr2TrTrPi2 P_TeTeTeTePi O_Tr2Tr2TrPi O_Te2Te2Te2Te O_Te2Te2Te2Te C_TeTeTeTe H_S C_TrTrTrPi O_Tr2Tr2TrPi N_TrTrTrPi2 H_S C_TeTeTeTe H_S H_S C_TeTeTeTe H_S H_S C_TrTrTrPi O_Tr2Tr2TrPi N_TrTrTrPi2 H_S C_TeTeTeTe H_S H_S C_TeTeTeTe H_S H_S S_Te2Te2TeTe C_TrTrTrPi O_Tr2Tr2TrPi C_TeTeTeTe H_S H_S C_TrTrTrPi O_Tr2Tr2TrPi C_TrTrTrPi H_S C_TrTrTrPi H_S C_TrTrTrPi C_TrTrTrPi H_S C_TrTrTrPi C_TrTrTrPi C_TrTrTrPi H_S C_TrTrTrPi H_S O_Te2Te2Te2Te O_Tr2TrTrPi2 C_TeTeTeTe H_S H_S H_S O_Te2Te2TeTe H_S
M  BCL BND NonConjugatedSingleBond NonConjugatedSingleBond NonConjugatedSingleBond NonConjugatedSingleBond NonConjugatedSingleBond NonConjugatedSingleBond NonConjugatedSingleBond NonConjugatedSingleBond NonConjugatedSingleBond NonConjugatedSingleBond NonConjugatedSingleBond NonConjugatedSingleBond NonConjugatedSingleBond ConjugatedSingleBond ConjugatedDoubleBond ConjugatedSingleBond ConjugatedSingleBond ConjugatedSingleBond ConjugatedSingleBond ConjugatedDoubleBond ConjugatedSingleBond NonConjugatedSingleBond NonConjugatedSingleBond NonConjugatedSingleBond NonConjugatedSingleBond NonConjugatedSingleBond NonConjugatedSingleBondInRing NonConjugatedSingleBondInRing NonConjugatedSingleBond NonConjugatedSingleBondInRing NonConjugatedSingleBond NonConjugatedSingleBond NonConjugatedSingleBondInRing NonConjugatedSingleBond NonConjugatedSingleBond NonConjugatedSingleBondInRing NonConjugatedSingleBond AromaticSingleBond AromaticSingleBond NonConjugatedSingleBond AromaticDoubleBond AromaticSingleBond AromaticSingleBond AromaticDoubleBond AromaticDoubleBond ConjugatedSingleBond AromaticSingleBond NonConjugatedSingleBond AromaticDoubleBond AromaticSingleBond NonConjugatedSingleBond NonConjugatedSingleBond NonConjugatedSingleBond ConjugatedSingleBond ConjugatedDoubleBond ConjugatedSingleBond ConjugatedSingleBond NonConjugatedSingleBond NonConjugatedSingleBond NonConjugatedSingleBond ConjugatedDoubleBond AmideSingleBond NonConjugatedSingleBond NonConjugatedSingleBond NonConjugatedSingleBond NonConjugatedSingleBond NonConjugatedSingleBond NonConjugatedSingleBond NonConjugatedSingleBond NonConjugatedSingleBond ConjugatedDoubleBond AmideSingleBond NonConjugatedSingleBond NonConjugatedSingleBond NonConjugatedSingleBond NonConjugatedSingleBond NonConjugatedSingleBond NonConjugatedSingleBond NonConjugatedSingleBond NonConjugatedSingleBond ConjugatedSingleBond ConjugatedDoubleBond NonConjugatedSingleBond NonConjugatedSingleBond NonConjugatedSingleBond NonConjugatedSingleBond ConjugatedDoubleBond ConjugatedSingleBond NonConjugatedSingleBond ConjugatedDoubleBond NonConjugatedSingleBond ConjugatedSingleBond AromaticDoubleBond AromaticSingleBond NonConjugatedSingleBond AromaticSingleBond AromaticDoubleBond ConjugatedSingleBond AromaticSingleBond ConjugatedSingleBond NonConjugatedSingleBond AromaticDoubleBond NonConjugatedSingleBond NonConjugatedSingleBond NonConjugatedSingleBond NonConjugatedSingleBond NonConjugatedSingleBond NonConjugatedSingleBond
M  BCL CHI  14   R  18   S  25   R  27   R  29   R  31   S  55   R
M  BCL DBI - - - - - - - - - - - E - - -
M  END
> <ConfClashScore>
0 

> <ConfOneFourInteractionScore>
-0.975625 

> <ConfScore>
0.217896 

> <ConfScorePBest>
0.00902149 

> <ConfTolerance>
2.89828 

$$$$
L03.****
  PyMOL2.5          3D                             0

105108  0  0  0  0  0  0  0  0999 V2000
   -4.6696    7.3697   -3.8310 C   0  0  0  1  0  0  0  0  0  0  0  0
   -3.9421    6.5852   -3.8470 H   0  0  0  1  0  0  0  0  0  0  0  0
   -4.9465    7.5785   -2.8187 H   0  0  0  1  0  0  0  0  0  0  0  0
   -4.2547    8.2497   -4.2765 H   0  0  0  1  0  0  0  0  0  0  0  0
   -5.9099    6.9338   -4.6202 C   0  0  0  1  0  0  0  0  0  0  0  0
   -7.1522    7.0954   -3.7360 C   0  0  0  1  0  0  0  0  0  0  0  0
   -7.4493    6.1390   -3.3592 H   0  0  0  1  0  0  0  0  0  0  0  0
   -7.9492    7.5140   -4.3142 H   0  0  0  1  0  0  0  0  0  0  0  0
   -6.9249    7.7460   -2.9174 H   0  0  0  1  0  0  0  0  0  0  0  0
   -5.7665    5.4899   -4.9731 C   0  0  0  1  0  0  0  0  0  0  0  0
   -5.0757    5.3796   -5.7828 H   0  0  0  1  0  0  0  0  0  0  0  0
   -6.7167    5.0881   -5.2570 H   0  0  0  1  0  0  0  0  0  0  0  0
   -5.2725    4.8040   -3.8116 O   0  0  0  1  0  0  0  0  0  0  0  0
   -5.5627    3.2999   -3.4516 P   0  0  0  1  0  0  0  0  0  0  0  0
   -4.3209    3.2524   -2.6477 O   0  0  0  1  0  0  0  0  0  0  0  0
   -6.8955    4.2201   -3.4855 O   0  5  0  1  0  0  0  0  0  0  0  0
   -5.8606    1.7535   -3.0811 O   0  0  0  1  0  0  0  0  0  0  0  0
   -5.1689    0.5315   -3.8784 P   0  0  0  1  0  0  0  0  0  0  0  0
   -3.6871    0.7853   -3.8777 O   0  0  0  0  0  0  0  0  0  0  0  0
   -5.7501    0.4868   -5.2066 O   0  0  0  1  0  0  0  0  0  0  0  0
   -5.6020   -0.7248   -3.0199 O   0  0  0  1  0  0  0  0  0  0  0  0
   -5.1767   -0.8003   -1.6355 C   0  0  0  1  0  0  0  0  0  0  0  0
   -5.9455   -0.4182   -0.9968 H   0  0  0  1  0  0  0  0  0  0  0  0
   -4.2817   -0.2303   -1.4976 H   0  0  0  1  0  0  0  0  0  0  0  0
   -4.9160   -2.2529   -1.3144 C   0  0  0  1  0  0  0  0  0  0  0  0
   -5.8034   -2.8233   -1.4940 H   0  0  0  1  0  0  0  0  0  0  0  0
   -4.4714   -2.4041    0.1614 C   0  0  0  1  0  0  0  0  0  0  0  0
   -4.8929   -3.2829    0.6027 H   0  0  0  1  0  0  0  0  0  0  0  0
   -2.9615   -2.5197    0.0475 C   0  0  0  1  0  0  0  0  0  0  0  0
   -2.5594   -3.1178    0.8384 H   0  0  0  1  0  0  0  0  0  0  0  0
   -2.7795   -3.2071   -1.3150 C   0  0  0  1  0  0  0  0  0  0  0  0
   -2.8275   -4.2703   -1.2047 H   0  0  0  1  0  0  0  0  0  0  0  0
   -3.8317   -2.7533   -2.1168 O   0  0  0  1  0  0  0  0  0  0  0  0
   -1.4911   -2.8342   -1.9059 N   0  0  0  1  0  0  0  0  0  0  0  0
   -0.4418   -3.6590   -2.1754 C   0  0  0  1  0  0  0  0  0  0  0  0
   -0.4626   -4.6816   -1.9871 H   0  0  0  1  0  0  0  0  0  0  0  0
    0.6037   -3.0457   -2.6967 N   0  0  0  1  0  0  0  0  0  0  0  0
    0.1769   -1.7207   -2.7892 C   0  0  0  1  0  0  0  0  0  0  0  0
    0.8116   -0.5694   -3.2867 C   0  0  0  1  0  0  0  0  0  0  0  0
    0.1230    0.5964   -3.2302 N   0  0  0  1  0  0  0  0  0  0  0  0
   -1.1175    0.5782   -2.7108 C   0  0  0  1  0  0  0  0  0  0  0  0
   -1.6011    1.4987   -2.6883 H   0  0  0  1  0  0  0  0  0  0  0  0
   -1.8199   -0.4431   -2.2205 N   0  0  0  1  0  0  0  0  0  0  0  0
   -1.0914   -1.5751   -2.3036 C   0  0  0  1  0  0  0  0  0  0  0  0
    2.0721   -0.6236   -3.8063 N   0  0  0  1  0  0  0  0  0  0  0  0
    2.5975   -1.4476   -3.7325 H   0  0  0  1  0  0  0  0  0  0  0  0
    2.4519    0.1614   -4.2533 H   0  0  0  1  0  0  0  0  0  0  0  0
   -2.3435   -1.2321    0.0619 O   0  0  0  1  0  0  0  0  0  0  0  0
   -2.9988   -0.5645    0.2773 H   0  0  0  1  0  0  0  0  0  0  0  0
   -4.8506   -1.2359    0.9460 O   0  0  0  1  0  0  0  0  0  0  0  0
   -5.3237   -1.5260    2.4892 P   0  0  0  1  0  0  0  0  0  0  0  0
   -5.5869   -0.3867    3.3965 O   0  0  0  1  0  0  0  0  0  0  0  0
   -6.5964   -2.4721    2.1583 O   0  5  0  1  0  0  0  0  0  0  0  0
   -4.1702   -2.5526    2.9790 O   0  5  0  1  0  0  0  0  0  0  0  0
   -6.0454    7.7629   -5.9032 C   0  0  0  1  0  0  0  0  0  0  0  0
   -6.5922    8.6520   -5.6677 H   0  0  0  1  0  0  0  0  0  0  0  0
   -4.7166    8.1684   -6.5434 C   0  0  0  1  0  0  0  0  0  0  0  0
   -4.3181    9.3282   -6.4754 O   0  0  0  1  0  0  0  0  0  0  0  0
   -4.0208    7.1554   -7.0818 N   0  0  0  1  0  0  0  0  0  0  0  0
   -4.4185    6.2597   -7.0890 H   0  0  0  1  0  0  0  0  0  0  0  0
   -2.6963    7.3404   -7.6555 C   0  0  0  1  0  0  0  0  0  0  0  0
   -2.4582    8.3834   -7.6392 H   0  0  0  1  0  0  0  0  0  0  0  0
   -2.7092    6.9928   -8.6674 H   0  0  0  1  0  0  0  0  0  0  0  0
   -1.6203    6.5833   -6.8942 C   0  0  0  1  0  0  0  0  0  0  0  0
   -0.6883    6.7116   -7.4039 H   0  0  0  1  0  0  0  0  0  0  0  0
   -1.8797    5.5453   -6.8799 H   0  0  0  1  0  0  0  0  0  0  0  0
   -1.4590    7.0564   -5.4743 C   0  0  0  1  0  0  0  0  0  0  0  0
   -2.0193    6.4730   -4.5473 O   0  0  0  1  0  0  0  0  0  0  0  0
   -0.6907    8.1267   -5.2523 N   0  0  0  1  0  0  0  0  0  0  0  0
   -0.2574    8.5642   -6.0147 H   0  0  0  1  0  0  0  0  0  0  0  0
   -0.4747    8.6653   -3.9177 C   0  0  0  1  0  0  0  0  0  0  0  0
    0.5747    8.8181   -3.7754 H   0  0  0  1  0  0  0  0  0  0  0  0
   -0.8331    7.9572   -3.2001 H   0  0  0  1  0  0  0  0  0  0  0  0
   -1.1906    9.9816   -3.6998 C   0  0  0  1  0  0  0  0  0  0  0  0
   -2.2460    9.8218   -3.7737 H   0  0  0  1  0  0  0  0  0  0  0  0
   -0.8810   10.6765   -4.4523 H   0  0  0  1  0  0  0  0  0  0  0  0
   -0.8098   10.6674   -2.0702 S   0  0  0  1  0  0  0  0  0  0  0  0
   -2.0591   11.8538   -1.7970 C   0  0  0  1  0  0  0  0  0  0  0  0
   -2.8616   12.1778   -2.6265 O   0  0  0  1  0  0  0  0  0  0  0  0
   -2.0788   12.3554   -0.3741 C   0  0  0  1  0  0  0  0  0  0  0  0
   -2.5382   13.3216   -0.3560 H   0  0  0  1  0  0  0  0  0  0  0  0
   -1.0712   12.4324   -0.0222 H   0  0  0  1  0  0  0  0  0  0  0  0
   -2.8452   11.4359    0.5449 C   0  0  0  1  0  0  0  0  0  0  0  0
   -2.2890   10.9083    1.4939 O   0  0  0  1  0  0  0  0  0  0  0  0
   -4.2575   11.1899    0.2796 C   0  0  0  1  0  0  0  0  0  0  0  0
   -4.6872   11.6999   -0.5184 H   0  0  0  1  0  0  0  0  0  0  0  0
   -5.0454   10.3670    0.9724 C   0  0  0  1  0  0  0  0  0  0  0  0
   -4.6157    9.8570    1.7704 H   0  0  0  1  0  0  0  0  0  0  0  0
   -6.4808   10.1169    0.7026 C   0  0  0  1  0  0  0  0  0  0  0  0
   -7.1008   10.9393   -0.2191 C   0  0  0  1  0  0  0  0  0  0  0  0
   -6.5618   11.6962   -0.6861 H   0  0  0  1  0  0  0  0  0  0  0  0
   -8.4411   10.7551   -0.5209 C   0  0  0  1  0  0  0  0  0  0  0  0
   -9.1589    9.7526    0.1036 C   0  0  0  1  0  0  0  0  0  0  0  0
   -8.5369    8.9278    1.0281 C   0  0  0  1  0  0  0  0  0  0  0  0
   -9.0759    8.1709    1.4952 H   0  0  0  1  0  0  0  0  0  0  0  0
   -7.2005    9.1114    1.3292 C   0  0  0  1  0  0  0  0  0  0  0  0
   -6.7349    8.4953    2.0257 H   0  0  0  1  0  0  0  0  0  0  0  0
  -10.4648    9.6697   -0.2670 O   0  5  0  1  0  0  0  0  0  0  0  0
   -9.1435   11.4833   -1.3966 O   0  0  0  1  0  0  0  0  0  0  0  0
   -8.5019   12.4832   -2.2577 C   0  0  0  1  0  0  0  0  0  0  0  0
   -8.3590   13.3896   -1.7073 H   0  0  0  1  0  0  0  0  0  0  0  0
   -9.1253   12.6758   -3.1058 H   0  0  0  1  0  0  0  0  0  0  0  0
   -7.5537   12.1134   -2.5879 H   0  0  0  1  0  0  0  0  0  0  0  0
   -6.8261    6.9430   -6.7824 O   0  0  0  1  0  0  0  0  0  0  0  0
   -7.5907    7.4373   -7.0869 H   0  0  0  1  0  0  0  0  0  0  0  0
  1  2  1  0  0  0  0
  1  3  1  0  0  0  0
  1  4  1  0  0  0  0
  1  5  1  0  0  0  0
  5  6  1  0  0  0  0
  5 10  1  0  0  0  0
  5 55  1  0  0  0  0
  6  7  1  0  0  0  0
  6  8  1  0  0  0  0
  6  9  1  0  0  0  0
 10 11  1  0  0  0  0
 10 12  1  0  0  0  0
 10 13  1  0  0  0  0
 13 14  1  0  0  0  0
 14 15  2  0  0  0  0
 14 16  1  0  0  0  0
 14 17  1  0  0  0  0
 17 18  1  0  0  0  0
 18 19  1  0  0  0  0
 18 20  2  0  0  0  0
 18 21  1  0  0  0  0
 21 22  1  0  0  0  0
 22 23  1  0  0  0  0
 22 24  1  0  0  0  0
 22 25  1  0  0  0  0
 25 26  1  0  0  0  0
 25 27  1  0  0  0  0
 25 33  1  0  0  0  0
 27 28  1  0  0  0  0
 27 29  1  0  0  0  0
 27 50  1  0  0  0  0
 29 30  1  0  0  0  0
 29 31  1  0  0  0  0
 29 48  1  0  0  0  0
 31 32  1  0  0  0  0
 31 33  1  0  0  0  0
 31 34  1  0  0  0  0
 34 35  1  0  0  0  0
 34 44  1  0  0  0  0
 35 36  1  0  0  0  0
 35 37  2  0  0  0  0
 37 38  1  0  0  0  0
 38 39  1  0  0  0  0
 38 44  2  0  0  0  0
 39 40  2  0  0  0  0
 39 45  1  0  0  0  0
 40 41  1  0  0  0  0
 41 42  1  0  0  0  0
 41 43  2  0  0  0  0
 43 44  1  0  0  0  0
 45 46  1  0  0  0  0
 45 47  1  0  0  0  0
 48 49  1  0  0  0  0
 50 51  1  0  0  0  0
 51 52  2  0  0  0  0
 51 53  1  0  0  0  0
 51 54  1  0  0  0  0
 55 56  1  0  0  0  0
 55 57  1  0  0  0  0
 55104  1  0  0  0  0
 57 58  2  0  0  0  0
 57 59  1  0  0  0  0
 59 60  1  0  0  0  0
 59 61  1  0  0  0  0
 61 62  1  0  0  0  0
 61 63  1  0  0  0  0
 61 64  1  0  0  0  0
 64 65  1  0  0  0  0
 64 66  1  0  0  0  0
 64 67  1  0  0  0  0
 67 68  2  0  0  0  0
 67 69  1  0  0  0  0
 69 70  1  0  0  0  0
 69 71  1  0  0  0  0
 71 72  1  0  0  0  0
 71 73  1  0  0  0  0
 71 74  1  0  0  0  0
 74 75  1  0  0  0  0
 74 76  1  0  0  0  0
 74 77  1  0  0  0  0
 77 78  1  0  0  0  0
 78 79  2  0  0  0  0
 78 80  1  0  0  0  0
 80 81  1  0  0  0  0
 80 82  1  0  0  0  0
 80 83  1  0  0  0  0
 83 84  2  0  0  0  0
 83 85  1  0  0  0  0
 85 86  1  0  0  0  0
 85 87  2  0  0  0  0
 87 88  1  0  0  0  0
 87 89  1  0  0  0  0
 89 90  2  0  0  0  0
 89 96  1  0  0  0  0
 90 91  1  0  0  0  0
 90 92  1  0  0  0  0
 92 93  2  0  0  0  0
 92 99  1  0  0  0  0
 93 94  1  0  0  0  0
 93 98  1  0  0  0  0
 94 95  1  0  0  0  0
 94 96  2  0  0  0  0
 96 97  1  0  0  0  0
 99100  1  0  0  0  0
100101  1  0  0  0  0
100102  1  0  0  0  0
100103  1  0  0  0  0
104105  1  0  0  0  0
M  BCL ATM C_TeTeTeTe H_S H_S H_S C_TeTeTeTe C_TeTeTeTe H_S H_S H_S C_TeTeTeTe H_S H_S O_Tr2TrTrPi2 P_TeTeTeTePi O_Tr2Tr2TrPi O_Te2Te2Te2Te O_Tr2TrTrPi2 P_TeTeTeTePi O_Te2Te2TeTe O_Tr2Tr2TrPi O_Tr2TrTrPi2 C_TeTeTeTe H_S H_S C_TeTeTeTe H_S C_TeTeTeTe H_S C_TeTeTeTe H_S C_TeTeTeTe H_S O_Te2Te2TeTe N_TrTrTrPi2 C_TrTrTrPi H_S N_Tr2TrTrPi C_TrTrTrPi C_TrTrTrPi N_Tr2TrTrPi C_TrTrTrPi H_S N_Tr2TrTrPi C_TrTrTrPi N_TrTrTrPi2 H_S H_S O_Te2Te2TeTe H_S O_Tr2TrTrPi2 P_TeTeTeTePi O_Tr2Tr2TrPi O_Te2Te2Te2Te O_Te2Te2Te2Te C_TeTeTeTe H_S C_TrTrTrPi O_Tr2Tr2TrPi N_TrTrTrPi2 H_S C_TeTeTeTe H_S H_S C_TeTeTeTe H_S H_S C_TrTrTrPi O_Tr2Tr2TrPi N_TrTrTrPi2 H_S C_TeTeTeTe H_S H_S C_TeTeTeTe H_S H_S S_Te2Te2TeTe C_TrTrTrPi O_Tr2Tr2TrPi C_TeTeTeTe H_S H_S C_TrTrTrPi O_Tr2Tr2TrPi C_TrTrTrPi H_S C_TrTrTrPi H_S C_TrTrTrPi C_TrTrTrPi H_S C_TrTrTrPi C_TrTrTrPi C_TrTrTrPi H_S C_TrTrTrPi H_S O_Te2Te2Te2Te O_Tr2TrTrPi2 C_TeTeTeTe H_S H_S H_S O_Te2Te2TeTe H_S
M  BCL BND NonConjugatedSingleBond NonConjugatedSingleBond NonConjugatedSingleBond NonConjugatedSingleBond NonConjugatedSingleBond NonConjugatedSingleBond NonConjugatedSingleBond NonConjugatedSingleBond NonConjugatedSingleBond NonConjugatedSingleBond NonConjugatedSingleBond NonConjugatedSingleBond NonConjugatedSingleBond ConjugatedSingleBond ConjugatedDoubleBond ConjugatedSingleBond ConjugatedSingleBond ConjugatedSingleBond ConjugatedSingleBond ConjugatedDoubleBond ConjugatedSingleBond NonConjugatedSingleBond NonConjugatedSingleBond NonConjugatedSingleBond NonConjugatedSingleBond NonConjugatedSingleBond NonConjugatedSingleBondInRing NonConjugatedSingleBondInRing NonConjugatedSingleBond NonConjugatedSingleBondInRing NonConjugatedSingleBond NonConjugatedSingleBond NonConjugatedSingleBondInRing NonConjugatedSingleBond NonConjugatedSingleBond NonConjugatedSingleBondInRing NonConjugatedSingleBond AromaticSingleBond AromaticSingleBond NonConjugatedSingleBond AromaticDoubleBond AromaticSingleBond AromaticSingleBond AromaticDoubleBond AromaticDoubleBond ConjugatedSingleBond AromaticSingleBond NonConjugatedSingleBond AromaticDoubleBond AromaticSingleBond NonConjugatedSingleBond NonConjugatedSingleBond NonConjugatedSingleBond ConjugatedSingleBond ConjugatedDoubleBond ConjugatedSingleBond ConjugatedSingleBond NonConjugatedSingleBond NonConjugatedSingleBond NonConjugatedSingleBond ConjugatedDoubleBond AmideSingleBond NonConjugatedSingleBond NonConjugatedSingleBond NonConjugatedSingleBond NonConjugatedSingleBond NonConjugatedSingleBond NonConjugatedSingleBond NonConjugatedSingleBond NonConjugatedSingleBond ConjugatedDoubleBond AmideSingleBond NonConjugatedSingleBond NonConjugatedSingleBond NonConjugatedSingleBond NonConjugatedSingleBond NonConjugatedSingleBond NonConjugatedSingleBond NonConjugatedSingleBond NonConjugatedSingleBond ConjugatedSingleBond ConjugatedDoubleBond NonConjugatedSingleBond NonConjugatedSingleBond NonConjugatedSingleBond NonConjugatedSingleBond ConjugatedDoubleBond ConjugatedSingleBond NonConjugatedSingleBond ConjugatedDoubleBond NonConjugatedSingleBond ConjugatedSingleBond AromaticDoubleBond AromaticSingleBond NonConjugatedSingleBond AromaticSingleBond AromaticDoubleBond ConjugatedSingleBond AromaticSingleBond ConjugatedSingleBond NonConjugatedSingleBond AromaticDoubleBond NonConjugatedSingleBond NonConjugatedSingleBond NonConjugatedSingleBond NonConjugatedSingleBond NonConjugatedSingleBond NonConjugatedSingleBond
M  BCL CHI  14   R  18   S  25   R  27   R  29   R  31   S  55   R
M  BCL DBI - - - - - - - - - - - E - - -
M  END
> <ConfClashScore>
0.000183087 

> <ConfOneFourInteractionScore>
-0.961101 

> <ConfScore>
0.221028 

> <ConfScorePBest>
0.00891849 

> <ConfTolerance>
2.9759 

$$$$
L03.****
  PyMOL2.5          3D                             0

105108  0  0  0  0  0  0  0  0999 V2000
   -7.7304    7.4018   -3.4689 C   0  0  0  1  0  0  0  0  0  0  0  0
   -7.9897    6.5416   -4.0501 H   0  0  0  1  0  0  0  0  0  0  0  0
   -7.9038    8.2867   -4.0449 H   0  0  0  1  0  0  0  0  0  0  0  0
   -8.3313    7.4283   -2.5839 H   0  0  0  1  0  0  0  0  0  0  0  0
   -6.2494    7.3284   -3.0786 C   0  0  0  1  0  0  0  0  0  0  0  0
   -5.4178    6.8584   -4.2782 C   0  0  0  1  0  0  0  0  0  0  0  0
   -4.9482    5.9259   -4.0438 H   0  0  0  1  0  0  0  0  0  0  0  0
   -4.6683    7.5889   -4.5004 H   0  0  0  1  0  0  0  0  0  0  0  0
   -6.0566    6.7323   -5.1272 H   0  0  0  1  0  0  0  0  0  0  0  0
   -6.0816    6.3678   -1.9476 C   0  0  0  1  0  0  0  0  0  0  0  0
   -6.8029    6.5738   -1.1846 H   0  0  0  1  0  0  0  0  0  0  0  0
   -5.0961    6.4535   -1.5399 H   0  0  0  1  0  0  0  0  0  0  0  0
   -6.2844    5.0339   -2.4704 O   0  0  0  1  0  0  0  0  0  0  0  0
   -5.5929    3.7574   -1.8633 P   0  0  0  1  0  0  0  0  0  0  0  0
   -4.3693    4.5463   -1.5973 O   0  0  0  1  0  0  0  0  0  0  0  0
   -7.1634    3.8777   -1.4846 O   0  5  0  1  0  0  0  0  0  0  0  0
   -4.8937    2.4676   -1.2497 O   0  0  0  1  0  0  0  0  0  0  0  0
   -5.0805    1.4698    0.0000 P   0  0  0  1  0  0  0  0  0  0  0  0
   -6.3915    0.8194   -0.2456 O   0  0  0  0  0  0  0  0  0  0  0  0
   -4.8248    2.1724    1.2773 O   0  0  0  1  0  0  0  0  0  0  0  0
   -3.9263    0.4516   -0.3271 O   0  0  0  1  0  0  0  0  0  0  0  0
   -3.3349   -0.3593    0.7152 C   0  0  0  1  0  0  0  0  0  0  0  0
   -3.7652   -0.1068    1.6617 H   0  0  0  1  0  0  0  0  0  0  0  0
   -2.2779   -0.1961    0.7484 H   0  0  0  1  0  0  0  0  0  0  0  0
   -3.6222   -1.8074    0.3889 C   0  0  0  1  0  0  0  0  0  0  0  0
   -4.5854   -2.0751    0.7704 H   0  0  0  1  0  0  0  0  0  0  0  0
   -2.5501   -2.7063    0.9778 C   0  0  0  1  0  0  0  0  0  0  0  0
   -2.7976   -3.0013    1.9761 H   0  0  0  1  0  0  0  0  0  0  0  0
   -2.5680   -3.8860    0.0403 C   0  0  0  1  0  0  0  0  0  0  0  0
   -3.3715   -4.5545    0.2692 H   0  0  0  1  0  0  0  0  0  0  0  0
   -2.7796   -3.2016   -1.3095 C   0  0  0  1  0  0  0  0  0  0  0  0
   -3.3092   -3.8458   -1.9798 H   0  0  0  1  0  0  0  0  0  0  0  0
   -3.5682   -2.0187   -1.0062 O   0  0  0  1  0  0  0  0  0  0  0  0
   -1.4953   -2.8266   -1.9044 N   0  0  0  1  0  0  0  0  0  0  0  0
   -0.4379   -3.6506   -2.1830 C   0  0  0  1  0  0  0  0  0  0  0  0
   -0.4529   -4.6714   -1.9847 H   0  0  0  1  0  0  0  0  0  0  0  0
    0.5903   -3.0504   -2.7179 N   0  0  0  1  0  0  0  0  0  0  0  0
    0.1858   -1.7328   -2.7969 C   0  0  0  1  0  0  0  0  0  0  0  0
    0.7981   -0.5721   -3.2762 C   0  0  0  1  0  0  0  0  0  0  0  0
    0.1396    0.5905   -3.2202 N   0  0  0  1  0  0  0  0  0  0  0  0
   -1.1111    0.5800   -2.7118 C   0  0  0  1  0  0  0  0  0  0  0  0
   -1.5973    1.4992   -2.6934 H   0  0  0  1  0  0  0  0  0  0  0  0
   -1.8052   -0.4482   -2.2312 N   0  0  0  1  0  0  0  0  0  0  0  0
   -1.0972   -1.5772   -2.2999 C   0  0  0  1  0  0  0  0  0  0  0  0
    2.0632   -0.6245   -3.7994 N   0  0  0  1  0  0  0  0  0  0  0  0
    2.5291    0.2037   -4.0388 H   0  0  0  1  0  0  0  0  0  0  0  0
    2.5022   -1.4903   -3.9342 H   0  0  0  1  0  0  0  0  0  0  0  0
   -1.3305   -4.5983    0.0752 O   0  0  0  1  0  0  0  0  0  0  0  0
   -1.4929   -5.5309   -0.0845 H   0  0  0  1  0  0  0  0  0  0  0  0
   -1.2681   -2.0581    0.9732 O   0  0  0  1  0  0  0  0  0  0  0  0
   -0.3058   -1.8514    2.2850 P   0  0  0  1  0  0  0  0  0  0  0  0
   -1.1395   -1.7817    3.5058 O   0  0  0  1  0  0  0  0  0  0  0  0
    0.6337   -3.1692    2.2121 O   0  5  0  1  0  0  0  0  0  0  0  0
    0.6647   -0.5769    2.0433 O   0  5  0  1  0  0  0  0  0  0  0  0
   -5.7685    8.7158   -2.6373 C   0  0  0  1  0  0  0  0  0  0  0  0
   -4.7161    8.6620   -2.4513 H   0  0  0  1  0  0  0  0  0  0  0  0
   -6.0188    9.8010   -3.6680 C   0  0  0  1  0  0  0  0  0  0  0  0
   -6.4614    9.5233   -4.7819 O   0  0  0  1  0  0  0  0  0  0  0  0
   -5.7431   11.0701   -3.3280 N   0  0  0  1  0  0  0  0  0  0  0  0
   -5.3498   11.2493   -2.4485 H   0  0  0  1  0  0  0  0  0  0  0  0
   -6.0081   12.1890   -4.2201 C   0  0  0  1  0  0  0  0  0  0  0  0
   -6.8936   12.6897   -3.8884 H   0  0  0  1  0  0  0  0  0  0  0  0
   -6.1611   11.8102   -5.2090 H   0  0  0  1  0  0  0  0  0  0  0  0
   -4.8657   13.1910   -4.2536 C   0  0  0  1  0  0  0  0  0  0  0  0
   -4.6808   13.5302   -3.2558 H   0  0  0  1  0  0  0  0  0  0  0  0
   -5.1574   14.0197   -4.8643 H   0  0  0  1  0  0  0  0  0  0  0  0
   -3.5689   12.6033   -4.8167 C   0  0  0  1  0  0  0  0  0  0  0  0
   -3.6033   12.1152   -5.9455 O   0  0  0  1  0  0  0  0  0  0  0  0
   -2.4986   12.6707   -4.0275 N   0  0  0  1  0  0  0  0  0  0  0  0
   -2.6052   13.0810   -3.1440 H   0  0  0  1  0  0  0  0  0  0  0  0
   -1.1806   12.1738   -4.3935 C   0  0  0  1  0  0  0  0  0  0  0  0
   -1.2504   11.1344   -4.6376 H   0  0  0  1  0  0  0  0  0  0  0  0
   -0.5129   12.3026   -3.5674 H   0  0  0  1  0  0  0  0  0  0  0  0
   -0.6476   12.9335   -5.5899 C   0  0  0  1  0  0  0  0  0  0  0  0
   -0.7619   13.9795   -5.3961 H   0  0  0  1  0  0  0  0  0  0  0  0
   -1.2340   12.6621   -6.4428 H   0  0  0  1  0  0  0  0  0  0  0  0
    1.0903   12.6235   -5.9836 S   0  0  0  1  0  0  0  0  0  0  0  0
    1.0452   11.2946   -7.1635 C   0  0  0  1  0  0  0  0  0  0  0  0
    0.0299   10.7657   -7.5283 O   0  0  0  1  0  0  0  0  0  0  0  0
    2.4241   10.9123   -7.6490 C   0  0  0  1  0  0  0  0  0  0  0  0
    3.0508   10.7340   -6.8003 H   0  0  0  1  0  0  0  0  0  0  0  0
    2.8233   11.7215   -8.2241 H   0  0  0  1  0  0  0  0  0  0  0  0
    2.4035    9.6720   -8.5060 C   0  0  0  1  0  0  0  0  0  0  0  0
    2.7008    9.7337   -9.6876 O   0  0  0  1  0  0  0  0  0  0  0  0
    2.0228    8.3998   -7.8988 C   0  0  0  1  0  0  0  0  0  0  0  0
    1.7338    8.4646   -6.9019 H   0  0  0  1  0  0  0  0  0  0  0  0
    1.9840    7.1696   -8.4093 C   0  0  0  1  0  0  0  0  0  0  0  0
    2.2607    7.0331   -9.4025 H   0  0  0  1  0  0  0  0  0  0  0  0
    1.5629    5.9886   -7.6206 C   0  0  0  1  0  0  0  0  0  0  0  0
    1.2671    6.1355   -6.2786 C   0  0  0  1  0  0  0  0  0  0  0  0
    1.3446    7.0697   -5.8282 H   0  0  0  1  0  0  0  0  0  0  0  0
    0.8670    5.0375   -5.5330 C   0  0  0  1  0  0  0  0  0  0  0  0
    0.7691    3.7949   -6.1302 C   0  0  0  1  0  0  0  0  0  0  0  0
    1.0659    3.6478   -7.4763 C   0  0  0  1  0  0  0  0  0  0  0  0
    0.9884    2.7136   -7.9267 H   0  0  0  1  0  0  0  0  0  0  0  0
    1.4648    4.7424   -8.2198 C   0  0  0  1  0  0  0  0  0  0  0  0
    1.6913    4.6312   -9.2288 H   0  0  0  1  0  0  0  0  0  0  0  0
    0.3759    2.7636   -5.3357 O   0  5  0  1  0  0  0  0  0  0  0  0
    0.5474    5.0597   -4.2172 O   0  0  0  1  0  0  0  0  0  0  0  0
    0.9440    6.2171   -3.4651 C   0  0  0  1  0  0  0  0  0  0  0  0
    0.6432    7.1020   -3.9861 H   0  0  0  1  0  0  0  0  0  0  0  0
    2.0073    6.2177   -3.3461 H   0  0  0  1  0  0  0  0  0  0  0  0
    0.4769    6.1940   -2.5027 H   0  0  0  1  0  0  0  0  0  0  0  0
   -6.4553    9.0197   -1.4235 O   0  0  0  1  0  0  0  0  0  0  0  0
   -6.9644    9.8257   -1.5366 H   0  0  0  1  0  0  0  0  0  0  0  0
  1  2  1  0  0  0  0
  1  3  1  0  0  0  0
  1  4  1  0  0  0  0
  1  5  1  0  0  0  0
  5  6  1  0  0  0  0
  5 10  1  0  0  0  0
  5 55  1  0  0  0  0
  6  7  1  0  0  0  0
  6  8  1  0  0  0  0
  6  9  1  0  0  0  0
 10 11  1  0  0  0  0
 10 12  1  0  0  0  0
 10 13  1  0  0  0  0
 13 14  1  0  0  0  0
 14 15  2  0  0  0  0
 14 16  1  0  0  0  0
 14 17  1  0  0  0  0
 17 18  1  0  0  0  0
 18 19  1  0  0  0  0
 18 20  2  0  0  0  0
 18 21  1  0  0  0  0
 21 22  1  0  0  0  0
 22 23  1  0  0  0  0
 22 24  1  0  0  0  0
 22 25  1  0  0  0  0
 25 26  1  0  0  0  0
 25 27  1  0  0  0  0
 25 33  1  0  0  0  0
 27 28  1  0  0  0  0
 27 29  1  0  0  0  0
 27 50  1  0  0  0  0
 29 30  1  0  0  0  0
 29 31  1  0  0  0  0
 29 48  1  0  0  0  0
 31 32  1  0  0  0  0
 31 33  1  0  0  0  0
 31 34  1  0  0  0  0
 34 35  1  0  0  0  0
 34 44  1  0  0  0  0
 35 36  1  0  0  0  0
 35 37  2  0  0  0  0
 37 38  1  0  0  0  0
 38 39  1  0  0  0  0
 38 44  2  0  0  0  0
 39 40  2  0  0  0  0
 39 45  1  0  0  0  0
 40 41  1  0  0  0  0
 41 42  1  0  0  0  0
 41 43  2  0  0  0  0
 43 44  1  0  0  0  0
 45 46  1  0  0  0  0
 45 47  1  0  0  0  0
 48 49  1  0  0  0  0
 50 51  1  0  0  0  0
 51 52  2  0  0  0  0
 51 53  1  0  0  0  0
 51 54  1  0  0  0  0
 55 56  1  0  0  0  0
 55 57  1  0  0  0  0
 55104  1  0  0  0  0
 57 58  2  0  0  0  0
 57 59  1  0  0  0  0
 59 60  1  0  0  0  0
 59 61  1  0  0  0  0
 61 62  1  0  0  0  0
 61 63  1  0  0  0  0
 61 64  1  0  0  0  0
 64 65  1  0  0  0  0
 64 66  1  0  0  0  0
 64 67  1  0  0  0  0
 67 68  2  0  0  0  0
 67 69  1  0  0  0  0
 69 70  1  0  0  0  0
 69 71  1  0  0  0  0
 71 72  1  0  0  0  0
 71 73  1  0  0  0  0
 71 74  1  0  0  0  0
 74 75  1  0  0  0  0
 74 76  1  0  0  0  0
 74 77  1  0  0  0  0
 77 78  1  0  0  0  0
 78 79  2  0  0  0  0
 78 80  1  0  0  0  0
 80 81  1  0  0  0  0
 80 82  1  0  0  0  0
 80 83  1  0  0  0  0
 83 84  2  0  0  0  0
 83 85  1  0  0  0  0
 85 86  1  0  0  0  0
 85 87  2  0  0  0  0
 87 88  1  0  0  0  0
 87 89  1  0  0  0  0
 89 90  2  0  0  0  0
 89 96  1  0  0  0  0
 90 91  1  0  0  0  0
 90 92  1  0  0  0  0
 92 93  2  0  0  0  0
 92 99  1  0  0  0  0
 93 94  1  0  0  0  0
 93 98  1  0  0  0  0
 94 95  1  0  0  0  0
 94 96  2  0  0  0  0
 96 97  1  0  0  0  0
 99100  1  0  0  0  0
100101  1  0  0  0  0
100102  1  0  0  0  0
100103  1  0  0  0  0
104105  1  0  0  0  0
M  BCL ATM C_TeTeTeTe H_S H_S H_S C_TeTeTeTe C_TeTeTeTe H_S H_S H_S C_TeTeTeTe H_S H_S O_Tr2TrTrPi2 P_TeTeTeTePi O_Tr2Tr2TrPi O_Te2Te2Te2Te O_Tr2TrTrPi2 P_TeTeTeTePi O_Te2Te2TeTe O_Tr2Tr2TrPi O_Tr2TrTrPi2 C_TeTeTeTe H_S H_S C_TeTeTeTe H_S C_TeTeTeTe H_S C_TeTeTeTe H_S C_TeTeTeTe H_S O_Te2Te2TeTe N_TrTrTrPi2 C_TrTrTrPi H_S N_Tr2TrTrPi C_TrTrTrPi C_TrTrTrPi N_Tr2TrTrPi C_TrTrTrPi H_S N_Tr2TrTrPi C_TrTrTrPi N_TrTrTrPi2 H_S H_S O_Te2Te2TeTe H_S O_Tr2TrTrPi2 P_TeTeTeTePi O_Tr2Tr2TrPi O_Te2Te2Te2Te O_Te2Te2Te2Te C_TeTeTeTe H_S C_TrTrTrPi O_Tr2Tr2TrPi N_TrTrTrPi2 H_S C_TeTeTeTe H_S H_S C_TeTeTeTe H_S H_S C_TrTrTrPi O_Tr2Tr2TrPi N_TrTrTrPi2 H_S C_TeTeTeTe H_S H_S C_TeTeTeTe H_S H_S S_Te2Te2TeTe C_TrTrTrPi O_Tr2Tr2TrPi C_TeTeTeTe H_S H_S C_TrTrTrPi O_Tr2Tr2TrPi C_TrTrTrPi H_S C_TrTrTrPi H_S C_TrTrTrPi C_TrTrTrPi H_S C_TrTrTrPi C_TrTrTrPi C_TrTrTrPi H_S C_TrTrTrPi H_S O_Te2Te2Te2Te O_Tr2TrTrPi2 C_TeTeTeTe H_S H_S H_S O_Te2Te2TeTe H_S
M  BCL BND NonConjugatedSingleBond NonConjugatedSingleBond NonConjugatedSingleBond NonConjugatedSingleBond NonConjugatedSingleBond NonConjugatedSingleBond NonConjugatedSingleBond NonConjugatedSingleBond NonConjugatedSingleBond NonConjugatedSingleBond NonConjugatedSingleBond NonConjugatedSingleBond NonConjugatedSingleBond ConjugatedSingleBond ConjugatedDoubleBond ConjugatedSingleBond ConjugatedSingleBond ConjugatedSingleBond ConjugatedSingleBond ConjugatedDoubleBond ConjugatedSingleBond NonConjugatedSingleBond NonConjugatedSingleBond NonConjugatedSingleBond NonConjugatedSingleBond NonConjugatedSingleBond NonConjugatedSingleBondInRing NonConjugatedSingleBondInRing NonConjugatedSingleBond NonConjugatedSingleBondInRing NonConjugatedSingleBond NonConjugatedSingleBond NonConjugatedSingleBondInRing NonConjugatedSingleBond NonConjugatedSingleBond NonConjugatedSingleBondInRing NonConjugatedSingleBond AromaticSingleBond AromaticSingleBond NonConjugatedSingleBond AromaticDoubleBond AromaticSingleBond AromaticSingleBond AromaticDoubleBond AromaticDoubleBond ConjugatedSingleBond AromaticSingleBond NonConjugatedSingleBond AromaticDoubleBond AromaticSingleBond NonConjugatedSingleBond NonConjugatedSingleBond NonConjugatedSingleBond ConjugatedSingleBond ConjugatedDoubleBond ConjugatedSingleBond ConjugatedSingleBond NonConjugatedSingleBond NonConjugatedSingleBond NonConjugatedSingleBond ConjugatedDoubleBond AmideSingleBond NonConjugatedSingleBond NonConjugatedSingleBond NonConjugatedSingleBond NonConjugatedSingleBond NonConjugatedSingleBond NonConjugatedSingleBond NonConjugatedSingleBond NonConjugatedSingleBond ConjugatedDoubleBond AmideSingleBond NonConjugatedSingleBond NonConjugatedSingleBond NonConjugatedSingleBond NonConjugatedSingleBond NonConjugatedSingleBond NonConjugatedSingleBond NonConjugatedSingleBond NonConjugatedSingleBond ConjugatedSingleBond ConjugatedDoubleBond NonConjugatedSingleBond NonConjugatedSingleBond NonConjugatedSingleBond NonConjugatedSingleBond ConjugatedDoubleBond ConjugatedSingleBond NonConjugatedSingleBond ConjugatedDoubleBond NonConjugatedSingleBond ConjugatedSingleBond AromaticDoubleBond AromaticSingleBond NonConjugatedSingleBond AromaticSingleBond AromaticDoubleBond ConjugatedSingleBond AromaticSingleBond ConjugatedSingleBond NonConjugatedSingleBond AromaticDoubleBond NonConjugatedSingleBond NonConjugatedSingleBond NonConjugatedSingleBond NonConjugatedSingleBond NonConjugatedSingleBond NonConjugatedSingleBond
M  BCL CHI  14   R  18   S  25   R  27   R  29   R  31   S  55   R
M  BCL DBI - - - - - - - - - - - E - - -
M  END
> <ConfClashScore>
0 

> <ConfOneFourInteractionScore>
-0.979143 

> <ConfScore>
0.229575 

> <ConfScorePBest>
0.00881549 

> <ConfTolerance>
3.13186 

$$$$
L03.****
  PyMOL2.5          3D                             0

105108  0  0  0  0  0  0  0  0999 V2000
   -4.5512  -10.9886   -6.7087 C   0  0  0  1  0  0  0  0  0  0  0  0
   -4.6596  -11.1660   -7.7584 H   0  0  0  1  0  0  0  0  0  0  0  0
   -3.5412  -11.1865   -6.4163 H   0  0  0  1  0  0  0  0  0  0  0  0
   -4.7923   -9.9688   -6.4929 H   0  0  0  1  0  0  0  0  0  0  0  0
   -5.4979  -11.9124   -5.9331 C   0  0  0  1  0  0  0  0  0  0  0  0
   -6.4999  -12.5197   -6.9222 C   0  0  0  1  0  0  0  0  0  0  0  0
   -7.4012  -11.9430   -6.9170 H   0  0  0  1  0  0  0  0  0  0  0  0
   -6.7194  -13.5266   -6.6342 H   0  0  0  1  0  0  0  0  0  0  0  0
   -6.0784  -12.5134   -7.9057 H   0  0  0  1  0  0  0  0  0  0  0  0
   -6.2536  -11.1260   -4.9130 C   0  0  0  1  0  0  0  0  0  0  0  0
   -7.2676  -11.4647   -4.8698 H   0  0  0  1  0  0  0  0  0  0  0  0
   -6.2346  -10.0867   -5.1667 H   0  0  0  1  0  0  0  0  0  0  0  0
   -5.6187  -11.3300   -3.6510 O   0  0  0  1  0  0  0  0  0  0  0  0
   -5.6655  -10.4158   -2.3711 P   0  0  0  1  0  0  0  0  0  0  0  0
   -6.0688  -11.5812   -1.5529 O   0  0  0  1  0  0  0  0  0  0  0  0
   -4.4406  -10.0596   -3.3696 O   0  5  0  1  0  0  0  0  0  0  0  0
   -5.7134   -9.4845   -1.0666 O   0  0  0  1  0  0  0  0  0  0  0  0
   -4.5375   -8.7483   -0.2780 P   0  0  0  1  0  0  0  0  0  0  0  0
   -3.2749   -9.5219   -0.3543 O   0  0  0  0  0  0  0  0  0  0  0  0
   -5.0814   -8.2988    0.9676 O   0  0  0  1  0  0  0  0  0  0  0  0
   -4.4385   -7.4577   -1.1668 O   0  0  0  1  0  0  0  0  0  0  0  0
   -3.2862   -6.5771   -1.1608 C   0  0  0  1  0  0  0  0  0  0  0  0
   -2.9035   -6.4711   -2.1544 H   0  0  0  1  0  0  0  0  0  0  0  0
   -2.5244   -6.9782   -0.5255 H   0  0  0  1  0  0  0  0  0  0  0  0
   -3.7387   -5.2322   -0.6368 C   0  0  0  1  0  0  0  0  0  0  0  0
   -4.2254   -5.3620    0.3072 H   0  0  0  1  0  0  0  0  0  0  0  0
   -4.7002   -4.5593   -1.6473 C   0  0  0  1  0  0  0  0  0  0  0  0
   -5.4935   -4.0484   -1.1428 H   0  0  0  1  0  0  0  0  0  0  0  0
   -3.7941   -3.5806   -2.3733 C   0  0  0  1  0  0  0  0  0  0  0  0
   -4.3396   -2.7214   -2.7035 H   0  0  0  1  0  0  0  0  0  0  0  0
   -2.7701   -3.2049   -1.2904 C   0  0  0  1  0  0  0  0  0  0  0  0
   -3.1349   -2.3905   -0.6999 H   0  0  0  1  0  0  0  0  0  0  0  0
   -2.6128   -4.3472   -0.4990 O   0  0  0  1  0  0  0  0  0  0  0  0
   -1.4952   -2.8312   -1.9035 N   0  0  0  1  0  0  0  0  0  0  0  0
   -0.4487   -3.6531   -2.1898 C   0  0  0  1  0  0  0  0  0  0  0  0
   -0.4694   -4.6741   -1.9930 H   0  0  0  1  0  0  0  0  0  0  0  0
    0.5829   -3.0634   -2.7301 N   0  0  0  1  0  0  0  0  0  0  0  0
    0.1885   -1.7375   -2.8201 C   0  0  0  1  0  0  0  0  0  0  0  0
    0.7957   -0.5738   -3.2829 C   0  0  0  1  0  0  0  0  0  0  0  0
    0.1328    0.5865   -3.2287 N   0  0  0  1  0  0  0  0  0  0  0  0
   -1.1047    0.5807   -2.7087 C   0  0  0  1  0  0  0  0  0  0  0  0
   -1.5850    1.5027   -2.6804 H   0  0  0  1  0  0  0  0  0  0  0  0
   -1.7982   -0.4429   -2.2257 N   0  0  0  1  0  0  0  0  0  0  0  0
   -1.1067   -1.5803   -2.3087 C   0  0  0  1  0  0  0  0  0  0  0  0
    2.0669   -0.6167   -3.7918 N   0  0  0  1  0  0  0  0  0  0  0  0
    2.4964    0.2057   -4.1074 H   0  0  0  1  0  0  0  0  0  0  0  0
    2.5467   -1.4699   -3.8403 H   0  0  0  1  0  0  0  0  0  0  0  0
   -3.1574   -4.2000   -3.4918 O   0  0  0  1  0  0  0  0  0  0  0  0
   -3.8120   -4.3918   -4.1673 H   0  0  0  1  0  0  0  0  0  0  0  0
   -5.2586   -5.5337   -2.5655 O   0  0  0  1  0  0  0  0  0  0  0  0
   -6.6622   -6.2797   -2.1615 P   0  0  0  1  0  0  0  0  0  0  0  0
   -6.8229   -6.2309   -0.6911 O   0  0  0  1  0  0  0  0  0  0  0  0
   -7.8896   -5.4555   -2.8237 O   0  5  0  1  0  0  0  0  0  0  0  0
   -6.5876   -7.7869   -2.7506 O   0  5  0  1  0  0  0  0  0  0  0  0
   -4.7300  -13.0453   -5.2411 C   0  0  0  1  0  0  0  0  0  0  0  0
   -5.4062  -13.5782   -4.6058 H   0  0  0  1  0  0  0  0  0  0  0  0
   -4.1249  -14.0171   -6.2372 C   0  0  0  1  0  0  0  0  0  0  0  0
   -4.8070  -14.9776   -6.5921 O   0  0  0  1  0  0  0  0  0  0  0  0
   -2.8899  -13.7812   -6.6748 N   0  0  0  1  0  0  0  0  0  0  0  0
   -2.4670  -12.9391   -6.4055 H   0  0  0  1  0  0  0  0  0  0  0  0
   -2.1207  -14.6794   -7.5229 C   0  0  0  1  0  0  0  0  0  0  0  0
   -2.0750  -14.2653   -8.5084 H   0  0  0  1  0  0  0  0  0  0  0  0
   -2.6159  -15.6273   -7.5564 H   0  0  0  1  0  0  0  0  0  0  0  0
   -0.7029  -14.8882   -7.0162 C   0  0  0  1  0  0  0  0  0  0  0  0
   -0.7498  -15.3677   -6.0608 H   0  0  0  1  0  0  0  0  0  0  0  0
   -0.2338  -13.9320   -6.9133 H   0  0  0  1  0  0  0  0  0  0  0  0
    0.1329  -15.7349   -7.9362 C   0  0  0  1  0  0  0  0  0  0  0  0
   -0.3099  -16.7254   -8.4942 O   0  0  0  1  0  0  0  0  0  0  0  0
    1.4119  -15.3934   -8.1547 N   0  0  0  1  0  0  0  0  0  0  0  0
    1.7671  -14.5615   -7.7776 H   0  0  0  1  0  0  0  0  0  0  0  0
    2.2727  -16.2556   -8.9505 C   0  0  0  1  0  0  0  0  0  0  0  0
    2.0976  -17.2682   -8.6522 H   0  0  0  1  0  0  0  0  0  0  0  0
    3.2894  -15.9933   -8.7444 H   0  0  0  1  0  0  0  0  0  0  0  0
    2.0550  -16.1602  -10.4459 C   0  0  0  1  0  0  0  0  0  0  0  0
    1.0024  -16.1251  -10.6346 H   0  0  0  1  0  0  0  0  0  0  0  0
    2.4716  -17.0317  -10.9063 H   0  0  0  1  0  0  0  0  0  0  0  0
    2.8206  -14.6980  -11.1854 S   0  0  0  1  0  0  0  0  0  0  0  0
    1.7052  -13.4322  -10.7417 C   0  0  0  1  0  0  0  0  0  0  0  0
    0.7422  -13.6067  -10.0489 O   0  0  0  1  0  0  0  0  0  0  0  0
    2.1385  -12.0771  -11.2451 C   0  0  0  1  0  0  0  0  0  0  0  0
    2.0735  -12.0814  -12.3132 H   0  0  0  1  0  0  0  0  0  0  0  0
    3.1550  -11.9208  -10.9498 H   0  0  0  1  0  0  0  0  0  0  0  0
    1.3161  -10.9239  -10.7287 C   0  0  0  1  0  0  0  0  0  0  0  0
    0.8505  -10.1335  -11.5529 O   0  0  0  1  0  0  0  0  0  0  0  0
    1.0857  -10.7593   -9.2985 C   0  0  0  1  0  0  0  0  0  0  0  0
    0.6104   -9.8725   -9.0353 H   0  0  0  1  0  0  0  0  0  0  0  0
    1.3827  -11.5558   -8.2725 C   0  0  0  1  0  0  0  0  0  0  0  0
    1.8592  -12.4542   -8.4904 H   0  0  0  1  0  0  0  0  0  0  0  0
    1.0923  -11.2713   -6.8480 C   0  0  0  1  0  0  0  0  0  0  0  0
    1.4744  -12.1806   -5.8798 C   0  0  0  1  0  0  0  0  0  0  0  0
    1.9586  -13.0593   -6.1538 H   0  0  0  1  0  0  0  0  0  0  0  0
    1.2121  -11.9213   -4.5436 C   0  0  0  1  0  0  0  0  0  0  0  0
    0.5638  -10.7561   -4.1799 C   0  0  0  1  0  0  0  0  0  0  0  0
    0.1807   -9.8442   -5.1512 C   0  0  0  1  0  0  0  0  0  0  0  0
   -0.3036   -8.9655   -4.8773 H   0  0  0  1  0  0  0  0  0  0  0  0
    0.4422  -10.1026   -6.4835 C   0  0  0  1  0  0  0  0  0  0  0  0
    0.1511   -9.4203   -7.2125 H   0  0  0  1  0  0  0  0  0  0  0  0
    0.2311  -10.3599   -2.9222 O   0  5  0  1  0  0  0  0  0  0  0  0
    1.6369  -12.8803   -3.6871 O   0  0  0  1  0  0  0  0  0  0  0  0
    1.1572  -12.8119   -2.3352 C   0  0  0  1  0  0  0  0  0  0  0  0
    1.6108  -11.9807   -1.8369 H   0  0  0  1  0  0  0  0  0  0  0  0
    1.4091  -13.7161   -1.8214 H   0  0  0  1  0  0  0  0  0  0  0  0
    0.0945  -12.6880   -2.3399 H   0  0  0  1  0  0  0  0  0  0  0  0
   -3.7420  -12.3876   -4.4629 O   0  0  0  1  0  0  0  0  0  0  0  0
   -2.8713  -12.6993   -4.7204 H   0  0  0  1  0  0  0  0  0  0  0  0
  1  2  1  0  0  0  0
  1  3  1  0  0  0  0
  1  4  1  0  0  0  0
  1  5  1  0  0  0  0
  5  6  1  0  0  0  0
  5 10  1  0  0  0  0
  5 55  1  0  0  0  0
  6  7  1  0  0  0  0
  6  8  1  0  0  0  0
  6  9  1  0  0  0  0
 10 11  1  0  0  0  0
 10 12  1  0  0  0  0
 10 13  1  0  0  0  0
 13 14  1  0  0  0  0
 14 15  2  0  0  0  0
 14 16  1  0  0  0  0
 14 17  1  0  0  0  0
 17 18  1  0  0  0  0
 18 19  1  0  0  0  0
 18 20  2  0  0  0  0
 18 21  1  0  0  0  0
 21 22  1  0  0  0  0
 22 23  1  0  0  0  0
 22 24  1  0  0  0  0
 22 25  1  0  0  0  0
 25 26  1  0  0  0  0
 25 27  1  0  0  0  0
 25 33  1  0  0  0  0
 27 28  1  0  0  0  0
 27 29  1  0  0  0  0
 27 50  1  0  0  0  0
 29 30  1  0  0  0  0
 29 31  1  0  0  0  0
 29 48  1  0  0  0  0
 31 32  1  0  0  0  0
 31 33  1  0  0  0  0
 31 34  1  0  0  0  0
 34 35  1  0  0  0  0
 34 44  1  0  0  0  0
 35 36  1  0  0  0  0
 35 37  2  0  0  0  0
 37 38  1  0  0  0  0
 38 39  1  0  0  0  0
 38 44  2  0  0  0  0
 39 40  2  0  0  0  0
 39 45  1  0  0  0  0
 40 41  1  0  0  0  0
 41 42  1  0  0  0  0
 41 43  2  0  0  0  0
 43 44  1  0  0  0  0
 45 46  1  0  0  0  0
 45 47  1  0  0  0  0
 48 49  1  0  0  0  0
 50 51  1  0  0  0  0
 51 52  2  0  0  0  0
 51 53  1  0  0  0  0
 51 54  1  0  0  0  0
 55 56  1  0  0  0  0
 55 57  1  0  0  0  0
 55104  1  0  0  0  0
 57 58  2  0  0  0  0
 57 59  1  0  0  0  0
 59 60  1  0  0  0  0
 59 61  1  0  0  0  0
 61 62  1  0  0  0  0
 61 63  1  0  0  0  0
 61 64  1  0  0  0  0
 64 65  1  0  0  0  0
 64 66  1  0  0  0  0
 64 67  1  0  0  0  0
 67 68  2  0  0  0  0
 67 69  1  0  0  0  0
 69 70  1  0  0  0  0
 69 71  1  0  0  0  0
 71 72  1  0  0  0  0
 71 73  1  0  0  0  0
 71 74  1  0  0  0  0
 74 75  1  0  0  0  0
 74 76  1  0  0  0  0
 74 77  1  0  0  0  0
 77 78  1  0  0  0  0
 78 79  2  0  0  0  0
 78 80  1  0  0  0  0
 80 81  1  0  0  0  0
 80 82  1  0  0  0  0
 80 83  1  0  0  0  0
 83 84  2  0  0  0  0
 83 85  1  0  0  0  0
 85 86  1  0  0  0  0
 85 87  2  0  0  0  0
 87 88  1  0  0  0  0
 87 89  1  0  0  0  0
 89 90  2  0  0  0  0
 89 96  1  0  0  0  0
 90 91  1  0  0  0  0
 90 92  1  0  0  0  0
 92 93  2  0  0  0  0
 92 99  1  0  0  0  0
 93 94  1  0  0  0  0
 93 98  1  0  0  0  0
 94 95  1  0  0  0  0
 94 96  2  0  0  0  0
 96 97  1  0  0  0  0
 99100  1  0  0  0  0
100101  1  0  0  0  0
100102  1  0  0  0  0
100103  1  0  0  0  0
104105  1  0  0  0  0
M  BCL ATM C_TeTeTeTe H_S H_S H_S C_TeTeTeTe C_TeTeTeTe H_S H_S H_S C_TeTeTeTe H_S H_S O_Tr2TrTrPi2 P_TeTeTeTePi O_Tr2Tr2TrPi O_Te2Te2Te2Te O_Tr2TrTrPi2 P_TeTeTeTePi O_Te2Te2TeTe O_Tr2Tr2TrPi O_Tr2TrTrPi2 C_TeTeTeTe H_S H_S C_TeTeTeTe H_S C_TeTeTeTe H_S C_TeTeTeTe H_S C_TeTeTeTe H_S O_Te2Te2TeTe N_TrTrTrPi2 C_TrTrTrPi H_S N_Tr2TrTrPi C_TrTrTrPi C_TrTrTrPi N_Tr2TrTrPi C_TrTrTrPi H_S N_Tr2TrTrPi C_TrTrTrPi N_TrTrTrPi2 H_S H_S O_Te2Te2TeTe H_S O_Tr2TrTrPi2 P_TeTeTeTePi O_Tr2Tr2TrPi O_Te2Te2Te2Te O_Te2Te2Te2Te C_TeTeTeTe H_S C_TrTrTrPi O_Tr2Tr2TrPi N_TrTrTrPi2 H_S C_TeTeTeTe H_S H_S C_TeTeTeTe H_S H_S C_TrTrTrPi O_Tr2Tr2TrPi N_TrTrTrPi2 H_S C_TeTeTeTe H_S H_S C_TeTeTeTe H_S H_S S_Te2Te2TeTe C_TrTrTrPi O_Tr2Tr2TrPi C_TeTeTeTe H_S H_S C_TrTrTrPi O_Tr2Tr2TrPi C_TrTrTrPi H_S C_TrTrTrPi H_S C_TrTrTrPi C_TrTrTrPi H_S C_TrTrTrPi C_TrTrTrPi C_TrTrTrPi H_S C_TrTrTrPi H_S O_Te2Te2Te2Te O_Tr2TrTrPi2 C_TeTeTeTe H_S H_S H_S O_Te2Te2TeTe H_S
M  BCL BND NonConjugatedSingleBond NonConjugatedSingleBond NonConjugatedSingleBond NonConjugatedSingleBond NonConjugatedSingleBond NonConjugatedSingleBond NonConjugatedSingleBond NonConjugatedSingleBond NonConjugatedSingleBond NonConjugatedSingleBond NonConjugatedSingleBond NonConjugatedSingleBond NonConjugatedSingleBond ConjugatedSingleBond ConjugatedDoubleBond ConjugatedSingleBond ConjugatedSingleBond ConjugatedSingleBond ConjugatedSingleBond ConjugatedDoubleBond ConjugatedSingleBond NonConjugatedSingleBond NonConjugatedSingleBond NonConjugatedSingleBond NonConjugatedSingleBond NonConjugatedSingleBond NonConjugatedSingleBondInRing NonConjugatedSingleBondInRing NonConjugatedSingleBond NonConjugatedSingleBondInRing NonConjugatedSingleBond NonConjugatedSingleBond NonConjugatedSingleBondInRing NonConjugatedSingleBond NonConjugatedSingleBond NonConjugatedSingleBondInRing NonConjugatedSingleBond AromaticSingleBond AromaticSingleBond NonConjugatedSingleBond AromaticDoubleBond AromaticSingleBond AromaticSingleBond AromaticDoubleBond AromaticDoubleBond ConjugatedSingleBond AromaticSingleBond NonConjugatedSingleBond AromaticDoubleBond AromaticSingleBond NonConjugatedSingleBond NonConjugatedSingleBond NonConjugatedSingleBond ConjugatedSingleBond ConjugatedDoubleBond ConjugatedSingleBond ConjugatedSingleBond NonConjugatedSingleBond NonConjugatedSingleBond NonConjugatedSingleBond ConjugatedDoubleBond AmideSingleBond NonConjugatedSingleBond NonConjugatedSingleBond NonConjugatedSingleBond NonConjugatedSingleBond NonConjugatedSingleBond NonConjugatedSingleBond NonConjugatedSingleBond NonConjugatedSingleBond ConjugatedDoubleBond AmideSingleBond NonConjugatedSingleBond NonConjugatedSingleBond NonConjugatedSingleBond NonConjugatedSingleBond NonConjugatedSingleBond NonConjugatedSingleBond NonConjugatedSingleBond NonConjugatedSingleBond ConjugatedSingleBond ConjugatedDoubleBond NonConjugatedSingleBond NonConjugatedSingleBond NonConjugatedSingleBond NonConjugatedSingleBond ConjugatedDoubleBond ConjugatedSingleBond NonConjugatedSingleBond ConjugatedDoubleBond NonConjugatedSingleBond ConjugatedSingleBond AromaticDoubleBond AromaticSingleBond NonConjugatedSingleBond AromaticSingleBond AromaticDoubleBond ConjugatedSingleBond AromaticSingleBond ConjugatedSingleBond NonConjugatedSingleBond AromaticDoubleBond NonConjugatedSingleBond NonConjugatedSingleBond NonConjugatedSingleBond NonConjugatedSingleBond NonConjugatedSingleBond NonConjugatedSingleBond
M  BCL CHI  14   R  18   S  25   R  27   R  29   R  31   S  55   R
M  BCL DBI - - - - - - - - - - - E - - -
M  END
> <ConfClashScore>
0 

> <ConfOneFourInteractionScore>
-0.974445 

> <ConfScore>
0.229966 

> <ConfScorePBest>
0.00871249 

> <ConfTolerance>
3.57238 

$$$$
L03.****
  PyMOL2.5          3D                             0

105108  0  0  0  0  0  0  0  0999 V2000
    0.1545  -13.3224   -0.3291 C   0  0  0  1  0  0  0  0  0  0  0  0
    0.7073  -14.1533    0.0566 H   0  0  0  1  0  0  0  0  0  0  0  0
    0.3931  -13.1846   -1.3630 H   0  0  0  1  0  0  0  0  0  0  0  0
   -0.8934  -13.5131   -0.2268 H   0  0  0  1  0  0  0  0  0  0  0  0
    0.5219  -12.0558    0.4531 C   0  0  0  1  0  0  0  0  0  0  0  0
    1.5113  -12.4401    1.5597 C   0  0  0  1  0  0  0  0  0  0  0  0
    1.8637  -11.5550    2.0469 H   0  0  0  1  0  0  0  0  0  0  0  0
    2.3394  -12.9647    1.1309 H   0  0  0  1  0  0  0  0  0  0  0  0
    1.0212  -13.0687    2.2735 H   0  0  0  1  0  0  0  0  0  0  0  0
   -0.6675  -11.4926    1.0706 C   0  0  0  1  0  0  0  0  0  0  0  0
   -1.0252  -12.1777    1.8105 H   0  0  0  1  0  0  0  0  0  0  0  0
   -1.4142  -11.3602    0.3157 H   0  0  0  1  0  0  0  0  0  0  0  0
   -0.4221  -10.2248    1.7000 O   0  0  0  1  0  0  0  0  0  0  0  0
   -1.5157   -9.3195    2.3788 P   0  0  0  1  0  0  0  0  0  0  0  0
   -0.4974   -8.7889    3.3125 O   0  0  0  1  0  0  0  0  0  0  0  0
   -1.6799   -9.4275    0.7707 O   0  5  0  1  0  0  0  0  0  0  0  0
   -2.6397   -8.3886    3.0769 O   0  0  0  1  0  0  0  0  0  0  0  0
   -3.8646   -7.7296    2.2310 P   0  0  0  1  0  0  0  0  0  0  0  0
   -4.9468   -7.3084    3.1507 O   0  0  0  0  0  0  0  0  0  0  0  0
   -4.1890   -8.5507    1.0498 O   0  0  0  1  0  0  0  0  0  0  0  0
   -2.9927   -6.4879    1.8139 O   0  0  0  1  0  0  0  0  0  0  0  0
   -2.6043   -6.2825    0.4308 C   0  0  0  1  0  0  0  0  0  0  0  0
   -2.8327   -7.1548   -0.1452 H   0  0  0  1  0  0  0  0  0  0  0  0
   -1.5551   -6.0809    0.3731 H   0  0  0  1  0  0  0  0  0  0  0  0
   -3.3856   -5.0996   -0.0945 C   0  0  0  1  0  0  0  0  0  0  0  0
   -4.2595   -4.9539    0.5055 H   0  0  0  1  0  0  0  0  0  0  0  0
   -3.7501   -5.3133   -1.4535 C   0  0  0  1  0  0  0  0  0  0  0  0
   -4.7884   -5.5668   -1.5052 H   0  0  0  1  0  0  0  0  0  0  0  0
   -3.5158   -4.1366   -2.2151 C   0  0  0  1  0  0  0  0  0  0  0  0
   -4.4439   -3.7023   -2.5231 H   0  0  0  1  0  0  0  0  0  0  0  0
   -2.7797   -3.2017   -1.3119 C   0  0  0  1  0  0  0  0  0  0  0  0
   -3.3617   -2.3215   -1.1346 H   0  0  0  1  0  0  0  0  0  0  0  0
   -2.5699   -3.9187   -0.0805 O   0  0  0  1  0  0  0  0  0  0  0  0
   -1.4962   -2.8269   -1.9062 N   0  0  0  1  0  0  0  0  0  0  0  0
   -0.4395   -3.6512   -2.1866 C   0  0  0  1  0  0  0  0  0  0  0  0
   -0.4552   -4.6724   -1.9899 H   0  0  0  1  0  0  0  0  0  0  0  0
    0.5891   -3.0510   -2.7207 N   0  0  0  1  0  0  0  0  0  0  0  0
    0.1854   -1.7330   -2.7975 C   0  0  0  1  0  0  0  0  0  0  0  0
    0.7985   -0.5719   -3.2751 C   0  0  0  1  0  0  0  0  0  0  0  0
    0.1409    0.5911   -3.2171 N   0  0  0  1  0  0  0  0  0  0  0  0
   -1.1097    0.5806   -2.7083 C   0  0  0  1  0  0  0  0  0  0  0  0
   -1.5952    1.5002   -2.6883 H   0  0  0  1  0  0  0  0  0  0  0  0
   -1.8044   -0.4478   -2.2292 N   0  0  0  1  0  0  0  0  0  0  0  0
   -1.0973   -1.5772   -2.2999 C   0  0  0  1  0  0  0  0  0  0  0  0
    2.0634   -0.6245   -3.7988 N   0  0  0  1  0  0  0  0  0  0  0  0
    2.5105    0.1998   -4.0835 H   0  0  0  1  0  0  0  0  0  0  0  0
    2.5211   -1.4863   -3.8887 H   0  0  0  1  0  0  0  0  0  0  0  0
   -2.7260   -4.4396   -3.3659 O   0  0  0  1  0  0  0  0  0  0  0  0
   -2.0022   -5.0180   -3.1146 H   0  0  0  1  0  0  0  0  0  0  0  0
   -2.9605   -6.3982   -1.9951 O   0  0  0  1  0  0  0  0  0  0  0  0
   -3.6723   -7.4423   -3.0405 P   0  0  0  1  0  0  0  0  0  0  0  0
   -4.8025   -6.8556   -3.7948 O   0  0  0  1  0  0  0  0  0  0  0  0
   -2.4943   -7.9873   -4.0098 O   0  5  0  1  0  0  0  0  0  0  0  0
   -4.2621   -8.6864   -2.1870 O   0  5  0  1  0  0  0  0  0  0  0  0
    1.1726  -11.0068   -0.4564 C   0  0  0  1  0  0  0  0  0  0  0  0
    1.6134  -10.2542    0.1634 H   0  0  0  1  0  0  0  0  0  0  0  0
    2.2505  -11.5737   -1.3618 C   0  0  0  1  0  0  0  0  0  0  0  0
    2.0480  -11.7768   -2.5475 O   0  0  0  1  0  0  0  0  0  0  0  0
    3.4034  -11.8158   -0.7361 N   0  0  0  1  0  0  0  0  0  0  0  0
    3.4079  -11.7620    0.2424 H   0  0  0  1  0  0  0  0  0  0  0  0
    4.6551  -12.1539   -1.3971 C   0  0  0  1  0  0  0  0  0  0  0  0
    4.4461  -12.8234   -2.2052 H   0  0  0  1  0  0  0  0  0  0  0  0
    5.2967  -12.6368   -0.6900 H   0  0  0  1  0  0  0  0  0  0  0  0
    5.3739  -10.9276   -1.9517 C   0  0  0  1  0  0  0  0  0  0  0  0
    4.7042  -10.3857   -2.5864 H   0  0  0  1  0  0  0  0  0  0  0  0
    6.2241  -11.2456   -2.5181 H   0  0  0  1  0  0  0  0  0  0  0  0
    5.8362  -10.0213   -0.8274 C   0  0  0  1  0  0  0  0  0  0  0  0
    6.5234  -10.4505    0.0955 O   0  0  0  1  0  0  0  0  0  0  0  0
    5.4482   -8.7457   -0.9134 N   0  0  0  1  0  0  0  0  0  0  0  0
    4.8717   -8.4759   -1.6585 H   0  0  0  1  0  0  0  0  0  0  0  0
    5.8519   -7.7430    0.0610 C   0  0  0  1  0  0  0  0  0  0  0  0
    5.8200   -6.7801   -0.4045 H   0  0  0  1  0  0  0  0  0  0  0  0
    6.8524   -7.9544    0.3760 H   0  0  0  1  0  0  0  0  0  0  0  0
    4.9501   -7.7226    1.2844 C   0  0  0  1  0  0  0  0  0  0  0  0
    5.5498   -7.9465    2.1418 H   0  0  0  1  0  0  0  0  0  0  0  0
    4.2065   -8.4820    1.1606 H   0  0  0  1  0  0  0  0  0  0  0  0
    4.1033   -6.1535    1.5874 S   0  0  0  1  0  0  0  0  0  0  0  0
    2.9860   -5.9830    0.2152 C   0  0  0  1  0  0  0  0  0  0  0  0
    2.8869   -6.7955   -0.6643 O   0  0  0  1  0  0  0  0  0  0  0  0
    2.1837   -4.7070    0.2857 C   0  0  0  1  0  0  0  0  0  0  0  0
    1.7813   -4.4993   -0.6837 H   0  0  0  1  0  0  0  0  0  0  0  0
    2.8317   -3.9088    0.5820 H   0  0  0  1  0  0  0  0  0  0  0  0
    1.0466   -4.8016    1.2735 C   0  0  0  1  0  0  0  0  0  0  0  0
    0.6719   -5.8874    1.6795 O   0  0  0  1  0  0  0  0  0  0  0  0
    0.4064   -3.5746    1.7319 C   0  0  0  1  0  0  0  0  0  0  0  0
   -0.3093   -3.6630    2.4812 H   0  0  0  1  0  0  0  0  0  0  0  0
    0.6597   -2.3496    1.2730 C   0  0  0  1  0  0  0  0  0  0  0  0
    1.3754   -2.2611    0.5236 H   0  0  0  1  0  0  0  0  0  0  0  0
    0.0092   -1.1029    1.7387 C   0  0  0  1  0  0  0  0  0  0  0  0
    0.2315    0.0780    1.0559 C   0  0  0  1  0  0  0  0  0  0  0  0
    0.8550    0.0880    0.2236 H   0  0  0  1  0  0  0  0  0  0  0  0
   -0.3767    1.2490    1.4805 C   0  0  0  1  0  0  0  0  0  0  0  0
   -1.2012    1.2369    2.5897 C   0  0  0  1  0  0  0  0  0  0  0  0
   -1.4240    0.0524    3.2745 C   0  0  0  1  0  0  0  0  0  0  0  0
   -2.0475    0.0423    4.1068 H   0  0  0  1  0  0  0  0  0  0  0  0
   -0.8176   -1.1153    2.8513 C   0  0  0  1  0  0  0  0  0  0  0  0
   -0.9817   -2.0032    3.3674 H   0  0  0  1  0  0  0  0  0  0  0  0
   -1.7782    2.4039    2.9830 O   0  5  0  1  0  0  0  0  0  0  0  0
   -0.0908    2.3341    0.7350 O   0  0  0  1  0  0  0  0  0  0  0  0
    1.2186    2.3268    0.1203 C   0  0  0  1  0  0  0  0  0  0  0  0
    1.9664    2.1947    0.8742 H   0  0  0  1  0  0  0  0  0  0  0  0
    1.3810    3.2566   -0.3837 H   0  0  0  1  0  0  0  0  0  0  0  0
    1.2771    1.5236   -0.5843 H   0  0  0  1  0  0  0  0  0  0  0  0
    0.1284  -10.4373   -1.2326 O   0  0  0  1  0  0  0  0  0  0  0  0
   -0.0971   -9.5728   -0.8813 H   0  0  0  1  0  0  0  0  0  0  0  0
  1  2  1  0  0  0  0
  1  3  1  0  0  0  0
  1  4  1  0  0  0  0
  1  5  1  0  0  0  0
  5  6  1  0  0  0  0
  5 10  1  0  0  0  0
  5 55  1  0  0  0  0
  6  7  1  0  0  0  0
  6  8  1  0  0  0  0
  6  9  1  0  0  0  0
 10 11  1  0  0  0  0
 10 12  1  0  0  0  0
 10 13  1  0  0  0  0
 13 14  1  0  0  0  0
 14 15  2  0  0  0  0
 14 16  1  0  0  0  0
 14 17  1  0  0  0  0
 17 18  1  0  0  0  0
 18 19  1  0  0  0  0
 18 20  2  0  0  0  0
 18 21  1  0  0  0  0
 21 22  1  0  0  0  0
 22 23  1  0  0  0  0
 22 24  1  0  0  0  0
 22 25  1  0  0  0  0
 25 26  1  0  0  0  0
 25 27  1  0  0  0  0
 25 33  1  0  0  0  0
 27 28  1  0  0  0  0
 27 29  1  0  0  0  0
 27 50  1  0  0  0  0
 29 30  1  0  0  0  0
 29 31  1  0  0  0  0
 29 48  1  0  0  0  0
 31 32  1  0  0  0  0
 31 33  1  0  0  0  0
 31 34  1  0  0  0  0
 34 35  1  0  0  0  0
 34 44  1  0  0  0  0
 35 36  1  0  0  0  0
 35 37  2  0  0  0  0
 37 38  1  0  0  0  0
 38 39  1  0  0  0  0
 38 44  2  0  0  0  0
 39 40  2  0  0  0  0
 39 45  1  0  0  0  0
 40 41  1  0  0  0  0
 41 42  1  0  0  0  0
 41 43  2  0  0  0  0
 43 44  1  0  0  0  0
 45 46  1  0  0  0  0
 45 47  1  0  0  0  0
 48 49  1  0  0  0  0
 50 51  1  0  0  0  0
 51 52  2  0  0  0  0
 51 53  1  0  0  0  0
 51 54  1  0  0  0  0
 55 56  1  0  0  0  0
 55 57  1  0  0  0  0
 55104  1  0  0  0  0
 57 58  2  0  0  0  0
 57 59  1  0  0  0  0
 59 60  1  0  0  0  0
 59 61  1  0  0  0  0
 61 62  1  0  0  0  0
 61 63  1  0  0  0  0
 61 64  1  0  0  0  0
 64 65  1  0  0  0  0
 64 66  1  0  0  0  0
 64 67  1  0  0  0  0
 67 68  2  0  0  0  0
 67 69  1  0  0  0  0
 69 70  1  0  0  0  0
 69 71  1  0  0  0  0
 71 72  1  0  0  0  0
 71 73  1  0  0  0  0
 71 74  1  0  0  0  0
 74 75  1  0  0  0  0
 74 76  1  0  0  0  0
 74 77  1  0  0  0  0
 77 78  1  0  0  0  0
 78 79  2  0  0  0  0
 78 80  1  0  0  0  0
 80 81  1  0  0  0  0
 80 82  1  0  0  0  0
 80 83  1  0  0  0  0
 83 84  2  0  0  0  0
 83 85  1  0  0  0  0
 85 86  1  0  0  0  0
 85 87  2  0  0  0  0
 87 88  1  0  0  0  0
 87 89  1  0  0  0  0
 89 90  2  0  0  0  0
 89 96  1  0  0  0  0
 90 91  1  0  0  0  0
 90 92  1  0  0  0  0
 92 93  2  0  0  0  0
 92 99  1  0  0  0  0
 93 94  1  0  0  0  0
 93 98  1  0  0  0  0
 94 95  1  0  0  0  0
 94 96  2  0  0  0  0
 96 97  1  0  0  0  0
 99100  1  0  0  0  0
100101  1  0  0  0  0
100102  1  0  0  0  0
100103  1  0  0  0  0
104105  1  0  0  0  0
M  BCL ATM C_TeTeTeTe H_S H_S H_S C_TeTeTeTe C_TeTeTeTe H_S H_S H_S C_TeTeTeTe H_S H_S O_Tr2TrTrPi2 P_TeTeTeTePi O_Tr2Tr2TrPi O_Te2Te2Te2Te O_Tr2TrTrPi2 P_TeTeTeTePi O_Te2Te2TeTe O_Tr2Tr2TrPi O_Tr2TrTrPi2 C_TeTeTeTe H_S H_S C_TeTeTeTe H_S C_TeTeTeTe H_S C_TeTeTeTe H_S C_TeTeTeTe H_S O_Te2Te2TeTe N_TrTrTrPi2 C_TrTrTrPi H_S N_Tr2TrTrPi C_TrTrTrPi C_TrTrTrPi N_Tr2TrTrPi C_TrTrTrPi H_S N_Tr2TrTrPi C_TrTrTrPi N_TrTrTrPi2 H_S H_S O_Te2Te2TeTe H_S O_Tr2TrTrPi2 P_TeTeTeTePi O_Tr2Tr2TrPi O_Te2Te2Te2Te O_Te2Te2Te2Te C_TeTeTeTe H_S C_TrTrTrPi O_Tr2Tr2TrPi N_TrTrTrPi2 H_S C_TeTeTeTe H_S H_S C_TeTeTeTe H_S H_S C_TrTrTrPi O_Tr2Tr2TrPi N_TrTrTrPi2 H_S C_TeTeTeTe H_S H_S C_TeTeTeTe H_S H_S S_Te2Te2TeTe C_TrTrTrPi O_Tr2Tr2TrPi C_TeTeTeTe H_S H_S C_TrTrTrPi O_Tr2Tr2TrPi C_TrTrTrPi H_S C_TrTrTrPi H_S C_TrTrTrPi C_TrTrTrPi H_S C_TrTrTrPi C_TrTrTrPi C_TrTrTrPi H_S C_TrTrTrPi H_S O_Te2Te2Te2Te O_Tr2TrTrPi2 C_TeTeTeTe H_S H_S H_S O_Te2Te2TeTe H_S
M  BCL BND NonConjugatedSingleBond NonConjugatedSingleBond NonConjugatedSingleBond NonConjugatedSingleBond NonConjugatedSingleBond NonConjugatedSingleBond NonConjugatedSingleBond NonConjugatedSingleBond NonConjugatedSingleBond NonConjugatedSingleBond NonConjugatedSingleBond NonConjugatedSingleBond NonConjugatedSingleBond ConjugatedSingleBond ConjugatedDoubleBond ConjugatedSingleBond ConjugatedSingleBond ConjugatedSingleBond ConjugatedSingleBond ConjugatedDoubleBond ConjugatedSingleBond NonConjugatedSingleBond NonConjugatedSingleBond NonConjugatedSingleBond NonConjugatedSingleBond NonConjugatedSingleBond NonConjugatedSingleBondInRing NonConjugatedSingleBondInRing NonConjugatedSingleBond NonConjugatedSingleBondInRing NonConjugatedSingleBond NonConjugatedSingleBond NonConjugatedSingleBondInRing NonConjugatedSingleBond NonConjugatedSingleBond NonConjugatedSingleBondInRing NonConjugatedSingleBond AromaticSingleBond AromaticSingleBond NonConjugatedSingleBond AromaticDoubleBond AromaticSingleBond AromaticSingleBond AromaticDoubleBond AromaticDoubleBond ConjugatedSingleBond AromaticSingleBond NonConjugatedSingleBond AromaticDoubleBond AromaticSingleBond NonConjugatedSingleBond NonConjugatedSingleBond NonConjugatedSingleBond ConjugatedSingleBond ConjugatedDoubleBond ConjugatedSingleBond ConjugatedSingleBond NonConjugatedSingleBond NonConjugatedSingleBond NonConjugatedSingleBond ConjugatedDoubleBond AmideSingleBond NonConjugatedSingleBond NonConjugatedSingleBond NonConjugatedSingleBond NonConjugatedSingleBond NonConjugatedSingleBond NonConjugatedSingleBond NonConjugatedSingleBond NonConjugatedSingleBond ConjugatedDoubleBond AmideSingleBond NonConjugatedSingleBond NonConjugatedSingleBond NonConjugatedSingleBond NonConjugatedSingleBond NonConjugatedSingleBond NonConjugatedSingleBond NonConjugatedSingleBond NonConjugatedSingleBond ConjugatedSingleBond ConjugatedDoubleBond NonConjugatedSingleBond NonConjugatedSingleBond NonConjugatedSingleBond NonConjugatedSingleBond ConjugatedDoubleBond ConjugatedSingleBond NonConjugatedSingleBond ConjugatedDoubleBond NonConjugatedSingleBond ConjugatedSingleBond AromaticDoubleBond AromaticSingleBond NonConjugatedSingleBond AromaticSingleBond AromaticDoubleBond ConjugatedSingleBond AromaticSingleBond ConjugatedSingleBond NonConjugatedSingleBond AromaticDoubleBond NonConjugatedSingleBond NonConjugatedSingleBond NonConjugatedSingleBond NonConjugatedSingleBond NonConjugatedSingleBond NonConjugatedSingleBond
M  BCL CHI  14   R  18   S  25   R  27   R  29   R  31   S  55   R
M  BCL DBI - - - - - - - - - - - E - - -
M  END
> <ConfClashScore>
0 

> <ConfOneFourInteractionScore>
-0.963486 

> <ConfScore>
0.231265 

> <ConfScorePBest>
0.00860949 

> <ConfTolerance>
3.20531 

$$$$
L03.****
  PyMOL2.5          3D                             0

105108  0  0  0  0  0  0  0  0999 V2000
   -2.8546   -8.9668  -10.3984 C   0  0  0  1  0  0  0  0  0  0  0  0
   -3.8018   -8.6081  -10.7433 H   0  0  0  1  0  0  0  0  0  0  0  0
   -2.1668   -9.0012  -11.2174 H   0  0  0  1  0  0  0  0  0  0  0  0
   -2.4780   -8.3091   -9.6431 H   0  0  0  1  0  0  0  0  0  0  0  0
   -3.0225  -10.3740   -9.8130 C   0  0  0  1  0  0  0  0  0  0  0  0
   -3.8703  -11.2201  -10.7704 C   0  0  0  1  0  0  0  0  0  0  0  0
   -3.9913  -12.2034  -10.3664 H   0  0  0  1  0  0  0  0  0  0  0  0
   -3.3806  -11.2826  -11.7197 H   0  0  0  1  0  0  0  0  0  0  0  0
   -4.8307  -10.7646  -10.8933 H   0  0  0  1  0  0  0  0  0  0  0  0
   -3.7471  -10.2651   -8.5119 C   0  0  0  1  0  0  0  0  0  0  0  0
   -4.0807  -11.2322   -8.1984 H   0  0  0  1  0  0  0  0  0  0  0  0
   -4.5893   -9.6136   -8.6172 H   0  0  0  1  0  0  0  0  0  0  0  0
   -2.8235   -9.7231   -7.5387 O   0  0  0  1  0  0  0  0  0  0  0  0
   -3.2538   -9.5323   -6.0371 P   0  0  0  1  0  0  0  0  0  0  0  0
   -2.9264  -10.9494   -5.7629 O   0  0  0  1  0  0  0  0  0  0  0  0
   -2.4718   -8.2519   -6.6482 O   0  5  0  1  0  0  0  0  0  0  0  0
   -3.6955   -9.3369   -4.4951 O   0  0  0  1  0  0  0  0  0  0  0  0
   -2.7282   -8.8990   -3.3328 P   0  0  0  1  0  0  0  0  0  0  0  0
   -1.3214   -8.8039   -3.8589 O   0  0  0  0  0  0  0  0  0  0  0  0
   -2.9818   -9.8334   -2.2123 O   0  0  0  1  0  0  0  0  0  0  0  0
   -3.2272   -7.4395   -3.0214 O   0  0  0  1  0  0  0  0  0  0  0  0
   -2.5982   -6.6438   -1.9836 C   0  0  0  1  0  0  0  0  0  0  0  0
   -1.6359   -6.3206   -2.3219 H   0  0  0  1  0  0  0  0  0  0  0  0
   -2.4852   -7.2400   -1.1023 H   0  0  0  1  0  0  0  0  0  0  0  0
   -3.4457   -5.4320   -1.6602 C   0  0  0  1  0  0  0  0  0  0  0  0
   -4.3559   -5.7468   -1.1940 H   0  0  0  1  0  0  0  0  0  0  0  0
   -3.7396   -4.6276   -2.9258 C   0  0  0  1  0  0  0  0  0  0  0  0
   -4.6492   -4.9477   -3.3895 H   0  0  0  1  0  0  0  0  0  0  0  0
   -3.8657   -3.2310   -2.3737 C   0  0  0  1  0  0  0  0  0  0  0  0
   -4.8318   -3.0709   -1.9425 H   0  0  0  1  0  0  0  0  0  0  0  0
   -2.7794   -3.2016   -1.3139 C   0  0  0  1  0  0  0  0  0  0  0  0
   -3.0311   -2.5070   -0.5399 H   0  0  0  1  0  0  0  0  0  0  0  0
   -2.7193   -4.5146   -0.7977 O   0  0  0  1  0  0  0  0  0  0  0  0
   -1.4968   -2.8271   -1.9075 N   0  0  0  1  0  0  0  0  0  0  0  0
   -0.4407   -3.6517   -2.1890 C   0  0  0  1  0  0  0  0  0  0  0  0
   -0.4568   -4.6731   -1.9935 H   0  0  0  1  0  0  0  0  0  0  0  0
    0.5881   -3.0515   -2.7227 N   0  0  0  1  0  0  0  0  0  0  0  0
    0.1852   -1.7331   -2.7979 C   0  0  0  1  0  0  0  0  0  0  0  0
    0.7988   -0.5719   -3.2743 C   0  0  0  1  0  0  0  0  0  0  0  0
    0.1418    0.5915   -3.2148 N   0  0  0  1  0  0  0  0  0  0  0  0
   -1.1087    0.5811   -2.7058 C   0  0  0  1  0  0  0  0  0  0  0  0
   -1.5937    1.5009   -2.6846 H   0  0  0  1  0  0  0  0  0  0  0  0
   -1.8038   -0.4475   -2.2277 N   0  0  0  1  0  0  0  0  0  0  0  0
   -1.0974   -1.5773   -2.2999 C   0  0  0  1  0  0  0  0  0  0  0  0
    2.0635   -0.6245   -3.7983 N   0  0  0  1  0  0  0  0  0  0  0  0
    2.4971    0.1953   -4.1151 H   0  0  0  1  0  0  0  0  0  0  0  0
    2.5346   -1.4818   -3.8564 H   0  0  0  1  0  0  0  0  0  0  0  0
   -3.6271   -2.2517   -3.3857 O   0  0  0  1  0  0  0  0  0  0  0  0
   -2.7235   -2.3299   -3.7006 H   0  0  0  1  0  0  0  0  0  0  0  0
   -2.6499   -4.7237   -3.8792 O   0  0  0  1  0  0  0  0  0  0  0  0
   -2.8451   -4.2318   -5.4315 P   0  0  0  1  0  0  0  0  0  0  0  0
   -4.2970   -4.1720   -5.7119 O   0  0  0  1  0  0  0  0  0  0  0  0
   -2.1896   -2.7580   -5.5826 O   0  5  0  1  0  0  0  0  0  0  0  0
   -2.1268   -5.2965   -6.4189 O   0  5  0  1  0  0  0  0  0  0  0  0
   -1.6482  -11.0260   -9.5820 C   0  0  0  1  0  0  0  0  0  0  0  0
   -1.0843  -10.3881   -8.9338 H   0  0  0  1  0  0  0  0  0  0  0  0
   -1.7008  -12.4012   -8.9680 C   0  0  0  1  0  0  0  0  0  0  0  0
   -1.8226  -13.4075   -9.6652 O   0  0  0  1  0  0  0  0  0  0  0  0
   -1.6068  -12.4463   -7.6296 N   0  0  0  1  0  0  0  0  0  0  0  0
   -1.5220  -11.6057   -7.1328 H   0  0  0  1  0  0  0  0  0  0  0  0
   -1.6264  -13.6999   -6.8907 C   0  0  0  1  0  0  0  0  0  0  0  0
   -1.9879  -14.4797   -7.5279 H   0  0  0  1  0  0  0  0  0  0  0  0
   -2.2740  -13.6010   -6.0447 H   0  0  0  1  0  0  0  0  0  0  0  0
   -0.2240  -14.0517   -6.4118 C   0  0  0  1  0  0  0  0  0  0  0  0
    0.4098  -14.1634   -7.2666 H   0  0  0  1  0  0  0  0  0  0  0  0
   -0.2690  -14.9774   -5.8770 H   0  0  0  1  0  0  0  0  0  0  0  0
    0.3705  -13.0047   -5.5082 C   0  0  0  1  0  0  0  0  0  0  0  0
   -0.1674  -12.7134   -4.4407 O   0  0  0  1  0  0  0  0  0  0  0  0
    1.4972  -12.4032   -5.9001 N   0  0  0  1  0  0  0  0  0  0  0  0
    1.9008  -12.6650   -6.7538 H   0  0  0  1  0  0  0  0  0  0  0  0
    2.1475  -11.3704   -5.1013 C   0  0  0  1  0  0  0  0  0  0  0  0
    1.4069  -10.8833   -4.5021 H   0  0  0  1  0  0  0  0  0  0  0  0
    2.5974  -10.6588   -5.7617 H   0  0  0  1  0  0  0  0  0  0  0  0
    3.2140  -11.9279   -4.1927 C   0  0  0  1  0  0  0  0  0  0  0  0
    3.4960  -12.8908   -4.5645 H   0  0  0  1  0  0  0  0  0  0  0  0
    2.7943  -12.0318   -3.2139 H   0  0  0  1  0  0  0  0  0  0  0  0
    4.7097  -10.9202   -4.0566 S   0  0  0  1  0  0  0  0  0  0  0  0
    5.7279  -11.4584   -5.4072 C   0  0  0  1  0  0  0  0  0  0  0  0
    5.3486  -12.3076   -6.1574 O   0  0  0  1  0  0  0  0  0  0  0  0
    7.0690  -10.7767   -5.5261 C   0  0  0  1  0  0  0  0  0  0  0  0
    7.8016  -11.5202   -5.7615 H   0  0  0  1  0  0  0  0  0  0  0  0
    7.3023  -10.3320   -4.5813 H   0  0  0  1  0  0  0  0  0  0  0  0
    7.1346   -9.7014   -6.5809 C   0  0  0  1  0  0  0  0  0  0  0  0
    8.0136   -8.8561   -6.5462 O   0  0  0  1  0  0  0  0  0  0  0  0
    6.1325   -9.6897   -7.6397 C   0  0  0  1  0  0  0  0  0  0  0  0
    5.7693   -8.7627   -7.9403 H   0  0  0  1  0  0  0  0  0  0  0  0
    5.6421  -10.7648   -8.2553 C   0  0  0  1  0  0  0  0  0  0  0  0
    6.0172  -11.6826   -7.9413 H   0  0  0  1  0  0  0  0  0  0  0  0
    4.6278  -10.8101   -9.3322 C   0  0  0  1  0  0  0  0  0  0  0  0
    3.9945   -9.6674   -9.7830 C   0  0  0  1  0  0  0  0  0  0  0  0
    4.2237   -8.7449   -9.3610 H   0  0  0  1  0  0  0  0  0  0  0  0
    3.0538   -9.7510  -10.7976 C   0  0  0  1  0  0  0  0  0  0  0  0
    2.7452  -10.9776  -11.3548 C   0  0  0  1  0  0  0  0  0  0  0  0
    3.3805  -12.1236  -10.9025 C   0  0  0  1  0  0  0  0  0  0  0  0
    3.1513  -13.0461  -11.3245 H   0  0  0  1  0  0  0  0  0  0  0  0
    4.3185  -12.0404   -9.8909 C   0  0  0  1  0  0  0  0  0  0  0  0
    4.7922  -12.9008   -9.5488 H   0  0  0  1  0  0  0  0  0  0  0  0
    1.8093  -10.9832  -12.3415 O   0  5  0  1  0  0  0  0  0  0  0  0
    2.5060   -8.5699  -11.1582 O   0  0  0  1  0  0  0  0  0  0  0  0
    3.1711   -7.3368  -10.7980 C   0  0  0  1  0  0  0  0  0  0  0  0
    4.1750   -7.3512  -11.1678 H   0  0  0  1  0  0  0  0  0  0  0  0
    3.1850   -7.2374   -9.7327 H   0  0  0  1  0  0  0  0  0  0  0  0
    2.6451   -6.5097  -11.2270 H   0  0  0  1  0  0  0  0  0  0  0  0
   -1.0400  -11.0500  -10.8725 O   0  0  0  1  0  0  0  0  0  0  0  0
   -0.4586  -10.2920  -10.9669 H   0  0  0  1  0  0  0  0  0  0  0  0
  1  2  1  0  0  0  0
  1  3  1  0  0  0  0
  1  4  1  0  0  0  0
  1  5  1  0  0  0  0
  5  6  1  0  0  0  0
  5 10  1  0  0  0  0
  5 55  1  0  0  0  0
  6  7  1  0  0  0  0
  6  8  1  0  0  0  0
  6  9  1  0  0  0  0
 10 11  1  0  0  0  0
 10 12  1  0  0  0  0
 10 13  1  0  0  0  0
 13 14  1  0  0  0  0
 14 15  2  0  0  0  0
 14 16  1  0  0  0  0
 14 17  1  0  0  0  0
 17 18  1  0  0  0  0
 18 19  1  0  0  0  0
 18 20  2  0  0  0  0
 18 21  1  0  0  0  0
 21 22  1  0  0  0  0
 22 23  1  0  0  0  0
 22 24  1  0  0  0  0
 22 25  1  0  0  0  0
 25 26  1  0  0  0  0
 25 27  1  0  0  0  0
 25 33  1  0  0  0  0
 27 28  1  0  0  0  0
 27 29  1  0  0  0  0
 27 50  1  0  0  0  0
 29 30  1  0  0  0  0
 29 31  1  0  0  0  0
 29 48  1  0  0  0  0
 31 32  1  0  0  0  0
 31 33  1  0  0  0  0
 31 34  1  0  0  0  0
 34 35  1  0  0  0  0
 34 44  1  0  0  0  0
 35 36  1  0  0  0  0
 35 37  2  0  0  0  0
 37 38  1  0  0  0  0
 38 39  1  0  0  0  0
 38 44  2  0  0  0  0
 39 40  2  0  0  0  0
 39 45  1  0  0  0  0
 40 41  1  0  0  0  0
 41 42  1  0  0  0  0
 41 43  2  0  0  0  0
 43 44  1  0  0  0  0
 45 46  1  0  0  0  0
 45 47  1  0  0  0  0
 48 49  1  0  0  0  0
 50 51  1  0  0  0  0
 51 52  2  0  0  0  0
 51 53  1  0  0  0  0
 51 54  1  0  0  0  0
 55 56  1  0  0  0  0
 55 57  1  0  0  0  0
 55104  1  0  0  0  0
 57 58  2  0  0  0  0
 57 59  1  0  0  0  0
 59 60  1  0  0  0  0
 59 61  1  0  0  0  0
 61 62  1  0  0  0  0
 61 63  1  0  0  0  0
 61 64  1  0  0  0  0
 64 65  1  0  0  0  0
 64 66  1  0  0  0  0
 64 67  1  0  0  0  0
 67 68  2  0  0  0  0
 67 69  1  0  0  0  0
 69 70  1  0  0  0  0
 69 71  1  0  0  0  0
 71 72  1  0  0  0  0
 71 73  1  0  0  0  0
 71 74  1  0  0  0  0
 74 75  1  0  0  0  0
 74 76  1  0  0  0  0
 74 77  1  0  0  0  0
 77 78  1  0  0  0  0
 78 79  2  0  0  0  0
 78 80  1  0  0  0  0
 80 81  1  0  0  0  0
 80 82  1  0  0  0  0
 80 83  1  0  0  0  0
 83 84  2  0  0  0  0
 83 85  1  0  0  0  0
 85 86  1  0  0  0  0
 85 87  2  0  0  0  0
 87 88  1  0  0  0  0
 87 89  1  0  0  0  0
 89 90  2  0  0  0  0
 89 96  1  0  0  0  0
 90 91  1  0  0  0  0
 90 92  1  0  0  0  0
 92 93  2  0  0  0  0
 92 99  1  0  0  0  0
 93 94  1  0  0  0  0
 93 98  1  0  0  0  0
 94 95  1  0  0  0  0
 94 96  2  0  0  0  0
 96 97  1  0  0  0  0
 99100  1  0  0  0  0
100101  1  0  0  0  0
100102  1  0  0  0  0
100103  1  0  0  0  0
104105  1  0  0  0  0
M  BCL ATM C_TeTeTeTe H_S H_S H_S C_TeTeTeTe C_TeTeTeTe H_S H_S H_S C_TeTeTeTe H_S H_S O_Tr2TrTrPi2 P_TeTeTeTePi O_Tr2Tr2TrPi O_Te2Te2Te2Te O_Tr2TrTrPi2 P_TeTeTeTePi O_Te2Te2TeTe O_Tr2Tr2TrPi O_Tr2TrTrPi2 C_TeTeTeTe H_S H_S C_TeTeTeTe H_S C_TeTeTeTe H_S C_TeTeTeTe H_S C_TeTeTeTe H_S O_Te2Te2TeTe N_TrTrTrPi2 C_TrTrTrPi H_S N_Tr2TrTrPi C_TrTrTrPi C_TrTrTrPi N_Tr2TrTrPi C_TrTrTrPi H_S N_Tr2TrTrPi C_TrTrTrPi N_TrTrTrPi2 H_S H_S O_Te2Te2TeTe H_S O_Tr2TrTrPi2 P_TeTeTeTePi O_Tr2Tr2TrPi O_Te2Te2Te2Te O_Te2Te2Te2Te C_TeTeTeTe H_S C_TrTrTrPi O_Tr2Tr2TrPi N_TrTrTrPi2 H_S C_TeTeTeTe H_S H_S C_TeTeTeTe H_S H_S C_TrTrTrPi O_Tr2Tr2TrPi N_TrTrTrPi2 H_S C_TeTeTeTe H_S H_S C_TeTeTeTe H_S H_S S_Te2Te2TeTe C_TrTrTrPi O_Tr2Tr2TrPi C_TeTeTeTe H_S H_S C_TrTrTrPi O_Tr2Tr2TrPi C_TrTrTrPi H_S C_TrTrTrPi H_S C_TrTrTrPi C_TrTrTrPi H_S C_TrTrTrPi C_TrTrTrPi C_TrTrTrPi H_S C_TrTrTrPi H_S O_Te2Te2Te2Te O_Tr2TrTrPi2 C_TeTeTeTe H_S H_S H_S O_Te2Te2TeTe H_S
M  BCL BND NonConjugatedSingleBond NonConjugatedSingleBond NonConjugatedSingleBond NonConjugatedSingleBond NonConjugatedSingleBond NonConjugatedSingleBond NonConjugatedSingleBond NonConjugatedSingleBond NonConjugatedSingleBond NonConjugatedSingleBond NonConjugatedSingleBond NonConjugatedSingleBond NonConjugatedSingleBond ConjugatedSingleBond ConjugatedDoubleBond ConjugatedSingleBond ConjugatedSingleBond ConjugatedSingleBond ConjugatedSingleBond ConjugatedDoubleBond ConjugatedSingleBond NonConjugatedSingleBond NonConjugatedSingleBond NonConjugatedSingleBond NonConjugatedSingleBond NonConjugatedSingleBond NonConjugatedSingleBondInRing NonConjugatedSingleBondInRing NonConjugatedSingleBond NonConjugatedSingleBondInRing NonConjugatedSingleBond NonConjugatedSingleBond NonConjugatedSingleBondInRing NonConjugatedSingleBond NonConjugatedSingleBond NonConjugatedSingleBondInRing NonConjugatedSingleBond AromaticSingleBond AromaticSingleBond NonConjugatedSingleBond AromaticDoubleBond AromaticSingleBond AromaticSingleBond AromaticDoubleBond AromaticDoubleBond ConjugatedSingleBond AromaticSingleBond NonConjugatedSingleBond AromaticDoubleBond AromaticSingleBond NonConjugatedSingleBond NonConjugatedSingleBond NonConjugatedSingleBond ConjugatedSingleBond ConjugatedDoubleBond ConjugatedSingleBond ConjugatedSingleBond NonConjugatedSingleBond NonConjugatedSingleBond NonConjugatedSingleBond ConjugatedDoubleBond AmideSingleBond NonConjugatedSingleBond NonConjugatedSingleBond NonConjugatedSingleBond NonConjugatedSingleBond NonConjugatedSingleBond NonConjugatedSingleBond NonConjugatedSingleBond NonConjugatedSingleBond ConjugatedDoubleBond AmideSingleBond NonConjugatedSingleBond NonConjugatedSingleBond NonConjugatedSingleBond NonConjugatedSingleBond NonConjugatedSingleBond NonConjugatedSingleBond NonConjugatedSingleBond NonConjugatedSingleBond ConjugatedSingleBond ConjugatedDoubleBond NonConjugatedSingleBond NonConjugatedSingleBond NonConjugatedSingleBond NonConjugatedSingleBond ConjugatedDoubleBond ConjugatedSingleBond NonConjugatedSingleBond ConjugatedDoubleBond NonConjugatedSingleBond ConjugatedSingleBond AromaticDoubleBond AromaticSingleBond NonConjugatedSingleBond AromaticSingleBond AromaticDoubleBond ConjugatedSingleBond AromaticSingleBond ConjugatedSingleBond NonConjugatedSingleBond AromaticDoubleBond NonConjugatedSingleBond NonConjugatedSingleBond NonConjugatedSingleBond NonConjugatedSingleBond NonConjugatedSingleBond NonConjugatedSingleBond
M  BCL CHI  14   R  18   S  25   R  27   R  29   R  31   S  55   R
M  BCL DBI - - - - - - - - - - - E - - -
M  END
> <ConfClashScore>
0 

> <ConfOneFourInteractionScore>
-0.971104 

> <ConfScore>
0.232196 

> <ConfScorePBest>
0.00850649 

> <ConfTolerance>
3.1031 

$$$$
L03.****
  PyMOL2.5          3D                             0

105108  0  0  0  0  0  0  0  0999 V2000
   -4.8379  -10.4744   -0.0530 C   0  0  0  1  0  0  0  0  0  0  0  0
   -4.0119   -9.8399   -0.2979 H   0  0  0  1  0  0  0  0  0  0  0  0
   -4.6817  -10.9058    0.9136 H   0  0  0  1  0  0  0  0  0  0  0  0
   -5.7398   -9.8987   -0.0457 H   0  0  0  1  0  0  0  0  0  0  0  0
   -4.9531  -11.5902   -1.0974 C   0  0  0  1  0  0  0  0  0  0  0  0
   -4.7286  -12.9867   -0.4863 C   0  0  0  1  0  0  0  0  0  0  0  0
   -3.8463  -12.9740    0.1190 H   0  0  0  1  0  0  0  0  0  0  0  0
   -4.6122  -13.7047   -1.2710 H   0  0  0  1  0  0  0  0  0  0  0  0
   -5.5714  -13.2511    0.1176 H   0  0  0  1  0  0  0  0  0  0  0  0
   -3.9407  -11.3523   -2.1836 C   0  0  0  1  0  0  0  0  0  0  0  0
   -3.9815  -12.1367   -2.9102 H   0  0  0  1  0  0  0  0  0  0  0  0
   -2.9552  -11.2993   -1.7702 H   0  0  0  1  0  0  0  0  0  0  0  0
   -4.2994  -10.1047   -2.7771 O   0  0  0  1  0  0  0  0  0  0  0  0
   -3.3658   -9.0444   -3.4701 P   0  0  0  1  0  0  0  0  0  0  0  0
   -2.7658  -10.1139   -4.2987 O   0  0  0  1  0  0  0  0  0  0  0  0
   -4.8613   -8.4920   -3.1829 O   0  5  0  1  0  0  0  0  0  0  0  0
   -2.4056   -7.9548   -4.1828 O   0  0  0  1  0  0  0  0  0  0  0  0
   -2.8904   -6.5613   -4.7525 P   0  0  0  1  0  0  0  0  0  0  0  0
   -4.2159   -6.8116   -5.4537 O   0  0  0  0  0  0  0  0  0  0  0  0
   -1.8170   -5.9001   -5.5677 O   0  0  0  1  0  0  0  0  0  0  0  0
   -3.1449   -5.7092   -3.4543 O   0  0  0  1  0  0  0  0  0  0  0  0
   -3.9275   -6.2435   -2.3553 C   0  0  0  1  0  0  0  0  0  0  0  0
   -3.4238   -7.0830   -1.9236 H   0  0  0  1  0  0  0  0  0  0  0  0
   -4.8908   -6.5476   -2.7080 H   0  0  0  1  0  0  0  0  0  0  0  0
   -4.0788   -5.1491   -1.3255 C   0  0  0  1  0  0  0  0  0  0  0  0
   -4.5230   -5.5516   -0.4391 H   0  0  0  1  0  0  0  0  0  0  0  0
   -4.9521   -4.0006   -1.8883 C   0  0  0  1  0  0  0  0  0  0  0  0
   -5.5995   -3.6039   -1.1345 H   0  0  0  1  0  0  0  0  0  0  0  0
   -3.9199   -2.9732   -2.3186 C   0  0  0  1  0  0  0  0  0  0  0  0
   -4.3083   -1.9793   -2.2399 H   0  0  0  1  0  0  0  0  0  0  0  0
   -2.7787   -3.2037   -1.3153 C   0  0  0  1  0  0  0  0  0  0  0  0
   -2.9427   -2.6300   -0.4270 H   0  0  0  1  0  0  0  0  0  0  0  0
   -2.7970   -4.5709   -1.0215 O   0  0  0  1  0  0  0  0  0  0  0  0
   -1.4964   -2.8283   -1.9088 N   0  0  0  1  0  0  0  0  0  0  0  0
   -0.4402   -3.6524   -2.1916 C   0  0  0  1  0  0  0  0  0  0  0  0
   -0.4561   -4.6740   -1.9973 H   0  0  0  1  0  0  0  0  0  0  0  0
    0.5884   -3.0514   -2.7249 N   0  0  0  1  0  0  0  0  0  0  0  0
    0.1852   -1.7330   -2.7984 C   0  0  0  1  0  0  0  0  0  0  0  0
    0.7985   -0.5711   -3.2736 C   0  0  0  1  0  0  0  0  0  0  0  0
    0.1413    0.5921   -3.2125 N   0  0  0  1  0  0  0  0  0  0  0  0
   -1.1090    0.5809   -2.7032 C   0  0  0  1  0  0  0  0  0  0  0  0
   -1.5941    1.5006   -2.6808 H   0  0  0  1  0  0  0  0  0  0  0  0
   -1.8038   -0.4484   -2.2261 N   0  0  0  1  0  0  0  0  0  0  0  0
   -1.0972   -1.5779   -2.2998 C   0  0  0  1  0  0  0  0  0  0  0  0
    2.0631   -0.6229   -3.7980 N   0  0  0  1  0  0  0  0  0  0  0  0
    2.5372   -1.4790   -3.8502 H   0  0  0  1  0  0  0  0  0  0  0  0
    2.4935    0.1961   -4.1210 H   0  0  0  1  0  0  0  0  0  0  0  0
   -3.4842   -3.2101   -3.6580 O   0  0  0  1  0  0  0  0  0  0  0  0
   -4.2430   -3.2130   -4.2461 H   0  0  0  1  0  0  0  0  0  0  0  0
   -5.7416   -4.4503   -3.0159 O   0  0  0  1  0  0  0  0  0  0  0  0
   -6.7741   -3.3913   -3.7244 P   0  0  0  1  0  0  0  0  0  0  0  0
   -7.6086   -2.7142   -2.7067 O   0  0  0  1  0  0  0  0  0  0  0  0
   -6.0199   -2.3522   -4.7121 O   0  5  0  1  0  0  0  0  0  0  0  0
   -7.7481   -4.2390   -4.7027 O   0  5  0  1  0  0  0  0  0  0  0  0
   -6.3484  -11.5388   -1.7300 C   0  0  0  1  0  0  0  0  0  0  0  0
   -6.4076  -12.3091   -2.4702 H   0  0  0  1  0  0  0  0  0  0  0  0
   -7.4138  -11.8006   -0.6815 C   0  0  0  1  0  0  0  0  0  0  0  0
   -7.3618  -12.7810    0.0599 O   0  0  0  1  0  0  0  0  0  0  0  0
   -8.3848  -10.8740   -0.6559 N   0  0  0  1  0  0  0  0  0  0  0  0
   -8.4236  -10.1870   -1.3537 H   0  0  0  1  0  0  0  0  0  0  0  0
   -9.3799  -10.8875    0.4059 C   0  0  0  1  0  0  0  0  0  0  0  0
   -9.6287   -9.8772    0.6555 H   0  0  0  1  0  0  0  0  0  0  0  0
   -8.9613  -11.3741    1.2619 H   0  0  0  1  0  0  0  0  0  0  0  0
  -10.6513  -11.6172    0.0041 C   0  0  0  1  0  0  0  0  0  0  0  0
  -10.9022  -11.3378   -0.9979 H   0  0  0  1  0  0  0  0  0  0  0  0
  -11.4381  -11.3199    0.6654 H   0  0  0  1  0  0  0  0  0  0  0  0
  -10.5145  -13.1261    0.0645 C   0  0  0  1  0  0  0  0  0  0  0  0
   -9.7372  -13.6648    0.8481 O   0  0  0  1  0  0  0  0  0  0  0  0
  -11.2928  -13.8184   -0.7879 N   0  0  0  1  0  0  0  0  0  0  0  0
  -11.9505  -13.3623   -1.3535 H   0  0  0  1  0  0  0  0  0  0  0  0
  -11.1300  -15.2634   -0.8456 C   0  0  0  1  0  0  0  0  0  0  0  0
  -10.1046  -15.5106   -0.6660 H   0  0  0  1  0  0  0  0  0  0  0  0
  -11.4171  -15.6125   -1.8155 H   0  0  0  1  0  0  0  0  0  0  0  0
  -11.9991  -15.9334    0.2062 C   0  0  0  1  0  0  0  0  0  0  0  0
  -13.0220  -15.8556   -0.0982 H   0  0  0  1  0  0  0  0  0  0  0  0
  -11.8632  -15.4215    1.1359 H   0  0  0  1  0  0  0  0  0  0  0  0
  -11.6033  -17.6813    0.4493 S   0  0  0  1  0  0  0  0  0  0  0  0
  -10.1537  -17.6664    1.4784 C   0  0  0  1  0  0  0  0  0  0  0  0
   -9.6645  -16.6621    1.9205 O   0  0  0  1  0  0  0  0  0  0  0  0
   -9.6136  -19.0581    1.7293 C   0  0  0  1  0  0  0  0  0  0  0  0
   -8.5732  -18.9747    1.9652 H   0  0  0  1  0  0  0  0  0  0  0  0
   -9.7318  -19.6287    0.8319 H   0  0  0  1  0  0  0  0  0  0  0  0
  -10.2998  -19.8094    2.8644 C   0  0  0  1  0  0  0  0  0  0  0  0
   -9.9209  -19.6186    4.0065 O   0  0  0  1  0  0  0  0  0  0  0  0
  -11.3820  -20.7230    2.5112 C   0  0  0  1  0  0  0  0  0  0  0  0
  -11.8963  -21.1522    3.3067 H   0  0  0  1  0  0  0  0  0  0  0  0
  -11.7902  -21.0731    1.2921 C   0  0  0  1  0  0  0  0  0  0  0  0
  -11.2877  -20.6540    0.4838 H   0  0  0  1  0  0  0  0  0  0  0  0
  -12.8975  -22.0075    0.9898 C   0  0  0  1  0  0  0  0  0  0  0  0
  -13.1633  -22.4268   -0.3000 C   0  0  0  1  0  0  0  0  0  0  0  0
  -12.5807  -22.0819   -1.0895 H   0  0  0  1  0  0  0  0  0  0  0  0
  -14.2065  -23.3071   -0.5413 C   0  0  0  1  0  0  0  0  0  0  0  0
  -14.9842  -23.7614    0.5071 C   0  0  0  1  0  0  0  0  0  0  0  0
  -14.7174  -23.3407    1.8007 C   0  0  0  1  0  0  0  0  0  0  0  0
  -15.3000  -23.6856    2.5902 H   0  0  0  1  0  0  0  0  0  0  0  0
  -13.6773  -22.4629    2.0415 C   0  0  0  1  0  0  0  0  0  0  0  0
  -13.4797  -22.1442    3.0115 H   0  0  0  1  0  0  0  0  0  0  0  0
  -16.0192  -24.6212    0.3092 O   0  5  0  1  0  0  0  0  0  0  0  0
  -14.4097  -23.6811   -1.8195 O   0  0  0  1  0  0  0  0  0  0  0  0
  -13.2590  -23.5495   -2.6861 C   0  0  0  1  0  0  0  0  0  0  0  0
  -13.5249  -23.8436   -3.6800 H   0  0  0  1  0  0  0  0  0  0  0  0
  -12.4695  -24.1767   -2.3280 H   0  0  0  1  0  0  0  0  0  0  0  0
  -12.9315  -22.5309   -2.6915 H   0  0  0  1  0  0  0  0  0  0  0  0
   -6.5543  -10.2766   -2.3364 O   0  0  0  1  0  0  0  0  0  0  0  0
   -6.2284   -9.5850   -1.7558 H   0  0  0  1  0  0  0  0  0  0  0  0
  1  2  1  0  0  0  0
  1  3  1  0  0  0  0
  1  4  1  0  0  0  0
  1  5  1  0  0  0  0
  5  6  1  0  0  0  0
  5 10  1  0  0  0  0
  5 55  1  0  0  0  0
  6  7  1  0  0  0  0
  6  8  1  0  0  0  0
  6  9  1  0  0  0  0
 10 11  1  0  0  0  0
 10 12  1  0  0  0  0
 10 13  1  0  0  0  0
 13 14  1  0  0  0  0
 14 15  2  0  0  0  0
 14 16  1  0  0  0  0
 14 17  1  0  0  0  0
 17 18  1  0  0  0  0
 18 19  1  0  0  0  0
 18 20  2  0  0  0  0
 18 21  1  0  0  0  0
 21 22  1  0  0  0  0
 22 23  1  0  0  0  0
 22 24  1  0  0  0  0
 22 25  1  0  0  0  0
 25 26  1  0  0  0  0
 25 27  1  0  0  0  0
 25 33  1  0  0  0  0
 27 28  1  0  0  0  0
 27 29  1  0  0  0  0
 27 50  1  0  0  0  0
 29 30  1  0  0  0  0
 29 31  1  0  0  0  0
 29 48  1  0  0  0  0
 31 32  1  0  0  0  0
 31 33  1  0  0  0  0
 31 34  1  0  0  0  0
 34 35  1  0  0  0  0
 34 44  1  0  0  0  0
 35 36  1  0  0  0  0
 35 37  2  0  0  0  0
 37 38  1  0  0  0  0
 38 39  1  0  0  0  0
 38 44  2  0  0  0  0
 39 40  2  0  0  0  0
 39 45  1  0  0  0  0
 40 41  1  0  0  0  0
 41 42  1  0  0  0  0
 41 43  2  0  0  0  0
 43 44  1  0  0  0  0
 45 46  1  0  0  0  0
 45 47  1  0  0  0  0
 48 49  1  0  0  0  0
 50 51  1  0  0  0  0
 51 52  2  0  0  0  0
 51 53  1  0  0  0  0
 51 54  1  0  0  0  0
 55 56  1  0  0  0  0
 55 57  1  0  0  0  0
 55104  1  0  0  0  0
 57 58  2  0  0  0  0
 57 59  1  0  0  0  0
 59 60  1  0  0  0  0
 59 61  1  0  0  0  0
 61 62  1  0  0  0  0
 61 63  1  0  0  0  0
 61 64  1  0  0  0  0
 64 65  1  0  0  0  0
 64 66  1  0  0  0  0
 64 67  1  0  0  0  0
 67 68  2  0  0  0  0
 67 69  1  0  0  0  0
 69 70  1  0  0  0  0
 69 71  1  0  0  0  0
 71 72  1  0  0  0  0
 71 73  1  0  0  0  0
 71 74  1  0  0  0  0
 74 75  1  0  0  0  0
 74 76  1  0  0  0  0
 74 77  1  0  0  0  0
 77 78  1  0  0  0  0
 78 79  2  0  0  0  0
 78 80  1  0  0  0  0
 80 81  1  0  0  0  0
 80 82  1  0  0  0  0
 80 83  1  0  0  0  0
 83 84  2  0  0  0  0
 83 85  1  0  0  0  0
 85 86  1  0  0  0  0
 85 87  2  0  0  0  0
 87 88  1  0  0  0  0
 87 89  1  0  0  0  0
 89 90  2  0  0  0  0
 89 96  1  0  0  0  0
 90 91  1  0  0  0  0
 90 92  1  0  0  0  0
 92 93  2  0  0  0  0
 92 99  1  0  0  0  0
 93 94  1  0  0  0  0
 93 98  1  0  0  0  0
 94 95  1  0  0  0  0
 94 96  2  0  0  0  0
 96 97  1  0  0  0  0
 99100  1  0  0  0  0
100101  1  0  0  0  0
100102  1  0  0  0  0
100103  1  0  0  0  0
104105  1  0  0  0  0
M  BCL ATM C_TeTeTeTe H_S H_S H_S C_TeTeTeTe C_TeTeTeTe H_S H_S H_S C_TeTeTeTe H_S H_S O_Tr2TrTrPi2 P_TeTeTeTePi O_Tr2Tr2TrPi O_Te2Te2Te2Te O_Tr2TrTrPi2 P_TeTeTeTePi O_Te2Te2TeTe O_Tr2Tr2TrPi O_Tr2TrTrPi2 C_TeTeTeTe H_S H_S C_TeTeTeTe H_S C_TeTeTeTe H_S C_TeTeTeTe H_S C_TeTeTeTe H_S O_Te2Te2TeTe N_TrTrTrPi2 C_TrTrTrPi H_S N_Tr2TrTrPi C_TrTrTrPi C_TrTrTrPi N_Tr2TrTrPi C_TrTrTrPi H_S N_Tr2TrTrPi C_TrTrTrPi N_TrTrTrPi2 H_S H_S O_Te2Te2TeTe H_S O_Tr2TrTrPi2 P_TeTeTeTePi O_Tr2Tr2TrPi O_Te2Te2Te2Te O_Te2Te2Te2Te C_TeTeTeTe H_S C_TrTrTrPi O_Tr2Tr2TrPi N_TrTrTrPi2 H_S C_TeTeTeTe H_S H_S C_TeTeTeTe H_S H_S C_TrTrTrPi O_Tr2Tr2TrPi N_TrTrTrPi2 H_S C_TeTeTeTe H_S H_S C_TeTeTeTe H_S H_S S_Te2Te2TeTe C_TrTrTrPi O_Tr2Tr2TrPi C_TeTeTeTe H_S H_S C_TrTrTrPi O_Tr2Tr2TrPi C_TrTrTrPi H_S C_TrTrTrPi H_S C_TrTrTrPi C_TrTrTrPi H_S C_TrTrTrPi C_TrTrTrPi C_TrTrTrPi H_S C_TrTrTrPi H_S O_Te2Te2Te2Te O_Tr2TrTrPi2 C_TeTeTeTe H_S H_S H_S O_Te2Te2TeTe H_S
M  BCL BND NonConjugatedSingleBond NonConjugatedSingleBond NonConjugatedSingleBond NonConjugatedSingleBond NonConjugatedSingleBond NonConjugatedSingleBond NonConjugatedSingleBond NonConjugatedSingleBond NonConjugatedSingleBond NonConjugatedSingleBond NonConjugatedSingleBond NonConjugatedSingleBond NonConjugatedSingleBond ConjugatedSingleBond ConjugatedDoubleBond ConjugatedSingleBond ConjugatedSingleBond ConjugatedSingleBond ConjugatedSingleBond ConjugatedDoubleBond ConjugatedSingleBond NonConjugatedSingleBond NonConjugatedSingleBond NonConjugatedSingleBond NonConjugatedSingleBond NonConjugatedSingleBond NonConjugatedSingleBondInRing NonConjugatedSingleBondInRing NonConjugatedSingleBond NonConjugatedSingleBondInRing NonConjugatedSingleBond NonConjugatedSingleBond NonConjugatedSingleBondInRing NonConjugatedSingleBond NonConjugatedSingleBond NonConjugatedSingleBondInRing NonConjugatedSingleBond AromaticSingleBond AromaticSingleBond NonConjugatedSingleBond AromaticDoubleBond AromaticSingleBond AromaticSingleBond AromaticDoubleBond AromaticDoubleBond ConjugatedSingleBond AromaticSingleBond NonConjugatedSingleBond AromaticDoubleBond AromaticSingleBond NonConjugatedSingleBond NonConjugatedSingleBond NonConjugatedSingleBond ConjugatedSingleBond ConjugatedDoubleBond ConjugatedSingleBond ConjugatedSingleBond NonConjugatedSingleBond NonConjugatedSingleBond NonConjugatedSingleBond ConjugatedDoubleBond AmideSingleBond NonConjugatedSingleBond NonConjugatedSingleBond NonConjugatedSingleBond NonConjugatedSingleBond NonConjugatedSingleBond NonConjugatedSingleBond NonConjugatedSingleBond NonConjugatedSingleBond ConjugatedDoubleBond AmideSingleBond NonConjugatedSingleBond NonConjugatedSingleBond NonConjugatedSingleBond NonConjugatedSingleBond NonConjugatedSingleBond NonConjugatedSingleBond NonConjugatedSingleBond NonConjugatedSingleBond ConjugatedSingleBond ConjugatedDoubleBond NonConjugatedSingleBond NonConjugatedSingleBond NonConjugatedSingleBond NonConjugatedSingleBond ConjugatedDoubleBond ConjugatedSingleBond NonConjugatedSingleBond ConjugatedDoubleBond NonConjugatedSingleBond ConjugatedSingleBond AromaticDoubleBond AromaticSingleBond NonConjugatedSingleBond AromaticSingleBond AromaticDoubleBond ConjugatedSingleBond AromaticSingleBond ConjugatedSingleBond NonConjugatedSingleBond AromaticDoubleBond NonConjugatedSingleBond NonConjugatedSingleBond NonConjugatedSingleBond NonConjugatedSingleBond NonConjugatedSingleBond NonConjugatedSingleBond
M  BCL CHI  14   R  18   S  25   R  27   R  29   R  31   S  55   R
M  BCL DBI - - - - - - - - - - - E - - -
M  END
> <ConfClashScore>
0.00140985 

> <ConfOneFourInteractionScore>
-0.976046 

> <ConfScore>
0.233048 

> <ConfScorePBest>
0.00840348 

> <ConfTolerance>
3.60716 

$$$$
L03.****
  PyMOL2.5          3D                             0

105108  0  0  0  0  0  0  0  0999 V2000
    4.1488   -3.7587   -1.6289 C   0  0  0  1  0  0  0  0  0  0  0  0
    4.7792   -3.3063   -0.8922 H   0  0  0  1  0  0  0  0  0  0  0  0
    3.4011   -3.0580   -1.9370 H   0  0  0  1  0  0  0  0  0  0  0  0
    4.7382   -4.0468   -2.4741 H   0  0  0  1  0  0  0  0  0  0  0  0
    3.4719   -4.9983   -1.0319 C   0  0  0  1  0  0  0  0  0  0  0  0
    4.5408   -6.0633   -0.7590 C   0  0  0  1  0  0  0  0  0  0  0  0
    5.3007   -5.6530   -0.1272 H   0  0  0  1  0  0  0  0  0  0  0  0
    4.9773   -6.3756   -1.6847 H   0  0  0  1  0  0  0  0  0  0  0  0
    4.0904   -6.9044   -0.2747 H   0  0  0  1  0  0  0  0  0  0  0  0
    2.4925   -5.5455   -2.0174 C   0  0  0  1  0  0  0  0  0  0  0  0
    2.8370   -5.3620   -3.0137 H   0  0  0  1  0  0  0  0  0  0  0  0
    1.5382   -5.0819   -1.8785 H   0  0  0  1  0  0  0  0  0  0  0  0
    2.3866   -6.9701   -1.7870 O   0  0  0  1  0  0  0  0  0  0  0  0
    1.0185   -7.6987   -1.5162 P   0  0  0  1  0  0  0  0  0  0  0  0
    0.3009   -6.6153   -2.2244 O   0  0  0  1  0  0  0  0  0  0  0  0
    2.2298   -8.7167   -1.8638 O   0  5  0  1  0  0  0  0  0  0  0  0
   -0.3760   -8.4408   -1.2405 O   0  0  0  1  0  0  0  0  0  0  0  0
   -1.7187   -8.6093   -2.1283 P   0  0  0  1  0  0  0  0  0  0  0  0
   -2.3885   -9.8928   -1.7495 O   0  0  0  0  0  0  0  0  0  0  0  0
   -1.2849   -8.3739   -3.5180 O   0  0  0  1  0  0  0  0  0  0  0  0
   -2.6952   -7.4871   -1.5905 O   0  0  0  1  0  0  0  0  0  0  0  0
   -3.2166   -6.4699   -2.4778 C   0  0  0  1  0  0  0  0  0  0  0  0
   -3.9699   -6.8900   -3.1110 H   0  0  0  1  0  0  0  0  0  0  0  0
   -2.4264   -6.0709   -3.0790 H   0  0  0  1  0  0  0  0  0  0  0  0
   -3.8196   -5.3675   -1.6146 C   0  0  0  1  0  0  0  0  0  0  0  0
   -4.5084   -5.7964   -0.9172 H   0  0  0  1  0  0  0  0  0  0  0  0
   -4.5290   -4.3712   -2.4835 C   0  0  0  1  0  0  0  0  0  0  0  0
   -5.5611   -4.3183   -2.2065 H   0  0  0  1  0  0  0  0  0  0  0  0
   -3.8795   -3.0344   -2.2830 C   0  0  0  1  0  0  0  0  0  0  0  0
   -4.5972   -2.3345   -1.9088 H   0  0  0  1  0  0  0  0  0  0  0  0
   -2.7678   -3.2038   -1.2895 C   0  0  0  1  0  0  0  0  0  0  0  0
   -2.9475   -2.5860   -0.4347 H   0  0  0  1  0  0  0  0  0  0  0  0
   -2.7310   -4.6460   -0.8767 O   0  0  0  1  0  0  0  0  0  0  0  0
   -1.4938   -2.8307   -1.9023 N   0  0  0  1  0  0  0  0  0  0  0  0
   -0.4469   -3.6526   -2.1872 C   0  0  0  1  0  0  0  0  0  0  0  0
   -0.4673   -4.6733   -1.9889 H   0  0  0  1  0  0  0  0  0  0  0  0
    0.5846   -3.0631   -2.7280 N   0  0  0  1  0  0  0  0  0  0  0  0
    0.1897   -1.7375   -2.8199 C   0  0  0  1  0  0  0  0  0  0  0  0
    0.7964   -0.5742   -3.2841 C   0  0  0  1  0  0  0  0  0  0  0  0
    0.1330    0.5859   -3.2317 N   0  0  0  1  0  0  0  0  0  0  0  0
   -1.1046    0.5803   -2.7121 C   0  0  0  1  0  0  0  0  0  0  0  0
   -1.5854    1.5021   -2.6852 H   0  0  0  1  0  0  0  0  0  0  0  0
   -1.7978   -0.4430   -2.2279 N   0  0  0  1  0  0  0  0  0  0  0  0
   -1.1058   -1.5802   -2.3091 C   0  0  0  1  0  0  0  0  0  0  0  0
    2.0627   -0.6171   -3.7906 N   0  0  0  1  0  0  0  0  0  0  0  0
    2.5071    0.2105   -4.0696 H   0  0  0  1  0  0  0  0  0  0  0  0
    2.5277   -1.4756   -3.8753 H   0  0  0  1  0  0  0  0  0  0  0  0
   -3.3531   -2.5604   -3.5233 O   0  0  0  1  0  0  0  0  0  0  0  0
   -2.9672   -3.2933   -4.0086 H   0  0  0  1  0  0  0  0  0  0  0  0
   -4.4207   -4.7669   -3.8749 O   0  0  0  1  0  0  0  0  0  0  0  0
   -5.7907   -5.1457   -4.6929 P   0  0  0  1  0  0  0  0  0  0  0  0
   -6.9613   -4.9684   -3.8049 O   0  0  0  1  0  0  0  0  0  0  0  0
   -5.9852   -4.1912   -5.9873 O   0  5  0  1  0  0  0  0  0  0  0  0
   -5.6704   -6.6592   -5.2578 O   0  5  0  1  0  0  0  0  0  0  0  0
    2.7605   -4.5639    0.2539 C   0  0  0  1  0  0  0  0  0  0  0  0
    2.2371   -5.4102    0.6473 H   0  0  0  1  0  0  0  0  0  0  0  0
    3.7742   -4.1073    1.2868 C   0  0  0  1  0  0  0  0  0  0  0  0
    3.9138   -2.9134    1.5490 O   0  0  0  1  0  0  0  0  0  0  0  0
    4.5155   -5.0485    1.9071 N   0  0  0  1  0  0  0  0  0  0  0  0
    4.3373   -6.0022    1.7691 H   0  0  0  1  0  0  0  0  0  0  0  0
    5.5874   -4.6072    2.7871 C   0  0  0  1  0  0  0  0  0  0  0  0
    5.1792   -4.4226    3.7588 H   0  0  0  1  0  0  0  0  0  0  0  0
    6.0013   -3.7014    2.3956 H   0  0  0  1  0  0  0  0  0  0  0  0
    6.6991   -5.6360    2.9132 C   0  0  0  1  0  0  0  0  0  0  0  0
    6.3010   -6.5119    3.3814 H   0  0  0  1  0  0  0  0  0  0  0  0
    7.4752   -5.2256    3.5247 H   0  0  0  1  0  0  0  0  0  0  0  0
    7.2931   -6.0302    1.5836 C   0  0  0  1  0  0  0  0  0  0  0  0
    7.6976   -5.1901    0.7969 O   0  0  0  1  0  0  0  0  0  0  0  0
    7.3425   -7.3422    1.3361 N   0  0  0  1  0  0  0  0  0  0  0  0
    6.9850   -7.9461    2.0201 H   0  0  0  1  0  0  0  0  0  0  0  0
    7.8872   -7.9421    0.1272 C   0  0  0  1  0  0  0  0  0  0  0  0
    8.3428   -8.8698    0.4040 H   0  0  0  1  0  0  0  0  0  0  0  0
    8.6336   -7.2776   -0.2551 H   0  0  0  1  0  0  0  0  0  0  0  0
    6.9120   -8.2285   -0.9951 C   0  0  0  1  0  0  0  0  0  0  0  0
    7.4412   -8.7104   -1.7906 H   0  0  0  1  0  0  0  0  0  0  0  0
    6.5123   -7.2992   -1.3436 H   0  0  0  1  0  0  0  0  0  0  0  0
    5.5386   -9.2921   -0.4915 S   0  0  0  1  0  0  0  0  0  0  0  0
    4.9482   -9.8200   -2.1042 C   0  0  0  1  0  0  0  0  0  0  0  0
    5.5096   -9.5125   -3.1178 O   0  0  0  1  0  0  0  0  0  0  0  0
    3.7768  -10.7687   -2.0378 C   0  0  0  1  0  0  0  0  0  0  0  0
    3.1911  -10.6383   -2.9237 H   0  0  0  1  0  0  0  0  0  0  0  0
    3.1893  -10.5140   -1.1806 H   0  0  0  1  0  0  0  0  0  0  0  0
    4.1540  -12.2247   -1.9336 C   0  0  0  1  0  0  0  0  0  0  0  0
    5.2630  -12.5640   -2.3530 O   0  0  0  1  0  0  0  0  0  0  0  0
    3.2278  -13.1919   -1.3529 C   0  0  0  1  0  0  0  0  0  0  0  0
    2.2510  -12.8750   -1.1880 H   0  0  0  1  0  0  0  0  0  0  0  0
    3.5265  -14.4459   -1.0160 C   0  0  0  1  0  0  0  0  0  0  0  0
    4.4969  -14.7862   -1.1713 H   0  0  0  1  0  0  0  0  0  0  0  0
    2.5342  -15.3746   -0.4299 C   0  0  0  1  0  0  0  0  0  0  0  0
    1.2353  -14.9809   -0.1691 C   0  0  0  1  0  0  0  0  0  0  0  0
    0.9341  -14.0084   -0.3814 H   0  0  0  1  0  0  0  0  0  0  0  0
    0.3342  -15.8824    0.3756 C   0  0  0  1  0  0  0  0  0  0  0  0
    0.7358  -17.1733    0.6627 C   0  0  0  1  0  0  0  0  0  0  0  0
    2.0386  -17.5680    0.4010 C   0  0  0  1  0  0  0  0  0  0  0  0
    2.3399  -18.5405    0.6133 H   0  0  0  1  0  0  0  0  0  0  0  0
    2.9373  -16.6692   -0.1420 C   0  0  0  1  0  0  0  0  0  0  0  0
    3.9158  -16.9643   -0.3346 H   0  0  0  1  0  0  0  0  0  0  0  0
   -0.0885  -18.1110    1.2019 O   0  5  0  1  0  0  0  0  0  0  0  0
   -0.9605  -15.6141    0.6686 O   0  0  0  1  0  0  0  0  0  0  0  0
   -1.2785  -14.2715    1.0671 C   0  0  0  1  0  0  0  0  0  0  0  0
   -0.3740  -13.7232    1.2288 H   0  0  0  1  0  0  0  0  0  0  0  0
   -1.8485  -14.2940    1.9724 H   0  0  0  1  0  0  0  0  0  0  0  0
   -1.8500  -13.7971    0.2969 H   0  0  0  1  0  0  0  0  0  0  0  0
    1.8361   -3.5491   -0.0910 O   0  0  0  1  0  0  0  0  0  0  0  0
    0.9532   -3.8159    0.1752 H   0  0  0  1  0  0  0  0  0  0  0  0
  1  2  1  0  0  0  0
  1  3  1  0  0  0  0
  1  4  1  0  0  0  0
  1  5  1  0  0  0  0
  5  6  1  0  0  0  0
  5 10  1  0  0  0  0
  5 55  1  0  0  0  0
  6  7  1  0  0  0  0
  6  8  1  0  0  0  0
  6  9  1  0  0  0  0
 10 11  1  0  0  0  0
 10 12  1  0  0  0  0
 10 13  1  0  0  0  0
 13 14  1  0  0  0  0
 14 15  2  0  0  0  0
 14 16  1  0  0  0  0
 14 17  1  0  0  0  0
 17 18  1  0  0  0  0
 18 19  1  0  0  0  0
 18 20  2  0  0  0  0
 18 21  1  0  0  0  0
 21 22  1  0  0  0  0
 22 23  1  0  0  0  0
 22 24  1  0  0  0  0
 22 25  1  0  0  0  0
 25 26  1  0  0  0  0
 25 27  1  0  0  0  0
 25 33  1  0  0  0  0
 27 28  1  0  0  0  0
 27 29  1  0  0  0  0
 27 50  1  0  0  0  0
 29 30  1  0  0  0  0
 29 31  1  0  0  0  0
 29 48  1  0  0  0  0
 31 32  1  0  0  0  0
 31 33  1  0  0  0  0
 31 34  1  0  0  0  0
 34 35  1  0  0  0  0
 34 44  1  0  0  0  0
 35 36  1  0  0  0  0
 35 37  2  0  0  0  0
 37 38  1  0  0  0  0
 38 39  1  0  0  0  0
 38 44  2  0  0  0  0
 39 40  2  0  0  0  0
 39 45  1  0  0  0  0
 40 41  1  0  0  0  0
 41 42  1  0  0  0  0
 41 43  2  0  0  0  0
 43 44  1  0  0  0  0
 45 46  1  0  0  0  0
 45 47  1  0  0  0  0
 48 49  1  0  0  0  0
 50 51  1  0  0  0  0
 51 52  2  0  0  0  0
 51 53  1  0  0  0  0
 51 54  1  0  0  0  0
 55 56  1  0  0  0  0
 55 57  1  0  0  0  0
 55104  1  0  0  0  0
 57 58  2  0  0  0  0
 57 59  1  0  0  0  0
 59 60  1  0  0  0  0
 59 61  1  0  0  0  0
 61 62  1  0  0  0  0
 61 63  1  0  0  0  0
 61 64  1  0  0  0  0
 64 65  1  0  0  0  0
 64 66  1  0  0  0  0
 64 67  1  0  0  0  0
 67 68  2  0  0  0  0
 67 69  1  0  0  0  0
 69 70  1  0  0  0  0
 69 71  1  0  0  0  0
 71 72  1  0  0  0  0
 71 73  1  0  0  0  0
 71 74  1  0  0  0  0
 74 75  1  0  0  0  0
 74 76  1  0  0  0  0
 74 77  1  0  0  0  0
 77 78  1  0  0  0  0
 78 79  2  0  0  0  0
 78 80  1  0  0  0  0
 80 81  1  0  0  0  0
 80 82  1  0  0  0  0
 80 83  1  0  0  0  0
 83 84  2  0  0  0  0
 83 85  1  0  0  0  0
 85 86  1  0  0  0  0
 85 87  2  0  0  0  0
 87 88  1  0  0  0  0
 87 89  1  0  0  0  0
 89 90  2  0  0  0  0
 89 96  1  0  0  0  0
 90 91  1  0  0  0  0
 90 92  1  0  0  0  0
 92 93  2  0  0  0  0
 92 99  1  0  0  0  0
 93 94  1  0  0  0  0
 93 98  1  0  0  0  0
 94 95  1  0  0  0  0
 94 96  2  0  0  0  0
 96 97  1  0  0  0  0
 99100  1  0  0  0  0
100101  1  0  0  0  0
100102  1  0  0  0  0
100103  1  0  0  0  0
104105  1  0  0  0  0
M  BCL ATM C_TeTeTeTe H_S H_S H_S C_TeTeTeTe C_TeTeTeTe H_S H_S H_S C_TeTeTeTe H_S H_S O_Tr2TrTrPi2 P_TeTeTeTePi O_Tr2Tr2TrPi O_Te2Te2Te2Te O_Tr2TrTrPi2 P_TeTeTeTePi O_Te2Te2TeTe O_Tr2Tr2TrPi O_Tr2TrTrPi2 C_TeTeTeTe H_S H_S C_TeTeTeTe H_S C_TeTeTeTe H_S C_TeTeTeTe H_S C_TeTeTeTe H_S O_Te2Te2TeTe N_TrTrTrPi2 C_TrTrTrPi H_S N_Tr2TrTrPi C_TrTrTrPi C_TrTrTrPi N_Tr2TrTrPi C_TrTrTrPi H_S N_Tr2TrTrPi C_TrTrTrPi N_TrTrTrPi2 H_S H_S O_Te2Te2TeTe H_S O_Tr2TrTrPi2 P_TeTeTeTePi O_Tr2Tr2TrPi O_Te2Te2Te2Te O_Te2Te2Te2Te C_TeTeTeTe H_S C_TrTrTrPi O_Tr2Tr2TrPi N_TrTrTrPi2 H_S C_TeTeTeTe H_S H_S C_TeTeTeTe H_S H_S C_TrTrTrPi O_Tr2Tr2TrPi N_TrTrTrPi2 H_S C_TeTeTeTe H_S H_S C_TeTeTeTe H_S H_S S_Te2Te2TeTe C_TrTrTrPi O_Tr2Tr2TrPi C_TeTeTeTe H_S H_S C_TrTrTrPi O_Tr2Tr2TrPi C_TrTrTrPi H_S C_TrTrTrPi H_S C_TrTrTrPi C_TrTrTrPi H_S C_TrTrTrPi C_TrTrTrPi C_TrTrTrPi H_S C_TrTrTrPi H_S O_Te2Te2Te2Te O_Tr2TrTrPi2 C_TeTeTeTe H_S H_S H_S O_Te2Te2TeTe H_S
M  BCL BND NonConjugatedSingleBond NonConjugatedSingleBond NonConjugatedSingleBond NonConjugatedSingleBond NonConjugatedSingleBond NonConjugatedSingleBond NonConjugatedSingleBond NonConjugatedSingleBond NonConjugatedSingleBond NonConjugatedSingleBond NonConjugatedSingleBond NonConjugatedSingleBond NonConjugatedSingleBond ConjugatedSingleBond ConjugatedDoubleBond ConjugatedSingleBond ConjugatedSingleBond ConjugatedSingleBond ConjugatedSingleBond ConjugatedDoubleBond ConjugatedSingleBond NonConjugatedSingleBond NonConjugatedSingleBond NonConjugatedSingleBond NonConjugatedSingleBond NonConjugatedSingleBond NonConjugatedSingleBondInRing NonConjugatedSingleBondInRing NonConjugatedSingleBond NonConjugatedSingleBondInRing NonConjugatedSingleBond NonConjugatedSingleBond NonConjugatedSingleBondInRing NonConjugatedSingleBond NonConjugatedSingleBond NonConjugatedSingleBondInRing NonConjugatedSingleBond AromaticSingleBond AromaticSingleBond NonConjugatedSingleBond AromaticDoubleBond AromaticSingleBond AromaticSingleBond AromaticDoubleBond AromaticDoubleBond ConjugatedSingleBond AromaticSingleBond NonConjugatedSingleBond AromaticDoubleBond AromaticSingleBond NonConjugatedSingleBond NonConjugatedSingleBond NonConjugatedSingleBond ConjugatedSingleBond ConjugatedDoubleBond ConjugatedSingleBond ConjugatedSingleBond NonConjugatedSingleBond NonConjugatedSingleBond NonConjugatedSingleBond ConjugatedDoubleBond AmideSingleBond NonConjugatedSingleBond NonConjugatedSingleBond NonConjugatedSingleBond NonConjugatedSingleBond NonConjugatedSingleBond NonConjugatedSingleBond NonConjugatedSingleBond NonConjugatedSingleBond ConjugatedDoubleBond AmideSingleBond NonConjugatedSingleBond NonConjugatedSingleBond NonConjugatedSingleBond NonConjugatedSingleBond NonConjugatedSingleBond NonConjugatedSingleBond NonConjugatedSingleBond NonConjugatedSingleBond ConjugatedSingleBond ConjugatedDoubleBond NonConjugatedSingleBond NonConjugatedSingleBond NonConjugatedSingleBond NonConjugatedSingleBond ConjugatedDoubleBond ConjugatedSingleBond NonConjugatedSingleBond ConjugatedDoubleBond NonConjugatedSingleBond ConjugatedSingleBond AromaticDoubleBond AromaticSingleBond NonConjugatedSingleBond AromaticSingleBond AromaticDoubleBond ConjugatedSingleBond AromaticSingleBond ConjugatedSingleBond NonConjugatedSingleBond AromaticDoubleBond NonConjugatedSingleBond NonConjugatedSingleBond NonConjugatedSingleBond NonConjugatedSingleBond NonConjugatedSingleBond NonConjugatedSingleBond
M  BCL CHI  14   R  18   S  25   R  27   R  29   R  31   S  55   R
M  BCL DBI - - - - - - - - - - - E - - -
M  END
> <ConfClashScore>
0 

> <ConfOneFourInteractionScore>
-0.971018 

> <ConfScore>
0.234466 

> <ConfScorePBest>
0.00830048 

> <ConfTolerance>
3.30725 

$$$$
L03.****
  PyMOL2.5          3D                             0

105108  0  0  0  0  0  0  0  0999 V2000
  -12.7135   -5.1098   -3.6217 C   0  0  0  1  0  0  0  0  0  0  0  0
  -12.9316   -4.9928   -2.5807 H   0  0  0  1  0  0  0  0  0  0  0  0
  -13.0263   -6.0809   -3.9444 H   0  0  0  1  0  0  0  0  0  0  0  0
  -13.2356   -4.3621   -4.1814 H   0  0  0  1  0  0  0  0  0  0  0  0
  -11.2052   -4.9574   -3.8489 C   0  0  0  1  0  0  0  0  0  0  0  0
  -10.4918   -5.9890   -2.9668 C   0  0  0  1  0  0  0  0  0  0  0  0
  -10.4232   -6.9199   -3.4901 H   0  0  0  1  0  0  0  0  0  0  0  0
  -11.0461   -6.1286   -2.0623 H   0  0  0  1  0  0  0  0  0  0  0  0
   -9.5084   -5.6385   -2.7326 H   0  0  0  1  0  0  0  0  0  0  0  0
  -10.7512   -3.5688   -3.5395 C   0  0  0  1  0  0  0  0  0  0  0  0
  -10.9363   -3.3459   -2.5095 H   0  0  0  1  0  0  0  0  0  0  0  0
  -11.2748   -2.8684   -4.1562 H   0  0  0  1  0  0  0  0  0  0  0  0
   -9.3317   -3.4998   -3.8114 O   0  0  0  1  0  0  0  0  0  0  0  0
   -8.6483   -2.1026   -3.5728 P   0  0  0  1  0  0  0  0  0  0  0  0
   -8.5416   -2.4013   -2.1272 O   0  0  0  1  0  0  0  0  0  0  0  0
   -8.1817   -2.8184   -4.9491 O   0  5  0  1  0  0  0  0  0  0  0  0
   -7.9506   -0.6761   -3.3287 O   0  0  0  1  0  0  0  0  0  0  0  0
   -6.6228    0.1238   -3.6511 P   0  0  0  1  0  0  0  0  0  0  0  0
   -6.7756    1.4837   -3.0944 O   0  0  0  0  0  0  0  0  0  0  0  0
   -6.3834    0.1695   -5.1245 O   0  0  0  1  0  0  0  0  0  0  0  0
   -5.4359   -0.7378   -3.0811 O   0  0  0  1  0  0  0  0  0  0  0  0
   -5.1912   -0.8134   -1.6569 C   0  0  0  1  0  0  0  0  0  0  0  0
   -6.0504   -0.4680   -1.1208 H   0  0  0  1  0  0  0  0  0  0  0  0
   -4.3444   -0.2118   -1.4002 H   0  0  0  1  0  0  0  0  0  0  0  0
   -4.9172   -2.2632   -1.3135 C   0  0  0  1  0  0  0  0  0  0  0  0
   -5.7996   -2.8437   -1.4846 H   0  0  0  1  0  0  0  0  0  0  0  0
   -4.4712   -2.3888    0.1642 C   0  0  0  1  0  0  0  0  0  0  0  0
   -4.8851   -3.2647    0.6184 H   0  0  0  1  0  0  0  0  0  0  0  0
   -2.9604   -2.4932    0.0518 C   0  0  0  1  0  0  0  0  0  0  0  0
   -2.5531   -3.0761    0.8513 H   0  0  0  1  0  0  0  0  0  0  0  0
   -2.7725   -3.1988   -1.3006 C   0  0  0  1  0  0  0  0  0  0  0  0
   -2.8114   -4.2607   -1.1747 H   0  0  0  1  0  0  0  0  0  0  0  0
   -3.8287   -2.7659   -2.1087 O   0  0  0  1  0  0  0  0  0  0  0  0
   -1.4917   -2.8248   -1.8951 N   0  0  0  1  0  0  0  0  0  0  0  0
   -0.4310   -3.6472   -2.1657 C   0  0  0  1  0  0  0  0  0  0  0  0
   -0.4426   -4.6665   -1.9594 H   0  0  0  1  0  0  0  0  0  0  0  0
    0.5960   -3.0477   -2.7037 N   0  0  0  1  0  0  0  0  0  0  0  0
    0.1868   -1.7322   -2.7937 C   0  0  0  1  0  0  0  0  0  0  0  0
    0.7958   -0.5731   -3.2812 C   0  0  0  1  0  0  0  0  0  0  0  0
    0.1331    0.5876   -3.2354 N   0  0  0  1  0  0  0  0  0  0  0  0
   -1.1184    0.5766   -2.7288 C   0  0  0  1  0  0  0  0  0  0  0  0
   -1.6078    1.4941   -2.7183 H   0  0  0  1  0  0  0  0  0  0  0  0
   -1.8095   -0.4503   -2.2411 N   0  0  0  1  0  0  0  0  0  0  0  0
   -1.0975   -1.5773   -2.2999 C   0  0  0  1  0  0  0  0  0  0  0  0
    2.0618   -0.6251   -3.8021 N   0  0  0  1  0  0  0  0  0  0  0  0
    2.6206    0.1798   -3.8130 H   0  0  0  1  0  0  0  0  0  0  0  0
    2.4086   -1.4674   -4.1637 H   0  0  0  1  0  0  0  0  0  0  0  0
   -2.3534   -1.2002    0.0471 O   0  0  0  1  0  0  0  0  0  0  0  0
   -2.0415   -0.9894    0.9302 H   0  0  0  1  0  0  0  0  0  0  0  0
   -4.8579   -1.2201    0.9268 O   0  0  0  1  0  0  0  0  0  0  0  0
   -6.0116   -1.3814    2.0810 P   0  0  0  1  0  0  0  0  0  0  0  0
   -5.5615   -1.8785    3.4004 O   0  0  0  1  0  0  0  0  0  0  0  0
   -6.6824    0.0708    2.3369 O   0  5  0  1  0  0  0  0  0  0  0  0
   -7.2654   -2.2973    1.6189 O   0  5  0  1  0  0  0  0  0  0  0  0
  -10.9137   -5.2791   -5.3163 C   0  0  0  1  0  0  0  0  0  0  0  0
   -9.9357   -5.7091   -5.3765 H   0  0  0  1  0  0  0  0  0  0  0  0
  -11.9236   -6.3007   -5.8459 C   0  0  0  1  0  0  0  0  0  0  0  0
  -12.8105   -5.8947   -6.5956 O   0  0  0  1  0  0  0  0  0  0  0  0
  -11.7552   -7.5594   -5.4456 N   0  0  0  1  0  0  0  0  0  0  0  0
  -11.0099   -7.7689   -4.8448 H   0  0  0  1  0  0  0  0  0  0  0  0
  -12.6395   -8.6348   -5.8693 C   0  0  0  1  0  0  0  0  0  0  0  0
  -12.6491   -8.6563   -6.9390 H   0  0  0  1  0  0  0  0  0  0  0  0
  -13.6231   -8.4195   -5.5075 H   0  0  0  1  0  0  0  0  0  0  0  0
  -12.2429  -10.0182   -5.3707 C   0  0  0  1  0  0  0  0  0  0  0  0
  -11.2020  -10.1663   -5.5691 H   0  0  0  1  0  0  0  0  0  0  0  0
  -12.8155  -10.7490   -5.9026 H   0  0  0  1  0  0  0  0  0  0  0  0
  -12.4835  -10.2062   -3.8783 C   0  0  0  1  0  0  0  0  0  0  0  0
  -13.5544   -9.9024   -3.3544 O   0  0  0  1  0  0  0  0  0  0  0  0
  -11.4290  -10.7240   -3.2214 N   0  0  0  1  0  0  0  0  0  0  0  0
  -10.5987  -10.8888   -3.7151 H   0  0  0  1  0  0  0  0  0  0  0  0
  -11.4790  -11.0475   -1.8034 C   0  0  0  1  0  0  0  0  0  0  0  0
  -12.3704  -11.6071   -1.6106 H   0  0  0  1  0  0  0  0  0  0  0  0
  -11.5018  -10.1355   -1.2442 H   0  0  0  1  0  0  0  0  0  0  0  0
  -10.2908  -11.8609   -1.3533 C   0  0  0  1  0  0  0  0  0  0  0  0
   -9.4031  -11.3268   -1.6209 H   0  0  0  1  0  0  0  0  0  0  0  0
  -10.3145  -12.7968   -1.8714 H   0  0  0  1  0  0  0  0  0  0  0  0
  -10.2243  -12.2040    0.4172 S   0  0  0  1  0  0  0  0  0  0  0  0
   -8.8680  -13.3581    0.5282 C   0  0  0  1  0  0  0  0  0  0  0  0
   -8.8171  -14.0062    1.5386 O   0  0  0  1  0  0  0  0  0  0  0  0
   -7.8707  -13.4810   -0.5978 C   0  0  0  1  0  0  0  0  0  0  0  0
   -8.3595  -13.9484   -1.4270 H   0  0  0  1  0  0  0  0  0  0  0  0
   -7.0643  -14.0997   -0.2634 H   0  0  0  1  0  0  0  0  0  0  0  0
   -7.2929  -12.1693   -1.0705 C   0  0  0  1  0  0  0  0  0  0  0  0
   -7.7129  -11.1321   -0.5416 O   0  0  0  1  0  0  0  0  0  0  0  0
   -6.2744  -12.0708   -2.1097 C   0  0  0  1  0  0  0  0  0  0  0  0
   -5.9820  -12.9665   -2.5500 H   0  0  0  1  0  0  0  0  0  0  0  0
   -5.6739  -10.9723   -2.5625 C   0  0  0  1  0  0  0  0  0  0  0  0
   -5.9832  -10.0901   -2.1067 H   0  0  0  1  0  0  0  0  0  0  0  0
   -4.6383  -10.7971   -3.6077 C   0  0  0  1  0  0  0  0  0  0  0  0
   -4.2303  -11.9301   -4.2859 C   0  0  0  1  0  0  0  0  0  0  0  0
   -4.6449  -12.8545   -4.0508 H   0  0  0  1  0  0  0  0  0  0  0  0
   -3.2685  -11.8343   -5.2794 C   0  0  0  1  0  0  0  0  0  0  0  0
   -2.7135  -10.6067   -5.5882 C   0  0  0  1  0  0  0  0  0  0  0  0
   -3.1229   -9.4704   -4.9079 C   0  0  0  1  0  0  0  0  0  0  0  0
   -2.7083   -8.5460   -5.1429 H   0  0  0  1  0  0  0  0  0  0  0  0
   -4.0819   -9.5658   -3.9172 C   0  0  0  1  0  0  0  0  0  0  0  0
   -4.3861   -8.7139   -3.4041 H   0  0  0  1  0  0  0  0  0  0  0  0
   -1.8362  -10.5033   -6.6222 O   0  5  0  1  0  0  0  0  0  0  0  0
   -2.7962  -12.8673   -6.0107 O   0  0  0  1  0  0  0  0  0  0  0  0
   -3.2607  -14.1984   -5.7366 C   0  0  0  1  0  0  0  0  0  0  0  0
   -2.6964  -14.8998   -6.3151 H   0  0  0  1  0  0  0  0  0  0  0  0
   -4.2962  -14.2748   -5.9949 H   0  0  0  1  0  0  0  0  0  0  0  0
   -3.1354  -14.4123   -4.6957 H   0  0  0  1  0  0  0  0  0  0  0  0
  -10.9414   -4.0504   -6.0404 O   0  0  0  1  0  0  0  0  0  0  0  0
  -10.1096   -3.9336   -6.5052 H   0  0  0  1  0  0  0  0  0  0  0  0
  1  2  1  0  0  0  0
  1  3  1  0  0  0  0
  1  4  1  0  0  0  0
  1  5  1  0  0  0  0
  5  6  1  0  0  0  0
  5 10  1  0  0  0  0
  5 55  1  0  0  0  0
  6  7  1  0  0  0  0
  6  8  1  0  0  0  0
  6  9  1  0  0  0  0
 10 11  1  0  0  0  0
 10 12  1  0  0  0  0
 10 13  1  0  0  0  0
 13 14  1  0  0  0  0
 14 15  2  0  0  0  0
 14 16  1  0  0  0  0
 14 17  1  0  0  0  0
 17 18  1  0  0  0  0
 18 19  1  0  0  0  0
 18 20  2  0  0  0  0
 18 21  1  0  0  0  0
 21 22  1  0  0  0  0
 22 23  1  0  0  0  0
 22 24  1  0  0  0  0
 22 25  1  0  0  0  0
 25 26  1  0  0  0  0
 25 27  1  0  0  0  0
 25 33  1  0  0  0  0
 27 28  1  0  0  0  0
 27 29  1  0  0  0  0
 27 50  1  0  0  0  0
 29 30  1  0  0  0  0
 29 31  1  0  0  0  0
 29 48  1  0  0  0  0
 31 32  1  0  0  0  0
 31 33  1  0  0  0  0
 31 34  1  0  0  0  0
 34 35  1  0  0  0  0
 34 44  1  0  0  0  0
 35 36  1  0  0  0  0
 35 37  2  0  0  0  0
 37 38  1  0  0  0  0
 38 39  1  0  0  0  0
 38 44  2  0  0  0  0
 39 40  2  0  0  0  0
 39 45  1  0  0  0  0
 40 41  1  0  0  0  0
 41 42  1  0  0  0  0
 41 43  2  0  0  0  0
 43 44  1  0  0  0  0
 45 46  1  0  0  0  0
 45 47  1  0  0  0  0
 48 49  1  0  0  0  0
 50 51  1  0  0  0  0
 51 52  2  0  0  0  0
 51 53  1  0  0  0  0
 51 54  1  0  0  0  0
 55 56  1  0  0  0  0
 55 57  1  0  0  0  0
 55104  1  0  0  0  0
 57 58  2  0  0  0  0
 57 59  1  0  0  0  0
 59 60  1  0  0  0  0
 59 61  1  0  0  0  0
 61 62  1  0  0  0  0
 61 63  1  0  0  0  0
 61 64  1  0  0  0  0
 64 65  1  0  0  0  0
 64 66  1  0  0  0  0
 64 67  1  0  0  0  0
 67 68  2  0  0  0  0
 67 69  1  0  0  0  0
 69 70  1  0  0  0  0
 69 71  1  0  0  0  0
 71 72  1  0  0  0  0
 71 73  1  0  0  0  0
 71 74  1  0  0  0  0
 74 75  1  0  0  0  0
 74 76  1  0  0  0  0
 74 77  1  0  0  0  0
 77 78  1  0  0  0  0
 78 79  2  0  0  0  0
 78 80  1  0  0  0  0
 80 81  1  0  0  0  0
 80 82  1  0  0  0  0
 80 83  1  0  0  0  0
 83 84  2  0  0  0  0
 83 85  1  0  0  0  0
 85 86  1  0  0  0  0
 85 87  2  0  0  0  0
 87 88  1  0  0  0  0
 87 89  1  0  0  0  0
 89 90  2  0  0  0  0
 89 96  1  0  0  0  0
 90 91  1  0  0  0  0
 90 92  1  0  0  0  0
 92 93  2  0  0  0  0
 92 99  1  0  0  0  0
 93 94  1  0  0  0  0
 93 98  1  0  0  0  0
 94 95  1  0  0  0  0
 94 96  2  0  0  0  0
 96 97  1  0  0  0  0
 99100  1  0  0  0  0
100101  1  0  0  0  0
100102  1  0  0  0  0
100103  1  0  0  0  0
104105  1  0  0  0  0
M  BCL ATM C_TeTeTeTe H_S H_S H_S C_TeTeTeTe C_TeTeTeTe H_S H_S H_S C_TeTeTeTe H_S H_S O_Tr2TrTrPi2 P_TeTeTeTePi O_Tr2Tr2TrPi O_Te2Te2Te2Te O_Tr2TrTrPi2 P_TeTeTeTePi O_Te2Te2TeTe O_Tr2Tr2TrPi O_Tr2TrTrPi2 C_TeTeTeTe H_S H_S C_TeTeTeTe H_S C_TeTeTeTe H_S C_TeTeTeTe H_S C_TeTeTeTe H_S O_Te2Te2TeTe N_TrTrTrPi2 C_TrTrTrPi H_S N_Tr2TrTrPi C_TrTrTrPi C_TrTrTrPi N_Tr2TrTrPi C_TrTrTrPi H_S N_Tr2TrTrPi C_TrTrTrPi N_TrTrTrPi2 H_S H_S O_Te2Te2TeTe H_S O_Tr2TrTrPi2 P_TeTeTeTePi O_Tr2Tr2TrPi O_Te2Te2Te2Te O_Te2Te2Te2Te C_TeTeTeTe H_S C_TrTrTrPi O_Tr2Tr2TrPi N_TrTrTrPi2 H_S C_TeTeTeTe H_S H_S C_TeTeTeTe H_S H_S C_TrTrTrPi O_Tr2Tr2TrPi N_TrTrTrPi2 H_S C_TeTeTeTe H_S H_S C_TeTeTeTe H_S H_S S_Te2Te2TeTe C_TrTrTrPi O_Tr2Tr2TrPi C_TeTeTeTe H_S H_S C_TrTrTrPi O_Tr2Tr2TrPi C_TrTrTrPi H_S C_TrTrTrPi H_S C_TrTrTrPi C_TrTrTrPi H_S C_TrTrTrPi C_TrTrTrPi C_TrTrTrPi H_S C_TrTrTrPi H_S O_Te2Te2Te2Te O_Tr2TrTrPi2 C_TeTeTeTe H_S H_S H_S O_Te2Te2TeTe H_S
M  BCL BND NonConjugatedSingleBond NonConjugatedSingleBond NonConjugatedSingleBond NonConjugatedSingleBond NonConjugatedSingleBond NonConjugatedSingleBond NonConjugatedSingleBond NonConjugatedSingleBond NonConjugatedSingleBond NonConjugatedSingleBond NonConjugatedSingleBond NonConjugatedSingleBond NonConjugatedSingleBond ConjugatedSingleBond ConjugatedDoubleBond ConjugatedSingleBond ConjugatedSingleBond ConjugatedSingleBond ConjugatedSingleBond ConjugatedDoubleBond ConjugatedSingleBond NonConjugatedSingleBond NonConjugatedSingleBond NonConjugatedSingleBond NonConjugatedSingleBond NonConjugatedSingleBond NonConjugatedSingleBondInRing NonConjugatedSingleBondInRing NonConjugatedSingleBond NonConjugatedSingleBondInRing NonConjugatedSingleBond NonConjugatedSingleBond NonConjugatedSingleBondInRing NonConjugatedSingleBond NonConjugatedSingleBond NonConjugatedSingleBondInRing NonConjugatedSingleBond AromaticSingleBond AromaticSingleBond NonConjugatedSingleBond AromaticDoubleBond AromaticSingleBond AromaticSingleBond AromaticDoubleBond AromaticDoubleBond ConjugatedSingleBond AromaticSingleBond NonConjugatedSingleBond AromaticDoubleBond AromaticSingleBond NonConjugatedSingleBond NonConjugatedSingleBond NonConjugatedSingleBond ConjugatedSingleBond ConjugatedDoubleBond ConjugatedSingleBond ConjugatedSingleBond NonConjugatedSingleBond NonConjugatedSingleBond NonConjugatedSingleBond ConjugatedDoubleBond AmideSingleBond NonConjugatedSingleBond NonConjugatedSingleBond NonConjugatedSingleBond NonConjugatedSingleBond NonConjugatedSingleBond NonConjugatedSingleBond NonConjugatedSingleBond NonConjugatedSingleBond ConjugatedDoubleBond AmideSingleBond NonConjugatedSingleBond NonConjugatedSingleBond NonConjugatedSingleBond NonConjugatedSingleBond NonConjugatedSingleBond NonConjugatedSingleBond NonConjugatedSingleBond NonConjugatedSingleBond ConjugatedSingleBond ConjugatedDoubleBond NonConjugatedSingleBond NonConjugatedSingleBond NonConjugatedSingleBond NonConjugatedSingleBond ConjugatedDoubleBond ConjugatedSingleBond NonConjugatedSingleBond ConjugatedDoubleBond NonConjugatedSingleBond ConjugatedSingleBond AromaticDoubleBond AromaticSingleBond NonConjugatedSingleBond AromaticSingleBond AromaticDoubleBond ConjugatedSingleBond AromaticSingleBond ConjugatedSingleBond NonConjugatedSingleBond AromaticDoubleBond NonConjugatedSingleBond NonConjugatedSingleBond NonConjugatedSingleBond NonConjugatedSingleBond NonConjugatedSingleBond NonConjugatedSingleBond
M  BCL CHI  14   R  18   S  25   R  27   R  29   R  31   S  55   R
M  BCL DBI - - - - - - - - - - - E - - -
M  END
> <ConfClashScore>
0.000580186 

> <ConfOneFourInteractionScore>
-0.964847 

> <ConfScore>
0.238403 

> <ConfScorePBest>
0.00819748 

> <ConfTolerance>
3.09919 

$$$$
L03.****
  PyMOL2.5          3D                             0

105108  0  0  0  0  0  0  0  0999 V2000
    2.2992  -10.8266   -0.9762 C   0  0  0  1  0  0  0  0  0  0  0  0
    2.4314  -10.9552   -2.0302 H   0  0  0  1  0  0  0  0  0  0  0  0
    2.6521  -11.6972   -0.4639 H   0  0  0  1  0  0  0  0  0  0  0  0
    2.8525   -9.9711   -0.6494 H   0  0  0  1  0  0  0  0  0  0  0  0
    0.8113  -10.6208   -0.6682 C   0  0  0  1  0  0  0  0  0  0  0  0
   -0.0425  -11.7653   -1.2273 C   0  0  0  1  0  0  0  0  0  0  0  0
    0.4486  -12.6986   -1.0464 H   0  0  0  1  0  0  0  0  0  0  0  0
   -0.1743  -11.6301   -2.2805 H   0  0  0  1  0  0  0  0  0  0  0  0
   -0.9977  -11.7658   -0.7450 H   0  0  0  1  0  0  0  0  0  0  0  0
    0.3247   -9.3348   -1.2507 C   0  0  0  1  0  0  0  0  0  0  0  0
    0.7998   -9.1588   -2.1932 H   0  0  0  1  0  0  0  0  0  0  0  0
    0.5435   -8.5269   -0.5841 H   0  0  0  1  0  0  0  0  0  0  0  0
   -1.1061   -9.4489   -1.4338 O   0  0  0  1  0  0  0  0  0  0  0  0
   -1.7552   -9.2594   -2.8547 P   0  0  0  1  0  0  0  0  0  0  0  0
   -3.0031   -9.8897   -2.3690 O   0  0  0  1  0  0  0  0  0  0  0  0
   -0.8261   -8.0118   -2.4022 O   0  5  0  1  0  0  0  0  0  0  0  0
   -2.4230   -9.0648   -4.3153 O   0  0  0  1  0  0  0  0  0  0  0  0
   -2.7847   -7.7048   -4.8562 P   0  0  0  1  0  0  0  0  0  0  0  0
   -3.7818   -7.8097   -6.0525 O   0  0  0  0  0  0  0  0  0  0  0  0
   -1.6094   -6.8613   -5.2574 O   0  0  0  1  0  0  0  0  0  0  0  0
   -3.5495   -6.8687   -3.7643 O   0  0  0  1  0  0  0  0  0  0  0  0
   -2.8989   -6.4925   -2.5275 C   0  0  0  1  0  0  0  0  0  0  0  0
   -1.8766   -6.2390   -2.7160 H   0  0  0  1  0  0  0  0  0  0  0  0
   -2.9432   -7.3036   -1.8310 H   0  0  0  1  0  0  0  0  0  0  0  0
   -3.6321   -5.2939   -1.9693 C   0  0  0  1  0  0  0  0  0  0  0  0
   -4.5456   -5.6144   -1.5137 H   0  0  0  1  0  0  0  0  0  0  0  0
   -3.9096   -4.2718   -3.0708 C   0  0  0  1  0  0  0  0  0  0  0  0
   -4.8594   -4.4436   -3.5325 H   0  0  0  1  0  0  0  0  0  0  0  0
   -3.9014   -2.9805   -2.2939 C   0  0  0  1  0  0  0  0  0  0  0  0
   -4.8338   -2.8241   -1.7930 H   0  0  0  1  0  0  0  0  0  0  0  0
   -2.7756   -3.2062   -1.3010 C   0  0  0  1  0  0  0  0  0  0  0  0
   -2.9402   -2.6328   -0.4128 H   0  0  0  1  0  0  0  0  0  0  0  0
   -2.8011   -4.5874   -1.0083 O   0  0  0  1  0  0  0  0  0  0  0  0
   -1.4913   -2.8331   -1.8918 N   0  0  0  1  0  0  0  0  0  0  0  0
   -0.4372   -3.6548   -2.1514 C   0  0  0  1  0  0  0  0  0  0  0  0
   -0.4529   -4.6757   -1.9533 H   0  0  0  1  0  0  0  0  0  0  0  0
    0.6060   -3.0410   -2.6768 N   0  0  0  1  0  0  0  0  0  0  0  0
    0.1723   -1.7193   -2.7829 C   0  0  0  1  0  0  0  0  0  0  0  0
    0.8017   -0.5695   -3.2904 C   0  0  0  1  0  0  0  0  0  0  0  0
    0.1069    0.5931   -3.2464 N   0  0  0  1  0  0  0  0  0  0  0  0
   -1.1345    0.5733   -2.7290 C   0  0  0  1  0  0  0  0  0  0  0  0
   -1.6230    1.4913   -2.7164 H   0  0  0  1  0  0  0  0  0  0  0  0
   -1.8323   -0.4470   -2.2302 N   0  0  0  1  0  0  0  0  0  0  0  0
   -1.0976   -1.5758   -2.3009 C   0  0  0  1  0  0  0  0  0  0  0  0
    2.0944   -0.6233   -3.8199 N   0  0  0  1  0  0  0  0  0  0  0  0
    2.7328   -1.2884   -3.4876 H   0  0  0  1  0  0  0  0  0  0  0  0
    2.3621    0.0042   -4.5235 H   0  0  0  1  0  0  0  0  0  0  0  0
   -3.6253   -1.8701   -3.1426 O   0  0  0  1  0  0  0  0  0  0  0  0
   -4.1652   -1.9297   -3.9342 H   0  0  0  1  0  0  0  0  0  0  0  0
   -2.8759   -4.2877   -4.0759 O   0  0  0  1  0  0  0  0  0  0  0  0
   -3.2548   -4.3231   -5.6711 P   0  0  0  1  0  0  0  0  0  0  0  0
   -4.3570   -5.2887   -5.8789 O   0  0  0  1  0  0  0  0  0  0  0  0
   -3.7903   -2.8564   -6.1033 O   0  5  0  1  0  0  0  0  0  0  0  0
   -1.9018   -4.7091   -6.4740 O   0  5  0  1  0  0  0  0  0  0  0  0
    0.6730  -10.5687    0.8579 C   0  0  0  1  0  0  0  0  0  0  0  0
    1.1991   -9.7095    1.2185 H   0  0  0  1  0  0  0  0  0  0  0  0
   -0.7947  -10.4259    1.2108 C   0  0  0  1  0  0  0  0  0  0  0  0
   -1.4730  -11.4019    1.5274 O   0  0  0  1  0  0  0  0  0  0  0  0
   -1.2898   -9.1794    1.1532 N   0  0  0  1  0  0  0  0  0  0  0  0
   -0.7174   -8.4582    0.8175 H   0  0  0  1  0  0  0  0  0  0  0  0
   -2.6469   -8.8618    1.5719 C   0  0  0  1  0  0  0  0  0  0  0  0
   -3.2970   -9.6502    1.2544 H   0  0  0  1  0  0  0  0  0  0  0  0
   -2.9435   -7.9451    1.1066 H   0  0  0  1  0  0  0  0  0  0  0  0
   -2.7699   -8.7064    3.0703 C   0  0  0  1  0  0  0  0  0  0  0  0
   -2.2800   -9.5393    3.5299 H   0  0  0  1  0  0  0  0  0  0  0  0
   -3.8103   -8.7220    3.3195 H   0  0  0  1  0  0  0  0  0  0  0  0
   -2.1707   -7.4369    3.6435 C   0  0  0  1  0  0  0  0  0  0  0  0
   -2.2796   -6.3612    3.0608 O   0  0  0  1  0  0  0  0  0  0  0  0
   -1.5230   -7.5733    4.8154 N   0  0  0  1  0  0  0  0  0  0  0  0
   -1.5154   -8.4505    5.2522 H   0  0  0  1  0  0  0  0  0  0  0  0
   -0.8336   -6.4634    5.4563 C   0  0  0  1  0  0  0  0  0  0  0  0
   -0.9978   -6.5216    6.5121 H   0  0  0  1  0  0  0  0  0  0  0  0
   -1.2381   -5.5464    5.0819 H   0  0  0  1  0  0  0  0  0  0  0  0
    0.6637   -6.4780    5.1948 C   0  0  0  1  0  0  0  0  0  0  0  0
    1.1036   -5.5790    5.5732 H   0  0  0  1  0  0  0  0  0  0  0  0
    0.8442   -6.5486    4.1425 H   0  0  0  1  0  0  0  0  0  0  0  0
    1.3872   -7.9081    6.0329 S   0  0  0  1  0  0  0  0  0  0  0  0
    1.0914   -9.1849    4.9017 C   0  0  0  1  0  0  0  0  0  0  0  0
    0.4610   -9.0001    3.8732 O   0  0  0  1  0  0  0  0  0  0  0  0
    1.5035  -10.5763    5.3152 C   0  0  0  1  0  0  0  0  0  0  0  0
    1.1924  -10.7415    6.3256 H   0  0  0  1  0  0  0  0  0  0  0  0
    2.5690  -10.6527    5.2525 H   0  0  0  1  0  0  0  0  0  0  0  0
    0.8880  -11.6386    4.4376 C   0  0  0  1  0  0  0  0  0  0  0  0
    0.2187  -11.2697    3.4697 O   0  0  0  1  0  0  0  0  0  0  0  0
    1.0858  -13.0543    4.7354 C   0  0  0  1  0  0  0  0  0  0  0  0
    1.7095  -13.2897    5.5337 H   0  0  0  1  0  0  0  0  0  0  0  0
    0.5358  -14.0706    4.0719 C   0  0  0  1  0  0  0  0  0  0  0  0
   -0.0845  -13.8157    3.2771 H   0  0  0  1  0  0  0  0  0  0  0  0
    0.7015  -15.5185    4.3301 C   0  0  0  1  0  0  0  0  0  0  0  0
    0.0855  -16.4726    3.5425 C   0  0  0  1  0  0  0  0  0  0  0  0
   -0.5164  -16.1801    2.7464 H   0  0  0  1  0  0  0  0  0  0  0  0
    0.2700  -17.8194    3.8139 C   0  0  0  1  0  0  0  0  0  0  0  0
    1.0656  -18.2081    4.8751 C   0  0  0  1  0  0  0  0  0  0  0  0
    1.6834  -17.2509    5.6649 C   0  0  0  1  0  0  0  0  0  0  0  0
    2.2853  -17.5433    6.4610 H   0  0  0  1  0  0  0  0  0  0  0  0
    1.4995  -15.9080    5.3945 C   0  0  0  1  0  0  0  0  0  0  0  0
    1.9598  -15.1899    5.9896 H   0  0  0  1  0  0  0  0  0  0  0  0
    1.1691  -19.5530    5.0483 O   0  5  0  1  0  0  0  0  0  0  0  0
   -0.3780  -18.6600    2.9728 O   0  0  0  1  0  0  0  0  0  0  0  0
    0.2656  -19.9068    2.6666 C   0  0  0  1  0  0  0  0  0  0  0  0
   -0.2737  -20.4055    1.8886 H   0  0  0  1  0  0  0  0  0  0  0  0
    0.2820  -20.5236    3.5408 H   0  0  0  1  0  0  0  0  0  0  0  0
    1.2681  -19.7202    2.3423 H   0  0  0  1  0  0  0  0  0  0  0  0
    1.2044  -11.7454    1.4378 O   0  0  0  1  0  0  0  0  0  0  0  0
    1.5086  -12.3353    0.7442 H   0  0  0  1  0  0  0  0  0  0  0  0
  1  2  1  0  0  0  0
  1  3  1  0  0  0  0
  1  4  1  0  0  0  0
  1  5  1  0  0  0  0
  5  6  1  0  0  0  0
  5 10  1  0  0  0  0
  5 55  1  0  0  0  0
  6  7  1  0  0  0  0
  6  8  1  0  0  0  0
  6  9  1  0  0  0  0
 10 11  1  0  0  0  0
 10 12  1  0  0  0  0
 10 13  1  0  0  0  0
 13 14  1  0  0  0  0
 14 15  2  0  0  0  0
 14 16  1  0  0  0  0
 14 17  1  0  0  0  0
 17 18  1  0  0  0  0
 18 19  1  0  0  0  0
 18 20  2  0  0  0  0
 18 21  1  0  0  0  0
 21 22  1  0  0  0  0
 22 23  1  0  0  0  0
 22 24  1  0  0  0  0
 22 25  1  0  0  0  0
 25 26  1  0  0  0  0
 25 27  1  0  0  0  0
 25 33  1  0  0  0  0
 27 28  1  0  0  0  0
 27 29  1  0  0  0  0
 27 50  1  0  0  0  0
 29 30  1  0  0  0  0
 29 31  1  0  0  0  0
 29 48  1  0  0  0  0
 31 32  1  0  0  0  0
 31 33  1  0  0  0  0
 31 34  1  0  0  0  0
 34 35  1  0  0  0  0
 34 44  1  0  0  0  0
 35 36  1  0  0  0  0
 35 37  2  0  0  0  0
 37 38  1  0  0  0  0
 38 39  1  0  0  0  0
 38 44  2  0  0  0  0
 39 40  2  0  0  0  0
 39 45  1  0  0  0  0
 40 41  1  0  0  0  0
 41 42  1  0  0  0  0
 41 43  2  0  0  0  0
 43 44  1  0  0  0  0
 45 46  1  0  0  0  0
 45 47  1  0  0  0  0
 48 49  1  0  0  0  0
 50 51  1  0  0  0  0
 51 52  2  0  0  0  0
 51 53  1  0  0  0  0
 51 54  1  0  0  0  0
 55 56  1  0  0  0  0
 55 57  1  0  0  0  0
 55104  1  0  0  0  0
 57 58  2  0  0  0  0
 57 59  1  0  0  0  0
 59 60  1  0  0  0  0
 59 61  1  0  0  0  0
 61 62  1  0  0  0  0
 61 63  1  0  0  0  0
 61 64  1  0  0  0  0
 64 65  1  0  0  0  0
 64 66  1  0  0  0  0
 64 67  1  0  0  0  0
 67 68  2  0  0  0  0
 67 69  1  0  0  0  0
 69 70  1  0  0  0  0
 69 71  1  0  0  0  0
 71 72  1  0  0  0  0
 71 73  1  0  0  0  0
 71 74  1  0  0  0  0
 74 75  1  0  0  0  0
 74 76  1  0  0  0  0
 74 77  1  0  0  0  0
 77 78  1  0  0  0  0
 78 79  2  0  0  0  0
 78 80  1  0  0  0  0
 80 81  1  0  0  0  0
 80 82  1  0  0  0  0
 80 83  1  0  0  0  0
 83 84  2  0  0  0  0
 83 85  1  0  0  0  0
 85 86  1  0  0  0  0
 85 87  2  0  0  0  0
 87 88  1  0  0  0  0
 87 89  1  0  0  0  0
 89 90  2  0  0  0  0
 89 96  1  0  0  0  0
 90 91  1  0  0  0  0
 90 92  1  0  0  0  0
 92 93  2  0  0  0  0
 92 99  1  0  0  0  0
 93 94  1  0  0  0  0
 93 98  1  0  0  0  0
 94 95  1  0  0  0  0
 94 96  2  0  0  0  0
 96 97  1  0  0  0  0
 99100  1  0  0  0  0
100101  1  0  0  0  0
100102  1  0  0  0  0
100103  1  0  0  0  0
104105  1  0  0  0  0
M  BCL ATM C_TeTeTeTe H_S H_S H_S C_TeTeTeTe C_TeTeTeTe H_S H_S H_S C_TeTeTeTe H_S H_S O_Tr2TrTrPi2 P_TeTeTeTePi O_Tr2Tr2TrPi O_Te2Te2Te2Te O_Tr2TrTrPi2 P_TeTeTeTePi O_Te2Te2TeTe O_Tr2Tr2TrPi O_Tr2TrTrPi2 C_TeTeTeTe H_S H_S C_TeTeTeTe H_S C_TeTeTeTe H_S C_TeTeTeTe H_S C_TeTeTeTe H_S O_Te2Te2TeTe N_TrTrTrPi2 C_TrTrTrPi H_S N_Tr2TrTrPi C_TrTrTrPi C_TrTrTrPi N_Tr2TrTrPi C_TrTrTrPi H_S N_Tr2TrTrPi C_TrTrTrPi N_TrTrTrPi2 H_S H_S O_Te2Te2TeTe H_S O_Tr2TrTrPi2 P_TeTeTeTePi O_Tr2Tr2TrPi O_Te2Te2Te2Te O_Te2Te2Te2Te C_TeTeTeTe H_S C_TrTrTrPi O_Tr2Tr2TrPi N_TrTrTrPi2 H_S C_TeTeTeTe H_S H_S C_TeTeTeTe H_S H_S C_TrTrTrPi O_Tr2Tr2TrPi N_TrTrTrPi2 H_S C_TeTeTeTe H_S H_S C_TeTeTeTe H_S H_S S_Te2Te2TeTe C_TrTrTrPi O_Tr2Tr2TrPi C_TeTeTeTe H_S H_S C_TrTrTrPi O_Tr2Tr2TrPi C_TrTrTrPi H_S C_TrTrTrPi H_S C_TrTrTrPi C_TrTrTrPi H_S C_TrTrTrPi C_TrTrTrPi C_TrTrTrPi H_S C_TrTrTrPi H_S O_Te2Te2Te2Te O_Tr2TrTrPi2 C_TeTeTeTe H_S H_S H_S O_Te2Te2TeTe H_S
M  BCL BND NonConjugatedSingleBond NonConjugatedSingleBond NonConjugatedSingleBond NonConjugatedSingleBond NonConjugatedSingleBond NonConjugatedSingleBond NonConjugatedSingleBond NonConjugatedSingleBond NonConjugatedSingleBond NonConjugatedSingleBond NonConjugatedSingleBond NonConjugatedSingleBond NonConjugatedSingleBond ConjugatedSingleBond ConjugatedDoubleBond ConjugatedSingleBond ConjugatedSingleBond ConjugatedSingleBond ConjugatedSingleBond ConjugatedDoubleBond ConjugatedSingleBond NonConjugatedSingleBond NonConjugatedSingleBond NonConjugatedSingleBond NonConjugatedSingleBond NonConjugatedSingleBond NonConjugatedSingleBondInRing NonConjugatedSingleBondInRing NonConjugatedSingleBond NonConjugatedSingleBondInRing NonConjugatedSingleBond NonConjugatedSingleBond NonConjugatedSingleBondInRing NonConjugatedSingleBond NonConjugatedSingleBond NonConjugatedSingleBondInRing NonConjugatedSingleBond AromaticSingleBond AromaticSingleBond NonConjugatedSingleBond AromaticDoubleBond AromaticSingleBond AromaticSingleBond AromaticDoubleBond AromaticDoubleBond ConjugatedSingleBond AromaticSingleBond NonConjugatedSingleBond AromaticDoubleBond AromaticSingleBond NonConjugatedSingleBond NonConjugatedSingleBond NonConjugatedSingleBond ConjugatedSingleBond ConjugatedDoubleBond ConjugatedSingleBond ConjugatedSingleBond NonConjugatedSingleBond NonConjugatedSingleBond NonConjugatedSingleBond ConjugatedDoubleBond AmideSingleBond NonConjugatedSingleBond NonConjugatedSingleBond NonConjugatedSingleBond NonConjugatedSingleBond NonConjugatedSingleBond NonConjugatedSingleBond NonConjugatedSingleBond NonConjugatedSingleBond ConjugatedDoubleBond AmideSingleBond NonConjugatedSingleBond NonConjugatedSingleBond NonConjugatedSingleBond NonConjugatedSingleBond NonConjugatedSingleBond NonConjugatedSingleBond NonConjugatedSingleBond NonConjugatedSingleBond ConjugatedSingleBond ConjugatedDoubleBond NonConjugatedSingleBond NonConjugatedSingleBond NonConjugatedSingleBond NonConjugatedSingleBond ConjugatedDoubleBond ConjugatedSingleBond NonConjugatedSingleBond ConjugatedDoubleBond NonConjugatedSingleBond ConjugatedSingleBond AromaticDoubleBond AromaticSingleBond NonConjugatedSingleBond AromaticSingleBond AromaticDoubleBond ConjugatedSingleBond AromaticSingleBond ConjugatedSingleBond NonConjugatedSingleBond AromaticDoubleBond NonConjugatedSingleBond NonConjugatedSingleBond NonConjugatedSingleBond NonConjugatedSingleBond NonConjugatedSingleBond NonConjugatedSingleBond
M  BCL CHI  14   R  18   S  25   R  27   R  29   R  31   S  55   R
M  BCL DBI - - - - - - - - - - - E - - -
M  END
> <ConfClashScore>
0 

> <ConfOneFourInteractionScore>
-0.9704 

> <ConfScore>
0.240536 

> <ConfScorePBest>
0.00809448 

> <ConfTolerance>
3.17863 

$$$$
L03.****
  PyMOL2.5          3D                             0

105108  0  0  0  0  0  0  0  0999 V2000
    3.4225  -10.6383    1.4979 C   0  0  0  1  0  0  0  0  0  0  0  0
    4.3755  -10.9690    1.1412 H   0  0  0  1  0  0  0  0  0  0  0  0
    2.7120  -11.4330    1.4058 H   0  0  0  1  0  0  0  0  0  0  0  0
    3.5064  -10.3516    2.5254 H   0  0  0  1  0  0  0  0  0  0  0  0
    2.9546   -9.4362    0.6688 C   0  0  0  1  0  0  0  0  0  0  0  0
    3.2160   -8.1477    1.4578 C   0  0  0  1  0  0  0  0  0  0  0  0
    2.3449   -7.5272    1.4271 H   0  0  0  1  0  0  0  0  0  0  0  0
    4.0417   -7.6245    1.0225 H   0  0  0  1  0  0  0  0  0  0  0  0
    3.4439   -8.3921    2.4743 H   0  0  0  1  0  0  0  0  0  0  0  0
    1.4841   -9.5592    0.4398 C   0  0  0  1  0  0  0  0  0  0  0  0
    1.2825  -10.4006   -0.1897 H   0  0  0  1  0  0  0  0  0  0  0  0
    1.1118   -8.6694   -0.0233 H   0  0  0  1  0  0  0  0  0  0  0  0
    0.8528   -9.7454    1.7284 O   0  0  0  1  0  0  0  0  0  0  0  0
   -0.6469   -9.3287    1.9597 P   0  0  0  1  0  0  0  0  0  0  0  0
   -1.0923  -10.4670    1.1253 O   0  0  0  1  0  0  0  0  0  0  0  0
    0.2819   -9.1388    3.2735 O   0  5  0  1  0  0  0  0  0  0  0  0
   -2.1752   -8.9044    2.1952 O   0  0  0  1  0  0  0  0  0  0  0  0
   -3.1736   -8.1178    1.2602 P   0  0  0  1  0  0  0  0  0  0  0  0
   -4.3324   -7.5640    2.0507 O   0  0  0  0  0  0  0  0  0  0  0  0
   -3.5004   -9.0675    0.1906 O   0  0  0  1  0  0  0  0  0  0  0  0
   -2.2211   -7.0339    0.6510 O   0  0  0  1  0  0  0  0  0  0  0  0
   -2.1843   -6.6399   -0.7409 C   0  0  0  1  0  0  0  0  0  0  0  0
   -2.4735   -7.4630   -1.3604 H   0  0  0  1  0  0  0  0  0  0  0  0
   -1.1963   -6.3245   -1.0043 H   0  0  0  1  0  0  0  0  0  0  0  0
   -3.1539   -5.4964   -0.9194 C   0  0  0  1  0  0  0  0  0  0  0  0
   -4.0807   -5.7360   -0.4414 H   0  0  0  1  0  0  0  0  0  0  0  0
   -3.3754   -5.2146   -2.3945 C   0  0  0  1  0  0  0  0  0  0  0  0
   -4.1776   -5.8051   -2.7852 H   0  0  0  1  0  0  0  0  0  0  0  0
   -3.7272   -3.7493   -2.3933 C   0  0  0  1  0  0  0  0  0  0  0  0
   -4.7512   -3.5938   -2.1246 H   0  0  0  1  0  0  0  0  0  0  0  0
   -2.7813   -3.2079   -1.3222 C   0  0  0  1  0  0  0  0  0  0  0  0
   -3.2107   -2.3573   -0.8354 H   0  0  0  1  0  0  0  0  0  0  0  0
   -2.6161   -4.3056   -0.3838 O   0  0  0  1  0  0  0  0  0  0  0  0
   -1.4937   -2.8353   -1.9119 N   0  0  0  1  0  0  0  0  0  0  0  0
   -0.4467   -3.6611   -2.1868 C   0  0  0  1  0  0  0  0  0  0  0  0
   -0.4697   -4.6847   -2.0037 H   0  0  0  1  0  0  0  0  0  0  0  0
    0.5997   -3.0476   -2.7060 N   0  0  0  1  0  0  0  0  0  0  0  0
    0.1760   -1.7212   -2.7911 C   0  0  0  1  0  0  0  0  0  0  0  0
    0.8129   -0.5689   -3.2833 C   0  0  0  1  0  0  0  0  0  0  0  0
    0.1272    0.5983   -3.2201 N   0  0  0  1  0  0  0  0  0  0  0  0
   -1.1129    0.5803   -2.6996 C   0  0  0  1  0  0  0  0  0  0  0  0
   -1.5943    1.5018   -2.6719 H   0  0  0  1  0  0  0  0  0  0  0  0
   -1.8172   -0.4419   -2.2139 N   0  0  0  1  0  0  0  0  0  0  0  0
   -1.0915   -1.5752   -2.3035 C   0  0  0  1  0  0  0  0  0  0  0  0
    2.0728   -0.6233   -3.8044 N   0  0  0  1  0  0  0  0  0  0  0  0
    2.5383   -1.4830   -3.8722 H   0  0  0  1  0  0  0  0  0  0  0  0
    2.5121    0.1973   -4.1110 H   0  0  0  1  0  0  0  0  0  0  0  0
   -3.4718   -3.1509   -3.6649 O   0  0  0  1  0  0  0  0  0  0  0  0
   -4.1192   -3.4626   -4.3015 H   0  0  0  1  0  0  0  0  0  0  0  0
   -2.1679   -5.4653   -3.1653 O   0  0  0  1  0  0  0  0  0  0  0  0
   -1.7898   -6.9803   -3.6667 P   0  0  0  1  0  0  0  0  0  0  0  0
   -2.9602   -7.8786   -3.7845 O   0  0  0  1  0  0  0  0  0  0  0  0
   -0.9282   -6.6580   -5.0001 O   0  5  0  1  0  0  0  0  0  0  0  0
   -0.6772   -7.5299   -2.6254 O   0  5  0  1  0  0  0  0  0  0  0  0
    3.6797   -9.4030   -0.6777 C   0  0  0  1  0  0  0  0  0  0  0  0
    4.7221   -9.2480   -0.4930 H   0  0  0  1  0  0  0  0  0  0  0  0
    3.5120  -10.7300   -1.3917 C   0  0  0  1  0  0  0  0  0  0  0  0
    4.3387  -11.6297   -1.2671 O   0  0  0  1  0  0  0  0  0  0  0  0
    2.4194  -10.8461   -2.1519 N   0  0  0  1  0  0  0  0  0  0  0  0
    1.7765  -10.1067   -2.1721 H   0  0  0  1  0  0  0  0  0  0  0  0
    2.1509  -12.0324   -2.9510 C   0  0  0  1  0  0  0  0  0  0  0  0
    1.2220  -12.4573   -2.6324 H   0  0  0  1  0  0  0  0  0  0  0  0
    2.9394  -12.7381   -2.7928 H   0  0  0  1  0  0  0  0  0  0  0  0
    2.0621  -11.7263   -4.4372 C   0  0  0  1  0  0  0  0  0  0  0  0
    1.3560  -10.9352   -4.5804 H   0  0  0  1  0  0  0  0  0  0  0  0
    1.7229  -12.6043   -4.9460 H   0  0  0  1  0  0  0  0  0  0  0  0
    3.4008  -11.2994   -5.0421 C   0  0  0  1  0  0  0  0  0  0  0  0
    4.4547  -11.7904   -4.6398 O   0  0  0  1  0  0  0  0  0  0  0  0
    3.3042  -10.4426   -6.0710 N   0  0  0  1  0  0  0  0  0  0  0  0
    2.4210  -10.0962   -6.3167 H   0  0  0  1  0  0  0  0  0  0  0  0
    4.4655  -10.0102   -6.8341 C   0  0  0  1  0  0  0  0  0  0  0  0
    5.3105  -10.6062   -6.5592 H   0  0  0  1  0  0  0  0  0  0  0  0
    4.6677   -8.9821   -6.6172 H   0  0  0  1  0  0  0  0  0  0  0  0
    4.2060  -10.1658   -8.3151 C   0  0  0  1  0  0  0  0  0  0  0  0
    3.9526  -11.1885   -8.5014 H   0  0  0  1  0  0  0  0  0  0  0  0
    5.1072   -9.9203   -8.8370 H   0  0  0  1  0  0  0  0  0  0  0  0
    2.8774   -9.1306   -8.9742 S   0  0  0  1  0  0  0  0  0  0  0  0
    1.4699  -10.2114   -8.8687 C   0  0  0  1  0  0  0  0  0  0  0  0
    1.5264  -11.3365   -8.4450 O   0  0  0  1  0  0  0  0  0  0  0  0
    0.2064   -9.5560   -9.3695 C   0  0  0  1  0  0  0  0  0  0  0  0
    0.1395   -9.7225  -10.4243 H   0  0  0  1  0  0  0  0  0  0  0  0
    0.2766   -8.5057   -9.1775 H   0  0  0  1  0  0  0  0  0  0  0  0
   -1.0709  -10.0712   -8.7261 C   0  0  0  1  0  0  0  0  0  0  0  0
   -1.0226  -10.9965   -7.9508 O   0  0  0  1  0  0  0  0  0  0  0  0
   -2.3496   -9.4960   -9.1321 C   0  0  0  1  0  0  0  0  0  0  0  0
   -3.1664   -9.7265   -8.5311 H   0  0  0  1  0  0  0  0  0  0  0  0
   -2.5962   -8.7111  -10.1802 C   0  0  0  1  0  0  0  0  0  0  0  0
   -1.7794   -8.4805  -10.7813 H   0  0  0  1  0  0  0  0  0  0  0  0
   -3.8926   -8.1278  -10.5919 C   0  0  0  1  0  0  0  0  0  0  0  0
   -4.0031   -7.3120  -11.7020 C   0  0  0  1  0  0  0  0  0  0  0  0
   -3.1609   -7.0902  -12.2703 H   0  0  0  1  0  0  0  0  0  0  0  0
   -5.2367   -6.7893  -12.0578 C   0  0  0  1  0  0  0  0  0  0  0  0
   -6.3552   -7.0796  -11.2994 C   0  0  0  1  0  0  0  0  0  0  0  0
   -6.2442   -7.8979  -10.1860 C   0  0  0  1  0  0  0  0  0  0  0  0
   -7.0864   -8.1196   -9.6177 H   0  0  0  1  0  0  0  0  0  0  0  0
   -5.0142   -8.4191   -9.8312 C   0  0  0  1  0  0  0  0  0  0  0  0
   -4.9303   -9.0297   -8.9935 H   0  0  0  1  0  0  0  0  0  0  0  0
   -7.5809   -6.5814  -11.6139 O   0  5  0  1  0  0  0  0  0  0  0  0
   -5.5124   -5.9841  -13.1111 O   0  0  0  1  0  0  0  0  0  0  0  0
   -6.2288   -4.7695  -12.8387 C   0  0  0  1  0  0  0  0  0  0  0  0
   -7.2761   -4.9792  -12.7753 H   0  0  0  1  0  0  0  0  0  0  0  0
   -6.0529   -4.0675  -13.6268 H   0  0  0  1  0  0  0  0  0  0  0  0
   -5.8911   -4.3570  -11.9109 H   0  0  0  1  0  0  0  0  0  0  0  0
    3.1830   -8.3659   -1.5183 O   0  0  0  1  0  0  0  0  0  0  0  0
    3.8839   -7.7346   -1.6965 H   0  0  0  1  0  0  0  0  0  0  0  0
  1  2  1  0  0  0  0
  1  3  1  0  0  0  0
  1  4  1  0  0  0  0
  1  5  1  0  0  0  0
  5  6  1  0  0  0  0
  5 10  1  0  0  0  0
  5 55  1  0  0  0  0
  6  7  1  0  0  0  0
  6  8  1  0  0  0  0
  6  9  1  0  0  0  0
 10 11  1  0  0  0  0
 10 12  1  0  0  0  0
 10 13  1  0  0  0  0
 13 14  1  0  0  0  0
 14 15  2  0  0  0  0
 14 16  1  0  0  0  0
 14 17  1  0  0  0  0
 17 18  1  0  0  0  0
 18 19  1  0  0  0  0
 18 20  2  0  0  0  0
 18 21  1  0  0  0  0
 21 22  1  0  0  0  0
 22 23  1  0  0  0  0
 22 24  1  0  0  0  0
 22 25  1  0  0  0  0
 25 26  1  0  0  0  0
 25 27  1  0  0  0  0
 25 33  1  0  0  0  0
 27 28  1  0  0  0  0
 27 29  1  0  0  0  0
 27 50  1  0  0  0  0
 29 30  1  0  0  0  0
 29 31  1  0  0  0  0
 29 48  1  0  0  0  0
 31 32  1  0  0  0  0
 31 33  1  0  0  0  0
 31 34  1  0  0  0  0
 34 35  1  0  0  0  0
 34 44  1  0  0  0  0
 35 36  1  0  0  0  0
 35 37  2  0  0  0  0
 37 38  1  0  0  0  0
 38 39  1  0  0  0  0
 38 44  2  0  0  0  0
 39 40  2  0  0  0  0
 39 45  1  0  0  0  0
 40 41  1  0  0  0  0
 41 42  1  0  0  0  0
 41 43  2  0  0  0  0
 43 44  1  0  0  0  0
 45 46  1  0  0  0  0
 45 47  1  0  0  0  0
 48 49  1  0  0  0  0
 50 51  1  0  0  0  0
 51 52  2  0  0  0  0
 51 53  1  0  0  0  0
 51 54  1  0  0  0  0
 55 56  1  0  0  0  0
 55 57  1  0  0  0  0
 55104  1  0  0  0  0
 57 58  2  0  0  0  0
 57 59  1  0  0  0  0
 59 60  1  0  0  0  0
 59 61  1  0  0  0  0
 61 62  1  0  0  0  0
 61 63  1  0  0  0  0
 61 64  1  0  0  0  0
 64 65  1  0  0  0  0
 64 66  1  0  0  0  0
 64 67  1  0  0  0  0
 67 68  2  0  0  0  0
 67 69  1  0  0  0  0
 69 70  1  0  0  0  0
 69 71  1  0  0  0  0
 71 72  1  0  0  0  0
 71 73  1  0  0  0  0
 71 74  1  0  0  0  0
 74 75  1  0  0  0  0
 74 76  1  0  0  0  0
 74 77  1  0  0  0  0
 77 78  1  0  0  0  0
 78 79  2  0  0  0  0
 78 80  1  0  0  0  0
 80 81  1  0  0  0  0
 80 82  1  0  0  0  0
 80 83  1  0  0  0  0
 83 84  2  0  0  0  0
 83 85  1  0  0  0  0
 85 86  1  0  0  0  0
 85 87  2  0  0  0  0
 87 88  1  0  0  0  0
 87 89  1  0  0  0  0
 89 90  2  0  0  0  0
 89 96  1  0  0  0  0
 90 91  1  0  0  0  0
 90 92  1  0  0  0  0
 92 93  2  0  0  0  0
 92 99  1  0  0  0  0
 93 94  1  0  0  0  0
 93 98  1  0  0  0  0
 94 95  1  0  0  0  0
 94 96  2  0  0  0  0
 96 97  1  0  0  0  0
 99100  1  0  0  0  0
100101  1  0  0  0  0
100102  1  0  0  0  0
100103  1  0  0  0  0
104105  1  0  0  0  0
M  BCL ATM C_TeTeTeTe H_S H_S H_S C_TeTeTeTe C_TeTeTeTe H_S H_S H_S C_TeTeTeTe H_S H_S O_Tr2TrTrPi2 P_TeTeTeTePi O_Tr2Tr2TrPi O_Te2Te2Te2Te O_Tr2TrTrPi2 P_TeTeTeTePi O_Te2Te2TeTe O_Tr2Tr2TrPi O_Tr2TrTrPi2 C_TeTeTeTe H_S H_S C_TeTeTeTe H_S C_TeTeTeTe H_S C_TeTeTeTe H_S C_TeTeTeTe H_S O_Te2Te2TeTe N_TrTrTrPi2 C_TrTrTrPi H_S N_Tr2TrTrPi C_TrTrTrPi C_TrTrTrPi N_Tr2TrTrPi C_TrTrTrPi H_S N_Tr2TrTrPi C_TrTrTrPi N_TrTrTrPi2 H_S H_S O_Te2Te2TeTe H_S O_Tr2TrTrPi2 P_TeTeTeTePi O_Tr2Tr2TrPi O_Te2Te2Te2Te O_Te2Te2Te2Te C_TeTeTeTe H_S C_TrTrTrPi O_Tr2Tr2TrPi N_TrTrTrPi2 H_S C_TeTeTeTe H_S H_S C_TeTeTeTe H_S H_S C_TrTrTrPi O_Tr2Tr2TrPi N_TrTrTrPi2 H_S C_TeTeTeTe H_S H_S C_TeTeTeTe H_S H_S S_Te2Te2TeTe C_TrTrTrPi O_Tr2Tr2TrPi C_TeTeTeTe H_S H_S C_TrTrTrPi O_Tr2Tr2TrPi C_TrTrTrPi H_S C_TrTrTrPi H_S C_TrTrTrPi C_TrTrTrPi H_S C_TrTrTrPi C_TrTrTrPi C_TrTrTrPi H_S C_TrTrTrPi H_S O_Te2Te2Te2Te O_Tr2TrTrPi2 C_TeTeTeTe H_S H_S H_S O_Te2Te2TeTe H_S
M  BCL BND NonConjugatedSingleBond NonConjugatedSingleBond NonConjugatedSingleBond NonConjugatedSingleBond NonConjugatedSingleBond NonConjugatedSingleBond NonConjugatedSingleBond NonConjugatedSingleBond NonConjugatedSingleBond NonConjugatedSingleBond NonConjugatedSingleBond NonConjugatedSingleBond NonConjugatedSingleBond ConjugatedSingleBond ConjugatedDoubleBond ConjugatedSingleBond ConjugatedSingleBond ConjugatedSingleBond ConjugatedSingleBond ConjugatedDoubleBond ConjugatedSingleBond NonConjugatedSingleBond NonConjugatedSingleBond NonConjugatedSingleBond NonConjugatedSingleBond NonConjugatedSingleBond NonConjugatedSingleBondInRing NonConjugatedSingleBondInRing NonConjugatedSingleBond NonConjugatedSingleBondInRing NonConjugatedSingleBond NonConjugatedSingleBond NonConjugatedSingleBondInRing NonConjugatedSingleBond NonConjugatedSingleBond NonConjugatedSingleBondInRing NonConjugatedSingleBond AromaticSingleBond AromaticSingleBond NonConjugatedSingleBond AromaticDoubleBond AromaticSingleBond AromaticSingleBond AromaticDoubleBond AromaticDoubleBond ConjugatedSingleBond AromaticSingleBond NonConjugatedSingleBond AromaticDoubleBond AromaticSingleBond NonConjugatedSingleBond NonConjugatedSingleBond NonConjugatedSingleBond ConjugatedSingleBond ConjugatedDoubleBond ConjugatedSingleBond ConjugatedSingleBond NonConjugatedSingleBond NonConjugatedSingleBond NonConjugatedSingleBond ConjugatedDoubleBond AmideSingleBond NonConjugatedSingleBond NonConjugatedSingleBond NonConjugatedSingleBond NonConjugatedSingleBond NonConjugatedSingleBond NonConjugatedSingleBond NonConjugatedSingleBond NonConjugatedSingleBond ConjugatedDoubleBond AmideSingleBond NonConjugatedSingleBond NonConjugatedSingleBond NonConjugatedSingleBond NonConjugatedSingleBond NonConjugatedSingleBond NonConjugatedSingleBond NonConjugatedSingleBond NonConjugatedSingleBond ConjugatedSingleBond ConjugatedDoubleBond NonConjugatedSingleBond NonConjugatedSingleBond NonConjugatedSingleBond NonConjugatedSingleBond ConjugatedDoubleBond ConjugatedSingleBond NonConjugatedSingleBond ConjugatedDoubleBond NonConjugatedSingleBond ConjugatedSingleBond AromaticDoubleBond AromaticSingleBond NonConjugatedSingleBond AromaticSingleBond AromaticDoubleBond ConjugatedSingleBond AromaticSingleBond ConjugatedSingleBond NonConjugatedSingleBond AromaticDoubleBond NonConjugatedSingleBond NonConjugatedSingleBond NonConjugatedSingleBond NonConjugatedSingleBond NonConjugatedSingleBond NonConjugatedSingleBond
M  BCL CHI  14   R  18   S  25   R  27   R  29   R  31   S  55   R
M  BCL DBI - - - - - - - - - - - E - - -
M  END
> <ConfClashScore>
0 

> <ConfOneFourInteractionScore>
-0.969687 

> <ConfScore>
0.242242 

> <ConfScorePBest>
0.00799148 

> <ConfTolerance>
2.92369 

$$$$
L03.****
  PyMOL2.5          3D                             0

105108  0  0  0  0  0  0  0  0999 V2000
    3.3397   -4.0796    4.5068 C   0  0  0  1  0  0  0  0  0  0  0  0
    2.9809   -4.8706    3.8820 H   0  0  0  1  0  0  0  0  0  0  0  0
    3.0480   -4.2651    5.5195 H   0  0  0  1  0  0  0  0  0  0  0  0
    4.4069   -4.0330    4.4454 H   0  0  0  1  0  0  0  0  0  0  0  0
    2.7425   -2.7469    4.0393 C   0  0  0  1  0  0  0  0  0  0  0  0
    1.8016   -2.1922    5.1155 C   0  0  0  1  0  0  0  0  0  0  0  0
    1.7792   -1.1242    5.0541 H   0  0  0  1  0  0  0  0  0  0  0  0
    2.1532   -2.4863    6.0823 H   0  0  0  1  0  0  0  0  0  0  0  0
    0.8160   -2.5789    4.9609 H   0  0  0  1  0  0  0  0  0  0  0  0
    1.9810   -2.9620    2.7728 C   0  0  0  1  0  0  0  0  0  0  0  0
    2.6460   -2.9174    1.9357 H   0  0  0  1  0  0  0  0  0  0  0  0
    1.2260   -2.2109    2.6696 H   0  0  0  1  0  0  0  0  0  0  0  0
    1.3721   -4.2611    2.8453 O   0  0  0  1  0  0  0  0  0  0  0  0
    1.4444   -5.3633    1.7245 P   0  0  0  1  0  0  0  0  0  0  0  0
    2.8884   -5.5435    1.9943 O   0  0  0  1  0  0  0  0  0  0  0  0
    0.0792   -5.4216    2.5947 O   0  5  0  1  0  0  0  0  0  0  0  0
    1.5187   -6.4886    0.5803 O   0  0  0  1  0  0  0  0  0  0  0  0
    0.3625   -6.9066   -0.4860 P   0  0  0  1  0  0  0  0  0  0  0  0
   -0.2808   -8.1888   -0.1163 O   0  0  0  0  0  0  0  0  0  0  0  0
    1.0208   -6.7830   -1.7734 O   0  0  0  1  0  0  0  0  0  0  0  0
   -0.7535   -5.8123   -0.3039 O   0  0  0  1  0  0  0  0  0  0  0  0
   -1.8865   -6.0458    0.5654 C   0  0  0  1  0  0  0  0  0  0  0  0
   -1.5914   -5.8814    1.5807 H   0  0  0  1  0  0  0  0  0  0  0  0
   -2.2176   -7.0566    0.4488 H   0  0  0  1  0  0  0  0  0  0  0  0
   -3.0190   -5.1084    0.2186 C   0  0  0  1  0  0  0  0  0  0  0  0
   -3.7821   -5.1786    0.9654 H   0  0  0  1  0  0  0  0  0  0  0  0
   -3.5852   -5.4685   -1.1232 C   0  0  0  1  0  0  0  0  0  0  0  0
   -4.6223   -5.7131   -1.0256 H   0  0  0  1  0  0  0  0  0  0  0  0
   -3.4253   -4.2833   -2.0282 C   0  0  0  1  0  0  0  0  0  0  0  0
   -4.3849   -3.9542   -2.3684 H   0  0  0  1  0  0  0  0  0  0  0  0
   -2.7598   -3.1895   -1.2456 C   0  0  0  1  0  0  0  0  0  0  0  0
   -3.3974   -2.3311   -1.2072 H   0  0  0  1  0  0  0  0  0  0  0  0
   -2.5089   -3.6999    0.1430 O   0  0  0  1  0  0  0  0  0  0  0  0
   -1.4903   -2.8274   -1.8788 N   0  0  0  1  0  0  0  0  0  0  0  0
   -0.4439   -3.6678   -2.1727 C   0  0  0  1  0  0  0  0  0  0  0  0
   -0.4648   -4.6910   -1.9878 H   0  0  0  1  0  0  0  0  0  0  0  0
    0.5879   -3.0523   -2.7112 N   0  0  0  1  0  0  0  0  0  0  0  0
    0.1827   -1.7277   -2.7966 C   0  0  0  1  0  0  0  0  0  0  0  0
    0.8099   -0.5675   -3.2883 C   0  0  0  1  0  0  0  0  0  0  0  0
    0.1227    0.5923   -3.2416 N   0  0  0  1  0  0  0  0  0  0  0  0
   -1.1225    0.5723   -2.7386 C   0  0  0  1  0  0  0  0  0  0  0  0
   -1.6119    1.4899   -2.7337 H   0  0  0  1  0  0  0  0  0  0  0  0
   -1.8240   -0.4453   -2.2454 N   0  0  0  1  0  0  0  0  0  0  0  0
   -1.1039   -1.5803   -2.2991 C   0  0  0  1  0  0  0  0  0  0  0  0
    2.0803   -0.6147   -3.7989 N   0  0  0  1  0  0  0  0  0  0  0  0
    2.6393    0.1901   -3.7971 H   0  0  0  1  0  0  0  0  0  0  0  0
    2.4300   -1.4534   -4.1660 H   0  0  0  1  0  0  0  0  0  0  0  0
   -2.6166   -4.6367   -3.1513 O   0  0  0  1  0  0  0  0  0  0  0  0
   -2.9912   -4.2551   -3.9486 H   0  0  0  1  0  0  0  0  0  0  0  0
   -2.8690   -6.6052   -1.6702 O   0  0  0  1  0  0  0  0  0  0  0  0
   -3.6771   -7.8617   -2.3469 P   0  0  0  1  0  0  0  0  0  0  0  0
   -4.3464   -7.4335   -3.5955 O   0  0  0  1  0  0  0  0  0  0  0  0
   -2.5712   -8.9977   -2.6800 O   0  5  0  1  0  0  0  0  0  0  0  0
   -4.7770   -8.4282   -1.3012 O   0  5  0  1  0  0  0  0  0  0  0  0
    3.8730   -1.7427    3.7835 C   0  0  0  1  0  0  0  0  0  0  0  0
    4.4450   -1.6667    4.6846 H   0  0  0  1  0  0  0  0  0  0  0  0
    4.7955   -2.2690    2.6958 C   0  0  0  1  0  0  0  0  0  0  0  0
    5.3355   -3.3701    2.7941 O   0  0  0  1  0  0  0  0  0  0  0  0
    4.9729   -1.4642    1.6469 N   0  0  0  1  0  0  0  0  0  0  0  0
    4.4989   -0.6064    1.6487 H   0  0  0  1  0  0  0  0  0  0  0  0
    5.8171   -1.7640    0.5000 C   0  0  0  1  0  0  0  0  0  0  0  0
    5.3669   -1.3294   -0.3679 H   0  0  0  1  0  0  0  0  0  0  0  0
    5.8593   -2.8271    0.3862 H   0  0  0  1  0  0  0  0  0  0  0  0
    7.2329   -1.2453    0.6056 C   0  0  0  1  0  0  0  0  0  0  0  0
    7.8139   -1.7133   -0.1615 H   0  0  0  1  0  0  0  0  0  0  0  0
    7.6162   -1.5249    1.5647 H   0  0  0  1  0  0  0  0  0  0  0  0
    7.3877    0.2560    0.4595 C   0  0  0  1  0  0  0  0  0  0  0  0
    6.5900    0.9186   -0.2024 O   0  0  0  1  0  0  0  0  0  0  0  0
    8.4394    0.7983    1.0936 N   0  0  0  1  0  0  0  0  0  0  0  0
    9.0700    0.2067    1.5548 H   0  0  0  1  0  0  0  0  0  0  0  0
    8.6754    2.2340    1.1199 C   0  0  0  1  0  0  0  0  0  0  0  0
    8.3075    2.6587    0.2093 H   0  0  0  1  0  0  0  0  0  0  0  0
    9.7287    2.4070    1.1946 H   0  0  0  1  0  0  0  0  0  0  0  0
    7.9907    2.9118    2.2808 C   0  0  0  1  0  0  0  0  0  0  0  0
    6.9522    2.6542    2.2860 H   0  0  0  1  0  0  0  0  0  0  0  0
    8.0950    3.9728    2.1902 H   0  0  0  1  0  0  0  0  0  0  0  0
    8.7628    2.3543    3.8183 S   0  0  0  1  0  0  0  0  0  0  0  0
    7.6065    2.8837    5.0289 C   0  0  0  1  0  0  0  0  0  0  0  0
    6.5061    3.3044    4.7927 O   0  0  0  1  0  0  0  0  0  0  0  0
    8.1612    2.8500    6.4317 C   0  0  0  1  0  0  0  0  0  0  0  0
    7.6724    3.6034    7.0134 H   0  0  0  1  0  0  0  0  0  0  0  0
    9.2107    3.0543    6.3919 H   0  0  0  1  0  0  0  0  0  0  0  0
    7.9521    1.5126    7.0957 C   0  0  0  1  0  0  0  0  0  0  0  0
    8.5835    0.5374    6.7289 O   0  0  0  1  0  0  0  0  0  0  0  0
    6.9804    1.4069    8.1850 C   0  0  0  1  0  0  0  0  0  0  0  0
    6.4261    2.2408    8.4660 H   0  0  0  1  0  0  0  0  0  0  0  0
    6.8018    0.2485    8.8188 C   0  0  0  1  0  0  0  0  0  0  0  0
    7.3971   -0.5310    8.4729 H   0  0  0  1  0  0  0  0  0  0  0  0
    5.8974   -0.1135    9.9330 C   0  0  0  1  0  0  0  0  0  0  0  0
    5.0099    0.7972   10.4743 C   0  0  0  1  0  0  0  0  0  0  0  0
    4.9681    1.7672   10.1015 H   0  0  0  1  0  0  0  0  0  0  0  0
    4.1754    0.4176   11.5140 C   0  0  0  1  0  0  0  0  0  0  0  0
    4.2346   -0.8700   12.0130 C   0  0  0  1  0  0  0  0  0  0  0  0
    5.1249   -1.7833   11.4699 C   0  0  0  1  0  0  0  0  0  0  0  0
    5.1667   -2.7533   11.8426 H   0  0  0  1  0  0  0  0  0  0  0  0
    5.9570   -1.4049   10.4332 C   0  0  0  1  0  0  0  0  0  0  0  0
    6.6277   -2.0890   10.0285 H   0  0  0  1  0  0  0  0  0  0  0  0
    3.4715   -1.3522   13.0302 O   0  5  0  1  0  0  0  0  0  0  0  0
    3.2655    1.2176   12.1188 O   0  0  0  1  0  0  0  0  0  0  0  0
    3.4853    2.6349   12.0442 C   0  0  0  1  0  0  0  0  0  0  0  0
    3.4014    3.0613   13.0220 H   0  0  0  1  0  0  0  0  0  0  0  0
    2.7541    3.0755   11.3992 H   0  0  0  1  0  0  0  0  0  0  0  0
    4.4644    2.8237   11.6559 H   0  0  0  1  0  0  0  0  0  0  0  0
    3.3040   -0.4771    3.4915 O   0  0  0  1  0  0  0  0  0  0  0  0
    3.5137    0.1391    4.1971 H   0  0  0  1  0  0  0  0  0  0  0  0
  1  2  1  0  0  0  0
  1  3  1  0  0  0  0
  1  4  1  0  0  0  0
  1  5  1  0  0  0  0
  5  6  1  0  0  0  0
  5 10  1  0  0  0  0
  5 55  1  0  0  0  0
  6  7  1  0  0  0  0
  6  8  1  0  0  0  0
  6  9  1  0  0  0  0
 10 11  1  0  0  0  0
 10 12  1  0  0  0  0
 10 13  1  0  0  0  0
 13 14  1  0  0  0  0
 14 15  2  0  0  0  0
 14 16  1  0  0  0  0
 14 17  1  0  0  0  0
 17 18  1  0  0  0  0
 18 19  1  0  0  0  0
 18 20  2  0  0  0  0
 18 21  1  0  0  0  0
 21 22  1  0  0  0  0
 22 23  1  0  0  0  0
 22 24  1  0  0  0  0
 22 25  1  0  0  0  0
 25 26  1  0  0  0  0
 25 27  1  0  0  0  0
 25 33  1  0  0  0  0
 27 28  1  0  0  0  0
 27 29  1  0  0  0  0
 27 50  1  0  0  0  0
 29 30  1  0  0  0  0
 29 31  1  0  0  0  0
 29 48  1  0  0  0  0
 31 32  1  0  0  0  0
 31 33  1  0  0  0  0
 31 34  1  0  0  0  0
 34 35  1  0  0  0  0
 34 44  1  0  0  0  0
 35 36  1  0  0  0  0
 35 37  2  0  0  0  0
 37 38  1  0  0  0  0
 38 39  1  0  0  0  0
 38 44  2  0  0  0  0
 39 40  2  0  0  0  0
 39 45  1  0  0  0  0
 40 41  1  0  0  0  0
 41 42  1  0  0  0  0
 41 43  2  0  0  0  0
 43 44  1  0  0  0  0
 45 46  1  0  0  0  0
 45 47  1  0  0  0  0
 48 49  1  0  0  0  0
 50 51  1  0  0  0  0
 51 52  2  0  0  0  0
 51 53  1  0  0  0  0
 51 54  1  0  0  0  0
 55 56  1  0  0  0  0
 55 57  1  0  0  0  0
 55104  1  0  0  0  0
 57 58  2  0  0  0  0
 57 59  1  0  0  0  0
 59 60  1  0  0  0  0
 59 61  1  0  0  0  0
 61 62  1  0  0  0  0
 61 63  1  0  0  0  0
 61 64  1  0  0  0  0
 64 65  1  0  0  0  0
 64 66  1  0  0  0  0
 64 67  1  0  0  0  0
 67 68  2  0  0  0  0
 67 69  1  0  0  0  0
 69 70  1  0  0  0  0
 69 71  1  0  0  0  0
 71 72  1  0  0  0  0
 71 73  1  0  0  0  0
 71 74  1  0  0  0  0
 74 75  1  0  0  0  0
 74 76  1  0  0  0  0
 74 77  1  0  0  0  0
 77 78  1  0  0  0  0
 78 79  2  0  0  0  0
 78 80  1  0  0  0  0
 80 81  1  0  0  0  0
 80 82  1  0  0  0  0
 80 83  1  0  0  0  0
 83 84  2  0  0  0  0
 83 85  1  0  0  0  0
 85 86  1  0  0  0  0
 85 87  2  0  0  0  0
 87 88  1  0  0  0  0
 87 89  1  0  0  0  0
 89 90  2  0  0  0  0
 89 96  1  0  0  0  0
 90 91  1  0  0  0  0
 90 92  1  0  0  0  0
 92 93  2  0  0  0  0
 92 99  1  0  0  0  0
 93 94  1  0  0  0  0
 93 98  1  0  0  0  0
 94 95  1  0  0  0  0
 94 96  2  0  0  0  0
 96 97  1  0  0  0  0
 99100  1  0  0  0  0
100101  1  0  0  0  0
100102  1  0  0  0  0
100103  1  0  0  0  0
104105  1  0  0  0  0
M  BCL ATM C_TeTeTeTe H_S H_S H_S C_TeTeTeTe C_TeTeTeTe H_S H_S H_S C_TeTeTeTe H_S H_S O_Tr2TrTrPi2 P_TeTeTeTePi O_Tr2Tr2TrPi O_Te2Te2Te2Te O_Tr2TrTrPi2 P_TeTeTeTePi O_Te2Te2TeTe O_Tr2Tr2TrPi O_Tr2TrTrPi2 C_TeTeTeTe H_S H_S C_TeTeTeTe H_S C_TeTeTeTe H_S C_TeTeTeTe H_S C_TeTeTeTe H_S O_Te2Te2TeTe N_TrTrTrPi2 C_TrTrTrPi H_S N_Tr2TrTrPi C_TrTrTrPi C_TrTrTrPi N_Tr2TrTrPi C_TrTrTrPi H_S N_Tr2TrTrPi C_TrTrTrPi N_TrTrTrPi2 H_S H_S O_Te2Te2TeTe H_S O_Tr2TrTrPi2 P_TeTeTeTePi O_Tr2Tr2TrPi O_Te2Te2Te2Te O_Te2Te2Te2Te C_TeTeTeTe H_S C_TrTrTrPi O_Tr2Tr2TrPi N_TrTrTrPi2 H_S C_TeTeTeTe H_S H_S C_TeTeTeTe H_S H_S C_TrTrTrPi O_Tr2Tr2TrPi N_TrTrTrPi2 H_S C_TeTeTeTe H_S H_S C_TeTeTeTe H_S H_S S_Te2Te2TeTe C_TrTrTrPi O_Tr2Tr2TrPi C_TeTeTeTe H_S H_S C_TrTrTrPi O_Tr2Tr2TrPi C_TrTrTrPi H_S C_TrTrTrPi H_S C_TrTrTrPi C_TrTrTrPi H_S C_TrTrTrPi C_TrTrTrPi C_TrTrTrPi H_S C_TrTrTrPi H_S O_Te2Te2Te2Te O_Tr2TrTrPi2 C_TeTeTeTe H_S H_S H_S O_Te2Te2TeTe H_S
M  BCL BND NonConjugatedSingleBond NonConjugatedSingleBond NonConjugatedSingleBond NonConjugatedSingleBond NonConjugatedSingleBond NonConjugatedSingleBond NonConjugatedSingleBond NonConjugatedSingleBond NonConjugatedSingleBond NonConjugatedSingleBond NonConjugatedSingleBond NonConjugatedSingleBond NonConjugatedSingleBond ConjugatedSingleBond ConjugatedDoubleBond ConjugatedSingleBond ConjugatedSingleBond ConjugatedSingleBond ConjugatedSingleBond ConjugatedDoubleBond ConjugatedSingleBond NonConjugatedSingleBond NonConjugatedSingleBond NonConjugatedSingleBond NonConjugatedSingleBond NonConjugatedSingleBond NonConjugatedSingleBondInRing NonConjugatedSingleBondInRing NonConjugatedSingleBond NonConjugatedSingleBondInRing NonConjugatedSingleBond NonConjugatedSingleBond NonConjugatedSingleBondInRing NonConjugatedSingleBond NonConjugatedSingleBond NonConjugatedSingleBondInRing NonConjugatedSingleBond AromaticSingleBond AromaticSingleBond NonConjugatedSingleBond AromaticDoubleBond AromaticSingleBond AromaticSingleBond AromaticDoubleBond AromaticDoubleBond ConjugatedSingleBond AromaticSingleBond NonConjugatedSingleBond AromaticDoubleBond AromaticSingleBond NonConjugatedSingleBond NonConjugatedSingleBond NonConjugatedSingleBond ConjugatedSingleBond ConjugatedDoubleBond ConjugatedSingleBond ConjugatedSingleBond NonConjugatedSingleBond NonConjugatedSingleBond NonConjugatedSingleBond ConjugatedDoubleBond AmideSingleBond NonConjugatedSingleBond NonConjugatedSingleBond NonConjugatedSingleBond NonConjugatedSingleBond NonConjugatedSingleBond NonConjugatedSingleBond NonConjugatedSingleBond NonConjugatedSingleBond ConjugatedDoubleBond AmideSingleBond NonConjugatedSingleBond NonConjugatedSingleBond NonConjugatedSingleBond NonConjugatedSingleBond NonConjugatedSingleBond NonConjugatedSingleBond NonConjugatedSingleBond NonConjugatedSingleBond ConjugatedSingleBond ConjugatedDoubleBond NonConjugatedSingleBond NonConjugatedSingleBond NonConjugatedSingleBond NonConjugatedSingleBond ConjugatedDoubleBond ConjugatedSingleBond NonConjugatedSingleBond ConjugatedDoubleBond NonConjugatedSingleBond ConjugatedSingleBond AromaticDoubleBond AromaticSingleBond NonConjugatedSingleBond AromaticSingleBond AromaticDoubleBond ConjugatedSingleBond AromaticSingleBond ConjugatedSingleBond NonConjugatedSingleBond AromaticDoubleBond NonConjugatedSingleBond NonConjugatedSingleBond NonConjugatedSingleBond NonConjugatedSingleBond NonConjugatedSingleBond NonConjugatedSingleBond
M  BCL CHI  14   R  18   S  25   R  27   R  29   R  31   S  55   R
M  BCL DBI - - - - - - - - - - - E - - -
M  END
> <ConfClashScore>
0 

> <ConfOneFourInteractionScore>
-0.976144 

> <ConfScore>
0.251787 

> <ConfScorePBest>
0.00788848 

> <ConfTolerance>
3.03237 

$$$$
L03.****
  PyMOL2.5          3D                             0

105108  0  0  0  0  0  0  0  0999 V2000
    2.9091   -9.3276   -5.0982 C   0  0  0  1  0  0  0  0  0  0  0  0
    3.4249  -10.2346   -5.3354 H   0  0  0  1  0  0  0  0  0  0  0  0
    3.3225   -8.9053   -4.2062 H   0  0  0  1  0  0  0  0  0  0  0  0
    3.0182   -8.6340   -5.9056 H   0  0  0  1  0  0  0  0  0  0  0  0
    1.4213   -9.6270   -4.8796 C   0  0  0  1  0  0  0  0  0  0  0  0
    0.6575   -8.3197   -4.6371 C   0  0  0  1  0  0  0  0  0  0  0  0
    0.9616   -7.5894   -5.3576 H   0  0  0  1  0  0  0  0  0  0  0  0
    0.8713   -7.9594   -3.6525 H   0  0  0  1  0  0  0  0  0  0  0  0
   -0.3933   -8.4979   -4.7319 H   0  0  0  1  0  0  0  0  0  0  0  0
    1.2665  -10.5131   -3.7099 C   0  0  0  1  0  0  0  0  0  0  0  0
    1.6579  -11.4805   -3.9465 H   0  0  0  1  0  0  0  0  0  0  0  0
    0.2279  -10.5977   -3.4669 H   0  0  0  1  0  0  0  0  0  0  0  0
    1.9816   -9.9748   -2.5688 O   0  0  0  1  0  0  0  0  0  0  0  0
    1.2612   -9.0283   -1.5386 P   0  0  0  1  0  0  0  0  0  0  0  0
    0.3984  -10.1516   -1.1094 O   0  0  0  1  0  0  0  0  0  0  0  0
    2.8546   -8.7588   -1.6520 O   0  5  0  1  0  0  0  0  0  0  0  0
    0.5210   -8.0567   -0.4806 O   0  0  0  1  0  0  0  0  0  0  0  0
    0.6407   -6.4866   -0.1865 P   0  0  0  1  0  0  0  0  0  0  0  0
    1.5485   -5.8648   -1.1947 O   0  0  0  0  0  0  0  0  0  0  0  0
    0.9009   -6.3254    1.2592 O   0  0  0  1  0  0  0  0  0  0  0  0
   -0.8182   -5.9713   -0.4538 O   0  0  0  1  0  0  0  0  0  0  0  0
   -1.8904   -6.0872    0.5158 C   0  0  0  1  0  0  0  0  0  0  0  0
   -1.5165   -5.8358    1.4863 H   0  0  0  1  0  0  0  0  0  0  0  0
   -2.2522   -7.0941    0.5222 H   0  0  0  1  0  0  0  0  0  0  0  0
   -3.0406   -5.1400    0.1572 C   0  0  0  1  0  0  0  0  0  0  0  0
   -3.8129   -5.2210    0.8934 H   0  0  0  1  0  0  0  0  0  0  0  0
   -3.5873   -5.4919   -1.1948 C   0  0  0  1  0  0  0  0  0  0  0  0
   -4.6241   -5.7435   -1.1127 H   0  0  0  1  0  0  0  0  0  0  0  0
   -3.4230   -4.2981   -2.0876 C   0  0  0  1  0  0  0  0  0  0  0  0
   -4.3801   -3.9718   -2.4374 H   0  0  0  1  0  0  0  0  0  0  0  0
   -2.7743   -3.2071   -1.2873 C   0  0  0  1  0  0  0  0  0  0  0  0
   -3.4175   -2.3529   -1.2498 H   0  0  0  1  0  0  0  0  0  0  0  0
   -2.5381   -3.7278    0.1001 O   0  0  0  1  0  0  0  0  0  0  0  0
   -1.4989   -2.8320   -1.9009 N   0  0  0  1  0  0  0  0  0  0  0  0
   -0.4516   -3.6531   -2.1871 C   0  0  0  1  0  0  0  0  0  0  0  0
   -0.4714   -4.6740   -1.9899 H   0  0  0  1  0  0  0  0  0  0  0  0
    0.5793   -3.0625   -2.7276 N   0  0  0  1  0  0  0  0  0  0  0  0
    0.1837   -1.7370   -2.8180 C   0  0  0  1  0  0  0  0  0  0  0  0
    0.7897   -0.5729   -3.2811 C   0  0  0  1  0  0  0  0  0  0  0  0
    0.1257    0.5868   -3.2273 N   0  0  0  1  0  0  0  0  0  0  0  0
   -1.1118    0.5800   -2.7072 C   0  0  0  1  0  0  0  0  0  0  0  0
   -1.5929    1.5015   -2.6791 H   0  0  0  1  0  0  0  0  0  0  0  0
   -1.8042   -0.4441   -2.2238 N   0  0  0  1  0  0  0  0  0  0  0  0
   -1.1116   -1.5810   -2.3066 C   0  0  0  1  0  0  0  0  0  0  0  0
    2.0869   -0.6156   -3.8005 N   0  0  0  1  0  0  0  0  0  0  0  0
    2.5223    0.2098   -4.0997 H   0  0  0  1  0  0  0  0  0  0  0  0
    2.5608   -1.4709   -3.8654 H   0  0  0  1  0  0  0  0  0  0  0  0
   -2.5978   -4.6370   -3.2031 O   0  0  0  1  0  0  0  0  0  0  0  0
   -2.7356   -5.5582   -3.4355 H   0  0  0  1  0  0  0  0  0  0  0  0
   -2.8563   -6.6211   -1.7429 O   0  0  0  1  0  0  0  0  0  0  0  0
   -3.2210   -8.1812   -1.3924 P   0  0  0  1  0  0  0  0  0  0  0  0
   -4.0662   -8.1694   -0.1775 O   0  0  0  1  0  0  0  0  0  0  0  0
   -3.6408   -8.9983   -2.7267 O   0  5  0  1  0  0  0  0  0  0  0  0
   -1.7592   -8.6565   -0.8807 O   0  5  0  1  0  0  0  0  0  0  0  0
    0.8544  -10.3254   -6.1188 C   0  0  0  1  0  0  0  0  0  0  0  0
    1.2565   -9.8351   -6.9807 H   0  0  0  1  0  0  0  0  0  0  0  0
    1.2880  -11.7790   -6.1659 C   0  0  0  1  0  0  0  0  0  0  0  0
    2.4493  -12.0898   -6.4175 O   0  0  0  1  0  0  0  0  0  0  0  0
    0.3315  -12.6783   -5.9182 N   0  0  0  1  0  0  0  0  0  0  0  0
   -0.5718  -12.3621   -5.7073 H   0  0  0  1  0  0  0  0  0  0  0  0
    0.5844  -14.1111   -5.9507 C   0  0  0  1  0  0  0  0  0  0  0  0
    1.5869  -14.2899   -5.6220 H   0  0  0  1  0  0  0  0  0  0  0  0
    0.4716  -14.4564   -6.9571 H   0  0  0  1  0  0  0  0  0  0  0  0
   -0.3671  -14.8914   -5.0585 C   0  0  0  1  0  0  0  0  0  0  0  0
   -0.4259  -14.3863   -4.1171 H   0  0  0  1  0  0  0  0  0  0  0  0
    0.0427  -15.8692   -4.9143 H   0  0  0  1  0  0  0  0  0  0  0  0
   -1.7771  -15.0495   -5.5934 C   0  0  0  1  0  0  0  0  0  0  0  0
   -2.4767  -16.0103   -5.2754 O   0  0  0  1  0  0  0  0  0  0  0  0
   -2.1978  -14.0821   -6.4237 N   0  0  0  1  0  0  0  0  0  0  0  0
   -1.5725  -13.3591   -6.6399 H   0  0  0  1  0  0  0  0  0  0  0  0
   -3.5232  -14.0386   -7.0232 C   0  0  0  1  0  0  0  0  0  0  0  0
   -3.9149  -15.0336   -7.0615 H   0  0  0  1  0  0  0  0  0  0  0  0
   -3.4376  -13.6499   -8.0164 H   0  0  0  1  0  0  0  0  0  0  0  0
   -4.4836  -13.1696   -6.2440 C   0  0  0  1  0  0  0  0  0  0  0  0
   -4.0003  -12.2355   -6.0474 H   0  0  0  1  0  0  0  0  0  0  0  0
   -4.6997  -13.6617   -5.3188 H   0  0  0  1  0  0  0  0  0  0  0  0
   -6.0527  -12.8245   -7.0747 S   0  0  0  1  0  0  0  0  0  0  0  0
   -5.6905  -11.4448   -8.1513 C   0  0  0  1  0  0  0  0  0  0  0  0
   -4.6040  -10.9464   -8.2718 O   0  0  0  1  0  0  0  0  0  0  0  0
   -6.9181  -10.7868   -8.7323 C   0  0  0  1  0  0  0  0  0  0  0  0
   -6.9849   -9.7954   -8.3354 H   0  0  0  1  0  0  0  0  0  0  0  0
   -7.7748  -11.3515   -8.4287 H   0  0  0  1  0  0  0  0  0  0  0  0
   -6.9264  -10.6923  -10.2397 C   0  0  0  1  0  0  0  0  0  0  0  0
   -7.5555  -11.4986  -10.9049 O   0  0  0  1  0  0  0  0  0  0  0  0
   -6.1714   -9.6237  -10.8840 C   0  0  0  1  0  0  0  0  0  0  0  0
   -6.5956   -8.6756  -10.9371 H   0  0  0  1  0  0  0  0  0  0  0  0
   -4.9606   -9.8119  -11.4073 C   0  0  0  1  0  0  0  0  0  0  0  0
   -4.5967  -10.7822  -11.3197 H   0  0  0  1  0  0  0  0  0  0  0  0
   -4.0474   -8.8702  -12.0926 C   0  0  0  1  0  0  0  0  0  0  0  0
   -2.8200   -9.2744  -12.5827 C   0  0  0  1  0  0  0  0  0  0  0  0
   -2.5151  -10.2624  -12.4708 H   0  0  0  1  0  0  0  0  0  0  0  0
   -1.9954   -8.3628  -13.2235 C   0  0  0  1  0  0  0  0  0  0  0  0
   -2.3982   -7.0486  -13.3675 C   0  0  0  1  0  0  0  0  0  0  0  0
   -3.6293   -6.6433  -12.8759 C   0  0  0  1  0  0  0  0  0  0  0  0
   -3.9342   -5.6553  -12.9878 H   0  0  0  1  0  0  0  0  0  0  0  0
   -4.4516   -7.5521  -12.2370 C   0  0  0  1  0  0  0  0  0  0  0  0
   -5.3735   -7.2471  -11.8646 H   0  0  0  1  0  0  0  0  0  0  0  0
   -1.6147   -6.1245  -13.9854 O   0  5  0  1  0  0  0  0  0  0  0  0
   -0.7906   -8.6934  -13.7277 O   0  0  0  1  0  0  0  0  0  0  0  0
   -0.3597  -10.0455  -13.4471 C   0  0  0  1  0  0  0  0  0  0  0  0
    0.0946  -10.0819  -12.4790 H   0  0  0  1  0  0  0  0  0  0  0  0
    0.3503  -10.3538  -14.1858 H   0  0  0  1  0  0  0  0  0  0  0  0
   -1.2052  -10.7009  -13.4689 H   0  0  0  1  0  0  0  0  0  0  0  0
   -0.5581  -10.1975   -6.1275 O   0  0  0  1  0  0  0  0  0  0  0  0
   -0.9451  -10.9495   -6.5817 H   0  0  0  1  0  0  0  0  0  0  0  0
  1  2  1  0  0  0  0
  1  3  1  0  0  0  0
  1  4  1  0  0  0  0
  1  5  1  0  0  0  0
  5  6  1  0  0  0  0
  5 10  1  0  0  0  0
  5 55  1  0  0  0  0
  6  7  1  0  0  0  0
  6  8  1  0  0  0  0
  6  9  1  0  0  0  0
 10 11  1  0  0  0  0
 10 12  1  0  0  0  0
 10 13  1  0  0  0  0
 13 14  1  0  0  0  0
 14 15  2  0  0  0  0
 14 16  1  0  0  0  0
 14 17  1  0  0  0  0
 17 18  1  0  0  0  0
 18 19  1  0  0  0  0
 18 20  2  0  0  0  0
 18 21  1  0  0  0  0
 21 22  1  0  0  0  0
 22 23  1  0  0  0  0
 22 24  1  0  0  0  0
 22 25  1  0  0  0  0
 25 26  1  0  0  0  0
 25 27  1  0  0  0  0
 25 33  1  0  0  0  0
 27 28  1  0  0  0  0
 27 29  1  0  0  0  0
 27 50  1  0  0  0  0
 29 30  1  0  0  0  0
 29 31  1  0  0  0  0
 29 48  1  0  0  0  0
 31 32  1  0  0  0  0
 31 33  1  0  0  0  0
 31 34  1  0  0  0  0
 34 35  1  0  0  0  0
 34 44  1  0  0  0  0
 35 36  1  0  0  0  0
 35 37  2  0  0  0  0
 37 38  1  0  0  0  0
 38 39  1  0  0  0  0
 38 44  2  0  0  0  0
 39 40  2  0  0  0  0
 39 45  1  0  0  0  0
 40 41  1  0  0  0  0
 41 42  1  0  0  0  0
 41 43  2  0  0  0  0
 43 44  1  0  0  0  0
 45 46  1  0  0  0  0
 45 47  1  0  0  0  0
 48 49  1  0  0  0  0
 50 51  1  0  0  0  0
 51 52  2  0  0  0  0
 51 53  1  0  0  0  0
 51 54  1  0  0  0  0
 55 56  1  0  0  0  0
 55 57  1  0  0  0  0
 55104  1  0  0  0  0
 57 58  2  0  0  0  0
 57 59  1  0  0  0  0
 59 60  1  0  0  0  0
 59 61  1  0  0  0  0
 61 62  1  0  0  0  0
 61 63  1  0  0  0  0
 61 64  1  0  0  0  0
 64 65  1  0  0  0  0
 64 66  1  0  0  0  0
 64 67  1  0  0  0  0
 67 68  2  0  0  0  0
 67 69  1  0  0  0  0
 69 70  1  0  0  0  0
 69 71  1  0  0  0  0
 71 72  1  0  0  0  0
 71 73  1  0  0  0  0
 71 74  1  0  0  0  0
 74 75  1  0  0  0  0
 74 76  1  0  0  0  0
 74 77  1  0  0  0  0
 77 78  1  0  0  0  0
 78 79  2  0  0  0  0
 78 80  1  0  0  0  0
 80 81  1  0  0  0  0
 80 82  1  0  0  0  0
 80 83  1  0  0  0  0
 83 84  2  0  0  0  0
 83 85  1  0  0  0  0
 85 86  1  0  0  0  0
 85 87  2  0  0  0  0
 87 88  1  0  0  0  0
 87 89  1  0  0  0  0
 89 90  2  0  0  0  0
 89 96  1  0  0  0  0
 90 91  1  0  0  0  0
 90 92  1  0  0  0  0
 92 93  2  0  0  0  0
 92 99  1  0  0  0  0
 93 94  1  0  0  0  0
 93 98  1  0  0  0  0
 94 95  1  0  0  0  0
 94 96  2  0  0  0  0
 96 97  1  0  0  0  0
 99100  1  0  0  0  0
100101  1  0  0  0  0
100102  1  0  0  0  0
100103  1  0  0  0  0
104105  1  0  0  0  0
M  BCL ATM C_TeTeTeTe H_S H_S H_S C_TeTeTeTe C_TeTeTeTe H_S H_S H_S C_TeTeTeTe H_S H_S O_Tr2TrTrPi2 P_TeTeTeTePi O_Tr2Tr2TrPi O_Te2Te2Te2Te O_Tr2TrTrPi2 P_TeTeTeTePi O_Te2Te2TeTe O_Tr2Tr2TrPi O_Tr2TrTrPi2 C_TeTeTeTe H_S H_S C_TeTeTeTe H_S C_TeTeTeTe H_S C_TeTeTeTe H_S C_TeTeTeTe H_S O_Te2Te2TeTe N_TrTrTrPi2 C_TrTrTrPi H_S N_Tr2TrTrPi C_TrTrTrPi C_TrTrTrPi N_Tr2TrTrPi C_TrTrTrPi H_S N_Tr2TrTrPi C_TrTrTrPi N_TrTrTrPi2 H_S H_S O_Te2Te2TeTe H_S O_Tr2TrTrPi2 P_TeTeTeTePi O_Tr2Tr2TrPi O_Te2Te2Te2Te O_Te2Te2Te2Te C_TeTeTeTe H_S C_TrTrTrPi O_Tr2Tr2TrPi N_TrTrTrPi2 H_S C_TeTeTeTe H_S H_S C_TeTeTeTe H_S H_S C_TrTrTrPi O_Tr2Tr2TrPi N_TrTrTrPi2 H_S C_TeTeTeTe H_S H_S C_TeTeTeTe H_S H_S S_Te2Te2TeTe C_TrTrTrPi O_Tr2Tr2TrPi C_TeTeTeTe H_S H_S C_TrTrTrPi O_Tr2Tr2TrPi C_TrTrTrPi H_S C_TrTrTrPi H_S C_TrTrTrPi C_TrTrTrPi H_S C_TrTrTrPi C_TrTrTrPi C_TrTrTrPi H_S C_TrTrTrPi H_S O_Te2Te2Te2Te O_Tr2TrTrPi2 C_TeTeTeTe H_S H_S H_S O_Te2Te2TeTe H_S
M  BCL BND NonConjugatedSingleBond NonConjugatedSingleBond NonConjugatedSingleBond NonConjugatedSingleBond NonConjugatedSingleBond NonConjugatedSingleBond NonConjugatedSingleBond NonConjugatedSingleBond NonConjugatedSingleBond NonConjugatedSingleBond NonConjugatedSingleBond NonConjugatedSingleBond NonConjugatedSingleBond ConjugatedSingleBond ConjugatedDoubleBond ConjugatedSingleBond ConjugatedSingleBond ConjugatedSingleBond ConjugatedSingleBond ConjugatedDoubleBond ConjugatedSingleBond NonConjugatedSingleBond NonConjugatedSingleBond NonConjugatedSingleBond NonConjugatedSingleBond NonConjugatedSingleBond NonConjugatedSingleBondInRing NonConjugatedSingleBondInRing NonConjugatedSingleBond NonConjugatedSingleBondInRing NonConjugatedSingleBond NonConjugatedSingleBond NonConjugatedSingleBondInRing NonConjugatedSingleBond NonConjugatedSingleBond NonConjugatedSingleBondInRing NonConjugatedSingleBond AromaticSingleBond AromaticSingleBond NonConjugatedSingleBond AromaticDoubleBond AromaticSingleBond AromaticSingleBond AromaticDoubleBond AromaticDoubleBond ConjugatedSingleBond AromaticSingleBond NonConjugatedSingleBond AromaticDoubleBond AromaticSingleBond NonConjugatedSingleBond NonConjugatedSingleBond NonConjugatedSingleBond ConjugatedSingleBond ConjugatedDoubleBond ConjugatedSingleBond ConjugatedSingleBond NonConjugatedSingleBond NonConjugatedSingleBond NonConjugatedSingleBond ConjugatedDoubleBond AmideSingleBond NonConjugatedSingleBond NonConjugatedSingleBond NonConjugatedSingleBond NonConjugatedSingleBond NonConjugatedSingleBond NonConjugatedSingleBond NonConjugatedSingleBond NonConjugatedSingleBond ConjugatedDoubleBond AmideSingleBond NonConjugatedSingleBond NonConjugatedSingleBond NonConjugatedSingleBond NonConjugatedSingleBond NonConjugatedSingleBond NonConjugatedSingleBond NonConjugatedSingleBond NonConjugatedSingleBond ConjugatedSingleBond ConjugatedDoubleBond NonConjugatedSingleBond NonConjugatedSingleBond NonConjugatedSingleBond NonConjugatedSingleBond ConjugatedDoubleBond ConjugatedSingleBond NonConjugatedSingleBond ConjugatedDoubleBond NonConjugatedSingleBond ConjugatedSingleBond AromaticDoubleBond AromaticSingleBond NonConjugatedSingleBond AromaticSingleBond AromaticDoubleBond ConjugatedSingleBond AromaticSingleBond ConjugatedSingleBond NonConjugatedSingleBond AromaticDoubleBond NonConjugatedSingleBond NonConjugatedSingleBond NonConjugatedSingleBond NonConjugatedSingleBond NonConjugatedSingleBond NonConjugatedSingleBond
M  BCL CHI  14   R  18   S  25   R  27   R  29   R  31   S  55   R
M  BCL DBI - - - - - - - - - - - E - - -
M  END
> <ConfClashScore>
0.000194969 

> <ConfOneFourInteractionScore>
-0.971426 

> <ConfScore>
0.266797 

> <ConfScorePBest>
0.00778548 

> <ConfTolerance>
3.17388 

$$$$
L03.****
  PyMOL2.5          3D                             0

105108  0  0  0  0  0  0  0  0999 V2000
    1.7375   -4.2081    1.6227 C   0  0  0  1  0  0  0  0  0  0  0  0
    0.8146   -4.1266    1.0874 H   0  0  0  1  0  0  0  0  0  0  0  0
    2.5550   -4.0649    0.9474 H   0  0  0  1  0  0  0  0  0  0  0  0
    1.7723   -3.4621    2.3889 H   0  0  0  1  0  0  0  0  0  0  0  0
    1.8388   -5.5994    2.2594 C   0  0  0  1  0  0  0  0  0  0  0  0
    3.1476   -5.7467    3.0446 C   0  0  0  1  0  0  0  0  0  0  0  0
    3.2911   -6.7733    3.3102 H   0  0  0  1  0  0  0  0  0  0  0  0
    3.0991   -5.1522    3.9329 H   0  0  0  1  0  0  0  0  0  0  0  0
    3.9658   -5.4176    2.4387 H   0  0  0  1  0  0  0  0  0  0  0  0
    1.8023   -6.6115    1.1478 C   0  0  0  1  0  0  0  0  0  0  0  0
    1.9960   -7.5922    1.5295 H   0  0  0  1  0  0  0  0  0  0  0  0
    2.5274   -6.3699    0.3991 H   0  0  0  1  0  0  0  0  0  0  0  0
    0.4657   -6.5388    0.5982 O   0  0  0  1  0  0  0  0  0  0  0  0
    0.1174   -6.9632   -0.8765 P   0  0  0  1  0  0  0  0  0  0  0  0
    1.0187   -5.9092   -1.3932 O   0  0  0  1  0  0  0  0  0  0  0  0
    0.2526   -8.2192    0.1378 O   0  5  0  1  0  0  0  0  0  0  0  0
   -0.2379   -7.3962   -2.3823 O   0  0  0  1  0  0  0  0  0  0  0  0
   -0.9176   -6.7427   -3.6430 P   0  0  0  1  0  0  0  0  0  0  0  0
   -1.4866   -7.8226   -4.5233 O   0  0  0  0  0  0  0  0  0  0  0  0
    0.0987   -5.8327   -4.2353 O   0  0  0  1  0  0  0  0  0  0  0  0
   -2.1188   -5.9615   -3.0009 O   0  0  0  1  0  0  0  0  0  0  0  0
   -3.0583   -6.5701   -2.0774 C   0  0  0  1  0  0  0  0  0  0  0  0
   -2.5441   -7.2041   -1.3855 H   0  0  0  1  0  0  0  0  0  0  0  0
   -3.7888   -7.1418   -2.6107 H   0  0  0  1  0  0  0  0  0  0  0  0
   -3.7163   -5.4212   -1.3503 C   0  0  0  1  0  0  0  0  0  0  0  0
   -4.3983   -5.8043   -0.6203 H   0  0  0  1  0  0  0  0  0  0  0  0
   -4.4521   -4.5542   -2.3289 C   0  0  0  1  0  0  0  0  0  0  0  0
   -5.4903   -4.5179   -2.0723 H   0  0  0  1  0  0  0  0  0  0  0  0
   -3.8636   -3.1764   -2.2628 C   0  0  0  1  0  0  0  0  0  0  0  0
   -4.6167   -2.4733   -1.9741 H   0  0  0  1  0  0  0  0  0  0  0  0
   -2.7631   -3.1912   -1.2428 C   0  0  0  1  0  0  0  0  0  0  0  0
   -2.9838   -2.4953   -0.4606 H   0  0  0  1  0  0  0  0  0  0  0  0
   -2.6724   -4.5789   -0.6791 O   0  0  0  1  0  0  0  0  0  0  0  0
   -1.4929   -2.8280   -1.8767 N   0  0  0  1  0  0  0  0  0  0  0  0
   -0.4457   -3.6677   -2.1702 C   0  0  0  1  0  0  0  0  0  0  0  0
   -0.4658   -4.6908   -1.9848 H   0  0  0  1  0  0  0  0  0  0  0  0
    0.5855   -3.0515   -2.7089 N   0  0  0  1  0  0  0  0  0  0  0  0
    0.1792   -1.7273   -2.7950 C   0  0  0  1  0  0  0  0  0  0  0  0
    0.8054   -0.5668   -3.2871 C   0  0  0  1  0  0  0  0  0  0  0  0
    0.1172    0.5925   -3.2410 N   0  0  0  1  0  0  0  0  0  0  0  0
   -1.1279    0.5716   -2.7380 C   0  0  0  1  0  0  0  0  0  0  0  0
   -1.6181    1.4888   -2.7335 H   0  0  0  1  0  0  0  0  0  0  0  0
   -1.8285   -0.4463   -2.2443 N   0  0  0  1  0  0  0  0  0  0  0  0
   -1.1075   -1.5807   -2.2975 C   0  0  0  1  0  0  0  0  0  0  0  0
    2.0950   -0.6139   -3.8054 N   0  0  0  1  0  0  0  0  0  0  0  0
    2.6616    0.1854   -3.7831 H   0  0  0  1  0  0  0  0  0  0  0  0
    2.4373   -1.4464   -4.1930 H   0  0  0  1  0  0  0  0  0  0  0  0
   -3.3362   -2.8129   -3.5395 O   0  0  0  1  0  0  0  0  0  0  0  0
   -3.8651   -3.2167   -4.2314 H   0  0  0  1  0  0  0  0  0  0  0  0
   -4.3036   -5.0866   -3.6630 O   0  0  0  1  0  0  0  0  0  0  0  0
   -5.2793   -6.2531   -4.2769 P   0  0  0  1  0  0  0  0  0  0  0  0
   -6.5314   -6.3764   -3.4976 O   0  0  0  1  0  0  0  0  0  0  0  0
   -5.7248   -5.6981   -5.7322 O   0  5  0  1  0  0  0  0  0  0  0  0
   -4.4751   -7.6521   -4.4204 O   0  5  0  1  0  0  0  0  0  0  0  0
    0.6289   -5.8205    3.1749 C   0  0  0  1  0  0  0  0  0  0  0  0
    0.8733   -5.4235    4.1380 H   0  0  0  1  0  0  0  0  0  0  0  0
   -0.5850   -5.0716    2.6568 C   0  0  0  1  0  0  0  0  0  0  0  0
   -1.2595   -5.5210    1.7312 O   0  0  0  1  0  0  0  0  0  0  0  0
   -0.8000   -3.8743    3.2247 N   0  0  0  1  0  0  0  0  0  0  0  0
   -0.1105   -3.4981    3.8107 H   0  0  0  1  0  0  0  0  0  0  0  0
   -2.0215   -3.1157    3.0004 C   0  0  0  1  0  0  0  0  0  0  0  0
   -2.2927   -3.1997    1.9688 H   0  0  0  1  0  0  0  0  0  0  0  0
   -1.8361   -2.0891    3.2385 H   0  0  0  1  0  0  0  0  0  0  0  0
   -3.1735   -3.6085    3.8458 C   0  0  0  1  0  0  0  0  0  0  0  0
   -2.8824   -3.5124    4.8709 H   0  0  0  1  0  0  0  0  0  0  0  0
   -3.3228   -4.6420    3.6122 H   0  0  0  1  0  0  0  0  0  0  0  0
   -4.5029   -2.9132    3.6869 C   0  0  0  1  0  0  0  0  0  0  0  0
   -5.0411   -2.8088    2.5858 O   0  0  0  1  0  0  0  0  0  0  0  0
   -5.0448   -2.4263    4.8145 N   0  0  0  1  0  0  0  0  0  0  0  0
   -4.5847   -2.6083    5.6604 H   0  0  0  1  0  0  0  0  0  0  0  0
   -6.2719   -1.6453    4.8606 C   0  0  0  1  0  0  0  0  0  0  0  0
   -6.7278   -1.7606    5.8217 H   0  0  0  1  0  0  0  0  0  0  0  0
   -6.9418   -1.9953    4.1032 H   0  0  0  1  0  0  0  0  0  0  0  0
   -5.9715   -0.1859    4.6239 C   0  0  0  1  0  0  0  0  0  0  0  0
   -5.0837   -0.1335    4.0291 H   0  0  0  1  0  0  0  0  0  0  0  0
   -5.7893    0.2630    5.5780 H   0  0  0  1  0  0  0  0  0  0  0  0
   -7.2369    0.7985    3.7955 S   0  0  0  1  0  0  0  0  0  0  0  0
   -7.0294    0.3248    2.0946 C   0  0  0  1  0  0  0  0  0  0  0  0
   -6.1570   -0.4378    1.7229 O   0  0  0  1  0  0  0  0  0  0  0  0
   -8.0156    0.9356    1.1293 C   0  0  0  1  0  0  0  0  0  0  0  0
   -8.7266    1.5028    1.6929 H   0  0  0  1  0  0  0  0  0  0  0  0
   -8.5175    0.1412    0.6175 H   0  0  0  1  0  0  0  0  0  0  0  0
   -7.4006    1.8457    0.0965 C   0  0  0  1  0  0  0  0  0  0  0  0
   -6.4590    1.4658   -0.5769 O   0  0  0  1  0  0  0  0  0  0  0  0
   -7.9513    3.1857   -0.0819 C   0  0  0  1  0  0  0  0  0  0  0  0
   -7.3274    3.8793   -0.5416 H   0  0  0  1  0  0  0  0  0  0  0  0
   -9.1572    3.6272    0.2735 C   0  0  0  1  0  0  0  0  0  0  0  0
   -9.7954    2.9478    0.7347 H   0  0  0  1  0  0  0  0  0  0  0  0
   -9.6663    5.0016    0.0679 C   0  0  0  1  0  0  0  0  0  0  0  0
   -8.8531    6.0155   -0.4020 C   0  0  0  1  0  0  0  0  0  0  0  0
   -7.8540    5.8232   -0.6174 H   0  0  0  1  0  0  0  0  0  0  0  0
   -9.3693    7.2887   -0.5862 C   0  0  0  1  0  0  0  0  0  0  0  0
  -10.6957    7.5457   -0.2949 C   0  0  0  1  0  0  0  0  0  0  0  0
  -11.5112    6.5287    0.1764 C   0  0  0  1  0  0  0  0  0  0  0  0
  -12.5103    6.7210    0.3918 H   0  0  0  1  0  0  0  0  0  0  0  0
  -10.9967    5.2591    0.3601 C   0  0  0  1  0  0  0  0  0  0  0  0
  -11.6075    4.4971    0.7176 H   0  0  0  1  0  0  0  0  0  0  0  0
  -11.0887    8.8299   -0.5091 O   0  5  0  1  0  0  0  0  0  0  0  0
   -8.6769    8.3509   -1.0417 O   0  0  0  1  0  0  0  0  0  0  0  0
   -7.2981    8.0809   -1.3860 C   0  0  0  1  0  0  0  0  0  0  0  0
   -6.8935    7.3631   -0.7035 H   0  0  0  1  0  0  0  0  0  0  0  0
   -6.7321    8.9870   -1.3273 H   0  0  0  1  0  0  0  0  0  0  0  0
   -7.2489    7.6929   -2.3820 H   0  0  0  1  0  0  0  0  0  0  0  0
    0.3761   -7.2145    3.2961 O   0  0  0  1  0  0  0  0  0  0  0  0
   -0.1733   -7.3747    4.0668 H   0  0  0  1  0  0  0  0  0  0  0  0
  1  2  1  0  0  0  0
  1  3  1  0  0  0  0
  1  4  1  0  0  0  0
  1  5  1  0  0  0  0
  5  6  1  0  0  0  0
  5 10  1  0  0  0  0
  5 55  1  0  0  0  0
  6  7  1  0  0  0  0
  6  8  1  0  0  0  0
  6  9  1  0  0  0  0
 10 11  1  0  0  0  0
 10 12  1  0  0  0  0
 10 13  1  0  0  0  0
 13 14  1  0  0  0  0
 14 15  2  0  0  0  0
 14 16  1  0  0  0  0
 14 17  1  0  0  0  0
 17 18  1  0  0  0  0
 18 19  1  0  0  0  0
 18 20  2  0  0  0  0
 18 21  1  0  0  0  0
 21 22  1  0  0  0  0
 22 23  1  0  0  0  0
 22 24  1  0  0  0  0
 22 25  1  0  0  0  0
 25 26  1  0  0  0  0
 25 27  1  0  0  0  0
 25 33  1  0  0  0  0
 27 28  1  0  0  0  0
 27 29  1  0  0  0  0
 27 50  1  0  0  0  0
 29 30  1  0  0  0  0
 29 31  1  0  0  0  0
 29 48  1  0  0  0  0
 31 32  1  0  0  0  0
 31 33  1  0  0  0  0
 31 34  1  0  0  0  0
 34 35  1  0  0  0  0
 34 44  1  0  0  0  0
 35 36  1  0  0  0  0
 35 37  2  0  0  0  0
 37 38  1  0  0  0  0
 38 39  1  0  0  0  0
 38 44  2  0  0  0  0
 39 40  2  0  0  0  0
 39 45  1  0  0  0  0
 40 41  1  0  0  0  0
 41 42  1  0  0  0  0
 41 43  2  0  0  0  0
 43 44  1  0  0  0  0
 45 46  1  0  0  0  0
 45 47  1  0  0  0  0
 48 49  1  0  0  0  0
 50 51  1  0  0  0  0
 51 52  2  0  0  0  0
 51 53  1  0  0  0  0
 51 54  1  0  0  0  0
 55 56  1  0  0  0  0
 55 57  1  0  0  0  0
 55104  1  0  0  0  0
 57 58  2  0  0  0  0
 57 59  1  0  0  0  0
 59 60  1  0  0  0  0
 59 61  1  0  0  0  0
 61 62  1  0  0  0  0
 61 63  1  0  0  0  0
 61 64  1  0  0  0  0
 64 65  1  0  0  0  0
 64 66  1  0  0  0  0
 64 67  1  0  0  0  0
 67 68  2  0  0  0  0
 67 69  1  0  0  0  0
 69 70  1  0  0  0  0
 69 71  1  0  0  0  0
 71 72  1  0  0  0  0
 71 73  1  0  0  0  0
 71 74  1  0  0  0  0
 74 75  1  0  0  0  0
 74 76  1  0  0  0  0
 74 77  1  0  0  0  0
 77 78  1  0  0  0  0
 78 79  2  0  0  0  0
 78 80  1  0  0  0  0
 80 81  1  0  0  0  0
 80 82  1  0  0  0  0
 80 83  1  0  0  0  0
 83 84  2  0  0  0  0
 83 85  1  0  0  0  0
 85 86  1  0  0  0  0
 85 87  2  0  0  0  0
 87 88  1  0  0  0  0
 87 89  1  0  0  0  0
 89 90  2  0  0  0  0
 89 96  1  0  0  0  0
 90 91  1  0  0  0  0
 90 92  1  0  0  0  0
 92 93  2  0  0  0  0
 92 99  1  0  0  0  0
 93 94  1  0  0  0  0
 93 98  1  0  0  0  0
 94 95  1  0  0  0  0
 94 96  2  0  0  0  0
 96 97  1  0  0  0  0
 99100  1  0  0  0  0
100101  1  0  0  0  0
100102  1  0  0  0  0
100103  1  0  0  0  0
104105  1  0  0  0  0
M  BCL ATM C_TeTeTeTe H_S H_S H_S C_TeTeTeTe C_TeTeTeTe H_S H_S H_S C_TeTeTeTe H_S H_S O_Tr2TrTrPi2 P_TeTeTeTePi O_Tr2Tr2TrPi O_Te2Te2Te2Te O_Tr2TrTrPi2 P_TeTeTeTePi O_Te2Te2TeTe O_Tr2Tr2TrPi O_Tr2TrTrPi2 C_TeTeTeTe H_S H_S C_TeTeTeTe H_S C_TeTeTeTe H_S C_TeTeTeTe H_S C_TeTeTeTe H_S O_Te2Te2TeTe N_TrTrTrPi2 C_TrTrTrPi H_S N_Tr2TrTrPi C_TrTrTrPi C_TrTrTrPi N_Tr2TrTrPi C_TrTrTrPi H_S N_Tr2TrTrPi C_TrTrTrPi N_TrTrTrPi2 H_S H_S O_Te2Te2TeTe H_S O_Tr2TrTrPi2 P_TeTeTeTePi O_Tr2Tr2TrPi O_Te2Te2Te2Te O_Te2Te2Te2Te C_TeTeTeTe H_S C_TrTrTrPi O_Tr2Tr2TrPi N_TrTrTrPi2 H_S C_TeTeTeTe H_S H_S C_TeTeTeTe H_S H_S C_TrTrTrPi O_Tr2Tr2TrPi N_TrTrTrPi2 H_S C_TeTeTeTe H_S H_S C_TeTeTeTe H_S H_S S_Te2Te2TeTe C_TrTrTrPi O_Tr2Tr2TrPi C_TeTeTeTe H_S H_S C_TrTrTrPi O_Tr2Tr2TrPi C_TrTrTrPi H_S C_TrTrTrPi H_S C_TrTrTrPi C_TrTrTrPi H_S C_TrTrTrPi C_TrTrTrPi C_TrTrTrPi H_S C_TrTrTrPi H_S O_Te2Te2Te2Te O_Tr2TrTrPi2 C_TeTeTeTe H_S H_S H_S O_Te2Te2TeTe H_S
M  BCL BND NonConjugatedSingleBond NonConjugatedSingleBond NonConjugatedSingleBond NonConjugatedSingleBond NonConjugatedSingleBond NonConjugatedSingleBond NonConjugatedSingleBond NonConjugatedSingleBond NonConjugatedSingleBond NonConjugatedSingleBond NonConjugatedSingleBond NonConjugatedSingleBond NonConjugatedSingleBond ConjugatedSingleBond ConjugatedDoubleBond ConjugatedSingleBond ConjugatedSingleBond ConjugatedSingleBond ConjugatedSingleBond ConjugatedDoubleBond ConjugatedSingleBond NonConjugatedSingleBond NonConjugatedSingleBond NonConjugatedSingleBond NonConjugatedSingleBond NonConjugatedSingleBond NonConjugatedSingleBondInRing NonConjugatedSingleBondInRing NonConjugatedSingleBond NonConjugatedSingleBondInRing NonConjugatedSingleBond NonConjugatedSingleBond NonConjugatedSingleBondInRing NonConjugatedSingleBond NonConjugatedSingleBond NonConjugatedSingleBondInRing NonConjugatedSingleBond AromaticSingleBond AromaticSingleBond NonConjugatedSingleBond AromaticDoubleBond AromaticSingleBond AromaticSingleBond AromaticDoubleBond AromaticDoubleBond ConjugatedSingleBond AromaticSingleBond NonConjugatedSingleBond AromaticDoubleBond AromaticSingleBond NonConjugatedSingleBond NonConjugatedSingleBond NonConjugatedSingleBond ConjugatedSingleBond ConjugatedDoubleBond ConjugatedSingleBond ConjugatedSingleBond NonConjugatedSingleBond NonConjugatedSingleBond NonConjugatedSingleBond ConjugatedDoubleBond AmideSingleBond NonConjugatedSingleBond NonConjugatedSingleBond NonConjugatedSingleBond NonConjugatedSingleBond NonConjugatedSingleBond NonConjugatedSingleBond NonConjugatedSingleBond NonConjugatedSingleBond ConjugatedDoubleBond AmideSingleBond NonConjugatedSingleBond NonConjugatedSingleBond NonConjugatedSingleBond NonConjugatedSingleBond NonConjugatedSingleBond NonConjugatedSingleBond NonConjugatedSingleBond NonConjugatedSingleBond ConjugatedSingleBond ConjugatedDoubleBond NonConjugatedSingleBond NonConjugatedSingleBond NonConjugatedSingleBond NonConjugatedSingleBond ConjugatedDoubleBond ConjugatedSingleBond NonConjugatedSingleBond ConjugatedDoubleBond NonConjugatedSingleBond ConjugatedSingleBond AromaticDoubleBond AromaticSingleBond NonConjugatedSingleBond AromaticSingleBond AromaticDoubleBond ConjugatedSingleBond AromaticSingleBond ConjugatedSingleBond NonConjugatedSingleBond AromaticDoubleBond NonConjugatedSingleBond NonConjugatedSingleBond NonConjugatedSingleBond NonConjugatedSingleBond NonConjugatedSingleBond NonConjugatedSingleBond
M  BCL CHI  14   R  18   S  25   R  27   R  29   R  31   S  55   R
M  BCL DBI - - - - - - - - - - - E - - -
M  END
> <ConfClashScore>
0 

> <ConfOneFourInteractionScore>
-0.975958 

> <ConfScore>
0.281297 

> <ConfScorePBest>
0.00768248 

> <ConfTolerance>
3.35442 

$$$$
L03.****
  PyMOL2.5          3D                             0

105108  0  0  0  0  0  0  0  0999 V2000
   -5.3285   -1.3691   -5.9242 C   0  0  0  1  0  0  0  0  0  0  0  0
   -4.3062   -1.6154   -5.7266 H   0  0  0  1  0  0  0  0  0  0  0  0
   -5.5917   -1.7013   -6.9067 H   0  0  0  1  0  0  0  0  0  0  0  0
   -5.9568   -1.8504   -5.2041 H   0  0  0  1  0  0  0  0  0  0  0  0
   -5.5161    0.1499   -5.8314 C   0  0  0  1  0  0  0  0  0  0  0  0
   -4.1409    0.8219   -5.7197 C   0  0  0  1  0  0  0  0  0  0  0  0
   -4.1777    1.7888   -6.1766 H   0  0  0  1  0  0  0  0  0  0  0  0
   -3.4089    0.2204   -6.2169 H   0  0  0  1  0  0  0  0  0  0  0  0
   -3.8774    0.9251   -4.6878 H   0  0  0  1  0  0  0  0  0  0  0  0
   -6.2941    0.4590   -4.5948 C   0  0  0  1  0  0  0  0  0  0  0  0
   -5.9914   -0.1922   -3.8016 H   0  0  0  1  0  0  0  0  0  0  0  0
   -7.3401    0.3324   -4.7812 H   0  0  0  1  0  0  0  0  0  0  0  0
   -6.0197    1.8367   -4.2347 O   0  0  0  1  0  0  0  0  0  0  0  0
   -6.0905    2.2477   -2.7174 P   0  0  0  1  0  0  0  0  0  0  0  0
   -7.1410    1.2303   -2.4904 O   0  0  0  1  0  0  0  0  0  0  0  0
   -4.5847    2.2561   -3.3149 O   0  5  0  1  0  0  0  0  0  0  0  0
   -6.1631    2.6672   -1.1676 O   0  0  0  1  0  0  0  0  0  0  0  0
   -5.3597    2.0141    0.0773 P   0  0  0  1  0  0  0  0  0  0  0  0
   -6.1347    2.4179    1.2767 O   0  0  0  0  0  0  0  0  0  0  0  0
   -3.9128    2.3334    0.0393 O   0  0  0  1  0  0  0  0  0  0  0  0
   -5.4389    0.4648   -0.1654 O   0  0  0  1  0  0  0  0  0  0  0  0
   -4.7419   -0.2041   -1.2426 C   0  0  0  1  0  0  0  0  0  0  0  0
   -3.8251    0.3051   -1.4551 H   0  0  0  1  0  0  0  0  0  0  0  0
   -5.3544   -0.2180   -2.1199 H   0  0  0  1  0  0  0  0  0  0  0  0
   -4.4531   -1.6187   -0.7940 C   0  0  0  1  0  0  0  0  0  0  0  0
   -5.3626   -2.0863   -0.4793 H   0  0  0  1  0  0  0  0  0  0  0  0
   -3.4161   -1.6292    0.3384 C   0  0  0  1  0  0  0  0  0  0  0  0
   -3.8875   -1.5329    1.2941 H   0  0  0  1  0  0  0  0  0  0  0  0
   -2.7718   -2.9819    0.1845 C   0  0  0  1  0  0  0  0  0  0  0  0
   -3.3364   -3.7359    0.6921 H   0  0  0  1  0  0  0  0  0  0  0  0
   -2.7919   -3.2072   -1.3303 C   0  0  0  1  0  0  0  0  0  0  0  0
   -3.0024   -4.2320   -1.5549 H   0  0  0  1  0  0  0  0  0  0  0  0
   -3.8479   -2.3525   -1.8237 O   0  0  0  1  0  0  0  0  0  0  0  0
   -1.5078   -2.8311   -1.9226 N   0  0  0  1  0  0  0  0  0  0  0  0
   -0.4572   -3.6575   -2.2191 C   0  0  0  1  0  0  0  0  0  0  0  0
   -0.4788   -4.6815   -2.0386 H   0  0  0  1  0  0  0  0  0  0  0  0
    0.5735   -3.0554   -2.7469 N   0  0  0  1  0  0  0  0  0  0  0  0
    0.1780   -1.7338   -2.8016 C   0  0  0  1  0  0  0  0  0  0  0  0
    0.7970   -0.5692   -3.2627 C   0  0  0  1  0  0  0  0  0  0  0  0
    0.1469    0.5968   -3.1842 N   0  0  0  1  0  0  0  0  0  0  0  0
   -1.1022    0.5862   -2.6718 C   0  0  0  1  0  0  0  0  0  0  0  0
   -1.5818    1.5083   -2.6358 H   0  0  0  1  0  0  0  0  0  0  0  0
   -1.8019   -0.4454   -2.2069 N   0  0  0  1  0  0  0  0  0  0  0  0
   -1.1022   -1.5779   -2.2976 C   0  0  0  1  0  0  0  0  0  0  0  0
    2.0857   -0.6224   -3.8018 N   0  0  0  1  0  0  0  0  0  0  0  0
    2.3535    0.0162   -4.4952 H   0  0  0  1  0  0  0  0  0  0  0  0
    2.7212   -1.2984   -3.4864 H   0  0  0  1  0  0  0  0  0  0  0  0
   -1.4328   -2.9717    0.6835 O   0  0  0  1  0  0  0  0  0  0  0  0
   -0.9841   -2.1788    0.3807 H   0  0  0  1  0  0  0  0  0  0  0  0
   -2.4447   -0.5647    0.1681 O   0  0  0  1  0  0  0  0  0  0  0  0
   -1.6588    0.0710    1.4596 P   0  0  0  1  0  0  0  0  0  0  0  0
   -2.4423   -0.1906    2.6876 O   0  0  0  1  0  0  0  0  0  0  0  0
   -0.2607   -0.7400    1.5699 O   0  5  0  1  0  0  0  0  0  0  0  0
   -1.4649    1.6423    1.1163 O   0  5  0  1  0  0  0  0  0  0  0  0
   -6.2760    0.6701   -7.0568 C   0  0  0  1  0  0  0  0  0  0  0  0
   -7.0277   -0.0416   -7.3279 H   0  0  0  1  0  0  0  0  0  0  0  0
   -6.9464    1.9936   -6.7054 C   0  0  0  1  0  0  0  0  0  0  0  0
   -7.8571    2.0446   -5.8799 O   0  0  0  1  0  0  0  0  0  0  0  0
   -6.4333    3.0839   -7.2713 N   0  0  0  1  0  0  0  0  0  0  0  0
   -5.6895    2.9844   -7.9014 H   0  0  0  1  0  0  0  0  0  0  0  0
   -6.9388    4.4186   -6.9866 C   0  0  0  1  0  0  0  0  0  0  0  0
   -6.1106    5.0587   -6.7645 H   0  0  0  1  0  0  0  0  0  0  0  0
   -7.5872    4.3657   -6.1371 H   0  0  0  1  0  0  0  0  0  0  0  0
   -7.7081    5.0069   -8.1471 C   0  0  0  1  0  0  0  0  0  0  0  0
   -7.0397    5.0885   -8.9787 H   0  0  0  1  0  0  0  0  0  0  0  0
   -8.0427    5.9821   -7.8608 H   0  0  0  1  0  0  0  0  0  0  0  0
   -8.9177    4.2103   -8.5957 C   0  0  0  1  0  0  0  0  0  0  0  0
   -9.1980    3.1319   -8.0790 O   0  0  0  1  0  0  0  0  0  0  0  0
   -9.6423    4.7576   -9.5757 N   0  0  0  1  0  0  0  0  0  0  0  0
   -9.3164    5.5765  -10.0041 H   0  0  0  1  0  0  0  0  0  0  0  0
  -10.8987    4.1798  -10.0292 C   0  0  0  1  0  0  0  0  0  0  0  0
  -10.8757    3.1253   -9.8496 H   0  0  0  1  0  0  0  0  0  0  0  0
  -11.0004    4.3613  -11.0788 H   0  0  0  1  0  0  0  0  0  0  0  0
  -12.0987    4.7673   -9.3168 C   0  0  0  1  0  0  0  0  0  0  0  0
  -12.9868    4.3852   -9.7751 H   0  0  0  1  0  0  0  0  0  0  0  0
  -12.0706    5.8315   -9.4245 H   0  0  0  1  0  0  0  0  0  0  0  0
  -12.1454    4.3693   -7.5531 S   0  0  0  1  0  0  0  0  0  0  0  0
  -11.8281    5.9847   -6.8648 C   0  0  0  1  0  0  0  0  0  0  0  0
  -11.5334    6.8462   -7.6624 O   0  0  0  1  0  0  0  0  0  0  0  0
  -11.9317    6.2191   -5.3775 C   0  0  0  1  0  0  0  0  0  0  0  0
  -12.9671    6.3189   -5.1267 H   0  0  0  1  0  0  0  0  0  0  0  0
  -11.4189    7.1294   -5.1466 H   0  0  0  1  0  0  0  0  0  0  0  0
  -11.3497    5.1281   -4.5332 C   0  0  0  1  0  0  0  0  0  0  0  0
  -12.0305    4.2873   -3.9729 O   0  0  0  1  0  0  0  0  0  0  0  0
   -9.8988    5.0969   -4.3940 C   0  0  0  1  0  0  0  0  0  0  0  0
   -9.4971    4.3742   -3.7632 H   0  0  0  1  0  0  0  0  0  0  0  0
   -9.0433    5.9149   -5.0059 C   0  0  0  1  0  0  0  0  0  0  0  0
   -9.3833    6.4822   -5.8085 H   0  0  0  1  0  0  0  0  0  0  0  0
   -7.6280    6.0497   -4.5901 C   0  0  0  1  0  0  0  0  0  0  0  0
   -6.7604    6.8019   -5.3592 C   0  0  0  1  0  0  0  0  0  0  0  0
   -7.1017    7.2653   -6.2254 H   0  0  0  1  0  0  0  0  0  0  0  0
   -5.4353    6.9387   -4.9759 C   0  0  0  1  0  0  0  0  0  0  0  0
   -4.9804    6.3184   -3.8275 C   0  0  0  1  0  0  0  0  0  0  0  0
   -5.8507    5.5640   -3.0562 C   0  0  0  1  0  0  0  0  0  0  0  0
   -5.5094    5.1006   -2.1900 H   0  0  0  1  0  0  0  0  0  0  0  0
   -7.1720    5.4276   -3.4383 C   0  0  0  1  0  0  0  0  0  0  0  0
   -7.8239    4.8582   -2.8618 H   0  0  0  1  0  0  0  0  0  0  0  0
   -3.6951    6.4022   -3.3909 O   0  5  0  1  0  0  0  0  0  0  0  0
   -4.4973    7.6516   -5.6435 O   0  0  0  1  0  0  0  0  0  0  0  0
   -4.9182    8.3382   -6.8326 C   0  0  0  1  0  0  0  0  0  0  0  0
   -5.5391    9.1676   -6.5653 H   0  0  0  1  0  0  0  0  0  0  0  0
   -5.4702    7.6660   -7.4558 H   0  0  0  1  0  0  0  0  0  0  0  0
   -4.0589    8.6925   -7.3626 H   0  0  0  1  0  0  0  0  0  0  0  0
   -5.3331    0.8228   -8.1049 O   0  0  0  1  0  0  0  0  0  0  0  0
   -4.6598    1.4540   -7.8407 H   0  0  0  1  0  0  0  0  0  0  0  0
  1  2  1  0  0  0  0
  1  3  1  0  0  0  0
  1  4  1  0  0  0  0
  1  5  1  0  0  0  0
  5  6  1  0  0  0  0
  5 10  1  0  0  0  0
  5 55  1  0  0  0  0
  6  7  1  0  0  0  0
  6  8  1  0  0  0  0
  6  9  1  0  0  0  0
 10 11  1  0  0  0  0
 10 12  1  0  0  0  0
 10 13  1  0  0  0  0
 13 14  1  0  0  0  0
 14 15  2  0  0  0  0
 14 16  1  0  0  0  0
 14 17  1  0  0  0  0
 17 18  1  0  0  0  0
 18 19  1  0  0  0  0
 18 20  2  0  0  0  0
 18 21  1  0  0  0  0
 21 22  1  0  0  0  0
 22 23  1  0  0  0  0
 22 24  1  0  0  0  0
 22 25  1  0  0  0  0
 25 26  1  0  0  0  0
 25 27  1  0  0  0  0
 25 33  1  0  0  0  0
 27 28  1  0  0  0  0
 27 29  1  0  0  0  0
 27 50  1  0  0  0  0
 29 30  1  0  0  0  0
 29 31  1  0  0  0  0
 29 48  1  0  0  0  0
 31 32  1  0  0  0  0
 31 33  1  0  0  0  0
 31 34  1  0  0  0  0
 34 35  1  0  0  0  0
 34 44  1  0  0  0  0
 35 36  1  0  0  0  0
 35 37  2  0  0  0  0
 37 38  1  0  0  0  0
 38 39  1  0  0  0  0
 38 44  2  0  0  0  0
 39 40  2  0  0  0  0
 39 45  1  0  0  0  0
 40 41  1  0  0  0  0
 41 42  1  0  0  0  0
 41 43  2  0  0  0  0
 43 44  1  0  0  0  0
 45 46  1  0  0  0  0
 45 47  1  0  0  0  0
 48 49  1  0  0  0  0
 50 51  1  0  0  0  0
 51 52  2  0  0  0  0
 51 53  1  0  0  0  0
 51 54  1  0  0  0  0
 55 56  1  0  0  0  0
 55 57  1  0  0  0  0
 55104  1  0  0  0  0
 57 58  2  0  0  0  0
 57 59  1  0  0  0  0
 59 60  1  0  0  0  0
 59 61  1  0  0  0  0
 61 62  1  0  0  0  0
 61 63  1  0  0  0  0
 61 64  1  0  0  0  0
 64 65  1  0  0  0  0
 64 66  1  0  0  0  0
 64 67  1  0  0  0  0
 67 68  2  0  0  0  0
 67 69  1  0  0  0  0
 69 70  1  0  0  0  0
 69 71  1  0  0  0  0
 71 72  1  0  0  0  0
 71 73  1  0  0  0  0
 71 74  1  0  0  0  0
 74 75  1  0  0  0  0
 74 76  1  0  0  0  0
 74 77  1  0  0  0  0
 77 78  1  0  0  0  0
 78 79  2  0  0  0  0
 78 80  1  0  0  0  0
 80 81  1  0  0  0  0
 80 82  1  0  0  0  0
 80 83  1  0  0  0  0
 83 84  2  0  0  0  0
 83 85  1  0  0  0  0
 85 86  1  0  0  0  0
 85 87  2  0  0  0  0
 87 88  1  0  0  0  0
 87 89  1  0  0  0  0
 89 90  2  0  0  0  0
 89 96  1  0  0  0  0
 90 91  1  0  0  0  0
 90 92  1  0  0  0  0
 92 93  2  0  0  0  0
 92 99  1  0  0  0  0
 93 94  1  0  0  0  0
 93 98  1  0  0  0  0
 94 95  1  0  0  0  0
 94 96  2  0  0  0  0
 96 97  1  0  0  0  0
 99100  1  0  0  0  0
100101  1  0  0  0  0
100102  1  0  0  0  0
100103  1  0  0  0  0
104105  1  0  0  0  0
M  BCL ATM C_TeTeTeTe H_S H_S H_S C_TeTeTeTe C_TeTeTeTe H_S H_S H_S C_TeTeTeTe H_S H_S O_Tr2TrTrPi2 P_TeTeTeTePi O_Tr2Tr2TrPi O_Te2Te2Te2Te O_Tr2TrTrPi2 P_TeTeTeTePi O_Te2Te2TeTe O_Tr2Tr2TrPi O_Tr2TrTrPi2 C_TeTeTeTe H_S H_S C_TeTeTeTe H_S C_TeTeTeTe H_S C_TeTeTeTe H_S C_TeTeTeTe H_S O_Te2Te2TeTe N_TrTrTrPi2 C_TrTrTrPi H_S N_Tr2TrTrPi C_TrTrTrPi C_TrTrTrPi N_Tr2TrTrPi C_TrTrTrPi H_S N_Tr2TrTrPi C_TrTrTrPi N_TrTrTrPi2 H_S H_S O_Te2Te2TeTe H_S O_Tr2TrTrPi2 P_TeTeTeTePi O_Tr2Tr2TrPi O_Te2Te2Te2Te O_Te2Te2Te2Te C_TeTeTeTe H_S C_TrTrTrPi O_Tr2Tr2TrPi N_TrTrTrPi2 H_S C_TeTeTeTe H_S H_S C_TeTeTeTe H_S H_S C_TrTrTrPi O_Tr2Tr2TrPi N_TrTrTrPi2 H_S C_TeTeTeTe H_S H_S C_TeTeTeTe H_S H_S S_Te2Te2TeTe C_TrTrTrPi O_Tr2Tr2TrPi C_TeTeTeTe H_S H_S C_TrTrTrPi O_Tr2Tr2TrPi C_TrTrTrPi H_S C_TrTrTrPi H_S C_TrTrTrPi C_TrTrTrPi H_S C_TrTrTrPi C_TrTrTrPi C_TrTrTrPi H_S C_TrTrTrPi H_S O_Te2Te2Te2Te O_Tr2TrTrPi2 C_TeTeTeTe H_S H_S H_S O_Te2Te2TeTe H_S
M  BCL BND NonConjugatedSingleBond NonConjugatedSingleBond NonConjugatedSingleBond NonConjugatedSingleBond NonConjugatedSingleBond NonConjugatedSingleBond NonConjugatedSingleBond NonConjugatedSingleBond NonConjugatedSingleBond NonConjugatedSingleBond NonConjugatedSingleBond NonConjugatedSingleBond NonConjugatedSingleBond ConjugatedSingleBond ConjugatedDoubleBond ConjugatedSingleBond ConjugatedSingleBond ConjugatedSingleBond ConjugatedSingleBond ConjugatedDoubleBond ConjugatedSingleBond NonConjugatedSingleBond NonConjugatedSingleBond NonConjugatedSingleBond NonConjugatedSingleBond NonConjugatedSingleBond NonConjugatedSingleBondInRing NonConjugatedSingleBondInRing NonConjugatedSingleBond NonConjugatedSingleBondInRing NonConjugatedSingleBond NonConjugatedSingleBond NonConjugatedSingleBondInRing NonConjugatedSingleBond NonConjugatedSingleBond NonConjugatedSingleBondInRing NonConjugatedSingleBond AromaticSingleBond AromaticSingleBond NonConjugatedSingleBond AromaticDoubleBond AromaticSingleBond AromaticSingleBond AromaticDoubleBond AromaticDoubleBond ConjugatedSingleBond AromaticSingleBond NonConjugatedSingleBond AromaticDoubleBond AromaticSingleBond NonConjugatedSingleBond NonConjugatedSingleBond NonConjugatedSingleBond ConjugatedSingleBond ConjugatedDoubleBond ConjugatedSingleBond ConjugatedSingleBond NonConjugatedSingleBond NonConjugatedSingleBond NonConjugatedSingleBond ConjugatedDoubleBond AmideSingleBond NonConjugatedSingleBond NonConjugatedSingleBond NonConjugatedSingleBond NonConjugatedSingleBond NonConjugatedSingleBond NonConjugatedSingleBond NonConjugatedSingleBond NonConjugatedSingleBond ConjugatedDoubleBond AmideSingleBond NonConjugatedSingleBond NonConjugatedSingleBond NonConjugatedSingleBond NonConjugatedSingleBond NonConjugatedSingleBond NonConjugatedSingleBond NonConjugatedSingleBond NonConjugatedSingleBond ConjugatedSingleBond ConjugatedDoubleBond NonConjugatedSingleBond NonConjugatedSingleBond NonConjugatedSingleBond NonConjugatedSingleBond ConjugatedDoubleBond ConjugatedSingleBond NonConjugatedSingleBond ConjugatedDoubleBond NonConjugatedSingleBond ConjugatedSingleBond AromaticDoubleBond AromaticSingleBond NonConjugatedSingleBond AromaticSingleBond AromaticDoubleBond ConjugatedSingleBond AromaticSingleBond ConjugatedSingleBond NonConjugatedSingleBond AromaticDoubleBond NonConjugatedSingleBond NonConjugatedSingleBond NonConjugatedSingleBond NonConjugatedSingleBond NonConjugatedSingleBond NonConjugatedSingleBond
M  BCL CHI  14   R  18   S  25   R  27   R  29   R  31   S  55   R
M  BCL DBI - - - - - - - - - - - E - - -
M  END
> <ConfClashScore>
0 

> <ConfOneFourInteractionScore>
-0.977341 

> <ConfScore>
0.282038 

> <ConfScorePBest>
0.00757948 

> <ConfTolerance>
3.32829 

$$$$
L03.****
  PyMOL2.5          3D                             0

105108  0  0  0  0  0  0  0  0999 V2000
   -0.5271  -10.3619    4.2750 C   0  0  0  1  0  0  0  0  0  0  0  0
   -1.1829  -10.7590    5.0213 H   0  0  0  1  0  0  0  0  0  0  0  0
    0.4514  -10.7753    4.4039 H   0  0  0  1  0  0  0  0  0  0  0  0
   -0.8970  -10.6161    3.3037 H   0  0  0  1  0  0  0  0  0  0  0  0
   -0.4591   -8.8362    4.4125 C   0  0  0  1  0  0  0  0  0  0  0  0
   -1.2157   -8.4122    5.6770 C   0  0  0  1  0  0  0  0  0  0  0  0
   -1.9286   -7.6537    5.4292 H   0  0  0  1  0  0  0  0  0  0  0  0
   -0.5220   -8.0282    6.3955 H   0  0  0  1  0  0  0  0  0  0  0  0
   -1.7245   -9.2587    6.0887 H   0  0  0  1  0  0  0  0  0  0  0  0
   -1.0487   -8.1602    3.2186 C   0  0  0  1  0  0  0  0  0  0  0  0
   -0.4923   -8.4185    2.3419 H   0  0  0  1  0  0  0  0  0  0  0  0
   -1.0294   -7.0990    3.3542 H   0  0  0  1  0  0  0  0  0  0  0  0
   -2.4159   -8.6153    3.0865 O   0  0  0  1  0  0  0  0  0  0  0  0
   -3.3067   -8.1523    1.8748 P   0  0  0  1  0  0  0  0  0  0  0  0
   -2.3182   -8.7197    0.9308 O   0  0  0  1  0  0  0  0  0  0  0  0
   -4.1685   -8.7024    3.1315 O   0  5  0  1  0  0  0  0  0  0  0  0
   -4.2159   -7.6797    0.6374 O   0  0  0  1  0  0  0  0  0  0  0  0
   -4.6475   -8.5331   -0.6478 P   0  0  0  1  0  0  0  0  0  0  0  0
   -6.0639   -8.2929   -1.0035 O   0  0  0  0  0  0  0  0  0  0  0  0
   -4.1747   -9.9172   -0.4916 O   0  0  0  1  0  0  0  0  0  0  0  0
   -3.7104   -7.7732   -1.6713 O   0  0  0  1  0  0  0  0  0  0  0  0
   -2.7820   -6.7875   -1.1610 C   0  0  0  1  0  0  0  0  0  0  0  0
   -1.9223   -6.7338   -1.7958 H   0  0  0  1  0  0  0  0  0  0  0  0
   -2.4782   -7.0519   -0.1697 H   0  0  0  1  0  0  0  0  0  0  0  0
   -3.4930   -5.4534   -1.1430 C   0  0  0  1  0  0  0  0  0  0  0  0
   -4.4013   -5.5402   -0.5842 H   0  0  0  1  0  0  0  0  0  0  0  0
   -3.7778   -4.9695   -2.5722 C   0  0  0  1  0  0  0  0  0  0  0  0
   -4.7140   -5.3463   -2.9277 H   0  0  0  1  0  0  0  0  0  0  0  0
   -3.8205   -3.4724   -2.4122 C   0  0  0  1  0  0  0  0  0  0  0  0
   -4.7927   -3.1467   -2.1063 H   0  0  0  1  0  0  0  0  0  0  0  0
   -2.7830   -3.2092   -1.3168 C   0  0  0  1  0  0  0  0  0  0  0  0
   -3.1160   -2.4300   -0.6634 H   0  0  0  1  0  0  0  0  0  0  0  0
   -2.6685   -4.4587   -0.5991 O   0  0  0  1  0  0  0  0  0  0  0  0
   -1.4960   -2.8356   -1.9068 N   0  0  0  1  0  0  0  0  0  0  0  0
   -0.4472   -3.6601   -2.1789 C   0  0  0  1  0  0  0  0  0  0  0  0
   -0.4683   -4.6832   -1.9932 H   0  0  0  1  0  0  0  0  0  0  0  0
    0.5982   -3.0458   -2.6993 N   0  0  0  1  0  0  0  0  0  0  0  0
    0.1718   -1.7205   -2.7881 C   0  0  0  1  0  0  0  0  0  0  0  0
    0.8067   -0.5682   -3.2830 C   0  0  0  1  0  0  0  0  0  0  0  0
    0.1185    0.5977   -3.2232 N   0  0  0  1  0  0  0  0  0  0  0  0
   -1.1217    0.5786   -2.7032 C   0  0  0  1  0  0  0  0  0  0  0  0
   -1.6050    1.4992   -2.6782 H   0  0  0  1  0  0  0  0  0  0  0  0
   -1.8242   -0.4437   -2.2152 N   0  0  0  1  0  0  0  0  0  0  0  0
   -1.0962   -1.5757   -2.3015 C   0  0  0  1  0  0  0  0  0  0  0  0
    2.0910   -0.6225   -3.8135 N   0  0  0  1  0  0  0  0  0  0  0  0
    2.5912   -1.4652   -3.8008 H   0  0  0  1  0  0  0  0  0  0  0  0
    2.4960    0.1819   -4.1999 H   0  0  0  1  0  0  0  0  0  0  0  0
   -3.4588   -2.8167   -3.6285 O   0  0  0  1  0  0  0  0  0  0  0  0
   -3.9511   -3.2002   -4.3580 H   0  0  0  1  0  0  0  0  0  0  0  0
   -2.7187   -5.3685   -3.4805 O   0  0  0  1  0  0  0  0  0  0  0  0
   -3.0279   -6.3632   -4.7473 P   0  0  0  1  0  0  0  0  0  0  0  0
   -1.8083   -7.0391   -5.2434 O   0  0  0  1  0  0  0  0  0  0  0  0
   -4.0376   -7.5105   -4.2100 O   0  5  0  1  0  0  0  0  0  0  0  0
   -3.8960   -5.6268   -5.8999 O   0  5  0  1  0  0  0  0  0  0  0  0
    1.0073   -8.4190    4.5660 C   0  0  0  1  0  0  0  0  0  0  0  0
    1.5311   -8.7239    3.6842 H   0  0  0  1  0  0  0  0  0  0  0  0
    1.1667   -6.9111    4.7126 C   0  0  0  1  0  0  0  0  0  0  0  0
    1.3129   -6.2451    3.6886 O   0  0  0  1  0  0  0  0  0  0  0  0
    1.1397   -6.3924    5.9384 N   0  0  0  1  0  0  0  0  0  0  0  0
    0.9738   -6.9866    6.6998 H   0  0  0  1  0  0  0  0  0  0  0  0
    1.3479   -4.9737    6.1869 C   0  0  0  1  0  0  0  0  0  0  0  0
    1.3724   -4.4611    5.2480 H   0  0  0  1  0  0  0  0  0  0  0  0
    2.2851   -4.8473    6.6874 H   0  0  0  1  0  0  0  0  0  0  0  0
    0.2512   -4.3652    7.0456 C   0  0  0  1  0  0  0  0  0  0  0  0
    0.4736   -3.3298    7.1987 H   0  0  0  1  0  0  0  0  0  0  0  0
    0.2370   -4.8707    7.9886 H   0  0  0  1  0  0  0  0  0  0  0  0
   -1.1247   -4.4756    6.4180 C   0  0  0  1  0  0  0  0  0  0  0  0
   -1.6102   -5.5691    6.1325 O   0  0  0  1  0  0  0  0  0  0  0  0
   -1.7617   -3.3140    6.2011 N   0  0  0  1  0  0  0  0  0  0  0  0
   -1.3447   -2.4816    6.5071 H   0  0  0  1  0  0  0  0  0  0  0  0
   -3.0500   -3.2478    5.5274 C   0  0  0  1  0  0  0  0  0  0  0  0
   -3.4172   -4.2404    5.3694 H   0  0  0  1  0  0  0  0  0  0  0  0
   -2.9304   -2.7569    4.5843 H   0  0  0  1  0  0  0  0  0  0  0  0
   -4.0396   -2.4787    6.3671 C   0  0  0  1  0  0  0  0  0  0  0  0
   -4.0241   -1.4505    6.0713 H   0  0  0  1  0  0  0  0  0  0  0  0
   -3.7604   -2.5584    7.3969 H   0  0  0  1  0  0  0  0  0  0  0  0
   -5.7144   -3.1284    6.1572 S   0  0  0  1  0  0  0  0  0  0  0  0
   -5.6527   -4.4943    7.2726 C   0  0  0  1  0  0  0  0  0  0  0  0
   -4.6799   -4.8395    7.8873 O   0  0  0  1  0  0  0  0  0  0  0  0
   -6.9589   -5.2103    7.3920 C   0  0  0  1  0  0  0  0  0  0  0  0
   -7.1217   -5.7158    6.4631 H   0  0  0  1  0  0  0  0  0  0  0  0
   -7.7116   -4.4621    7.5281 H   0  0  0  1  0  0  0  0  0  0  0  0
   -7.1539   -6.2322    8.4868 C   0  0  0  1  0  0  0  0  0  0  0  0
   -7.2245   -7.4198    8.2167 O   0  0  0  1  0  0  0  0  0  0  0  0
   -7.2560   -5.7759    9.8678 C   0  0  0  1  0  0  0  0  0  0  0  0
   -7.6845   -6.4295   10.5540 H   0  0  0  1  0  0  0  0  0  0  0  0
   -6.8473   -4.5934   10.3260 C   0  0  0  1  0  0  0  0  0  0  0  0
   -6.4188   -3.9399    9.6397 H   0  0  0  1  0  0  0  0  0  0  0  0
   -6.9512   -4.1287   11.7326 C   0  0  0  1  0  0  0  0  0  0  0  0
   -6.3269   -2.9400   12.0604 C   0  0  0  1  0  0  0  0  0  0  0  0
   -5.7500   -2.4430   11.3521 H   0  0  0  1  0  0  0  0  0  0  0  0
   -6.4698   -2.4104   13.3334 C   0  0  0  1  0  0  0  0  0  0  0  0
   -7.2322   -3.0736   14.2764 C   0  0  0  1  0  0  0  0  0  0  0  0
   -7.8584   -4.2658   13.9474 C   0  0  0  1  0  0  0  0  0  0  0  0
   -8.4353   -4.7628   14.6557 H   0  0  0  1  0  0  0  0  0  0  0  0
   -7.7159   -4.7940   12.6782 C   0  0  0  1  0  0  0  0  0  0  0  0
   -8.1824   -5.6905   12.4326 H   0  0  0  1  0  0  0  0  0  0  0  0
   -7.3478   -2.5297   15.5176 O   0  5  0  1  0  0  0  0  0  0  0  0
   -5.9123   -1.2551   13.7673 O   0  0  0  1  0  0  0  0  0  0  0  0
   -5.0883   -0.5345   12.8376 C   0  0  0  1  0  0  0  0  0  0  0  0
   -5.6398   -0.3511   11.9392 H   0  0  0  1  0  0  0  0  0  0  0  0
   -4.2179   -1.1135   12.6096 H   0  0  0  1  0  0  0  0  0  0  0  0
   -4.7934    0.3981   13.2714 H   0  0  0  1  0  0  0  0  0  0  0  0
    1.5202   -9.1311    5.6904 O   0  0  0  1  0  0  0  0  0  0  0  0
    2.4540   -9.3103    5.5575 H   0  0  0  1  0  0  0  0  0  0  0  0
  1  2  1  0  0  0  0
  1  3  1  0  0  0  0
  1  4  1  0  0  0  0
  1  5  1  0  0  0  0
  5  6  1  0  0  0  0
  5 10  1  0  0  0  0
  5 55  1  0  0  0  0
  6  7  1  0  0  0  0
  6  8  1  0  0  0  0
  6  9  1  0  0  0  0
 10 11  1  0  0  0  0
 10 12  1  0  0  0  0
 10 13  1  0  0  0  0
 13 14  1  0  0  0  0
 14 15  2  0  0  0  0
 14 16  1  0  0  0  0
 14 17  1  0  0  0  0
 17 18  1  0  0  0  0
 18 19  1  0  0  0  0
 18 20  2  0  0  0  0
 18 21  1  0  0  0  0
 21 22  1  0  0  0  0
 22 23  1  0  0  0  0
 22 24  1  0  0  0  0
 22 25  1  0  0  0  0
 25 26  1  0  0  0  0
 25 27  1  0  0  0  0
 25 33  1  0  0  0  0
 27 28  1  0  0  0  0
 27 29  1  0  0  0  0
 27 50  1  0  0  0  0
 29 30  1  0  0  0  0
 29 31  1  0  0  0  0
 29 48  1  0  0  0  0
 31 32  1  0  0  0  0
 31 33  1  0  0  0  0
 31 34  1  0  0  0  0
 34 35  1  0  0  0  0
 34 44  1  0  0  0  0
 35 36  1  0  0  0  0
 35 37  2  0  0  0  0
 37 38  1  0  0  0  0
 38 39  1  0  0  0  0
 38 44  2  0  0  0  0
 39 40  2  0  0  0  0
 39 45  1  0  0  0  0
 40 41  1  0  0  0  0
 41 42  1  0  0  0  0
 41 43  2  0  0  0  0
 43 44  1  0  0  0  0
 45 46  1  0  0  0  0
 45 47  1  0  0  0  0
 48 49  1  0  0  0  0
 50 51  1  0  0  0  0
 51 52  2  0  0  0  0
 51 53  1  0  0  0  0
 51 54  1  0  0  0  0
 55 56  1  0  0  0  0
 55 57  1  0  0  0  0
 55104  1  0  0  0  0
 57 58  2  0  0  0  0
 57 59  1  0  0  0  0
 59 60  1  0  0  0  0
 59 61  1  0  0  0  0
 61 62  1  0  0  0  0
 61 63  1  0  0  0  0
 61 64  1  0  0  0  0
 64 65  1  0  0  0  0
 64 66  1  0  0  0  0
 64 67  1  0  0  0  0
 67 68  2  0  0  0  0
 67 69  1  0  0  0  0
 69 70  1  0  0  0  0
 69 71  1  0  0  0  0
 71 72  1  0  0  0  0
 71 73  1  0  0  0  0
 71 74  1  0  0  0  0
 74 75  1  0  0  0  0
 74 76  1  0  0  0  0
 74 77  1  0  0  0  0
 77 78  1  0  0  0  0
 78 79  2  0  0  0  0
 78 80  1  0  0  0  0
 80 81  1  0  0  0  0
 80 82  1  0  0  0  0
 80 83  1  0  0  0  0
 83 84  2  0  0  0  0
 83 85  1  0  0  0  0
 85 86  1  0  0  0  0
 85 87  2  0  0  0  0
 87 88  1  0  0  0  0
 87 89  1  0  0  0  0
 89 90  2  0  0  0  0
 89 96  1  0  0  0  0
 90 91  1  0  0  0  0
 90 92  1  0  0  0  0
 92 93  2  0  0  0  0
 92 99  1  0  0  0  0
 93 94  1  0  0  0  0
 93 98  1  0  0  0  0
 94 95  1  0  0  0  0
 94 96  2  0  0  0  0
 96 97  1  0  0  0  0
 99100  1  0  0  0  0
100101  1  0  0  0  0
100102  1  0  0  0  0
100103  1  0  0  0  0
104105  1  0  0  0  0
M  BCL ATM C_TeTeTeTe H_S H_S H_S C_TeTeTeTe C_TeTeTeTe H_S H_S H_S C_TeTeTeTe H_S H_S O_Tr2TrTrPi2 P_TeTeTeTePi O_Tr2Tr2TrPi O_Te2Te2Te2Te O_Tr2TrTrPi2 P_TeTeTeTePi O_Te2Te2TeTe O_Tr2Tr2TrPi O_Tr2TrTrPi2 C_TeTeTeTe H_S H_S C_TeTeTeTe H_S C_TeTeTeTe H_S C_TeTeTeTe H_S C_TeTeTeTe H_S O_Te2Te2TeTe N_TrTrTrPi2 C_TrTrTrPi H_S N_Tr2TrTrPi C_TrTrTrPi C_TrTrTrPi N_Tr2TrTrPi C_TrTrTrPi H_S N_Tr2TrTrPi C_TrTrTrPi N_TrTrTrPi2 H_S H_S O_Te2Te2TeTe H_S O_Tr2TrTrPi2 P_TeTeTeTePi O_Tr2Tr2TrPi O_Te2Te2Te2Te O_Te2Te2Te2Te C_TeTeTeTe H_S C_TrTrTrPi O_Tr2Tr2TrPi N_TrTrTrPi2 H_S C_TeTeTeTe H_S H_S C_TeTeTeTe H_S H_S C_TrTrTrPi O_Tr2Tr2TrPi N_TrTrTrPi2 H_S C_TeTeTeTe H_S H_S C_TeTeTeTe H_S H_S S_Te2Te2TeTe C_TrTrTrPi O_Tr2Tr2TrPi C_TeTeTeTe H_S H_S C_TrTrTrPi O_Tr2Tr2TrPi C_TrTrTrPi H_S C_TrTrTrPi H_S C_TrTrTrPi C_TrTrTrPi H_S C_TrTrTrPi C_TrTrTrPi C_TrTrTrPi H_S C_TrTrTrPi H_S O_Te2Te2Te2Te O_Tr2TrTrPi2 C_TeTeTeTe H_S H_S H_S O_Te2Te2TeTe H_S
M  BCL BND NonConjugatedSingleBond NonConjugatedSingleBond NonConjugatedSingleBond NonConjugatedSingleBond NonConjugatedSingleBond NonConjugatedSingleBond NonConjugatedSingleBond NonConjugatedSingleBond NonConjugatedSingleBond NonConjugatedSingleBond NonConjugatedSingleBond NonConjugatedSingleBond NonConjugatedSingleBond ConjugatedSingleBond ConjugatedDoubleBond ConjugatedSingleBond ConjugatedSingleBond ConjugatedSingleBond ConjugatedSingleBond ConjugatedDoubleBond ConjugatedSingleBond NonConjugatedSingleBond NonConjugatedSingleBond NonConjugatedSingleBond NonConjugatedSingleBond NonConjugatedSingleBond NonConjugatedSingleBondInRing NonConjugatedSingleBondInRing NonConjugatedSingleBond NonConjugatedSingleBondInRing NonConjugatedSingleBond NonConjugatedSingleBond NonConjugatedSingleBondInRing NonConjugatedSingleBond NonConjugatedSingleBond NonConjugatedSingleBondInRing NonConjugatedSingleBond AromaticSingleBond AromaticSingleBond NonConjugatedSingleBond AromaticDoubleBond AromaticSingleBond AromaticSingleBond AromaticDoubleBond AromaticDoubleBond ConjugatedSingleBond AromaticSingleBond NonConjugatedSingleBond AromaticDoubleBond AromaticSingleBond NonConjugatedSingleBond NonConjugatedSingleBond NonConjugatedSingleBond ConjugatedSingleBond ConjugatedDoubleBond ConjugatedSingleBond ConjugatedSingleBond NonConjugatedSingleBond NonConjugatedSingleBond NonConjugatedSingleBond ConjugatedDoubleBond AmideSingleBond NonConjugatedSingleBond NonConjugatedSingleBond NonConjugatedSingleBond NonConjugatedSingleBond NonConjugatedSingleBond NonConjugatedSingleBond NonConjugatedSingleBond NonConjugatedSingleBond ConjugatedDoubleBond AmideSingleBond NonConjugatedSingleBond NonConjugatedSingleBond NonConjugatedSingleBond NonConjugatedSingleBond NonConjugatedSingleBond NonConjugatedSingleBond NonConjugatedSingleBond NonConjugatedSingleBond ConjugatedSingleBond ConjugatedDoubleBond NonConjugatedSingleBond NonConjugatedSingleBond NonConjugatedSingleBond NonConjugatedSingleBond ConjugatedDoubleBond ConjugatedSingleBond NonConjugatedSingleBond ConjugatedDoubleBond NonConjugatedSingleBond ConjugatedSingleBond AromaticDoubleBond AromaticSingleBond NonConjugatedSingleBond AromaticSingleBond AromaticDoubleBond ConjugatedSingleBond AromaticSingleBond ConjugatedSingleBond NonConjugatedSingleBond AromaticDoubleBond NonConjugatedSingleBond NonConjugatedSingleBond NonConjugatedSingleBond NonConjugatedSingleBond NonConjugatedSingleBond NonConjugatedSingleBond
M  BCL CHI  14   R  18   S  25   R  27   R  29   R  31   S  55   R
M  BCL DBI - - - - - - - - - - - E - - -
M  END
> <ConfClashScore>
0 

> <ConfOneFourInteractionScore>
-0.975317 

> <ConfScore>
0.286188 

> <ConfScorePBest>
0.00747648 

> <ConfTolerance>
3.26283 

$$$$
L03.****
  PyMOL2.5          3D                             0

105108  0  0  0  0  0  0  0  0999 V2000
   -8.9329  -11.0855   -1.6503 C   0  0  0  1  0  0  0  0  0  0  0  0
   -9.8451  -11.4170   -2.1007 H   0  0  0  1  0  0  0  0  0  0  0  0
   -8.7097  -11.7001   -0.8033 H   0  0  0  1  0  0  0  0  0  0  0  0
   -8.1375  -11.1563   -2.3624 H   0  0  0  1  0  0  0  0  0  0  0  0
   -9.0857   -9.6257   -1.1971 C   0  0  0  1  0  0  0  0  0  0  0  0
  -10.5272   -9.1410   -1.3928 C   0  0  0  1  0  0  0  0  0  0  0  0
  -11.1744   -9.6644   -0.7204 H   0  0  0  1  0  0  0  0  0  0  0  0
  -10.8329   -9.3294   -2.4008 H   0  0  0  1  0  0  0  0  0  0  0  0
  -10.5804   -8.0910   -1.1938 H   0  0  0  1  0  0  0  0  0  0  0  0
   -8.1626   -8.7964   -2.0278 C   0  0  0  1  0  0  0  0  0  0  0  0
   -8.1012   -7.8064   -1.6264 H   0  0  0  1  0  0  0  0  0  0  0  0
   -8.5200   -8.7517   -3.0354 H   0  0  0  1  0  0  0  0  0  0  0  0
   -6.8683   -9.4187   -1.9950 O   0  0  0  1  0  0  0  0  0  0  0  0
   -5.6243   -8.9763   -2.8511 P   0  0  0  1  0  0  0  0  0  0  0  0
   -6.5103   -8.7269   -4.0101 O   0  0  0  1  0  0  0  0  0  0  0  0
   -5.5520   -8.4805   -1.3105 O   0  5  0  1  0  0  0  0  0  0  0  0
   -4.3581   -8.5257   -3.7232 O   0  0  0  1  0  0  0  0  0  0  0  0
   -2.7705   -8.3079   -3.6126 P   0  0  0  1  0  0  0  0  0  0  0  0
   -2.3572   -8.1058   -5.0193 O   0  0  0  0  0  0  0  0  0  0  0  0
   -2.1335   -9.3473   -2.7774 O   0  0  0  1  0  0  0  0  0  0  0  0
   -2.6376   -6.9943   -2.7564 O   0  0  0  1  0  0  0  0  0  0  0  0
   -3.4094   -5.8104   -3.0858 C   0  0  0  1  0  0  0  0  0  0  0  0
   -4.2400   -6.0776   -3.7051 H   0  0  0  1  0  0  0  0  0  0  0  0
   -2.7920   -5.1047   -3.6011 H   0  0  0  1  0  0  0  0  0  0  0  0
   -3.9050   -5.2112   -1.7910 C   0  0  0  1  0  0  0  0  0  0  0  0
   -4.3827   -5.9694   -1.2063 H   0  0  0  1  0  0  0  0  0  0  0  0
   -4.8663   -4.0673   -2.0672 C   0  0  0  1  0  0  0  0  0  0  0  0
   -5.5086   -3.8872   -1.2306 H   0  0  0  1  0  0  0  0  0  0  0  0
   -3.9103   -2.9077   -2.2908 C   0  0  0  1  0  0  0  0  0  0  0  0
   -4.3781   -1.9730   -2.0619 H   0  0  0  1  0  0  0  0  0  0  0  0
   -2.7857   -3.2079   -1.3191 C   0  0  0  1  0  0  0  0  0  0  0  0
   -2.9318   -2.6654   -0.4085 H   0  0  0  1  0  0  0  0  0  0  0  0
   -2.8209   -4.6243   -1.0623 O   0  0  0  1  0  0  0  0  0  0  0  0
   -1.4970   -2.8350   -1.9094 N   0  0  0  1  0  0  0  0  0  0  0  0
   -0.4496   -3.6606   -2.1833 C   0  0  0  1  0  0  0  0  0  0  0  0
   -0.4722   -4.6840   -1.9994 H   0  0  0  1  0  0  0  0  0  0  0  0
    0.5967   -3.0471   -2.7029 N   0  0  0  1  0  0  0  0  0  0  0  0
    0.1724   -1.7209   -2.7892 C   0  0  0  1  0  0  0  0  0  0  0  0
    0.8089   -0.5687   -3.2822 C   0  0  0  1  0  0  0  0  0  0  0  0
    0.1227    0.5982   -3.2202 N   0  0  0  1  0  0  0  0  0  0  0  0
   -1.1175    0.5801   -2.6999 C   0  0  0  1  0  0  0  0  0  0  0  0
   -1.5993    1.5014   -2.6730 H   0  0  0  1  0  0  0  0  0  0  0  0
   -1.8214   -0.4420   -2.2135 N   0  0  0  1  0  0  0  0  0  0  0  0
   -1.0952   -1.5750   -2.3020 C   0  0  0  1  0  0  0  0  0  0  0  0
    2.0881   -0.6239   -3.8111 N   0  0  0  1  0  0  0  0  0  0  0  0
    2.5152    0.1918   -4.1466 H   0  0  0  1  0  0  0  0  0  0  0  0
    2.5659   -1.4787   -3.8497 H   0  0  0  1  0  0  0  0  0  0  0  0
   -3.4345   -2.8855   -3.6374 O   0  0  0  1  0  0  0  0  0  0  0  0
   -3.6717   -3.7066   -4.0746 H   0  0  0  1  0  0  0  0  0  0  0  0
   -5.6696   -4.3253   -3.2479 O   0  0  0  1  0  0  0  0  0  0  0  0
   -7.1812   -3.7049   -3.3884 P   0  0  0  1  0  0  0  0  0  0  0  0
   -7.8258   -3.8982   -2.0703 O   0  0  0  1  0  0  0  0  0  0  0  0
   -7.1179   -2.1690   -3.8996 O   0  5  0  1  0  0  0  0  0  0  0  0
   -7.9008   -4.6391   -4.4992 O   0  5  0  1  0  0  0  0  0  0  0  0
   -8.6698   -9.5119    0.2755 C   0  0  0  1  0  0  0  0  0  0  0  0
   -7.7229   -9.9962    0.3927 H   0  0  0  1  0  0  0  0  0  0  0  0
   -8.5132   -8.0547    0.6692 C   0  0  0  1  0  0  0  0  0  0  0  0
   -7.5355   -7.4038    0.3030 O   0  0  0  1  0  0  0  0  0  0  0  0
   -9.4671   -7.5019    1.4239 N   0  0  0  1  0  0  0  0  0  0  0  0
  -10.2166   -8.0587    1.7215 H   0  0  0  1  0  0  0  0  0  0  0  0
   -9.4318   -6.1018    1.8192 C   0  0  0  1  0  0  0  0  0  0  0  0
   -8.5701   -5.6434    1.3807 H   0  0  0  1  0  0  0  0  0  0  0  0
   -9.3611   -6.0483    2.8855 H   0  0  0  1  0  0  0  0  0  0  0  0
  -10.6620   -5.3433    1.3766 C   0  0  0  1  0  0  0  0  0  0  0  0
  -10.4403   -4.2976    1.4252 H   0  0  0  1  0  0  0  0  0  0  0  0
  -11.4541   -5.5725    2.0584 H   0  0  0  1  0  0  0  0  0  0  0  0
  -11.1515   -5.6564   -0.0376 C   0  0  0  1  0  0  0  0  0  0  0  0
  -12.2475   -6.1875   -0.2120 O   0  0  0  1  0  0  0  0  0  0  0  0
  -10.3087   -5.4134   -1.0390 N   0  0  0  1  0  0  0  0  0  0  0  0
   -9.4696   -4.9551   -0.8239 H   0  0  0  1  0  0  0  0  0  0  0  0
  -10.5395   -5.7770   -2.4291 C   0  0  0  1  0  0  0  0  0  0  0  0
  -11.0371   -6.7239   -2.4577 H   0  0  0  1  0  0  0  0  0  0  0  0
   -9.5943   -5.8551   -2.9245 H   0  0  0  1  0  0  0  0  0  0  0  0
  -11.3872   -4.7623   -3.1605 C   0  0  0  1  0  0  0  0  0  0  0  0
  -10.8983   -3.8111   -3.1292 H   0  0  0  1  0  0  0  0  0  0  0  0
  -12.3398   -4.6904   -2.6785 H   0  0  0  1  0  0  0  0  0  0  0  0
  -11.6335   -5.2433   -4.8865 S   0  0  0  1  0  0  0  0  0  0  0  0
  -10.2281   -4.4171   -5.6417 C   0  0  0  1  0  0  0  0  0  0  0  0
   -9.7903   -3.3844   -5.2113 O   0  0  0  1  0  0  0  0  0  0  0  0
   -9.5978   -5.2026   -6.7653 C   0  0  0  1  0  0  0  0  0  0  0  0
   -9.6637   -6.2456   -6.5355 H   0  0  0  1  0  0  0  0  0  0  0  0
   -8.5693   -4.9195   -6.8487 H   0  0  0  1  0  0  0  0  0  0  0  0
  -10.2791   -4.9529   -8.0887 C   0  0  0  1  0  0  0  0  0  0  0  0
  -11.4545   -5.2418   -8.2416 O   0  0  0  1  0  0  0  0  0  0  0  0
   -9.5100   -4.3622   -9.1780 C   0  0  0  1  0  0  0  0  0  0  0  0
   -8.7260   -3.7202   -8.9439 H   0  0  0  1  0  0  0  0  0  0  0  0
   -9.7704   -4.6110  -10.4608 C   0  0  0  1  0  0  0  0  0  0  0  0
  -10.5663   -5.2605  -10.6234 H   0  0  0  1  0  0  0  0  0  0  0  0
   -9.1152   -4.1167  -11.6939 C   0  0  0  1  0  0  0  0  0  0  0  0
   -8.0193   -3.2804  -11.5950 C   0  0  0  1  0  0  0  0  0  0  0  0
   -7.6626   -2.9990  -10.6595 H   0  0  0  1  0  0  0  0  0  0  0  0
   -7.3957   -2.8166  -12.7428 C   0  0  0  1  0  0  0  0  0  0  0  0
   -7.8729   -3.1862  -13.9862 C   0  0  0  1  0  0  0  0  0  0  0  0
   -8.9721   -4.0251  -14.0853 C   0  0  0  1  0  0  0  0  0  0  0  0
   -9.3288   -4.3065  -15.0208 H   0  0  0  1  0  0  0  0  0  0  0  0
   -9.5940   -4.4875  -12.9408 C   0  0  0  1  0  0  0  0  0  0  0  0
  -10.4211   -5.1136  -13.0152 H   0  0  0  1  0  0  0  0  0  0  0  0
   -7.1859   -2.6669  -15.0388 O   0  5  0  1  0  0  0  0  0  0  0  0
   -6.3364   -2.0139  -12.5229 O   0  0  0  1  0  0  0  0  0  0  0  0
   -6.4084   -1.2230  -11.3138 C   0  0  0  1  0  0  0  0  0  0  0  0
   -5.6011   -0.5208  -11.2977 H   0  0  0  1  0  0  0  0  0  0  0  0
   -6.3378   -1.8667  -10.4620 H   0  0  0  1  0  0  0  0  0  0  0  0
   -7.3394   -0.6963  -11.2873 H   0  0  0  1  0  0  0  0  0  0  0  0
   -9.6336  -10.1421    1.0960 O   0  0  0  1  0  0  0  0  0  0  0  0
   -9.7058   -9.6680    1.9276 H   0  0  0  1  0  0  0  0  0  0  0  0
  1  2  1  0  0  0  0
  1  3  1  0  0  0  0
  1  4  1  0  0  0  0
  1  5  1  0  0  0  0
  5  6  1  0  0  0  0
  5 10  1  0  0  0  0
  5 55  1  0  0  0  0
  6  7  1  0  0  0  0
  6  8  1  0  0  0  0
  6  9  1  0  0  0  0
 10 11  1  0  0  0  0
 10 12  1  0  0  0  0
 10 13  1  0  0  0  0
 13 14  1  0  0  0  0
 14 15  2  0  0  0  0
 14 16  1  0  0  0  0
 14 17  1  0  0  0  0
 17 18  1  0  0  0  0
 18 19  1  0  0  0  0
 18 20  2  0  0  0  0
 18 21  1  0  0  0  0
 21 22  1  0  0  0  0
 22 23  1  0  0  0  0
 22 24  1  0  0  0  0
 22 25  1  0  0  0  0
 25 26  1  0  0  0  0
 25 27  1  0  0  0  0
 25 33  1  0  0  0  0
 27 28  1  0  0  0  0
 27 29  1  0  0  0  0
 27 50  1  0  0  0  0
 29 30  1  0  0  0  0
 29 31  1  0  0  0  0
 29 48  1  0  0  0  0
 31 32  1  0  0  0  0
 31 33  1  0  0  0  0
 31 34  1  0  0  0  0
 34 35  1  0  0  0  0
 34 44  1  0  0  0  0
 35 36  1  0  0  0  0
 35 37  2  0  0  0  0
 37 38  1  0  0  0  0
 38 39  1  0  0  0  0
 38 44  2  0  0  0  0
 39 40  2  0  0  0  0
 39 45  1  0  0  0  0
 40 41  1  0  0  0  0
 41 42  1  0  0  0  0
 41 43  2  0  0  0  0
 43 44  1  0  0  0  0
 45 46  1  0  0  0  0
 45 47  1  0  0  0  0
 48 49  1  0  0  0  0
 50 51  1  0  0  0  0
 51 52  2  0  0  0  0
 51 53  1  0  0  0  0
 51 54  1  0  0  0  0
 55 56  1  0  0  0  0
 55 57  1  0  0  0  0
 55104  1  0  0  0  0
 57 58  2  0  0  0  0
 57 59  1  0  0  0  0
 59 60  1  0  0  0  0
 59 61  1  0  0  0  0
 61 62  1  0  0  0  0
 61 63  1  0  0  0  0
 61 64  1  0  0  0  0
 64 65  1  0  0  0  0
 64 66  1  0  0  0  0
 64 67  1  0  0  0  0
 67 68  2  0  0  0  0
 67 69  1  0  0  0  0
 69 70  1  0  0  0  0
 69 71  1  0  0  0  0
 71 72  1  0  0  0  0
 71 73  1  0  0  0  0
 71 74  1  0  0  0  0
 74 75  1  0  0  0  0
 74 76  1  0  0  0  0
 74 77  1  0  0  0  0
 77 78  1  0  0  0  0
 78 79  2  0  0  0  0
 78 80  1  0  0  0  0
 80 81  1  0  0  0  0
 80 82  1  0  0  0  0
 80 83  1  0  0  0  0
 83 84  2  0  0  0  0
 83 85  1  0  0  0  0
 85 86  1  0  0  0  0
 85 87  2  0  0  0  0
 87 88  1  0  0  0  0
 87 89  1  0  0  0  0
 89 90  2  0  0  0  0
 89 96  1  0  0  0  0
 90 91  1  0  0  0  0
 90 92  1  0  0  0  0
 92 93  2  0  0  0  0
 92 99  1  0  0  0  0
 93 94  1  0  0  0  0
 93 98  1  0  0  0  0
 94 95  1  0  0  0  0
 94 96  2  0  0  0  0
 96 97  1  0  0  0  0
 99100  1  0  0  0  0
100101  1  0  0  0  0
100102  1  0  0  0  0
100103  1  0  0  0  0
104105  1  0  0  0  0
M  BCL ATM C_TeTeTeTe H_S H_S H_S C_TeTeTeTe C_TeTeTeTe H_S H_S H_S C_TeTeTeTe H_S H_S O_Tr2TrTrPi2 P_TeTeTeTePi O_Tr2Tr2TrPi O_Te2Te2Te2Te O_Tr2TrTrPi2 P_TeTeTeTePi O_Te2Te2TeTe O_Tr2Tr2TrPi O_Tr2TrTrPi2 C_TeTeTeTe H_S H_S C_TeTeTeTe H_S C_TeTeTeTe H_S C_TeTeTeTe H_S C_TeTeTeTe H_S O_Te2Te2TeTe N_TrTrTrPi2 C_TrTrTrPi H_S N_Tr2TrTrPi C_TrTrTrPi C_TrTrTrPi N_Tr2TrTrPi C_TrTrTrPi H_S N_Tr2TrTrPi C_TrTrTrPi N_TrTrTrPi2 H_S H_S O_Te2Te2TeTe H_S O_Tr2TrTrPi2 P_TeTeTeTePi O_Tr2Tr2TrPi O_Te2Te2Te2Te O_Te2Te2Te2Te C_TeTeTeTe H_S C_TrTrTrPi O_Tr2Tr2TrPi N_TrTrTrPi2 H_S C_TeTeTeTe H_S H_S C_TeTeTeTe H_S H_S C_TrTrTrPi O_Tr2Tr2TrPi N_TrTrTrPi2 H_S C_TeTeTeTe H_S H_S C_TeTeTeTe H_S H_S S_Te2Te2TeTe C_TrTrTrPi O_Tr2Tr2TrPi C_TeTeTeTe H_S H_S C_TrTrTrPi O_Tr2Tr2TrPi C_TrTrTrPi H_S C_TrTrTrPi H_S C_TrTrTrPi C_TrTrTrPi H_S C_TrTrTrPi C_TrTrTrPi C_TrTrTrPi H_S C_TrTrTrPi H_S O_Te2Te2Te2Te O_Tr2TrTrPi2 C_TeTeTeTe H_S H_S H_S O_Te2Te2TeTe H_S
M  BCL BND NonConjugatedSingleBond NonConjugatedSingleBond NonConjugatedSingleBond NonConjugatedSingleBond NonConjugatedSingleBond NonConjugatedSingleBond NonConjugatedSingleBond NonConjugatedSingleBond NonConjugatedSingleBond NonConjugatedSingleBond NonConjugatedSingleBond NonConjugatedSingleBond NonConjugatedSingleBond ConjugatedSingleBond ConjugatedDoubleBond ConjugatedSingleBond ConjugatedSingleBond ConjugatedSingleBond ConjugatedSingleBond ConjugatedDoubleBond ConjugatedSingleBond NonConjugatedSingleBond NonConjugatedSingleBond NonConjugatedSingleBond NonConjugatedSingleBond NonConjugatedSingleBond NonConjugatedSingleBondInRing NonConjugatedSingleBondInRing NonConjugatedSingleBond NonConjugatedSingleBondInRing NonConjugatedSingleBond NonConjugatedSingleBond NonConjugatedSingleBondInRing NonConjugatedSingleBond NonConjugatedSingleBond NonConjugatedSingleBondInRing NonConjugatedSingleBond AromaticSingleBond AromaticSingleBond NonConjugatedSingleBond AromaticDoubleBond AromaticSingleBond AromaticSingleBond AromaticDoubleBond AromaticDoubleBond ConjugatedSingleBond AromaticSingleBond NonConjugatedSingleBond AromaticDoubleBond AromaticSingleBond NonConjugatedSingleBond NonConjugatedSingleBond NonConjugatedSingleBond ConjugatedSingleBond ConjugatedDoubleBond ConjugatedSingleBond ConjugatedSingleBond NonConjugatedSingleBond NonConjugatedSingleBond NonConjugatedSingleBond ConjugatedDoubleBond AmideSingleBond NonConjugatedSingleBond NonConjugatedSingleBond NonConjugatedSingleBond NonConjugatedSingleBond NonConjugatedSingleBond NonConjugatedSingleBond NonConjugatedSingleBond NonConjugatedSingleBond ConjugatedDoubleBond AmideSingleBond NonConjugatedSingleBond NonConjugatedSingleBond NonConjugatedSingleBond NonConjugatedSingleBond NonConjugatedSingleBond NonConjugatedSingleBond NonConjugatedSingleBond NonConjugatedSingleBond ConjugatedSingleBond ConjugatedDoubleBond NonConjugatedSingleBond NonConjugatedSingleBond NonConjugatedSingleBond NonConjugatedSingleBond ConjugatedDoubleBond ConjugatedSingleBond NonConjugatedSingleBond ConjugatedDoubleBond NonConjugatedSingleBond ConjugatedSingleBond AromaticDoubleBond AromaticSingleBond NonConjugatedSingleBond AromaticSingleBond AromaticDoubleBond ConjugatedSingleBond AromaticSingleBond ConjugatedSingleBond NonConjugatedSingleBond AromaticDoubleBond NonConjugatedSingleBond NonConjugatedSingleBond NonConjugatedSingleBond NonConjugatedSingleBond NonConjugatedSingleBond NonConjugatedSingleBond
M  BCL CHI  14   R  18   S  25   R  27   R  29   R  31   S  55   R
M  BCL DBI - - - - - - - - - - - E - - -
M  END
> <ConfClashScore>
0 

> <ConfOneFourInteractionScore>
-0.969738 

> <ConfScore>
0.297425 

> <ConfScorePBest>
0.00737347 

> <ConfTolerance>
3.1457 

$$$$
L03.****
  PyMOL2.5          3D                             0

105108  0  0  0  0  0  0  0  0999 V2000
    1.5616   -0.1441    2.0704 C   0  0  0  1  0  0  0  0  0  0  0  0
    1.4765    0.0424    1.0203 H   0  0  0  1  0  0  0  0  0  0  0  0
    1.4815    0.7798    2.6042 H   0  0  0  1  0  0  0  0  0  0  0  0
    0.7784   -0.8043    2.3798 H   0  0  0  1  0  0  0  0  0  0  0  0
    2.9205   -0.7893    2.3673 C   0  0  0  1  0  0  0  0  0  0  0  0
    4.0304   -0.3076    1.4045 C   0  0  0  1  0  0  0  0  0  0  0  0
    4.8661    0.0464    1.9713 H   0  0  0  1  0  0  0  0  0  0  0  0
    3.6527    0.4854    0.7934 H   0  0  0  1  0  0  0  0  0  0  0  0
    4.3406   -1.1211    0.7825 H   0  0  0  1  0  0  0  0  0  0  0  0
    2.8067   -2.2521    2.2099 C   0  0  0  1  0  0  0  0  0  0  0  0
    3.7319   -2.7098    2.4918 H   0  0  0  1  0  0  0  0  0  0  0  0
    2.5922   -2.4808    1.1869 H   0  0  0  1  0  0  0  0  0  0  0  0
    1.7528   -2.7653    3.0403 O   0  0  0  1  0  0  0  0  0  0  0  0
    1.2350   -4.2512    3.0383 P   0  0  0  1  0  0  0  0  0  0  0  0
    2.6315   -4.7382    3.0937 O   0  0  0  1  0  0  0  0  0  0  0  0
    0.3128   -3.2516    3.9184 O   0  5  0  1  0  0  0  0  0  0  0  0
    0.7069   -5.7685    3.0364 O   0  0  0  1  0  0  0  0  0  0  0  0
   -0.6275   -6.6147    2.9343 P   0  0  0  1  0  0  0  0  0  0  0  0
   -1.2348   -6.6585    4.2893 O   0  0  0  0  0  0  0  0  0  0  0  0
   -0.3402   -7.9818    2.4328 O   0  0  0  1  0  0  0  0  0  0  0  0
   -1.4888   -5.9489    1.8028 O   0  0  0  1  0  0  0  0  0  0  0  0
   -2.0033   -4.5949    1.8899 C   0  0  0  1  0  0  0  0  0  0  0  0
   -1.1958   -3.8944    1.8421 H   0  0  0  1  0  0  0  0  0  0  0  0
   -2.5345   -4.4653    2.8097 H   0  0  0  1  0  0  0  0  0  0  0  0
   -2.9385   -4.3830    0.7210 C   0  0  0  1  0  0  0  0  0  0  0  0
   -3.9517   -4.4669    1.0544 H   0  0  0  1  0  0  0  0  0  0  0  0
   -2.6486   -5.3941   -0.3977 C   0  0  0  1  0  0  0  0  0  0  0  0
   -3.2016   -6.2986   -0.2530 H   0  0  0  1  0  0  0  0  0  0  0  0
   -3.1130   -4.6650   -1.6311 C   0  0  0  1  0  0  0  0  0  0  0  0
   -4.1641   -4.7969   -1.7819 H   0  0  0  1  0  0  0  0  0  0  0  0
   -2.7822   -3.2030   -1.3170 C   0  0  0  1  0  0  0  0  0  0  0  0
   -3.5498   -2.5562   -1.6877 H   0  0  0  1  0  0  0  0  0  0  0  0
   -2.7136   -3.1343    0.1251 O   0  0  0  1  0  0  0  0  0  0  0  0
   -1.4996   -2.8281   -1.9103 N   0  0  0  1  0  0  0  0  0  0  0  0
   -0.4445   -3.6530   -2.1949 C   0  0  0  1  0  0  0  0  0  0  0  0
   -0.4617   -4.6749   -2.0025 H   0  0  0  1  0  0  0  0  0  0  0  0
    0.5846   -3.0522   -2.7274 N   0  0  0  1  0  0  0  0  0  0  0  0
    0.1830   -1.7332   -2.7984 C   0  0  0  1  0  0  0  0  0  0  0  0
    0.7976   -0.5712   -3.2716 C   0  0  0  1  0  0  0  0  0  0  0  0
    0.1419    0.5927   -3.2082 N   0  0  0  1  0  0  0  0  0  0  0  0
   -1.1083    0.5821   -2.6985 C   0  0  0  1  0  0  0  0  0  0  0  0
   -1.5923    1.5023   -2.6743 H   0  0  0  1  0  0  0  0  0  0  0  0
   -1.8042   -0.4472   -2.2231 N   0  0  0  1  0  0  0  0  0  0  0  0
   -1.0990   -1.5775   -2.2991 C   0  0  0  1  0  0  0  0  0  0  0  0
    2.0707   -0.6239   -3.8002 N   0  0  0  1  0  0  0  0  0  0  0  0
    2.4703    0.1783   -4.1966 H   0  0  0  1  0  0  0  0  0  0  0  0
    2.5755   -1.4636   -3.7793 H   0  0  0  1  0  0  0  0  0  0  0  0
   -2.4054   -5.1132   -2.7881 O   0  0  0  1  0  0  0  0  0  0  0  0
   -2.3978   -4.4168   -3.4488 H   0  0  0  1  0  0  0  0  0  0  0  0
   -1.2461   -5.6963   -0.4720 O   0  0  0  1  0  0  0  0  0  0  0  0
   -0.6102   -7.1784   -0.7696 P   0  0  0  1  0  0  0  0  0  0  0  0
   -0.9916   -7.6908   -2.1047 O   0  0  0  1  0  0  0  0  0  0  0  0
    0.9364   -7.1224   -0.2908 O   0  5  0  1  0  0  0  0  0  0  0  0
   -1.3238   -8.1333    0.3275 O   0  5  0  1  0  0  0  0  0  0  0  0
    3.2937   -0.4909    3.8200 C   0  0  0  1  0  0  0  0  0  0  0  0
    3.4685    0.5608    3.9112 H   0  0  0  1  0  0  0  0  0  0  0  0
    2.1517   -0.8677    4.7435 C   0  0  0  1  0  0  0  0  0  0  0  0
    2.1223   -1.9595    5.3098 O   0  0  0  1  0  0  0  0  0  0  0  0
    1.1940    0.0598    4.8946 N   0  0  0  1  0  0  0  0  0  0  0  0
    1.3276    0.9464    4.4990 H   0  0  0  1  0  0  0  0  0  0  0  0
   -0.0361   -0.2050    5.6257 C   0  0  0  1  0  0  0  0  0  0  0  0
    0.1322    0.0274    6.6565 H   0  0  0  1  0  0  0  0  0  0  0  0
   -0.2650   -1.2456    5.5270 H   0  0  0  1  0  0  0  0  0  0  0  0
   -1.2452    0.5947    5.1495 C   0  0  0  1  0  0  0  0  0  0  0  0
   -2.1066    0.2947    5.7088 H   0  0  0  1  0  0  0  0  0  0  0  0
   -1.4080    0.3989    4.1102 H   0  0  0  1  0  0  0  0  0  0  0  0
   -1.0179    2.0810    5.3458 C   0  0  0  1  0  0  0  0  0  0  0  0
   -0.6865    2.5364    6.4372 O   0  0  0  1  0  0  0  0  0  0  0  0
   -1.2008    2.8427    4.2661 N   0  0  0  1  0  0  0  0  0  0  0  0
   -1.4876    2.4181    3.4308 H   0  0  0  1  0  0  0  0  0  0  0  0
   -0.9893    4.2824    4.2856 C   0  0  0  1  0  0  0  0  0  0  0  0
   -0.8123    4.6165    3.2847 H   0  0  0  1  0  0  0  0  0  0  0  0
   -0.1323    4.4949    4.8899 H   0  0  0  1  0  0  0  0  0  0  0  0
   -2.1770    5.0363    4.8459 C   0  0  0  1  0  0  0  0  0  0  0  0
   -1.8850    5.5246    5.7521 H   0  0  0  1  0  0  0  0  0  0  0  0
   -2.9655    4.3429    5.0518 H   0  0  0  1  0  0  0  0  0  0  0  0
   -2.7728    6.2767    3.6722 S   0  0  0  1  0  0  0  0  0  0  0  0
   -1.4419    7.4172    3.7361 C   0  0  0  1  0  0  0  0  0  0  0  0
   -0.4254    7.2242    4.3522 O   0  0  0  1  0  0  0  0  0  0  0  0
   -1.6706    8.6222    2.8572 C   0  0  0  1  0  0  0  0  0  0  0  0
   -0.7297    9.0971    2.6723 H   0  0  0  1  0  0  0  0  0  0  0  0
   -2.3198    9.3025    3.3678 H   0  0  0  1  0  0  0  0  0  0  0  0
   -2.2962    8.2539    1.5358 C   0  0  0  1  0  0  0  0  0  0  0  0
   -3.4232    8.6273    1.2624 O   0  0  0  1  0  0  0  0  0  0  0  0
   -1.5303    7.4447    0.5929 C   0  0  0  1  0  0  0  0  0  0  0  0
   -0.5341    7.2756    0.8390 H   0  0  0  1  0  0  0  0  0  0  0  0
   -1.9540    6.8966   -0.5453 C   0  0  0  1  0  0  0  0  0  0  0  0
   -2.9848    6.8550   -0.6771 H   0  0  0  1  0  0  0  0  0  0  0  0
   -1.1341    6.3398   -1.6446 C   0  0  0  1  0  0  0  0  0  0  0  0
    0.1766    6.7302   -1.8437 C   0  0  0  1  0  0  0  0  0  0  0  0
    0.6103    7.4359   -1.2147 H   0  0  0  1  0  0  0  0  0  0  0  0
    0.9131    6.1812   -2.8817 C   0  0  0  1  0  0  0  0  0  0  0  0
    0.3352    5.2474   -3.7209 C   0  0  0  1  0  0  0  0  0  0  0  0
   -0.9795    4.8559   -3.5211 C   0  0  0  1  0  0  0  0  0  0  0  0
   -1.4132    4.1503   -4.1501 H   0  0  0  1  0  0  0  0  0  0  0  0
   -1.7140    5.4033   -2.4861 C   0  0  0  1  0  0  0  0  0  0  0  0
   -2.7016    5.1125   -2.3387 H   0  0  0  1  0  0  0  0  0  0  0  0
    0.9562    4.6468   -4.7713 O   0  5  0  1  0  0  0  0  0  0  0  0
    2.2018    6.4809   -3.1707 O   0  0  0  1  0  0  0  0  0  0  0  0
    2.5384    7.8707   -3.3034 C   0  0  0  1  0  0  0  0  0  0  0  0
    1.6416    8.4517   -3.3592 H   0  0  0  1  0  0  0  0  0  0  0  0
    3.1124    8.0148   -4.1948 H   0  0  0  1  0  0  0  0  0  0  0  0
    3.1119    8.1811   -2.4551 H   0  0  0  1  0  0  0  0  0  0  0  0
    4.4962   -1.2026    4.1110 O   0  0  0  1  0  0  0  0  0  0  0  0
    4.9854   -1.3511    3.2985 H   0  0  0  1  0  0  0  0  0  0  0  0
  1  2  1  0  0  0  0
  1  3  1  0  0  0  0
  1  4  1  0  0  0  0
  1  5  1  0  0  0  0
  5  6  1  0  0  0  0
  5 10  1  0  0  0  0
  5 55  1  0  0  0  0
  6  7  1  0  0  0  0
  6  8  1  0  0  0  0
  6  9  1  0  0  0  0
 10 11  1  0  0  0  0
 10 12  1  0  0  0  0
 10 13  1  0  0  0  0
 13 14  1  0  0  0  0
 14 15  2  0  0  0  0
 14 16  1  0  0  0  0
 14 17  1  0  0  0  0
 17 18  1  0  0  0  0
 18 19  1  0  0  0  0
 18 20  2  0  0  0  0
 18 21  1  0  0  0  0
 21 22  1  0  0  0  0
 22 23  1  0  0  0  0
 22 24  1  0  0  0  0
 22 25  1  0  0  0  0
 25 26  1  0  0  0  0
 25 27  1  0  0  0  0
 25 33  1  0  0  0  0
 27 28  1  0  0  0  0
 27 29  1  0  0  0  0
 27 50  1  0  0  0  0
 29 30  1  0  0  0  0
 29 31  1  0  0  0  0
 29 48  1  0  0  0  0
 31 32  1  0  0  0  0
 31 33  1  0  0  0  0
 31 34  1  0  0  0  0
 34 35  1  0  0  0  0
 34 44  1  0  0  0  0
 35 36  1  0  0  0  0
 35 37  2  0  0  0  0
 37 38  1  0  0  0  0
 38 39  1  0  0  0  0
 38 44  2  0  0  0  0
 39 40  2  0  0  0  0
 39 45  1  0  0  0  0
 40 41  1  0  0  0  0
 41 42  1  0  0  0  0
 41 43  2  0  0  0  0
 43 44  1  0  0  0  0
 45 46  1  0  0  0  0
 45 47  1  0  0  0  0
 48 49  1  0  0  0  0
 50 51  1  0  0  0  0
 51 52  2  0  0  0  0
 51 53  1  0  0  0  0
 51 54  1  0  0  0  0
 55 56  1  0  0  0  0
 55 57  1  0  0  0  0
 55104  1  0  0  0  0
 57 58  2  0  0  0  0
 57 59  1  0  0  0  0
 59 60  1  0  0  0  0
 59 61  1  0  0  0  0
 61 62  1  0  0  0  0
 61 63  1  0  0  0  0
 61 64  1  0  0  0  0
 64 65  1  0  0  0  0
 64 66  1  0  0  0  0
 64 67  1  0  0  0  0
 67 68  2  0  0  0  0
 67 69  1  0  0  0  0
 69 70  1  0  0  0  0
 69 71  1  0  0  0  0
 71 72  1  0  0  0  0
 71 73  1  0  0  0  0
 71 74  1  0  0  0  0
 74 75  1  0  0  0  0
 74 76  1  0  0  0  0
 74 77  1  0  0  0  0
 77 78  1  0  0  0  0
 78 79  2  0  0  0  0
 78 80  1  0  0  0  0
 80 81  1  0  0  0  0
 80 82  1  0  0  0  0
 80 83  1  0  0  0  0
 83 84  2  0  0  0  0
 83 85  1  0  0  0  0
 85 86  1  0  0  0  0
 85 87  2  0  0  0  0
 87 88  1  0  0  0  0
 87 89  1  0  0  0  0
 89 90  2  0  0  0  0
 89 96  1  0  0  0  0
 90 91  1  0  0  0  0
 90 92  1  0  0  0  0
 92 93  2  0  0  0  0
 92 99  1  0  0  0  0
 93 94  1  0  0  0  0
 93 98  1  0  0  0  0
 94 95  1  0  0  0  0
 94 96  2  0  0  0  0
 96 97  1  0  0  0  0
 99100  1  0  0  0  0
100101  1  0  0  0  0
100102  1  0  0  0  0
100103  1  0  0  0  0
104105  1  0  0  0  0
M  BCL ATM C_TeTeTeTe H_S H_S H_S C_TeTeTeTe C_TeTeTeTe H_S H_S H_S C_TeTeTeTe H_S H_S O_Tr2TrTrPi2 P_TeTeTeTePi O_Tr2Tr2TrPi O_Te2Te2Te2Te O_Tr2TrTrPi2 P_TeTeTeTePi O_Te2Te2TeTe O_Tr2Tr2TrPi O_Tr2TrTrPi2 C_TeTeTeTe H_S H_S C_TeTeTeTe H_S C_TeTeTeTe H_S C_TeTeTeTe H_S C_TeTeTeTe H_S O_Te2Te2TeTe N_TrTrTrPi2 C_TrTrTrPi H_S N_Tr2TrTrPi C_TrTrTrPi C_TrTrTrPi N_Tr2TrTrPi C_TrTrTrPi H_S N_Tr2TrTrPi C_TrTrTrPi N_TrTrTrPi2 H_S H_S O_Te2Te2TeTe H_S O_Tr2TrTrPi2 P_TeTeTeTePi O_Tr2Tr2TrPi O_Te2Te2Te2Te O_Te2Te2Te2Te C_TeTeTeTe H_S C_TrTrTrPi O_Tr2Tr2TrPi N_TrTrTrPi2 H_S C_TeTeTeTe H_S H_S C_TeTeTeTe H_S H_S C_TrTrTrPi O_Tr2Tr2TrPi N_TrTrTrPi2 H_S C_TeTeTeTe H_S H_S C_TeTeTeTe H_S H_S S_Te2Te2TeTe C_TrTrTrPi O_Tr2Tr2TrPi C_TeTeTeTe H_S H_S C_TrTrTrPi O_Tr2Tr2TrPi C_TrTrTrPi H_S C_TrTrTrPi H_S C_TrTrTrPi C_TrTrTrPi H_S C_TrTrTrPi C_TrTrTrPi C_TrTrTrPi H_S C_TrTrTrPi H_S O_Te2Te2Te2Te O_Tr2TrTrPi2 C_TeTeTeTe H_S H_S H_S O_Te2Te2TeTe H_S
M  BCL BND NonConjugatedSingleBond NonConjugatedSingleBond NonConjugatedSingleBond NonConjugatedSingleBond NonConjugatedSingleBond NonConjugatedSingleBond NonConjugatedSingleBond NonConjugatedSingleBond NonConjugatedSingleBond NonConjugatedSingleBond NonConjugatedSingleBond NonConjugatedSingleBond NonConjugatedSingleBond ConjugatedSingleBond ConjugatedDoubleBond ConjugatedSingleBond ConjugatedSingleBond ConjugatedSingleBond ConjugatedSingleBond ConjugatedDoubleBond ConjugatedSingleBond NonConjugatedSingleBond NonConjugatedSingleBond NonConjugatedSingleBond NonConjugatedSingleBond NonConjugatedSingleBond NonConjugatedSingleBondInRing NonConjugatedSingleBondInRing NonConjugatedSingleBond NonConjugatedSingleBondInRing NonConjugatedSingleBond NonConjugatedSingleBond NonConjugatedSingleBondInRing NonConjugatedSingleBond NonConjugatedSingleBond NonConjugatedSingleBondInRing NonConjugatedSingleBond AromaticSingleBond AromaticSingleBond NonConjugatedSingleBond AromaticDoubleBond AromaticSingleBond AromaticSingleBond AromaticDoubleBond AromaticDoubleBond ConjugatedSingleBond AromaticSingleBond NonConjugatedSingleBond AromaticDoubleBond AromaticSingleBond NonConjugatedSingleBond NonConjugatedSingleBond NonConjugatedSingleBond ConjugatedSingleBond ConjugatedDoubleBond ConjugatedSingleBond ConjugatedSingleBond NonConjugatedSingleBond NonConjugatedSingleBond NonConjugatedSingleBond ConjugatedDoubleBond AmideSingleBond NonConjugatedSingleBond NonConjugatedSingleBond NonConjugatedSingleBond NonConjugatedSingleBond NonConjugatedSingleBond NonConjugatedSingleBond NonConjugatedSingleBond NonConjugatedSingleBond ConjugatedDoubleBond AmideSingleBond NonConjugatedSingleBond NonConjugatedSingleBond NonConjugatedSingleBond NonConjugatedSingleBond NonConjugatedSingleBond NonConjugatedSingleBond NonConjugatedSingleBond NonConjugatedSingleBond ConjugatedSingleBond ConjugatedDoubleBond NonConjugatedSingleBond NonConjugatedSingleBond NonConjugatedSingleBond NonConjugatedSingleBond ConjugatedDoubleBond ConjugatedSingleBond NonConjugatedSingleBond ConjugatedDoubleBond NonConjugatedSingleBond ConjugatedSingleBond AromaticDoubleBond AromaticSingleBond NonConjugatedSingleBond AromaticSingleBond AromaticDoubleBond ConjugatedSingleBond AromaticSingleBond ConjugatedSingleBond NonConjugatedSingleBond AromaticDoubleBond NonConjugatedSingleBond NonConjugatedSingleBond NonConjugatedSingleBond NonConjugatedSingleBond NonConjugatedSingleBond NonConjugatedSingleBond
M  BCL CHI  14   R  18   S  25   R  27   R  29   R  31   S  55   R
M  BCL DBI - - - - - - - - - - - E - - -
M  END
> <ConfClashScore>
0.000515745 

> <ConfOneFourInteractionScore>
-0.9676 

> <ConfScore>
0.314046 

> <ConfScorePBest>
0.00727047 

> <ConfTolerance>
3.18025 

$$$$
L03.****
  PyMOL2.5          3D                             0

105108  0  0  0  0  0  0  0  0999 V2000
    0.2273   -6.6142    3.4625 C   0  0  0  1  0  0  0  0  0  0  0  0
    0.9514   -7.3573    3.2012 H   0  0  0  1  0  0  0  0  0  0  0  0
    0.3394   -6.3546    4.4945 H   0  0  0  1  0  0  0  0  0  0  0  0
    0.3751   -5.7442    2.8574 H   0  0  0  1  0  0  0  0  0  0  0  0
   -1.1828   -7.1678    3.2253 C   0  0  0  1  0  0  0  0  0  0  0  0
   -1.5073   -8.2340    4.2785 C   0  0  0  1  0  0  0  0  0  0  0  0
   -2.4146   -7.9738    4.7824 H   0  0  0  1  0  0  0  0  0  0  0  0
   -0.7084   -8.2886    4.9883 H   0  0  0  1  0  0  0  0  0  0  0  0
   -1.6252   -9.1836    3.7997 H   0  0  0  1  0  0  0  0  0  0  0  0
   -1.2547   -7.7740    1.8625 C   0  0  0  1  0  0  0  0  0  0  0  0
   -2.2287   -8.1850    1.6974 H   0  0  0  1  0  0  0  0  0  0  0  0
   -0.5203   -8.5464    1.7680 H   0  0  0  1  0  0  0  0  0  0  0  0
   -0.9931   -6.7250    0.9007 O   0  0  0  1  0  0  0  0  0  0  0  0
   -0.5194   -7.0074   -0.5731 P   0  0  0  1  0  0  0  0  0  0  0  0
   -1.6679   -7.9204   -0.7676 O   0  0  0  1  0  0  0  0  0  0  0  0
   -0.3195   -5.4651   -0.1192 O   0  5  0  1  0  0  0  0  0  0  0  0
   -0.0372   -7.2954   -2.0751 O   0  0  0  1  0  0  0  0  0  0  0  0
   -0.8351   -7.0051   -3.4404 P   0  0  0  1  0  0  0  0  0  0  0  0
   -1.5158   -8.2538   -3.8869 O   0  0  0  0  0  0  0  0  0  0  0  0
    0.0816   -6.2876   -4.3434 O   0  0  0  1  0  0  0  0  0  0  0  0
   -1.9373   -5.9775   -2.9872 O   0  0  0  1  0  0  0  0  0  0  0  0
   -3.2441   -6.4323   -2.5527 C   0  0  0  1  0  0  0  0  0  0  0  0
   -3.1467   -7.3383   -1.9918 H   0  0  0  1  0  0  0  0  0  0  0  0
   -3.8713   -6.6040   -3.4025 H   0  0  0  1  0  0  0  0  0  0  0  0
   -3.8410   -5.3497   -1.6826 C   0  0  0  1  0  0  0  0  0  0  0  0
   -4.5422   -5.7849   -1.0016 H   0  0  0  1  0  0  0  0  0  0  0  0
   -4.5300   -4.3295   -2.5400 C   0  0  0  1  0  0  0  0  0  0  0  0
   -5.5648   -4.2714   -2.2740 H   0  0  0  1  0  0  0  0  0  0  0  0
   -3.8695   -3.0036   -2.3062 C   0  0  0  1  0  0  0  0  0  0  0  0
   -4.5844   -2.3037   -1.9268 H   0  0  0  1  0  0  0  0  0  0  0  0
   -2.7713   -3.2036   -1.3035 C   0  0  0  1  0  0  0  0  0  0  0  0
   -2.9548   -2.6006   -0.4389 H   0  0  0  1  0  0  0  0  0  0  0  0
   -2.7539   -4.6538   -0.9183 O   0  0  0  1  0  0  0  0  0  0  0  0
   -1.4866   -2.8319   -1.8941 N   0  0  0  1  0  0  0  0  0  0  0  0
   -0.4332   -3.6547   -2.1535 C   0  0  0  1  0  0  0  0  0  0  0  0
   -0.4498   -4.6754   -1.9551 H   0  0  0  1  0  0  0  0  0  0  0  0
    0.6106   -3.0420   -2.6789 N   0  0  0  1  0  0  0  0  0  0  0  0
    0.1782   -1.7198   -2.7853 C   0  0  0  1  0  0  0  0  0  0  0  0
    0.8088   -0.5708   -3.2930 C   0  0  0  1  0  0  0  0  0  0  0  0
    0.1150    0.5925   -3.2494 N   0  0  0  1  0  0  0  0  0  0  0  0
   -1.1265    0.5740   -2.7322 C   0  0  0  1  0  0  0  0  0  0  0  0
   -1.6141    1.4925   -2.7198 H   0  0  0  1  0  0  0  0  0  0  0  0
   -1.8252   -0.4455   -2.2331 N   0  0  0  1  0  0  0  0  0  0  0  0
   -1.0917   -1.5751   -2.3035 C   0  0  0  1  0  0  0  0  0  0  0  0
    2.0705   -0.6246   -3.8097 N   0  0  0  1  0  0  0  0  0  0  0  0
    2.7068   -1.2931   -3.4802 H   0  0  0  1  0  0  0  0  0  0  0  0
    2.3403    0.0053   -4.5103 H   0  0  0  1  0  0  0  0  0  0  0  0
   -3.3238   -2.5112   -3.5309 O   0  0  0  1  0  0  0  0  0  0  0  0
   -2.6705   -3.1313   -3.8628 H   0  0  0  1  0  0  0  0  0  0  0  0
   -4.4089   -4.7011   -3.9440 O   0  0  0  1  0  0  0  0  0  0  0  0
   -5.1002   -3.7883   -5.1180 P   0  0  0  1  0  0  0  0  0  0  0  0
   -4.0762   -3.5125   -6.1503 O   0  0  0  1  0  0  0  0  0  0  0  0
   -6.1572   -4.7285   -5.9075 O   0  5  0  1  0  0  0  0  0  0  0  0
   -5.8439   -2.5149   -4.4474 O   0  5  0  1  0  0  0  0  0  0  0  0
   -2.2024   -6.0269    3.3240 C   0  0  0  1  0  0  0  0  0  0  0  0
   -2.0588   -5.3777    2.4857 H   0  0  0  1  0  0  0  0  0  0  0  0
   -3.6099   -6.5758    3.2635 C   0  0  0  1  0  0  0  0  0  0  0  0
   -3.9299   -7.3987    2.4068 O   0  0  0  1  0  0  0  0  0  0  0  0
   -4.4973   -6.1387    4.1710 N   0  0  0  1  0  0  0  0  0  0  0  0
   -4.2024   -5.4957    4.8493 H   0  0  0  1  0  0  0  0  0  0  0  0
   -5.8819   -6.5864    4.1826 C   0  0  0  1  0  0  0  0  0  0  0  0
   -5.9040   -7.6094    3.8698 H   0  0  0  1  0  0  0  0  0  0  0  0
   -6.4315   -5.9880    3.4864 H   0  0  0  1  0  0  0  0  0  0  0  0
   -6.5689   -6.4902    5.5350 C   0  0  0  1  0  0  0  0  0  0  0  0
   -7.5979   -6.7515    5.4019 H   0  0  0  1  0  0  0  0  0  0  0  0
   -6.4983   -5.4763    5.8697 H   0  0  0  1  0  0  0  0  0  0  0  0
   -6.0012   -7.3745    6.6109 C   0  0  0  1  0  0  0  0  0  0  0  0
   -6.2782   -8.5724    6.6546 O   0  0  0  1  0  0  0  0  0  0  0  0
   -5.1853   -6.8182    7.5194 N   0  0  0  1  0  0  0  0  0  0  0  0
   -5.1081   -5.8418    7.5507 H   0  0  0  1  0  0  0  0  0  0  0  0
   -4.4111   -7.6145    8.4598 C   0  0  0  1  0  0  0  0  0  0  0  0
   -4.2174   -8.5710    8.0210 H   0  0  0  1  0  0  0  0  0  0  0  0
   -4.9840   -7.7414    9.3545 H   0  0  0  1  0  0  0  0  0  0  0  0
   -3.0894   -6.9682    8.8176 C   0  0  0  1  0  0  0  0  0  0  0  0
   -2.7977   -7.3233    9.7839 H   0  0  0  1  0  0  0  0  0  0  0  0
   -3.2380   -5.9092    8.8561 H   0  0  0  1  0  0  0  0  0  0  0  0
   -1.7353   -7.3021    7.6661 S   0  0  0  1  0  0  0  0  0  0  0  0
   -0.2934   -6.6570    8.4816 C   0  0  0  1  0  0  0  0  0  0  0  0
   -0.3369   -6.0134    9.4952 O   0  0  0  1  0  0  0  0  0  0  0  0
    0.9688   -7.0073    7.7624 C   0  0  0  1  0  0  0  0  0  0  0  0
    0.7011   -7.2097    6.7464 H   0  0  0  1  0  0  0  0  0  0  0  0
    1.3474   -7.8992    8.2164 H   0  0  0  1  0  0  0  0  0  0  0  0
    2.1082   -6.0166    7.7261 C   0  0  0  1  0  0  0  0  0  0  0  0
    3.1525   -6.2559    8.3097 O   0  0  0  1  0  0  0  0  0  0  0  0
    1.9384   -4.7713    6.9827 C   0  0  0  1  0  0  0  0  0  0  0  0
    2.7472   -4.1198    7.0380 H   0  0  0  1  0  0  0  0  0  0  0  0
    0.9199   -4.3306    6.2454 C   0  0  0  1  0  0  0  0  0  0  0  0
    0.0778   -4.9330    6.1476 H   0  0  0  1  0  0  0  0  0  0  0  0
    0.9376   -3.0149    5.5574 C   0  0  0  1  0  0  0  0  0  0  0  0
   -0.1552   -2.6057    4.8168 C   0  0  0  1  0  0  0  0  0  0  0  0
   -1.0153   -3.1900    4.7924 H   0  0  0  1  0  0  0  0  0  0  0  0
   -0.1048   -1.4165    4.1064 C   0  0  0  1  0  0  0  0  0  0  0  0
    1.0401   -0.6426    4.1344 C   0  0  0  1  0  0  0  0  0  0  0  0
    2.1360   -1.0532    4.8773 C   0  0  0  1  0  0  0  0  0  0  0  0
    2.9961   -0.4690    4.9017 H   0  0  0  1  0  0  0  0  0  0  0  0
    2.0859   -2.2390    5.5857 C   0  0  0  1  0  0  0  0  0  0  0  0
    2.9095   -2.5490    6.1398 H   0  0  0  1  0  0  0  0  0  0  0  0
    1.2488    0.5383    3.4929 O   0  5  0  1  0  0  0  0  0  0  0  0
   -1.1103   -0.9122    3.3525 O   0  0  0  1  0  0  0  0  0  0  0  0
   -2.3048   -1.7015    3.2391 C   0  0  0  1  0  0  0  0  0  0  0  0
   -2.0827   -2.7214    3.4746 H   0  0  0  1  0  0  0  0  0  0  0  0
   -2.6789   -1.6401    2.2385 H   0  0  0  1  0  0  0  0  0  0  0  0
   -3.0427   -1.3311    3.9196 H   0  0  0  1  0  0  0  0  0  0  0  0
   -1.9408   -5.3221    4.5248 O   0  0  0  1  0  0  0  0  0  0  0  0
   -2.5449   -5.6196    5.2091 H   0  0  0  1  0  0  0  0  0  0  0  0
  1  2  1  0  0  0  0
  1  3  1  0  0  0  0
  1  4  1  0  0  0  0
  1  5  1  0  0  0  0
  5  6  1  0  0  0  0
  5 10  1  0  0  0  0
  5 55  1  0  0  0  0
  6  7  1  0  0  0  0
  6  8  1  0  0  0  0
  6  9  1  0  0  0  0
 10 11  1  0  0  0  0
 10 12  1  0  0  0  0
 10 13  1  0  0  0  0
 13 14  1  0  0  0  0
 14 15  2  0  0  0  0
 14 16  1  0  0  0  0
 14 17  1  0  0  0  0
 17 18  1  0  0  0  0
 18 19  1  0  0  0  0
 18 20  2  0  0  0  0
 18 21  1  0  0  0  0
 21 22  1  0  0  0  0
 22 23  1  0  0  0  0
 22 24  1  0  0  0  0
 22 25  1  0  0  0  0
 25 26  1  0  0  0  0
 25 27  1  0  0  0  0
 25 33  1  0  0  0  0
 27 28  1  0  0  0  0
 27 29  1  0  0  0  0
 27 50  1  0  0  0  0
 29 30  1  0  0  0  0
 29 31  1  0  0  0  0
 29 48  1  0  0  0  0
 31 32  1  0  0  0  0
 31 33  1  0  0  0  0
 31 34  1  0  0  0  0
 34 35  1  0  0  0  0
 34 44  1  0  0  0  0
 35 36  1  0  0  0  0
 35 37  2  0  0  0  0
 37 38  1  0  0  0  0
 38 39  1  0  0  0  0
 38 44  2  0  0  0  0
 39 40  2  0  0  0  0
 39 45  1  0  0  0  0
 40 41  1  0  0  0  0
 41 42  1  0  0  0  0
 41 43  2  0  0  0  0
 43 44  1  0  0  0  0
 45 46  1  0  0  0  0
 45 47  1  0  0  0  0
 48 49  1  0  0  0  0
 50 51  1  0  0  0  0
 51 52  2  0  0  0  0
 51 53  1  0  0  0  0
 51 54  1  0  0  0  0
 55 56  1  0  0  0  0
 55 57  1  0  0  0  0
 55104  1  0  0  0  0
 57 58  2  0  0  0  0
 57 59  1  0  0  0  0
 59 60  1  0  0  0  0
 59 61  1  0  0  0  0
 61 62  1  0  0  0  0
 61 63  1  0  0  0  0
 61 64  1  0  0  0  0
 64 65  1  0  0  0  0
 64 66  1  0  0  0  0
 64 67  1  0  0  0  0
 67 68  2  0  0  0  0
 67 69  1  0  0  0  0
 69 70  1  0  0  0  0
 69 71  1  0  0  0  0
 71 72  1  0  0  0  0
 71 73  1  0  0  0  0
 71 74  1  0  0  0  0
 74 75  1  0  0  0  0
 74 76  1  0  0  0  0
 74 77  1  0  0  0  0
 77 78  1  0  0  0  0
 78 79  2  0  0  0  0
 78 80  1  0  0  0  0
 80 81  1  0  0  0  0
 80 82  1  0  0  0  0
 80 83  1  0  0  0  0
 83 84  2  0  0  0  0
 83 85  1  0  0  0  0
 85 86  1  0  0  0  0
 85 87  2  0  0  0  0
 87 88  1  0  0  0  0
 87 89  1  0  0  0  0
 89 90  2  0  0  0  0
 89 96  1  0  0  0  0
 90 91  1  0  0  0  0
 90 92  1  0  0  0  0
 92 93  2  0  0  0  0
 92 99  1  0  0  0  0
 93 94  1  0  0  0  0
 93 98  1  0  0  0  0
 94 95  1  0  0  0  0
 94 96  2  0  0  0  0
 96 97  1  0  0  0  0
 99100  1  0  0  0  0
100101  1  0  0  0  0
100102  1  0  0  0  0
100103  1  0  0  0  0
104105  1  0  0  0  0
M  BCL ATM C_TeTeTeTe H_S H_S H_S C_TeTeTeTe C_TeTeTeTe H_S H_S H_S C_TeTeTeTe H_S H_S O_Tr2TrTrPi2 P_TeTeTeTePi O_Tr2Tr2TrPi O_Te2Te2Te2Te O_Tr2TrTrPi2 P_TeTeTeTePi O_Te2Te2TeTe O_Tr2Tr2TrPi O_Tr2TrTrPi2 C_TeTeTeTe H_S H_S C_TeTeTeTe H_S C_TeTeTeTe H_S C_TeTeTeTe H_S C_TeTeTeTe H_S O_Te2Te2TeTe N_TrTrTrPi2 C_TrTrTrPi H_S N_Tr2TrTrPi C_TrTrTrPi C_TrTrTrPi N_Tr2TrTrPi C_TrTrTrPi H_S N_Tr2TrTrPi C_TrTrTrPi N_TrTrTrPi2 H_S H_S O_Te2Te2TeTe H_S O_Tr2TrTrPi2 P_TeTeTeTePi O_Tr2Tr2TrPi O_Te2Te2Te2Te O_Te2Te2Te2Te C_TeTeTeTe H_S C_TrTrTrPi O_Tr2Tr2TrPi N_TrTrTrPi2 H_S C_TeTeTeTe H_S H_S C_TeTeTeTe H_S H_S C_TrTrTrPi O_Tr2Tr2TrPi N_TrTrTrPi2 H_S C_TeTeTeTe H_S H_S C_TeTeTeTe H_S H_S S_Te2Te2TeTe C_TrTrTrPi O_Tr2Tr2TrPi C_TeTeTeTe H_S H_S C_TrTrTrPi O_Tr2Tr2TrPi C_TrTrTrPi H_S C_TrTrTrPi H_S C_TrTrTrPi C_TrTrTrPi H_S C_TrTrTrPi C_TrTrTrPi C_TrTrTrPi H_S C_TrTrTrPi H_S O_Te2Te2Te2Te O_Tr2TrTrPi2 C_TeTeTeTe H_S H_S H_S O_Te2Te2TeTe H_S
M  BCL BND NonConjugatedSingleBond NonConjugatedSingleBond NonConjugatedSingleBond NonConjugatedSingleBond NonConjugatedSingleBond NonConjugatedSingleBond NonConjugatedSingleBond NonConjugatedSingleBond NonConjugatedSingleBond NonConjugatedSingleBond NonConjugatedSingleBond NonConjugatedSingleBond NonConjugatedSingleBond ConjugatedSingleBond ConjugatedDoubleBond ConjugatedSingleBond ConjugatedSingleBond ConjugatedSingleBond ConjugatedSingleBond ConjugatedDoubleBond ConjugatedSingleBond NonConjugatedSingleBond NonConjugatedSingleBond NonConjugatedSingleBond NonConjugatedSingleBond NonConjugatedSingleBond NonConjugatedSingleBondInRing NonConjugatedSingleBondInRing NonConjugatedSingleBond NonConjugatedSingleBondInRing NonConjugatedSingleBond NonConjugatedSingleBond NonConjugatedSingleBondInRing NonConjugatedSingleBond NonConjugatedSingleBond NonConjugatedSingleBondInRing NonConjugatedSingleBond AromaticSingleBond AromaticSingleBond NonConjugatedSingleBond AromaticDoubleBond AromaticSingleBond AromaticSingleBond AromaticDoubleBond AromaticDoubleBond ConjugatedSingleBond AromaticSingleBond NonConjugatedSingleBond AromaticDoubleBond AromaticSingleBond NonConjugatedSingleBond NonConjugatedSingleBond NonConjugatedSingleBond ConjugatedSingleBond ConjugatedDoubleBond ConjugatedSingleBond ConjugatedSingleBond NonConjugatedSingleBond NonConjugatedSingleBond NonConjugatedSingleBond ConjugatedDoubleBond AmideSingleBond NonConjugatedSingleBond NonConjugatedSingleBond NonConjugatedSingleBond NonConjugatedSingleBond NonConjugatedSingleBond NonConjugatedSingleBond NonConjugatedSingleBond NonConjugatedSingleBond ConjugatedDoubleBond AmideSingleBond NonConjugatedSingleBond NonConjugatedSingleBond NonConjugatedSingleBond NonConjugatedSingleBond NonConjugatedSingleBond NonConjugatedSingleBond NonConjugatedSingleBond NonConjugatedSingleBond ConjugatedSingleBond ConjugatedDoubleBond NonConjugatedSingleBond NonConjugatedSingleBond NonConjugatedSingleBond NonConjugatedSingleBond ConjugatedDoubleBond ConjugatedSingleBond NonConjugatedSingleBond ConjugatedDoubleBond NonConjugatedSingleBond ConjugatedSingleBond AromaticDoubleBond AromaticSingleBond NonConjugatedSingleBond AromaticSingleBond AromaticDoubleBond ConjugatedSingleBond AromaticSingleBond ConjugatedSingleBond NonConjugatedSingleBond AromaticDoubleBond NonConjugatedSingleBond NonConjugatedSingleBond NonConjugatedSingleBond NonConjugatedSingleBond NonConjugatedSingleBond NonConjugatedSingleBond
M  BCL CHI  14   R  18   S  25   R  27   R  29   R  31   S  55   R
M  BCL DBI - - - - - - - - - - - E - - -
M  END
> <ConfClashScore>
0 

> <ConfOneFourInteractionScore>
-0.97322 

> <ConfScore>
0.315705 

> <ConfScorePBest>
0.00716747 

> <ConfTolerance>
3.64961 

$$$$
L03.****
  PyMOL2.5          3D                             0

105108  0  0  0  0  0  0  0  0999 V2000
    4.1627   -9.5735    0.2220 C   0  0  0  1  0  0  0  0  0  0  0  0
    3.2470  -10.0684    0.4697 H   0  0  0  1  0  0  0  0  0  0  0  0
    4.6365  -10.0857   -0.5892 H   0  0  0  1  0  0  0  0  0  0  0  0
    3.9558   -8.5638   -0.0653 H   0  0  0  1  0  0  0  0  0  0  0  0
    5.1011   -9.5772    1.4523 C   0  0  0  1  0  0  0  0  0  0  0  0
    5.2112  -10.9569    2.1295 C   0  0  0  1  0  0  0  0  0  0  0  0
    5.0950  -11.7258    1.3945 H   0  0  0  1  0  0  0  0  0  0  0  0
    4.4446  -11.0527    2.8698 H   0  0  0  1  0  0  0  0  0  0  0  0
    6.1704  -11.0502    2.5944 H   0  0  0  1  0  0  0  0  0  0  0  0
    4.4903   -8.6294    2.4472 C   0  0  0  1  0  0  0  0  0  0  0  0
    5.1890   -8.4040    3.2256 H   0  0  0  1  0  0  0  0  0  0  0  0
    3.6057   -9.0546    2.8734 H   0  0  0  1  0  0  0  0  0  0  0  0
    4.1657   -7.4344    1.6987 O   0  0  0  1  0  0  0  0  0  0  0  0
    2.6910   -7.0141    1.3455 P   0  0  0  1  0  0  0  0  0  0  0  0
    2.4310   -6.7252    2.7735 O   0  0  0  1  0  0  0  0  0  0  0  0
    3.7754   -6.5414    0.2387 O   0  5  0  1  0  0  0  0  0  0  0  0
    1.1852   -6.5849    0.9854 O   0  0  0  1  0  0  0  0  0  0  0  0
   -0.0515   -7.3960    0.4260 P   0  0  0  1  0  0  0  0  0  0  0  0
   -0.4483   -8.3024    1.5285 O   0  0  0  0  0  0  0  0  0  0  0  0
    0.2432   -7.9579   -0.9052 O   0  0  0  1  0  0  0  0  0  0  0  0
   -1.1852   -6.3038    0.3291 O   0  0  0  1  0  0  0  0  0  0  0  0
   -2.2735   -6.5934   -0.5845 C   0  0  0  1  0  0  0  0  0  0  0  0
   -2.7514   -7.5086   -0.3036 H   0  0  0  1  0  0  0  0  0  0  0  0
   -1.8983   -6.6783   -1.5830 H   0  0  0  1  0  0  0  0  0  0  0  0
   -3.2598   -5.4507   -0.5005 C   0  0  0  1  0  0  0  0  0  0  0  0
   -3.9836   -5.6588    0.2595 H   0  0  0  1  0  0  0  0  0  0  0  0
   -3.9464   -5.2727   -1.8225 C   0  0  0  1  0  0  0  0  0  0  0  0
   -5.0026   -5.3948   -1.7020 H   0  0  0  1  0  0  0  0  0  0  0  0
   -3.6478   -3.8892   -2.3185 C   0  0  0  1  0  0  0  0  0  0  0  0
   -4.5594   -3.3417   -2.4379 H   0  0  0  1  0  0  0  0  0  0  0  0
   -2.7760   -3.2111   -1.3028 C   0  0  0  1  0  0  0  0  0  0  0  0
   -3.2657   -2.3355   -0.9307 H   0  0  0  1  0  0  0  0  0  0  0  0
   -2.5364   -4.1766   -0.1793 O   0  0  0  1  0  0  0  0  0  0  0  0
   -1.5020   -2.8354   -1.9142 N   0  0  0  1  0  0  0  0  0  0  0  0
   -0.4590   -3.6577   -2.2117 C   0  0  0  1  0  0  0  0  0  0  0  0
   -0.4827   -4.6807   -2.0257 H   0  0  0  1  0  0  0  0  0  0  0  0
    0.5734   -3.0657   -2.7480 N   0  0  0  1  0  0  0  0  0  0  0  0
    0.1833   -1.7376   -2.8229 C   0  0  0  1  0  0  0  0  0  0  0  0
    0.7933   -0.5711   -3.2746 C   0  0  0  1  0  0  0  0  0  0  0  0
    0.1345    0.5908   -3.2065 N   0  0  0  1  0  0  0  0  0  0  0  0
   -1.1019    0.5836   -2.6838 C   0  0  0  1  0  0  0  0  0  0  0  0
   -1.5790    1.5069   -2.6445 H   0  0  0  1  0  0  0  0  0  0  0  0
   -1.7977   -0.4428   -2.2102 N   0  0  0  1  0  0  0  0  0  0  0  0
   -1.1102   -1.5816   -2.3069 C   0  0  0  1  0  0  0  0  0  0  0  0
    2.0825   -0.6134   -3.7945 N   0  0  0  1  0  0  0  0  0  0  0  0
    2.4543   -1.4620   -4.1139 H   0  0  0  1  0  0  0  0  0  0  0  0
    2.6190    0.2053   -3.8414 H   0  0  0  1  0  0  0  0  0  0  0  0
   -2.9666   -3.9602   -3.5718 O   0  0  0  1  0  0  0  0  0  0  0  0
   -2.1715   -4.4895   -3.4749 H   0  0  0  1  0  0  0  0  0  0  0  0
   -3.4506   -6.2526   -2.7702 O   0  0  0  1  0  0  0  0  0  0  0  0
   -4.0177   -7.7889   -2.6810 P   0  0  0  1  0  0  0  0  0  0  0  0
   -5.3438   -7.8329   -2.0254 O   0  0  0  1  0  0  0  0  0  0  0  0
   -3.9325   -8.3220   -4.2084 O   0  5  0  1  0  0  0  0  0  0  0  0
   -2.8959   -8.6907   -1.9375 O   0  5  0  1  0  0  0  0  0  0  0  0
    6.4674   -9.0754    1.1445 C   0  0  0  1  0  0  0  0  0  0  0  0
    6.4010   -9.4759    0.1546 H   0  0  0  1  0  0  0  0  0  0  0  0
    6.7455   -7.6993    0.5833 C   0  0  0  1  0  0  0  0  0  0  0  0
    6.7251   -6.7060    1.3090 O   0  0  0  1  0  0  0  0  0  0  0  0
    7.0146   -7.5949   -0.7277 N   0  0  0  1  0  0  0  0  0  0  0  0
    6.9971   -8.4043   -1.2800 H   0  0  0  1  0  0  0  0  0  0  0  0
    7.3314   -6.3217   -1.3573 C   0  0  0  1  0  0  0  0  0  0  0  0
    8.0018   -6.4995   -2.1721 H   0  0  0  1  0  0  0  0  0  0  0  0
    7.8062   -5.6909   -0.6352 H   0  0  0  1  0  0  0  0  0  0  0  0
    6.0947   -5.6095   -1.8895 C   0  0  0  1  0  0  0  0  0  0  0  0
    6.4078   -4.7377   -2.4251 H   0  0  0  1  0  0  0  0  0  0  0  0
    5.4853   -5.3191   -1.0593 H   0  0  0  1  0  0  0  0  0  0  0  0
    5.2647   -6.4743   -2.8182 C   0  0  0  1  0  0  0  0  0  0  0  0
    4.0410   -6.3602   -2.8732 O   0  0  0  1  0  0  0  0  0  0  0  0
    5.9507   -7.3568   -3.5617 N   0  0  0  1  0  0  0  0  0  0  0  0
    6.9279   -7.3487   -3.4878 H   0  0  0  1  0  0  0  0  0  0  0  0
    5.3523   -8.3251   -4.4696 C   0  0  0  1  0  0  0  0  0  0  0  0
    4.4621   -7.9089   -4.8929 H   0  0  0  1  0  0  0  0  0  0  0  0
    5.1079   -9.2141   -3.9266 H   0  0  0  1  0  0  0  0  0  0  0  0
    6.3199   -8.6689   -5.5807 C   0  0  0  1  0  0  0  0  0  0  0  0
    6.6862   -7.7534   -5.9961 H   0  0  0  1  0  0  0  0  0  0  0  0
    5.7838   -9.2121   -6.3306 H   0  0  0  1  0  0  0  0  0  0  0  0
    7.7402   -9.6626   -5.0788 S   0  0  0  1  0  0  0  0  0  0  0  0
    8.9976   -8.5201   -4.5589 C   0  0  0  1  0  0  0  0  0  0  0  0
    8.8893   -7.3372   -4.5949 O   0  0  0  1  0  0  0  0  0  0  0  0
   10.2725   -9.2398   -4.1740 C   0  0  0  1  0  0  0  0  0  0  0  0
   11.0628   -8.9061   -4.8135 H   0  0  0  1  0  0  0  0  0  0  0  0
   10.1270  -10.2917   -4.3051 H   0  0  0  1  0  0  0  0  0  0  0  0
   10.6646   -8.9790   -2.7417 C   0  0  0  1  0  0  0  0  0  0  0  0
    9.9637   -8.1966   -2.0871 O   0  0  0  1  0  0  0  0  0  0  0  0
   11.8198   -9.6006   -2.1006 C   0  0  0  1  0  0  0  0  0  0  0  0
   12.3724  -10.2752   -2.6673 H   0  0  0  1  0  0  0  0  0  0  0  0
   12.2267   -9.3776   -0.8515 C   0  0  0  1  0  0  0  0  0  0  0  0
   11.6905   -8.7071   -0.2647 H   0  0  0  1  0  0  0  0  0  0  0  0
   13.4142  -10.0470   -0.2629 C   0  0  0  1  0  0  0  0  0  0  0  0
   14.1420  -10.9445   -1.0211 C   0  0  0  1  0  0  0  0  0  0  0  0
   13.8173  -11.2031   -1.9747 H   0  0  0  1  0  0  0  0  0  0  0  0
   15.3049  -11.4999   -0.5105 C   0  0  0  1  0  0  0  0  0  0  0  0
   15.7336  -11.1604    0.7588 C   0  0  0  1  0  0  0  0  0  0  0  0
   15.0035  -10.2602    1.5192 C   0  0  0  1  0  0  0  0  0  0  0  0
   15.3282  -10.0016    2.4728 H   0  0  0  1  0  0  0  0  0  0  0  0
   13.8440   -9.7063    1.0101 C   0  0  0  1  0  0  0  0  0  0  0  0
   13.2941   -9.0340    1.5822 H   0  0  0  1  0  0  0  0  0  0  0  0
   16.8517  -11.6436    1.3639 O   0  5  0  1  0  0  0  0  0  0  0  0
   16.0172  -12.3708   -1.2515 O   0  0  0  1  0  0  0  0  0  0  0  0
   17.4478  -12.3260   -1.0419 C   0  0  0  1  0  0  0  0  0  0  0  0
   17.6822  -12.7475   -0.0868 H   0  0  0  1  0  0  0  0  0  0  0  0
   17.7811  -11.3097   -1.0745 H   0  0  0  1  0  0  0  0  0  0  0  0
   17.9382  -12.8875   -1.8094 H   0  0  0  1  0  0  0  0  0  0  0  0
    7.4329   -9.8841    1.4202 O   0  0  0  1  0  0  0  0  0  0  0  0
    8.1143   -9.4153    1.9076 H   0  0  0  1  0  0  0  0  0  0  0  0
  1  2  1  0  0  0  0
  1  3  1  0  0  0  0
  1  4  1  0  0  0  0
  1  5  1  0  0  0  0
  5  6  1  0  0  0  0
  5 10  1  0  0  0  0
  5 55  1  0  0  0  0
  6  7  1  0  0  0  0
  6  8  1  0  0  0  0
  6  9  1  0  0  0  0
 10 11  1  0  0  0  0
 10 12  1  0  0  0  0
 10 13  1  0  0  0  0
 13 14  1  0  0  0  0
 14 15  2  0  0  0  0
 14 16  1  0  0  0  0
 14 17  1  0  0  0  0
 17 18  1  0  0  0  0
 18 19  1  0  0  0  0
 18 20  2  0  0  0  0
 18 21  1  0  0  0  0
 21 22  1  0  0  0  0
 22 23  1  0  0  0  0
 22 24  1  0  0  0  0
 22 25  1  0  0  0  0
 25 26  1  0  0  0  0
 25 27  1  0  0  0  0
 25 33  1  0  0  0  0
 27 28  1  0  0  0  0
 27 29  1  0  0  0  0
 27 50  1  0  0  0  0
 29 30  1  0  0  0  0
 29 31  1  0  0  0  0
 29 48  1  0  0  0  0
 31 32  1  0  0  0  0
 31 33  1  0  0  0  0
 31 34  1  0  0  0  0
 34 35  1  0  0  0  0
 34 44  1  0  0  0  0
 35 36  1  0  0  0  0
 35 37  2  0  0  0  0
 37 38  1  0  0  0  0
 38 39  1  0  0  0  0
 38 44  2  0  0  0  0
 39 40  2  0  0  0  0
 39 45  1  0  0  0  0
 40 41  1  0  0  0  0
 41 42  1  0  0  0  0
 41 43  2  0  0  0  0
 43 44  1  0  0  0  0
 45 46  1  0  0  0  0
 45 47  1  0  0  0  0
 48 49  1  0  0  0  0
 50 51  1  0  0  0  0
 51 52  2  0  0  0  0
 51 53  1  0  0  0  0
 51 54  1  0  0  0  0
 55 56  1  0  0  0  0
 55 57  1  0  0  0  0
 55104  1  0  0  0  0
 57 58  2  0  0  0  0
 57 59  1  0  0  0  0
 59 60  1  0  0  0  0
 59 61  1  0  0  0  0
 61 62  1  0  0  0  0
 61 63  1  0  0  0  0
 61 64  1  0  0  0  0
 64 65  1  0  0  0  0
 64 66  1  0  0  0  0
 64 67  1  0  0  0  0
 67 68  2  0  0  0  0
 67 69  1  0  0  0  0
 69 70  1  0  0  0  0
 69 71  1  0  0  0  0
 71 72  1  0  0  0  0
 71 73  1  0  0  0  0
 71 74  1  0  0  0  0
 74 75  1  0  0  0  0
 74 76  1  0  0  0  0
 74 77  1  0  0  0  0
 77 78  1  0  0  0  0
 78 79  2  0  0  0  0
 78 80  1  0  0  0  0
 80 81  1  0  0  0  0
 80 82  1  0  0  0  0
 80 83  1  0  0  0  0
 83 84  2  0  0  0  0
 83 85  1  0  0  0  0
 85 86  1  0  0  0  0
 85 87  2  0  0  0  0
 87 88  1  0  0  0  0
 87 89  1  0  0  0  0
 89 90  2  0  0  0  0
 89 96  1  0  0  0  0
 90 91  1  0  0  0  0
 90 92  1  0  0  0  0
 92 93  2  0  0  0  0
 92 99  1  0  0  0  0
 93 94  1  0  0  0  0
 93 98  1  0  0  0  0
 94 95  1  0  0  0  0
 94 96  2  0  0  0  0
 96 97  1  0  0  0  0
 99100  1  0  0  0  0
100101  1  0  0  0  0
100102  1  0  0  0  0
100103  1  0  0  0  0
104105  1  0  0  0  0
M  BCL ATM C_TeTeTeTe H_S H_S H_S C_TeTeTeTe C_TeTeTeTe H_S H_S H_S C_TeTeTeTe H_S H_S O_Tr2TrTrPi2 P_TeTeTeTePi O_Tr2Tr2TrPi O_Te2Te2Te2Te O_Tr2TrTrPi2 P_TeTeTeTePi O_Te2Te2TeTe O_Tr2Tr2TrPi O_Tr2TrTrPi2 C_TeTeTeTe H_S H_S C_TeTeTeTe H_S C_TeTeTeTe H_S C_TeTeTeTe H_S C_TeTeTeTe H_S O_Te2Te2TeTe N_TrTrTrPi2 C_TrTrTrPi H_S N_Tr2TrTrPi C_TrTrTrPi C_TrTrTrPi N_Tr2TrTrPi C_TrTrTrPi H_S N_Tr2TrTrPi C_TrTrTrPi N_TrTrTrPi2 H_S H_S O_Te2Te2TeTe H_S O_Tr2TrTrPi2 P_TeTeTeTePi O_Tr2Tr2TrPi O_Te2Te2Te2Te O_Te2Te2Te2Te C_TeTeTeTe H_S C_TrTrTrPi O_Tr2Tr2TrPi N_TrTrTrPi2 H_S C_TeTeTeTe H_S H_S C_TeTeTeTe H_S H_S C_TrTrTrPi O_Tr2Tr2TrPi N_TrTrTrPi2 H_S C_TeTeTeTe H_S H_S C_TeTeTeTe H_S H_S S_Te2Te2TeTe C_TrTrTrPi O_Tr2Tr2TrPi C_TeTeTeTe H_S H_S C_TrTrTrPi O_Tr2Tr2TrPi C_TrTrTrPi H_S C_TrTrTrPi H_S C_TrTrTrPi C_TrTrTrPi H_S C_TrTrTrPi C_TrTrTrPi C_TrTrTrPi H_S C_TrTrTrPi H_S O_Te2Te2Te2Te O_Tr2TrTrPi2 C_TeTeTeTe H_S H_S H_S O_Te2Te2TeTe H_S
M  BCL BND NonConjugatedSingleBond NonConjugatedSingleBond NonConjugatedSingleBond NonConjugatedSingleBond NonConjugatedSingleBond NonConjugatedSingleBond NonConjugatedSingleBond NonConjugatedSingleBond NonConjugatedSingleBond NonConjugatedSingleBond NonConjugatedSingleBond NonConjugatedSingleBond NonConjugatedSingleBond ConjugatedSingleBond ConjugatedDoubleBond ConjugatedSingleBond ConjugatedSingleBond ConjugatedSingleBond ConjugatedSingleBond ConjugatedDoubleBond ConjugatedSingleBond NonConjugatedSingleBond NonConjugatedSingleBond NonConjugatedSingleBond NonConjugatedSingleBond NonConjugatedSingleBond NonConjugatedSingleBondInRing NonConjugatedSingleBondInRing NonConjugatedSingleBond NonConjugatedSingleBondInRing NonConjugatedSingleBond NonConjugatedSingleBond NonConjugatedSingleBondInRing NonConjugatedSingleBond NonConjugatedSingleBond NonConjugatedSingleBondInRing NonConjugatedSingleBond AromaticSingleBond AromaticSingleBond NonConjugatedSingleBond AromaticDoubleBond AromaticSingleBond AromaticSingleBond AromaticDoubleBond AromaticDoubleBond ConjugatedSingleBond AromaticSingleBond NonConjugatedSingleBond AromaticDoubleBond AromaticSingleBond NonConjugatedSingleBond NonConjugatedSingleBond NonConjugatedSingleBond ConjugatedSingleBond ConjugatedDoubleBond ConjugatedSingleBond ConjugatedSingleBond NonConjugatedSingleBond NonConjugatedSingleBond NonConjugatedSingleBond ConjugatedDoubleBond AmideSingleBond NonConjugatedSingleBond NonConjugatedSingleBond NonConjugatedSingleBond NonConjugatedSingleBond NonConjugatedSingleBond NonConjugatedSingleBond NonConjugatedSingleBond NonConjugatedSingleBond ConjugatedDoubleBond AmideSingleBond NonConjugatedSingleBond NonConjugatedSingleBond NonConjugatedSingleBond NonConjugatedSingleBond NonConjugatedSingleBond NonConjugatedSingleBond NonConjugatedSingleBond NonConjugatedSingleBond ConjugatedSingleBond ConjugatedDoubleBond NonConjugatedSingleBond NonConjugatedSingleBond NonConjugatedSingleBond NonConjugatedSingleBond ConjugatedDoubleBond ConjugatedSingleBond NonConjugatedSingleBond ConjugatedDoubleBond NonConjugatedSingleBond ConjugatedSingleBond AromaticDoubleBond AromaticSingleBond NonConjugatedSingleBond AromaticSingleBond AromaticDoubleBond ConjugatedSingleBond AromaticSingleBond ConjugatedSingleBond NonConjugatedSingleBond AromaticDoubleBond NonConjugatedSingleBond NonConjugatedSingleBond NonConjugatedSingleBond NonConjugatedSingleBond NonConjugatedSingleBond NonConjugatedSingleBond
M  BCL CHI  14   R  18   S  25   R  27   R  29   R  31   S  55   R
M  BCL DBI - - - - - - - - - - - E - - -
M  END
> <ConfClashScore>
0 

> <ConfOneFourInteractionScore>
-0.967259 

> <ConfScore>
0.317275 

> <ConfScorePBest>
0.00706447 

> <ConfTolerance>
3.27409 

$$$$
L03.****
  PyMOL2.5          3D                             0

105108  0  0  0  0  0  0  0  0999 V2000
    3.5447   -3.3646    8.8312 C   0  0  0  1  0  0  0  0  0  0  0  0
    4.5891   -3.5038    9.0175 H   0  0  0  1  0  0  0  0  0  0  0  0
    3.2776   -3.8521    7.9170 H   0  0  0  1  0  0  0  0  0  0  0  0
    2.9798   -3.7835    9.6376 H   0  0  0  1  0  0  0  0  0  0  0  0
    3.2402   -1.8663    8.7187 C   0  0  0  1  0  0  0  0  0  0  0  0
    2.9081   -1.3519   10.1245 C   0  0  0  1  0  0  0  0  0  0  0  0
    1.9278   -0.9231   10.1256 H   0  0  0  1  0  0  0  0  0  0  0  0
    3.6226   -0.6083   10.4099 H   0  0  0  1  0  0  0  0  0  0  0  0
    2.9422   -2.1651   10.8190 H   0  0  0  1  0  0  0  0  0  0  0  0
    2.0682   -1.6644    7.8157 C   0  0  0  1  0  0  0  0  0  0  0  0
    1.8240   -0.6239    7.7627 H   0  0  0  1  0  0  0  0  0  0  0  0
    1.2254   -2.2107    8.1847 H   0  0  0  1  0  0  0  0  0  0  0  0
    2.4353   -2.1518    6.5036 O   0  0  0  1  0  0  0  0  0  0  0  0
    1.4136   -2.2704    5.3127 P   0  0  0  1  0  0  0  0  0  0  0  0
    1.1011   -0.8291    5.4369 O   0  0  0  1  0  0  0  0  0  0  0  0
    2.7512   -3.1597    5.1017 O   0  5  0  1  0  0  0  0  0  0  0  0
    0.3725   -2.3908    4.0992 O   0  0  0  1  0  0  0  0  0  0  0  0
   -0.0011   -1.4055    2.8925 P   0  0  0  1  0  0  0  0  0  0  0  0
    1.1737   -1.2381    1.9766 O   0  0  0  0  0  0  0  0  0  0  0  0
   -0.5950   -0.1407    3.4315 O   0  0  0  1  0  0  0  0  0  0  0  0
   -1.1638   -2.2093    2.2177 O   0  0  0  1  0  0  0  0  0  0  0  0
   -1.0119   -3.4567    1.5003 C   0  0  0  1  0  0  0  0  0  0  0  0
   -0.6854   -4.2247    2.1700 H   0  0  0  1  0  0  0  0  0  0  0  0
   -0.2954   -3.3400    0.7142 H   0  0  0  1  0  0  0  0  0  0  0  0
   -2.3578   -3.8186    0.9198 C   0  0  0  1  0  0  0  0  0  0  0  0
   -3.0542   -3.9922    1.7135 H   0  0  0  1  0  0  0  0  0  0  0  0
   -2.2367   -5.0387    0.0699 C   0  0  0  1  0  0  0  0  0  0  0  0
   -2.7275   -5.8684    0.5341 H   0  0  0  1  0  0  0  0  0  0  0  0
   -2.8953   -4.6961   -1.2006 C   0  0  0  1  0  0  0  0  0  0  0  0
   -3.9242   -4.9893   -1.1851 H   0  0  0  1  0  0  0  0  0  0  0  0
   -2.7699   -3.2081   -1.2927 C   0  0  0  1  0  0  0  0  0  0  0  0
   -3.5757   -2.7948   -1.8626 H   0  0  0  1  0  0  0  0  0  0  0  0
   -2.8297   -2.7594    0.0743 O   0  0  0  1  0  0  0  0  0  0  0  0
   -1.4964   -2.8332   -1.9052 N   0  0  0  1  0  0  0  0  0  0  0  0
   -0.4499   -3.6543   -2.1939 C   0  0  0  1  0  0  0  0  0  0  0  0
   -0.4705   -4.6758   -1.9993 H   0  0  0  1  0  0  0  0  0  0  0  0
    0.5813   -3.0633   -2.7335 N   0  0  0  1  0  0  0  0  0  0  0  0
    0.1867   -1.7373   -2.8203 C   0  0  0  1  0  0  0  0  0  0  0  0
    0.7934   -0.5725   -3.2808 C   0  0  0  1  0  0  0  0  0  0  0  0
    0.1305    0.5876   -3.2237 N   0  0  0  1  0  0  0  0  0  0  0  0
   -1.1068    0.5806   -2.7030 C   0  0  0  1  0  0  0  0  0  0  0  0
   -1.5872    1.5025   -2.6724 H   0  0  0  1  0  0  0  0  0  0  0  0
   -1.7999   -0.4442   -2.2219 N   0  0  0  1  0  0  0  0  0  0  0  0
   -1.1082   -1.5814   -2.3078 C   0  0  0  1  0  0  0  0  0  0  0  0
    2.0732   -0.6144   -3.7941 N   0  0  0  1  0  0  0  0  0  0  0  0
    2.5416   -1.4716   -3.8731 H   0  0  0  1  0  0  0  0  0  0  0  0
    2.5139    0.2130   -4.0796 H   0  0  0  1  0  0  0  0  0  0  0  0
   -2.2359   -5.3281   -2.2986 O   0  0  0  1  0  0  0  0  0  0  0  0
   -2.6596   -5.0679   -3.1198 H   0  0  0  1  0  0  0  0  0  0  0  0
   -0.8411   -5.3649   -0.1537 O   0  0  0  1  0  0  0  0  0  0  0  0
   -0.4128   -6.7655   -0.8916 P   0  0  0  1  0  0  0  0  0  0  0  0
   -0.3247   -6.7647   -2.3690 O   0  0  0  1  0  0  0  0  0  0  0  0
    1.0239   -7.1725   -0.2634 O   0  5  0  1  0  0  0  0  0  0  0  0
   -1.4021   -7.9568   -0.4157 O   0  5  0  1  0  0  0  0  0  0  0  0
    4.4817   -1.1321    8.1985 C   0  0  0  1  0  0  0  0  0  0  0  0
    5.2648   -1.2483    8.9183 H   0  0  0  1  0  0  0  0  0  0  0  0
    4.9433   -1.7389    6.8864 C   0  0  0  1  0  0  0  0  0  0  0  0
    4.5487   -1.3073    5.8157 O   0  0  0  1  0  0  0  0  0  0  0  0
    5.8015   -2.7661    6.9889 N   0  0  0  1  0  0  0  0  0  0  0  0
    5.9240   -3.1948    7.8616 H   0  0  0  1  0  0  0  0  0  0  0  0
    6.5564   -3.2651    5.8492 C   0  0  0  1  0  0  0  0  0  0  0  0
    7.4688   -3.6966    6.2046 H   0  0  0  1  0  0  0  0  0  0  0  0
    6.7787   -2.4446    5.1993 H   0  0  0  1  0  0  0  0  0  0  0  0
    5.7944   -4.3179    5.0611 C   0  0  0  1  0  0  0  0  0  0  0  0
    4.7913   -3.9749    4.9158 H   0  0  0  1  0  0  0  0  0  0  0  0
    5.7829   -5.2255    5.6277 H   0  0  0  1  0  0  0  0  0  0  0  0
    6.4079   -4.6038    3.7042 C   0  0  0  1  0  0  0  0  0  0  0  0
    7.2438   -5.4805    3.5594 O   0  0  0  1  0  0  0  0  0  0  0  0
    5.9737   -3.8394    2.6982 N   0  0  0  1  0  0  0  0  0  0  0  0
    5.2914   -3.1600    2.8808 H   0  0  0  1  0  0  0  0  0  0  0  0
    6.4786   -3.9805    1.3406 C   0  0  0  1  0  0  0  0  0  0  0  0
    7.2653   -4.7057    1.3411 H   0  0  0  1  0  0  0  0  0  0  0  0
    6.8638   -3.0358    1.0181 H   0  0  0  1  0  0  0  0  0  0  0  0
    5.4016   -4.4291    0.3601 C   0  0  0  1  0  0  0  0  0  0  0  0
    4.6082   -3.7116    0.3333 H   0  0  0  1  0  0  0  0  0  0  0  0
    5.0120   -5.3814    0.6537 H   0  0  0  1  0  0  0  0  0  0  0  0
    6.1805   -4.5530   -1.2674 S   0  0  0  1  0  0  0  0  0  0  0  0
    5.7738   -2.9759   -1.9181 C   0  0  0  1  0  0  0  0  0  0  0  0
    5.1839   -2.1315   -1.2998 O   0  0  0  1  0  0  0  0  0  0  0  0
    6.3311   -2.7611   -3.3062 C   0  0  0  1  0  0  0  0  0  0  0  0
    7.2786   -3.2532   -3.3768 H   0  0  0  1  0  0  0  0  0  0  0  0
    6.4611   -1.7112   -3.4664 H   0  0  0  1  0  0  0  0  0  0  0  0
    5.4195   -3.3066   -4.3781 C   0  0  0  1  0  0  0  0  0  0  0  0
    4.3542   -3.8205   -4.0791 O   0  0  0  1  0  0  0  0  0  0  0  0
    5.8330   -3.2090   -5.7733 C   0  0  0  1  0  0  0  0  0  0  0  0
    5.2513   -3.6737   -6.4994 H   0  0  0  1  0  0  0  0  0  0  0  0
    6.9254   -2.5490   -6.1560 C   0  0  0  1  0  0  0  0  0  0  0  0
    7.5072   -2.0844   -5.4298 H   0  0  0  1  0  0  0  0  0  0  0  0
    7.3455   -2.4498   -7.5730 C   0  0  0  1  0  0  0  0  0  0  0  0
    8.3808   -1.6023   -7.9192 C   0  0  0  1  0  0  0  0  0  0  0  0
    8.8566   -1.0367   -7.1876 H   0  0  0  1  0  0  0  0  0  0  0  0
    8.7850   -1.5063   -9.2417 C   0  0  0  1  0  0  0  0  0  0  0  0
    8.1492   -2.2539  -10.2148 C   0  0  0  1  0  0  0  0  0  0  0  0
    7.1108   -3.1040   -9.8674 C   0  0  0  1  0  0  0  0  0  0  0  0
    6.6350   -3.6696  -10.5990 H   0  0  0  1  0  0  0  0  0  0  0  0
    6.7077   -3.1998   -8.5489 C   0  0  0  1  0  0  0  0  0  0  0  0
    5.9259   -3.8345   -8.2889 H   0  0  0  1  0  0  0  0  0  0  0  0
    8.5666   -2.1324  -11.5035 O   0  5  0  1  0  0  0  0  0  0  0  0
    9.7864   -0.7173   -9.6984 O   0  0  0  1  0  0  0  0  0  0  0  0
   10.4727    0.0961   -8.7341 C   0  0  0  1  0  0  0  0  0  0  0  0
    9.7713    0.7404   -8.2464 H   0  0  0  1  0  0  0  0  0  0  0  0
   11.2145    0.6869   -9.2296 H   0  0  0  1  0  0  0  0  0  0  0  0
   10.9436   -0.5329   -8.0078 H   0  0  0  1  0  0  0  0  0  0  0  0
    4.1888    0.2514    8.0285 O   0  0  0  1  0  0  0  0  0  0  0  0
    4.7951    0.6310    7.3883 H   0  0  0  1  0  0  0  0  0  0  0  0
  1  2  1  0  0  0  0
  1  3  1  0  0  0  0
  1  4  1  0  0  0  0
  1  5  1  0  0  0  0
  5  6  1  0  0  0  0
  5 10  1  0  0  0  0
  5 55  1  0  0  0  0
  6  7  1  0  0  0  0
  6  8  1  0  0  0  0
  6  9  1  0  0  0  0
 10 11  1  0  0  0  0
 10 12  1  0  0  0  0
 10 13  1  0  0  0  0
 13 14  1  0  0  0  0
 14 15  2  0  0  0  0
 14 16  1  0  0  0  0
 14 17  1  0  0  0  0
 17 18  1  0  0  0  0
 18 19  1  0  0  0  0
 18 20  2  0  0  0  0
 18 21  1  0  0  0  0
 21 22  1  0  0  0  0
 22 23  1  0  0  0  0
 22 24  1  0  0  0  0
 22 25  1  0  0  0  0
 25 26  1  0  0  0  0
 25 27  1  0  0  0  0
 25 33  1  0  0  0  0
 27 28  1  0  0  0  0
 27 29  1  0  0  0  0
 27 50  1  0  0  0  0
 29 30  1  0  0  0  0
 29 31  1  0  0  0  0
 29 48  1  0  0  0  0
 31 32  1  0  0  0  0
 31 33  1  0  0  0  0
 31 34  1  0  0  0  0
 34 35  1  0  0  0  0
 34 44  1  0  0  0  0
 35 36  1  0  0  0  0
 35 37  2  0  0  0  0
 37 38  1  0  0  0  0
 38 39  1  0  0  0  0
 38 44  2  0  0  0  0
 39 40  2  0  0  0  0
 39 45  1  0  0  0  0
 40 41  1  0  0  0  0
 41 42  1  0  0  0  0
 41 43  2  0  0  0  0
 43 44  1  0  0  0  0
 45 46  1  0  0  0  0
 45 47  1  0  0  0  0
 48 49  1  0  0  0  0
 50 51  1  0  0  0  0
 51 52  2  0  0  0  0
 51 53  1  0  0  0  0
 51 54  1  0  0  0  0
 55 56  1  0  0  0  0
 55 57  1  0  0  0  0
 55104  1  0  0  0  0
 57 58  2  0  0  0  0
 57 59  1  0  0  0  0
 59 60  1  0  0  0  0
 59 61  1  0  0  0  0
 61 62  1  0  0  0  0
 61 63  1  0  0  0  0
 61 64  1  0  0  0  0
 64 65  1  0  0  0  0
 64 66  1  0  0  0  0
 64 67  1  0  0  0  0
 67 68  2  0  0  0  0
 67 69  1  0  0  0  0
 69 70  1  0  0  0  0
 69 71  1  0  0  0  0
 71 72  1  0  0  0  0
 71 73  1  0  0  0  0
 71 74  1  0  0  0  0
 74 75  1  0  0  0  0
 74 76  1  0  0  0  0
 74 77  1  0  0  0  0
 77 78  1  0  0  0  0
 78 79  2  0  0  0  0
 78 80  1  0  0  0  0
 80 81  1  0  0  0  0
 80 82  1  0  0  0  0
 80 83  1  0  0  0  0
 83 84  2  0  0  0  0
 83 85  1  0  0  0  0
 85 86  1  0  0  0  0
 85 87  2  0  0  0  0
 87 88  1  0  0  0  0
 87 89  1  0  0  0  0
 89 90  2  0  0  0  0
 89 96  1  0  0  0  0
 90 91  1  0  0  0  0
 90 92  1  0  0  0  0
 92 93  2  0  0  0  0
 92 99  1  0  0  0  0
 93 94  1  0  0  0  0
 93 98  1  0  0  0  0
 94 95  1  0  0  0  0
 94 96  2  0  0  0  0
 96 97  1  0  0  0  0
 99100  1  0  0  0  0
100101  1  0  0  0  0
100102  1  0  0  0  0
100103  1  0  0  0  0
104105  1  0  0  0  0
M  BCL ATM C_TeTeTeTe H_S H_S H_S C_TeTeTeTe C_TeTeTeTe H_S H_S H_S C_TeTeTeTe H_S H_S O_Tr2TrTrPi2 P_TeTeTeTePi O_Tr2Tr2TrPi O_Te2Te2Te2Te O_Tr2TrTrPi2 P_TeTeTeTePi O_Te2Te2TeTe O_Tr2Tr2TrPi O_Tr2TrTrPi2 C_TeTeTeTe H_S H_S C_TeTeTeTe H_S C_TeTeTeTe H_S C_TeTeTeTe H_S C_TeTeTeTe H_S O_Te2Te2TeTe N_TrTrTrPi2 C_TrTrTrPi H_S N_Tr2TrTrPi C_TrTrTrPi C_TrTrTrPi N_Tr2TrTrPi C_TrTrTrPi H_S N_Tr2TrTrPi C_TrTrTrPi N_TrTrTrPi2 H_S H_S O_Te2Te2TeTe H_S O_Tr2TrTrPi2 P_TeTeTeTePi O_Tr2Tr2TrPi O_Te2Te2Te2Te O_Te2Te2Te2Te C_TeTeTeTe H_S C_TrTrTrPi O_Tr2Tr2TrPi N_TrTrTrPi2 H_S C_TeTeTeTe H_S H_S C_TeTeTeTe H_S H_S C_TrTrTrPi O_Tr2Tr2TrPi N_TrTrTrPi2 H_S C_TeTeTeTe H_S H_S C_TeTeTeTe H_S H_S S_Te2Te2TeTe C_TrTrTrPi O_Tr2Tr2TrPi C_TeTeTeTe H_S H_S C_TrTrTrPi O_Tr2Tr2TrPi C_TrTrTrPi H_S C_TrTrTrPi H_S C_TrTrTrPi C_TrTrTrPi H_S C_TrTrTrPi C_TrTrTrPi C_TrTrTrPi H_S C_TrTrTrPi H_S O_Te2Te2Te2Te O_Tr2TrTrPi2 C_TeTeTeTe H_S H_S H_S O_Te2Te2TeTe H_S
M  BCL BND NonConjugatedSingleBond NonConjugatedSingleBond NonConjugatedSingleBond NonConjugatedSingleBond NonConjugatedSingleBond NonConjugatedSingleBond NonConjugatedSingleBond NonConjugatedSingleBond NonConjugatedSingleBond NonConjugatedSingleBond NonConjugatedSingleBond NonConjugatedSingleBond NonConjugatedSingleBond ConjugatedSingleBond ConjugatedDoubleBond ConjugatedSingleBond ConjugatedSingleBond ConjugatedSingleBond ConjugatedSingleBond ConjugatedDoubleBond ConjugatedSingleBond NonConjugatedSingleBond NonConjugatedSingleBond NonConjugatedSingleBond NonConjugatedSingleBond NonConjugatedSingleBond NonConjugatedSingleBondInRing NonConjugatedSingleBondInRing NonConjugatedSingleBond NonConjugatedSingleBondInRing NonConjugatedSingleBond NonConjugatedSingleBond NonConjugatedSingleBondInRing NonConjugatedSingleBond NonConjugatedSingleBond NonConjugatedSingleBondInRing NonConjugatedSingleBond AromaticSingleBond AromaticSingleBond NonConjugatedSingleBond AromaticDoubleBond AromaticSingleBond AromaticSingleBond AromaticDoubleBond AromaticDoubleBond ConjugatedSingleBond AromaticSingleBond NonConjugatedSingleBond AromaticDoubleBond AromaticSingleBond NonConjugatedSingleBond NonConjugatedSingleBond NonConjugatedSingleBond ConjugatedSingleBond ConjugatedDoubleBond ConjugatedSingleBond ConjugatedSingleBond NonConjugatedSingleBond NonConjugatedSingleBond NonConjugatedSingleBond ConjugatedDoubleBond AmideSingleBond NonConjugatedSingleBond NonConjugatedSingleBond NonConjugatedSingleBond NonConjugatedSingleBond NonConjugatedSingleBond NonConjugatedSingleBond NonConjugatedSingleBond NonConjugatedSingleBond ConjugatedDoubleBond AmideSingleBond NonConjugatedSingleBond NonConjugatedSingleBond NonConjugatedSingleBond NonConjugatedSingleBond NonConjugatedSingleBond NonConjugatedSingleBond NonConjugatedSingleBond NonConjugatedSingleBond ConjugatedSingleBond ConjugatedDoubleBond NonConjugatedSingleBond NonConjugatedSingleBond NonConjugatedSingleBond NonConjugatedSingleBond ConjugatedDoubleBond ConjugatedSingleBond NonConjugatedSingleBond ConjugatedDoubleBond NonConjugatedSingleBond ConjugatedSingleBond AromaticDoubleBond AromaticSingleBond NonConjugatedSingleBond AromaticSingleBond AromaticDoubleBond ConjugatedSingleBond AromaticSingleBond ConjugatedSingleBond NonConjugatedSingleBond AromaticDoubleBond NonConjugatedSingleBond NonConjugatedSingleBond NonConjugatedSingleBond NonConjugatedSingleBond NonConjugatedSingleBond NonConjugatedSingleBond
M  BCL CHI  14   R  18   S  25   R  27   R  29   R  31   S  55   R
M  BCL DBI - - - - - - - - - - - E - - -
M  END
> <ConfClashScore>
0.00236676 

> <ConfOneFourInteractionScore>
-0.957371 

> <ConfScore>
0.318149 

> <ConfScorePBest>
0.00696147 

> <ConfTolerance>
3.13208 

$$$$
L03.****
  PyMOL2.5          3D                             0

105108  0  0  0  0  0  0  0  0999 V2000
   -3.2271  -14.5755   -4.5846 C   0  0  0  1  0  0  0  0  0  0  0  0
   -3.8897  -13.9768   -3.9953 H   0  0  0  1  0  0  0  0  0  0  0  0
   -2.8577  -15.3865   -3.9925 H   0  0  0  1  0  0  0  0  0  0  0  0
   -3.7545  -14.9627   -5.4313 H   0  0  0  1  0  0  0  0  0  0  0  0
   -2.0512  -13.7164   -5.0645 C   0  0  0  1  0  0  0  0  0  0  0  0
   -1.1425  -14.5854   -5.9423 C   0  0  0  1  0  0  0  0  0  0  0  0
   -0.1302  -14.2518   -5.8485 H   0  0  0  1  0  0  0  0  0  0  0  0
   -1.4511  -14.5053   -6.9637 H   0  0  0  1  0  0  0  0  0  0  0  0
   -1.2122  -15.6056   -5.6271 H   0  0  0  1  0  0  0  0  0  0  0  0
   -1.3570  -13.1173   -3.9084 C   0  0  0  1  0  0  0  0  0  0  0  0
   -0.6341  -12.4106   -4.2589 H   0  0  0  1  0  0  0  0  0  0  0  0
   -0.8632  -13.8889   -3.3554 H   0  0  0  1  0  0  0  0  0  0  0  0
   -2.3048  -12.4416   -3.0433 O   0  0  0  1  0  0  0  0  0  0  0  0
   -2.2144  -10.8889   -2.8047 P   0  0  0  1  0  0  0  0  0  0  0  0
   -3.6918  -10.8014   -2.8122 O   0  0  0  1  0  0  0  0  0  0  0  0
   -1.1001  -11.7303   -1.9832 O   0  5  0  1  0  0  0  0  0  0  0  0
   -2.1226   -9.3035   -2.5610 O   0  0  0  1  0  0  0  0  0  0  0  0
   -1.4671   -8.5284   -1.2996 P   0  0  0  1  0  0  0  0  0  0  0  0
   -0.0469   -8.2973   -1.6957 O   0  0  0  0  0  0  0  0  0  0  0  0
   -1.7313   -9.2226   -0.0170 O   0  0  0  1  0  0  0  0  0  0  0  0
   -2.2666   -7.1766   -1.2015 O   0  0  0  1  0  0  0  0  0  0  0  0
   -2.8152   -6.5489   -2.3893 C   0  0  0  1  0  0  0  0  0  0  0  0
   -3.4689   -7.2245   -2.9004 H   0  0  0  1  0  0  0  0  0  0  0  0
   -2.0287   -6.2457   -3.0484 H   0  0  0  1  0  0  0  0  0  0  0  0
   -3.5838   -5.3434   -1.8951 C   0  0  0  1  0  0  0  0  0  0  0  0
   -4.4949   -5.6646   -1.4352 H   0  0  0  1  0  0  0  0  0  0  0  0
   -3.8722   -4.3803   -3.0459 C   0  0  0  1  0  0  0  0  0  0  0  0
   -4.8121   -4.5962   -3.5095 H   0  0  0  1  0  0  0  0  0  0  0  0
   -3.9040   -3.0547   -2.3298 C   0  0  0  1  0  0  0  0  0  0  0  0
   -4.8459   -2.8980   -1.8469 H   0  0  0  1  0  0  0  0  0  0  0  0
   -2.7852   -3.2069   -1.3153 C   0  0  0  1  0  0  0  0  0  0  0  0
   -2.9741   -2.5973   -0.4564 H   0  0  0  1  0  0  0  0  0  0  0  0
   -2.7815   -4.5733   -0.9590 O   0  0  0  1  0  0  0  0  0  0  0  0
   -1.5012   -2.8298   -1.9095 N   0  0  0  1  0  0  0  0  0  0  0  0
   -0.4453   -3.6534   -2.1947 C   0  0  0  1  0  0  0  0  0  0  0  0
   -0.4614   -4.6754   -2.0028 H   0  0  0  1  0  0  0  0  0  0  0  0
    0.5830   -3.0513   -2.7271 N   0  0  0  1  0  0  0  0  0  0  0  0
    0.1801   -1.7326   -2.7972 C   0  0  0  1  0  0  0  0  0  0  0  0
    0.7933   -0.5697   -3.2700 C   0  0  0  1  0  0  0  0  0  0  0  0
    0.1364    0.5934   -3.2059 N   0  0  0  1  0  0  0  0  0  0  0  0
   -1.1136    0.5812   -2.6959 C   0  0  0  1  0  0  0  0  0  0  0  0
   -1.5986    1.5009   -2.6711 H   0  0  0  1  0  0  0  0  0  0  0  0
   -1.8084   -0.4491   -2.2209 N   0  0  0  1  0  0  0  0  0  0  0  0
   -1.1020   -1.5785   -2.2977 C   0  0  0  1  0  0  0  0  0  0  0  0
    2.0834   -0.6216   -3.8059 N   0  0  0  1  0  0  0  0  0  0  0  0
    2.5343   -1.4848   -3.9152 H   0  0  0  1  0  0  0  0  0  0  0  0
    2.5369    0.2053   -4.0723 H   0  0  0  1  0  0  0  0  0  0  0  0
   -3.6435   -1.9754   -3.2284 O   0  0  0  1  0  0  0  0  0  0  0  0
   -3.9643   -2.2030   -4.1041 H   0  0  0  1  0  0  0  0  0  0  0  0
   -2.8201   -4.4177   -4.0439 O   0  0  0  1  0  0  0  0  0  0  0  0
   -3.1648   -4.7217   -5.6181 P   0  0  0  1  0  0  0  0  0  0  0  0
   -3.8632   -6.0174   -5.7720 O   0  0  0  1  0  0  0  0  0  0  0  0
   -3.8895   -3.4518   -6.3157 O   0  5  0  1  0  0  0  0  0  0  0  0
   -1.6661   -4.8824   -6.2116 O   0  5  0  1  0  0  0  0  0  0  0  0
   -2.6104  -12.5948   -5.9476 C   0  0  0  1  0  0  0  0  0  0  0  0
   -3.4439  -12.1806   -5.4198 H   0  0  0  1  0  0  0  0  0  0  0  0
   -1.6511  -11.4504   -6.2111 C   0  0  0  1  0  0  0  0  0  0  0  0
   -1.9113  -10.3033   -5.8504 O   0  0  0  1  0  0  0  0  0  0  0  0
   -0.5186  -11.7751   -6.8546 N   0  0  0  1  0  0  0  0  0  0  0  0
   -0.3258  -12.7278   -6.9797 H   0  0  0  1  0  0  0  0  0  0  0  0
    0.4444  -10.8191   -7.3803 C   0  0  0  1  0  0  0  0  0  0  0  0
    1.3178  -10.8215   -6.7623 H   0  0  0  1  0  0  0  0  0  0  0  0
    0.0085   -9.8418   -7.3789 H   0  0  0  1  0  0  0  0  0  0  0  0
    0.8343  -11.1922   -8.8012 C   0  0  0  1  0  0  0  0  0  0  0  0
    1.2688  -12.1700   -8.8005 H   0  0  0  1  0  0  0  0  0  0  0  0
    1.5488  -10.4842   -9.1663 H   0  0  0  1  0  0  0  0  0  0  0  0
   -0.3791  -11.1880   -9.7105 C   0  0  0  1  0  0  0  0  0  0  0  0
   -1.1909  -10.2639   -9.6875 O   0  0  0  1  0  0  0  0  0  0  0  0
   -0.4993  -12.2418  -10.5229 N   0  0  0  1  0  0  0  0  0  0  0  0
    0.2283  -12.8983  -10.5335 H   0  0  0  1  0  0  0  0  0  0  0  0
   -1.6418  -12.4770  -11.3931 C   0  0  0  1  0  0  0  0  0  0  0  0
   -1.3298  -13.0570  -12.2364 H   0  0  0  1  0  0  0  0  0  0  0  0
   -2.0288  -11.5378  -11.7292 H   0  0  0  1  0  0  0  0  0  0  0  0
   -2.7322  -13.2300  -10.6405 C   0  0  0  1  0  0  0  0  0  0  0  0
   -3.0392  -12.6697   -9.7822 H   0  0  0  1  0  0  0  0  0  0  0  0
   -2.3695  -14.1878  -10.3308 H   0  0  0  1  0  0  0  0  0  0  0  0
   -4.1231  -13.4323  -11.7786 S   0  0  0  1  0  0  0  0  0  0  0  0
   -4.8652  -11.8569  -11.7387 C   0  0  0  1  0  0  0  0  0  0  0  0
   -4.5078  -10.9560  -10.9899 O   0  0  0  1  0  0  0  0  0  0  0  0
   -5.9094  -11.6248  -12.8033 C   0  0  0  1  0  0  0  0  0  0  0  0
   -5.4841  -11.8846  -13.7501 H   0  0  0  1  0  0  0  0  0  0  0  0
   -6.1646  -10.5857  -12.7994 H   0  0  0  1  0  0  0  0  0  0  0  0
   -7.1708  -12.4172  -12.6235 C   0  0  0  1  0  0  0  0  0  0  0  0
   -8.2590  -11.8725  -12.7097 O   0  0  0  1  0  0  0  0  0  0  0  0
   -7.0734  -13.8449  -12.3448 C   0  0  0  1  0  0  0  0  0  0  0  0
   -7.5457  -14.1952  -11.4870 H   0  0  0  1  0  0  0  0  0  0  0  0
   -6.4312  -14.7394  -13.0950 C   0  0  0  1  0  0  0  0  0  0  0  0
   -5.9510  -14.4135  -13.9580 H   0  0  0  1  0  0  0  0  0  0  0  0
   -6.3730  -16.1790  -12.7506 C   0  0  0  1  0  0  0  0  0  0  0  0
   -5.6207  -17.0365  -13.5308 C   0  0  0  1  0  0  0  0  0  0  0  0
   -5.1037  -16.6706  -14.3557 H   0  0  0  1  0  0  0  0  0  0  0  0
   -5.5554  -18.3844  -13.2139 C   0  0  0  1  0  0  0  0  0  0  0  0
   -6.2467  -18.8717  -12.1207 C   0  0  0  1  0  0  0  0  0  0  0  0
   -7.0012  -18.0114  -11.3382 C   0  0  0  1  0  0  0  0  0  0  0  0
   -7.5182  -18.3773  -10.5133 H   0  0  0  1  0  0  0  0  0  0  0  0
   -7.0664  -16.6675  -11.6542 C   0  0  0  1  0  0  0  0  0  0  0  0
   -7.6357  -16.0228  -11.0695 H   0  0  0  1  0  0  0  0  0  0  0  0
   -6.1129  -20.2087  -11.9104 O   0  5  0  1  0  0  0  0  0  0  0  0
   -4.7754  -19.0866  -14.0696 O   0  0  0  1  0  0  0  0  0  0  0  0
   -3.6583  -18.3990  -14.6541 C   0  0  0  1  0  0  0  0  0  0  0  0
   -4.0137  -17.6018  -15.2731 H   0  0  0  1  0  0  0  0  0  0  0  0
   -3.0888  -19.0838  -15.2471 H   0  0  0  1  0  0  0  0  0  0  0  0
   -3.0401  -17.9990  -13.8778 H   0  0  0  1  0  0  0  0  0  0  0  0
   -3.0967  -13.1245   -7.1801 O   0  0  0  1  0  0  0  0  0  0  0  0
   -4.0559  -13.0871   -7.1887 H   0  0  0  1  0  0  0  0  0  0  0  0
  1  2  1  0  0  0  0
  1  3  1  0  0  0  0
  1  4  1  0  0  0  0
  1  5  1  0  0  0  0
  5  6  1  0  0  0  0
  5 10  1  0  0  0  0
  5 55  1  0  0  0  0
  6  7  1  0  0  0  0
  6  8  1  0  0  0  0
  6  9  1  0  0  0  0
 10 11  1  0  0  0  0
 10 12  1  0  0  0  0
 10 13  1  0  0  0  0
 13 14  1  0  0  0  0
 14 15  2  0  0  0  0
 14 16  1  0  0  0  0
 14 17  1  0  0  0  0
 17 18  1  0  0  0  0
 18 19  1  0  0  0  0
 18 20  2  0  0  0  0
 18 21  1  0  0  0  0
 21 22  1  0  0  0  0
 22 23  1  0  0  0  0
 22 24  1  0  0  0  0
 22 25  1  0  0  0  0
 25 26  1  0  0  0  0
 25 27  1  0  0  0  0
 25 33  1  0  0  0  0
 27 28  1  0  0  0  0
 27 29  1  0  0  0  0
 27 50  1  0  0  0  0
 29 30  1  0  0  0  0
 29 31  1  0  0  0  0
 29 48  1  0  0  0  0
 31 32  1  0  0  0  0
 31 33  1  0  0  0  0
 31 34  1  0  0  0  0
 34 35  1  0  0  0  0
 34 44  1  0  0  0  0
 35 36  1  0  0  0  0
 35 37  2  0  0  0  0
 37 38  1  0  0  0  0
 38 39  1  0  0  0  0
 38 44  2  0  0  0  0
 39 40  2  0  0  0  0
 39 45  1  0  0  0  0
 40 41  1  0  0  0  0
 41 42  1  0  0  0  0
 41 43  2  0  0  0  0
 43 44  1  0  0  0  0
 45 46  1  0  0  0  0
 45 47  1  0  0  0  0
 48 49  1  0  0  0  0
 50 51  1  0  0  0  0
 51 52  2  0  0  0  0
 51 53  1  0  0  0  0
 51 54  1  0  0  0  0
 55 56  1  0  0  0  0
 55 57  1  0  0  0  0
 55104  1  0  0  0  0
 57 58  2  0  0  0  0
 57 59  1  0  0  0  0
 59 60  1  0  0  0  0
 59 61  1  0  0  0  0
 61 62  1  0  0  0  0
 61 63  1  0  0  0  0
 61 64  1  0  0  0  0
 64 65  1  0  0  0  0
 64 66  1  0  0  0  0
 64 67  1  0  0  0  0
 67 68  2  0  0  0  0
 67 69  1  0  0  0  0
 69 70  1  0  0  0  0
 69 71  1  0  0  0  0
 71 72  1  0  0  0  0
 71 73  1  0  0  0  0
 71 74  1  0  0  0  0
 74 75  1  0  0  0  0
 74 76  1  0  0  0  0
 74 77  1  0  0  0  0
 77 78  1  0  0  0  0
 78 79  2  0  0  0  0
 78 80  1  0  0  0  0
 80 81  1  0  0  0  0
 80 82  1  0  0  0  0
 80 83  1  0  0  0  0
 83 84  2  0  0  0  0
 83 85  1  0  0  0  0
 85 86  1  0  0  0  0
 85 87  2  0  0  0  0
 87 88  1  0  0  0  0
 87 89  1  0  0  0  0
 89 90  2  0  0  0  0
 89 96  1  0  0  0  0
 90 91  1  0  0  0  0
 90 92  1  0  0  0  0
 92 93  2  0  0  0  0
 92 99  1  0  0  0  0
 93 94  1  0  0  0  0
 93 98  1  0  0  0  0
 94 95  1  0  0  0  0
 94 96  2  0  0  0  0
 96 97  1  0  0  0  0
 99100  1  0  0  0  0
100101  1  0  0  0  0
100102  1  0  0  0  0
100103  1  0  0  0  0
104105  1  0  0  0  0
M  BCL ATM C_TeTeTeTe H_S H_S H_S C_TeTeTeTe C_TeTeTeTe H_S H_S H_S C_TeTeTeTe H_S H_S O_Tr2TrTrPi2 P_TeTeTeTePi O_Tr2Tr2TrPi O_Te2Te2Te2Te O_Tr2TrTrPi2 P_TeTeTeTePi O_Te2Te2TeTe O_Tr2Tr2TrPi O_Tr2TrTrPi2 C_TeTeTeTe H_S H_S C_TeTeTeTe H_S C_TeTeTeTe H_S C_TeTeTeTe H_S C_TeTeTeTe H_S O_Te2Te2TeTe N_TrTrTrPi2 C_TrTrTrPi H_S N_Tr2TrTrPi C_TrTrTrPi C_TrTrTrPi N_Tr2TrTrPi C_TrTrTrPi H_S N_Tr2TrTrPi C_TrTrTrPi N_TrTrTrPi2 H_S H_S O_Te2Te2TeTe H_S O_Tr2TrTrPi2 P_TeTeTeTePi O_Tr2Tr2TrPi O_Te2Te2Te2Te O_Te2Te2Te2Te C_TeTeTeTe H_S C_TrTrTrPi O_Tr2Tr2TrPi N_TrTrTrPi2 H_S C_TeTeTeTe H_S H_S C_TeTeTeTe H_S H_S C_TrTrTrPi O_Tr2Tr2TrPi N_TrTrTrPi2 H_S C_TeTeTeTe H_S H_S C_TeTeTeTe H_S H_S S_Te2Te2TeTe C_TrTrTrPi O_Tr2Tr2TrPi C_TeTeTeTe H_S H_S C_TrTrTrPi O_Tr2Tr2TrPi C_TrTrTrPi H_S C_TrTrTrPi H_S C_TrTrTrPi C_TrTrTrPi H_S C_TrTrTrPi C_TrTrTrPi C_TrTrTrPi H_S C_TrTrTrPi H_S O_Te2Te2Te2Te O_Tr2TrTrPi2 C_TeTeTeTe H_S H_S H_S O_Te2Te2TeTe H_S
M  BCL BND NonConjugatedSingleBond NonConjugatedSingleBond NonConjugatedSingleBond NonConjugatedSingleBond NonConjugatedSingleBond NonConjugatedSingleBond NonConjugatedSingleBond NonConjugatedSingleBond NonConjugatedSingleBond NonConjugatedSingleBond NonConjugatedSingleBond NonConjugatedSingleBond NonConjugatedSingleBond ConjugatedSingleBond ConjugatedDoubleBond ConjugatedSingleBond ConjugatedSingleBond ConjugatedSingleBond ConjugatedSingleBond ConjugatedDoubleBond ConjugatedSingleBond NonConjugatedSingleBond NonConjugatedSingleBond NonConjugatedSingleBond NonConjugatedSingleBond NonConjugatedSingleBond NonConjugatedSingleBondInRing NonConjugatedSingleBondInRing NonConjugatedSingleBond NonConjugatedSingleBondInRing NonConjugatedSingleBond NonConjugatedSingleBond NonConjugatedSingleBondInRing NonConjugatedSingleBond NonConjugatedSingleBond NonConjugatedSingleBondInRing NonConjugatedSingleBond AromaticSingleBond AromaticSingleBond NonConjugatedSingleBond AromaticDoubleBond AromaticSingleBond AromaticSingleBond AromaticDoubleBond AromaticDoubleBond ConjugatedSingleBond AromaticSingleBond NonConjugatedSingleBond AromaticDoubleBond AromaticSingleBond NonConjugatedSingleBond NonConjugatedSingleBond NonConjugatedSingleBond ConjugatedSingleBond ConjugatedDoubleBond ConjugatedSingleBond ConjugatedSingleBond NonConjugatedSingleBond NonConjugatedSingleBond NonConjugatedSingleBond ConjugatedDoubleBond AmideSingleBond NonConjugatedSingleBond NonConjugatedSingleBond NonConjugatedSingleBond NonConjugatedSingleBond NonConjugatedSingleBond NonConjugatedSingleBond NonConjugatedSingleBond NonConjugatedSingleBond ConjugatedDoubleBond AmideSingleBond NonConjugatedSingleBond NonConjugatedSingleBond NonConjugatedSingleBond NonConjugatedSingleBond NonConjugatedSingleBond NonConjugatedSingleBond NonConjugatedSingleBond NonConjugatedSingleBond ConjugatedSingleBond ConjugatedDoubleBond NonConjugatedSingleBond NonConjugatedSingleBond NonConjugatedSingleBond NonConjugatedSingleBond ConjugatedDoubleBond ConjugatedSingleBond NonConjugatedSingleBond ConjugatedDoubleBond NonConjugatedSingleBond ConjugatedSingleBond AromaticDoubleBond AromaticSingleBond NonConjugatedSingleBond AromaticSingleBond AromaticDoubleBond ConjugatedSingleBond AromaticSingleBond ConjugatedSingleBond NonConjugatedSingleBond AromaticDoubleBond NonConjugatedSingleBond NonConjugatedSingleBond NonConjugatedSingleBond NonConjugatedSingleBond NonConjugatedSingleBond NonConjugatedSingleBond
M  BCL CHI  14   R  18   S  25   R  27   R  29   R  31   S  55   R
M  BCL DBI - - - - - - - - - - - E - - -
M  END
> <ConfClashScore>
0 

> <ConfOneFourInteractionScore>
-0.964811 

> <ConfScore>
0.31935 

> <ConfScorePBest>
0.00685847 

> <ConfTolerance>
3.19183 

$$$$
L03.****
  PyMOL2.5          3D                             0

105108  0  0  0  0  0  0  0  0999 V2000
   -4.3846  -11.5154    6.1220 C   0  0  0  1  0  0  0  0  0  0  0  0
   -3.7739  -11.9931    5.3847 H   0  0  0  1  0  0  0  0  0  0  0  0
   -4.8278  -12.2574    6.7529 H   0  0  0  1  0  0  0  0  0  0  0  0
   -3.7815  -10.8581    6.7129 H   0  0  0  1  0  0  0  0  0  0  0  0
   -5.4890  -10.7094    5.4279 C   0  0  0  1  0  0  0  0  0  0  0  0
   -5.3706  -10.8929    3.9101 C   0  0  0  1  0  0  0  0  0  0  0  0
   -5.0591   -9.9724    3.4623 H   0  0  0  1  0  0  0  0  0  0  0  0
   -6.3209  -11.1799    3.5106 H   0  0  0  1  0  0  0  0  0  0  0  0
   -4.6494  -11.6544    3.6984 H   0  0  0  1  0  0  0  0  0  0  0  0
   -5.2800   -9.2616    5.7284 C   0  0  0  1  0  0  0  0  0  0  0  0
   -5.5978   -9.0472    6.7273 H   0  0  0  1  0  0  0  0  0  0  0  0
   -5.8379   -8.6622    5.0396 H   0  0  0  1  0  0  0  0  0  0  0  0
   -3.8666   -8.9839    5.5907 O   0  0  0  1  0  0  0  0  0  0  0  0
   -3.2597   -8.5577    4.2028 P   0  0  0  1  0  0  0  0  0  0  0  0
   -4.1350   -7.3644    4.1861 O   0  0  0  1  0  0  0  0  0  0  0  0
   -2.1635   -9.1858    5.2168 O   0  5  0  1  0  0  0  0  0  0  0  0
   -2.6403   -8.1221    2.7859 O   0  0  0  1  0  0  0  0  0  0  0  0
   -2.9728   -8.5481    1.2963 P   0  0  0  1  0  0  0  0  0  0  0  0
   -4.0766   -9.5319    1.3557 O   0  0  0  0  0  0  0  0  0  0  0  0
   -1.7338   -8.9032    0.5644 O   0  0  0  1  0  0  0  0  0  0  0  0
   -3.4911   -7.2137    0.6429 O   0  0  0  1  0  0  0  0  0  0  0  0
   -2.6469   -6.0400    0.5839 C   0  0  0  1  0  0  0  0  0  0  0  0
   -1.8963   -6.1831   -0.1652 H   0  0  0  1  0  0  0  0  0  0  0  0
   -2.1790   -5.8943    1.5351 H   0  0  0  1  0  0  0  0  0  0  0  0
   -3.4659   -4.8182    0.2402 C   0  0  0  1  0  0  0  0  0  0  0  0
   -4.1303   -4.5947    1.0486 H   0  0  0  1  0  0  0  0  0  0  0  0
   -4.2684   -5.0600   -1.0620 C   0  0  0  1  0  0  0  0  0  0  0  0
   -5.2442   -4.6255   -0.9995 H   0  0  0  1  0  0  0  0  0  0  0  0
   -3.4243   -4.3597   -2.1122 C   0  0  0  1  0  0  0  0  0  0  0  0
   -4.0319   -3.9866   -2.9100 H   0  0  0  1  0  0  0  0  0  0  0  0
   -2.7855   -3.2099   -1.3172 C   0  0  0  1  0  0  0  0  0  0  0  0
   -3.4342   -2.3591   -1.3073 H   0  0  0  1  0  0  0  0  0  0  0  0
   -2.6025   -3.6970   -0.0190 O   0  0  0  1  0  0  0  0  0  0  0  0
   -1.4955   -2.8357   -1.9084 N   0  0  0  1  0  0  0  0  0  0  0  0
   -0.4472   -3.6605   -2.1816 C   0  0  0  1  0  0  0  0  0  0  0  0
   -0.4688   -4.6837   -1.9969 H   0  0  0  1  0  0  0  0  0  0  0  0
    0.5985   -3.0463   -2.7015 N   0  0  0  1  0  0  0  0  0  0  0  0
    0.1728   -1.7206   -2.7890 C   0  0  0  1  0  0  0  0  0  0  0  0
    0.8082   -0.5682   -3.2829 C   0  0  0  1  0  0  0  0  0  0  0  0
    0.1208    0.5981   -3.2218 N   0  0  0  1  0  0  0  0  0  0  0  0
   -1.1194    0.5792   -2.7016 C   0  0  0  1  0  0  0  0  0  0  0  0
   -1.6021    1.5000   -2.6755 H   0  0  0  1  0  0  0  0  0  0  0  0
   -1.8223   -0.4432   -2.2144 N   0  0  0  1  0  0  0  0  0  0  0  0
   -1.0950   -1.5756   -2.3020 C   0  0  0  1  0  0  0  0  0  0  0  0
    2.0875   -0.6225   -3.8115 N   0  0  0  1  0  0  0  0  0  0  0  0
    2.5755   -1.4722   -3.8272 H   0  0  0  1  0  0  0  0  0  0  0  0
    2.5044    0.1888   -4.1699 H   0  0  0  1  0  0  0  0  0  0  0  0
   -2.4271   -5.2372   -2.6418 O   0  0  0  1  0  0  0  0  0  0  0  0
   -2.4495   -5.2059   -3.6010 H   0  0  0  1  0  0  0  0  0  0  0  0
   -4.3869   -6.4781   -1.3472 O   0  0  0  1  0  0  0  0  0  0  0  0
   -4.5516   -6.8849   -2.9274 P   0  0  0  1  0  0  0  0  0  0  0  0
   -3.2320   -7.0494   -3.5770 O   0  0  0  1  0  0  0  0  0  0  0  0
   -5.4750   -8.2085   -3.0678 O   0  5  0  1  0  0  0  0  0  0  0  0
   -5.3895   -5.7252   -3.6873 O   0  5  0  1  0  0  0  0  0  0  0  0
   -6.9153  -11.1338    5.8449 C   0  0  0  1  0  0  0  0  0  0  0  0
   -7.6238  -10.5298    5.3175 H   0  0  0  1  0  0  0  0  0  0  0  0
   -7.0936  -12.5861    5.4337 C   0  0  0  1  0  0  0  0  0  0  0  0
   -6.1752  -13.3849    5.5164 O   0  0  0  1  0  0  0  0  0  0  0  0
   -8.3124  -12.9185    4.9817 N   0  0  0  1  0  0  0  0  0  0  0  0
   -9.0055  -12.2271    4.9381 H   0  0  0  1  0  0  0  0  0  0  0  0
   -8.6410  -14.2702    4.5540 C   0  0  0  1  0  0  0  0  0  0  0  0
   -9.6888  -14.4307    4.6995 H   0  0  0  1  0  0  0  0  0  0  0  0
   -8.0871  -14.9633    5.1521 H   0  0  0  1  0  0  0  0  0  0  0  0
   -8.3085  -14.5161    3.0881 C   0  0  0  1  0  0  0  0  0  0  0  0
   -8.5637  -15.5266    2.8459 H   0  0  0  1  0  0  0  0  0  0  0  0
   -7.2579  -14.3696    2.9480 H   0  0  0  1  0  0  0  0  0  0  0  0
   -9.0587  -13.5858    2.1414 C   0  0  0  1  0  0  0  0  0  0  0  0
  -10.2675  -13.7627    1.9981 O   0  0  0  1  0  0  0  0  0  0  0  0
   -8.3688  -12.6320    1.5197 N   0  0  0  1  0  0  0  0  0  0  0  0
   -7.4200  -12.5169    1.7364 H   0  0  0  1  0  0  0  0  0  0  0  0
   -8.9746  -11.7543    0.5295 C   0  0  0  1  0  0  0  0  0  0  0  0
  -10.0174  -11.9837    0.4602 H   0  0  0  1  0  0  0  0  0  0  0  0
   -8.5065  -11.9301   -0.4166 H   0  0  0  1  0  0  0  0  0  0  0  0
   -8.8229  -10.2948    0.8800 C   0  0  0  1  0  0  0  0  0  0  0  0
   -8.9571   -9.7158   -0.0097 H   0  0  0  1  0  0  0  0  0  0  0  0
   -7.8362  -10.1379    1.2629 H   0  0  0  1  0  0  0  0  0  0  0  0
  -10.0158   -9.7317    2.1173 S   0  0  0  1  0  0  0  0  0  0  0  0
   -9.3540   -8.1760    2.5914 C   0  0  0  1  0  0  0  0  0  0  0  0
   -8.2619   -7.7727    2.2943 O   0  0  0  1  0  0  0  0  0  0  0  0
  -10.2663   -7.3996    3.5088 C   0  0  0  1  0  0  0  0  0  0  0  0
  -11.2680   -7.7521    3.3772 H   0  0  0  1  0  0  0  0  0  0  0  0
  -10.2154   -6.3630    3.2485 H   0  0  0  1  0  0  0  0  0  0  0  0
   -9.8839   -7.5551    4.9588 C   0  0  0  1  0  0  0  0  0  0  0  0
   -8.7109   -7.5888    5.2863 O   0  0  0  1  0  0  0  0  0  0  0  0
  -10.9403   -7.6641    5.9602 C   0  0  0  1  0  0  0  0  0  0  0  0
  -10.6361   -7.6136    6.9534 H   0  0  0  1  0  0  0  0  0  0  0  0
  -12.2475   -7.8206    5.7549 C   0  0  0  1  0  0  0  0  0  0  0  0
  -12.6149   -7.8783    4.7836 H   0  0  0  1  0  0  0  0  0  0  0  0
  -13.1831   -7.9132    6.9051 C   0  0  0  1  0  0  0  0  0  0  0  0
  -14.5055   -8.2796    6.7406 C   0  0  0  1  0  0  0  0  0  0  0  0
  -14.8917   -8.4185    5.7849 H   0  0  0  1  0  0  0  0  0  0  0  0
  -15.3171   -8.4619    7.8494 C   0  0  0  1  0  0  0  0  0  0  0  0
  -14.8055   -8.2721    9.1192 C   0  0  0  1  0  0  0  0  0  0  0  0
  -13.4790   -7.9047    9.2841 C   0  0  0  1  0  0  0  0  0  0  0  0
  -13.0929   -7.7658   10.2397 H   0  0  0  1  0  0  0  0  0  0  0  0
  -12.6697   -7.7229    8.1785 C   0  0  0  1  0  0  0  0  0  0  0  0
  -11.6756   -7.4433    8.3021 H   0  0  0  1  0  0  0  0  0  0  0  0
  -15.6297   -8.4540   10.1856 O   0  5  0  1  0  0  0  0  0  0  0  0
  -16.6215   -8.8240    7.8132 O   0  0  0  1  0  0  0  0  0  0  0  0
  -17.2218   -8.9860    6.5186 C   0  0  0  1  0  0  0  0  0  0  0  0
  -16.9135   -9.9195    6.0963 H   0  0  0  1  0  0  0  0  0  0  0  0
  -16.9119   -8.1859    5.8793 H   0  0  0  1  0  0  0  0  0  0  0  0
  -18.2873   -8.9734    6.6157 H   0  0  0  1  0  0  0  0  0  0  0  0
   -7.0729  -10.9810    7.2445 O   0  0  0  1  0  0  0  0  0  0  0  0
   -7.8467  -10.4416    7.4229 H   0  0  0  1  0  0  0  0  0  0  0  0
  1  2  1  0  0  0  0
  1  3  1  0  0  0  0
  1  4  1  0  0  0  0
  1  5  1  0  0  0  0
  5  6  1  0  0  0  0
  5 10  1  0  0  0  0
  5 55  1  0  0  0  0
  6  7  1  0  0  0  0
  6  8  1  0  0  0  0
  6  9  1  0  0  0  0
 10 11  1  0  0  0  0
 10 12  1  0  0  0  0
 10 13  1  0  0  0  0
 13 14  1  0  0  0  0
 14 15  2  0  0  0  0
 14 16  1  0  0  0  0
 14 17  1  0  0  0  0
 17 18  1  0  0  0  0
 18 19  1  0  0  0  0
 18 20  2  0  0  0  0
 18 21  1  0  0  0  0
 21 22  1  0  0  0  0
 22 23  1  0  0  0  0
 22 24  1  0  0  0  0
 22 25  1  0  0  0  0
 25 26  1  0  0  0  0
 25 27  1  0  0  0  0
 25 33  1  0  0  0  0
 27 28  1  0  0  0  0
 27 29  1  0  0  0  0
 27 50  1  0  0  0  0
 29 30  1  0  0  0  0
 29 31  1  0  0  0  0
 29 48  1  0  0  0  0
 31 32  1  0  0  0  0
 31 33  1  0  0  0  0
 31 34  1  0  0  0  0
 34 35  1  0  0  0  0
 34 44  1  0  0  0  0
 35 36  1  0  0  0  0
 35 37  2  0  0  0  0
 37 38  1  0  0  0  0
 38 39  1  0  0  0  0
 38 44  2  0  0  0  0
 39 40  2  0  0  0  0
 39 45  1  0  0  0  0
 40 41  1  0  0  0  0
 41 42  1  0  0  0  0
 41 43  2  0  0  0  0
 43 44  1  0  0  0  0
 45 46  1  0  0  0  0
 45 47  1  0  0  0  0
 48 49  1  0  0  0  0
 50 51  1  0  0  0  0
 51 52  2  0  0  0  0
 51 53  1  0  0  0  0
 51 54  1  0  0  0  0
 55 56  1  0  0  0  0
 55 57  1  0  0  0  0
 55104  1  0  0  0  0
 57 58  2  0  0  0  0
 57 59  1  0  0  0  0
 59 60  1  0  0  0  0
 59 61  1  0  0  0  0
 61 62  1  0  0  0  0
 61 63  1  0  0  0  0
 61 64  1  0  0  0  0
 64 65  1  0  0  0  0
 64 66  1  0  0  0  0
 64 67  1  0  0  0  0
 67 68  2  0  0  0  0
 67 69  1  0  0  0  0
 69 70  1  0  0  0  0
 69 71  1  0  0  0  0
 71 72  1  0  0  0  0
 71 73  1  0  0  0  0
 71 74  1  0  0  0  0
 74 75  1  0  0  0  0
 74 76  1  0  0  0  0
 74 77  1  0  0  0  0
 77 78  1  0  0  0  0
 78 79  2  0  0  0  0
 78 80  1  0  0  0  0
 80 81  1  0  0  0  0
 80 82  1  0  0  0  0
 80 83  1  0  0  0  0
 83 84  2  0  0  0  0
 83 85  1  0  0  0  0
 85 86  1  0  0  0  0
 85 87  2  0  0  0  0
 87 88  1  0  0  0  0
 87 89  1  0  0  0  0
 89 90  2  0  0  0  0
 89 96  1  0  0  0  0
 90 91  1  0  0  0  0
 90 92  1  0  0  0  0
 92 93  2  0  0  0  0
 92 99  1  0  0  0  0
 93 94  1  0  0  0  0
 93 98  1  0  0  0  0
 94 95  1  0  0  0  0
 94 96  2  0  0  0  0
 96 97  1  0  0  0  0
 99100  1  0  0  0  0
100101  1  0  0  0  0
100102  1  0  0  0  0
100103  1  0  0  0  0
104105  1  0  0  0  0
M  BCL ATM C_TeTeTeTe H_S H_S H_S C_TeTeTeTe C_TeTeTeTe H_S H_S H_S C_TeTeTeTe H_S H_S O_Tr2TrTrPi2 P_TeTeTeTePi O_Tr2Tr2TrPi O_Te2Te2Te2Te O_Tr2TrTrPi2 P_TeTeTeTePi O_Te2Te2TeTe O_Tr2Tr2TrPi O_Tr2TrTrPi2 C_TeTeTeTe H_S H_S C_TeTeTeTe H_S C_TeTeTeTe H_S C_TeTeTeTe H_S C_TeTeTeTe H_S O_Te2Te2TeTe N_TrTrTrPi2 C_TrTrTrPi H_S N_Tr2TrTrPi C_TrTrTrPi C_TrTrTrPi N_Tr2TrTrPi C_TrTrTrPi H_S N_Tr2TrTrPi C_TrTrTrPi N_TrTrTrPi2 H_S H_S O_Te2Te2TeTe H_S O_Tr2TrTrPi2 P_TeTeTeTePi O_Tr2Tr2TrPi O_Te2Te2Te2Te O_Te2Te2Te2Te C_TeTeTeTe H_S C_TrTrTrPi O_Tr2Tr2TrPi N_TrTrTrPi2 H_S C_TeTeTeTe H_S H_S C_TeTeTeTe H_S H_S C_TrTrTrPi O_Tr2Tr2TrPi N_TrTrTrPi2 H_S C_TeTeTeTe H_S H_S C_TeTeTeTe H_S H_S S_Te2Te2TeTe C_TrTrTrPi O_Tr2Tr2TrPi C_TeTeTeTe H_S H_S C_TrTrTrPi O_Tr2Tr2TrPi C_TrTrTrPi H_S C_TrTrTrPi H_S C_TrTrTrPi C_TrTrTrPi H_S C_TrTrTrPi C_TrTrTrPi C_TrTrTrPi H_S C_TrTrTrPi H_S O_Te2Te2Te2Te O_Tr2TrTrPi2 C_TeTeTeTe H_S H_S H_S O_Te2Te2TeTe H_S
M  BCL BND NonConjugatedSingleBond NonConjugatedSingleBond NonConjugatedSingleBond NonConjugatedSingleBond NonConjugatedSingleBond NonConjugatedSingleBond NonConjugatedSingleBond NonConjugatedSingleBond NonConjugatedSingleBond NonConjugatedSingleBond NonConjugatedSingleBond NonConjugatedSingleBond NonConjugatedSingleBond ConjugatedSingleBond ConjugatedDoubleBond ConjugatedSingleBond ConjugatedSingleBond ConjugatedSingleBond ConjugatedSingleBond ConjugatedDoubleBond ConjugatedSingleBond NonConjugatedSingleBond NonConjugatedSingleBond NonConjugatedSingleBond NonConjugatedSingleBond NonConjugatedSingleBond NonConjugatedSingleBondInRing NonConjugatedSingleBondInRing NonConjugatedSingleBond NonConjugatedSingleBondInRing NonConjugatedSingleBond NonConjugatedSingleBond NonConjugatedSingleBondInRing NonConjugatedSingleBond NonConjugatedSingleBond NonConjugatedSingleBondInRing NonConjugatedSingleBond AromaticSingleBond AromaticSingleBond NonConjugatedSingleBond AromaticDoubleBond AromaticSingleBond AromaticSingleBond AromaticDoubleBond AromaticDoubleBond ConjugatedSingleBond AromaticSingleBond NonConjugatedSingleBond AromaticDoubleBond AromaticSingleBond NonConjugatedSingleBond NonConjugatedSingleBond NonConjugatedSingleBond ConjugatedSingleBond ConjugatedDoubleBond ConjugatedSingleBond ConjugatedSingleBond NonConjugatedSingleBond NonConjugatedSingleBond NonConjugatedSingleBond ConjugatedDoubleBond AmideSingleBond NonConjugatedSingleBond NonConjugatedSingleBond NonConjugatedSingleBond NonConjugatedSingleBond NonConjugatedSingleBond NonConjugatedSingleBond NonConjugatedSingleBond NonConjugatedSingleBond ConjugatedDoubleBond AmideSingleBond NonConjugatedSingleBond NonConjugatedSingleBond NonConjugatedSingleBond NonConjugatedSingleBond NonConjugatedSingleBond NonConjugatedSingleBond NonConjugatedSingleBond NonConjugatedSingleBond ConjugatedSingleBond ConjugatedDoubleBond NonConjugatedSingleBond NonConjugatedSingleBond NonConjugatedSingleBond NonConjugatedSingleBond ConjugatedDoubleBond ConjugatedSingleBond NonConjugatedSingleBond ConjugatedDoubleBond NonConjugatedSingleBond ConjugatedSingleBond AromaticDoubleBond AromaticSingleBond NonConjugatedSingleBond AromaticSingleBond AromaticDoubleBond ConjugatedSingleBond AromaticSingleBond ConjugatedSingleBond NonConjugatedSingleBond AromaticDoubleBond NonConjugatedSingleBond NonConjugatedSingleBond NonConjugatedSingleBond NonConjugatedSingleBond NonConjugatedSingleBond NonConjugatedSingleBond
M  BCL CHI  14   R  18   S  25   R  27   R  29   R  31   S  55   R
M  BCL DBI - - - - - - - - - - - E - - -
M  END
> <ConfClashScore>
0.00102442 

> <ConfOneFourInteractionScore>
-0.970625 

> <ConfScore>
0.327028 

> <ConfScorePBest>
0.00675547 

> <ConfTolerance>
3.5023 

$$$$
L03.****
  PyMOL2.5          3D                             0

105108  0  0  0  0  0  0  0  0999 V2000
   -3.4639    7.8799    0.2784 C   0  0  0  1  0  0  0  0  0  0  0  0
   -3.3908    8.8434   -0.1811 H   0  0  0  1  0  0  0  0  0  0  0  0
   -2.9637    7.8972    1.2242 H   0  0  0  1  0  0  0  0  0  0  0  0
   -4.4945    7.6317    0.4239 H   0  0  0  1  0  0  0  0  0  0  0  0
   -2.8086    6.8300   -0.6268 C   0  0  0  1  0  0  0  0  0  0  0  0
   -2.4726    7.5091   -1.9599 C   0  0  0  1  0  0  0  0  0  0  0  0
   -3.3408    8.0100   -2.3344 H   0  0  0  1  0  0  0  0  0  0  0  0
   -2.1549    6.7706   -2.6660 H   0  0  0  1  0  0  0  0  0  0  0  0
   -1.6877    8.2206   -1.8097 H   0  0  0  1  0  0  0  0  0  0  0  0
   -3.7653    5.7069   -0.8576 C   0  0  0  1  0  0  0  0  0  0  0  0
   -4.6757    6.0836   -1.2749 H   0  0  0  1  0  0  0  0  0  0  0  0
   -3.9746    5.2107    0.0669 H   0  0  0  1  0  0  0  0  0  0  0  0
   -3.1441    4.7837   -1.7827 O   0  0  0  1  0  0  0  0  0  0  0  0
   -3.9669    3.6025   -2.4183 P   0  0  0  1  0  0  0  0  0  0  0  0
   -3.1096    3.6535   -3.6236 O   0  0  0  1  0  0  0  0  0  0  0  0
   -3.7295    3.4345   -0.8246 O   0  5  0  1  0  0  0  0  0  0  0  0
   -4.8069    2.3961   -3.0678 O   0  0  0  1  0  0  0  0  0  0  0  0
   -6.0563    1.6598   -2.4678 P   0  0  0  1  0  0  0  0  0  0  0  0
   -6.9191    1.3181   -3.6802 O   0  0  0  0  0  0  0  0  0  0  0  0
   -6.7658    2.4571   -1.4264 O   0  0  0  1  0  0  0  0  0  0  0  0
   -5.5645    0.3282   -1.7816 O   0  0  0  1  0  0  0  0  0  0  0  0
   -4.9051   -0.7039   -2.5525 C   0  0  0  1  0  0  0  0  0  0  0  0
   -3.9179   -0.3869   -2.8167 H   0  0  0  1  0  0  0  0  0  0  0  0
   -5.4645   -0.9083   -3.4415 H   0  0  0  1  0  0  0  0  0  0  0  0
   -4.8337   -1.9569   -1.6838 C   0  0  0  1  0  0  0  0  0  0  0  0
   -5.8092   -2.3881   -1.5980 H   0  0  0  1  0  0  0  0  0  0  0  0
   -4.3119   -1.6035   -0.3224 C   0  0  0  1  0  0  0  0  0  0  0  0
   -5.0350   -1.8635    0.4221 H   0  0  0  1  0  0  0  0  0  0  0  0
   -3.0470   -2.3765   -0.0946 C   0  0  0  1  0  0  0  0  0  0  0  0
   -3.1581   -3.0107    0.7600 H   0  0  0  1  0  0  0  0  0  0  0  0
   -2.7864   -3.2085   -1.3158 C   0  0  0  1  0  0  0  0  0  0  0  0
   -2.7714   -4.2454   -1.0521 H   0  0  0  1  0  0  0  0  0  0  0  0
   -3.8910   -2.9489   -2.2978 O   0  0  0  1  0  0  0  0  0  0  0  0
   -1.4979   -2.8350   -1.9064 N   0  0  0  1  0  0  0  0  0  0  0  0
   -0.4494   -3.6599   -2.1786 C   0  0  0  1  0  0  0  0  0  0  0  0
   -0.4709   -4.6830   -1.9929 H   0  0  0  1  0  0  0  0  0  0  0  0
    0.5963   -3.0461   -2.6988 N   0  0  0  1  0  0  0  0  0  0  0  0
    0.1705   -1.7205   -2.7876 C   0  0  0  1  0  0  0  0  0  0  0  0
    0.8058   -0.5685   -3.2824 C   0  0  0  1  0  0  0  0  0  0  0  0
    0.1181    0.5977   -3.2226 N   0  0  0  1  0  0  0  0  0  0  0  0
   -1.1222    0.5791   -2.7026 C   0  0  0  1  0  0  0  0  0  0  0  0
   -1.6050    1.4999   -2.6775 H   0  0  0  1  0  0  0  0  0  0  0  0
   -1.8250   -0.4429   -2.2147 N   0  0  0  1  0  0  0  0  0  0  0  0
   -1.0975   -1.5753   -2.3010 C   0  0  0  1  0  0  0  0  0  0  0  0
    2.0968   -0.6236   -3.8156 N   0  0  0  1  0  0  0  0  0  0  0  0
    2.5454    0.2003   -4.0992 H   0  0  0  1  0  0  0  0  0  0  0  0
    2.5534   -1.4860   -3.9057 H   0  0  0  1  0  0  0  0  0  0  0  0
   -1.9595   -1.4747    0.1188 O   0  0  0  1  0  0  0  0  0  0  0  0
   -1.1796   -1.9695    0.3803 H   0  0  0  1  0  0  0  0  0  0  0  0
   -4.0375   -0.1801   -0.2550 O   0  0  0  1  0  0  0  0  0  0  0  0
   -4.2709    0.6561    1.1364 P   0  0  0  1  0  0  0  0  0  0  0  0
   -4.5718    2.0725    0.8301 O   0  0  0  1  0  0  0  0  0  0  0  0
   -5.4021   -0.1186    1.9993 O   0  5  0  1  0  0  0  0  0  0  0  0
   -2.8623    0.5927    1.9340 O   0  5  0  1  0  0  0  0  0  0  0  0
   -1.5107    6.3360    0.0232 C   0  0  0  1  0  0  0  0  0  0  0  0
   -1.0050    7.1849    0.4337 H   0  0  0  1  0  0  0  0  0  0  0  0
   -1.7691    5.3519    1.1490 C   0  0  0  1  0  0  0  0  0  0  0  0
   -2.3260    4.2749    0.9403 O   0  0  0  1  0  0  0  0  0  0  0  0
   -1.3532    5.7356    2.3655 N   0  0  0  1  0  0  0  0  0  0  0  0
   -0.8666    6.5817    2.4540 H   0  0  0  1  0  0  0  0  0  0  0  0
   -1.5995    4.9391    3.5583 C   0  0  0  1  0  0  0  0  0  0  0  0
   -2.6203    4.6186    3.5519 H   0  0  0  1  0  0  0  0  0  0  0  0
   -1.4217    5.5480    4.4200 H   0  0  0  1  0  0  0  0  0  0  0  0
   -0.7012    3.7082    3.6359 C   0  0  0  1  0  0  0  0  0  0  0  0
   -0.9915    3.0135    2.8756 H   0  0  0  1  0  0  0  0  0  0  0  0
   -0.8128    3.2524    4.5975 H   0  0  0  1  0  0  0  0  0  0  0  0
    0.7448    4.0876    3.4331 C   0  0  0  1  0  0  0  0  0  0  0  0
    1.3417    4.7837    4.2501 O   0  0  0  1  0  0  0  0  0  0  0  0
    1.3196    3.6174    2.3156 N   0  0  0  1  0  0  0  0  0  0  0  0
    0.8184    2.9900    1.7539 H   0  0  0  1  0  0  0  0  0  0  0  0
    2.6615    4.0068    1.9086 C   0  0  0  1  0  0  0  0  0  0  0  0
    3.0350    4.7110    2.6224 H   0  0  0  1  0  0  0  0  0  0  0  0
    2.5962    4.4728    0.9476 H   0  0  0  1  0  0  0  0  0  0  0  0
    3.6462    2.8679    1.8125 C   0  0  0  1  0  0  0  0  0  0  0  0
    4.6142    3.2820    1.6219 H   0  0  0  1  0  0  0  0  0  0  0  0
    3.3553    2.2468    0.9913 H   0  0  0  1  0  0  0  0  0  0  0  0
    3.7627    1.8278    3.2875 S   0  0  0  1  0  0  0  0  0  0  0  0
    2.4035    0.7037    3.0644 C   0  0  0  1  0  0  0  0  0  0  0  0
    1.6535    0.7478    2.1269 O   0  0  0  1  0  0  0  0  0  0  0  0
    2.3048   -0.3039    4.1831 C   0  0  0  1  0  0  0  0  0  0  0  0
    3.2791   -0.4277    4.6077 H   0  0  0  1  0  0  0  0  0  0  0  0
    1.9757   -1.2332    3.7672 H   0  0  0  1  0  0  0  0  0  0  0  0
    1.3548    0.0787    5.2896 C   0  0  0  1  0  0  0  0  0  0  0  0
    0.3627   -0.5958    5.5116 O   0  0  0  1  0  0  0  0  0  0  0  0
    1.6416    1.2649    6.0871 C   0  0  0  1  0  0  0  0  0  0  0  0
    2.5889    1.6837    5.9927 H   0  0  0  1  0  0  0  0  0  0  0  0
    0.7941    1.8585    6.9265 C   0  0  0  1  0  0  0  0  0  0  0  0
   -0.1407    1.4071    6.9899 H   0  0  0  1  0  0  0  0  0  0  0  0
    0.9616    3.0544    7.7845 C   0  0  0  1  0  0  0  0  0  0  0  0
    2.1187    3.8043    7.6901 C   0  0  0  1  0  0  0  0  0  0  0  0
    2.8661    3.5254    7.0229 H   0  0  0  1  0  0  0  0  0  0  0  0
    2.2828    4.9282    8.4847 C   0  0  0  1  0  0  0  0  0  0  0  0
    1.2918    5.2959    9.3752 C   0  0  0  1  0  0  0  0  0  0  0  0
    0.1313    4.5436    9.4699 C   0  0  0  1  0  0  0  0  0  0  0  0
   -0.6162    4.8225   10.1370 H   0  0  0  1  0  0  0  0  0  0  0  0
   -0.0325    3.4230    8.6776 C   0  0  0  1  0  0  0  0  0  0  0  0
   -0.9014    2.8563    8.7515 H   0  0  0  1  0  0  0  0  0  0  0  0
    1.3441    6.3714   10.2060 O   0  5  0  1  0  0  0  0  0  0  0  0
    3.4308    5.6183    8.3406 O   0  0  0  1  0  0  0  0  0  0  0  0
    4.4841    4.9153    7.6415 C   0  0  0  1  0  0  0  0  0  0  0  0
    4.7731    4.0529    8.2051 H   0  0  0  1  0  0  0  0  0  0  0  0
    5.3276    5.5630    7.5234 H   0  0  0  1  0  0  0  0  0  0  0  0
    4.1307    4.6099    6.6788 H   0  0  0  1  0  0  0  0  0  0  0  0
   -0.7244    5.7755   -1.0135 O   0  0  0  1  0  0  0  0  0  0  0  0
   -1.2880    5.5502   -1.7572 H   0  0  0  1  0  0  0  0  0  0  0  0
  1  2  1  0  0  0  0
  1  3  1  0  0  0  0
  1  4  1  0  0  0  0
  1  5  1  0  0  0  0
  5  6  1  0  0  0  0
  5 10  1  0  0  0  0
  5 55  1  0  0  0  0
  6  7  1  0  0  0  0
  6  8  1  0  0  0  0
  6  9  1  0  0  0  0
 10 11  1  0  0  0  0
 10 12  1  0  0  0  0
 10 13  1  0  0  0  0
 13 14  1  0  0  0  0
 14 15  2  0  0  0  0
 14 16  1  0  0  0  0
 14 17  1  0  0  0  0
 17 18  1  0  0  0  0
 18 19  1  0  0  0  0
 18 20  2  0  0  0  0
 18 21  1  0  0  0  0
 21 22  1  0  0  0  0
 22 23  1  0  0  0  0
 22 24  1  0  0  0  0
 22 25  1  0  0  0  0
 25 26  1  0  0  0  0
 25 27  1  0  0  0  0
 25 33  1  0  0  0  0
 27 28  1  0  0  0  0
 27 29  1  0  0  0  0
 27 50  1  0  0  0  0
 29 30  1  0  0  0  0
 29 31  1  0  0  0  0
 29 48  1  0  0  0  0
 31 32  1  0  0  0  0
 31 33  1  0  0  0  0
 31 34  1  0  0  0  0
 34 35  1  0  0  0  0
 34 44  1  0  0  0  0
 35 36  1  0  0  0  0
 35 37  2  0  0  0  0
 37 38  1  0  0  0  0
 38 39  1  0  0  0  0
 38 44  2  0  0  0  0
 39 40  2  0  0  0  0
 39 45  1  0  0  0  0
 40 41  1  0  0  0  0
 41 42  1  0  0  0  0
 41 43  2  0  0  0  0
 43 44  1  0  0  0  0
 45 46  1  0  0  0  0
 45 47  1  0  0  0  0
 48 49  1  0  0  0  0
 50 51  1  0  0  0  0
 51 52  2  0  0  0  0
 51 53  1  0  0  0  0
 51 54  1  0  0  0  0
 55 56  1  0  0  0  0
 55 57  1  0  0  0  0
 55104  1  0  0  0  0
 57 58  2  0  0  0  0
 57 59  1  0  0  0  0
 59 60  1  0  0  0  0
 59 61  1  0  0  0  0
 61 62  1  0  0  0  0
 61 63  1  0  0  0  0
 61 64  1  0  0  0  0
 64 65  1  0  0  0  0
 64 66  1  0  0  0  0
 64 67  1  0  0  0  0
 67 68  2  0  0  0  0
 67 69  1  0  0  0  0
 69 70  1  0  0  0  0
 69 71  1  0  0  0  0
 71 72  1  0  0  0  0
 71 73  1  0  0  0  0
 71 74  1  0  0  0  0
 74 75  1  0  0  0  0
 74 76  1  0  0  0  0
 74 77  1  0  0  0  0
 77 78  1  0  0  0  0
 78 79  2  0  0  0  0
 78 80  1  0  0  0  0
 80 81  1  0  0  0  0
 80 82  1  0  0  0  0
 80 83  1  0  0  0  0
 83 84  2  0  0  0  0
 83 85  1  0  0  0  0
 85 86  1  0  0  0  0
 85 87  2  0  0  0  0
 87 88  1  0  0  0  0
 87 89  1  0  0  0  0
 89 90  2  0  0  0  0
 89 96  1  0  0  0  0
 90 91  1  0  0  0  0
 90 92  1  0  0  0  0
 92 93  2  0  0  0  0
 92 99  1  0  0  0  0
 93 94  1  0  0  0  0
 93 98  1  0  0  0  0
 94 95  1  0  0  0  0
 94 96  2  0  0  0  0
 96 97  1  0  0  0  0
 99100  1  0  0  0  0
100101  1  0  0  0  0
100102  1  0  0  0  0
100103  1  0  0  0  0
104105  1  0  0  0  0
M  BCL ATM C_TeTeTeTe H_S H_S H_S C_TeTeTeTe C_TeTeTeTe H_S H_S H_S C_TeTeTeTe H_S H_S O_Tr2TrTrPi2 P_TeTeTeTePi O_Tr2Tr2TrPi O_Te2Te2Te2Te O_Tr2TrTrPi2 P_TeTeTeTePi O_Te2Te2TeTe O_Tr2Tr2TrPi O_Tr2TrTrPi2 C_TeTeTeTe H_S H_S C_TeTeTeTe H_S C_TeTeTeTe H_S C_TeTeTeTe H_S C_TeTeTeTe H_S O_Te2Te2TeTe N_TrTrTrPi2 C_TrTrTrPi H_S N_Tr2TrTrPi C_TrTrTrPi C_TrTrTrPi N_Tr2TrTrPi C_TrTrTrPi H_S N_Tr2TrTrPi C_TrTrTrPi N_TrTrTrPi2 H_S H_S O_Te2Te2TeTe H_S O_Tr2TrTrPi2 P_TeTeTeTePi O_Tr2Tr2TrPi O_Te2Te2Te2Te O_Te2Te2Te2Te C_TeTeTeTe H_S C_TrTrTrPi O_Tr2Tr2TrPi N_TrTrTrPi2 H_S C_TeTeTeTe H_S H_S C_TeTeTeTe H_S H_S C_TrTrTrPi O_Tr2Tr2TrPi N_TrTrTrPi2 H_S C_TeTeTeTe H_S H_S C_TeTeTeTe H_S H_S S_Te2Te2TeTe C_TrTrTrPi O_Tr2Tr2TrPi C_TeTeTeTe H_S H_S C_TrTrTrPi O_Tr2Tr2TrPi C_TrTrTrPi H_S C_TrTrTrPi H_S C_TrTrTrPi C_TrTrTrPi H_S C_TrTrTrPi C_TrTrTrPi C_TrTrTrPi H_S C_TrTrTrPi H_S O_Te2Te2Te2Te O_Tr2TrTrPi2 C_TeTeTeTe H_S H_S H_S O_Te2Te2TeTe H_S
M  BCL BND NonConjugatedSingleBond NonConjugatedSingleBond NonConjugatedSingleBond NonConjugatedSingleBond NonConjugatedSingleBond NonConjugatedSingleBond NonConjugatedSingleBond NonConjugatedSingleBond NonConjugatedSingleBond NonConjugatedSingleBond NonConjugatedSingleBond NonConjugatedSingleBond NonConjugatedSingleBond ConjugatedSingleBond ConjugatedDoubleBond ConjugatedSingleBond ConjugatedSingleBond ConjugatedSingleBond ConjugatedSingleBond ConjugatedDoubleBond ConjugatedSingleBond NonConjugatedSingleBond NonConjugatedSingleBond NonConjugatedSingleBond NonConjugatedSingleBond NonConjugatedSingleBond NonConjugatedSingleBondInRing NonConjugatedSingleBondInRing NonConjugatedSingleBond NonConjugatedSingleBondInRing NonConjugatedSingleBond NonConjugatedSingleBond NonConjugatedSingleBondInRing NonConjugatedSingleBond NonConjugatedSingleBond NonConjugatedSingleBondInRing NonConjugatedSingleBond AromaticSingleBond AromaticSingleBond NonConjugatedSingleBond AromaticDoubleBond AromaticSingleBond AromaticSingleBond AromaticDoubleBond AromaticDoubleBond ConjugatedSingleBond AromaticSingleBond NonConjugatedSingleBond AromaticDoubleBond AromaticSingleBond NonConjugatedSingleBond NonConjugatedSingleBond NonConjugatedSingleBond ConjugatedSingleBond ConjugatedDoubleBond ConjugatedSingleBond ConjugatedSingleBond NonConjugatedSingleBond NonConjugatedSingleBond NonConjugatedSingleBond ConjugatedDoubleBond AmideSingleBond NonConjugatedSingleBond NonConjugatedSingleBond NonConjugatedSingleBond NonConjugatedSingleBond NonConjugatedSingleBond NonConjugatedSingleBond NonConjugatedSingleBond NonConjugatedSingleBond ConjugatedDoubleBond AmideSingleBond NonConjugatedSingleBond NonConjugatedSingleBond NonConjugatedSingleBond NonConjugatedSingleBond NonConjugatedSingleBond NonConjugatedSingleBond NonConjugatedSingleBond NonConjugatedSingleBond ConjugatedSingleBond ConjugatedDoubleBond NonConjugatedSingleBond NonConjugatedSingleBond NonConjugatedSingleBond NonConjugatedSingleBond ConjugatedDoubleBond ConjugatedSingleBond NonConjugatedSingleBond ConjugatedDoubleBond NonConjugatedSingleBond ConjugatedSingleBond AromaticDoubleBond AromaticSingleBond NonConjugatedSingleBond AromaticSingleBond AromaticDoubleBond ConjugatedSingleBond AromaticSingleBond ConjugatedSingleBond NonConjugatedSingleBond AromaticDoubleBond NonConjugatedSingleBond NonConjugatedSingleBond NonConjugatedSingleBond NonConjugatedSingleBond NonConjugatedSingleBond NonConjugatedSingleBond
M  BCL CHI  14   R  18   S  25   R  27   R  29   R  31   S  55   R
M  BCL DBI - - - - - - - - - - - E - - -
M  END
> <ConfClashScore>
0.00124694 

> <ConfOneFourInteractionScore>
-0.969822 

> <ConfScore>
0.336065 

> <ConfScorePBest>
0.00665247 

> <ConfTolerance>
3.13486 

$$$$
L03.****
  PyMOL2.5          3D                             0

105108  0  0  0  0  0  0  0  0999 V2000
   -5.1135  -10.2261    3.3288 C   0  0  0  1  0  0  0  0  0  0  0  0
   -5.2457  -11.0832    3.9556 H   0  0  0  1  0  0  0  0  0  0  0  0
   -4.8606  -10.5441    2.3390 H   0  0  0  1  0  0  0  0  0  0  0  0
   -6.0217   -9.6611    3.3014 H   0  0  0  1  0  0  0  0  0  0  0  0
   -3.9847   -9.3520    3.8884 C   0  0  0  1  0  0  0  0  0  0  0  0
   -4.3965   -8.6178    5.1871 C   0  0  0  1  0  0  0  0  0  0  0  0
   -5.2961   -9.0506    5.5723 H   0  0  0  1  0  0  0  0  0  0  0  0
   -4.5620   -7.5824    4.9741 H   0  0  0  1  0  0  0  0  0  0  0  0
   -3.6161   -8.7128    5.9130 H   0  0  0  1  0  0  0  0  0  0  0  0
   -3.5862   -8.3819    2.8254 C   0  0  0  1  0  0  0  0  0  0  0  0
   -2.5717   -8.5571    2.5339 H   0  0  0  1  0  0  0  0  0  0  0  0
   -3.6852   -7.3808    3.1900 H   0  0  0  1  0  0  0  0  0  0  0  0
   -4.4658   -8.5836    1.6943 O   0  0  0  1  0  0  0  0  0  0  0  0
   -3.8885   -8.9705    0.2824 P   0  0  0  1  0  0  0  0  0  0  0  0
   -3.2060  -10.1392    0.8813 O   0  0  0  1  0  0  0  0  0  0  0  0
   -5.4078   -8.4112    0.2232 O   0  5  0  1  0  0  0  0  0  0  0  0
   -3.3001   -9.3651   -1.1561 O   0  0  0  1  0  0  0  0  0  0  0  0
   -3.8152   -9.0727   -2.6725 P   0  0  0  1  0  0  0  0  0  0  0  0
   -5.0748   -9.8062   -2.9298 O   0  0  0  0  0  0  0  0  0  0  0  0
   -2.7048   -9.1738   -3.6319 O   0  0  0  1  0  0  0  0  0  0  0  0
   -4.1217   -7.5677   -2.3460 O   0  0  0  1  0  0  0  0  0  0  0  0
   -3.1009   -6.5431   -2.3046 C   0  0  0  1  0  0  0  0  0  0  0  0
   -2.8320   -6.2314   -3.2923 H   0  0  0  1  0  0  0  0  0  0  0  0
   -2.2297   -6.8921   -1.7906 H   0  0  0  1  0  0  0  0  0  0  0  0
   -3.7606   -5.4169   -1.5445 C   0  0  0  1  0  0  0  0  0  0  0  0
   -4.4636   -5.8210   -0.8463 H   0  0  0  1  0  0  0  0  0  0  0  0
   -4.4633   -4.4999   -2.5015 C   0  0  0  1  0  0  0  0  0  0  0  0
   -5.5065   -4.4605   -2.2665 H   0  0  0  1  0  0  0  0  0  0  0  0
   -3.8592   -3.1341   -2.3646 C   0  0  0  1  0  0  0  0  0  0  0  0
   -4.6098   -2.4336   -2.0632 H   0  0  0  1  0  0  0  0  0  0  0  0
   -2.7822   -3.2063   -1.3223 C   0  0  0  1  0  0  0  0  0  0  0  0
   -3.0117   -2.5408   -0.5165 H   0  0  0  1  0  0  0  0  0  0  0  0
   -2.7216   -4.6175   -0.8157 O   0  0  0  1  0  0  0  0  0  0  0  0
   -1.4955   -2.8346   -1.9115 N   0  0  0  1  0  0  0  0  0  0  0  0
   -0.4488   -3.6610   -2.1863 C   0  0  0  1  0  0  0  0  0  0  0  0
   -0.4723   -4.6845   -2.0032 H   0  0  0  1  0  0  0  0  0  0  0  0
    0.5979   -3.0479   -2.7054 N   0  0  0  1  0  0  0  0  0  0  0  0
    0.1748   -1.7213   -2.7906 C   0  0  0  1  0  0  0  0  0  0  0  0
    0.8122   -0.5693   -3.2828 C   0  0  0  1  0  0  0  0  0  0  0  0
    0.1270    0.5982   -3.2197 N   0  0  0  1  0  0  0  0  0  0  0  0
   -1.1131    0.5808   -2.6992 C   0  0  0  1  0  0  0  0  0  0  0  0
   -1.5941    1.5025   -2.6716 H   0  0  0  1  0  0  0  0  0  0  0  0
   -1.8179   -0.4411   -2.2136 N   0  0  0  1  0  0  0  0  0  0  0  0
   -1.0927   -1.5747   -2.3031 C   0  0  0  1  0  0  0  0  0  0  0  0
    2.0772   -0.6245   -3.8060 N   0  0  0  1  0  0  0  0  0  0  0  0
    2.4931    0.1852   -4.1690 H   0  0  0  1  0  0  0  0  0  0  0  0
    2.5661   -1.4738   -3.8173 H   0  0  0  1  0  0  0  0  0  0  0  0
   -3.3028   -2.7275   -3.6043 O   0  0  0  1  0  0  0  0  0  0  0  0
   -3.3018   -1.7689   -3.6561 H   0  0  0  1  0  0  0  0  0  0  0  0
   -4.2906   -4.9808   -3.8612 O   0  0  0  1  0  0  0  0  0  0  0  0
   -5.2673   -4.4554   -5.0694 P   0  0  0  1  0  0  0  0  0  0  0  0
   -5.5174   -3.0088   -4.8818 O   0  0  0  1  0  0  0  0  0  0  0  0
   -4.4003   -4.7070   -6.4145 O   0  5  0  1  0  0  0  0  0  0  0  0
   -6.6165   -5.3518   -5.0487 O   0  5  0  1  0  0  0  0  0  0  0  0
   -2.7992  -10.2771    4.1802 C   0  0  0  1  0  0  0  0  0  0  0  0
   -3.0159  -10.8228    5.0748 H   0  0  0  1  0  0  0  0  0  0  0  0
   -2.4848  -11.2757    3.0718 C   0  0  0  1  0  0  0  0  0  0  0  0
   -3.3862  -12.0255    2.6992 O   0  0  0  1  0  0  0  0  0  0  0  0
   -1.2441  -11.2853    2.5610 N   0  0  0  1  0  0  0  0  0  0  0  0
   -0.5399  -10.7452    2.9768 H   0  0  0  1  0  0  0  0  0  0  0  0
   -0.9420  -12.0959    1.3907 C   0  0  0  1  0  0  0  0  0  0  0  0
    0.1206  -12.1814    1.2979 H   0  0  0  1  0  0  0  0  0  0  0  0
   -1.3381  -11.6085    0.5245 H   0  0  0  1  0  0  0  0  0  0  0  0
   -1.5370  -13.4918    1.4791 C   0  0  0  1  0  0  0  0  0  0  0  0
   -2.6018  -13.3877    1.4611 H   0  0  0  1  0  0  0  0  0  0  0  0
   -1.2347  -13.9099    2.4165 H   0  0  0  1  0  0  0  0  0  0  0  0
   -1.1618  -14.4796    0.4023 C   0  0  0  1  0  0  0  0  0  0  0  0
   -0.2718  -15.3079    0.5884 O   0  0  0  1  0  0  0  0  0  0  0  0
   -1.8271  -14.4268   -0.7617 N   0  0  0  1  0  0  0  0  0  0  0  0
   -2.6390  -13.8831   -0.8366 H   0  0  0  1  0  0  0  0  0  0  0  0
   -1.3456  -15.1752   -1.9132 C   0  0  0  1  0  0  0  0  0  0  0  0
   -1.3259  -16.2152   -1.6623 H   0  0  0  1  0  0  0  0  0  0  0  0
   -0.3549  -14.8453   -2.1466 H   0  0  0  1  0  0  0  0  0  0  0  0
   -2.2169  -14.9880   -3.1305 C   0  0  0  1  0  0  0  0  0  0  0  0
   -2.3295  -13.9392   -3.3099 H   0  0  0  1  0  0  0  0  0  0  0  0
   -3.1750  -15.4215   -2.9327 H   0  0  0  1  0  0  0  0  0  0  0  0
   -1.5351  -15.7557   -4.6194 S   0  0  0  1  0  0  0  0  0  0  0  0
   -2.7681  -15.5211   -5.8308 C   0  0  0  1  0  0  0  0  0  0  0  0
   -2.7560  -16.0569   -6.9093 O   0  0  0  1  0  0  0  0  0  0  0  0
   -3.9004  -14.6495   -5.3426 C   0  0  0  1  0  0  0  0  0  0  0  0
   -4.1395  -14.9268   -4.3373 H   0  0  0  1  0  0  0  0  0  0  0  0
   -4.7527  -14.8090   -5.9695 H   0  0  0  1  0  0  0  0  0  0  0  0
   -3.5476  -13.1946   -5.3701 C   0  0  0  1  0  0  0  0  0  0  0  0
   -2.3986  -12.7896   -5.3585 O   0  0  0  1  0  0  0  0  0  0  0  0
   -4.6354  -12.2571   -5.4121 C   0  0  0  1  0  0  0  0  0  0  0  0
   -5.5676  -12.7176   -5.4342 H   0  0  0  1  0  0  0  0  0  0  0  0
   -4.7116  -10.9260   -5.4288 C   0  0  0  1  0  0  0  0  0  0  0  0
   -3.8293  -10.3758   -5.4092 H   0  0  0  1  0  0  0  0  0  0  0  0
   -6.0013  -10.1986   -5.4743 C   0  0  0  1  0  0  0  0  0  0  0  0
   -7.1352  -10.7883   -4.9484 C   0  0  0  1  0  0  0  0  0  0  0  0
   -7.0803  -11.7379   -4.5280 H   0  0  0  1  0  0  0  0  0  0  0  0
   -8.3457  -10.1138   -4.9812 C   0  0  0  1  0  0  0  0  0  0  0  0
   -8.4200   -8.8538   -5.5446 C   0  0  0  1  0  0  0  0  0  0  0  0
   -7.2825   -8.2626   -6.0721 C   0  0  0  1  0  0  0  0  0  0  0  0
   -7.3375   -7.3129   -6.4925 H   0  0  0  1  0  0  0  0  0  0  0  0
   -6.0755   -8.9350   -6.0395 C   0  0  0  1  0  0  0  0  0  0  0  0
   -5.2230   -8.4931   -6.4388 H   0  0  0  1  0  0  0  0  0  0  0  0
   -9.5494   -8.1020   -5.6373 O   0  5  0  1  0  0  0  0  0  0  0  0
   -9.3841  -10.7877   -4.4322 O   0  0  0  1  0  0  0  0  0  0  0  0
  -10.6890  -10.2024   -4.5632 C   0  0  0  1  0  0  0  0  0  0  0  0
  -10.7474   -9.3211   -3.9592 H   0  0  0  1  0  0  0  0  0  0  0  0
  -11.4288  -10.9050   -4.2408 H   0  0  0  1  0  0  0  0  0  0  0  0
  -10.8631   -9.9450   -5.5871 H   0  0  0  1  0  0  0  0  0  0  0  0
   -1.6989   -9.3901    4.4189 O   0  0  0  1  0  0  0  0  0  0  0  0
   -1.5467   -9.3153    5.3638 H   0  0  0  1  0  0  0  0  0  0  0  0
  1  2  1  0  0  0  0
  1  3  1  0  0  0  0
  1  4  1  0  0  0  0
  1  5  1  0  0  0  0
  5  6  1  0  0  0  0
  5 10  1  0  0  0  0
  5 55  1  0  0  0  0
  6  7  1  0  0  0  0
  6  8  1  0  0  0  0
  6  9  1  0  0  0  0
 10 11  1  0  0  0  0
 10 12  1  0  0  0  0
 10 13  1  0  0  0  0
 13 14  1  0  0  0  0
 14 15  2  0  0  0  0
 14 16  1  0  0  0  0
 14 17  1  0  0  0  0
 17 18  1  0  0  0  0
 18 19  1  0  0  0  0
 18 20  2  0  0  0  0
 18 21  1  0  0  0  0
 21 22  1  0  0  0  0
 22 23  1  0  0  0  0
 22 24  1  0  0  0  0
 22 25  1  0  0  0  0
 25 26  1  0  0  0  0
 25 27  1  0  0  0  0
 25 33  1  0  0  0  0
 27 28  1  0  0  0  0
 27 29  1  0  0  0  0
 27 50  1  0  0  0  0
 29 30  1  0  0  0  0
 29 31  1  0  0  0  0
 29 48  1  0  0  0  0
 31 32  1  0  0  0  0
 31 33  1  0  0  0  0
 31 34  1  0  0  0  0
 34 35  1  0  0  0  0
 34 44  1  0  0  0  0
 35 36  1  0  0  0  0
 35 37  2  0  0  0  0
 37 38  1  0  0  0  0
 38 39  1  0  0  0  0
 38 44  2  0  0  0  0
 39 40  2  0  0  0  0
 39 45  1  0  0  0  0
 40 41  1  0  0  0  0
 41 42  1  0  0  0  0
 41 43  2  0  0  0  0
 43 44  1  0  0  0  0
 45 46  1  0  0  0  0
 45 47  1  0  0  0  0
 48 49  1  0  0  0  0
 50 51  1  0  0  0  0
 51 52  2  0  0  0  0
 51 53  1  0  0  0  0
 51 54  1  0  0  0  0
 55 56  1  0  0  0  0
 55 57  1  0  0  0  0
 55104  1  0  0  0  0
 57 58  2  0  0  0  0
 57 59  1  0  0  0  0
 59 60  1  0  0  0  0
 59 61  1  0  0  0  0
 61 62  1  0  0  0  0
 61 63  1  0  0  0  0
 61 64  1  0  0  0  0
 64 65  1  0  0  0  0
 64 66  1  0  0  0  0
 64 67  1  0  0  0  0
 67 68  2  0  0  0  0
 67 69  1  0  0  0  0
 69 70  1  0  0  0  0
 69 71  1  0  0  0  0
 71 72  1  0  0  0  0
 71 73  1  0  0  0  0
 71 74  1  0  0  0  0
 74 75  1  0  0  0  0
 74 76  1  0  0  0  0
 74 77  1  0  0  0  0
 77 78  1  0  0  0  0
 78 79  2  0  0  0  0
 78 80  1  0  0  0  0
 80 81  1  0  0  0  0
 80 82  1  0  0  0  0
 80 83  1  0  0  0  0
 83 84  2  0  0  0  0
 83 85  1  0  0  0  0
 85 86  1  0  0  0  0
 85 87  2  0  0  0  0
 87 88  1  0  0  0  0
 87 89  1  0  0  0  0
 89 90  2  0  0  0  0
 89 96  1  0  0  0  0
 90 91  1  0  0  0  0
 90 92  1  0  0  0  0
 92 93  2  0  0  0  0
 92 99  1  0  0  0  0
 93 94  1  0  0  0  0
 93 98  1  0  0  0  0
 94 95  1  0  0  0  0
 94 96  2  0  0  0  0
 96 97  1  0  0  0  0
 99100  1  0  0  0  0
100101  1  0  0  0  0
100102  1  0  0  0  0
100103  1  0  0  0  0
104105  1  0  0  0  0
M  BCL ATM C_TeTeTeTe H_S H_S H_S C_TeTeTeTe C_TeTeTeTe H_S H_S H_S C_TeTeTeTe H_S H_S O_Tr2TrTrPi2 P_TeTeTeTePi O_Tr2Tr2TrPi O_Te2Te2Te2Te O_Tr2TrTrPi2 P_TeTeTeTePi O_Te2Te2TeTe O_Tr2Tr2TrPi O_Tr2TrTrPi2 C_TeTeTeTe H_S H_S C_TeTeTeTe H_S C_TeTeTeTe H_S C_TeTeTeTe H_S C_TeTeTeTe H_S O_Te2Te2TeTe N_TrTrTrPi2 C_TrTrTrPi H_S N_Tr2TrTrPi C_TrTrTrPi C_TrTrTrPi N_Tr2TrTrPi C_TrTrTrPi H_S N_Tr2TrTrPi C_TrTrTrPi N_TrTrTrPi2 H_S H_S O_Te2Te2TeTe H_S O_Tr2TrTrPi2 P_TeTeTeTePi O_Tr2Tr2TrPi O_Te2Te2Te2Te O_Te2Te2Te2Te C_TeTeTeTe H_S C_TrTrTrPi O_Tr2Tr2TrPi N_TrTrTrPi2 H_S C_TeTeTeTe H_S H_S C_TeTeTeTe H_S H_S C_TrTrTrPi O_Tr2Tr2TrPi N_TrTrTrPi2 H_S C_TeTeTeTe H_S H_S C_TeTeTeTe H_S H_S S_Te2Te2TeTe C_TrTrTrPi O_Tr2Tr2TrPi C_TeTeTeTe H_S H_S C_TrTrTrPi O_Tr2Tr2TrPi C_TrTrTrPi H_S C_TrTrTrPi H_S C_TrTrTrPi C_TrTrTrPi H_S C_TrTrTrPi C_TrTrTrPi C_TrTrTrPi H_S C_TrTrTrPi H_S O_Te2Te2Te2Te O_Tr2TrTrPi2 C_TeTeTeTe H_S H_S H_S O_Te2Te2TeTe H_S
M  BCL BND NonConjugatedSingleBond NonConjugatedSingleBond NonConjugatedSingleBond NonConjugatedSingleBond NonConjugatedSingleBond NonConjugatedSingleBond NonConjugatedSingleBond NonConjugatedSingleBond NonConjugatedSingleBond NonConjugatedSingleBond NonConjugatedSingleBond NonConjugatedSingleBond NonConjugatedSingleBond ConjugatedSingleBond ConjugatedDoubleBond ConjugatedSingleBond ConjugatedSingleBond ConjugatedSingleBond ConjugatedSingleBond ConjugatedDoubleBond ConjugatedSingleBond NonConjugatedSingleBond NonConjugatedSingleBond NonConjugatedSingleBond NonConjugatedSingleBond NonConjugatedSingleBond NonConjugatedSingleBondInRing NonConjugatedSingleBondInRing NonConjugatedSingleBond NonConjugatedSingleBondInRing NonConjugatedSingleBond NonConjugatedSingleBond NonConjugatedSingleBondInRing NonConjugatedSingleBond NonConjugatedSingleBond NonConjugatedSingleBondInRing NonConjugatedSingleBond AromaticSingleBond AromaticSingleBond NonConjugatedSingleBond AromaticDoubleBond AromaticSingleBond AromaticSingleBond AromaticDoubleBond AromaticDoubleBond ConjugatedSingleBond AromaticSingleBond NonConjugatedSingleBond AromaticDoubleBond AromaticSingleBond NonConjugatedSingleBond NonConjugatedSingleBond NonConjugatedSingleBond ConjugatedSingleBond ConjugatedDoubleBond ConjugatedSingleBond ConjugatedSingleBond NonConjugatedSingleBond NonConjugatedSingleBond NonConjugatedSingleBond ConjugatedDoubleBond AmideSingleBond NonConjugatedSingleBond NonConjugatedSingleBond NonConjugatedSingleBond NonConjugatedSingleBond NonConjugatedSingleBond NonConjugatedSingleBond NonConjugatedSingleBond NonConjugatedSingleBond ConjugatedDoubleBond AmideSingleBond NonConjugatedSingleBond NonConjugatedSingleBond NonConjugatedSingleBond NonConjugatedSingleBond NonConjugatedSingleBond NonConjugatedSingleBond NonConjugatedSingleBond NonConjugatedSingleBond ConjugatedSingleBond ConjugatedDoubleBond NonConjugatedSingleBond NonConjugatedSingleBond NonConjugatedSingleBond NonConjugatedSingleBond ConjugatedDoubleBond ConjugatedSingleBond NonConjugatedSingleBond ConjugatedDoubleBond NonConjugatedSingleBond ConjugatedSingleBond AromaticDoubleBond AromaticSingleBond NonConjugatedSingleBond AromaticSingleBond AromaticDoubleBond ConjugatedSingleBond AromaticSingleBond ConjugatedSingleBond NonConjugatedSingleBond AromaticDoubleBond NonConjugatedSingleBond NonConjugatedSingleBond NonConjugatedSingleBond NonConjugatedSingleBond NonConjugatedSingleBond NonConjugatedSingleBond
M  BCL CHI  14   R  18   S  25   R  27   R  29   R  31   S  55   R
M  BCL DBI - - - - - - - - - - - E - - -
M  END
> <ConfClashScore>
0 

> <ConfOneFourInteractionScore>
-0.959612 

> <ConfScore>
0.341044 

> <ConfScorePBest>
0.00654947 

> <ConfTolerance>
3.31541 

$$$$
L03.****
  PyMOL2.5          3D                             0

105108  0  0  0  0  0  0  0  0999 V2000
   -5.4403  -12.4107   -2.1639 C   0  0  0  1  0  0  0  0  0  0  0  0
   -4.6356  -12.8133   -1.5850 H   0  0  0  1  0  0  0  0  0  0  0  0
   -6.3729  -12.7388   -1.7545 H   0  0  0  1  0  0  0  0  0  0  0  0
   -5.3962  -11.3419   -2.1406 H   0  0  0  1  0  0  0  0  0  0  0  0
   -5.3203  -12.8953   -3.6137 C   0  0  0  1  0  0  0  0  0  0  0  0
   -5.1593  -14.4175   -3.7055 C   0  0  0  1  0  0  0  0  0  0  0  0
   -5.9869  -14.8939   -3.2228 H   0  0  0  1  0  0  0  0  0  0  0  0
   -4.2495  -14.7094   -3.2239 H   0  0  0  1  0  0  0  0  0  0  0  0
   -5.1292  -14.7113   -4.7340 H   0  0  0  1  0  0  0  0  0  0  0  0
   -4.1362  -12.2286   -4.2578 C   0  0  0  1  0  0  0  0  0  0  0  0
   -4.1205  -12.4297   -5.3086 H   0  0  0  1  0  0  0  0  0  0  0  0
   -3.2260  -12.5747   -3.8143 H   0  0  0  1  0  0  0  0  0  0  0  0
   -4.3081  -10.8113   -4.0173 O   0  0  0  1  0  0  0  0  0  0  0  0
   -3.1692   -9.9643   -3.3379 P   0  0  0  1  0  0  0  0  0  0  0  0
   -2.8043  -11.1276   -2.4988 O   0  0  0  1  0  0  0  0  0  0  0  0
   -3.3257   -9.6737   -4.9239 O   0  5  0  1  0  0  0  0  0  0  0  0
   -2.0062   -9.1000   -2.6439 O   0  0  0  1  0  0  0  0  0  0  0  0
   -1.8263   -8.5222   -1.1606 P   0  0  0  1  0  0  0  0  0  0  0  0
   -0.3642   -8.5879   -0.9188 O   0  0  0  0  0  0  0  0  0  0  0  0
   -2.7674   -9.1763   -0.2228 O   0  0  0  1  0  0  0  0  0  0  0  0
   -2.2396   -7.0353   -1.4283 O   0  0  0  1  0  0  0  0  0  0  0  0
   -3.3394   -6.6110   -2.2675 C   0  0  0  1  0  0  0  0  0  0  0  0
   -4.1322   -7.3280   -2.2193 H   0  0  0  1  0  0  0  0  0  0  0  0
   -3.0081   -6.5124   -3.2801 H   0  0  0  1  0  0  0  0  0  0  0  0
   -3.8235   -5.2698   -1.7492 C   0  0  0  1  0  0  0  0  0  0  0  0
   -4.6927   -5.4140   -1.1421 H   0  0  0  1  0  0  0  0  0  0  0  0
   -4.1251   -4.3138   -2.9125 C   0  0  0  1  0  0  0  0  0  0  0  0
   -5.1325   -4.4282   -3.2544 H   0  0  0  1  0  0  0  0  0  0  0  0
   -3.9134   -2.9586   -2.2903 C   0  0  0  1  0  0  0  0  0  0  0  0
   -4.7963   -2.6259   -1.7856 H   0  0  0  1  0  0  0  0  0  0  0  0
   -2.7732   -3.2049   -1.2979 C   0  0  0  1  0  0  0  0  0  0  0  0
   -2.9292   -2.6444   -0.3999 H   0  0  0  1  0  0  0  0  0  0  0  0
   -2.8129   -4.6235   -1.0239 O   0  0  0  1  0  0  0  0  0  0  0  0
   -1.4889   -2.8321   -1.8890 N   0  0  0  1  0  0  0  0  0  0  0  0
   -0.4338   -3.6535   -2.1457 C   0  0  0  1  0  0  0  0  0  0  0  0
   -0.4486   -4.6738   -1.9446 H   0  0  0  1  0  0  0  0  0  0  0  0
    0.6090   -3.0401   -2.6723 N   0  0  0  1  0  0  0  0  0  0  0  0
    0.1740   -1.7191   -2.7823 C   0  0  0  1  0  0  0  0  0  0  0  0
    0.8025   -0.5702   -3.2928 C   0  0  0  1  0  0  0  0  0  0  0  0
    0.1064    0.5918   -3.2525 N   0  0  0  1  0  0  0  0  0  0  0  0
   -1.1352    0.5722   -2.7358 C   0  0  0  1  0  0  0  0  0  0  0  0
   -1.6247    1.4898   -2.7260 H   0  0  0  1  0  0  0  0  0  0  0  0
   -1.8322   -0.4474   -2.2344 N   0  0  0  1  0  0  0  0  0  0  0  0
   -1.0964   -1.5757   -2.3015 C   0  0  0  1  0  0  0  0  0  0  0  0
    2.0888   -0.6238   -3.8187 N   0  0  0  1  0  0  0  0  0  0  0  0
    2.7571   -1.2189   -3.4192 H   0  0  0  1  0  0  0  0  0  0  0  0
    2.3269   -0.0665   -4.5888 H   0  0  0  1  0  0  0  0  0  0  0  0
   -3.5361   -1.9959   -3.2756 O   0  0  0  1  0  0  0  0  0  0  0  0
   -2.7322   -2.2843   -3.7141 H   0  0  0  1  0  0  0  0  0  0  0  0
   -3.2199   -4.5283   -4.0071 O   0  0  0  1  0  0  0  0  0  0  0  0
   -3.5023   -4.1082   -5.5670 P   0  0  0  1  0  0  0  0  0  0  0  0
   -4.8287   -4.4825   -6.1064 O   0  0  0  1  0  0  0  0  0  0  0  0
   -3.2332   -2.5123   -5.6397 O   0  5  0  1  0  0  0  0  0  0  0  0
   -2.3146   -4.6122   -6.5466 O   0  5  0  1  0  0  0  0  0  0  0  0
   -6.5745  -12.4783   -4.3829 C   0  0  0  1  0  0  0  0  0  0  0  0
   -6.6650  -11.4136   -4.3260 H   0  0  0  1  0  0  0  0  0  0  0  0
   -6.5368  -12.8795   -5.8446 C   0  0  0  1  0  0  0  0  0  0  0  0
   -5.5376  -13.4007   -6.3380 O   0  0  0  1  0  0  0  0  0  0  0  0
   -7.6524  -12.6290   -6.5467 N   0  0  0  1  0  0  0  0  0  0  0  0
   -8.4688  -12.3476   -6.0835 H   0  0  0  1  0  0  0  0  0  0  0  0
   -7.6524  -12.7744   -7.9948 C   0  0  0  1  0  0  0  0  0  0  0  0
   -8.0000  -13.7584   -8.2309 H   0  0  0  1  0  0  0  0  0  0  0  0
   -6.6468  -12.6580   -8.3414 H   0  0  0  1  0  0  0  0  0  0  0  0
   -8.5282  -11.7717   -8.7347 C   0  0  0  1  0  0  0  0  0  0  0  0
   -9.5437  -11.9171   -8.4308 H   0  0  0  1  0  0  0  0  0  0  0  0
   -8.4403  -11.9531   -9.7855 H   0  0  0  1  0  0  0  0  0  0  0  0
   -8.1437  -10.3309   -8.4599 C   0  0  0  1  0  0  0  0  0  0  0  0
   -7.6167  -10.0029   -7.4001 O   0  0  0  1  0  0  0  0  0  0  0  0
   -8.4155   -9.4612   -9.4370 N   0  0  0  1  0  0  0  0  0  0  0  0
   -8.8955   -9.7767  -10.2310 H   0  0  0  1  0  0  0  0  0  0  0  0
   -8.0235   -8.0616   -9.3633 C   0  0  0  1  0  0  0  0  0  0  0  0
   -6.9589   -8.0082   -9.2694 H   0  0  0  1  0  0  0  0  0  0  0  0
   -8.4805   -7.6225   -8.5012 H   0  0  0  1  0  0  0  0  0  0  0  0
   -8.4426   -7.2758  -10.5878 C   0  0  0  1  0  0  0  0  0  0  0  0
   -9.5105   -7.2487  -10.6496 H   0  0  0  1  0  0  0  0  0  0  0  0
   -8.0457   -7.7402  -11.4663 H   0  0  0  1  0  0  0  0  0  0  0  0
   -7.7990   -5.5915  -10.4472 S   0  0  0  1  0  0  0  0  0  0  0  0
   -8.7565   -4.7971  -11.6861 C   0  0  0  1  0  0  0  0  0  0  0  0
   -9.5935   -5.3355  -12.3643 O   0  0  0  1  0  0  0  0  0  0  0  0
   -8.4301   -3.3304  -11.8344 C   0  0  0  1  0  0  0  0  0  0  0  0
   -8.5581   -2.8732  -10.8755 H   0  0  0  1  0  0  0  0  0  0  0  0
   -9.1316   -2.9124  -12.5258 H   0  0  0  1  0  0  0  0  0  0  0  0
   -7.0455   -2.9804  -12.3239 C   0  0  0  1  0  0  0  0  0  0  0  0
   -6.9380   -2.5039  -13.4562 O   0  0  0  1  0  0  0  0  0  0  0  0
   -5.8808   -3.2034  -11.4757 C   0  0  0  1  0  0  0  0  0  0  0  0
   -5.9784   -2.9180  -10.4804 H   0  0  0  1  0  0  0  0  0  0  0  0
   -4.7065   -3.7288  -11.8224 C   0  0  0  1  0  0  0  0  0  0  0  0
   -4.6609   -4.2336  -12.7305 H   0  0  0  1  0  0  0  0  0  0  0  0
   -3.4612   -3.6554  -11.0258 C   0  0  0  1  0  0  0  0  0  0  0  0
   -3.4080   -2.9816   -9.8203 C   0  0  0  1  0  0  0  0  0  0  0  0
   -4.2564   -2.5056   -9.4526 H   0  0  0  1  0  0  0  0  0  0  0  0
   -2.2236   -2.9404   -9.1012 C   0  0  0  1  0  0  0  0  0  0  0  0
   -1.0946   -3.5685   -9.5924 C   0  0  0  1  0  0  0  0  0  0  0  0
   -1.1482   -4.2442  -10.8015 C   0  0  0  1  0  0  0  0  0  0  0  0
   -0.2998   -4.7203  -11.1692 H   0  0  0  1  0  0  0  0  0  0  0  0
   -2.3291   -4.2854  -11.5186 C   0  0  0  1  0  0  0  0  0  0  0  0
   -2.3682   -4.7890  -12.4277 H   0  0  0  1  0  0  0  0  0  0  0  0
    0.0088   -3.4569   -8.8051 O   0  5  0  1  0  0  0  0  0  0  0  0
   -2.0523   -2.3182   -7.9107 O   0  0  0  1  0  0  0  0  0  0  0  0
   -1.8241   -0.9005   -7.9381 C   0  0  0  1  0  0  0  0  0  0  0  0
   -1.2681   -0.6114   -7.0709 H   0  0  0  1  0  0  0  0  0  0  0  0
   -2.7636   -0.3884   -7.9462 H   0  0  0  1  0  0  0  0  0  0  0  0
   -1.2708   -0.6455   -8.8177 H   0  0  0  1  0  0  0  0  0  0  0  0
   -7.7323  -13.0896   -3.8143 O   0  0  0  1  0  0  0  0  0  0  0  0
   -8.1484  -12.4793   -3.2011 H   0  0  0  1  0  0  0  0  0  0  0  0
  1  2  1  0  0  0  0
  1  3  1  0  0  0  0
  1  4  1  0  0  0  0
  1  5  1  0  0  0  0
  5  6  1  0  0  0  0
  5 10  1  0  0  0  0
  5 55  1  0  0  0  0
  6  7  1  0  0  0  0
  6  8  1  0  0  0  0
  6  9  1  0  0  0  0
 10 11  1  0  0  0  0
 10 12  1  0  0  0  0
 10 13  1  0  0  0  0
 13 14  1  0  0  0  0
 14 15  2  0  0  0  0
 14 16  1  0  0  0  0
 14 17  1  0  0  0  0
 17 18  1  0  0  0  0
 18 19  1  0  0  0  0
 18 20  2  0  0  0  0
 18 21  1  0  0  0  0
 21 22  1  0  0  0  0
 22 23  1  0  0  0  0
 22 24  1  0  0  0  0
 22 25  1  0  0  0  0
 25 26  1  0  0  0  0
 25 27  1  0  0  0  0
 25 33  1  0  0  0  0
 27 28  1  0  0  0  0
 27 29  1  0  0  0  0
 27 50  1  0  0  0  0
 29 30  1  0  0  0  0
 29 31  1  0  0  0  0
 29 48  1  0  0  0  0
 31 32  1  0  0  0  0
 31 33  1  0  0  0  0
 31 34  1  0  0  0  0
 34 35  1  0  0  0  0
 34 44  1  0  0  0  0
 35 36  1  0  0  0  0
 35 37  2  0  0  0  0
 37 38  1  0  0  0  0
 38 39  1  0  0  0  0
 38 44  2  0  0  0  0
 39 40  2  0  0  0  0
 39 45  1  0  0  0  0
 40 41  1  0  0  0  0
 41 42  1  0  0  0  0
 41 43  2  0  0  0  0
 43 44  1  0  0  0  0
 45 46  1  0  0  0  0
 45 47  1  0  0  0  0
 48 49  1  0  0  0  0
 50 51  1  0  0  0  0
 51 52  2  0  0  0  0
 51 53  1  0  0  0  0
 51 54  1  0  0  0  0
 55 56  1  0  0  0  0
 55 57  1  0  0  0  0
 55104  1  0  0  0  0
 57 58  2  0  0  0  0
 57 59  1  0  0  0  0
 59 60  1  0  0  0  0
 59 61  1  0  0  0  0
 61 62  1  0  0  0  0
 61 63  1  0  0  0  0
 61 64  1  0  0  0  0
 64 65  1  0  0  0  0
 64 66  1  0  0  0  0
 64 67  1  0  0  0  0
 67 68  2  0  0  0  0
 67 69  1  0  0  0  0
 69 70  1  0  0  0  0
 69 71  1  0  0  0  0
 71 72  1  0  0  0  0
 71 73  1  0  0  0  0
 71 74  1  0  0  0  0
 74 75  1  0  0  0  0
 74 76  1  0  0  0  0
 74 77  1  0  0  0  0
 77 78  1  0  0  0  0
 78 79  2  0  0  0  0
 78 80  1  0  0  0  0
 80 81  1  0  0  0  0
 80 82  1  0  0  0  0
 80 83  1  0  0  0  0
 83 84  2  0  0  0  0
 83 85  1  0  0  0  0
 85 86  1  0  0  0  0
 85 87  2  0  0  0  0
 87 88  1  0  0  0  0
 87 89  1  0  0  0  0
 89 90  2  0  0  0  0
 89 96  1  0  0  0  0
 90 91  1  0  0  0  0
 90 92  1  0  0  0  0
 92 93  2  0  0  0  0
 92 99  1  0  0  0  0
 93 94  1  0  0  0  0
 93 98  1  0  0  0  0
 94 95  1  0  0  0  0
 94 96  2  0  0  0  0
 96 97  1  0  0  0  0
 99100  1  0  0  0  0
100101  1  0  0  0  0
100102  1  0  0  0  0
100103  1  0  0  0  0
104105  1  0  0  0  0
M  BCL ATM C_TeTeTeTe H_S H_S H_S C_TeTeTeTe C_TeTeTeTe H_S H_S H_S C_TeTeTeTe H_S H_S O_Tr2TrTrPi2 P_TeTeTeTePi O_Tr2Tr2TrPi O_Te2Te2Te2Te O_Tr2TrTrPi2 P_TeTeTeTePi O_Te2Te2TeTe O_Tr2Tr2TrPi O_Tr2TrTrPi2 C_TeTeTeTe H_S H_S C_TeTeTeTe H_S C_TeTeTeTe H_S C_TeTeTeTe H_S C_TeTeTeTe H_S O_Te2Te2TeTe N_TrTrTrPi2 C_TrTrTrPi H_S N_Tr2TrTrPi C_TrTrTrPi C_TrTrTrPi N_Tr2TrTrPi C_TrTrTrPi H_S N_Tr2TrTrPi C_TrTrTrPi N_TrTrTrPi2 H_S H_S O_Te2Te2TeTe H_S O_Tr2TrTrPi2 P_TeTeTeTePi O_Tr2Tr2TrPi O_Te2Te2Te2Te O_Te2Te2Te2Te C_TeTeTeTe H_S C_TrTrTrPi O_Tr2Tr2TrPi N_TrTrTrPi2 H_S C_TeTeTeTe H_S H_S C_TeTeTeTe H_S H_S C_TrTrTrPi O_Tr2Tr2TrPi N_TrTrTrPi2 H_S C_TeTeTeTe H_S H_S C_TeTeTeTe H_S H_S S_Te2Te2TeTe C_TrTrTrPi O_Tr2Tr2TrPi C_TeTeTeTe H_S H_S C_TrTrTrPi O_Tr2Tr2TrPi C_TrTrTrPi H_S C_TrTrTrPi H_S C_TrTrTrPi C_TrTrTrPi H_S C_TrTrTrPi C_TrTrTrPi C_TrTrTrPi H_S C_TrTrTrPi H_S O_Te2Te2Te2Te O_Tr2TrTrPi2 C_TeTeTeTe H_S H_S H_S O_Te2Te2TeTe H_S
M  BCL BND NonConjugatedSingleBond NonConjugatedSingleBond NonConjugatedSingleBond NonConjugatedSingleBond NonConjugatedSingleBond NonConjugatedSingleBond NonConjugatedSingleBond NonConjugatedSingleBond NonConjugatedSingleBond NonConjugatedSingleBond NonConjugatedSingleBond NonConjugatedSingleBond NonConjugatedSingleBond ConjugatedSingleBond ConjugatedDoubleBond ConjugatedSingleBond ConjugatedSingleBond ConjugatedSingleBond ConjugatedSingleBond ConjugatedDoubleBond ConjugatedSingleBond NonConjugatedSingleBond NonConjugatedSingleBond NonConjugatedSingleBond NonConjugatedSingleBond NonConjugatedSingleBond NonConjugatedSingleBondInRing NonConjugatedSingleBondInRing NonConjugatedSingleBond NonConjugatedSingleBondInRing NonConjugatedSingleBond NonConjugatedSingleBond NonConjugatedSingleBondInRing NonConjugatedSingleBond NonConjugatedSingleBond NonConjugatedSingleBondInRing NonConjugatedSingleBond AromaticSingleBond AromaticSingleBond NonConjugatedSingleBond AromaticDoubleBond AromaticSingleBond AromaticSingleBond AromaticDoubleBond AromaticDoubleBond ConjugatedSingleBond AromaticSingleBond NonConjugatedSingleBond AromaticDoubleBond AromaticSingleBond NonConjugatedSingleBond NonConjugatedSingleBond NonConjugatedSingleBond ConjugatedSingleBond ConjugatedDoubleBond ConjugatedSingleBond ConjugatedSingleBond NonConjugatedSingleBond NonConjugatedSingleBond NonConjugatedSingleBond ConjugatedDoubleBond AmideSingleBond NonConjugatedSingleBond NonConjugatedSingleBond NonConjugatedSingleBond NonConjugatedSingleBond NonConjugatedSingleBond NonConjugatedSingleBond NonConjugatedSingleBond NonConjugatedSingleBond ConjugatedDoubleBond AmideSingleBond NonConjugatedSingleBond NonConjugatedSingleBond NonConjugatedSingleBond NonConjugatedSingleBond NonConjugatedSingleBond NonConjugatedSingleBond NonConjugatedSingleBond NonConjugatedSingleBond ConjugatedSingleBond ConjugatedDoubleBond NonConjugatedSingleBond NonConjugatedSingleBond NonConjugatedSingleBond NonConjugatedSingleBond ConjugatedDoubleBond ConjugatedSingleBond NonConjugatedSingleBond ConjugatedDoubleBond NonConjugatedSingleBond ConjugatedSingleBond AromaticDoubleBond AromaticSingleBond NonConjugatedSingleBond AromaticSingleBond AromaticDoubleBond ConjugatedSingleBond AromaticSingleBond ConjugatedSingleBond NonConjugatedSingleBond AromaticDoubleBond NonConjugatedSingleBond NonConjugatedSingleBond NonConjugatedSingleBond NonConjugatedSingleBond NonConjugatedSingleBond NonConjugatedSingleBond
M  BCL CHI  14   R  18   S  25   R  27   R  29   R  31   S  55   R
M  BCL DBI - - - - - - - - - - - E - - -
M  END
> <ConfClashScore>
0 

> <ConfOneFourInteractionScore>
-0.979163 

> <ConfScore>
0.354958 

> <ConfScorePBest>
0.00644647 

> <ConfTolerance>
3.34755 

$$$$
L03.****
  PyMOL2.5          3D                             0

105108  0  0  0  0  0  0  0  0999 V2000
    1.3729  -10.2056   -7.5072 C   0  0  0  1  0  0  0  0  0  0  0  0
    2.4257  -10.0165   -7.5348 H   0  0  0  1  0  0  0  0  0  0  0  0
    0.8578   -9.4323   -8.0378 H   0  0  0  1  0  0  0  0  0  0  0  0
    1.1684  -11.1506   -7.9656 H   0  0  0  1  0  0  0  0  0  0  0  0
    0.8954  -10.2307   -6.0503 C   0  0  0  1  0  0  0  0  0  0  0  0
   -0.5958  -10.5862   -6.0149 C   0  0  0  1  0  0  0  0  0  0  0  0
   -0.9339  -10.8073   -7.0058 H   0  0  0  1  0  0  0  0  0  0  0  0
   -1.1505   -9.7582   -5.6255 H   0  0  0  1  0  0  0  0  0  0  0  0
   -0.7436  -11.4413   -5.3889 H   0  0  0  1  0  0  0  0  0  0  0  0
    1.0691   -8.8663   -5.4687 C   0  0  0  1  0  0  0  0  0  0  0  0
    0.7314   -8.1276   -6.1653 H   0  0  0  1  0  0  0  0  0  0  0  0
    2.1004   -8.6963   -5.2398 H   0  0  0  1  0  0  0  0  0  0  0  0
    0.2784   -8.8005   -4.2587 O   0  0  0  1  0  0  0  0  0  0  0  0
    0.6138   -7.7547   -3.1317 P   0  0  0  1  0  0  0  0  0  0  0  0
    0.4490   -6.6523   -4.1053 O   0  0  0  1  0  0  0  0  0  0  0  0
   -0.2896   -8.9937   -2.6090 O   0  5  0  1  0  0  0  0  0  0  0  0
    0.9581   -6.6803   -1.9748 O   0  0  0  1  0  0  0  0  0  0  0  0
    0.4985   -6.3873   -0.4394 P   0  0  0  1  0  0  0  0  0  0  0  0
    1.1955   -5.1732    0.0511 O   0  0  0  0  0  0  0  0  0  0  0  0
    0.5736   -7.6527    0.3262 O   0  0  0  1  0  0  0  0  0  0  0  0
   -1.0246   -6.0946   -0.7052 O   0  0  0  1  0  0  0  0  0  0  0  0
   -1.9912   -6.1427    0.3761 C   0  0  0  1  0  0  0  0  0  0  0  0
   -1.5250   -5.8533    1.2947 H   0  0  0  1  0  0  0  0  0  0  0  0
   -2.3826   -7.1340    0.4711 H   0  0  0  1  0  0  0  0  0  0  0  0
   -3.1046   -5.1803    0.0389 C   0  0  0  1  0  0  0  0  0  0  0  0
   -3.8866   -5.2708    0.7637 H   0  0  0  1  0  0  0  0  0  0  0  0
   -3.6412   -5.4818   -1.3292 C   0  0  0  1  0  0  0  0  0  0  0  0
   -4.6828   -5.7183   -1.2664 H   0  0  0  1  0  0  0  0  0  0  0  0
   -3.4468   -4.2643   -2.1832 C   0  0  0  1  0  0  0  0  0  0  0  0
   -4.3943   -3.9115   -2.5335 H   0  0  0  1  0  0  0  0  0  0  0  0
   -2.7896   -3.2092   -1.3427 C   0  0  0  1  0  0  0  0  0  0  0  0
   -3.4191   -2.3458   -1.2863 H   0  0  0  1  0  0  0  0  0  0  0  0
   -2.5783   -3.7758    0.0307 O   0  0  0  1  0  0  0  0  0  0  0  0
   -1.5031   -2.8377   -1.9294 N   0  0  0  1  0  0  0  0  0  0  0  0
   -0.4629   -3.6669   -2.2198 C   0  0  0  1  0  0  0  0  0  0  0  0
   -0.4929   -4.6929   -2.0522 H   0  0  0  1  0  0  0  0  0  0  0  0
    0.5865   -3.0532   -2.7326 N   0  0  0  1  0  0  0  0  0  0  0  0
    0.1723   -1.7226   -2.7964 C   0  0  0  1  0  0  0  0  0  0  0  0
    0.8163   -0.5676   -3.2729 C   0  0  0  1  0  0  0  0  0  0  0  0
    0.1394    0.6034   -3.1900 N   0  0  0  1  0  0  0  0  0  0  0  0
   -1.0994    0.5866   -2.6662 C   0  0  0  1  0  0  0  0  0  0  0  0
   -1.5739    1.5110   -2.6231 H   0  0  0  1  0  0  0  0  0  0  0  0
   -1.8098   -0.4377   -2.1941 N   0  0  0  1  0  0  0  0  0  0  0  0
   -1.0927   -1.5748   -2.3030 C   0  0  0  1  0  0  0  0  0  0  0  0
    2.0793   -0.6236   -3.8006 N   0  0  0  1  0  0  0  0  0  0  0  0
    2.3207   -0.0478   -4.5560 H   0  0  0  1  0  0  0  0  0  0  0  0
    2.7415   -1.2393   -3.4226 H   0  0  0  1  0  0  0  0  0  0  0  0
   -2.6144   -4.5830   -3.2992 O   0  0  0  1  0  0  0  0  0  0  0  0
   -2.7640   -5.4945   -3.5607 H   0  0  0  1  0  0  0  0  0  0  0  0
   -2.9232   -6.6048   -1.9029 O   0  0  0  1  0  0  0  0  0  0  0  0
   -3.6224   -8.0771   -1.7207 P   0  0  0  1  0  0  0  0  0  0  0  0
   -2.9665   -9.1012   -2.5641 O   0  0  0  1  0  0  0  0  0  0  0  0
   -3.6847   -8.4537   -0.1463 O   0  5  0  1  0  0  0  0  0  0  0  0
   -5.1611   -7.8479   -2.1728 O   0  5  0  1  0  0  0  0  0  0  0  0
    1.6990  -11.2232   -5.2516 C   0  0  0  1  0  0  0  0  0  0  0  0
    2.7081  -10.8674   -5.2443 H   0  0  0  1  0  0  0  0  0  0  0  0
    1.2518  -11.2875   -3.8082 C   0  0  0  1  0  0  0  0  0  0  0  0
    1.5367  -10.3947   -3.0111 O   0  0  0  1  0  0  0  0  0  0  0  0
    0.5346  -12.3700   -3.4675 N   0  0  0  1  0  0  0  0  0  0  0  0
    0.2768  -13.0213   -4.1530 H   0  0  0  1  0  0  0  0  0  0  0  0
    0.1394  -12.5785   -2.0825 C   0  0  0  1  0  0  0  0  0  0  0  0
   -0.0459  -11.6260   -1.6318 H   0  0  0  1  0  0  0  0  0  0  0  0
    0.9395  -13.0678   -1.5676 H   0  0  0  1  0  0  0  0  0  0  0  0
   -1.1163  -13.4311   -1.9555 C   0  0  0  1  0  0  0  0  0  0  0  0
   -1.3071  -13.6037   -0.9168 H   0  0  0  1  0  0  0  0  0  0  0  0
   -0.9446  -14.3657   -2.4472 H   0  0  0  1  0  0  0  0  0  0  0  0
   -2.3407  -12.7805   -2.5695 C   0  0  0  1  0  0  0  0  0  0  0  0
   -3.2007  -12.2664   -1.8734 O   0  0  0  1  0  0  0  0  0  0  0  0
   -2.4071  -12.8114   -3.9099 N   0  0  0  1  0  0  0  0  0  0  0  0
   -1.7247  -13.3295   -4.3855 H   0  0  0  1  0  0  0  0  0  0  0  0
   -3.4184  -12.1318   -4.7117 C   0  0  0  1  0  0  0  0  0  0  0  0
   -3.0480  -11.1656   -4.9837 H   0  0  0  1  0  0  0  0  0  0  0  0
   -4.3054  -12.0218   -4.1234 H   0  0  0  1  0  0  0  0  0  0  0  0
   -3.7638  -12.8885   -5.9695 C   0  0  0  1  0  0  0  0  0  0  0  0
   -4.4851  -12.3216   -6.5200 H   0  0  0  1  0  0  0  0  0  0  0  0
   -4.1862  -13.8321   -5.6934 H   0  0  0  1  0  0  0  0  0  0  0  0
   -2.3339  -13.1889   -7.0354 S   0  0  0  1  0  0  0  0  0  0  0  0
   -1.5353  -14.6039   -6.3141 C   0  0  0  1  0  0  0  0  0  0  0  0
   -1.9877  -15.2199   -5.3870 O   0  0  0  1  0  0  0  0  0  0  0  0
   -0.2326  -14.9367   -6.9988 C   0  0  0  1  0  0  0  0  0  0  0  0
    0.4661  -14.1551   -6.7847 H   0  0  0  1  0  0  0  0  0  0  0  0
   -0.4107  -14.9776   -8.0531 H   0  0  0  1  0  0  0  0  0  0  0  0
    0.3874  -16.2572   -6.5710 C   0  0  0  1  0  0  0  0  0  0  0  0
    0.0696  -17.2891   -7.1389 O   0  0  0  1  0  0  0  0  0  0  0  0
    1.2841  -16.2775   -5.4210 C   0  0  0  1  0  0  0  0  0  0  0  0
    1.5904  -15.3719   -5.0115 H   0  0  0  1  0  0  0  0  0  0  0  0
    1.7273  -17.4085   -4.8734 C   0  0  0  1  0  0  0  0  0  0  0  0
    1.3964  -18.2904   -5.3142 H   0  0  0  1  0  0  0  0  0  0  0  0
    2.6367  -17.5611   -3.7097 C   0  0  0  1  0  0  0  0  0  0  0  0
    2.4066  -18.5630   -2.7859 C   0  0  0  1  0  0  0  0  0  0  0  0
    1.5598  -19.1611   -2.8675 H   0  0  0  1  0  0  0  0  0  0  0  0
    3.3048  -18.7705   -1.7507 C   0  0  0  1  0  0  0  0  0  0  0  0
    4.4275  -17.9722   -1.6391 C   0  0  0  1  0  0  0  0  0  0  0  0
    4.6581  -16.9673   -2.5657 C   0  0  0  1  0  0  0  0  0  0  0  0
    5.5049  -16.3691   -2.4842 H   0  0  0  1  0  0  0  0  0  0  0  0
    3.7626  -16.7602   -3.5980 C   0  0  0  1  0  0  0  0  0  0  0  0
    3.9335  -16.0037   -4.2909 H   0  0  0  1  0  0  0  0  0  0  0  0
    5.2859  -18.1987   -0.6088 O   0  5  0  1  0  0  0  0  0  0  0  0
    2.9794  -19.7770   -0.9164 O   0  0  0  1  0  0  0  0  0  0  0  0
    1.5599  -20.0056   -0.7573 C   0  0  0  1  0  0  0  0  0  0  0  0
    1.0867  -19.1023   -0.4334 H   0  0  0  1  0  0  0  0  0  0  0  0
    1.4019  -20.7721   -0.0276 H   0  0  0  1  0  0  0  0  0  0  0  0
    1.1411  -20.3116   -1.6932 H   0  0  0  1  0  0  0  0  0  0  0  0
    1.7014  -12.5218   -5.8162 O   0  0  0  1  0  0  0  0  0  0  0  0
    1.6734  -13.1763   -5.1145 H   0  0  0  1  0  0  0  0  0  0  0  0
  1  2  1  0  0  0  0
  1  3  1  0  0  0  0
  1  4  1  0  0  0  0
  1  5  1  0  0  0  0
  5  6  1  0  0  0  0
  5 10  1  0  0  0  0
  5 55  1  0  0  0  0
  6  7  1  0  0  0  0
  6  8  1  0  0  0  0
  6  9  1  0  0  0  0
 10 11  1  0  0  0  0
 10 12  1  0  0  0  0
 10 13  1  0  0  0  0
 13 14  1  0  0  0  0
 14 15  2  0  0  0  0
 14 16  1  0  0  0  0
 14 17  1  0  0  0  0
 17 18  1  0  0  0  0
 18 19  1  0  0  0  0
 18 20  2  0  0  0  0
 18 21  1  0  0  0  0
 21 22  1  0  0  0  0
 22 23  1  0  0  0  0
 22 24  1  0  0  0  0
 22 25  1  0  0  0  0
 25 26  1  0  0  0  0
 25 27  1  0  0  0  0
 25 33  1  0  0  0  0
 27 28  1  0  0  0  0
 27 29  1  0  0  0  0
 27 50  1  0  0  0  0
 29 30  1  0  0  0  0
 29 31  1  0  0  0  0
 29 48  1  0  0  0  0
 31 32  1  0  0  0  0
 31 33  1  0  0  0  0
 31 34  1  0  0  0  0
 34 35  1  0  0  0  0
 34 44  1  0  0  0  0
 35 36  1  0  0  0  0
 35 37  2  0  0  0  0
 37 38  1  0  0  0  0
 38 39  1  0  0  0  0
 38 44  2  0  0  0  0
 39 40  2  0  0  0  0
 39 45  1  0  0  0  0
 40 41  1  0  0  0  0
 41 42  1  0  0  0  0
 41 43  2  0  0  0  0
 43 44  1  0  0  0  0
 45 46  1  0  0  0  0
 45 47  1  0  0  0  0
 48 49  1  0  0  0  0
 50 51  1  0  0  0  0
 51 52  2  0  0  0  0
 51 53  1  0  0  0  0
 51 54  1  0  0  0  0
 55 56  1  0  0  0  0
 55 57  1  0  0  0  0
 55104  1  0  0  0  0
 57 58  2  0  0  0  0
 57 59  1  0  0  0  0
 59 60  1  0  0  0  0
 59 61  1  0  0  0  0
 61 62  1  0  0  0  0
 61 63  1  0  0  0  0
 61 64  1  0  0  0  0
 64 65  1  0  0  0  0
 64 66  1  0  0  0  0
 64 67  1  0  0  0  0
 67 68  2  0  0  0  0
 67 69  1  0  0  0  0
 69 70  1  0  0  0  0
 69 71  1  0  0  0  0
 71 72  1  0  0  0  0
 71 73  1  0  0  0  0
 71 74  1  0  0  0  0
 74 75  1  0  0  0  0
 74 76  1  0  0  0  0
 74 77  1  0  0  0  0
 77 78  1  0  0  0  0
 78 79  2  0  0  0  0
 78 80  1  0  0  0  0
 80 81  1  0  0  0  0
 80 82  1  0  0  0  0
 80 83  1  0  0  0  0
 83 84  2  0  0  0  0
 83 85  1  0  0  0  0
 85 86  1  0  0  0  0
 85 87  2  0  0  0  0
 87 88  1  0  0  0  0
 87 89  1  0  0  0  0
 89 90  2  0  0  0  0
 89 96  1  0  0  0  0
 90 91  1  0  0  0  0
 90 92  1  0  0  0  0
 92 93  2  0  0  0  0
 92 99  1  0  0  0  0
 93 94  1  0  0  0  0
 93 98  1  0  0  0  0
 94 95  1  0  0  0  0
 94 96  2  0  0  0  0
 96 97  1  0  0  0  0
 99100  1  0  0  0  0
100101  1  0  0  0  0
100102  1  0  0  0  0
100103  1  0  0  0  0
104105  1  0  0  0  0
M  BCL ATM C_TeTeTeTe H_S H_S H_S C_TeTeTeTe C_TeTeTeTe H_S H_S H_S C_TeTeTeTe H_S H_S O_Tr2TrTrPi2 P_TeTeTeTePi O_Tr2Tr2TrPi O_Te2Te2Te2Te O_Tr2TrTrPi2 P_TeTeTeTePi O_Te2Te2TeTe O_Tr2Tr2TrPi O_Tr2TrTrPi2 C_TeTeTeTe H_S H_S C_TeTeTeTe H_S C_TeTeTeTe H_S C_TeTeTeTe H_S C_TeTeTeTe H_S O_Te2Te2TeTe N_TrTrTrPi2 C_TrTrTrPi H_S N_Tr2TrTrPi C_TrTrTrPi C_TrTrTrPi N_Tr2TrTrPi C_TrTrTrPi H_S N_Tr2TrTrPi C_TrTrTrPi N_TrTrTrPi2 H_S H_S O_Te2Te2TeTe H_S O_Tr2TrTrPi2 P_TeTeTeTePi O_Tr2Tr2TrPi O_Te2Te2Te2Te O_Te2Te2Te2Te C_TeTeTeTe H_S C_TrTrTrPi O_Tr2Tr2TrPi N_TrTrTrPi2 H_S C_TeTeTeTe H_S H_S C_TeTeTeTe H_S H_S C_TrTrTrPi O_Tr2Tr2TrPi N_TrTrTrPi2 H_S C_TeTeTeTe H_S H_S C_TeTeTeTe H_S H_S S_Te2Te2TeTe C_TrTrTrPi O_Tr2Tr2TrPi C_TeTeTeTe H_S H_S C_TrTrTrPi O_Tr2Tr2TrPi C_TrTrTrPi H_S C_TrTrTrPi H_S C_TrTrTrPi C_TrTrTrPi H_S C_TrTrTrPi C_TrTrTrPi C_TrTrTrPi H_S C_TrTrTrPi H_S O_Te2Te2Te2Te O_Tr2TrTrPi2 C_TeTeTeTe H_S H_S H_S O_Te2Te2TeTe H_S
M  BCL BND NonConjugatedSingleBond NonConjugatedSingleBond NonConjugatedSingleBond NonConjugatedSingleBond NonConjugatedSingleBond NonConjugatedSingleBond NonConjugatedSingleBond NonConjugatedSingleBond NonConjugatedSingleBond NonConjugatedSingleBond NonConjugatedSingleBond NonConjugatedSingleBond NonConjugatedSingleBond ConjugatedSingleBond ConjugatedDoubleBond ConjugatedSingleBond ConjugatedSingleBond ConjugatedSingleBond ConjugatedSingleBond ConjugatedDoubleBond ConjugatedSingleBond NonConjugatedSingleBond NonConjugatedSingleBond NonConjugatedSingleBond NonConjugatedSingleBond NonConjugatedSingleBond NonConjugatedSingleBondInRing NonConjugatedSingleBondInRing NonConjugatedSingleBond NonConjugatedSingleBondInRing NonConjugatedSingleBond NonConjugatedSingleBond NonConjugatedSingleBondInRing NonConjugatedSingleBond NonConjugatedSingleBond NonConjugatedSingleBondInRing NonConjugatedSingleBond AromaticSingleBond AromaticSingleBond NonConjugatedSingleBond AromaticDoubleBond AromaticSingleBond AromaticSingleBond AromaticDoubleBond AromaticDoubleBond ConjugatedSingleBond AromaticSingleBond NonConjugatedSingleBond AromaticDoubleBond AromaticSingleBond NonConjugatedSingleBond NonConjugatedSingleBond NonConjugatedSingleBond ConjugatedSingleBond ConjugatedDoubleBond ConjugatedSingleBond ConjugatedSingleBond NonConjugatedSingleBond NonConjugatedSingleBond NonConjugatedSingleBond ConjugatedDoubleBond AmideSingleBond NonConjugatedSingleBond NonConjugatedSingleBond NonConjugatedSingleBond NonConjugatedSingleBond NonConjugatedSingleBond NonConjugatedSingleBond NonConjugatedSingleBond NonConjugatedSingleBond ConjugatedDoubleBond AmideSingleBond NonConjugatedSingleBond NonConjugatedSingleBond NonConjugatedSingleBond NonConjugatedSingleBond NonConjugatedSingleBond NonConjugatedSingleBond NonConjugatedSingleBond NonConjugatedSingleBond ConjugatedSingleBond ConjugatedDoubleBond NonConjugatedSingleBond NonConjugatedSingleBond NonConjugatedSingleBond NonConjugatedSingleBond ConjugatedDoubleBond ConjugatedSingleBond NonConjugatedSingleBond ConjugatedDoubleBond NonConjugatedSingleBond ConjugatedSingleBond AromaticDoubleBond AromaticSingleBond NonConjugatedSingleBond AromaticSingleBond AromaticDoubleBond ConjugatedSingleBond AromaticSingleBond ConjugatedSingleBond NonConjugatedSingleBond AromaticDoubleBond NonConjugatedSingleBond NonConjugatedSingleBond NonConjugatedSingleBond NonConjugatedSingleBond NonConjugatedSingleBond NonConjugatedSingleBond
M  BCL CHI  14   R  18   S  25   R  27   R  29   R  31   S  55   R
M  BCL DBI - - - - - - - - - - - E - - -
M  END
> <ConfClashScore>
0.000485562 

> <ConfOneFourInteractionScore>
-0.973489 

> <ConfScore>
0.356991 

> <ConfScorePBest>
0.00634346 

> <ConfTolerance>
3.68707 

$$$$
L03.****
  PyMOL2.5          3D                             0

105108  0  0  0  0  0  0  0  0999 V2000
   -2.5302    3.1479   -8.1713 C   0  0  0  1  0  0  0  0  0  0  0  0
   -2.6142    4.2088   -8.0602 H   0  0  0  1  0  0  0  0  0  0  0  0
   -3.4609    2.7513   -8.5198 H   0  0  0  1  0  0  0  0  0  0  0  0
   -1.7592    2.9234   -8.8784 H   0  0  0  1  0  0  0  0  0  0  0  0
   -2.1812    2.5175   -6.8178 C   0  0  0  1  0  0  0  0  0  0  0  0
   -2.1194    0.9892   -6.9267 C   0  0  0  1  0  0  0  0  0  0  0  0
   -1.3012    0.7089   -7.5567 H   0  0  0  1  0  0  0  0  0  0  0  0
   -3.0336    0.6245   -7.3464 H   0  0  0  1  0  0  0  0  0  0  0  0
   -1.9802    0.5679   -5.9531 H   0  0  0  1  0  0  0  0  0  0  0  0
   -3.2572    2.9093   -5.8431 C   0  0  0  1  0  0  0  0  0  0  0  0
   -4.2100    2.5544   -6.1764 H   0  0  0  1  0  0  0  0  0  0  0  0
   -3.2911    3.9730   -5.7323 H   0  0  0  1  0  0  0  0  0  0  0  0
   -2.8952    2.2825   -4.5901 O   0  0  0  1  0  0  0  0  0  0  0  0
   -3.8355    2.2749   -3.3284 P   0  0  0  1  0  0  0  0  0  0  0  0
   -3.5363    3.7057   -3.0965 O   0  0  0  1  0  0  0  0  0  0  0  0
   -4.4045    1.3869   -4.5581 O   0  5  0  1  0  0  0  0  0  0  0  0
   -4.8021    2.2676   -2.0312 O   0  0  0  1  0  0  0  0  0  0  0  0
   -4.2440    1.9355   -0.5383 P   0  0  0  1  0  0  0  0  0  0  0  0
   -5.2560    2.3159    0.4783 O   0  0  0  0  0  0  0  0  0  0  0  0
   -2.8465    2.3907   -0.3852 O   0  0  0  1  0  0  0  0  0  0  0  0
   -4.2908    0.3874   -0.7964 O   0  0  0  1  0  0  0  0  0  0  0  0
   -4.4476   -0.5869    0.2619 C   0  0  0  1  0  0  0  0  0  0  0  0
   -5.3495   -0.3699    0.7951 H   0  0  0  1  0  0  0  0  0  0  0  0
   -3.6122   -0.5074    0.9258 H   0  0  0  1  0  0  0  0  0  0  0  0
   -4.5202   -1.9892   -0.2469 C   0  0  0  1  0  0  0  0  0  0  0  0
   -5.5367   -2.2346   -0.4739 H   0  0  0  1  0  0  0  0  0  0  0  0
   -3.9740   -2.9580    0.8138 C   0  0  0  1  0  0  0  0  0  0  0  0
   -4.5870   -3.8317    0.8901 H   0  0  0  1  0  0  0  0  0  0  0  0
   -2.5818   -3.3051    0.2697 C   0  0  0  1  0  0  0  0  0  0  0  0
   -2.3014   -4.3006    0.5441 H   0  0  0  1  0  0  0  0  0  0  0  0
   -2.7479   -3.1841   -1.2277 C   0  0  0  1  0  0  0  0  0  0  0  0
   -3.1074   -4.1017   -1.6445 H   0  0  0  1  0  0  0  0  0  0  0  0
   -3.7321   -2.1189   -1.3965 O   0  0  0  1  0  0  0  0  0  0  0  0
   -1.4808   -2.8235   -1.8618 N   0  0  0  1  0  0  0  0  0  0  0  0
   -0.4278   -3.6611   -2.1397 C   0  0  0  1  0  0  0  0  0  0  0  0
   -0.4422   -4.6814   -1.9390 H   0  0  0  1  0  0  0  0  0  0  0  0
    0.6014   -3.0467   -2.6845 N   0  0  0  1  0  0  0  0  0  0  0  0
    0.1873   -1.7264   -2.7915 C   0  0  0  1  0  0  0  0  0  0  0  0
    0.8080   -0.5696   -3.2991 C   0  0  0  1  0  0  0  0  0  0  0  0
    0.1127    0.5860   -3.2723 N   0  0  0  1  0  0  0  0  0  0  0  0
   -1.1338    0.5650   -2.7726 C   0  0  0  1  0  0  0  0  0  0  0  0
   -1.6296    1.4792   -2.7833 H   0  0  0  1  0  0  0  0  0  0  0  0
   -1.8298   -0.4497   -2.2659 N   0  0  0  1  0  0  0  0  0  0  0  0
   -1.1018   -1.5803   -2.3001 C   0  0  0  1  0  0  0  0  0  0  0  0
    2.0686   -0.6155   -3.8006 N   0  0  0  1  0  0  0  0  0  0  0  0
    2.8318   -0.7352   -3.1976 H   0  0  0  1  0  0  0  0  0  0  0  0
    2.2155   -0.5289   -4.7657 H   0  0  0  1  0  0  0  0  0  0  0  0
   -1.6017   -2.3840    0.7506 O   0  0  0  1  0  0  0  0  0  0  0  0
   -0.8178   -2.8649    1.0258 H   0  0  0  1  0  0  0  0  0  0  0  0
   -3.8829   -2.3146    2.1129 O   0  0  0  1  0  0  0  0  0  0  0  0
   -3.9854   -3.1920    3.4947 P   0  0  0  1  0  0  0  0  0  0  0  0
   -2.8364   -4.1248    3.4867 O   0  0  0  1  0  0  0  0  0  0  0  0
   -3.7898   -2.1408    4.7117 O   0  5  0  1  0  0  0  0  0  0  0  0
   -5.4441   -3.8882    3.6035 O   0  5  0  1  0  0  0  0  0  0  0  0
   -0.8403    3.0816   -6.3335 C   0  0  0  1  0  0  0  0  0  0  0  0
   -0.6888    2.7602   -5.3242 H   0  0  0  1  0  0  0  0  0  0  0  0
    0.2969    2.5429   -7.1816 C   0  0  0  1  0  0  0  0  0  0  0  0
    0.6951    1.3857   -7.0550 O   0  0  0  1  0  0  0  0  0  0  0  0
    0.8263    3.4057   -8.0633 N   0  0  0  1  0  0  0  0  0  0  0  0
    0.4699    4.3176   -8.1050 H   0  0  0  1  0  0  0  0  0  0  0  0
    1.9110    3.0339   -8.9595 C   0  0  0  1  0  0  0  0  0  0  0  0
    2.6427    2.4972   -8.3923 H   0  0  0  1  0  0  0  0  0  0  0  0
    2.3465    3.9316   -9.3459 H   0  0  0  1  0  0  0  0  0  0  0  0
    1.4929    2.1642  -10.1378 C   0  0  0  1  0  0  0  0  0  0  0  0
    1.0333    1.2753   -9.7589 H   0  0  0  1  0  0  0  0  0  0  0  0
    2.3677    1.9037  -10.6962 H   0  0  0  1  0  0  0  0  0  0  0  0
    0.5144    2.8546  -11.0679 C   0  0  0  1  0  0  0  0  0  0  0  0
    0.1481    4.0091  -10.8646 O   0  0  0  1  0  0  0  0  0  0  0  0
    0.0775    2.1100  -12.1310 N   0  0  0  1  0  0  0  0  0  0  0  0
   -0.5113    2.5298  -12.7924 H   0  0  0  1  0  0  0  0  0  0  0  0
    0.4574    0.7169  -12.3128 C   0  0  0  1  0  0  0  0  0  0  0  0
    1.4291    0.5686  -11.8902 H   0  0  0  1  0  0  0  0  0  0  0  0
    0.4873    0.5037  -13.3609 H   0  0  0  1  0  0  0  0  0  0  0  0
   -0.5148   -0.2439  -11.6479 C   0  0  0  1  0  0  0  0  0  0  0  0
   -0.4612   -0.1030  -10.5886 H   0  0  0  1  0  0  0  0  0  0  0  0
   -0.2232   -1.2445  -11.8903 H   0  0  0  1  0  0  0  0  0  0  0  0
   -2.2281   -0.0014  -12.1739 S   0  0  0  1  0  0  0  0  0  0  0  0
   -3.0787   -1.2908  -11.2939 C   0  0  0  1  0  0  0  0  0  0  0  0
   -2.5296   -2.0639  -10.5561 O   0  0  0  1  0  0  0  0  0  0  0  0
   -4.5599   -1.2987  -11.5812 C   0  0  0  1  0  0  0  0  0  0  0  0
   -4.7880   -2.1486  -12.1901 H   0  0  0  1  0  0  0  0  0  0  0  0
   -4.8131   -0.4030  -12.1090 H   0  0  0  1  0  0  0  0  0  0  0  0
   -5.3849   -1.3691  -10.3213 C   0  0  0  1  0  0  0  0  0  0  0  0
   -6.3035   -0.5868  -10.1409 O   0  0  0  1  0  0  0  0  0  0  0  0
   -5.0668   -2.3853   -9.3255 C   0  0  0  1  0  0  0  0  0  0  0  0
   -4.3715   -3.1113   -9.5923 H   0  0  0  1  0  0  0  0  0  0  0  0
   -5.5905   -2.4636   -8.1028 C   0  0  0  1  0  0  0  0  0  0  0  0
   -6.2858   -1.7377   -7.8360 H   0  0  0  1  0  0  0  0  0  0  0  0
   -5.2671   -3.4964   -7.0907 C   0  0  0  1  0  0  0  0  0  0  0  0
   -4.0043   -4.0556   -7.1430 C   0  0  0  1  0  0  0  0  0  0  0  0
   -3.3302   -3.7501   -7.8737 H   0  0  0  1  0  0  0  0  0  0  0  0
   -3.6363   -5.0235   -6.2215 C   0  0  0  1  0  0  0  0  0  0  0  0
   -4.5340   -5.4333   -5.2537 C   0  0  0  1  0  0  0  0  0  0  0  0
   -5.8005   -4.8724   -5.2013 C   0  0  0  1  0  0  0  0  0  0  0  0
   -6.4747   -5.1778   -4.4707 H   0  0  0  1  0  0  0  0  0  0  0  0
   -6.1676   -3.9073   -6.1201 C   0  0  0  1  0  0  0  0  0  0  0  0
   -7.1192   -3.4893   -6.0833 H   0  0  0  1  0  0  0  0  0  0  0  0
   -4.0651   -6.3905   -4.4090 O   0  5  0  1  0  0  0  0  0  0  0  0
   -2.4002   -5.5663   -6.2693 O   0  0  0  1  0  0  0  0  0  0  0  0
   -1.5975   -5.4057   -7.4620 C   0  0  0  1  0  0  0  0  0  0  0  0
   -0.6137   -5.7874   -7.2845 H   0  0  0  1  0  0  0  0  0  0  0  0
   -1.5369   -4.3675   -7.7137 H   0  0  0  1  0  0  0  0  0  0  0  0
   -2.0480   -5.9434   -8.2699 H   0  0  0  1  0  0  0  0  0  0  0  0
   -0.8670    4.4904   -6.3867 O   0  0  0  1  0  0  0  0  0  0  0  0
   -1.6299    4.8149   -5.9028 H   0  0  0  1  0  0  0  0  0  0  0  0
  1  2  1  0  0  0  0
  1  3  1  0  0  0  0
  1  4  1  0  0  0  0
  1  5  1  0  0  0  0
  5  6  1  0  0  0  0
  5 10  1  0  0  0  0
  5 55  1  0  0  0  0
  6  7  1  0  0  0  0
  6  8  1  0  0  0  0
  6  9  1  0  0  0  0
 10 11  1  0  0  0  0
 10 12  1  0  0  0  0
 10 13  1  0  0  0  0
 13 14  1  0  0  0  0
 14 15  2  0  0  0  0
 14 16  1  0  0  0  0
 14 17  1  0  0  0  0
 17 18  1  0  0  0  0
 18 19  1  0  0  0  0
 18 20  2  0  0  0  0
 18 21  1  0  0  0  0
 21 22  1  0  0  0  0
 22 23  1  0  0  0  0
 22 24  1  0  0  0  0
 22 25  1  0  0  0  0
 25 26  1  0  0  0  0
 25 27  1  0  0  0  0
 25 33  1  0  0  0  0
 27 28  1  0  0  0  0
 27 29  1  0  0  0  0
 27 50  1  0  0  0  0
 29 30  1  0  0  0  0
 29 31  1  0  0  0  0
 29 48  1  0  0  0  0
 31 32  1  0  0  0  0
 31 33  1  0  0  0  0
 31 34  1  0  0  0  0
 34 35  1  0  0  0  0
 34 44  1  0  0  0  0
 35 36  1  0  0  0  0
 35 37  2  0  0  0  0
 37 38  1  0  0  0  0
 38 39  1  0  0  0  0
 38 44  2  0  0  0  0
 39 40  2  0  0  0  0
 39 45  1  0  0  0  0
 40 41  1  0  0  0  0
 41 42  1  0  0  0  0
 41 43  2  0  0  0  0
 43 44  1  0  0  0  0
 45 46  1  0  0  0  0
 45 47  1  0  0  0  0
 48 49  1  0  0  0  0
 50 51  1  0  0  0  0
 51 52  2  0  0  0  0
 51 53  1  0  0  0  0
 51 54  1  0  0  0  0
 55 56  1  0  0  0  0
 55 57  1  0  0  0  0
 55104  1  0  0  0  0
 57 58  2  0  0  0  0
 57 59  1  0  0  0  0
 59 60  1  0  0  0  0
 59 61  1  0  0  0  0
 61 62  1  0  0  0  0
 61 63  1  0  0  0  0
 61 64  1  0  0  0  0
 64 65  1  0  0  0  0
 64 66  1  0  0  0  0
 64 67  1  0  0  0  0
 67 68  2  0  0  0  0
 67 69  1  0  0  0  0
 69 70  1  0  0  0  0
 69 71  1  0  0  0  0
 71 72  1  0  0  0  0
 71 73  1  0  0  0  0
 71 74  1  0  0  0  0
 74 75  1  0  0  0  0
 74 76  1  0  0  0  0
 74 77  1  0  0  0  0
 77 78  1  0  0  0  0
 78 79  2  0  0  0  0
 78 80  1  0  0  0  0
 80 81  1  0  0  0  0
 80 82  1  0  0  0  0
 80 83  1  0  0  0  0
 83 84  2  0  0  0  0
 83 85  1  0  0  0  0
 85 86  1  0  0  0  0
 85 87  2  0  0  0  0
 87 88  1  0  0  0  0
 87 89  1  0  0  0  0
 89 90  2  0  0  0  0
 89 96  1  0  0  0  0
 90 91  1  0  0  0  0
 90 92  1  0  0  0  0
 92 93  2  0  0  0  0
 92 99  1  0  0  0  0
 93 94  1  0  0  0  0
 93 98  1  0  0  0  0
 94 95  1  0  0  0  0
 94 96  2  0  0  0  0
 96 97  1  0  0  0  0
 99100  1  0  0  0  0
100101  1  0  0  0  0
100102  1  0  0  0  0
100103  1  0  0  0  0
104105  1  0  0  0  0
M  BCL ATM C_TeTeTeTe H_S H_S H_S C_TeTeTeTe C_TeTeTeTe H_S H_S H_S C_TeTeTeTe H_S H_S O_Tr2TrTrPi2 P_TeTeTeTePi O_Tr2Tr2TrPi O_Te2Te2Te2Te O_Tr2TrTrPi2 P_TeTeTeTePi O_Te2Te2TeTe O_Tr2Tr2TrPi O_Tr2TrTrPi2 C_TeTeTeTe H_S H_S C_TeTeTeTe H_S C_TeTeTeTe H_S C_TeTeTeTe H_S C_TeTeTeTe H_S O_Te2Te2TeTe N_TrTrTrPi2 C_TrTrTrPi H_S N_Tr2TrTrPi C_TrTrTrPi C_TrTrTrPi N_Tr2TrTrPi C_TrTrTrPi H_S N_Tr2TrTrPi C_TrTrTrPi N_TrTrTrPi2 H_S H_S O_Te2Te2TeTe H_S O_Tr2TrTrPi2 P_TeTeTeTePi O_Tr2Tr2TrPi O_Te2Te2Te2Te O_Te2Te2Te2Te C_TeTeTeTe H_S C_TrTrTrPi O_Tr2Tr2TrPi N_TrTrTrPi2 H_S C_TeTeTeTe H_S H_S C_TeTeTeTe H_S H_S C_TrTrTrPi O_Tr2Tr2TrPi N_TrTrTrPi2 H_S C_TeTeTeTe H_S H_S C_TeTeTeTe H_S H_S S_Te2Te2TeTe C_TrTrTrPi O_Tr2Tr2TrPi C_TeTeTeTe H_S H_S C_TrTrTrPi O_Tr2Tr2TrPi C_TrTrTrPi H_S C_TrTrTrPi H_S C_TrTrTrPi C_TrTrTrPi H_S C_TrTrTrPi C_TrTrTrPi C_TrTrTrPi H_S C_TrTrTrPi H_S O_Te2Te2Te2Te O_Tr2TrTrPi2 C_TeTeTeTe H_S H_S H_S O_Te2Te2TeTe H_S
M  BCL BND NonConjugatedSingleBond NonConjugatedSingleBond NonConjugatedSingleBond NonConjugatedSingleBond NonConjugatedSingleBond NonConjugatedSingleBond NonConjugatedSingleBond NonConjugatedSingleBond NonConjugatedSingleBond NonConjugatedSingleBond NonConjugatedSingleBond NonConjugatedSingleBond NonConjugatedSingleBond ConjugatedSingleBond ConjugatedDoubleBond ConjugatedSingleBond ConjugatedSingleBond ConjugatedSingleBond ConjugatedSingleBond ConjugatedDoubleBond ConjugatedSingleBond NonConjugatedSingleBond NonConjugatedSingleBond NonConjugatedSingleBond NonConjugatedSingleBond NonConjugatedSingleBond NonConjugatedSingleBondInRing NonConjugatedSingleBondInRing NonConjugatedSingleBond NonConjugatedSingleBondInRing NonConjugatedSingleBond NonConjugatedSingleBond NonConjugatedSingleBondInRing NonConjugatedSingleBond NonConjugatedSingleBond NonConjugatedSingleBondInRing NonConjugatedSingleBond AromaticSingleBond AromaticSingleBond NonConjugatedSingleBond AromaticDoubleBond AromaticSingleBond AromaticSingleBond AromaticDoubleBond AromaticDoubleBond ConjugatedSingleBond AromaticSingleBond NonConjugatedSingleBond AromaticDoubleBond AromaticSingleBond NonConjugatedSingleBond NonConjugatedSingleBond NonConjugatedSingleBond ConjugatedSingleBond ConjugatedDoubleBond ConjugatedSingleBond ConjugatedSingleBond NonConjugatedSingleBond NonConjugatedSingleBond NonConjugatedSingleBond ConjugatedDoubleBond AmideSingleBond NonConjugatedSingleBond NonConjugatedSingleBond NonConjugatedSingleBond NonConjugatedSingleBond NonConjugatedSingleBond NonConjugatedSingleBond NonConjugatedSingleBond NonConjugatedSingleBond ConjugatedDoubleBond AmideSingleBond NonConjugatedSingleBond NonConjugatedSingleBond NonConjugatedSingleBond NonConjugatedSingleBond NonConjugatedSingleBond NonConjugatedSingleBond NonConjugatedSingleBond NonConjugatedSingleBond ConjugatedSingleBond ConjugatedDoubleBond NonConjugatedSingleBond NonConjugatedSingleBond NonConjugatedSingleBond NonConjugatedSingleBond ConjugatedDoubleBond ConjugatedSingleBond NonConjugatedSingleBond ConjugatedDoubleBond NonConjugatedSingleBond ConjugatedSingleBond AromaticDoubleBond AromaticSingleBond NonConjugatedSingleBond AromaticSingleBond AromaticDoubleBond ConjugatedSingleBond AromaticSingleBond ConjugatedSingleBond NonConjugatedSingleBond AromaticDoubleBond NonConjugatedSingleBond NonConjugatedSingleBond NonConjugatedSingleBond NonConjugatedSingleBond NonConjugatedSingleBond NonConjugatedSingleBond
M  BCL CHI  14   R  18   S  25   R  27   R  29   R  31   S  55   R
M  BCL DBI - - - - - - - - - - - E - - -
M  END
> <ConfClashScore>
0 

> <ConfOneFourInteractionScore>
-0.975664 

> <ConfScore>
0.360229 

> <ConfScorePBest>
0.00624046 

> <ConfTolerance>
3.52046 

$$$$
L03.****
  PyMOL2.5          3D                             0

105108  0  0  0  0  0  0  0  0999 V2000
  -10.2447   -1.4496    2.4533 C   0  0  0  1  0  0  0  0  0  0  0  0
  -11.2326   -1.8261    2.6182 H   0  0  0  1  0  0  0  0  0  0  0  0
  -10.2988   -0.4201    2.1670 H   0  0  0  1  0  0  0  0  0  0  0  0
   -9.6739   -1.5404    3.3538 H   0  0  0  1  0  0  0  0  0  0  0  0
   -9.5695   -2.2555    1.3372 C   0  0  0  1  0  0  0  0  0  0  0  0
   -8.1152   -1.7940    1.1920 C   0  0  0  1  0  0  0  0  0  0  0  0
   -7.4591   -2.5699    1.5272 H   0  0  0  1  0  0  0  0  0  0  0  0
   -7.9593   -0.9155    1.7827 H   0  0  0  1  0  0  0  0  0  0  0  0
   -7.9118   -1.5743    0.1647 H   0  0  0  1  0  0  0  0  0  0  0  0
  -10.2631   -1.9882    0.0879 C   0  0  0  1  0  0  0  0  0  0  0  0
  -11.2560   -2.3809    0.1578 H   0  0  0  1  0  0  0  0  0  0  0  0
   -9.7396   -2.4798   -0.7053 H   0  0  0  1  0  0  0  0  0  0  0  0
  -10.3451   -0.5792   -0.2176 O   0  0  0  1  0  0  0  0  0  0  0  0
   -9.4312    0.1238   -1.2884 P   0  0  0  1  0  0  0  0  0  0  0  0
   -9.4749   -1.0952   -2.1265 O   0  0  0  1  0  0  0  0  0  0  0  0
  -10.5206    1.1201   -0.6212 O   0  5  0  1  0  0  0  0  0  0  0  0
   -8.4981    0.8412   -2.3819 O   0  0  0  1  0  0  0  0  0  0  0  0
   -7.1738    0.3555   -3.1770 P   0  0  0  1  0  0  0  0  0  0  0  0
   -6.7422    1.5524   -3.9570 O   0  0  0  0  0  0  0  0  0  0  0  0
   -7.3945   -0.9142   -3.9092 O   0  0  0  1  0  0  0  0  0  0  0  0
   -6.1380   -0.0022   -2.0476 O   0  0  0  1  0  0  0  0  0  0  0  0
   -4.8893   -0.6666   -2.3674 C   0  0  0  1  0  0  0  0  0  0  0  0
   -4.0658   -0.0186   -2.1509 H   0  0  0  1  0  0  0  0  0  0  0  0
   -4.8725   -0.9315   -3.4039 H   0  0  0  1  0  0  0  0  0  0  0  0
   -4.8014   -1.9112   -1.5171 C   0  0  0  1  0  0  0  0  0  0  0  0
   -5.7779   -2.3321   -1.3980 H   0  0  0  1  0  0  0  0  0  0  0  0
   -4.2265   -1.5706   -0.1740 C   0  0  0  1  0  0  0  0  0  0  0  0
   -4.9251   -1.8265    0.5951 H   0  0  0  1  0  0  0  0  0  0  0  0
   -2.9630   -2.3587    0.0040 C   0  0  0  1  0  0  0  0  0  0  0  0
   -3.0501   -2.9961    0.8590 H   0  0  0  1  0  0  0  0  0  0  0  0
   -2.7563   -3.1873   -1.2298 C   0  0  0  1  0  0  0  0  0  0  0  0
   -2.7433   -4.2256   -0.9719 H   0  0  0  1  0  0  0  0  0  0  0  0
   -3.8927   -2.9104   -2.1698 O   0  0  0  1  0  0  0  0  0  0  0  0
   -1.4860   -2.8250   -1.8651 N   0  0  0  1  0  0  0  0  0  0  0  0
   -0.4345   -3.6629   -2.1474 C   0  0  0  1  0  0  0  0  0  0  0  0
   -0.4502   -4.6841   -1.9510 H   0  0  0  1  0  0  0  0  0  0  0  0
    0.5951   -3.0478   -2.6906 N   0  0  0  1  0  0  0  0  0  0  0  0
    0.1829   -1.7265   -2.7916 C   0  0  0  1  0  0  0  0  0  0  0  0
    0.8049   -0.5685   -3.2949 C   0  0  0  1  0  0  0  0  0  0  0  0
    0.1113    0.5880   -3.2627 N   0  0  0  1  0  0  0  0  0  0  0  0
   -1.1348    0.5669   -2.7620 C   0  0  0  1  0  0  0  0  0  0  0  0
   -1.6292    1.4818   -2.7684 H   0  0  0  1  0  0  0  0  0  0  0  0
   -1.8318   -0.4489   -2.2589 N   0  0  0  1  0  0  0  0  0  0  0  0
   -1.1055   -1.5805   -2.2985 C   0  0  0  1  0  0  0  0  0  0  0  0
    2.0854   -0.6149   -3.8059 N   0  0  0  1  0  0  0  0  0  0  0  0
    2.7798   -0.0269   -3.4419 H   0  0  0  1  0  0  0  0  0  0  0  0
    2.3007   -1.2358   -4.5329 H   0  0  0  1  0  0  0  0  0  0  0  0
   -1.8587   -1.4704    0.1819 O   0  0  0  1  0  0  0  0  0  0  0  0
   -1.7553   -1.2707    1.1152 H   0  0  0  1  0  0  0  0  0  0  0  0
   -3.9339   -0.1508   -0.1097 O   0  0  0  1  0  0  0  0  0  0  0  0
   -5.1049    0.9326    0.2710 P   0  0  0  1  0  0  0  0  0  0  0  0
   -4.7830    1.6878    1.5024 O   0  0  0  1  0  0  0  0  0  0  0  0
   -5.3136    1.9176   -0.9981 O   0  5  0  1  0  0  0  0  0  0  0  0
   -6.4108   -0.0034    0.4779 O   0  5  0  1  0  0  0  0  0  0  0  0
   -9.6343   -3.7557    1.6472 C   0  0  0  1  0  0  0  0  0  0  0  0
   -9.1103   -4.2795    0.8752 H   0  0  0  1  0  0  0  0  0  0  0  0
   -8.9505   -4.0495    2.9746 C   0  0  0  1  0  0  0  0  0  0  0  0
   -8.5127   -3.1445    3.6801 O   0  0  0  1  0  0  0  0  0  0  0  0
   -8.8630   -5.3455    3.3109 N   0  0  0  1  0  0  0  0  0  0  0  0
   -9.2113   -6.0325    2.7050 H   0  0  0  1  0  0  0  0  0  0  0  0
   -8.2518   -5.7331    4.5734 C   0  0  0  1  0  0  0  0  0  0  0  0
   -8.9515   -5.5528    5.3627 H   0  0  0  1  0  0  0  0  0  0  0  0
   -7.3771   -5.1366    4.7284 H   0  0  0  1  0  0  0  0  0  0  0  0
   -7.8526   -7.1995    4.6020 C   0  0  0  1  0  0  0  0  0  0  0  0
   -8.7094   -7.7906    4.3542 H   0  0  0  1  0  0  0  0  0  0  0  0
   -7.5239   -7.4437    5.5905 H   0  0  0  1  0  0  0  0  0  0  0  0
   -6.7393   -7.5311    3.6274 C   0  0  0  1  0  0  0  0  0  0  0  0
   -5.5719   -7.6323    4.0021 O   0  0  0  1  0  0  0  0  0  0  0  0
   -7.1143   -7.7026    2.3506 N   0  0  0  1  0  0  0  0  0  0  0  0
   -8.0705   -7.7199    2.1367 H   0  0  0  1  0  0  0  0  0  0  0  0
   -6.1504   -7.8640    1.2723 C   0  0  0  1  0  0  0  0  0  0  0  0
   -5.5050   -8.6802    1.5216 H   0  0  0  1  0  0  0  0  0  0  0  0
   -5.5765   -6.9637    1.2009 H   0  0  0  1  0  0  0  0  0  0  0  0
   -6.7607   -8.1431   -0.0851 C   0  0  0  1  0  0  0  0  0  0  0  0
   -7.4544   -8.9505    0.0233 H   0  0  0  1  0  0  0  0  0  0  0  0
   -5.9736   -8.4350   -0.7485 H   0  0  0  1  0  0  0  0  0  0  0  0
   -7.6363   -6.7490   -0.8340 S   0  0  0  1  0  0  0  0  0  0  0  0
   -8.7577   -7.5033   -1.9948 C   0  0  0  1  0  0  0  0  0  0  0  0
   -8.7678   -8.6869   -2.1849 O   0  0  0  1  0  0  0  0  0  0  0  0
   -9.7031   -6.5019   -2.6114 C   0  0  0  1  0  0  0  0  0  0  0  0
   -9.7519   -5.6400   -1.9792 H   0  0  0  1  0  0  0  0  0  0  0  0
  -10.6739   -6.9456   -2.6860 H   0  0  0  1  0  0  0  0  0  0  0  0
   -9.2598   -6.0706   -3.9863 C   0  0  0  1  0  0  0  0  0  0  0  0
   -8.4928   -5.1324   -4.1322 O   0  0  0  1  0  0  0  0  0  0  0  0
   -9.7433   -6.7718   -5.1718 C   0  0  0  1  0  0  0  0  0  0  0  0
  -10.3997   -7.5602   -5.0010 H   0  0  0  1  0  0  0  0  0  0  0  0
   -9.4448   -6.5232   -6.4463 C   0  0  0  1  0  0  0  0  0  0  0  0
   -8.7918   -5.7432   -6.6625 H   0  0  0  1  0  0  0  0  0  0  0  0
  -10.0047   -7.3121   -7.5681 C   0  0  0  1  0  0  0  0  0  0  0  0
  -11.0875   -8.1414   -7.3444 C   0  0  0  1  0  0  0  0  0  0  0  0
  -11.5010   -8.2115   -6.3927 H   0  0  0  1  0  0  0  0  0  0  0  0
  -11.6222   -8.8798   -8.3886 C   0  0  0  1  0  0  0  0  0  0  0  0
  -11.0694   -8.7908   -9.6523 C   0  0  0  1  0  0  0  0  0  0  0  0
   -9.9833   -7.9589   -9.8765 C   0  0  0  1  0  0  0  0  0  0  0  0
   -9.5698   -7.8889  -10.8281 H   0  0  0  1  0  0  0  0  0  0  0  0
   -9.4501   -7.2227   -8.8354 C   0  0  0  1  0  0  0  0  0  0  0  0
   -8.6328   -6.6017   -9.0027 H   0  0  0  1  0  0  0  0  0  0  0  0
  -11.6145   -9.5324  -10.6535 O   0  5  0  1  0  0  0  0  0  0  0  0
  -12.6808   -9.7187   -8.2919 O   0  0  0  1  0  0  0  0  0  0  0  0
  -13.4750   -9.6381   -7.0981 C   0  0  0  1  0  0  0  0  0  0  0  0
  -12.8330   -9.5363   -6.2482 H   0  0  0  1  0  0  0  0  0  0  0  0
  -14.0599  -10.5285   -6.9983 H   0  0  0  1  0  0  0  0  0  0  0  0
  -14.1239   -8.7894   -7.1582 H   0  0  0  1  0  0  0  0  0  0  0  0
  -11.0079   -4.1383    1.6384 O   0  0  0  1  0  0  0  0  0  0  0  0
  -11.1051   -4.9935    2.0636 H   0  0  0  1  0  0  0  0  0  0  0  0
  1  2  1  0  0  0  0
  1  3  1  0  0  0  0
  1  4  1  0  0  0  0
  1  5  1  0  0  0  0
  5  6  1  0  0  0  0
  5 10  1  0  0  0  0
  5 55  1  0  0  0  0
  6  7  1  0  0  0  0
  6  8  1  0  0  0  0
  6  9  1  0  0  0  0
 10 11  1  0  0  0  0
 10 12  1  0  0  0  0
 10 13  1  0  0  0  0
 13 14  1  0  0  0  0
 14 15  2  0  0  0  0
 14 16  1  0  0  0  0
 14 17  1  0  0  0  0
 17 18  1  0  0  0  0
 18 19  1  0  0  0  0
 18 20  2  0  0  0  0
 18 21  1  0  0  0  0
 21 22  1  0  0  0  0
 22 23  1  0  0  0  0
 22 24  1  0  0  0  0
 22 25  1  0  0  0  0
 25 26  1  0  0  0  0
 25 27  1  0  0  0  0
 25 33  1  0  0  0  0
 27 28  1  0  0  0  0
 27 29  1  0  0  0  0
 27 50  1  0  0  0  0
 29 30  1  0  0  0  0
 29 31  1  0  0  0  0
 29 48  1  0  0  0  0
 31 32  1  0  0  0  0
 31 33  1  0  0  0  0
 31 34  1  0  0  0  0
 34 35  1  0  0  0  0
 34 44  1  0  0  0  0
 35 36  1  0  0  0  0
 35 37  2  0  0  0  0
 37 38  1  0  0  0  0
 38 39  1  0  0  0  0
 38 44  2  0  0  0  0
 39 40  2  0  0  0  0
 39 45  1  0  0  0  0
 40 41  1  0  0  0  0
 41 42  1  0  0  0  0
 41 43  2  0  0  0  0
 43 44  1  0  0  0  0
 45 46  1  0  0  0  0
 45 47  1  0  0  0  0
 48 49  1  0  0  0  0
 50 51  1  0  0  0  0
 51 52  2  0  0  0  0
 51 53  1  0  0  0  0
 51 54  1  0  0  0  0
 55 56  1  0  0  0  0
 55 57  1  0  0  0  0
 55104  1  0  0  0  0
 57 58  2  0  0  0  0
 57 59  1  0  0  0  0
 59 60  1  0  0  0  0
 59 61  1  0  0  0  0
 61 62  1  0  0  0  0
 61 63  1  0  0  0  0
 61 64  1  0  0  0  0
 64 65  1  0  0  0  0
 64 66  1  0  0  0  0
 64 67  1  0  0  0  0
 67 68  2  0  0  0  0
 67 69  1  0  0  0  0
 69 70  1  0  0  0  0
 69 71  1  0  0  0  0
 71 72  1  0  0  0  0
 71 73  1  0  0  0  0
 71 74  1  0  0  0  0
 74 75  1  0  0  0  0
 74 76  1  0  0  0  0
 74 77  1  0  0  0  0
 77 78  1  0  0  0  0
 78 79  2  0  0  0  0
 78 80  1  0  0  0  0
 80 81  1  0  0  0  0
 80 82  1  0  0  0  0
 80 83  1  0  0  0  0
 83 84  2  0  0  0  0
 83 85  1  0  0  0  0
 85 86  1  0  0  0  0
 85 87  2  0  0  0  0
 87 88  1  0  0  0  0
 87 89  1  0  0  0  0
 89 90  2  0  0  0  0
 89 96  1  0  0  0  0
 90 91  1  0  0  0  0
 90 92  1  0  0  0  0
 92 93  2  0  0  0  0
 92 99  1  0  0  0  0
 93 94  1  0  0  0  0
 93 98  1  0  0  0  0
 94 95  1  0  0  0  0
 94 96  2  0  0  0  0
 96 97  1  0  0  0  0
 99100  1  0  0  0  0
100101  1  0  0  0  0
100102  1  0  0  0  0
100103  1  0  0  0  0
104105  1  0  0  0  0
M  BCL ATM C_TeTeTeTe H_S H_S H_S C_TeTeTeTe C_TeTeTeTe H_S H_S H_S C_TeTeTeTe H_S H_S O_Tr2TrTrPi2 P_TeTeTeTePi O_Tr2Tr2TrPi O_Te2Te2Te2Te O_Tr2TrTrPi2 P_TeTeTeTePi O_Te2Te2TeTe O_Tr2Tr2TrPi O_Tr2TrTrPi2 C_TeTeTeTe H_S H_S C_TeTeTeTe H_S C_TeTeTeTe H_S C_TeTeTeTe H_S C_TeTeTeTe H_S O_Te2Te2TeTe N_TrTrTrPi2 C_TrTrTrPi H_S N_Tr2TrTrPi C_TrTrTrPi C_TrTrTrPi N_Tr2TrTrPi C_TrTrTrPi H_S N_Tr2TrTrPi C_TrTrTrPi N_TrTrTrPi2 H_S H_S O_Te2Te2TeTe H_S O_Tr2TrTrPi2 P_TeTeTeTePi O_Tr2Tr2TrPi O_Te2Te2Te2Te O_Te2Te2Te2Te C_TeTeTeTe H_S C_TrTrTrPi O_Tr2Tr2TrPi N_TrTrTrPi2 H_S C_TeTeTeTe H_S H_S C_TeTeTeTe H_S H_S C_TrTrTrPi O_Tr2Tr2TrPi N_TrTrTrPi2 H_S C_TeTeTeTe H_S H_S C_TeTeTeTe H_S H_S S_Te2Te2TeTe C_TrTrTrPi O_Tr2Tr2TrPi C_TeTeTeTe H_S H_S C_TrTrTrPi O_Tr2Tr2TrPi C_TrTrTrPi H_S C_TrTrTrPi H_S C_TrTrTrPi C_TrTrTrPi H_S C_TrTrTrPi C_TrTrTrPi C_TrTrTrPi H_S C_TrTrTrPi H_S O_Te2Te2Te2Te O_Tr2TrTrPi2 C_TeTeTeTe H_S H_S H_S O_Te2Te2TeTe H_S
M  BCL BND NonConjugatedSingleBond NonConjugatedSingleBond NonConjugatedSingleBond NonConjugatedSingleBond NonConjugatedSingleBond NonConjugatedSingleBond NonConjugatedSingleBond NonConjugatedSingleBond NonConjugatedSingleBond NonConjugatedSingleBond NonConjugatedSingleBond NonConjugatedSingleBond NonConjugatedSingleBond ConjugatedSingleBond ConjugatedDoubleBond ConjugatedSingleBond ConjugatedSingleBond ConjugatedSingleBond ConjugatedSingleBond ConjugatedDoubleBond ConjugatedSingleBond NonConjugatedSingleBond NonConjugatedSingleBond NonConjugatedSingleBond NonConjugatedSingleBond NonConjugatedSingleBond NonConjugatedSingleBondInRing NonConjugatedSingleBondInRing NonConjugatedSingleBond NonConjugatedSingleBondInRing NonConjugatedSingleBond NonConjugatedSingleBond NonConjugatedSingleBondInRing NonConjugatedSingleBond NonConjugatedSingleBond NonConjugatedSingleBondInRing NonConjugatedSingleBond AromaticSingleBond AromaticSingleBond NonConjugatedSingleBond AromaticDoubleBond AromaticSingleBond AromaticSingleBond AromaticDoubleBond AromaticDoubleBond ConjugatedSingleBond AromaticSingleBond NonConjugatedSingleBond AromaticDoubleBond AromaticSingleBond NonConjugatedSingleBond NonConjugatedSingleBond NonConjugatedSingleBond ConjugatedSingleBond ConjugatedDoubleBond ConjugatedSingleBond ConjugatedSingleBond NonConjugatedSingleBond NonConjugatedSingleBond NonConjugatedSingleBond ConjugatedDoubleBond AmideSingleBond NonConjugatedSingleBond NonConjugatedSingleBond NonConjugatedSingleBond NonConjugatedSingleBond NonConjugatedSingleBond NonConjugatedSingleBond NonConjugatedSingleBond NonConjugatedSingleBond ConjugatedDoubleBond AmideSingleBond NonConjugatedSingleBond NonConjugatedSingleBond NonConjugatedSingleBond NonConjugatedSingleBond NonConjugatedSingleBond NonConjugatedSingleBond NonConjugatedSingleBond NonConjugatedSingleBond ConjugatedSingleBond ConjugatedDoubleBond NonConjugatedSingleBond NonConjugatedSingleBond NonConjugatedSingleBond NonConjugatedSingleBond ConjugatedDoubleBond ConjugatedSingleBond NonConjugatedSingleBond ConjugatedDoubleBond NonConjugatedSingleBond ConjugatedSingleBond AromaticDoubleBond AromaticSingleBond NonConjugatedSingleBond AromaticSingleBond AromaticDoubleBond ConjugatedSingleBond AromaticSingleBond ConjugatedSingleBond NonConjugatedSingleBond AromaticDoubleBond NonConjugatedSingleBond NonConjugatedSingleBond NonConjugatedSingleBond NonConjugatedSingleBond NonConjugatedSingleBond NonConjugatedSingleBond
M  BCL CHI  14   R  18   S  25   R  27   R  29   R  31   S  55   R
M  BCL DBI - - - - - - - - - - - E - - -
M  END
> <ConfClashScore>
0 

> <ConfOneFourInteractionScore>
-0.962764 

> <ConfScore>
0.369547 

> <ConfScorePBest>
0.00613746 

> <ConfTolerance>
3.64238 

$$$$
L03.****
  PyMOL2.5          3D                             0

105108  0  0  0  0  0  0  0  0999 V2000
   -9.7611    3.5280    5.8986 C   0  0  0  1  0  0  0  0  0  0  0  0
   -8.7364    3.3530    6.1522 H   0  0  0  1  0  0  0  0  0  0  0  0
  -10.3875    2.8879    6.4840 H   0  0  0  1  0  0  0  0  0  0  0  0
  -10.0082    4.5497    6.0985 H   0  0  0  1  0  0  0  0  0  0  0  0
   -9.9776    3.2320    4.4098 C   0  0  0  1  0  0  0  0  0  0  0  0
  -10.8856    2.0047    4.2670 C   0  0  0  1  0  0  0  0  0  0  0  0
  -11.8597    2.2351    4.6450 H   0  0  0  1  0  0  0  0  0  0  0  0
  -10.4718    1.1887    4.8218 H   0  0  0  1  0  0  0  0  0  0  0  0
  -10.9589    1.7338    3.2344 H   0  0  0  1  0  0  0  0  0  0  0  0
   -8.6562    2.9160    3.7900 C   0  0  0  1  0  0  0  0  0  0  0  0
   -8.1999    2.0955    4.3032 H   0  0  0  1  0  0  0  0  0  0  0  0
   -8.0152    3.7712    3.8428 H   0  0  0  1  0  0  0  0  0  0  0  0
   -8.8929    2.5621    2.4071 O   0  0  0  1  0  0  0  0  0  0  0  0
   -7.7647    1.8863    1.5429 P   0  0  0  1  0  0  0  0  0  0  0  0
   -8.7961    1.2131    0.7223 O   0  0  0  1  0  0  0  0  0  0  0  0
   -7.4227    3.4128    1.9641 O   0  5  0  1  0  0  0  0  0  0  0  0
   -6.6155    1.1975    0.6620 O   0  0  0  1  0  0  0  0  0  0  0  0
   -5.0542    1.5620    0.5148 P   0  0  0  1  0  0  0  0  0  0  0  0
   -4.7253    2.6658    1.4703 O   0  0  0  0  0  0  0  0  0  0  0  0
   -4.8415    1.7399   -0.9400 O   0  0  0  1  0  0  0  0  0  0  0  0
   -4.2985    0.3097    1.0949 O   0  0  0  1  0  0  0  0  0  0  0  0
   -3.4171   -0.4816    0.2565 C   0  0  0  1  0  0  0  0  0  0  0  0
   -2.5531   -0.7779    0.8138 H   0  0  0  1  0  0  0  0  0  0  0  0
   -3.1138    0.0906   -0.5953 H   0  0  0  1  0  0  0  0  0  0  0  0
   -4.1843   -1.7031   -0.1911 C   0  0  0  1  0  0  0  0  0  0  0  0
   -5.2300   -1.4780   -0.2181 H   0  0  0  1  0  0  0  0  0  0  0  0
   -3.9152   -2.8722    0.7415 C   0  0  0  1  0  0  0  0  0  0  0  0
   -4.7006   -3.5973    0.6943 H   0  0  0  1  0  0  0  0  0  0  0  0
   -2.6171   -3.4248    0.1775 C   0  0  0  1  0  0  0  0  0  0  0  0
   -2.5109   -4.4653    0.4034 H   0  0  0  1  0  0  0  0  0  0  0  0
   -2.7783   -3.2035   -1.3139 C   0  0  0  1  0  0  0  0  0  0  0  0
   -3.1407   -4.0954   -1.7809 H   0  0  0  1  0  0  0  0  0  0  0  0
   -3.7310   -2.1365   -1.4785 O   0  0  0  1  0  0  0  0  0  0  0  0
   -1.4959   -2.8281   -1.9077 N   0  0  0  1  0  0  0  0  0  0  0  0
   -0.4392   -3.6520   -2.1894 C   0  0  0  1  0  0  0  0  0  0  0  0
   -0.4548   -4.6734   -1.9941 H   0  0  0  1  0  0  0  0  0  0  0  0
    0.5891   -3.0510   -2.7231 N   0  0  0  1  0  0  0  0  0  0  0  0
    0.1854   -1.7329   -2.7980 C   0  0  0  1  0  0  0  0  0  0  0  0
    0.7982   -0.5712   -3.2743 C   0  0  0  1  0  0  0  0  0  0  0  0
    0.1405    0.5917   -3.2145 N   0  0  0  1  0  0  0  0  0  0  0  0
   -1.1099    0.5805   -2.7053 C   0  0  0  1  0  0  0  0  0  0  0  0
   -1.5954    1.5000   -2.6839 H   0  0  0  1  0  0  0  0  0  0  0  0
   -1.8043   -0.4486   -2.2274 N   0  0  0  1  0  0  0  0  0  0  0  0
   -1.0972   -1.5779   -2.2998 C   0  0  0  1  0  0  0  0  0  0  0  0
    2.0629   -0.6229   -3.7984 N   0  0  0  1  0  0  0  0  0  0  0  0
    2.5487   -1.4737   -3.8230 H   0  0  0  1  0  0  0  0  0  0  0  0
    2.4818    0.1908   -4.1487 H   0  0  0  1  0  0  0  0  0  0  0  0
   -1.4899   -2.7092    0.6848 O   0  0  0  1  0  0  0  0  0  0  0  0
   -1.3992   -1.8781    0.2131 H   0  0  0  1  0  0  0  0  0  0  0  0
   -3.7491   -2.4283    2.1087 O   0  0  0  1  0  0  0  0  0  0  0  0
   -5.0405   -1.9541    3.0015 P   0  0  0  1  0  0  0  0  0  0  0  0
   -6.2599   -1.9830    2.1633 O   0  0  0  1  0  0  0  0  0  0  0  0
   -5.1873   -2.9358    4.2817 O   0  5  0  1  0  0  0  0  0  0  0  0
   -4.6662   -0.4556    3.4901 O   0  5  0  1  0  0  0  0  0  0  0  0
  -10.5941    4.4476    3.7075 C   0  0  0  1  0  0  0  0  0  0  0  0
   -9.8571    5.2216    3.6547 H   0  0  0  1  0  0  0  0  0  0  0  0
  -10.9875    4.0490    2.2925 C   0  0  0  1  0  0  0  0  0  0  0  0
  -11.8543    3.1987    2.0944 O   0  0  0  1  0  0  0  0  0  0  0  0
  -10.3615    4.6518    1.2703 N   0  0  0  1  0  0  0  0  0  0  0  0
   -9.7230    5.3567    1.5069 H   0  0  0  1  0  0  0  0  0  0  0  0
  -10.5229    4.3780   -0.1498 C   0  0  0  1  0  0  0  0  0  0  0  0
  -11.5299    4.0563   -0.3148 H   0  0  0  1  0  0  0  0  0  0  0  0
   -9.8484    3.5912   -0.4162 H   0  0  0  1  0  0  0  0  0  0  0  0
  -10.2517    5.5553   -1.0534 C   0  0  0  1  0  0  0  0  0  0  0  0
   -9.2236    5.8243   -0.9289 H   0  0  0  1  0  0  0  0  0  0  0  0
  -10.8741    6.3612   -0.7247 H   0  0  0  1  0  0  0  0  0  0  0  0
  -10.4957    5.3702   -2.5385 C   0  0  0  1  0  0  0  0  0  0  0  0
  -11.5056    4.8045   -2.9537 O   0  0  0  1  0  0  0  0  0  0  0  0
   -9.5505    5.8578   -3.3471 N   0  0  0  1  0  0  0  0  0  0  0  0
   -8.7503    6.2610   -2.9502 H   0  0  0  1  0  0  0  0  0  0  0  0
   -9.6678    5.8110   -4.7969 C   0  0  0  1  0  0  0  0  0  0  0  0
  -10.6980    5.6777   -5.0534 H   0  0  0  1  0  0  0  0  0  0  0  0
   -9.0990    4.9808   -5.1603 H   0  0  0  1  0  0  0  0  0  0  0  0
   -9.1637    7.0693   -5.4592 C   0  0  0  1  0  0  0  0  0  0  0  0
   -9.4901    7.9104   -4.8839 H   0  0  0  1  0  0  0  0  0  0  0  0
   -9.5806    7.1261   -6.4430 H   0  0  0  1  0  0  0  0  0  0  0  0
   -7.3612    7.1302   -5.5944 S   0  0  0  1  0  0  0  0  0  0  0  0
   -6.8883    7.8153   -4.0237 C   0  0  0  1  0  0  0  0  0  0  0  0
   -7.6403    7.9206   -3.0926 O   0  0  0  1  0  0  0  0  0  0  0  0
   -5.4423    8.2454   -3.9990 C   0  0  0  1  0  0  0  0  0  0  0  0
   -5.2523    8.7236   -3.0609 H   0  0  0  1  0  0  0  0  0  0  0  0
   -5.2885    8.9448   -4.7941 H   0  0  0  1  0  0  0  0  0  0  0  0
   -4.4509    7.1215   -4.1632 C   0  0  0  1  0  0  0  0  0  0  0  0
   -4.0277    6.5260   -3.1882 O   0  0  0  1  0  0  0  0  0  0  0  0
   -4.0089    6.7609   -5.5049 C   0  0  0  1  0  0  0  0  0  0  0  0
   -4.1191    7.4775   -6.2505 H   0  0  0  1  0  0  0  0  0  0  0  0
   -3.4759    5.5918   -5.8577 C   0  0  0  1  0  0  0  0  0  0  0  0
   -3.3657    4.8751   -5.1122 H   0  0  0  1  0  0  0  0  0  0  0  0
   -3.0267    5.2254   -7.2210 C   0  0  0  1  0  0  0  0  0  0  0  0
   -3.3833    6.0216   -8.2929 C   0  0  0  1  0  0  0  0  0  0  0  0
   -3.9665    6.8690   -8.1401 H   0  0  0  1  0  0  0  0  0  0  0  0
   -2.9637    5.6904   -9.5719 C   0  0  0  1  0  0  0  0  0  0  0  0
   -2.1932    4.5612   -9.7759 C   0  0  0  1  0  0  0  0  0  0  0  0
   -1.8356    3.7628   -8.7005 C   0  0  0  1  0  0  0  0  0  0  0  0
   -1.2525    2.9153   -8.8534 H   0  0  0  1  0  0  0  0  0  0  0  0
   -2.2540    4.0929   -7.4253 C   0  0  0  1  0  0  0  0  0  0  0  0
   -1.9891    3.4916   -6.6191 H   0  0  0  1  0  0  0  0  0  0  0  0
   -1.8455    4.3337  -11.0708 O   0  5  0  1  0  0  0  0  0  0  0  0
   -3.3693    6.5461  -10.5399 O   0  0  0  1  0  0  0  0  0  0  0  0
   -4.5403    6.1833  -11.2879 C   0  0  0  1  0  0  0  0  0  0  0  0
   -4.4570    5.1667  -11.6111 H   0  0  0  1  0  0  0  0  0  0  0  0
   -4.6302    6.8224  -12.1414 H   0  0  0  1  0  0  0  0  0  0  0  0
   -5.4063    6.2906  -10.6686 H   0  0  0  1  0  0  0  0  0  0  0  0
  -11.7322    4.9038    4.4245 O   0  0  0  1  0  0  0  0  0  0  0  0
  -11.5409    5.7574    4.8198 H   0  0  0  1  0  0  0  0  0  0  0  0
  1  2  1  0  0  0  0
  1  3  1  0  0  0  0
  1  4  1  0  0  0  0
  1  5  1  0  0  0  0
  5  6  1  0  0  0  0
  5 10  1  0  0  0  0
  5 55  1  0  0  0  0
  6  7  1  0  0  0  0
  6  8  1  0  0  0  0
  6  9  1  0  0  0  0
 10 11  1  0  0  0  0
 10 12  1  0  0  0  0
 10 13  1  0  0  0  0
 13 14  1  0  0  0  0
 14 15  2  0  0  0  0
 14 16  1  0  0  0  0
 14 17  1  0  0  0  0
 17 18  1  0  0  0  0
 18 19  1  0  0  0  0
 18 20  2  0  0  0  0
 18 21  1  0  0  0  0
 21 22  1  0  0  0  0
 22 23  1  0  0  0  0
 22 24  1  0  0  0  0
 22 25  1  0  0  0  0
 25 26  1  0  0  0  0
 25 27  1  0  0  0  0
 25 33  1  0  0  0  0
 27 28  1  0  0  0  0
 27 29  1  0  0  0  0
 27 50  1  0  0  0  0
 29 30  1  0  0  0  0
 29 31  1  0  0  0  0
 29 48  1  0  0  0  0
 31 32  1  0  0  0  0
 31 33  1  0  0  0  0
 31 34  1  0  0  0  0
 34 35  1  0  0  0  0
 34 44  1  0  0  0  0
 35 36  1  0  0  0  0
 35 37  2  0  0  0  0
 37 38  1  0  0  0  0
 38 39  1  0  0  0  0
 38 44  2  0  0  0  0
 39 40  2  0  0  0  0
 39 45  1  0  0  0  0
 40 41  1  0  0  0  0
 41 42  1  0  0  0  0
 41 43  2  0  0  0  0
 43 44  1  0  0  0  0
 45 46  1  0  0  0  0
 45 47  1  0  0  0  0
 48 49  1  0  0  0  0
 50 51  1  0  0  0  0
 51 52  2  0  0  0  0
 51 53  1  0  0  0  0
 51 54  1  0  0  0  0
 55 56  1  0  0  0  0
 55 57  1  0  0  0  0
 55104  1  0  0  0  0
 57 58  2  0  0  0  0
 57 59  1  0  0  0  0
 59 60  1  0  0  0  0
 59 61  1  0  0  0  0
 61 62  1  0  0  0  0
 61 63  1  0  0  0  0
 61 64  1  0  0  0  0
 64 65  1  0  0  0  0
 64 66  1  0  0  0  0
 64 67  1  0  0  0  0
 67 68  2  0  0  0  0
 67 69  1  0  0  0  0
 69 70  1  0  0  0  0
 69 71  1  0  0  0  0
 71 72  1  0  0  0  0
 71 73  1  0  0  0  0
 71 74  1  0  0  0  0
 74 75  1  0  0  0  0
 74 76  1  0  0  0  0
 74 77  1  0  0  0  0
 77 78  1  0  0  0  0
 78 79  2  0  0  0  0
 78 80  1  0  0  0  0
 80 81  1  0  0  0  0
 80 82  1  0  0  0  0
 80 83  1  0  0  0  0
 83 84  2  0  0  0  0
 83 85  1  0  0  0  0
 85 86  1  0  0  0  0
 85 87  2  0  0  0  0
 87 88  1  0  0  0  0
 87 89  1  0  0  0  0
 89 90  2  0  0  0  0
 89 96  1  0  0  0  0
 90 91  1  0  0  0  0
 90 92  1  0  0  0  0
 92 93  2  0  0  0  0
 92 99  1  0  0  0  0
 93 94  1  0  0  0  0
 93 98  1  0  0  0  0
 94 95  1  0  0  0  0
 94 96  2  0  0  0  0
 96 97  1  0  0  0  0
 99100  1  0  0  0  0
100101  1  0  0  0  0
100102  1  0  0  0  0
100103  1  0  0  0  0
104105  1  0  0  0  0
M  BCL ATM C_TeTeTeTe H_S H_S H_S C_TeTeTeTe C_TeTeTeTe H_S H_S H_S C_TeTeTeTe H_S H_S O_Tr2TrTrPi2 P_TeTeTeTePi O_Tr2Tr2TrPi O_Te2Te2Te2Te O_Tr2TrTrPi2 P_TeTeTeTePi O_Te2Te2TeTe O_Tr2Tr2TrPi O_Tr2TrTrPi2 C_TeTeTeTe H_S H_S C_TeTeTeTe H_S C_TeTeTeTe H_S C_TeTeTeTe H_S C_TeTeTeTe H_S O_Te2Te2TeTe N_TrTrTrPi2 C_TrTrTrPi H_S N_Tr2TrTrPi C_TrTrTrPi C_TrTrTrPi N_Tr2TrTrPi C_TrTrTrPi H_S N_Tr2TrTrPi C_TrTrTrPi N_TrTrTrPi2 H_S H_S O_Te2Te2TeTe H_S O_Tr2TrTrPi2 P_TeTeTeTePi O_Tr2Tr2TrPi O_Te2Te2Te2Te O_Te2Te2Te2Te C_TeTeTeTe H_S C_TrTrTrPi O_Tr2Tr2TrPi N_TrTrTrPi2 H_S C_TeTeTeTe H_S H_S C_TeTeTeTe H_S H_S C_TrTrTrPi O_Tr2Tr2TrPi N_TrTrTrPi2 H_S C_TeTeTeTe H_S H_S C_TeTeTeTe H_S H_S S_Te2Te2TeTe C_TrTrTrPi O_Tr2Tr2TrPi C_TeTeTeTe H_S H_S C_TrTrTrPi O_Tr2Tr2TrPi C_TrTrTrPi H_S C_TrTrTrPi H_S C_TrTrTrPi C_TrTrTrPi H_S C_TrTrTrPi C_TrTrTrPi C_TrTrTrPi H_S C_TrTrTrPi H_S O_Te2Te2Te2Te O_Tr2TrTrPi2 C_TeTeTeTe H_S H_S H_S O_Te2Te2TeTe H_S
M  BCL BND NonConjugatedSingleBond NonConjugatedSingleBond NonConjugatedSingleBond NonConjugatedSingleBond NonConjugatedSingleBond NonConjugatedSingleBond NonConjugatedSingleBond NonConjugatedSingleBond NonConjugatedSingleBond NonConjugatedSingleBond NonConjugatedSingleBond NonConjugatedSingleBond NonConjugatedSingleBond ConjugatedSingleBond ConjugatedDoubleBond ConjugatedSingleBond ConjugatedSingleBond ConjugatedSingleBond ConjugatedSingleBond ConjugatedDoubleBond ConjugatedSingleBond NonConjugatedSingleBond NonConjugatedSingleBond NonConjugatedSingleBond NonConjugatedSingleBond NonConjugatedSingleBond NonConjugatedSingleBondInRing NonConjugatedSingleBondInRing NonConjugatedSingleBond NonConjugatedSingleBondInRing NonConjugatedSingleBond NonConjugatedSingleBond NonConjugatedSingleBondInRing NonConjugatedSingleBond NonConjugatedSingleBond NonConjugatedSingleBondInRing NonConjugatedSingleBond AromaticSingleBond AromaticSingleBond NonConjugatedSingleBond AromaticDoubleBond AromaticSingleBond AromaticSingleBond AromaticDoubleBond AromaticDoubleBond ConjugatedSingleBond AromaticSingleBond NonConjugatedSingleBond AromaticDoubleBond AromaticSingleBond NonConjugatedSingleBond NonConjugatedSingleBond NonConjugatedSingleBond ConjugatedSingleBond ConjugatedDoubleBond ConjugatedSingleBond ConjugatedSingleBond NonConjugatedSingleBond NonConjugatedSingleBond NonConjugatedSingleBond ConjugatedDoubleBond AmideSingleBond NonConjugatedSingleBond NonConjugatedSingleBond NonConjugatedSingleBond NonConjugatedSingleBond NonConjugatedSingleBond NonConjugatedSingleBond NonConjugatedSingleBond NonConjugatedSingleBond ConjugatedDoubleBond AmideSingleBond NonConjugatedSingleBond NonConjugatedSingleBond NonConjugatedSingleBond NonConjugatedSingleBond NonConjugatedSingleBond NonConjugatedSingleBond NonConjugatedSingleBond NonConjugatedSingleBond ConjugatedSingleBond ConjugatedDoubleBond NonConjugatedSingleBond NonConjugatedSingleBond NonConjugatedSingleBond NonConjugatedSingleBond ConjugatedDoubleBond ConjugatedSingleBond NonConjugatedSingleBond ConjugatedDoubleBond NonConjugatedSingleBond ConjugatedSingleBond AromaticDoubleBond AromaticSingleBond NonConjugatedSingleBond AromaticSingleBond AromaticDoubleBond ConjugatedSingleBond AromaticSingleBond ConjugatedSingleBond NonConjugatedSingleBond AromaticDoubleBond NonConjugatedSingleBond NonConjugatedSingleBond NonConjugatedSingleBond NonConjugatedSingleBond NonConjugatedSingleBond NonConjugatedSingleBond
M  BCL CHI  14   R  18   S  25   R  27   R  29   R  31   S  55   R
M  BCL DBI - - - - - - - - - - - E - - -
M  END
> <ConfClashScore>
0 

> <ConfOneFourInteractionScore>
-0.97267 

> <ConfScore>
0.369882 

> <ConfScorePBest>
0.00603446 

> <ConfTolerance>
3.64362 

$$$$
L03.****
  PyMOL2.5          3D                             0

105108  0  0  0  0  0  0  0  0999 V2000
   -5.3937   -3.8429  -10.6231 C   0  0  0  1  0  0  0  0  0  0  0  0
   -4.9871   -4.4009  -11.4406 H   0  0  0  1  0  0  0  0  0  0  0  0
   -4.7576   -3.0095  -10.4091 H   0  0  0  1  0  0  0  0  0  0  0  0
   -6.3697   -3.4898  -10.8831 H   0  0  0  1  0  0  0  0  0  0  0  0
   -5.4892   -4.7435   -9.3858 C   0  0  0  1  0  0  0  0  0  0  0  0
   -6.1465   -6.0929   -9.6994 C   0  0  0  1  0  0  0  0  0  0  0  0
   -6.0021   -6.3289  -10.7330 H   0  0  0  1  0  0  0  0  0  0  0  0
   -7.1942   -6.0363   -9.4897 H   0  0  0  1  0  0  0  0  0  0  0  0
   -5.7018   -6.8551   -9.0943 H   0  0  0  1  0  0  0  0  0  0  0  0
   -6.2697   -4.0491   -8.3436 C   0  0  0  1  0  0  0  0  0  0  0  0
   -6.5466   -4.7507   -7.5847 H   0  0  0  1  0  0  0  0  0  0  0  0
   -7.1515   -3.6318   -8.7832 H   0  0  0  1  0  0  0  0  0  0  0  0
   -5.4862   -2.9880   -7.7486 O   0  0  0  1  0  0  0  0  0  0  0  0
   -6.1532   -1.9321   -6.7915 P   0  0  0  1  0  0  0  0  0  0  0  0
   -6.5210   -3.0152   -5.8523 O   0  0  0  1  0  0  0  0  0  0  0  0
   -4.7871   -1.4003   -7.4810 O   0  5  0  1  0  0  0  0  0  0  0  0
   -6.8346   -0.8539   -5.8135 O   0  0  0  1  0  0  0  0  0  0  0  0
   -6.9379   -0.9030   -4.2112 P   0  0  0  1  0  0  0  0  0  0  0  0
   -7.6636   -2.1529   -3.8806 O   0  0  0  0  0  0  0  0  0  0  0  0
   -7.3578    0.4006   -3.6745 O   0  0  0  1  0  0  0  0  0  0  0  0
   -5.4364   -1.0263   -3.7824 O   0  0  0  1  0  0  0  0  0  0  0  0
   -4.9103   -0.7032   -2.4702 C   0  0  0  1  0  0  0  0  0  0  0  0
   -5.5568    0.0053   -1.9959 H   0  0  0  1  0  0  0  0  0  0  0  0
   -3.9334   -0.2798   -2.5768 H   0  0  0  1  0  0  0  0  0  0  0  0
   -4.8227   -1.9520   -1.6125 C   0  0  0  1  0  0  0  0  0  0  0  0
   -5.7964   -2.3833   -1.5091 H   0  0  0  1  0  0  0  0  0  0  0  0
   -4.2742   -1.6034   -0.2603 C   0  0  0  1  0  0  0  0  0  0  0  0
   -4.9827   -1.8659    0.4973 H   0  0  0  1  0  0  0  0  0  0  0  0
   -3.0053   -2.3774   -0.0601 C   0  0  0  1  0  0  0  0  0  0  0  0
   -3.0997   -3.0146    0.7943 H   0  0  0  1  0  0  0  0  0  0  0  0
   -2.7689   -3.2052   -1.2890 C   0  0  0  1  0  0  0  0  0  0  0  0
   -2.7489   -4.2430   -1.0294 H   0  0  0  1  0  0  0  0  0  0  0  0
   -3.8923   -2.9419   -2.2483 O   0  0  0  1  0  0  0  0  0  0  0  0
   -1.4991   -2.8319   -1.9001 N   0  0  0  1  0  0  0  0  0  0  0  0
   -0.4516   -3.6529   -2.1856 C   0  0  0  1  0  0  0  0  0  0  0  0
   -0.4712   -4.6738   -1.9879 H   0  0  0  1  0  0  0  0  0  0  0  0
    0.5793   -3.0625   -2.7264 N   0  0  0  1  0  0  0  0  0  0  0  0
    0.1834   -1.7371   -2.8175 C   0  0  0  1  0  0  0  0  0  0  0  0
    0.7892   -0.5732   -3.2813 C   0  0  0  1  0  0  0  0  0  0  0  0
    0.1251    0.5864   -3.2282 N   0  0  0  1  0  0  0  0  0  0  0  0
   -1.1125    0.5797   -2.7083 C   0  0  0  1  0  0  0  0  0  0  0  0
   -1.5939    1.5012   -2.6808 H   0  0  0  1  0  0  0  0  0  0  0  0
   -1.8048   -0.4443   -2.2244 N   0  0  0  1  0  0  0  0  0  0  0  0
   -1.1120   -1.5810   -2.3064 C   0  0  0  1  0  0  0  0  0  0  0  0
    2.0865   -0.6159   -3.8005 N   0  0  0  1  0  0  0  0  0  0  0  0
    2.5283    0.2116   -4.0840 H   0  0  0  1  0  0  0  0  0  0  0  0
    2.5540   -1.4734   -3.8810 H   0  0  0  1  0  0  0  0  0  0  0  0
   -1.9139   -1.4769    0.1351 O   0  0  0  1  0  0  0  0  0  0  0  0
   -1.8717   -1.2200    1.0591 H   0  0  0  1  0  0  0  0  0  0  0  0
   -3.9986   -0.1826   -0.1934 O   0  0  0  1  0  0  0  0  0  0  0  0
   -3.5274    0.5171    1.2131 P   0  0  0  1  0  0  0  0  0  0  0  0
   -4.4400    1.6646    1.4152 O   0  0  0  1  0  0  0  0  0  0  0  0
   -3.7674   -0.6081    2.3536 O   0  5  0  1  0  0  0  0  0  0  0  0
   -1.9384    0.8273    1.2699 O   0  5  0  1  0  0  0  0  0  0  0  0
   -4.0793   -4.9886   -8.8380 C   0  0  0  1  0  0  0  0  0  0  0  0
   -3.5213   -4.0806   -8.9332 H   0  0  0  1  0  0  0  0  0  0  0  0
   -4.1437   -5.3588   -7.3678 C   0  0  0  1  0  0  0  0  0  0  0  0
   -4.2472   -4.4968   -6.4964 O   0  0  0  1  0  0  0  0  0  0  0  0
   -4.0807   -6.6714   -7.0935 N   0  0  0  1  0  0  0  0  0  0  0  0
   -4.0991   -7.3110   -7.8357 H   0  0  0  1  0  0  0  0  0  0  0  0
   -3.9861   -7.1775   -5.7324 C   0  0  0  1  0  0  0  0  0  0  0  0
   -3.4078   -6.4905   -5.1506 H   0  0  0  1  0  0  0  0  0  0  0  0
   -3.4960   -8.1284   -5.7535 H   0  0  0  1  0  0  0  0  0  0  0  0
   -5.3395   -7.3446   -5.0805 C   0  0  0  1  0  0  0  0  0  0  0  0
   -5.9265   -7.9723   -5.7179 H   0  0  0  1  0  0  0  0  0  0  0  0
   -5.7886   -6.3751   -5.0222 H   0  0  0  1  0  0  0  0  0  0  0  0
   -5.3787   -7.9513   -3.6798 C   0  0  0  1  0  0  0  0  0  0  0  0
   -5.0073   -9.1060   -3.4791 O   0  0  0  1  0  0  0  0  0  0  0  0
   -5.9132   -7.1683   -2.7383 N   0  0  0  1  0  0  0  0  0  0  0  0
   -6.2120   -6.2634   -2.9666 H   0  0  0  1  0  0  0  0  0  0  0  0
   -6.0525   -7.6566   -1.3745 C   0  0  0  1  0  0  0  0  0  0  0  0
   -6.0581   -8.7264   -1.3922 H   0  0  0  1  0  0  0  0  0  0  0  0
   -6.9798   -7.3011   -0.9761 H   0  0  0  1  0  0  0  0  0  0  0  0
   -4.9233   -7.1903   -0.4701 C   0  0  0  1  0  0  0  0  0  0  0  0
   -5.1402   -7.4578    0.5430 H   0  0  0  1  0  0  0  0  0  0  0  0
   -4.8185   -6.1280   -0.5443 H   0  0  0  1  0  0  0  0  0  0  0  0
   -3.3887   -7.9906   -0.9950 S   0  0  0  1  0  0  0  0  0  0  0  0
   -2.9539   -6.9561   -2.3428 C   0  0  0  1  0  0  0  0  0  0  0  0
   -3.5916   -6.0038   -2.7032 O   0  0  0  1  0  0  0  0  0  0  0  0
   -1.6843   -7.3204   -3.0746 C   0  0  0  1  0  0  0  0  0  0  0  0
   -1.7309   -6.8705   -4.0443 H   0  0  0  1  0  0  0  0  0  0  0  0
   -1.6648   -8.3854   -3.1755 H   0  0  0  1  0  0  0  0  0  0  0  0
   -0.3823   -6.9002   -2.4412 C   0  0  0  1  0  0  0  0  0  0  0  0
   -0.2119   -7.0264   -1.2415 O   0  0  0  1  0  0  0  0  0  0  0  0
    0.6700   -6.3400   -3.2901 C   0  0  0  1  0  0  0  0  0  0  0  0
    0.4924   -6.1925   -4.3042 H   0  0  0  1  0  0  0  0  0  0  0  0
    1.8543   -6.0177   -2.7714 C   0  0  0  1  0  0  0  0  0  0  0  0
    2.0123   -6.1727   -1.7553 H   0  0  0  1  0  0  0  0  0  0  0  0
    2.9582   -5.4460   -3.5848 C   0  0  0  1  0  0  0  0  0  0  0  0
    4.2567   -5.6924   -3.1807 C   0  0  0  1  0  0  0  0  0  0  0  0
    4.4395   -6.3218   -2.3732 H   0  0  0  1  0  0  0  0  0  0  0  0
    5.3153   -5.1005   -3.8518 C   0  0  0  1  0  0  0  0  0  0  0  0
    5.0723   -4.2598   -4.9216 C   0  0  0  1  0  0  0  0  0  0  0  0
    3.7698   -4.0128   -5.3267 C   0  0  0  1  0  0  0  0  0  0  0  0
    3.5870   -3.3834   -6.1342 H   0  0  0  1  0  0  0  0  0  0  0  0
    2.7141   -4.6029   -4.6577 C   0  0  0  1  0  0  0  0  0  0  0  0
    1.7368   -4.4144   -4.9592 H   0  0  0  1  0  0  0  0  0  0  0  0
    6.0843   -3.6569   -5.6012 O   0  5  0  1  0  0  0  0  0  0  0  0
    6.5337   -5.4180   -3.3726 O   0  0  0  1  0  0  0  0  0  0  0  0
    7.6205   -5.2679   -4.3154 C   0  0  0  1  0  0  0  0  0  0  0  0
    7.7126   -4.2388   -4.5934 H   0  0  0  1  0  0  0  0  0  0  0  0
    7.4204   -5.8560   -5.1866 H   0  0  0  1  0  0  0  0  0  0  0  0
    8.5325   -5.5979   -3.8634 H   0  0  0  1  0  0  0  0  0  0  0  0
   -3.4779   -6.0057   -9.6364 O   0  0  0  1  0  0  0  0  0  0  0  0
   -3.9963   -6.8112   -9.5731 H   0  0  0  1  0  0  0  0  0  0  0  0
  1  2  1  0  0  0  0
  1  3  1  0  0  0  0
  1  4  1  0  0  0  0
  1  5  1  0  0  0  0
  5  6  1  0  0  0  0
  5 10  1  0  0  0  0
  5 55  1  0  0  0  0
  6  7  1  0  0  0  0
  6  8  1  0  0  0  0
  6  9  1  0  0  0  0
 10 11  1  0  0  0  0
 10 12  1  0  0  0  0
 10 13  1  0  0  0  0
 13 14  1  0  0  0  0
 14 15  2  0  0  0  0
 14 16  1  0  0  0  0
 14 17  1  0  0  0  0
 17 18  1  0  0  0  0
 18 19  1  0  0  0  0
 18 20  2  0  0  0  0
 18 21  1  0  0  0  0
 21 22  1  0  0  0  0
 22 23  1  0  0  0  0
 22 24  1  0  0  0  0
 22 25  1  0  0  0  0
 25 26  1  0  0  0  0
 25 27  1  0  0  0  0
 25 33  1  0  0  0  0
 27 28  1  0  0  0  0
 27 29  1  0  0  0  0
 27 50  1  0  0  0  0
 29 30  1  0  0  0  0
 29 31  1  0  0  0  0
 29 48  1  0  0  0  0
 31 32  1  0  0  0  0
 31 33  1  0  0  0  0
 31 34  1  0  0  0  0
 34 35  1  0  0  0  0
 34 44  1  0  0  0  0
 35 36  1  0  0  0  0
 35 37  2  0  0  0  0
 37 38  1  0  0  0  0
 38 39  1  0  0  0  0
 38 44  2  0  0  0  0
 39 40  2  0  0  0  0
 39 45  1  0  0  0  0
 40 41  1  0  0  0  0
 41 42  1  0  0  0  0
 41 43  2  0  0  0  0
 43 44  1  0  0  0  0
 45 46  1  0  0  0  0
 45 47  1  0  0  0  0
 48 49  1  0  0  0  0
 50 51  1  0  0  0  0
 51 52  2  0  0  0  0
 51 53  1  0  0  0  0
 51 54  1  0  0  0  0
 55 56  1  0  0  0  0
 55 57  1  0  0  0  0
 55104  1  0  0  0  0
 57 58  2  0  0  0  0
 57 59  1  0  0  0  0
 59 60  1  0  0  0  0
 59 61  1  0  0  0  0
 61 62  1  0  0  0  0
 61 63  1  0  0  0  0
 61 64  1  0  0  0  0
 64 65  1  0  0  0  0
 64 66  1  0  0  0  0
 64 67  1  0  0  0  0
 67 68  2  0  0  0  0
 67 69  1  0  0  0  0
 69 70  1  0  0  0  0
 69 71  1  0  0  0  0
 71 72  1  0  0  0  0
 71 73  1  0  0  0  0
 71 74  1  0  0  0  0
 74 75  1  0  0  0  0
 74 76  1  0  0  0  0
 74 77  1  0  0  0  0
 77 78  1  0  0  0  0
 78 79  2  0  0  0  0
 78 80  1  0  0  0  0
 80 81  1  0  0  0  0
 80 82  1  0  0  0  0
 80 83  1  0  0  0  0
 83 84  2  0  0  0  0
 83 85  1  0  0  0  0
 85 86  1  0  0  0  0
 85 87  2  0  0  0  0
 87 88  1  0  0  0  0
 87 89  1  0  0  0  0
 89 90  2  0  0  0  0
 89 96  1  0  0  0  0
 90 91  1  0  0  0  0
 90 92  1  0  0  0  0
 92 93  2  0  0  0  0
 92 99  1  0  0  0  0
 93 94  1  0  0  0  0
 93 98  1  0  0  0  0
 94 95  1  0  0  0  0
 94 96  2  0  0  0  0
 96 97  1  0  0  0  0
 99100  1  0  0  0  0
100101  1  0  0  0  0
100102  1  0  0  0  0
100103  1  0  0  0  0
104105  1  0  0  0  0
M  BCL ATM C_TeTeTeTe H_S H_S H_S C_TeTeTeTe C_TeTeTeTe H_S H_S H_S C_TeTeTeTe H_S H_S O_Tr2TrTrPi2 P_TeTeTeTePi O_Tr2Tr2TrPi O_Te2Te2Te2Te O_Tr2TrTrPi2 P_TeTeTeTePi O_Te2Te2TeTe O_Tr2Tr2TrPi O_Tr2TrTrPi2 C_TeTeTeTe H_S H_S C_TeTeTeTe H_S C_TeTeTeTe H_S C_TeTeTeTe H_S C_TeTeTeTe H_S O_Te2Te2TeTe N_TrTrTrPi2 C_TrTrTrPi H_S N_Tr2TrTrPi C_TrTrTrPi C_TrTrTrPi N_Tr2TrTrPi C_TrTrTrPi H_S N_Tr2TrTrPi C_TrTrTrPi N_TrTrTrPi2 H_S H_S O_Te2Te2TeTe H_S O_Tr2TrTrPi2 P_TeTeTeTePi O_Tr2Tr2TrPi O_Te2Te2Te2Te O_Te2Te2Te2Te C_TeTeTeTe H_S C_TrTrTrPi O_Tr2Tr2TrPi N_TrTrTrPi2 H_S C_TeTeTeTe H_S H_S C_TeTeTeTe H_S H_S C_TrTrTrPi O_Tr2Tr2TrPi N_TrTrTrPi2 H_S C_TeTeTeTe H_S H_S C_TeTeTeTe H_S H_S S_Te2Te2TeTe C_TrTrTrPi O_Tr2Tr2TrPi C_TeTeTeTe H_S H_S C_TrTrTrPi O_Tr2Tr2TrPi C_TrTrTrPi H_S C_TrTrTrPi H_S C_TrTrTrPi C_TrTrTrPi H_S C_TrTrTrPi C_TrTrTrPi C_TrTrTrPi H_S C_TrTrTrPi H_S O_Te2Te2Te2Te O_Tr2TrTrPi2 C_TeTeTeTe H_S H_S H_S O_Te2Te2TeTe H_S
M  BCL BND NonConjugatedSingleBond NonConjugatedSingleBond NonConjugatedSingleBond NonConjugatedSingleBond NonConjugatedSingleBond NonConjugatedSingleBond NonConjugatedSingleBond NonConjugatedSingleBond NonConjugatedSingleBond NonConjugatedSingleBond NonConjugatedSingleBond NonConjugatedSingleBond NonConjugatedSingleBond ConjugatedSingleBond ConjugatedDoubleBond ConjugatedSingleBond ConjugatedSingleBond ConjugatedSingleBond ConjugatedSingleBond ConjugatedDoubleBond ConjugatedSingleBond NonConjugatedSingleBond NonConjugatedSingleBond NonConjugatedSingleBond NonConjugatedSingleBond NonConjugatedSingleBond NonConjugatedSingleBondInRing NonConjugatedSingleBondInRing NonConjugatedSingleBond NonConjugatedSingleBondInRing NonConjugatedSingleBond NonConjugatedSingleBond NonConjugatedSingleBondInRing NonConjugatedSingleBond NonConjugatedSingleBond NonConjugatedSingleBondInRing NonConjugatedSingleBond AromaticSingleBond AromaticSingleBond NonConjugatedSingleBond AromaticDoubleBond AromaticSingleBond AromaticSingleBond AromaticDoubleBond AromaticDoubleBond ConjugatedSingleBond AromaticSingleBond NonConjugatedSingleBond AromaticDoubleBond AromaticSingleBond NonConjugatedSingleBond NonConjugatedSingleBond NonConjugatedSingleBond ConjugatedSingleBond ConjugatedDoubleBond ConjugatedSingleBond ConjugatedSingleBond NonConjugatedSingleBond NonConjugatedSingleBond NonConjugatedSingleBond ConjugatedDoubleBond AmideSingleBond NonConjugatedSingleBond NonConjugatedSingleBond NonConjugatedSingleBond NonConjugatedSingleBond NonConjugatedSingleBond NonConjugatedSingleBond NonConjugatedSingleBond NonConjugatedSingleBond ConjugatedDoubleBond AmideSingleBond NonConjugatedSingleBond NonConjugatedSingleBond NonConjugatedSingleBond NonConjugatedSingleBond NonConjugatedSingleBond NonConjugatedSingleBond NonConjugatedSingleBond NonConjugatedSingleBond ConjugatedSingleBond ConjugatedDoubleBond NonConjugatedSingleBond NonConjugatedSingleBond NonConjugatedSingleBond NonConjugatedSingleBond ConjugatedDoubleBond ConjugatedSingleBond NonConjugatedSingleBond ConjugatedDoubleBond NonConjugatedSingleBond ConjugatedSingleBond AromaticDoubleBond AromaticSingleBond NonConjugatedSingleBond AromaticSingleBond AromaticDoubleBond ConjugatedSingleBond AromaticSingleBond ConjugatedSingleBond NonConjugatedSingleBond AromaticDoubleBond NonConjugatedSingleBond NonConjugatedSingleBond NonConjugatedSingleBond NonConjugatedSingleBond NonConjugatedSingleBond NonConjugatedSingleBond
M  BCL CHI  14   R  18   S  25   R  27   R  29   R  31   S  55   R
M  BCL DBI - - - - - - - - - - - E - - -
M  END
> <ConfClashScore>
0 

> <ConfOneFourInteractionScore>
-0.966465 

> <ConfScore>
0.372875 

> <ConfScorePBest>
0.00593146 

> <ConfTolerance>
3.92162 

$$$$
L03.****
  PyMOL2.5          3D                             0

105108  0  0  0  0  0  0  0  0999 V2000
   -3.5745    2.1560   -8.9917 C   0  0  0  1  0  0  0  0  0  0  0  0
   -4.3870    1.4617   -9.0444 H   0  0  0  1  0  0  0  0  0  0  0  0
   -2.6486    1.6202   -8.9706 H   0  0  0  1  0  0  0  0  0  0  0  0
   -3.5971    2.7966   -9.8485 H   0  0  0  1  0  0  0  0  0  0  0  0
   -3.7050    3.0008   -7.7187 C   0  0  0  1  0  0  0  0  0  0  0  0
   -3.0413    4.3635   -7.9506 C   0  0  0  1  0  0  0  0  0  0  0  0
   -3.6820    4.9753   -8.5507 H   0  0  0  1  0  0  0  0  0  0  0  0
   -2.1075    4.2242   -8.4540 H   0  0  0  1  0  0  0  0  0  0  0  0
   -2.8714    4.8420   -7.0087 H   0  0  0  1  0  0  0  0  0  0  0  0
   -3.0693    2.3196   -6.5518 C   0  0  0  1  0  0  0  0  0  0  0  0
   -2.0177    2.2145   -6.7196 H   0  0  0  1  0  0  0  0  0  0  0  0
   -3.5068    1.3533   -6.4111 H   0  0  0  1  0  0  0  0  0  0  0  0
   -3.3026    3.1426   -5.3807 O   0  0  0  1  0  0  0  0  0  0  0  0
   -3.5571    2.4881   -3.9725 P   0  0  0  1  0  0  0  0  0  0  0  0
   -4.4846    1.5153   -4.5919 O   0  0  0  1  0  0  0  0  0  0  0  0
   -2.0185    2.9409   -4.2010 O   0  5  0  1  0  0  0  0  0  0  0  0
   -3.8168    1.8209   -2.5377 O   0  0  0  1  0  0  0  0  0  0  0  0
   -4.8984    0.7280   -2.1549 P   0  0  0  1  0  0  0  0  0  0  0  0
   -4.4717   -0.5483   -2.7703 O   0  0  0  0  0  0  0  0  0  0  0  0
   -6.2641    1.2294   -2.4202 O   0  0  0  1  0  0  0  0  0  0  0  0
   -4.7745    0.6257   -0.5929 O   0  0  0  1  0  0  0  0  0  0  0  0
   -3.6698   -0.0311    0.0720 C   0  0  0  1  0  0  0  0  0  0  0  0
   -3.6261    0.3143    1.0837 H   0  0  0  1  0  0  0  0  0  0  0  0
   -2.7634    0.2291   -0.4337 H   0  0  0  1  0  0  0  0  0  0  0  0
   -3.8019   -1.5371    0.0814 C   0  0  0  1  0  0  0  0  0  0  0  0
   -4.7519   -1.8098    0.4914 H   0  0  0  1  0  0  0  0  0  0  0  0
   -2.6776   -2.1629    0.8867 C   0  0  0  1  0  0  0  0  0  0  0  0
   -2.9422   -2.2478    1.9200 H   0  0  0  1  0  0  0  0  0  0  0  0
   -2.5388   -3.5199    0.2461 C   0  0  0  1  0  0  0  0  0  0  0  0
   -3.2846   -4.1986    0.6038 H   0  0  0  1  0  0  0  0  0  0  0  0
   -2.7514   -3.1851   -1.2297 C   0  0  0  1  0  0  0  0  0  0  0  0
   -3.1850   -4.0160   -1.7459 H   0  0  0  1  0  0  0  0  0  0  0  0
   -3.6627   -2.0526   -1.2259 O   0  0  0  1  0  0  0  0  0  0  0  0
   -1.4841   -2.8242   -1.8636 N   0  0  0  1  0  0  0  0  0  0  0  0
   -0.4320   -3.6621   -2.1439 C   0  0  0  1  0  0  0  0  0  0  0  0
   -0.4473   -4.6829   -1.9457 H   0  0  0  1  0  0  0  0  0  0  0  0
    0.5975   -3.0475   -2.6879 N   0  0  0  1  0  0  0  0  0  0  0  0
    0.1847   -1.7265   -2.7915 C   0  0  0  1  0  0  0  0  0  0  0  0
    0.8062   -0.5691   -3.2967 C   0  0  0  1  0  0  0  0  0  0  0  0
    0.1120    0.5871   -3.2668 N   0  0  0  1  0  0  0  0  0  0  0  0
   -1.1342    0.5662   -2.7666 C   0  0  0  1  0  0  0  0  0  0  0  0
   -1.6291    1.4808   -2.7749 H   0  0  0  1  0  0  0  0  0  0  0  0
   -1.8309   -0.4491   -2.2619 N   0  0  0  1  0  0  0  0  0  0  0  0
   -1.1040   -1.5803   -2.2991 C   0  0  0  1  0  0  0  0  0  0  0  0
    2.0782   -0.6154   -3.8035 N   0  0  0  1  0  0  0  0  0  0  0  0
    2.7945   -0.0998   -3.3776 H   0  0  0  1  0  0  0  0  0  0  0  0
    2.2717   -1.1642   -4.5921 H   0  0  0  1  0  0  0  0  0  0  0  0
   -1.2419   -4.0734    0.4734 O   0  0  0  1  0  0  0  0  0  0  0  0
   -1.1172   -4.2219    1.4136 H   0  0  0  1  0  0  0  0  0  0  0  0
   -1.4582   -1.3993    0.7626 O   0  0  0  1  0  0  0  0  0  0  0  0
   -0.2487   -1.4547    1.8688 P   0  0  0  1  0  0  0  0  0  0  0  0
   -0.8642   -1.6977    3.1926 O   0  0  0  1  0  0  0  0  0  0  0  0
    0.7254   -2.6790    1.4488 O   0  5  0  1  0  0  0  0  0  0  0  0
    0.5337   -0.0395    1.7726 O   0  5  0  1  0  0  0  0  0  0  0  0
   -5.1914    3.2321   -7.4298 C   0  0  0  1  0  0  0  0  0  0  0  0
   -5.2707    3.9225   -6.6162 H   0  0  0  1  0  0  0  0  0  0  0  0
   -5.8841    3.8455   -8.6532 C   0  0  0  1  0  0  0  0  0  0  0  0
   -5.7204    3.3457   -9.7649 O   0  0  0  1  0  0  0  0  0  0  0  0
   -6.7169    4.8668   -8.4252 N   0  0  0  1  0  0  0  0  0  0  0  0
   -6.7754    5.1809   -7.4988 H   0  0  0  1  0  0  0  0  0  0  0  0
   -7.5516    5.5691   -9.4029 C   0  0  0  1  0  0  0  0  0  0  0  0
   -8.5793    5.3654   -9.1855 H   0  0  0  1  0  0  0  0  0  0  0  0
   -7.3144    5.2051  -10.3807 H   0  0  0  1  0  0  0  0  0  0  0  0
   -7.3388    7.0654   -9.3783 C   0  0  0  1  0  0  0  0  0  0  0  0
   -7.6243    7.4236   -8.4113 H   0  0  0  1  0  0  0  0  0  0  0  0
   -7.9726    7.5012  -10.1221 H   0  0  0  1  0  0  0  0  0  0  0  0
   -5.9259    7.5220   -9.6452 C   0  0  0  1  0  0  0  0  0  0  0  0
   -5.3732    7.4274  -10.7248 O   0  0  0  1  0  0  0  0  0  0  0  0
   -5.2797    8.0559   -8.6076 N   0  0  0  1  0  0  0  0  0  0  0  0
   -5.7068    7.9946   -7.7277 H   0  0  0  1  0  0  0  0  0  0  0  0
   -3.9884    8.7225   -8.6837 C   0  0  0  1  0  0  0  0  0  0  0  0
   -3.8667    9.3345   -7.8145 H   0  0  0  1  0  0  0  0  0  0  0  0
   -3.9712    9.3378   -9.5590 H   0  0  0  1  0  0  0  0  0  0  0  0
   -2.8380    7.7491   -8.7545 C   0  0  0  1  0  0  0  0  0  0  0  0
   -3.0657    7.0210   -9.5047 H   0  0  0  1  0  0  0  0  0  0  0  0
   -2.7529    7.2670   -7.8030 H   0  0  0  1  0  0  0  0  0  0  0  0
   -1.2382    8.4822   -9.1546 S   0  0  0  1  0  0  0  0  0  0  0  0
   -1.1865    8.4857  -10.9315 C   0  0  0  1  0  0  0  0  0  0  0  0
   -1.9981    7.9212  -11.6223 O   0  0  0  1  0  0  0  0  0  0  0  0
   -0.0150    9.2730  -11.4689 C   0  0  0  1  0  0  0  0  0  0  0  0
   -0.2948    9.6824  -12.4171 H   0  0  0  1  0  0  0  0  0  0  0  0
    0.8074    8.6009  -11.5987 H   0  0  0  1  0  0  0  0  0  0  0  0
    0.4391   10.4067  -10.5822 C   0  0  0  1  0  0  0  0  0  0  0  0
    1.6236   10.5582  -10.3325 O   0  0  0  1  0  0  0  0  0  0  0  0
   -0.5595   11.3148  -10.0310 C   0  0  0  1  0  0  0  0  0  0  0  0
   -0.2247   12.0458   -9.3713 H   0  0  0  1  0  0  0  0  0  0  0  0
   -1.8631   11.2884  -10.2998 C   0  0  0  1  0  0  0  0  0  0  0  0
   -2.1537   10.5422  -10.9634 H   0  0  0  1  0  0  0  0  0  0  0  0
   -2.9685   12.1447   -9.8111 C   0  0  0  1  0  0  0  0  0  0  0  0
   -2.8072   12.8650   -8.6426 C   0  0  0  1  0  0  0  0  0  0  0  0
   -1.9158   12.8005   -8.1108 H   0  0  0  1  0  0  0  0  0  0  0  0
   -3.8336   13.6735   -8.1796 C   0  0  0  1  0  0  0  0  0  0  0  0
   -5.0203   13.7552   -8.8835 C   0  0  0  1  0  0  0  0  0  0  0  0
   -5.1819   13.0327  -10.0554 C   0  0  0  1  0  0  0  0  0  0  0  0
   -6.0733   13.0972  -10.5873 H   0  0  0  1  0  0  0  0  0  0  0  0
   -4.1586   12.2265  -10.5172 C   0  0  0  1  0  0  0  0  0  0  0  0
   -4.2814   11.6814  -11.3943 H   0  0  0  1  0  0  0  0  0  0  0  0
   -6.0092   14.5534   -8.3992 O   0  5  0  1  0  0  0  0  0  0  0  0
   -3.5589   14.3339   -7.0297 O   0  0  0  1  0  0  0  0  0  0  0  0
   -2.7438   15.5122   -7.1284 C   0  0  0  1  0  0  0  0  0  0  0  0
   -1.7590   15.2397   -7.4458 H   0  0  0  1  0  0  0  0  0  0  0  0
   -2.6908   15.9900   -6.1725 H   0  0  0  1  0  0  0  0  0  0  0  0
   -3.1744   16.1848   -7.8406 H   0  0  0  1  0  0  0  0  0  0  0  0
   -5.8119    2.0001   -7.0751 O   0  0  0  1  0  0  0  0  0  0  0  0
   -5.2344    1.5081   -6.4869 H   0  0  0  1  0  0  0  0  0  0  0  0
  1  2  1  0  0  0  0
  1  3  1  0  0  0  0
  1  4  1  0  0  0  0
  1  5  1  0  0  0  0
  5  6  1  0  0  0  0
  5 10  1  0  0  0  0
  5 55  1  0  0  0  0
  6  7  1  0  0  0  0
  6  8  1  0  0  0  0
  6  9  1  0  0  0  0
 10 11  1  0  0  0  0
 10 12  1  0  0  0  0
 10 13  1  0  0  0  0
 13 14  1  0  0  0  0
 14 15  2  0  0  0  0
 14 16  1  0  0  0  0
 14 17  1  0  0  0  0
 17 18  1  0  0  0  0
 18 19  1  0  0  0  0
 18 20  2  0  0  0  0
 18 21  1  0  0  0  0
 21 22  1  0  0  0  0
 22 23  1  0  0  0  0
 22 24  1  0  0  0  0
 22 25  1  0  0  0  0
 25 26  1  0  0  0  0
 25 27  1  0  0  0  0
 25 33  1  0  0  0  0
 27 28  1  0  0  0  0
 27 29  1  0  0  0  0
 27 50  1  0  0  0  0
 29 30  1  0  0  0  0
 29 31  1  0  0  0  0
 29 48  1  0  0  0  0
 31 32  1  0  0  0  0
 31 33  1  0  0  0  0
 31 34  1  0  0  0  0
 34 35  1  0  0  0  0
 34 44  1  0  0  0  0
 35 36  1  0  0  0  0
 35 37  2  0  0  0  0
 37 38  1  0  0  0  0
 38 39  1  0  0  0  0
 38 44  2  0  0  0  0
 39 40  2  0  0  0  0
 39 45  1  0  0  0  0
 40 41  1  0  0  0  0
 41 42  1  0  0  0  0
 41 43  2  0  0  0  0
 43 44  1  0  0  0  0
 45 46  1  0  0  0  0
 45 47  1  0  0  0  0
 48 49  1  0  0  0  0
 50 51  1  0  0  0  0
 51 52  2  0  0  0  0
 51 53  1  0  0  0  0
 51 54  1  0  0  0  0
 55 56  1  0  0  0  0
 55 57  1  0  0  0  0
 55104  1  0  0  0  0
 57 58  2  0  0  0  0
 57 59  1  0  0  0  0
 59 60  1  0  0  0  0
 59 61  1  0  0  0  0
 61 62  1  0  0  0  0
 61 63  1  0  0  0  0
 61 64  1  0  0  0  0
 64 65  1  0  0  0  0
 64 66  1  0  0  0  0
 64 67  1  0  0  0  0
 67 68  2  0  0  0  0
 67 69  1  0  0  0  0
 69 70  1  0  0  0  0
 69 71  1  0  0  0  0
 71 72  1  0  0  0  0
 71 73  1  0  0  0  0
 71 74  1  0  0  0  0
 74 75  1  0  0  0  0
 74 76  1  0  0  0  0
 74 77  1  0  0  0  0
 77 78  1  0  0  0  0
 78 79  2  0  0  0  0
 78 80  1  0  0  0  0
 80 81  1  0  0  0  0
 80 82  1  0  0  0  0
 80 83  1  0  0  0  0
 83 84  2  0  0  0  0
 83 85  1  0  0  0  0
 85 86  1  0  0  0  0
 85 87  2  0  0  0  0
 87 88  1  0  0  0  0
 87 89  1  0  0  0  0
 89 90  2  0  0  0  0
 89 96  1  0  0  0  0
 90 91  1  0  0  0  0
 90 92  1  0  0  0  0
 92 93  2  0  0  0  0
 92 99  1  0  0  0  0
 93 94  1  0  0  0  0
 93 98  1  0  0  0  0
 94 95  1  0  0  0  0
 94 96  2  0  0  0  0
 96 97  1  0  0  0  0
 99100  1  0  0  0  0
100101  1  0  0  0  0
100102  1  0  0  0  0
100103  1  0  0  0  0
104105  1  0  0  0  0
M  BCL ATM C_TeTeTeTe H_S H_S H_S C_TeTeTeTe C_TeTeTeTe H_S H_S H_S C_TeTeTeTe H_S H_S O_Tr2TrTrPi2 P_TeTeTeTePi O_Tr2Tr2TrPi O_Te2Te2Te2Te O_Tr2TrTrPi2 P_TeTeTeTePi O_Te2Te2TeTe O_Tr2Tr2TrPi O_Tr2TrTrPi2 C_TeTeTeTe H_S H_S C_TeTeTeTe H_S C_TeTeTeTe H_S C_TeTeTeTe H_S C_TeTeTeTe H_S O_Te2Te2TeTe N_TrTrTrPi2 C_TrTrTrPi H_S N_Tr2TrTrPi C_TrTrTrPi C_TrTrTrPi N_Tr2TrTrPi C_TrTrTrPi H_S N_Tr2TrTrPi C_TrTrTrPi N_TrTrTrPi2 H_S H_S O_Te2Te2TeTe H_S O_Tr2TrTrPi2 P_TeTeTeTePi O_Tr2Tr2TrPi O_Te2Te2Te2Te O_Te2Te2Te2Te C_TeTeTeTe H_S C_TrTrTrPi O_Tr2Tr2TrPi N_TrTrTrPi2 H_S C_TeTeTeTe H_S H_S C_TeTeTeTe H_S H_S C_TrTrTrPi O_Tr2Tr2TrPi N_TrTrTrPi2 H_S C_TeTeTeTe H_S H_S C_TeTeTeTe H_S H_S S_Te2Te2TeTe C_TrTrTrPi O_Tr2Tr2TrPi C_TeTeTeTe H_S H_S C_TrTrTrPi O_Tr2Tr2TrPi C_TrTrTrPi H_S C_TrTrTrPi H_S C_TrTrTrPi C_TrTrTrPi H_S C_TrTrTrPi C_TrTrTrPi C_TrTrTrPi H_S C_TrTrTrPi H_S O_Te2Te2Te2Te O_Tr2TrTrPi2 C_TeTeTeTe H_S H_S H_S O_Te2Te2TeTe H_S
M  BCL BND NonConjugatedSingleBond NonConjugatedSingleBond NonConjugatedSingleBond NonConjugatedSingleBond NonConjugatedSingleBond NonConjugatedSingleBond NonConjugatedSingleBond NonConjugatedSingleBond NonConjugatedSingleBond NonConjugatedSingleBond NonConjugatedSingleBond NonConjugatedSingleBond NonConjugatedSingleBond ConjugatedSingleBond ConjugatedDoubleBond ConjugatedSingleBond ConjugatedSingleBond ConjugatedSingleBond ConjugatedSingleBond ConjugatedDoubleBond ConjugatedSingleBond NonConjugatedSingleBond NonConjugatedSingleBond NonConjugatedSingleBond NonConjugatedSingleBond NonConjugatedSingleBond NonConjugatedSingleBondInRing NonConjugatedSingleBondInRing NonConjugatedSingleBond NonConjugatedSingleBondInRing NonConjugatedSingleBond NonConjugatedSingleBond NonConjugatedSingleBondInRing NonConjugatedSingleBond NonConjugatedSingleBond NonConjugatedSingleBondInRing NonConjugatedSingleBond AromaticSingleBond AromaticSingleBond NonConjugatedSingleBond AromaticDoubleBond AromaticSingleBond AromaticSingleBond AromaticDoubleBond AromaticDoubleBond ConjugatedSingleBond AromaticSingleBond NonConjugatedSingleBond AromaticDoubleBond AromaticSingleBond NonConjugatedSingleBond NonConjugatedSingleBond NonConjugatedSingleBond ConjugatedSingleBond ConjugatedDoubleBond ConjugatedSingleBond ConjugatedSingleBond NonConjugatedSingleBond NonConjugatedSingleBond NonConjugatedSingleBond ConjugatedDoubleBond AmideSingleBond NonConjugatedSingleBond NonConjugatedSingleBond NonConjugatedSingleBond NonConjugatedSingleBond NonConjugatedSingleBond NonConjugatedSingleBond NonConjugatedSingleBond NonConjugatedSingleBond ConjugatedDoubleBond AmideSingleBond NonConjugatedSingleBond NonConjugatedSingleBond NonConjugatedSingleBond NonConjugatedSingleBond NonConjugatedSingleBond NonConjugatedSingleBond NonConjugatedSingleBond NonConjugatedSingleBond ConjugatedSingleBond ConjugatedDoubleBond NonConjugatedSingleBond NonConjugatedSingleBond NonConjugatedSingleBond NonConjugatedSingleBond ConjugatedDoubleBond ConjugatedSingleBond NonConjugatedSingleBond ConjugatedDoubleBond NonConjugatedSingleBond ConjugatedSingleBond AromaticDoubleBond AromaticSingleBond NonConjugatedSingleBond AromaticSingleBond AromaticDoubleBond ConjugatedSingleBond AromaticSingleBond ConjugatedSingleBond NonConjugatedSingleBond AromaticDoubleBond NonConjugatedSingleBond NonConjugatedSingleBond NonConjugatedSingleBond NonConjugatedSingleBond NonConjugatedSingleBond NonConjugatedSingleBond
M  BCL CHI  14   R  18   S  25   R  27   R  29   R  31   S  55   R
M  BCL DBI - - - - - - - - - - - E - - -
M  END
> <ConfClashScore>
0 

> <ConfOneFourInteractionScore>
-0.971826 

> <ConfScore>
0.376836 

> <ConfScorePBest>
0.00582846 

> <ConfTolerance>
4.01585 

$$$$
L03.****
  PyMOL2.5          3D                             0

105108  0  0  0  0  0  0  0  0999 V2000
   -3.0061  -12.0822    0.7063 C   0  0  0  1  0  0  0  0  0  0  0  0
   -3.4299  -11.4163    1.4288 H   0  0  0  1  0  0  0  0  0  0  0  0
   -3.6052  -12.9664    0.6421 H   0  0  0  1  0  0  0  0  0  0  0  0
   -2.9770  -11.6004   -0.2486 H   0  0  0  1  0  0  0  0  0  0  0  0
   -1.5684  -12.4635    1.1357 C   0  0  0  1  0  0  0  0  0  0  0  0
   -1.1257  -11.7152    2.3988 C   0  0  0  1  0  0  0  0  0  0  0  0
   -1.8815  -11.0121    2.6807 H   0  0  0  1  0  0  0  0  0  0  0  0
   -0.2109  -11.1959    2.2032 H   0  0  0  1  0  0  0  0  0  0  0  0
   -0.9761  -12.4154    3.1939 H   0  0  0  1  0  0  0  0  0  0  0  0
   -0.6072  -12.1084    0.0494 C   0  0  0  1  0  0  0  0  0  0  0  0
   -0.8447  -12.6539   -0.8400 H   0  0  0  1  0  0  0  0  0  0  0  0
    0.3912  -12.3417    0.3555 H   0  0  0  1  0  0  0  0  0  0  0  0
   -0.7261  -10.7069   -0.1936 O   0  0  0  1  0  0  0  0  0  0  0  0
   -1.1048   -9.9730   -1.5330 P   0  0  0  1  0  0  0  0  0  0  0  0
   -1.6024  -11.2497   -2.0923 O   0  0  0  1  0  0  0  0  0  0  0  0
   -1.3993   -9.0859   -0.2099 O   0  5  0  1  0  0  0  0  0  0  0  0
   -1.4908   -9.2256   -2.8982 O   0  0  0  1  0  0  0  0  0  0  0  0
   -2.8246   -8.4884   -3.3212 P   0  0  0  1  0  0  0  0  0  0  0  0
   -3.8969   -9.5590   -3.4444 O   0  0  0  0  0  0  0  0  0  0  0  0
   -2.6107   -7.6196   -4.5181 O   0  0  0  1  0  0  0  0  0  0  0  0
   -3.1430   -7.5795   -2.0810 O   0  0  0  1  0  0  0  0  0  0  0  0
   -2.4222   -6.3555   -1.7888 C   0  0  0  1  0  0  0  0  0  0  0  0
   -2.1512   -5.8657   -2.7007 H   0  0  0  1  0  0  0  0  0  0  0  0
   -1.5392   -6.5778   -1.2268 H   0  0  0  1  0  0  0  0  0  0  0  0
   -3.3368   -5.4667   -0.9797 C   0  0  0  1  0  0  0  0  0  0  0  0
   -3.7646   -6.0305   -0.1772 H   0  0  0  1  0  0  0  0  0  0  0  0
   -4.4183   -4.8743   -1.8537 C   0  0  0  1  0  0  0  0  0  0  0  0
   -5.2849   -4.6287   -1.2761 H   0  0  0  1  0  0  0  0  0  0  0  0
   -3.7640   -3.6095   -2.4256 C   0  0  0  1  0  0  0  0  0  0  0  0
   -4.4903   -2.8418   -2.5933 H   0  0  0  1  0  0  0  0  0  0  0  0
   -2.7788   -3.2070   -1.3168 C   0  0  0  1  0  0  0  0  0  0  0  0
   -3.1718   -2.3790   -0.7647 H   0  0  0  1  0  0  0  0  0  0  0  0
   -2.6114   -4.3075   -0.4680 O   0  0  0  1  0  0  0  0  0  0  0  0
   -1.4925   -2.8346   -1.9065 N   0  0  0  1  0  0  0  0  0  0  0  0
   -0.4436   -3.6594   -2.1771 C   0  0  0  1  0  0  0  0  0  0  0  0
   -0.4646   -4.6822   -1.9898 H   0  0  0  1  0  0  0  0  0  0  0  0
    0.6020   -3.0459   -2.6980 N   0  0  0  1  0  0  0  0  0  0  0  0
    0.1756   -1.7207   -2.7890 C   0  0  0  1  0  0  0  0  0  0  0  0
    0.8106   -0.5692   -3.2855 C   0  0  0  1  0  0  0  0  0  0  0  0
    0.1224    0.5968   -3.2278 N   0  0  0  1  0  0  0  0  0  0  0  0
   -1.1181    0.5785   -2.7082 C   0  0  0  1  0  0  0  0  0  0  0  0
   -1.6013    1.4991   -2.6847 H   0  0  0  1  0  0  0  0  0  0  0  0
   -1.8206   -0.4431   -2.2188 N   0  0  0  1  0  0  0  0  0  0  0  0
   -1.0925   -1.5753   -2.3031 C   0  0  0  1  0  0  0  0  0  0  0  0
    2.0760   -0.6234   -3.8076 N   0  0  0  1  0  0  0  0  0  0  0  0
    2.5908   -1.4559   -3.7590 H   0  0  0  1  0  0  0  0  0  0  0  0
    2.4664    0.1702   -4.2296 H   0  0  0  1  0  0  0  0  0  0  0  0
   -3.0780   -3.8917   -3.6462 O   0  0  0  1  0  0  0  0  0  0  0  0
   -2.4350   -3.2003   -3.8197 H   0  0  0  1  0  0  0  0  0  0  0  0
   -4.7832   -5.7806   -2.9019 O   0  0  0  1  0  0  0  0  0  0  0  0
   -5.5531   -5.3253   -4.2162 P   0  0  0  1  0  0  0  0  0  0  0  0
   -5.4069   -3.8649   -4.4070 O   0  0  0  1  0  0  0  0  0  0  0  0
   -5.0234   -6.2382   -5.4452 O   0  5  0  1  0  0  0  0  0  0  0  0
   -7.1172   -5.6529   -3.9505 O   0  5  0  1  0  0  0  0  0  0  0  0
   -1.4560  -13.9727    1.4127 C   0  0  0  1  0  0  0  0  0  0  0  0
   -2.0486  -14.1932    2.2759 H   0  0  0  1  0  0  0  0  0  0  0  0
   -1.9738  -14.8101    0.2578 C   0  0  0  1  0  0  0  0  0  0  0  0
   -2.7870  -14.3558   -0.5460 O   0  0  0  1  0  0  0  0  0  0  0  0
   -1.4886  -16.0585    0.1795 N   0  0  0  1  0  0  0  0  0  0  0  0
   -0.7936  -16.3364    0.8121 H   0  0  0  1  0  0  0  0  0  0  0  0
   -1.9584  -17.0144   -0.8122 C   0  0  0  1  0  0  0  0  0  0  0  0
   -2.0498  -16.5146   -1.7538 H   0  0  0  1  0  0  0  0  0  0  0  0
   -2.9165  -17.3811   -0.5080 H   0  0  0  1  0  0  0  0  0  0  0  0
   -1.0131  -18.1972   -0.9772 C   0  0  0  1  0  0  0  0  0  0  0  0
   -1.5745  -19.0344   -1.3363 H   0  0  0  1  0  0  0  0  0  0  0  0
   -0.5921  -18.4326   -0.0221 H   0  0  0  1  0  0  0  0  0  0  0  0
    0.1234  -17.9211   -1.9532 C   0  0  0  1  0  0  0  0  0  0  0  0
    0.0218  -18.1804   -3.1507 O   0  0  0  1  0  0  0  0  0  0  0  0
    1.2045  -17.3842   -1.3805 N   0  0  0  1  0  0  0  0  0  0  0  0
    1.1657  -17.1409   -0.4320 H   0  0  0  1  0  0  0  0  0  0  0  0
    2.4378  -17.1483   -2.1163 C   0  0  0  1  0  0  0  0  0  0  0  0
    2.8226  -18.0889   -2.4510 H   0  0  0  1  0  0  0  0  0  0  0  0
    3.1454  -16.6860   -1.4601 H   0  0  0  1  0  0  0  0  0  0  0  0
    2.2339  -16.2517   -3.3193 C   0  0  0  1  0  0  0  0  0  0  0  0
    1.5105  -16.6891   -3.9753 H   0  0  0  1  0  0  0  0  0  0  0  0
    3.1612  -16.1315   -3.8394 H   0  0  0  1  0  0  0  0  0  0  0  0
    1.6439  -14.6434   -2.7518 S   0  0  0  1  0  0  0  0  0  0  0  0
    3.1937  -13.7771   -2.8409 C   0  0  0  1  0  0  0  0  0  0  0  0
    4.2093  -14.2746   -3.2465 O   0  0  0  1  0  0  0  0  0  0  0  0
    3.0829  -12.3541   -2.3504 C   0  0  0  1  0  0  0  0  0  0  0  0
    2.1268  -11.9820   -2.6542 H   0  0  0  1  0  0  0  0  0  0  0  0
    3.8548  -11.7876   -2.8281 H   0  0  0  1  0  0  0  0  0  0  0  0
    3.2070  -12.1285   -0.8649 C   0  0  0  1  0  0  0  0  0  0  0  0
    3.3805  -10.9732   -0.4701 O   0  0  0  1  0  0  0  0  0  0  0  0
    3.1228  -13.2501    0.0662 C   0  0  0  1  0  0  0  0  0  0  0  0
    2.7105  -14.1449   -0.2670 H   0  0  0  1  0  0  0  0  0  0  0  0
    3.5525  -13.1746    1.3252 C   0  0  0  1  0  0  0  0  0  0  0  0
    3.9528  -12.2526    1.5920 H   0  0  0  1  0  0  0  0  0  0  0  0
    3.5549  -14.1853    2.4082 C   0  0  0  1  0  0  0  0  0  0  0  0
    2.9737  -15.4200    2.1894 C   0  0  0  1  0  0  0  0  0  0  0  0
    2.5352  -15.6329    1.2708 H   0  0  0  1  0  0  0  0  0  0  0  0
    2.9755  -16.3745    3.1946 C   0  0  0  1  0  0  0  0  0  0  0  0
    3.5536  -16.0898    4.4173 C   0  0  0  1  0  0  0  0  0  0  0  0
    4.1365  -14.8513    4.6365 C   0  0  0  1  0  0  0  0  0  0  0  0
    4.5750  -14.6384    5.5552 H   0  0  0  1  0  0  0  0  0  0  0  0
    4.1348  -13.8995    3.6344 C   0  0  0  1  0  0  0  0  0  0  0  0
    4.5685  -12.9689    3.8003 H   0  0  0  1  0  0  0  0  0  0  0  0
    3.4911  -17.0988    5.3270 O   0  5  0  1  0  0  0  0  0  0  0  0
    2.4107  -17.5862    2.9785 O   0  0  0  1  0  0  0  0  0  0  0  0
    1.5255  -18.0877    3.9921 C   0  0  0  1  0  0  0  0  0  0  0  0
    0.8765  -17.3026    4.3199 H   0  0  0  1  0  0  0  0  0  0  0  0
    2.0993  -18.4453    4.8214 H   0  0  0  1  0  0  0  0  0  0  0  0
    0.9409  -18.8888    3.5902 H   0  0  0  1  0  0  0  0  0  0  0  0
   -0.0859  -14.2347    1.7009 O   0  0  0  1  0  0  0  0  0  0  0  0
    0.1880  -13.7116    2.4579 H   0  0  0  1  0  0  0  0  0  0  0  0
  1  2  1  0  0  0  0
  1  3  1  0  0  0  0
  1  4  1  0  0  0  0
  1  5  1  0  0  0  0
  5  6  1  0  0  0  0
  5 10  1  0  0  0  0
  5 55  1  0  0  0  0
  6  7  1  0  0  0  0
  6  8  1  0  0  0  0
  6  9  1  0  0  0  0
 10 11  1  0  0  0  0
 10 12  1  0  0  0  0
 10 13  1  0  0  0  0
 13 14  1  0  0  0  0
 14 15  2  0  0  0  0
 14 16  1  0  0  0  0
 14 17  1  0  0  0  0
 17 18  1  0  0  0  0
 18 19  1  0  0  0  0
 18 20  2  0  0  0  0
 18 21  1  0  0  0  0
 21 22  1  0  0  0  0
 22 23  1  0  0  0  0
 22 24  1  0  0  0  0
 22 25  1  0  0  0  0
 25 26  1  0  0  0  0
 25 27  1  0  0  0  0
 25 33  1  0  0  0  0
 27 28  1  0  0  0  0
 27 29  1  0  0  0  0
 27 50  1  0  0  0  0
 29 30  1  0  0  0  0
 29 31  1  0  0  0  0
 29 48  1  0  0  0  0
 31 32  1  0  0  0  0
 31 33  1  0  0  0  0
 31 34  1  0  0  0  0
 34 35  1  0  0  0  0
 34 44  1  0  0  0  0
 35 36  1  0  0  0  0
 35 37  2  0  0  0  0
 37 38  1  0  0  0  0
 38 39  1  0  0  0  0
 38 44  2  0  0  0  0
 39 40  2  0  0  0  0
 39 45  1  0  0  0  0
 40 41  1  0  0  0  0
 41 42  1  0  0  0  0
 41 43  2  0  0  0  0
 43 44  1  0  0  0  0
 45 46  1  0  0  0  0
 45 47  1  0  0  0  0
 48 49  1  0  0  0  0
 50 51  1  0  0  0  0
 51 52  2  0  0  0  0
 51 53  1  0  0  0  0
 51 54  1  0  0  0  0
 55 56  1  0  0  0  0
 55 57  1  0  0  0  0
 55104  1  0  0  0  0
 57 58  2  0  0  0  0
 57 59  1  0  0  0  0
 59 60  1  0  0  0  0
 59 61  1  0  0  0  0
 61 62  1  0  0  0  0
 61 63  1  0  0  0  0
 61 64  1  0  0  0  0
 64 65  1  0  0  0  0
 64 66  1  0  0  0  0
 64 67  1  0  0  0  0
 67 68  2  0  0  0  0
 67 69  1  0  0  0  0
 69 70  1  0  0  0  0
 69 71  1  0  0  0  0
 71 72  1  0  0  0  0
 71 73  1  0  0  0  0
 71 74  1  0  0  0  0
 74 75  1  0  0  0  0
 74 76  1  0  0  0  0
 74 77  1  0  0  0  0
 77 78  1  0  0  0  0
 78 79  2  0  0  0  0
 78 80  1  0  0  0  0
 80 81  1  0  0  0  0
 80 82  1  0  0  0  0
 80 83  1  0  0  0  0
 83 84  2  0  0  0  0
 83 85  1  0  0  0  0
 85 86  1  0  0  0  0
 85 87  2  0  0  0  0
 87 88  1  0  0  0  0
 87 89  1  0  0  0  0
 89 90  2  0  0  0  0
 89 96  1  0  0  0  0
 90 91  1  0  0  0  0
 90 92  1  0  0  0  0
 92 93  2  0  0  0  0
 92 99  1  0  0  0  0
 93 94  1  0  0  0  0
 93 98  1  0  0  0  0
 94 95  1  0  0  0  0
 94 96  2  0  0  0  0
 96 97  1  0  0  0  0
 99100  1  0  0  0  0
100101  1  0  0  0  0
100102  1  0  0  0  0
100103  1  0  0  0  0
104105  1  0  0  0  0
M  BCL ATM C_TeTeTeTe H_S H_S H_S C_TeTeTeTe C_TeTeTeTe H_S H_S H_S C_TeTeTeTe H_S H_S O_Tr2TrTrPi2 P_TeTeTeTePi O_Tr2Tr2TrPi O_Te2Te2Te2Te O_Tr2TrTrPi2 P_TeTeTeTePi O_Te2Te2TeTe O_Tr2Tr2TrPi O_Tr2TrTrPi2 C_TeTeTeTe H_S H_S C_TeTeTeTe H_S C_TeTeTeTe H_S C_TeTeTeTe H_S C_TeTeTeTe H_S O_Te2Te2TeTe N_TrTrTrPi2 C_TrTrTrPi H_S N_Tr2TrTrPi C_TrTrTrPi C_TrTrTrPi N_Tr2TrTrPi C_TrTrTrPi H_S N_Tr2TrTrPi C_TrTrTrPi N_TrTrTrPi2 H_S H_S O_Te2Te2TeTe H_S O_Tr2TrTrPi2 P_TeTeTeTePi O_Tr2Tr2TrPi O_Te2Te2Te2Te O_Te2Te2Te2Te C_TeTeTeTe H_S C_TrTrTrPi O_Tr2Tr2TrPi N_TrTrTrPi2 H_S C_TeTeTeTe H_S H_S C_TeTeTeTe H_S H_S C_TrTrTrPi O_Tr2Tr2TrPi N_TrTrTrPi2 H_S C_TeTeTeTe H_S H_S C_TeTeTeTe H_S H_S S_Te2Te2TeTe C_TrTrTrPi O_Tr2Tr2TrPi C_TeTeTeTe H_S H_S C_TrTrTrPi O_Tr2Tr2TrPi C_TrTrTrPi H_S C_TrTrTrPi H_S C_TrTrTrPi C_TrTrTrPi H_S C_TrTrTrPi C_TrTrTrPi C_TrTrTrPi H_S C_TrTrTrPi H_S O_Te2Te2Te2Te O_Tr2TrTrPi2 C_TeTeTeTe H_S H_S H_S O_Te2Te2TeTe H_S
M  BCL BND NonConjugatedSingleBond NonConjugatedSingleBond NonConjugatedSingleBond NonConjugatedSingleBond NonConjugatedSingleBond NonConjugatedSingleBond NonConjugatedSingleBond NonConjugatedSingleBond NonConjugatedSingleBond NonConjugatedSingleBond NonConjugatedSingleBond NonConjugatedSingleBond NonConjugatedSingleBond ConjugatedSingleBond ConjugatedDoubleBond ConjugatedSingleBond ConjugatedSingleBond ConjugatedSingleBond ConjugatedSingleBond ConjugatedDoubleBond ConjugatedSingleBond NonConjugatedSingleBond NonConjugatedSingleBond NonConjugatedSingleBond NonConjugatedSingleBond NonConjugatedSingleBond NonConjugatedSingleBondInRing NonConjugatedSingleBondInRing NonConjugatedSingleBond NonConjugatedSingleBondInRing NonConjugatedSingleBond NonConjugatedSingleBond NonConjugatedSingleBondInRing NonConjugatedSingleBond NonConjugatedSingleBond NonConjugatedSingleBondInRing NonConjugatedSingleBond AromaticSingleBond AromaticSingleBond NonConjugatedSingleBond AromaticDoubleBond AromaticSingleBond AromaticSingleBond AromaticDoubleBond AromaticDoubleBond ConjugatedSingleBond AromaticSingleBond NonConjugatedSingleBond AromaticDoubleBond AromaticSingleBond NonConjugatedSingleBond NonConjugatedSingleBond NonConjugatedSingleBond ConjugatedSingleBond ConjugatedDoubleBond ConjugatedSingleBond ConjugatedSingleBond NonConjugatedSingleBond NonConjugatedSingleBond NonConjugatedSingleBond ConjugatedDoubleBond AmideSingleBond NonConjugatedSingleBond NonConjugatedSingleBond NonConjugatedSingleBond NonConjugatedSingleBond NonConjugatedSingleBond NonConjugatedSingleBond NonConjugatedSingleBond NonConjugatedSingleBond ConjugatedDoubleBond AmideSingleBond NonConjugatedSingleBond NonConjugatedSingleBond NonConjugatedSingleBond NonConjugatedSingleBond NonConjugatedSingleBond NonConjugatedSingleBond NonConjugatedSingleBond NonConjugatedSingleBond ConjugatedSingleBond ConjugatedDoubleBond NonConjugatedSingleBond NonConjugatedSingleBond NonConjugatedSingleBond NonConjugatedSingleBond ConjugatedDoubleBond ConjugatedSingleBond NonConjugatedSingleBond ConjugatedDoubleBond NonConjugatedSingleBond ConjugatedSingleBond AromaticDoubleBond AromaticSingleBond NonConjugatedSingleBond AromaticSingleBond AromaticDoubleBond ConjugatedSingleBond AromaticSingleBond ConjugatedSingleBond NonConjugatedSingleBond AromaticDoubleBond NonConjugatedSingleBond NonConjugatedSingleBond NonConjugatedSingleBond NonConjugatedSingleBond NonConjugatedSingleBond NonConjugatedSingleBond
M  BCL CHI  14   R  18   S  25   R  27   R  29   R  31   S  55   R
M  BCL DBI - - - - - - - - - - - E - - -
M  END
> <ConfClashScore>
0 

> <ConfOneFourInteractionScore>
-0.959518 

> <ConfScore>
0.401015 

> <ConfScorePBest>
0.00572546 

> <ConfTolerance>
3.81659 

$$$$
L03.****
  PyMOL2.5          3D                             0

105108  0  0  0  0  0  0  0  0999 V2000
    2.7937   -6.9191   -8.8166 C   0  0  0  1  0  0  0  0  0  0  0  0
    3.1600   -7.2723   -7.8754 H   0  0  0  1  0  0  0  0  0  0  0  0
    3.6029   -6.8589   -9.5141 H   0  0  0  1  0  0  0  0  0  0  0  0
    2.0524   -7.5958   -9.1872 H   0  0  0  1  0  0  0  0  0  0  0  0
    2.1716   -5.5294   -8.6349 C   0  0  0  1  0  0  0  0  0  0  0  0
    3.0096   -4.4828   -9.3789 C   0  0  0  1  0  0  0  0  0  0  0  0
    3.4786   -4.9374  -10.2264 H   0  0  0  1  0  0  0  0  0  0  0  0
    3.7597   -4.0943   -8.7222 H   0  0  0  1  0  0  0  0  0  0  0  0
    2.3752   -3.6862   -9.7073 H   0  0  0  1  0  0  0  0  0  0  0  0
    2.1276   -5.1922   -7.1808 C   0  0  0  1  0  0  0  0  0  0  0  0
    2.0644   -4.1315   -7.0545 H   0  0  0  1  0  0  0  0  0  0  0  0
    3.0082   -5.5578   -6.6952 H   0  0  0  1  0  0  0  0  0  0  0  0
    0.9524   -5.8277   -6.6168 O   0  0  0  1  0  0  0  0  0  0  0  0
    0.8695   -6.1500   -5.0788 P   0  0  0  1  0  0  0  0  0  0  0  0
    1.7372   -4.9869   -4.7879 O   0  0  0  1  0  0  0  0  0  0  0  0
   -0.5270   -6.3962   -5.8622 O   0  5  0  1  0  0  0  0  0  0  0  0
    0.7852   -6.4780   -3.5115 O   0  0  0  1  0  0  0  0  0  0  0  0
   -0.3118   -7.1665   -2.5408 P   0  0  0  1  0  0  0  0  0  0  0  0
    0.1266   -6.9943   -1.1204 O   0  0  0  0  0  0  0  0  0  0  0  0
   -0.5202   -8.5215   -3.1041 O   0  0  0  1  0  0  0  0  0  0  0  0
   -1.5907   -6.2443   -2.6679 O   0  0  0  1  0  0  0  0  0  0  0  0
   -2.8485   -6.6334   -2.0675 C   0  0  0  1  0  0  0  0  0  0  0  0
   -2.6684   -7.2495   -1.2115 H   0  0  0  1  0  0  0  0  0  0  0  0
   -3.4398   -7.1726   -2.7777 H   0  0  0  1  0  0  0  0  0  0  0  0
   -3.5677   -5.3720   -1.6514 C   0  0  0  1  0  0  0  0  0  0  0  0
   -4.4703   -5.6286   -1.1373 H   0  0  0  1  0  0  0  0  0  0  0  0
   -3.8744   -4.5120   -2.8640 C   0  0  0  1  0  0  0  0  0  0  0  0
   -4.8190   -4.7719   -3.2942 H   0  0  0  1  0  0  0  0  0  0  0  0
   -3.9064   -3.1250   -2.2756 C   0  0  0  1  0  0  0  0  0  0  0  0
   -4.8413   -2.9263   -1.7947 H   0  0  0  1  0  0  0  0  0  0  0  0
   -2.7629   -3.1947   -1.2644 C   0  0  0  1  0  0  0  0  0  0  0  0
   -2.9506   -2.5417   -0.4377 H   0  0  0  1  0  0  0  0  0  0  0  0
   -2.7384   -4.5806   -0.8268 O   0  0  0  1  0  0  0  0  0  0  0  0
   -1.4960   -2.8317   -1.8946 N   0  0  0  1  0  0  0  0  0  0  0  0
   -0.4549   -3.6737   -2.2027 C   0  0  0  1  0  0  0  0  0  0  0  0
   -0.4810   -4.6992   -2.0317 H   0  0  0  1  0  0  0  0  0  0  0  0
    0.5788   -3.0565   -2.7356 N   0  0  0  1  0  0  0  0  0  0  0  0
    0.1806   -1.7286   -2.8019 C   0  0  0  1  0  0  0  0  0  0  0  0
    0.8128   -0.5653   -3.2794 C   0  0  0  1  0  0  0  0  0  0  0  0
    0.1320    0.5975   -3.2151 N   0  0  0  1  0  0  0  0  0  0  0  0
   -1.1119    0.5774   -2.7089 C   0  0  0  1  0  0  0  0  0  0  0  0
   -1.5963    1.4975   -2.6903 H   0  0  0  1  0  0  0  0  0  0  0  0
   -1.8176   -0.4430   -2.2277 N   0  0  0  1  0  0  0  0  0  0  0  0
   -1.1039   -1.5810   -2.2989 C   0  0  0  1  0  0  0  0  0  0  0  0
    2.0815   -0.6125   -3.7941 N   0  0  0  1  0  0  0  0  0  0  0  0
    2.5408   -1.4731   -3.8872 H   0  0  0  1  0  0  0  0  0  0  0  0
    2.5298    0.2145   -4.0691 H   0  0  0  1  0  0  0  0  0  0  0  0
   -3.6617   -2.1306   -3.2714 O   0  0  0  1  0  0  0  0  0  0  0  0
   -2.8727   -2.3611   -3.7673 H   0  0  0  1  0  0  0  0  0  0  0  0
   -2.8518   -4.6300   -3.8529 O   0  0  0  1  0  0  0  0  0  0  0  0
   -2.8716   -4.1140   -5.4094 P   0  0  0  1  0  0  0  0  0  0  0  0
   -3.2873   -5.1903   -6.3363 O   0  0  0  1  0  0  0  0  0  0  0  0
   -3.7595   -2.7635   -5.5189 O   0  5  0  1  0  0  0  0  0  0  0  0
   -1.3453   -3.6538   -5.6978 O   0  5  0  1  0  0  0  0  0  0  0  0
    0.7335   -5.5319   -9.1995 C   0  0  0  1  0  0  0  0  0  0  0  0
    0.1545   -6.2146   -8.6134 H   0  0  0  1  0  0  0  0  0  0  0  0
    0.1456   -4.1363   -9.0234 C   0  0  0  1  0  0  0  0  0  0  0  0
   -0.1465   -3.7747   -7.8866 O   0  0  0  1  0  0  0  0  0  0  0  0
   -0.0208   -3.3827  -10.1082 N   0  0  0  1  0  0  0  0  0  0  0  0
    0.2255   -3.7727  -10.9729 H   0  0  0  1  0  0  0  0  0  0  0  0
   -0.5407   -2.0235  -10.1067 C   0  0  0  1  0  0  0  0  0  0  0  0
   -1.0649   -1.8579   -9.1887 H   0  0  0  1  0  0  0  0  0  0  0  0
   -1.2169   -1.9142  -10.9287 H   0  0  0  1  0  0  0  0  0  0  0  0
    0.5563   -0.9795  -10.2363 C   0  0  0  1  0  0  0  0  0  0  0  0
    0.1100   -0.0126  -10.3398 H   0  0  0  1  0  0  0  0  0  0  0  0
    1.1456   -1.1956  -11.1029 H   0  0  0  1  0  0  0  0  0  0  0  0
    1.4515   -0.9855   -9.0124 C   0  0  0  1  0  0  0  0  0  0  0  0
    1.0440   -0.6023   -7.9282 O   0  0  0  1  0  0  0  0  0  0  0  0
    2.7015   -1.4350   -9.2063 N   0  0  0  1  0  0  0  0  0  0  0  0
    2.9748   -1.6975  -10.1100 H   0  0  0  1  0  0  0  0  0  0  0  0
    3.6647   -1.5461   -8.1211 C   0  0  0  1  0  0  0  0  0  0  0  0
    4.3558   -2.3288   -8.3549 H   0  0  0  1  0  0  0  0  0  0  0  0
    3.1403   -1.7897   -7.2208 H   0  0  0  1  0  0  0  0  0  0  0  0
    4.4387   -0.2667   -7.8997 C   0  0  0  1  0  0  0  0  0  0  0  0
    4.9379   -0.3305   -6.9555 H   0  0  0  1  0  0  0  0  0  0  0  0
    3.7478    0.5502   -7.8840 H   0  0  0  1  0  0  0  0  0  0  0  0
    5.6737    0.0498   -9.1825 S   0  0  0  1  0  0  0  0  0  0  0  0
    7.1294   -0.7413   -8.5917 C   0  0  0  1  0  0  0  0  0  0  0  0
    8.0422   -1.1079   -9.2815 O   0  0  0  1  0  0  0  0  0  0  0  0
    7.0952   -1.0113   -7.1076 C   0  0  0  1  0  0  0  0  0  0  0  0
    6.2980   -1.6942   -6.9002 H   0  0  0  1  0  0  0  0  0  0  0  0
    6.9187   -0.0895   -6.5939 H   0  0  0  1  0  0  0  0  0  0  0  0
    8.3866   -1.6065   -6.6063 C   0  0  0  1  0  0  0  0  0  0  0  0
    9.2439   -0.8934   -6.1156 O   0  0  0  1  0  0  0  0  0  0  0  0
    8.5910   -3.0475   -6.7189 C   0  0  0  1  0  0  0  0  0  0  0  0
    9.4231   -3.3937   -6.2000 H   0  0  0  1  0  0  0  0  0  0  0  0
    7.9200   -4.0060   -7.3565 C   0  0  0  1  0  0  0  0  0  0  0  0
    7.0769   -3.7194   -7.8938 H   0  0  0  1  0  0  0  0  0  0  0  0
    8.2721   -5.4448   -7.3657 C   0  0  0  1  0  0  0  0  0  0  0  0
    9.5459   -5.8370   -7.0000 C   0  0  0  1  0  0  0  0  0  0  0  0
   10.2509   -5.1236   -6.7247 H   0  0  0  1  0  0  0  0  0  0  0  0
    9.8838   -7.1814   -7.0001 C   0  0  0  1  0  0  0  0  0  0  0  0
    8.9487   -8.1292   -7.3710 C   0  0  0  1  0  0  0  0  0  0  0  0
    7.6711   -7.7356   -7.7378 C   0  0  0  1  0  0  0  0  0  0  0  0
    6.9662   -8.4490   -8.0130 H   0  0  0  1  0  0  0  0  0  0  0  0
    7.3341   -6.3952   -7.7377 C   0  0  0  1  0  0  0  0  0  0  0  0
    6.3768   -6.0996   -8.0168 H   0  0  0  1  0  0  0  0  0  0  0  0
    9.3140   -9.4392   -7.3653 O   0  5  0  1  0  0  0  0  0  0  0  0
   11.0908   -7.6828   -6.6584 O   0  0  0  1  0  0  0  0  0  0  0  0
   11.1668   -8.7603   -5.7120 C   0  0  0  1  0  0  0  0  0  0  0  0
   10.9211   -9.6810   -6.1986 H   0  0  0  1  0  0  0  0  0  0  0  0
   10.4759   -8.5834   -4.9143 H   0  0  0  1  0  0  0  0  0  0  0  0
   12.1598   -8.8193   -5.3180 H   0  0  0  1  0  0  0  0  0  0  0  0
    0.6594   -5.9003  -10.5606 O   0  0  0  1  0  0  0  0  0  0  0  0
    1.1784   -5.2879  -11.0870 H   0  0  0  1  0  0  0  0  0  0  0  0
  1  2  1  0  0  0  0
  1  3  1  0  0  0  0
  1  4  1  0  0  0  0
  1  5  1  0  0  0  0
  5  6  1  0  0  0  0
  5 10  1  0  0  0  0
  5 55  1  0  0  0  0
  6  7  1  0  0  0  0
  6  8  1  0  0  0  0
  6  9  1  0  0  0  0
 10 11  1  0  0  0  0
 10 12  1  0  0  0  0
 10 13  1  0  0  0  0
 13 14  1  0  0  0  0
 14 15  2  0  0  0  0
 14 16  1  0  0  0  0
 14 17  1  0  0  0  0
 17 18  1  0  0  0  0
 18 19  1  0  0  0  0
 18 20  2  0  0  0  0
 18 21  1  0  0  0  0
 21 22  1  0  0  0  0
 22 23  1  0  0  0  0
 22 24  1  0  0  0  0
 22 25  1  0  0  0  0
 25 26  1  0  0  0  0
 25 27  1  0  0  0  0
 25 33  1  0  0  0  0
 27 28  1  0  0  0  0
 27 29  1  0  0  0  0
 27 50  1  0  0  0  0
 29 30  1  0  0  0  0
 29 31  1  0  0  0  0
 29 48  1  0  0  0  0
 31 32  1  0  0  0  0
 31 33  1  0  0  0  0
 31 34  1  0  0  0  0
 34 35  1  0  0  0  0
 34 44  1  0  0  0  0
 35 36  1  0  0  0  0
 35 37  2  0  0  0  0
 37 38  1  0  0  0  0
 38 39  1  0  0  0  0
 38 44  2  0  0  0  0
 39 40  2  0  0  0  0
 39 45  1  0  0  0  0
 40 41  1  0  0  0  0
 41 42  1  0  0  0  0
 41 43  2  0  0  0  0
 43 44  1  0  0  0  0
 45 46  1  0  0  0  0
 45 47  1  0  0  0  0
 48 49  1  0  0  0  0
 50 51  1  0  0  0  0
 51 52  2  0  0  0  0
 51 53  1  0  0  0  0
 51 54  1  0  0  0  0
 55 56  1  0  0  0  0
 55 57  1  0  0  0  0
 55104  1  0  0  0  0
 57 58  2  0  0  0  0
 57 59  1  0  0  0  0
 59 60  1  0  0  0  0
 59 61  1  0  0  0  0
 61 62  1  0  0  0  0
 61 63  1  0  0  0  0
 61 64  1  0  0  0  0
 64 65  1  0  0  0  0
 64 66  1  0  0  0  0
 64 67  1  0  0  0  0
 67 68  2  0  0  0  0
 67 69  1  0  0  0  0
 69 70  1  0  0  0  0
 69 71  1  0  0  0  0
 71 72  1  0  0  0  0
 71 73  1  0  0  0  0
 71 74  1  0  0  0  0
 74 75  1  0  0  0  0
 74 76  1  0  0  0  0
 74 77  1  0  0  0  0
 77 78  1  0  0  0  0
 78 79  2  0  0  0  0
 78 80  1  0  0  0  0
 80 81  1  0  0  0  0
 80 82  1  0  0  0  0
 80 83  1  0  0  0  0
 83 84  2  0  0  0  0
 83 85  1  0  0  0  0
 85 86  1  0  0  0  0
 85 87  2  0  0  0  0
 87 88  1  0  0  0  0
 87 89  1  0  0  0  0
 89 90  2  0  0  0  0
 89 96  1  0  0  0  0
 90 91  1  0  0  0  0
 90 92  1  0  0  0  0
 92 93  2  0  0  0  0
 92 99  1  0  0  0  0
 93 94  1  0  0  0  0
 93 98  1  0  0  0  0
 94 95  1  0  0  0  0
 94 96  2  0  0  0  0
 96 97  1  0  0  0  0
 99100  1  0  0  0  0
100101  1  0  0  0  0
100102  1  0  0  0  0
100103  1  0  0  0  0
104105  1  0  0  0  0
M  BCL ATM C_TeTeTeTe H_S H_S H_S C_TeTeTeTe C_TeTeTeTe H_S H_S H_S C_TeTeTeTe H_S H_S O_Tr2TrTrPi2 P_TeTeTeTePi O_Tr2Tr2TrPi O_Te2Te2Te2Te O_Tr2TrTrPi2 P_TeTeTeTePi O_Te2Te2TeTe O_Tr2Tr2TrPi O_Tr2TrTrPi2 C_TeTeTeTe H_S H_S C_TeTeTeTe H_S C_TeTeTeTe H_S C_TeTeTeTe H_S C_TeTeTeTe H_S O_Te2Te2TeTe N_TrTrTrPi2 C_TrTrTrPi H_S N_Tr2TrTrPi C_TrTrTrPi C_TrTrTrPi N_Tr2TrTrPi C_TrTrTrPi H_S N_Tr2TrTrPi C_TrTrTrPi N_TrTrTrPi2 H_S H_S O_Te2Te2TeTe H_S O_Tr2TrTrPi2 P_TeTeTeTePi O_Tr2Tr2TrPi O_Te2Te2Te2Te O_Te2Te2Te2Te C_TeTeTeTe H_S C_TrTrTrPi O_Tr2Tr2TrPi N_TrTrTrPi2 H_S C_TeTeTeTe H_S H_S C_TeTeTeTe H_S H_S C_TrTrTrPi O_Tr2Tr2TrPi N_TrTrTrPi2 H_S C_TeTeTeTe H_S H_S C_TeTeTeTe H_S H_S S_Te2Te2TeTe C_TrTrTrPi O_Tr2Tr2TrPi C_TeTeTeTe H_S H_S C_TrTrTrPi O_Tr2Tr2TrPi C_TrTrTrPi H_S C_TrTrTrPi H_S C_TrTrTrPi C_TrTrTrPi H_S C_TrTrTrPi C_TrTrTrPi C_TrTrTrPi H_S C_TrTrTrPi H_S O_Te2Te2Te2Te O_Tr2TrTrPi2 C_TeTeTeTe H_S H_S H_S O_Te2Te2TeTe H_S
M  BCL BND NonConjugatedSingleBond NonConjugatedSingleBond NonConjugatedSingleBond NonConjugatedSingleBond NonConjugatedSingleBond NonConjugatedSingleBond NonConjugatedSingleBond NonConjugatedSingleBond NonConjugatedSingleBond NonConjugatedSingleBond NonConjugatedSingleBond NonConjugatedSingleBond NonConjugatedSingleBond ConjugatedSingleBond ConjugatedDoubleBond ConjugatedSingleBond ConjugatedSingleBond ConjugatedSingleBond ConjugatedSingleBond ConjugatedDoubleBond ConjugatedSingleBond NonConjugatedSingleBond NonConjugatedSingleBond NonConjugatedSingleBond NonConjugatedSingleBond NonConjugatedSingleBond NonConjugatedSingleBondInRing NonConjugatedSingleBondInRing NonConjugatedSingleBond NonConjugatedSingleBondInRing NonConjugatedSingleBond NonConjugatedSingleBond NonConjugatedSingleBondInRing NonConjugatedSingleBond NonConjugatedSingleBond NonConjugatedSingleBondInRing NonConjugatedSingleBond AromaticSingleBond AromaticSingleBond NonConjugatedSingleBond AromaticDoubleBond AromaticSingleBond AromaticSingleBond AromaticDoubleBond AromaticDoubleBond ConjugatedSingleBond AromaticSingleBond NonConjugatedSingleBond AromaticDoubleBond AromaticSingleBond NonConjugatedSingleBond NonConjugatedSingleBond NonConjugatedSingleBond ConjugatedSingleBond ConjugatedDoubleBond ConjugatedSingleBond ConjugatedSingleBond NonConjugatedSingleBond NonConjugatedSingleBond NonConjugatedSingleBond ConjugatedDoubleBond AmideSingleBond NonConjugatedSingleBond NonConjugatedSingleBond NonConjugatedSingleBond NonConjugatedSingleBond NonConjugatedSingleBond NonConjugatedSingleBond NonConjugatedSingleBond NonConjugatedSingleBond ConjugatedDoubleBond AmideSingleBond NonConjugatedSingleBond NonConjugatedSingleBond NonConjugatedSingleBond NonConjugatedSingleBond NonConjugatedSingleBond NonConjugatedSingleBond NonConjugatedSingleBond NonConjugatedSingleBond ConjugatedSingleBond ConjugatedDoubleBond NonConjugatedSingleBond NonConjugatedSingleBond NonConjugatedSingleBond NonConjugatedSingleBond ConjugatedDoubleBond ConjugatedSingleBond NonConjugatedSingleBond ConjugatedDoubleBond NonConjugatedSingleBond ConjugatedSingleBond AromaticDoubleBond AromaticSingleBond NonConjugatedSingleBond AromaticSingleBond AromaticDoubleBond ConjugatedSingleBond AromaticSingleBond ConjugatedSingleBond NonConjugatedSingleBond AromaticDoubleBond NonConjugatedSingleBond NonConjugatedSingleBond NonConjugatedSingleBond NonConjugatedSingleBond NonConjugatedSingleBond NonConjugatedSingleBond
M  BCL CHI  14   R  18   S  25   R  27   R  29   R  31   S  55   R
M  BCL DBI - - - - - - - - - - - E - - -
M  END
> <ConfClashScore>
2.59577e-05 

> <ConfOneFourInteractionScore>
-0.974858 

> <ConfScore>
0.420386 

> <ConfScorePBest>
0.00562246 

> <ConfTolerance>
3.53898 

$$$$
L03.****
  PyMOL2.5          3D                             0

105108  0  0  0  0  0  0  0  0999 V2000
   -2.0112    7.9495   -1.5760 C   0  0  0  1  0  0  0  0  0  0  0  0
   -2.0665    6.9826   -2.0309 H   0  0  0  1  0  0  0  0  0  0  0  0
   -1.0043    8.3084   -1.6227 H   0  0  0  1  0  0  0  0  0  0  0  0
   -2.6560    8.6260   -2.0971 H   0  0  0  1  0  0  0  0  0  0  0  0
   -2.4510    7.8515   -0.1103 C   0  0  0  1  0  0  0  0  0  0  0  0
   -1.3610    8.4301    0.7999 C   0  0  0  1  0  0  0  0  0  0  0  0
   -1.8140    8.8762    1.6605 H   0  0  0  1  0  0  0  0  0  0  0  0
   -0.8061    9.1718    0.2643 H   0  0  0  1  0  0  0  0  0  0  0  0
   -0.7024    7.6459    1.1100 H   0  0  0  1  0  0  0  0  0  0  0  0
   -2.6875    6.4197    0.2417 C   0  0  0  1  0  0  0  0  0  0  0  0
   -2.8951    6.3311    1.2876 H   0  0  0  1  0  0  0  0  0  0  0  0
   -1.8235    5.8372   -0.0015 H   0  0  0  1  0  0  0  0  0  0  0  0
   -3.8265    5.9591   -0.5287 O   0  0  0  1  0  0  0  0  0  0  0  0
   -4.2669    4.4542   -0.3970 P   0  0  0  1  0  0  0  0  0  0  0  0
   -4.3719    4.6129    1.0707 O   0  0  0  1  0  0  0  0  0  0  0  0
   -4.8889    5.1933   -1.6975 O   0  5  0  1  0  0  0  0  0  0  0  0
   -4.7196    2.9070   -0.2612 O   0  0  0  1  0  0  0  0  0  0  0  0
   -5.5384    2.1844   -1.3701 P   0  0  0  1  0  0  0  0  0  0  0  0
   -4.9355    2.4958   -2.7432 O   0  0  0  0  0  0  0  0  0  0  0  0
   -6.9507    2.6102   -1.2324 O   0  0  0  1  0  0  0  0  0  0  0  0
   -5.3569    0.6384   -1.1957 O   0  0  0  1  0  0  0  0  0  0  0  0
   -4.0464    0.0310   -1.2826 C   0  0  0  1  0  0  0  0  0  0  0  0
   -3.3472    0.5872   -0.6940 H   0  0  0  1  0  0  0  0  0  0  0  0
   -3.7203    0.0122   -2.3016 H   0  0  0  1  0  0  0  0  0  0  0  0
   -4.1588   -1.3841   -0.7504 C   0  0  0  1  0  0  0  0  0  0  0  0
   -5.1567   -1.5577   -0.4053 H   0  0  0  1  0  0  0  0  0  0  0  0
   -3.2022   -1.5912    0.3424 C   0  0  0  1  0  0  0  0  0  0  0  0
   -3.6775   -1.4434    1.2896 H   0  0  0  1  0  0  0  0  0  0  0  0
   -2.7359   -3.0325    0.1994 C   0  0  0  1  0  0  0  0  0  0  0  0
   -3.4009   -3.7112    0.6913 H   0  0  0  1  0  0  0  0  0  0  0  0
   -2.7808   -3.2045   -1.3201 C   0  0  0  1  0  0  0  0  0  0  0  0
   -3.0084   -4.2187   -1.5739 H   0  0  0  1  0  0  0  0  0  0  0  0
   -3.8179   -2.3304   -1.7800 O   0  0  0  1  0  0  0  0  0  0  0  0
   -1.4982   -2.8291   -1.9132 N   0  0  0  1  0  0  0  0  0  0  0  0
   -0.4436   -3.6539   -2.1999 C   0  0  0  1  0  0  0  0  0  0  0  0
   -0.4612   -4.6762   -2.0094 H   0  0  0  1  0  0  0  0  0  0  0  0
    0.5855   -3.0526   -2.7316 N   0  0  0  1  0  0  0  0  0  0  0  0
    0.1846   -1.7333   -2.7999 C   0  0  0  1  0  0  0  0  0  0  0  0
    0.7995   -0.5707   -3.2712 C   0  0  0  1  0  0  0  0  0  0  0  0
    0.1444    0.5934   -3.2053 N   0  0  0  1  0  0  0  0  0  0  0  0
   -1.1055    0.5824   -2.6950 C   0  0  0  1  0  0  0  0  0  0  0  0
   -1.5891    1.5028   -2.6688 H   0  0  0  1  0  0  0  0  0  0  0  0
   -1.8018   -0.4475   -2.2213 N   0  0  0  1  0  0  0  0  0  0  0  0
   -1.0972   -1.5779   -2.2998 C   0  0  0  1  0  0  0  0  0  0  0  0
    2.0636   -0.6227   -3.7967 N   0  0  0  1  0  0  0  0  0  0  0  0
    2.4937   -1.4891   -3.9540 H   0  0  0  1  0  0  0  0  0  0  0  0
    2.5379    0.2066   -4.0154 H   0  0  0  1  0  0  0  0  0  0  0  0
   -1.4129   -3.2085    0.7081 O   0  0  0  1  0  0  0  0  0  0  0  0
   -1.1899   -4.1423    0.7051 H   0  0  0  1  0  0  0  0  0  0  0  0
   -2.0731   -0.6731    0.2148 O   0  0  0  1  0  0  0  0  0  0  0  0
   -1.5242    0.1697    1.5102 P   0  0  0  1  0  0  0  0  0  0  0  0
   -1.7238   -0.6073    2.7539 O   0  0  0  1  0  0  0  0  0  0  0  0
    0.0124    0.0691    1.0071 O   0  5  0  1  0  0  0  0  0  0  0  0
   -2.0330    1.7058    1.4340 O   0  5  0  1  0  0  0  0  0  0  0  0
   -3.7496    8.6395    0.0861 C   0  0  0  1  0  0  0  0  0  0  0  0
   -4.4609    8.2620   -0.6184 H   0  0  0  1  0  0  0  0  0  0  0  0
   -4.3499    8.4730    1.4739 C   0  0  0  1  0  0  0  0  0  0  0  0
   -4.2738    9.3686    2.3141 O   0  0  0  1  0  0  0  0  0  0  0  0
   -4.9542    7.3048    1.7086 N   0  0  0  1  0  0  0  0  0  0  0  0
   -4.9499    6.6398    0.9888 H   0  0  0  1  0  0  0  0  0  0  0  0
   -5.6183    6.9454    2.9527 C   0  0  0  1  0  0  0  0  0  0  0  0
   -6.2454    7.7584    3.2538 H   0  0  0  1  0  0  0  0  0  0  0  0
   -4.8736    6.7725    3.7013 H   0  0  0  1  0  0  0  0  0  0  0  0
   -6.4724    5.6955    2.8176 C   0  0  0  1  0  0  0  0  0  0  0  0
   -5.8320    4.8873    2.5319 H   0  0  0  1  0  0  0  0  0  0  0  0
   -7.1931    5.8700    2.0462 H   0  0  0  1  0  0  0  0  0  0  0  0
   -7.2193    5.2802    4.0702 C   0  0  0  1  0  0  0  0  0  0  0  0
   -7.4914    6.0949    4.9510 O   0  0  0  1  0  0  0  0  0  0  0  0
   -7.5553    3.9826    4.1456 N   0  0  0  1  0  0  0  0  0  0  0  0
   -7.3299    3.3914    3.3972 H   0  0  0  1  0  0  0  0  0  0  0  0
   -8.2427    3.4234    5.3000 C   0  0  0  1  0  0  0  0  0  0  0  0
   -7.6544    3.6118    6.1737 H   0  0  0  1  0  0  0  0  0  0  0  0
   -8.3456    2.3677    5.1595 H   0  0  0  1  0  0  0  0  0  0  0  0
   -9.6134    4.0201    5.5023 C   0  0  0  1  0  0  0  0  0  0  0  0
   -9.4896    5.0288    5.8369 H   0  0  0  1  0  0  0  0  0  0  0  0
  -10.1139    3.4518    6.2583 H   0  0  0  1  0  0  0  0  0  0  0  0
  -10.6650    4.0432    4.0310 S   0  0  0  1  0  0  0  0  0  0  0  0
  -11.6037    5.5239    4.3476 C   0  0  0  1  0  0  0  0  0  0  0  0
  -11.3011    6.2886    5.2190 O   0  0  0  1  0  0  0  0  0  0  0  0
  -12.7310    5.7129    3.3552 C   0  0  0  1  0  0  0  0  0  0  0  0
  -12.8204    6.7587    3.1469 H   0  0  0  1  0  0  0  0  0  0  0  0
  -13.6350    5.3599    3.8057 H   0  0  0  1  0  0  0  0  0  0  0  0
  -12.5430    4.9874    2.0470 C   0  0  0  1  0  0  0  0  0  0  0  0
  -13.4090    4.2373    1.6277 O   0  0  0  1  0  0  0  0  0  0  0  0
  -11.3105    5.1974    1.2934 C   0  0  0  1  0  0  0  0  0  0  0  0
  -10.6839    5.9162    1.7084 H   0  0  0  1  0  0  0  0  0  0  0  0
  -10.8314    4.6483    0.1780 C   0  0  0  1  0  0  0  0  0  0  0  0
  -11.3111    3.7733   -0.1151 H   0  0  0  1  0  0  0  0  0  0  0  0
   -9.7292    5.0765   -0.7143 C   0  0  0  1  0  0  0  0  0  0  0  0
   -9.2590    4.2085   -1.6815 C   0  0  0  1  0  0  0  0  0  0  0  0
   -9.6759    3.2605   -1.7765 H   0  0  0  1  0  0  0  0  0  0  0  0
   -8.2315    4.6016   -2.5249 C   0  0  0  1  0  0  0  0  0  0  0  0
   -7.6737    5.8595   -2.3952 C   0  0  0  1  0  0  0  0  0  0  0  0
   -8.1454    6.7300   -1.4250 C   0  0  0  1  0  0  0  0  0  0  0  0
   -7.7285    7.6780   -1.3299 H   0  0  0  1  0  0  0  0  0  0  0  0
   -9.1699    6.3382   -0.5840 C   0  0  0  1  0  0  0  0  0  0  0  0
   -9.5210    6.9898    0.1465 H   0  0  0  1  0  0  0  0  0  0  0  0
   -6.6609    6.3136   -3.1811 O   0  5  0  1  0  0  0  0  0  0  0  0
   -7.6936    3.8428   -3.5091 O   0  0  0  1  0  0  0  0  0  0  0  0
   -8.2201    2.5173   -3.6778 C   0  0  0  1  0  0  0  0  0  0  0  0
   -9.2400    2.5759   -3.9959 H   0  0  0  1  0  0  0  0  0  0  0  0
   -8.1666    1.9915   -2.7475 H   0  0  0  1  0  0  0  0  0  0  0  0
   -7.6459    1.9970   -4.4157 H   0  0  0  1  0  0  0  0  0  0  0  0
   -3.4858   10.0073   -0.2206 O   0  0  0  1  0  0  0  0  0  0  0  0
   -2.8472   10.3584    0.4043 H   0  0  0  1  0  0  0  0  0  0  0  0
  1  2  1  0  0  0  0
  1  3  1  0  0  0  0
  1  4  1  0  0  0  0
  1  5  1  0  0  0  0
  5  6  1  0  0  0  0
  5 10  1  0  0  0  0
  5 55  1  0  0  0  0
  6  7  1  0  0  0  0
  6  8  1  0  0  0  0
  6  9  1  0  0  0  0
 10 11  1  0  0  0  0
 10 12  1  0  0  0  0
 10 13  1  0  0  0  0
 13 14  1  0  0  0  0
 14 15  2  0  0  0  0
 14 16  1  0  0  0  0
 14 17  1  0  0  0  0
 17 18  1  0  0  0  0
 18 19  1  0  0  0  0
 18 20  2  0  0  0  0
 18 21  1  0  0  0  0
 21 22  1  0  0  0  0
 22 23  1  0  0  0  0
 22 24  1  0  0  0  0
 22 25  1  0  0  0  0
 25 26  1  0  0  0  0
 25 27  1  0  0  0  0
 25 33  1  0  0  0  0
 27 28  1  0  0  0  0
 27 29  1  0  0  0  0
 27 50  1  0  0  0  0
 29 30  1  0  0  0  0
 29 31  1  0  0  0  0
 29 48  1  0  0  0  0
 31 32  1  0  0  0  0
 31 33  1  0  0  0  0
 31 34  1  0  0  0  0
 34 35  1  0  0  0  0
 34 44  1  0  0  0  0
 35 36  1  0  0  0  0
 35 37  2  0  0  0  0
 37 38  1  0  0  0  0
 38 39  1  0  0  0  0
 38 44  2  0  0  0  0
 39 40  2  0  0  0  0
 39 45  1  0  0  0  0
 40 41  1  0  0  0  0
 41 42  1  0  0  0  0
 41 43  2  0  0  0  0
 43 44  1  0  0  0  0
 45 46  1  0  0  0  0
 45 47  1  0  0  0  0
 48 49  1  0  0  0  0
 50 51  1  0  0  0  0
 51 52  2  0  0  0  0
 51 53  1  0  0  0  0
 51 54  1  0  0  0  0
 55 56  1  0  0  0  0
 55 57  1  0  0  0  0
 55104  1  0  0  0  0
 57 58  2  0  0  0  0
 57 59  1  0  0  0  0
 59 60  1  0  0  0  0
 59 61  1  0  0  0  0
 61 62  1  0  0  0  0
 61 63  1  0  0  0  0
 61 64  1  0  0  0  0
 64 65  1  0  0  0  0
 64 66  1  0  0  0  0
 64 67  1  0  0  0  0
 67 68  2  0  0  0  0
 67 69  1  0  0  0  0
 69 70  1  0  0  0  0
 69 71  1  0  0  0  0
 71 72  1  0  0  0  0
 71 73  1  0  0  0  0
 71 74  1  0  0  0  0
 74 75  1  0  0  0  0
 74 76  1  0  0  0  0
 74 77  1  0  0  0  0
 77 78  1  0  0  0  0
 78 79  2  0  0  0  0
 78 80  1  0  0  0  0
 80 81  1  0  0  0  0
 80 82  1  0  0  0  0
 80 83  1  0  0  0  0
 83 84  2  0  0  0  0
 83 85  1  0  0  0  0
 85 86  1  0  0  0  0
 85 87  2  0  0  0  0
 87 88  1  0  0  0  0
 87 89  1  0  0  0  0
 89 90  2  0  0  0  0
 89 96  1  0  0  0  0
 90 91  1  0  0  0  0
 90 92  1  0  0  0  0
 92 93  2  0  0  0  0
 92 99  1  0  0  0  0
 93 94  1  0  0  0  0
 93 98  1  0  0  0  0
 94 95  1  0  0  0  0
 94 96  2  0  0  0  0
 96 97  1  0  0  0  0
 99100  1  0  0  0  0
100101  1  0  0  0  0
100102  1  0  0  0  0
100103  1  0  0  0  0
104105  1  0  0  0  0
M  BCL ATM C_TeTeTeTe H_S H_S H_S C_TeTeTeTe C_TeTeTeTe H_S H_S H_S C_TeTeTeTe H_S H_S O_Tr2TrTrPi2 P_TeTeTeTePi O_Tr2Tr2TrPi O_Te2Te2Te2Te O_Tr2TrTrPi2 P_TeTeTeTePi O_Te2Te2TeTe O_Tr2Tr2TrPi O_Tr2TrTrPi2 C_TeTeTeTe H_S H_S C_TeTeTeTe H_S C_TeTeTeTe H_S C_TeTeTeTe H_S C_TeTeTeTe H_S O_Te2Te2TeTe N_TrTrTrPi2 C_TrTrTrPi H_S N_Tr2TrTrPi C_TrTrTrPi C_TrTrTrPi N_Tr2TrTrPi C_TrTrTrPi H_S N_Tr2TrTrPi C_TrTrTrPi N_TrTrTrPi2 H_S H_S O_Te2Te2TeTe H_S O_Tr2TrTrPi2 P_TeTeTeTePi O_Tr2Tr2TrPi O_Te2Te2Te2Te O_Te2Te2Te2Te C_TeTeTeTe H_S C_TrTrTrPi O_Tr2Tr2TrPi N_TrTrTrPi2 H_S C_TeTeTeTe H_S H_S C_TeTeTeTe H_S H_S C_TrTrTrPi O_Tr2Tr2TrPi N_TrTrTrPi2 H_S C_TeTeTeTe H_S H_S C_TeTeTeTe H_S H_S S_Te2Te2TeTe C_TrTrTrPi O_Tr2Tr2TrPi C_TeTeTeTe H_S H_S C_TrTrTrPi O_Tr2Tr2TrPi C_TrTrTrPi H_S C_TrTrTrPi H_S C_TrTrTrPi C_TrTrTrPi H_S C_TrTrTrPi C_TrTrTrPi C_TrTrTrPi H_S C_TrTrTrPi H_S O_Te2Te2Te2Te O_Tr2TrTrPi2 C_TeTeTeTe H_S H_S H_S O_Te2Te2TeTe H_S
M  BCL BND NonConjugatedSingleBond NonConjugatedSingleBond NonConjugatedSingleBond NonConjugatedSingleBond NonConjugatedSingleBond NonConjugatedSingleBond NonConjugatedSingleBond NonConjugatedSingleBond NonConjugatedSingleBond NonConjugatedSingleBond NonConjugatedSingleBond NonConjugatedSingleBond NonConjugatedSingleBond ConjugatedSingleBond ConjugatedDoubleBond ConjugatedSingleBond ConjugatedSingleBond ConjugatedSingleBond ConjugatedSingleBond ConjugatedDoubleBond ConjugatedSingleBond NonConjugatedSingleBond NonConjugatedSingleBond NonConjugatedSingleBond NonConjugatedSingleBond NonConjugatedSingleBond NonConjugatedSingleBondInRing NonConjugatedSingleBondInRing NonConjugatedSingleBond NonConjugatedSingleBondInRing NonConjugatedSingleBond NonConjugatedSingleBond NonConjugatedSingleBondInRing NonConjugatedSingleBond NonConjugatedSingleBond NonConjugatedSingleBondInRing NonConjugatedSingleBond AromaticSingleBond AromaticSingleBond NonConjugatedSingleBond AromaticDoubleBond AromaticSingleBond AromaticSingleBond AromaticDoubleBond AromaticDoubleBond ConjugatedSingleBond AromaticSingleBond NonConjugatedSingleBond AromaticDoubleBond AromaticSingleBond NonConjugatedSingleBond NonConjugatedSingleBond NonConjugatedSingleBond ConjugatedSingleBond ConjugatedDoubleBond ConjugatedSingleBond ConjugatedSingleBond NonConjugatedSingleBond NonConjugatedSingleBond NonConjugatedSingleBond ConjugatedDoubleBond AmideSingleBond NonConjugatedSingleBond NonConjugatedSingleBond NonConjugatedSingleBond NonConjugatedSingleBond NonConjugatedSingleBond NonConjugatedSingleBond NonConjugatedSingleBond NonConjugatedSingleBond ConjugatedDoubleBond AmideSingleBond NonConjugatedSingleBond NonConjugatedSingleBond NonConjugatedSingleBond NonConjugatedSingleBond NonConjugatedSingleBond NonConjugatedSingleBond NonConjugatedSingleBond NonConjugatedSingleBond ConjugatedSingleBond ConjugatedDoubleBond NonConjugatedSingleBond NonConjugatedSingleBond NonConjugatedSingleBond NonConjugatedSingleBond ConjugatedDoubleBond ConjugatedSingleBond NonConjugatedSingleBond ConjugatedDoubleBond NonConjugatedSingleBond ConjugatedSingleBond AromaticDoubleBond AromaticSingleBond NonConjugatedSingleBond AromaticSingleBond AromaticDoubleBond ConjugatedSingleBond AromaticSingleBond ConjugatedSingleBond NonConjugatedSingleBond AromaticDoubleBond NonConjugatedSingleBond NonConjugatedSingleBond NonConjugatedSingleBond NonConjugatedSingleBond NonConjugatedSingleBond NonConjugatedSingleBond
M  BCL CHI  14   R  18   S  25   R  27   R  29   R  31   S  55   R
M  BCL DBI - - - - - - - - - - - E - - -
M  END
> <ConfClashScore>
0.00415231 

> <ConfOneFourInteractionScore>
-0.965223 

> <ConfScore>
0.460856 

> <ConfScorePBest>
0.00551946 

> <ConfTolerance>
4.20555 

$$$$
L03.****
  PyMOL2.5          3D                             0

105108  0  0  0  0  0  0  0  0999 V2000
   -2.7815   -0.1061  -10.0864 C   0  0  0  1  0  0  0  0  0  0  0  0
   -3.7378   -0.5646   -9.9442 H   0  0  0  1  0  0  0  0  0  0  0  0
   -2.2394   -0.6387  -10.8396 H   0  0  0  1  0  0  0  0  0  0  0  0
   -2.9156    0.9100  -10.3939 H   0  0  0  1  0  0  0  0  0  0  0  0
   -1.9959   -0.1419   -8.7701 C   0  0  0  1  0  0  0  0  0  0  0  0
   -0.7385    0.7278   -8.8869 C   0  0  0  1  0  0  0  0  0  0  0  0
   -0.1312    0.3713   -9.6925 H   0  0  0  1  0  0  0  0  0  0  0  0
   -0.1840    0.6773   -7.9732 H   0  0  0  1  0  0  0  0  0  0  0  0
   -1.0228    1.7418   -9.0765 H   0  0  0  1  0  0  0  0  0  0  0  0
   -1.6482   -1.4938   -8.3642 C   0  0  0  1  0  0  0  0  0  0  0  0
   -1.2196   -2.0024   -9.2023 H   0  0  0  1  0  0  0  0  0  0  0  0
   -2.5406   -1.9986   -8.0581 H   0  0  0  1  0  0  0  0  0  0  0  0
   -0.7012   -1.5260   -7.2706 O   0  0  0  1  0  0  0  0  0  0  0  0
   -0.6000   -2.7236   -6.2549 P   0  0  0  1  0  0  0  0  0  0  0  0
    0.8364   -2.4302   -6.0516 O   0  0  0  1  0  0  0  0  0  0  0  0
   -1.9876   -1.8963   -6.1352 O   0  5  0  1  0  0  0  0  0  0  0  0
   -0.4961   -3.9462   -5.2177 O   0  0  0  1  0  0  0  0  0  0  0  0
   -1.4370   -5.1705   -4.9222 P   0  0  0  1  0  0  0  0  0  0  0  0
   -0.5302   -6.3312   -4.6619 O   0  0  0  0  0  0  0  0  0  0  0  0
   -2.4338   -5.3722   -5.9974 O   0  0  0  1  0  0  0  0  0  0  0  0
   -2.2391   -4.8313   -3.6116 O   0  0  0  1  0  0  0  0  0  0  0  0
   -3.2663   -5.7536   -3.1673 C   0  0  0  1  0  0  0  0  0  0  0  0
   -2.8394   -6.7198   -2.9964 H   0  0  0  1  0  0  0  0  0  0  0  0
   -4.0342   -5.8285   -3.9087 H   0  0  0  1  0  0  0  0  0  0  0  0
   -3.8441   -5.2118   -1.8812 C   0  0  0  1  0  0  0  0  0  0  0  0
   -4.3202   -6.0039   -1.3419 H   0  0  0  1  0  0  0  0  0  0  0  0
   -4.8209   -4.0932   -2.1627 C   0  0  0  1  0  0  0  0  0  0  0  0
   -5.5372   -4.0033   -1.3729 H   0  0  0  1  0  0  0  0  0  0  0  0
   -3.9275   -2.8477   -2.2369 C   0  0  0  1  0  0  0  0  0  0  0  0
   -4.4494   -1.9779   -1.8963 H   0  0  0  1  0  0  0  0  0  0  0  0
   -2.7696   -3.2046   -1.2914 C   0  0  0  1  0  0  0  0  0  0  0  0
   -2.8855   -2.6852   -0.3631 H   0  0  0  1  0  0  0  0  0  0  0  0
   -2.8036   -4.5864   -1.0700 O   0  0  0  1  0  0  0  0  0  0  0  0
   -1.4946   -2.8311   -1.9044 N   0  0  0  1  0  0  0  0  0  0  0  0
   -0.4484   -3.6533   -2.1911 C   0  0  0  1  0  0  0  0  0  0  0  0
   -0.4695   -4.6743   -1.9946 H   0  0  0  1  0  0  0  0  0  0  0  0
    0.5833   -3.0637   -2.7312 N   0  0  0  1  0  0  0  0  0  0  0  0
    0.1894   -1.7376   -2.8206 C   0  0  0  1  0  0  0  0  0  0  0  0
    0.7969   -0.5740   -3.2830 C   0  0  0  1  0  0  0  0  0  0  0  0
    0.1345    0.5866   -3.2284 N   0  0  0  1  0  0  0  0  0  0  0  0
   -1.1030    0.5810   -2.7083 C   0  0  0  1  0  0  0  0  0  0  0  0
   -1.5830    1.5032   -2.6796 H   0  0  0  1  0  0  0  0  0  0  0  0
   -1.7968   -0.4425   -2.2257 N   0  0  0  1  0  0  0  0  0  0  0  0
   -1.1057   -1.5802   -2.3091 C   0  0  0  1  0  0  0  0  0  0  0  0
    2.0630   -0.6169   -3.7900 N   0  0  0  1  0  0  0  0  0  0  0  0
    2.4876    0.2032   -4.1179 H   0  0  0  1  0  0  0  0  0  0  0  0
    2.5477   -1.4679   -3.8263 H   0  0  0  1  0  0  0  0  0  0  0  0
   -3.4568   -2.6306   -3.5679 O   0  0  0  1  0  0  0  0  0  0  0  0
   -2.5129   -2.8018   -3.6060 H   0  0  0  1  0  0  0  0  0  0  0  0
   -5.5079   -4.3107   -3.4141 O   0  0  0  1  0  0  0  0  0  0  0  0
   -6.6225   -3.2703   -4.0181 P   0  0  0  1  0  0  0  0  0  0  0  0
   -7.7895   -3.1213   -3.1202 O   0  0  0  1  0  0  0  0  0  0  0  0
   -5.8032   -1.8803   -4.1636 O   0  5  0  1  0  0  0  0  0  0  0  0
   -6.9960   -3.8033   -5.5016 O   0  5  0  1  0  0  0  0  0  0  0  0
   -2.8802    0.4249   -7.6455 C   0  0  0  1  0  0  0  0  0  0  0  0
   -2.2585    0.5729   -6.7874 H   0  0  0  1  0  0  0  0  0  0  0  0
   -3.4591    1.7698   -8.0396 C   0  0  0  1  0  0  0  0  0  0  0  0
   -2.7954    2.5897   -8.6686 O   0  0  0  1  0  0  0  0  0  0  0  0
   -4.7257    1.9937   -7.6577 N   0  0  0  1  0  0  0  0  0  0  0  0
   -5.2549    1.2664   -7.2686 H   0  0  0  1  0  0  0  0  0  0  0  0
   -5.3152    3.3143   -7.8199 C   0  0  0  1  0  0  0  0  0  0  0  0
   -4.5601    4.0583   -7.6742 H   0  0  0  1  0  0  0  0  0  0  0  0
   -6.0910    3.4461   -7.0949 H   0  0  0  1  0  0  0  0  0  0  0  0
   -5.9028    3.4615   -9.2173 C   0  0  0  1  0  0  0  0  0  0  0  0
   -6.9689    3.5026   -9.1358 H   0  0  0  1  0  0  0  0  0  0  0  0
   -5.6216    2.6070   -9.7967 H   0  0  0  1  0  0  0  0  0  0  0  0
   -5.4251    4.7092   -9.9342 C   0  0  0  1  0  0  0  0  0  0  0  0
   -6.1614    5.6811  -10.0813 O   0  0  0  1  0  0  0  0  0  0  0  0
   -4.1680    4.6740  -10.3853 N   0  0  0  1  0  0  0  0  0  0  0  0
   -3.6831    3.8229  -10.4157 H   0  0  0  1  0  0  0  0  0  0  0  0
   -3.5173    5.8968  -10.8316 C   0  0  0  1  0  0  0  0  0  0  0  0
   -4.2081    6.7081  -10.7342 H   0  0  0  1  0  0  0  0  0  0  0  0
   -3.2423    5.7834  -11.8595 H   0  0  0  1  0  0  0  0  0  0  0  0
   -2.2759    6.2188  -10.0307 C   0  0  0  1  0  0  0  0  0  0  0  0
   -1.9015    7.1790  -10.3182 H   0  0  0  1  0  0  0  0  0  0  0  0
   -1.5283    5.4750  -10.2117 H   0  0  0  1  0  0  0  0  0  0  0  0
   -2.7045    6.2347   -8.2737 S   0  0  0  1  0  0  0  0  0  0  0  0
   -1.6530    7.3384   -7.6692 C   0  0  0  1  0  0  0  0  0  0  0  0
   -0.8987    8.0471   -7.9750 O   0  0  0  1  0  0  0  0  0  0  0  0
   -1.8713    7.4112   -6.1777 C   0  0  0  1  0  0  0  0  0  0  0  0
   -0.9306    7.2487   -5.6944 H   0  0  0  1  0  0  0  0  0  0  0  0
   -2.5534    6.6342   -5.9020 H   0  0  0  1  0  0  0  0  0  0  0  0
   -2.4306    8.7232   -5.6891 C   0  0  0  1  0  0  0  0  0  0  0  0
   -2.6372    9.6078   -6.5231 O   0  0  0  1  0  0  0  0  0  0  0  0
   -2.7143    8.9276   -4.2719 C   0  0  0  1  0  0  0  0  0  0  0  0
   -2.9289    9.9038   -3.9845 H   0  0  0  1  0  0  0  0  0  0  0  0
   -2.7313    8.0140   -3.3022 C   0  0  0  1  0  0  0  0  0  0  0  0
   -2.5191    7.0318   -3.5705 H   0  0  0  1  0  0  0  0  0  0  0  0
   -3.0268    8.2774   -1.8743 C   0  0  0  1  0  0  0  0  0  0  0  0
   -2.9453    9.5889   -1.4461 C   0  0  0  1  0  0  0  0  0  0  0  0
   -2.6818   10.3393   -2.1161 H   0  0  0  1  0  0  0  0  0  0  0  0
   -3.2149    9.9039   -0.1233 C   0  0  0  1  0  0  0  0  0  0  0  0
   -3.5599    8.9059    0.7685 C   0  0  0  1  0  0  0  0  0  0  0  0
   -3.6415    7.5905    0.3387 C   0  0  0  1  0  0  0  0  0  0  0  0
   -3.9051    6.8400    1.0088 H   0  0  0  1  0  0  0  0  0  0  0  0
   -3.3728    7.2763   -0.9801 C   0  0  0  1  0  0  0  0  0  0  0  0
   -3.4302    6.2889   -1.3015 H   0  0  0  1  0  0  0  0  0  0  0  0
   -3.8400    9.0944    2.0859 O   0  5  0  1  0  0  0  0  0  0  0  0
   -3.1090   11.2130    0.1764 O   0  0  0  1  0  0  0  0  0  0  0  0
   -3.4235   12.1168   -0.9084 C   0  0  0  1  0  0  0  0  0  0  0  0
   -4.3857   11.8736   -1.3083 H   0  0  0  1  0  0  0  0  0  0  0  0
   -2.6843   12.0229   -1.6763 H   0  0  0  1  0  0  0  0  0  0  0  0
   -3.4332   13.1225   -0.5431 H   0  0  0  1  0  0  0  0  0  0  0  0
   -3.9007   -0.5159   -7.3257 O   0  0  0  1  0  0  0  0  0  0  0  0
   -4.1730   -0.3953   -6.4130 H   0  0  0  1  0  0  0  0  0  0  0  0
  1  2  1  0  0  0  0
  1  3  1  0  0  0  0
  1  4  1  0  0  0  0
  1  5  1  0  0  0  0
  5  6  1  0  0  0  0
  5 10  1  0  0  0  0
  5 55  1  0  0  0  0
  6  7  1  0  0  0  0
  6  8  1  0  0  0  0
  6  9  1  0  0  0  0
 10 11  1  0  0  0  0
 10 12  1  0  0  0  0
 10 13  1  0  0  0  0
 13 14  1  0  0  0  0
 14 15  2  0  0  0  0
 14 16  1  0  0  0  0
 14 17  1  0  0  0  0
 17 18  1  0  0  0  0
 18 19  1  0  0  0  0
 18 20  2  0  0  0  0
 18 21  1  0  0  0  0
 21 22  1  0  0  0  0
 22 23  1  0  0  0  0
 22 24  1  0  0  0  0
 22 25  1  0  0  0  0
 25 26  1  0  0  0  0
 25 27  1  0  0  0  0
 25 33  1  0  0  0  0
 27 28  1  0  0  0  0
 27 29  1  0  0  0  0
 27 50  1  0  0  0  0
 29 30  1  0  0  0  0
 29 31  1  0  0  0  0
 29 48  1  0  0  0  0
 31 32  1  0  0  0  0
 31 33  1  0  0  0  0
 31 34  1  0  0  0  0
 34 35  1  0  0  0  0
 34 44  1  0  0  0  0
 35 36  1  0  0  0  0
 35 37  2  0  0  0  0
 37 38  1  0  0  0  0
 38 39  1  0  0  0  0
 38 44  2  0  0  0  0
 39 40  2  0  0  0  0
 39 45  1  0  0  0  0
 40 41  1  0  0  0  0
 41 42  1  0  0  0  0
 41 43  2  0  0  0  0
 43 44  1  0  0  0  0
 45 46  1  0  0  0  0
 45 47  1  0  0  0  0
 48 49  1  0  0  0  0
 50 51  1  0  0  0  0
 51 52  2  0  0  0  0
 51 53  1  0  0  0  0
 51 54  1  0  0  0  0
 55 56  1  0  0  0  0
 55 57  1  0  0  0  0
 55104  1  0  0  0  0
 57 58  2  0  0  0  0
 57 59  1  0  0  0  0
 59 60  1  0  0  0  0
 59 61  1  0  0  0  0
 61 62  1  0  0  0  0
 61 63  1  0  0  0  0
 61 64  1  0  0  0  0
 64 65  1  0  0  0  0
 64 66  1  0  0  0  0
 64 67  1  0  0  0  0
 67 68  2  0  0  0  0
 67 69  1  0  0  0  0
 69 70  1  0  0  0  0
 69 71  1  0  0  0  0
 71 72  1  0  0  0  0
 71 73  1  0  0  0  0
 71 74  1  0  0  0  0
 74 75  1  0  0  0  0
 74 76  1  0  0  0  0
 74 77  1  0  0  0  0
 77 78  1  0  0  0  0
 78 79  2  0  0  0  0
 78 80  1  0  0  0  0
 80 81  1  0  0  0  0
 80 82  1  0  0  0  0
 80 83  1  0  0  0  0
 83 84  2  0  0  0  0
 83 85  1  0  0  0  0
 85 86  1  0  0  0  0
 85 87  2  0  0  0  0
 87 88  1  0  0  0  0
 87 89  1  0  0  0  0
 89 90  2  0  0  0  0
 89 96  1  0  0  0  0
 90 91  1  0  0  0  0
 90 92  1  0  0  0  0
 92 93  2  0  0  0  0
 92 99  1  0  0  0  0
 93 94  1  0  0  0  0
 93 98  1  0  0  0  0
 94 95  1  0  0  0  0
 94 96  2  0  0  0  0
 96 97  1  0  0  0  0
 99100  1  0  0  0  0
100101  1  0  0  0  0
100102  1  0  0  0  0
100103  1  0  0  0  0
104105  1  0  0  0  0
M  BCL ATM C_TeTeTeTe H_S H_S H_S C_TeTeTeTe C_TeTeTeTe H_S H_S H_S C_TeTeTeTe H_S H_S O_Tr2TrTrPi2 P_TeTeTeTePi O_Tr2Tr2TrPi O_Te2Te2Te2Te O_Tr2TrTrPi2 P_TeTeTeTePi O_Te2Te2TeTe O_Tr2Tr2TrPi O_Tr2TrTrPi2 C_TeTeTeTe H_S H_S C_TeTeTeTe H_S C_TeTeTeTe H_S C_TeTeTeTe H_S C_TeTeTeTe H_S O_Te2Te2TeTe N_TrTrTrPi2 C_TrTrTrPi H_S N_Tr2TrTrPi C_TrTrTrPi C_TrTrTrPi N_Tr2TrTrPi C_TrTrTrPi H_S N_Tr2TrTrPi C_TrTrTrPi N_TrTrTrPi2 H_S H_S O_Te2Te2TeTe H_S O_Tr2TrTrPi2 P_TeTeTeTePi O_Tr2Tr2TrPi O_Te2Te2Te2Te O_Te2Te2Te2Te C_TeTeTeTe H_S C_TrTrTrPi O_Tr2Tr2TrPi N_TrTrTrPi2 H_S C_TeTeTeTe H_S H_S C_TeTeTeTe H_S H_S C_TrTrTrPi O_Tr2Tr2TrPi N_TrTrTrPi2 H_S C_TeTeTeTe H_S H_S C_TeTeTeTe H_S H_S S_Te2Te2TeTe C_TrTrTrPi O_Tr2Tr2TrPi C_TeTeTeTe H_S H_S C_TrTrTrPi O_Tr2Tr2TrPi C_TrTrTrPi H_S C_TrTrTrPi H_S C_TrTrTrPi C_TrTrTrPi H_S C_TrTrTrPi C_TrTrTrPi C_TrTrTrPi H_S C_TrTrTrPi H_S O_Te2Te2Te2Te O_Tr2TrTrPi2 C_TeTeTeTe H_S H_S H_S O_Te2Te2TeTe H_S
M  BCL BND NonConjugatedSingleBond NonConjugatedSingleBond NonConjugatedSingleBond NonConjugatedSingleBond NonConjugatedSingleBond NonConjugatedSingleBond NonConjugatedSingleBond NonConjugatedSingleBond NonConjugatedSingleBond NonConjugatedSingleBond NonConjugatedSingleBond NonConjugatedSingleBond NonConjugatedSingleBond ConjugatedSingleBond ConjugatedDoubleBond ConjugatedSingleBond ConjugatedSingleBond ConjugatedSingleBond ConjugatedSingleBond ConjugatedDoubleBond ConjugatedSingleBond NonConjugatedSingleBond NonConjugatedSingleBond NonConjugatedSingleBond NonConjugatedSingleBond NonConjugatedSingleBond NonConjugatedSingleBondInRing NonConjugatedSingleBondInRing NonConjugatedSingleBond NonConjugatedSingleBondInRing NonConjugatedSingleBond NonConjugatedSingleBond NonConjugatedSingleBondInRing NonConjugatedSingleBond NonConjugatedSingleBond NonConjugatedSingleBondInRing NonConjugatedSingleBond AromaticSingleBond AromaticSingleBond NonConjugatedSingleBond AromaticDoubleBond AromaticSingleBond AromaticSingleBond AromaticDoubleBond AromaticDoubleBond ConjugatedSingleBond AromaticSingleBond NonConjugatedSingleBond AromaticDoubleBond AromaticSingleBond NonConjugatedSingleBond NonConjugatedSingleBond NonConjugatedSingleBond ConjugatedSingleBond ConjugatedDoubleBond ConjugatedSingleBond ConjugatedSingleBond NonConjugatedSingleBond NonConjugatedSingleBond NonConjugatedSingleBond ConjugatedDoubleBond AmideSingleBond NonConjugatedSingleBond NonConjugatedSingleBond NonConjugatedSingleBond NonConjugatedSingleBond NonConjugatedSingleBond NonConjugatedSingleBond NonConjugatedSingleBond NonConjugatedSingleBond ConjugatedDoubleBond AmideSingleBond NonConjugatedSingleBond NonConjugatedSingleBond NonConjugatedSingleBond NonConjugatedSingleBond NonConjugatedSingleBond NonConjugatedSingleBond NonConjugatedSingleBond NonConjugatedSingleBond ConjugatedSingleBond ConjugatedDoubleBond NonConjugatedSingleBond NonConjugatedSingleBond NonConjugatedSingleBond NonConjugatedSingleBond ConjugatedDoubleBond ConjugatedSingleBond NonConjugatedSingleBond ConjugatedDoubleBond NonConjugatedSingleBond ConjugatedSingleBond AromaticDoubleBond AromaticSingleBond NonConjugatedSingleBond AromaticSingleBond AromaticDoubleBond ConjugatedSingleBond AromaticSingleBond ConjugatedSingleBond NonConjugatedSingleBond AromaticDoubleBond NonConjugatedSingleBond NonConjugatedSingleBond NonConjugatedSingleBond NonConjugatedSingleBond NonConjugatedSingleBond NonConjugatedSingleBond
M  BCL CHI  14   R  18   S  25   R  27   R  29   R  31   S  55   R
M  BCL DBI - - - - - - - - - - - E - - -
M  END
> <ConfClashScore>
0.00168324 

> <ConfOneFourInteractionScore>
-0.969547 

> <ConfScore>
0.480688 

> <ConfScorePBest>
0.00541646 

> <ConfTolerance>
3.64165 

$$$$
L03.****
  PyMOL2.5          3D                             0

105108  0  0  0  0  0  0  0  0999 V2000
   -1.3368   -2.2351    5.7183 C   0  0  0  1  0  0  0  0  0  0  0  0
   -0.8209   -1.9150    4.8373 H   0  0  0  1  0  0  0  0  0  0  0  0
   -0.6269   -2.5733    6.4440 H   0  0  0  1  0  0  0  0  0  0  0  0
   -1.8966   -1.4168    6.1207 H   0  0  0  1  0  0  0  0  0  0  0  0
   -2.2912   -3.3819    5.3645 C   0  0  0  1  0  0  0  0  0  0  0  0
   -2.4901   -4.2686    6.5996 C   0  0  0  1  0  0  0  0  0  0  0  0
   -3.5358   -4.3681    6.8032 H   0  0  0  1  0  0  0  0  0  0  0  0
   -2.0041   -3.8213    7.4414 H   0  0  0  1  0  0  0  0  0  0  0  0
   -2.0692   -5.2350    6.4160 H   0  0  0  1  0  0  0  0  0  0  0  0
   -1.7632   -4.1895    4.2480 C   0  0  0  1  0  0  0  0  0  0  0  0
   -0.8249   -4.6163    4.5349 H   0  0  0  1  0  0  0  0  0  0  0  0
   -1.6234   -3.5607    3.3936 H   0  0  0  1  0  0  0  0  0  0  0  0
   -2.6868   -5.2515    3.9119 O   0  0  0  1  0  0  0  0  0  0  0  0
   -2.7800   -5.8887    2.4762 P   0  0  0  1  0  0  0  0  0  0  0  0
   -4.0565   -5.1771    2.2429 O   0  0  0  1  0  0  0  0  0  0  0  0
   -1.2721   -5.4714    2.8964 O   0  5  0  1  0  0  0  0  0  0  0  0
   -2.8756   -6.5392    1.0096 O   0  0  0  1  0  0  0  0  0  0  0  0
   -1.9667   -7.6108    0.2401 P   0  0  0  1  0  0  0  0  0  0  0  0
   -1.9398   -8.9060    0.9605 O   0  0  0  0  0  0  0  0  0  0  0  0
   -0.7689   -6.9375   -0.1616 O   0  0  0  1  0  0  0  0  0  0  0  0
   -2.8228   -7.7364   -1.0742 O   0  0  0  1  0  0  0  0  0  0  0  0
   -2.9262   -6.6297   -2.0010 C   0  0  0  1  0  0  0  0  0  0  0  0
   -3.4652   -6.9465   -2.8693 H   0  0  0  1  0  0  0  0  0  0  0  0
   -1.9437   -6.3154   -2.2854 H   0  0  0  1  0  0  0  0  0  0  0  0
   -3.6549   -5.4678   -1.3579 C   0  0  0  1  0  0  0  0  0  0  0  0
   -4.3565   -5.8393   -0.6405 H   0  0  0  1  0  0  0  0  0  0  0  0
   -4.3732   -4.6733   -2.4083 C   0  0  0  1  0  0  0  0  0  0  0  0
   -5.4225   -4.6605   -2.1993 H   0  0  0  1  0  0  0  0  0  0  0  0
   -3.8326   -3.2746   -2.3834 C   0  0  0  1  0  0  0  0  0  0  0  0
   -4.6202   -2.5849   -2.1621 H   0  0  0  1  0  0  0  0  0  0  0  0
   -2.7794   -3.2040   -1.3170 C   0  0  0  1  0  0  0  0  0  0  0  0
   -3.0573   -2.4801   -0.5796 H   0  0  0  1  0  0  0  0  0  0  0  0
   -2.6698   -4.5598   -0.6834 O   0  0  0  1  0  0  0  0  0  0  0  0
   -1.4970   -2.8286   -1.9104 N   0  0  0  1  0  0  0  0  0  0  0  0
   -0.4414   -3.6530   -2.1945 C   0  0  0  1  0  0  0  0  0  0  0  0
   -0.4579   -4.6748   -2.0015 H   0  0  0  1  0  0  0  0  0  0  0  0
    0.5874   -3.0518   -2.7273 N   0  0  0  1  0  0  0  0  0  0  0  0
    0.1850   -1.7331   -2.7989 C   0  0  0  1  0  0  0  0  0  0  0  0
    0.7989   -0.5709   -3.2728 C   0  0  0  1  0  0  0  0  0  0  0  0
    0.1424    0.5925   -3.2100 N   0  0  0  1  0  0  0  0  0  0  0  0
   -1.1078    0.5815   -2.7003 C   0  0  0  1  0  0  0  0  0  0  0  0
   -1.5923    1.5014   -2.6766 H   0  0  0  1  0  0  0  0  0  0  0  0
   -1.8031   -0.4481   -2.2244 N   0  0  0  1  0  0  0  0  0  0  0  0
   -1.0972   -1.5779   -2.2998 C   0  0  0  1  0  0  0  0  0  0  0  0
    2.0633   -0.6228   -3.7976 N   0  0  0  1  0  0  0  0  0  0  0  0
    2.5221   -1.4842   -3.8862 H   0  0  0  1  0  0  0  0  0  0  0  0
    2.5090    0.2015   -4.0843 H   0  0  0  1  0  0  0  0  0  0  0  0
   -3.2601   -2.9535   -3.6520 O   0  0  0  1  0  0  0  0  0  0  0  0
   -3.9105   -3.0988   -4.3431 H   0  0  0  1  0  0  0  0  0  0  0  0
   -4.1502   -5.2555   -3.6923 O   0  0  0  1  0  0  0  0  0  0  0  0
   -5.0839   -6.3345   -4.5008 P   0  0  0  1  0  0  0  0  0  0  0  0
   -5.2440   -7.6333   -3.8095 O   0  0  0  1  0  0  0  0  0  0  0  0
   -6.5646   -5.7533   -4.8075 O   0  5  0  1  0  0  0  0  0  0  0  0
   -4.4322   -6.5761   -5.9641 O   0  5  0  1  0  0  0  0  0  0  0  0
   -3.6497   -2.7907    4.9722 C   0  0  0  1  0  0  0  0  0  0  0  0
   -3.9551   -2.1145    5.7432 H   0  0  0  1  0  0  0  0  0  0  0  0
   -3.5241   -2.0134    3.6763 C   0  0  0  1  0  0  0  0  0  0  0  0
   -2.4348   -1.6719    3.2459 O   0  0  0  1  0  0  0  0  0  0  0  0
   -4.6780   -1.7343    3.0495 N   0  0  0  1  0  0  0  0  0  0  0  0
   -5.5312   -1.9838    3.4619 H   0  0  0  1  0  0  0  0  0  0  0  0
   -4.6644   -1.0618    1.7590 C   0  0  0  1  0  0  0  0  0  0  0  0
   -5.5675   -1.3019    1.2377 H   0  0  0  1  0  0  0  0  0  0  0  0
   -3.8239   -1.4135    1.1979 H   0  0  0  1  0  0  0  0  0  0  0  0
   -4.5644    0.4523    1.8902 C   0  0  0  1  0  0  0  0  0  0  0  0
   -3.7921    0.6829    2.5941 H   0  0  0  1  0  0  0  0  0  0  0  0
   -5.4999    0.8254    2.2515 H   0  0  0  1  0  0  0  0  0  0  0  0
   -4.2437    1.1424    0.5787 C   0  0  0  1  0  0  0  0  0  0  0  0
   -3.1991    1.7748    0.4287 O   0  0  0  1  0  0  0  0  0  0  0  0
   -5.1662    1.0147   -0.3882 N   0  0  0  1  0  0  0  0  0  0  0  0
   -5.9808    0.5034   -0.2002 H   0  0  0  1  0  0  0  0  0  0  0  0
   -4.9986    1.6092   -1.7059 C   0  0  0  1  0  0  0  0  0  0  0  0
   -5.6490    1.1003   -2.3863 H   0  0  0  1  0  0  0  0  0  0  0  0
   -3.9824    1.4666   -2.0090 H   0  0  0  1  0  0  0  0  0  0  0  0
   -5.3078    3.0877   -1.7757 C   0  0  0  1  0  0  0  0  0  0  0  0
   -5.3220    3.4042   -2.7977 H   0  0  0  1  0  0  0  0  0  0  0  0
   -4.5604    3.6369   -1.2420 H   0  0  0  1  0  0  0  0  0  0  0  0
   -6.9241    3.3790   -1.0279 S   0  0  0  1  0  0  0  0  0  0  0  0
   -6.9724    5.1168   -0.9181 C   0  0  0  1  0  0  0  0  0  0  0  0
   -7.2373    5.8478   -1.8588 O   0  0  0  1  0  0  0  0  0  0  0  0
   -6.7951    5.6657    0.4773 C   0  0  0  1  0  0  0  0  0  0  0  0
   -7.7093    5.4992    1.0077 H   0  0  0  1  0  0  0  0  0  0  0  0
   -6.6194    6.7176    0.3900 H   0  0  0  1  0  0  0  0  0  0  0  0
   -5.6771    5.0859    1.3061 C   0  0  0  1  0  0  0  0  0  0  0  0
   -4.9008    4.2812    0.8181 O   0  0  0  1  0  0  0  0  0  0  0  0
   -5.5404    5.5024    2.6971 C   0  0  0  1  0  0  0  0  0  0  0  0
   -4.7365    5.1410    3.2490 H   0  0  0  1  0  0  0  0  0  0  0  0
   -6.4031    6.3269    3.2899 C   0  0  0  1  0  0  0  0  0  0  0  0
   -7.1986    6.6747    2.7173 H   0  0  0  1  0  0  0  0  0  0  0  0
   -6.3261    6.7906    4.6947 C   0  0  0  1  0  0  0  0  0  0  0  0
   -5.0906    7.0199    5.2700 C   0  0  0  1  0  0  0  0  0  0  0  0
   -4.2229    6.8630    4.7184 H   0  0  0  1  0  0  0  0  0  0  0  0
   -5.0079    7.4590    6.5821 C   0  0  0  1  0  0  0  0  0  0  0  0
   -6.1607    7.6624    7.3169 C   0  0  0  1  0  0  0  0  0  0  0  0
   -7.3999    7.4324    6.7398 C   0  0  0  1  0  0  0  0  0  0  0  0
   -8.2676    7.5893    7.2913 H   0  0  0  1  0  0  0  0  0  0  0  0
   -7.4825    6.9945    5.4314 C   0  0  0  1  0  0  0  0  0  0  0  0
   -8.4121    6.8181    4.9997 H   0  0  0  1  0  0  0  0  0  0  0  0
   -6.0804    7.9973    8.6326 O   0  5  0  1  0  0  0  0  0  0  0  0
   -3.8585    7.7212    7.2485 O   0  0  0  1  0  0  0  0  0  0  0  0
   -3.6790    7.0843    8.5231 C   0  0  0  1  0  0  0  0  0  0  0  0
   -2.6628    7.1970    8.8387 H   0  0  0  1  0  0  0  0  0  0  0  0
   -3.9123    6.0435    8.4374 H   0  0  0  1  0  0  0  0  0  0  0  0
   -4.3281    7.5378    9.2427 H   0  0  0  1  0  0  0  0  0  0  0  0
   -4.6333   -3.8004    4.8040 O   0  0  0  1  0  0  0  0  0  0  0  0
   -5.3994   -3.4305    4.3592 H   0  0  0  1  0  0  0  0  0  0  0  0
  1  2  1  0  0  0  0
  1  3  1  0  0  0  0
  1  4  1  0  0  0  0
  1  5  1  0  0  0  0
  5  6  1  0  0  0  0
  5 10  1  0  0  0  0
  5 55  1  0  0  0  0
  6  7  1  0  0  0  0
  6  8  1  0  0  0  0
  6  9  1  0  0  0  0
 10 11  1  0  0  0  0
 10 12  1  0  0  0  0
 10 13  1  0  0  0  0
 13 14  1  0  0  0  0
 14 15  2  0  0  0  0
 14 16  1  0  0  0  0
 14 17  1  0  0  0  0
 17 18  1  0  0  0  0
 18 19  1  0  0  0  0
 18 20  2  0  0  0  0
 18 21  1  0  0  0  0
 21 22  1  0  0  0  0
 22 23  1  0  0  0  0
 22 24  1  0  0  0  0
 22 25  1  0  0  0  0
 25 26  1  0  0  0  0
 25 27  1  0  0  0  0
 25 33  1  0  0  0  0
 27 28  1  0  0  0  0
 27 29  1  0  0  0  0
 27 50  1  0  0  0  0
 29 30  1  0  0  0  0
 29 31  1  0  0  0  0
 29 48  1  0  0  0  0
 31 32  1  0  0  0  0
 31 33  1  0  0  0  0
 31 34  1  0  0  0  0
 34 35  1  0  0  0  0
 34 44  1  0  0  0  0
 35 36  1  0  0  0  0
 35 37  2  0  0  0  0
 37 38  1  0  0  0  0
 38 39  1  0  0  0  0
 38 44  2  0  0  0  0
 39 40  2  0  0  0  0
 39 45  1  0  0  0  0
 40 41  1  0  0  0  0
 41 42  1  0  0  0  0
 41 43  2  0  0  0  0
 43 44  1  0  0  0  0
 45 46  1  0  0  0  0
 45 47  1  0  0  0  0
 48 49  1  0  0  0  0
 50 51  1  0  0  0  0
 51 52  2  0  0  0  0
 51 53  1  0  0  0  0
 51 54  1  0  0  0  0
 55 56  1  0  0  0  0
 55 57  1  0  0  0  0
 55104  1  0  0  0  0
 57 58  2  0  0  0  0
 57 59  1  0  0  0  0
 59 60  1  0  0  0  0
 59 61  1  0  0  0  0
 61 62  1  0  0  0  0
 61 63  1  0  0  0  0
 61 64  1  0  0  0  0
 64 65  1  0  0  0  0
 64 66  1  0  0  0  0
 64 67  1  0  0  0  0
 67 68  2  0  0  0  0
 67 69  1  0  0  0  0
 69 70  1  0  0  0  0
 69 71  1  0  0  0  0
 71 72  1  0  0  0  0
 71 73  1  0  0  0  0
 71 74  1  0  0  0  0
 74 75  1  0  0  0  0
 74 76  1  0  0  0  0
 74 77  1  0  0  0  0
 77 78  1  0  0  0  0
 78 79  2  0  0  0  0
 78 80  1  0  0  0  0
 80 81  1  0  0  0  0
 80 82  1  0  0  0  0
 80 83  1  0  0  0  0
 83 84  2  0  0  0  0
 83 85  1  0  0  0  0
 85 86  1  0  0  0  0
 85 87  2  0  0  0  0
 87 88  1  0  0  0  0
 87 89  1  0  0  0  0
 89 90  2  0  0  0  0
 89 96  1  0  0  0  0
 90 91  1  0  0  0  0
 90 92  1  0  0  0  0
 92 93  2  0  0  0  0
 92 99  1  0  0  0  0
 93 94  1  0  0  0  0
 93 98  1  0  0  0  0
 94 95  1  0  0  0  0
 94 96  2  0  0  0  0
 96 97  1  0  0  0  0
 99100  1  0  0  0  0
100101  1  0  0  0  0
100102  1  0  0  0  0
100103  1  0  0  0  0
104105  1  0  0  0  0
M  BCL ATM C_TeTeTeTe H_S H_S H_S C_TeTeTeTe C_TeTeTeTe H_S H_S H_S C_TeTeTeTe H_S H_S O_Tr2TrTrPi2 P_TeTeTeTePi O_Tr2Tr2TrPi O_Te2Te2Te2Te O_Tr2TrTrPi2 P_TeTeTeTePi O_Te2Te2TeTe O_Tr2Tr2TrPi O_Tr2TrTrPi2 C_TeTeTeTe H_S H_S C_TeTeTeTe H_S C_TeTeTeTe H_S C_TeTeTeTe H_S C_TeTeTeTe H_S O_Te2Te2TeTe N_TrTrTrPi2 C_TrTrTrPi H_S N_Tr2TrTrPi C_TrTrTrPi C_TrTrTrPi N_Tr2TrTrPi C_TrTrTrPi H_S N_Tr2TrTrPi C_TrTrTrPi N_TrTrTrPi2 H_S H_S O_Te2Te2TeTe H_S O_Tr2TrTrPi2 P_TeTeTeTePi O_Tr2Tr2TrPi O_Te2Te2Te2Te O_Te2Te2Te2Te C_TeTeTeTe H_S C_TrTrTrPi O_Tr2Tr2TrPi N_TrTrTrPi2 H_S C_TeTeTeTe H_S H_S C_TeTeTeTe H_S H_S C_TrTrTrPi O_Tr2Tr2TrPi N_TrTrTrPi2 H_S C_TeTeTeTe H_S H_S C_TeTeTeTe H_S H_S S_Te2Te2TeTe C_TrTrTrPi O_Tr2Tr2TrPi C_TeTeTeTe H_S H_S C_TrTrTrPi O_Tr2Tr2TrPi C_TrTrTrPi H_S C_TrTrTrPi H_S C_TrTrTrPi C_TrTrTrPi H_S C_TrTrTrPi C_TrTrTrPi C_TrTrTrPi H_S C_TrTrTrPi H_S O_Te2Te2Te2Te O_Tr2TrTrPi2 C_TeTeTeTe H_S H_S H_S O_Te2Te2TeTe H_S
M  BCL BND NonConjugatedSingleBond NonConjugatedSingleBond NonConjugatedSingleBond NonConjugatedSingleBond NonConjugatedSingleBond NonConjugatedSingleBond NonConjugatedSingleBond NonConjugatedSingleBond NonConjugatedSingleBond NonConjugatedSingleBond NonConjugatedSingleBond NonConjugatedSingleBond NonConjugatedSingleBond ConjugatedSingleBond ConjugatedDoubleBond ConjugatedSingleBond ConjugatedSingleBond ConjugatedSingleBond ConjugatedSingleBond ConjugatedDoubleBond ConjugatedSingleBond NonConjugatedSingleBond NonConjugatedSingleBond NonConjugatedSingleBond NonConjugatedSingleBond NonConjugatedSingleBond NonConjugatedSingleBondInRing NonConjugatedSingleBondInRing NonConjugatedSingleBond NonConjugatedSingleBondInRing NonConjugatedSingleBond NonConjugatedSingleBond NonConjugatedSingleBondInRing NonConjugatedSingleBond NonConjugatedSingleBond NonConjugatedSingleBondInRing NonConjugatedSingleBond AromaticSingleBond AromaticSingleBond NonConjugatedSingleBond AromaticDoubleBond AromaticSingleBond AromaticSingleBond AromaticDoubleBond AromaticDoubleBond ConjugatedSingleBond AromaticSingleBond NonConjugatedSingleBond AromaticDoubleBond AromaticSingleBond NonConjugatedSingleBond NonConjugatedSingleBond NonConjugatedSingleBond ConjugatedSingleBond ConjugatedDoubleBond ConjugatedSingleBond ConjugatedSingleBond NonConjugatedSingleBond NonConjugatedSingleBond NonConjugatedSingleBond ConjugatedDoubleBond AmideSingleBond NonConjugatedSingleBond NonConjugatedSingleBond NonConjugatedSingleBond NonConjugatedSingleBond NonConjugatedSingleBond NonConjugatedSingleBond NonConjugatedSingleBond NonConjugatedSingleBond ConjugatedDoubleBond AmideSingleBond NonConjugatedSingleBond NonConjugatedSingleBond NonConjugatedSingleBond NonConjugatedSingleBond NonConjugatedSingleBond NonConjugatedSingleBond NonConjugatedSingleBond NonConjugatedSingleBond ConjugatedSingleBond ConjugatedDoubleBond NonConjugatedSingleBond NonConjugatedSingleBond NonConjugatedSingleBond NonConjugatedSingleBond ConjugatedDoubleBond ConjugatedSingleBond NonConjugatedSingleBond ConjugatedDoubleBond NonConjugatedSingleBond ConjugatedSingleBond AromaticDoubleBond AromaticSingleBond NonConjugatedSingleBond AromaticSingleBond AromaticDoubleBond ConjugatedSingleBond AromaticSingleBond ConjugatedSingleBond NonConjugatedSingleBond AromaticDoubleBond NonConjugatedSingleBond NonConjugatedSingleBond NonConjugatedSingleBond NonConjugatedSingleBond NonConjugatedSingleBond NonConjugatedSingleBond
M  BCL CHI  14   R  18   S  25   R  27   R  29   R  31   S  55   R
M  BCL DBI - - - - - - - - - - - E - - -
M  END
> <ConfClashScore>
0.0019872 

> <ConfOneFourInteractionScore>
-0.966132 

> <ConfScore>
0.59337 

> <ConfScorePBest>
0.00531345 

> <ConfTolerance>
3.95765 

$$$$
L03.****
  PyMOL2.5          3D                             0

105108  0  0  0  0  0  0  0  0999 V2000
   -2.2445   -5.2528    5.6970 C   0  0  0  1  0  0  0  0  0  0  0  0
   -2.6020   -5.5051    4.7206 H   0  0  0  1  0  0  0  0  0  0  0  0
   -2.7312   -4.3621    6.0357 H   0  0  0  1  0  0  0  0  0  0  0  0
   -2.4570   -6.0548    6.3727 H   0  0  0  1  0  0  0  0  0  0  0  0
   -0.7302   -5.0182    5.6428 C   0  0  0  1  0  0  0  0  0  0  0  0
   -0.4425   -3.5385    5.3617 C   0  0  0  1  0  0  0  0  0  0  0  0
    0.4863   -3.2627    5.8158 H   0  0  0  1  0  0  0  0  0  0  0  0
   -1.2299   -2.9388    5.7681 H   0  0  0  1  0  0  0  0  0  0  0  0
   -0.3830   -3.3815    4.3050 H   0  0  0  1  0  0  0  0  0  0  0  0
   -0.1370   -5.8569    4.5590 C   0  0  0  1  0  0  0  0  0  0  0  0
   -0.6133   -6.8148    4.5375 H   0  0  0  1  0  0  0  0  0  0  0  0
    0.9118   -5.9833    4.7287 H   0  0  0  1  0  0  0  0  0  0  0  0
   -0.3543   -5.1689    3.3010 O   0  0  0  1  0  0  0  0  0  0  0  0
    0.0350   -5.9648    2.0005 P   0  0  0  1  0  0  0  0  0  0  0  0
    1.4635   -5.8860    2.3795 O   0  0  0  1  0  0  0  0  0  0  0  0
   -1.3281   -6.4977    2.6950 O   0  5  0  1  0  0  0  0  0  0  0  0
    0.4330   -6.7774    0.6729 O   0  0  0  1  0  0  0  0  0  0  0  0
   -0.4093   -7.2798   -0.5586 P   0  0  0  1  0  0  0  0  0  0  0  0
   -1.0674   -8.5893   -0.2164 O   0  0  0  0  0  0  0  0  0  0  0  0
    0.5107   -7.2536   -1.7268 O   0  0  0  1  0  0  0  0  0  0  0  0
   -1.5348   -6.1845   -0.6567 O   0  0  0  1  0  0  0  0  0  0  0  0
   -2.7713   -6.3194    0.0908 C   0  0  0  1  0  0  0  0  0  0  0  0
   -2.5558   -6.5526    1.1126 H   0  0  0  1  0  0  0  0  0  0  0  0
   -3.3710   -7.0970   -0.3342 H   0  0  0  1  0  0  0  0  0  0  0  0
   -3.5049   -4.9991    0.0072 C   0  0  0  1  0  0  0  0  0  0  0  0
   -4.1096   -4.8706    0.8806 H   0  0  0  1  0  0  0  0  0  0  0  0
   -4.3858   -4.9552   -1.2657 C   0  0  0  1  0  0  0  0  0  0  0  0
   -5.3189   -4.4688   -1.0719 H   0  0  0  1  0  0  0  0  0  0  0  0
   -3.5387   -4.1474   -2.2332 C   0  0  0  1  0  0  0  0  0  0  0  0
   -4.1514   -3.6000   -2.9186 H   0  0  0  1  0  0  0  0  0  0  0  0
   -2.7714   -3.2003   -1.2971 C   0  0  0  1  0  0  0  0  0  0  0  0
   -3.3475   -2.3194   -1.1052 H   0  0  0  1  0  0  0  0  0  0  0  0
   -2.5666   -3.9151   -0.1126 O   0  0  0  1  0  0  0  0  0  0  0  0
   -1.4896   -2.8252   -1.8926 N   0  0  0  1  0  0  0  0  0  0  0  0
   -0.4275   -3.6465   -2.1611 C   0  0  0  1  0  0  0  0  0  0  0  0
   -0.4376   -4.6653   -1.9526 H   0  0  0  1  0  0  0  0  0  0  0  0
    0.5986   -3.0464   -2.7000 N   0  0  0  1  0  0  0  0  0  0  0  0
    0.1875   -1.7318   -2.7929 C   0  0  0  1  0  0  0  0  0  0  0  0
    0.7948   -0.5728   -3.2827 C   0  0  0  1  0  0  0  0  0  0  0  0
    0.1302    0.5870   -3.2395 N   0  0  0  1  0  0  0  0  0  0  0  0
   -1.1214    0.5751   -2.7333 C   0  0  0  1  0  0  0  0  0  0  0  0
   -1.6123    1.4919   -2.7250 H   0  0  0  1  0  0  0  0  0  0  0  0
   -1.8111   -0.4519   -2.2438 N   0  0  0  1  0  0  0  0  0  0  0  0
   -1.0972   -1.5778   -2.2999 C   0  0  0  1  0  0  0  0  0  0  0  0
    2.0610   -0.6239   -3.8030 N   0  0  0  1  0  0  0  0  0  0  0  0
    2.6927   -1.3042   -3.4890 H   0  0  0  1  0  0  0  0  0  0  0  0
    2.3352    0.0198   -4.4892 H   0  0  0  1  0  0  0  0  0  0  0  0
   -2.6432   -4.9897   -2.9617 O   0  0  0  1  0  0  0  0  0  0  0  0
   -3.0183   -5.8705   -3.0329 H   0  0  0  1  0  0  0  0  0  0  0  0
   -4.6326   -6.2907   -1.7768 O   0  0  0  1  0  0  0  0  0  0  0  0
   -5.9988   -6.7037   -2.5847 P   0  0  0  1  0  0  0  0  0  0  0  0
   -6.4908   -5.5964   -3.4346 O   0  0  0  1  0  0  0  0  0  0  0  0
   -5.7547   -8.0514   -3.4498 O   0  5  0  1  0  0  0  0  0  0  0  0
   -7.0167   -6.9707   -1.3530 O   0  5  0  1  0  0  0  0  0  0  0  0
   -0.1041   -5.4131    6.9856 C   0  0  0  1  0  0  0  0  0  0  0  0
    0.9580   -5.3466    6.8742 H   0  0  0  1  0  0  0  0  0  0  0  0
   -0.5022   -4.4913    8.1292 C   0  0  0  1  0  0  0  0  0  0  0  0
   -0.5769   -3.2768    7.9625 O   0  0  0  1  0  0  0  0  0  0  0  0
   -0.7673   -5.0425    9.3170 N   0  0  0  1  0  0  0  0  0  0  0  0
   -0.7302   -6.0178    9.4047 H   0  0  0  1  0  0  0  0  0  0  0  0
   -1.1093   -4.2448   10.4852 C   0  0  0  1  0  0  0  0  0  0  0  0
   -0.7847   -3.2387   10.3203 H   0  0  0  1  0  0  0  0  0  0  0  0
   -0.6023   -4.6487   11.3365 H   0  0  0  1  0  0  0  0  0  0  0  0
   -2.6058   -4.2347   10.7679 C   0  0  0  1  0  0  0  0  0  0  0  0
   -3.0711   -3.5266   10.1144 H   0  0  0  1  0  0  0  0  0  0  0  0
   -2.7585   -3.9367   11.7842 H   0  0  0  1  0  0  0  0  0  0  0  0
   -3.2558   -5.5800   10.5592 C   0  0  0  1  0  0  0  0  0  0  0  0
   -3.4009   -6.3689   11.4893 O   0  0  0  1  0  0  0  0  0  0  0  0
   -3.6543   -5.8449    9.3118 N   0  0  0  1  0  0  0  0  0  0  0  0
   -3.9676   -6.7392    9.0620 H   0  0  0  1  0  0  0  0  0  0  0  0
   -3.6098   -4.7675    8.3345 C   0  0  0  1  0  0  0  0  0  0  0  0
   -3.5786   -5.1950    7.3541 H   0  0  0  1  0  0  0  0  0  0  0  0
   -2.7245   -4.1901    8.5008 H   0  0  0  1  0  0  0  0  0  0  0  0
   -4.8069   -3.8539    8.4255 C   0  0  0  1  0  0  0  0  0  0  0  0
   -4.7687   -3.3507    9.3691 H   0  0  0  1  0  0  0  0  0  0  0  0
   -5.6890   -4.4578    8.3782 H   0  0  0  1  0  0  0  0  0  0  0  0
   -4.9161   -2.6004    7.1264 S   0  0  0  1  0  0  0  0  0  0  0  0
   -5.3796   -3.5669    5.7081 C   0  0  0  1  0  0  0  0  0  0  0  0
   -5.5354   -4.7577    5.7392 O   0  0  0  1  0  0  0  0  0  0  0  0
   -5.5526   -2.7207    4.4709 C   0  0  0  1  0  0  0  0  0  0  0  0
   -5.9313   -3.3371    3.6824 H   0  0  0  1  0  0  0  0  0  0  0  0
   -4.5995   -2.3249    4.1884 H   0  0  0  1  0  0  0  0  0  0  0  0
   -6.5083   -1.5740    4.6925 C   0  0  0  1  0  0  0  0  0  0  0  0
   -6.1853   -0.4370    4.3971 O   0  0  0  1  0  0  0  0  0  0  0  0
   -7.8207   -1.8497    5.2645 C   0  0  0  1  0  0  0  0  0  0  0  0
   -8.4564   -1.0394    5.4084 H   0  0  0  1  0  0  0  0  0  0  0  0
   -8.2753   -3.0511    5.6187 C   0  0  0  1  0  0  0  0  0  0  0  0
   -7.6256   -3.8489    5.4674 H   0  0  0  1  0  0  0  0  0  0  0  0
   -9.5937   -3.3866    6.2016 C   0  0  0  1  0  0  0  0  0  0  0  0
  -10.5890   -2.4381    6.3426 C   0  0  0  1  0  0  0  0  0  0  0  0
  -10.4200   -1.4578    6.0391 H   0  0  0  1  0  0  0  0  0  0  0  0
  -11.8126   -2.7935    6.8885 C   0  0  0  1  0  0  0  0  0  0  0  0
  -12.0355   -4.0950    7.2968 C   0  0  0  1  0  0  0  0  0  0  0  0
  -11.0371   -5.0462    7.1554 C   0  0  0  1  0  0  0  0  0  0  0  0
  -11.2061   -6.0265    7.4589 H   0  0  0  1  0  0  0  0  0  0  0  0
   -9.8170   -4.6920    6.6110 C   0  0  0  1  0  0  0  0  0  0  0  0
   -9.0666   -5.4048    6.5086 H   0  0  0  1  0  0  0  0  0  0  0  0
  -13.2689   -4.3253    7.8214 O   0  5  0  1  0  0  0  0  0  0  0  0
  -12.8608   -1.9558    7.0711 O   0  0  0  1  0  0  0  0  0  0  0  0
  -13.7782   -1.8045    5.9766 C   0  0  0  1  0  0  0  0  0  0  0  0
  -13.2693   -1.9956    5.0549 H   0  0  0  1  0  0  0  0  0  0  0  0
  -14.1642   -0.8066    5.9703 H   0  0  0  1  0  0  0  0  0  0  0  0
  -14.5847   -2.4987    6.0890 H   0  0  0  1  0  0  0  0  0  0  0  0
   -0.4512   -6.7788    7.2518 O   0  0  0  1  0  0  0  0  0  0  0  0
    0.1716   -7.3598    6.8090 H   0  0  0  1  0  0  0  0  0  0  0  0
  1  2  1  0  0  0  0
  1  3  1  0  0  0  0
  1  4  1  0  0  0  0
  1  5  1  0  0  0  0
  5  6  1  0  0  0  0
  5 10  1  0  0  0  0
  5 55  1  0  0  0  0
  6  7  1  0  0  0  0
  6  8  1  0  0  0  0
  6  9  1  0  0  0  0
 10 11  1  0  0  0  0
 10 12  1  0  0  0  0
 10 13  1  0  0  0  0
 13 14  1  0  0  0  0
 14 15  2  0  0  0  0
 14 16  1  0  0  0  0
 14 17  1  0  0  0  0
 17 18  1  0  0  0  0
 18 19  1  0  0  0  0
 18 20  2  0  0  0  0
 18 21  1  0  0  0  0
 21 22  1  0  0  0  0
 22 23  1  0  0  0  0
 22 24  1  0  0  0  0
 22 25  1  0  0  0  0
 25 26  1  0  0  0  0
 25 27  1  0  0  0  0
 25 33  1  0  0  0  0
 27 28  1  0  0  0  0
 27 29  1  0  0  0  0
 27 50  1  0  0  0  0
 29 30  1  0  0  0  0
 29 31  1  0  0  0  0
 29 48  1  0  0  0  0
 31 32  1  0  0  0  0
 31 33  1  0  0  0  0
 31 34  1  0  0  0  0
 34 35  1  0  0  0  0
 34 44  1  0  0  0  0
 35 36  1  0  0  0  0
 35 37  2  0  0  0  0
 37 38  1  0  0  0  0
 38 39  1  0  0  0  0
 38 44  2  0  0  0  0
 39 40  2  0  0  0  0
 39 45  1  0  0  0  0
 40 41  1  0  0  0  0
 41 42  1  0  0  0  0
 41 43  2  0  0  0  0
 43 44  1  0  0  0  0
 45 46  1  0  0  0  0
 45 47  1  0  0  0  0
 48 49  1  0  0  0  0
 50 51  1  0  0  0  0
 51 52  2  0  0  0  0
 51 53  1  0  0  0  0
 51 54  1  0  0  0  0
 55 56  1  0  0  0  0
 55 57  1  0  0  0  0
 55104  1  0  0  0  0
 57 58  2  0  0  0  0
 57 59  1  0  0  0  0
 59 60  1  0  0  0  0
 59 61  1  0  0  0  0
 61 62  1  0  0  0  0
 61 63  1  0  0  0  0
 61 64  1  0  0  0  0
 64 65  1  0  0  0  0
 64 66  1  0  0  0  0
 64 67  1  0  0  0  0
 67 68  2  0  0  0  0
 67 69  1  0  0  0  0
 69 70  1  0  0  0  0
 69 71  1  0  0  0  0
 71 72  1  0  0  0  0
 71 73  1  0  0  0  0
 71 74  1  0  0  0  0
 74 75  1  0  0  0  0
 74 76  1  0  0  0  0
 74 77  1  0  0  0  0
 77 78  1  0  0  0  0
 78 79  2  0  0  0  0
 78 80  1  0  0  0  0
 80 81  1  0  0  0  0
 80 82  1  0  0  0  0
 80 83  1  0  0  0  0
 83 84  2  0  0  0  0
 83 85  1  0  0  0  0
 85 86  1  0  0  0  0
 85 87  2  0  0  0  0
 87 88  1  0  0  0  0
 87 89  1  0  0  0  0
 89 90  2  0  0  0  0
 89 96  1  0  0  0  0
 90 91  1  0  0  0  0
 90 92  1  0  0  0  0
 92 93  2  0  0  0  0
 92 99  1  0  0  0  0
 93 94  1  0  0  0  0
 93 98  1  0  0  0  0
 94 95  1  0  0  0  0
 94 96  2  0  0  0  0
 96 97  1  0  0  0  0
 99100  1  0  0  0  0
100101  1  0  0  0  0
100102  1  0  0  0  0
100103  1  0  0  0  0
104105  1  0  0  0  0
M  BCL ATM C_TeTeTeTe H_S H_S H_S C_TeTeTeTe C_TeTeTeTe H_S H_S H_S C_TeTeTeTe H_S H_S O_Tr2TrTrPi2 P_TeTeTeTePi O_Tr2Tr2TrPi O_Te2Te2Te2Te O_Tr2TrTrPi2 P_TeTeTeTePi O_Te2Te2TeTe O_Tr2Tr2TrPi O_Tr2TrTrPi2 C_TeTeTeTe H_S H_S C_TeTeTeTe H_S C_TeTeTeTe H_S C_TeTeTeTe H_S C_TeTeTeTe H_S O_Te2Te2TeTe N_TrTrTrPi2 C_TrTrTrPi H_S N_Tr2TrTrPi C_TrTrTrPi C_TrTrTrPi N_Tr2TrTrPi C_TrTrTrPi H_S N_Tr2TrTrPi C_TrTrTrPi N_TrTrTrPi2 H_S H_S O_Te2Te2TeTe H_S O_Tr2TrTrPi2 P_TeTeTeTePi O_Tr2Tr2TrPi O_Te2Te2Te2Te O_Te2Te2Te2Te C_TeTeTeTe H_S C_TrTrTrPi O_Tr2Tr2TrPi N_TrTrTrPi2 H_S C_TeTeTeTe H_S H_S C_TeTeTeTe H_S H_S C_TrTrTrPi O_Tr2Tr2TrPi N_TrTrTrPi2 H_S C_TeTeTeTe H_S H_S C_TeTeTeTe H_S H_S S_Te2Te2TeTe C_TrTrTrPi O_Tr2Tr2TrPi C_TeTeTeTe H_S H_S C_TrTrTrPi O_Tr2Tr2TrPi C_TrTrTrPi H_S C_TrTrTrPi H_S C_TrTrTrPi C_TrTrTrPi H_S C_TrTrTrPi C_TrTrTrPi C_TrTrTrPi H_S C_TrTrTrPi H_S O_Te2Te2Te2Te O_Tr2TrTrPi2 C_TeTeTeTe H_S H_S H_S O_Te2Te2TeTe H_S
M  BCL BND NonConjugatedSingleBond NonConjugatedSingleBond NonConjugatedSingleBond NonConjugatedSingleBond NonConjugatedSingleBond NonConjugatedSingleBond NonConjugatedSingleBond NonConjugatedSingleBond NonConjugatedSingleBond NonConjugatedSingleBond NonConjugatedSingleBond NonConjugatedSingleBond NonConjugatedSingleBond ConjugatedSingleBond ConjugatedDoubleBond ConjugatedSingleBond ConjugatedSingleBond ConjugatedSingleBond ConjugatedSingleBond ConjugatedDoubleBond ConjugatedSingleBond NonConjugatedSingleBond NonConjugatedSingleBond NonConjugatedSingleBond NonConjugatedSingleBond NonConjugatedSingleBond NonConjugatedSingleBondInRing NonConjugatedSingleBondInRing NonConjugatedSingleBond NonConjugatedSingleBondInRing NonConjugatedSingleBond NonConjugatedSingleBond NonConjugatedSingleBondInRing NonConjugatedSingleBond NonConjugatedSingleBond NonConjugatedSingleBondInRing NonConjugatedSingleBond AromaticSingleBond AromaticSingleBond NonConjugatedSingleBond AromaticDoubleBond AromaticSingleBond AromaticSingleBond AromaticDoubleBond AromaticDoubleBond ConjugatedSingleBond AromaticSingleBond NonConjugatedSingleBond AromaticDoubleBond AromaticSingleBond NonConjugatedSingleBond NonConjugatedSingleBond NonConjugatedSingleBond ConjugatedSingleBond ConjugatedDoubleBond ConjugatedSingleBond ConjugatedSingleBond NonConjugatedSingleBond NonConjugatedSingleBond NonConjugatedSingleBond ConjugatedDoubleBond AmideSingleBond NonConjugatedSingleBond NonConjugatedSingleBond NonConjugatedSingleBond NonConjugatedSingleBond NonConjugatedSingleBond NonConjugatedSingleBond NonConjugatedSingleBond NonConjugatedSingleBond ConjugatedDoubleBond AmideSingleBond NonConjugatedSingleBond NonConjugatedSingleBond NonConjugatedSingleBond NonConjugatedSingleBond NonConjugatedSingleBond NonConjugatedSingleBond NonConjugatedSingleBond NonConjugatedSingleBond ConjugatedSingleBond ConjugatedDoubleBond NonConjugatedSingleBond NonConjugatedSingleBond NonConjugatedSingleBond NonConjugatedSingleBond ConjugatedDoubleBond ConjugatedSingleBond NonConjugatedSingleBond ConjugatedDoubleBond NonConjugatedSingleBond ConjugatedSingleBond AromaticDoubleBond AromaticSingleBond NonConjugatedSingleBond AromaticSingleBond AromaticDoubleBond ConjugatedSingleBond AromaticSingleBond ConjugatedSingleBond NonConjugatedSingleBond AromaticDoubleBond NonConjugatedSingleBond NonConjugatedSingleBond NonConjugatedSingleBond NonConjugatedSingleBond NonConjugatedSingleBond NonConjugatedSingleBond
M  BCL CHI  14   R  18   S  25   R  27   R  29   R  31   S  55   R
M  BCL DBI - - - - - - - - - - - E - - -
M  END
> <ConfClashScore>
0.00167859 

> <ConfOneFourInteractionScore>
-0.972561 

> <ConfScore>
0.612366 

> <ConfScorePBest>
0.00521045 

> <ConfTolerance>
3.91259 

$$$$
L03.****
  PyMOL2.5          3D                             0

105108  0  0  0  0  0  0  0  0999 V2000
    3.5405   -8.2650   -4.1037 C   0  0  0  1  0  0  0  0  0  0  0  0
    3.8556   -8.2323   -3.0816 H   0  0  0  1  0  0  0  0  0  0  0  0
    4.0538   -9.0558   -4.6098 H   0  0  0  1  0  0  0  0  0  0  0  0
    2.4856   -8.4393   -4.1460 H   0  0  0  1  0  0  0  0  0  0  0  0
    3.8651   -6.9289   -4.7823 C   0  0  0  1  0  0  0  0  0  0  0  0
    5.3121   -6.5379   -4.4588 C   0  0  0  1  0  0  0  0  0  0  0  0
    5.5279   -6.7797   -3.4390 H   0  0  0  1  0  0  0  0  0  0  0  0
    5.4396   -5.4864   -4.6104 H   0  0  0  1  0  0  0  0  0  0  0  0
    5.9785   -7.0748   -5.1011 H   0  0  0  1  0  0  0  0  0  0  0  0
    2.9685   -5.8928   -4.2344 C   0  0  0  1  0  0  0  0  0  0  0  0
    3.3269   -4.9273   -4.5247 H   0  0  0  1  0  0  0  0  0  0  0  0
    2.9588   -5.9640   -3.1668 H   0  0  0  1  0  0  0  0  0  0  0  0
    1.6232   -6.0723   -4.7362 O   0  0  0  1  0  0  0  0  0  0  0  0
    0.4586   -6.5233   -3.7788 P   0  0  0  1  0  0  0  0  0  0  0  0
    1.0334   -5.7002   -2.6913 O   0  0  0  1  0  0  0  0  0  0  0  0
   -0.0265   -6.2675   -5.3032 O   0  5  0  1  0  0  0  0  0  0  0  0
   -0.7306   -6.9836   -2.8006 O   0  0  0  1  0  0  0  0  0  0  0  0
   -0.8111   -7.6514   -1.3419 P   0  0  0  1  0  0  0  0  0  0  0  0
    0.5055   -7.5012   -0.6593 O   0  0  0  0  0  0  0  0  0  0  0  0
   -1.4300   -8.9882   -1.4993 O   0  0  0  1  0  0  0  0  0  0  0  0
   -1.8559   -6.7427   -0.6015 O   0  0  0  1  0  0  0  0  0  0  0  0
   -3.2242   -6.5865   -1.0456 C   0  0  0  1  0  0  0  0  0  0  0  0
   -3.8345   -7.3573   -0.6234 H   0  0  0  1  0  0  0  0  0  0  0  0
   -3.2691   -6.6399   -2.1133 H   0  0  0  1  0  0  0  0  0  0  0  0
   -3.7089   -5.2279   -0.5753 C   0  0  0  1  0  0  0  0  0  0  0  0
   -4.2038   -5.3320    0.3676 H   0  0  0  1  0  0  0  0  0  0  0  0
   -4.6711   -4.6110   -1.6203 C   0  0  0  1  0  0  0  0  0  0  0  0
   -5.4794   -4.0970   -1.1436 H   0  0  0  1  0  0  0  0  0  0  0  0
   -3.7750   -3.6428   -2.3723 C   0  0  0  1  0  0  0  0  0  0  0  0
   -4.3326   -2.8068   -2.7400 H   0  0  0  1  0  0  0  0  0  0  0  0
   -2.7707   -3.2081   -1.2932 C   0  0  0  1  0  0  0  0  0  0  0  0
   -3.1571   -2.3796   -0.7374 H   0  0  0  1  0  0  0  0  0  0  0  0
   -2.6012   -4.3172   -0.4583 O   0  0  0  1  0  0  0  0  0  0  0  0
   -1.4951   -2.8329   -1.9065 N   0  0  0  1  0  0  0  0  0  0  0  0
   -0.4490   -3.6545   -2.1956 C   0  0  0  1  0  0  0  0  0  0  0  0
   -0.4700   -4.6759   -2.0014 H   0  0  0  1  0  0  0  0  0  0  0  0
    0.5824   -3.0636   -2.7350 N   0  0  0  1  0  0  0  0  0  0  0  0
    0.1884   -1.7374   -2.8212 C   0  0  0  1  0  0  0  0  0  0  0  0
    0.7957   -0.5727   -3.2813 C   0  0  0  1  0  0  0  0  0  0  0  0
    0.1332    0.5877   -3.2237 N   0  0  0  1  0  0  0  0  0  0  0  0
   -1.1040    0.5810   -2.7029 C   0  0  0  1  0  0  0  0  0  0  0  0
   -1.5840    1.5031   -2.6719 H   0  0  0  1  0  0  0  0  0  0  0  0
   -1.7975   -0.4437   -2.2222 N   0  0  0  1  0  0  0  0  0  0  0  0
   -1.1064   -1.5812   -2.3086 C   0  0  0  1  0  0  0  0  0  0  0  0
    2.0666   -0.6147   -3.7911 N   0  0  0  1  0  0  0  0  0  0  0  0
    2.5290   -1.4737   -3.8842 H   0  0  0  1  0  0  0  0  0  0  0  0
    2.5133    0.2143   -4.0626 H   0  0  0  1  0  0  0  0  0  0  0  0
   -3.1143   -4.2909   -3.4602 O   0  0  0  1  0  0  0  0  0  0  0  0
   -2.4785   -4.9235   -3.1180 H   0  0  0  1  0  0  0  0  0  0  0  0
   -5.1995   -5.6266   -2.5054 O   0  0  0  1  0  0  0  0  0  0  0  0
   -6.5829   -6.4523   -2.1984 P   0  0  0  1  0  0  0  0  0  0  0  0
   -6.5667   -7.0433   -0.8417 O   0  0  0  1  0  0  0  0  0  0  0  0
   -7.7653   -5.3680   -2.4231 O   0  5  0  1  0  0  0  0  0  0  0  0
   -6.6831   -7.6738   -3.2578 O   0  5  0  1  0  0  0  0  0  0  0  0
    3.6578   -7.0352   -6.2978 C   0  0  0  1  0  0  0  0  0  0  0  0
    4.5479   -7.4464   -6.7261 H   0  0  0  1  0  0  0  0  0  0  0  0
    2.4905   -7.8931   -6.7132 C   0  0  0  1  0  0  0  0  0  0  0  0
    2.2901   -8.9813   -6.1993 O   0  0  0  1  0  0  0  0  0  0  0  0
    1.7027   -7.3813   -7.6722 N   0  0  0  1  0  0  0  0  0  0  0  0
    1.7700   -6.4259   -7.8796 H   0  0  0  1  0  0  0  0  0  0  0  0
    0.7523   -8.1960   -8.4144 C   0  0  0  1  0  0  0  0  0  0  0  0
    1.0655   -9.2180   -8.3659 H   0  0  0  1  0  0  0  0  0  0  0  0
    0.7463   -7.8722   -9.4342 H   0  0  0  1  0  0  0  0  0  0  0  0
   -0.6600   -8.0927   -7.8623 C   0  0  0  1  0  0  0  0  0  0  0  0
   -0.6527   -8.4222   -6.8443 H   0  0  0  1  0  0  0  0  0  0  0  0
   -1.2985   -8.7289   -8.4390 H   0  0  0  1  0  0  0  0  0  0  0  0
   -1.2144   -6.6822   -7.9091 C   0  0  0  1  0  0  0  0  0  0  0  0
   -0.9997   -5.9433   -8.8692 O   0  0  0  1  0  0  0  0  0  0  0  0
   -1.9427   -6.3062   -6.8460 N   0  0  0  1  0  0  0  0  0  0  0  0
   -1.9302   -6.8470   -6.0287 H   0  0  0  1  0  0  0  0  0  0  0  0
   -2.7510   -5.0975   -6.9045 C   0  0  0  1  0  0  0  0  0  0  0  0
   -2.4316   -4.5116   -7.7409 H   0  0  0  1  0  0  0  0  0  0  0  0
   -2.6030   -4.5421   -6.0020 H   0  0  0  1  0  0  0  0  0  0  0  0
   -4.2283   -5.3934   -7.0553 C   0  0  0  1  0  0  0  0  0  0  0  0
   -4.6385   -5.5393   -6.0778 H   0  0  0  1  0  0  0  0  0  0  0  0
   -4.3294   -6.2946   -7.6232 H   0  0  0  1  0  0  0  0  0  0  0  0
   -5.1895   -4.1015   -7.8788 S   0  0  0  1  0  0  0  0  0  0  0  0
   -6.1461   -3.4313   -6.5387 C   0  0  0  1  0  0  0  0  0  0  0  0
   -6.1082   -3.8605   -5.4172 O   0  0  0  1  0  0  0  0  0  0  0  0
   -7.0043   -2.2686   -6.9736 C   0  0  0  1  0  0  0  0  0  0  0  0
   -7.6436   -2.0022   -6.1580 H   0  0  0  1  0  0  0  0  0  0  0  0
   -7.5990   -2.5853   -7.8048 H   0  0  0  1  0  0  0  0  0  0  0  0
   -6.2337   -1.0406   -7.3875 C   0  0  0  1  0  0  0  0  0  0  0  0
   -5.8624   -0.9057   -8.5400 O   0  0  0  1  0  0  0  0  0  0  0  0
   -5.9412   -0.0195   -6.3863 C   0  0  0  1  0  0  0  0  0  0  0  0
   -6.6032    0.0398   -5.5864 H   0  0  0  1  0  0  0  0  0  0  0  0
   -4.9280    0.8459   -6.3740 C   0  0  0  1  0  0  0  0  0  0  0  0
   -4.2739    0.7756   -7.1795 H   0  0  0  1  0  0  0  0  0  0  0  0
   -4.5979    1.8924   -5.3809 C   0  0  0  1  0  0  0  0  0  0  0  0
   -5.4405    2.1845   -4.3251 C   0  0  0  1  0  0  0  0  0  0  0  0
   -6.3353    1.6660   -4.2150 H   0  0  0  1  0  0  0  0  0  0  0  0
   -5.0929    3.1686   -3.4128 C   0  0  0  1  0  0  0  0  0  0  0  0
   -3.9062    3.8613   -3.5620 C   0  0  0  1  0  0  0  0  0  0  0  0
   -3.0612    3.5683   -4.6211 C   0  0  0  1  0  0  0  0  0  0  0  0
   -2.1664    4.0867   -4.7312 H   0  0  0  1  0  0  0  0  0  0  0  0
   -3.4078    2.5871   -5.5308 C   0  0  0  1  0  0  0  0  0  0  0  0
   -2.7757    2.3700   -6.3276 H   0  0  0  1  0  0  0  0  0  0  0  0
   -3.4648    4.8470   -2.7355 O   0  5  0  1  0  0  0  0  0  0  0  0
   -5.8324    3.5374   -2.3400 O   0  0  0  1  0  0  0  0  0  0  0  0
   -7.1024    2.8902   -2.1647 C   0  0  0  1  0  0  0  0  0  0  0  0
   -7.4089    2.4485   -3.0898 H   0  0  0  1  0  0  0  0  0  0  0  0
   -7.8301    3.6111   -1.8556 H   0  0  0  1  0  0  0  0  0  0  0  0
   -7.0144    2.1288   -1.4180 H   0  0  0  1  0  0  0  0  0  0  0  0
    3.4997   -5.6865   -6.7345 O   0  0  0  1  0  0  0  0  0  0  0  0
    3.5050   -5.6577   -7.6940 H   0  0  0  1  0  0  0  0  0  0  0  0
  1  2  1  0  0  0  0
  1  3  1  0  0  0  0
  1  4  1  0  0  0  0
  1  5  1  0  0  0  0
  5  6  1  0  0  0  0
  5 10  1  0  0  0  0
  5 55  1  0  0  0  0
  6  7  1  0  0  0  0
  6  8  1  0  0  0  0
  6  9  1  0  0  0  0
 10 11  1  0  0  0  0
 10 12  1  0  0  0  0
 10 13  1  0  0  0  0
 13 14  1  0  0  0  0
 14 15  2  0  0  0  0
 14 16  1  0  0  0  0
 14 17  1  0  0  0  0
 17 18  1  0  0  0  0
 18 19  1  0  0  0  0
 18 20  2  0  0  0  0
 18 21  1  0  0  0  0
 21 22  1  0  0  0  0
 22 23  1  0  0  0  0
 22 24  1  0  0  0  0
 22 25  1  0  0  0  0
 25 26  1  0  0  0  0
 25 27  1  0  0  0  0
 25 33  1  0  0  0  0
 27 28  1  0  0  0  0
 27 29  1  0  0  0  0
 27 50  1  0  0  0  0
 29 30  1  0  0  0  0
 29 31  1  0  0  0  0
 29 48  1  0  0  0  0
 31 32  1  0  0  0  0
 31 33  1  0  0  0  0
 31 34  1  0  0  0  0
 34 35  1  0  0  0  0
 34 44  1  0  0  0  0
 35 36  1  0  0  0  0
 35 37  2  0  0  0  0
 37 38  1  0  0  0  0
 38 39  1  0  0  0  0
 38 44  2  0  0  0  0
 39 40  2  0  0  0  0
 39 45  1  0  0  0  0
 40 41  1  0  0  0  0
 41 42  1  0  0  0  0
 41 43  2  0  0  0  0
 43 44  1  0  0  0  0
 45 46  1  0  0  0  0
 45 47  1  0  0  0  0
 48 49  1  0  0  0  0
 50 51  1  0  0  0  0
 51 52  2  0  0  0  0
 51 53  1  0  0  0  0
 51 54  1  0  0  0  0
 55 56  1  0  0  0  0
 55 57  1  0  0  0  0
 55104  1  0  0  0  0
 57 58  2  0  0  0  0
 57 59  1  0  0  0  0
 59 60  1  0  0  0  0
 59 61  1  0  0  0  0
 61 62  1  0  0  0  0
 61 63  1  0  0  0  0
 61 64  1  0  0  0  0
 64 65  1  0  0  0  0
 64 66  1  0  0  0  0
 64 67  1  0  0  0  0
 67 68  2  0  0  0  0
 67 69  1  0  0  0  0
 69 70  1  0  0  0  0
 69 71  1  0  0  0  0
 71 72  1  0  0  0  0
 71 73  1  0  0  0  0
 71 74  1  0  0  0  0
 74 75  1  0  0  0  0
 74 76  1  0  0  0  0
 74 77  1  0  0  0  0
 77 78  1  0  0  0  0
 78 79  2  0  0  0  0
 78 80  1  0  0  0  0
 80 81  1  0  0  0  0
 80 82  1  0  0  0  0
 80 83  1  0  0  0  0
 83 84  2  0  0  0  0
 83 85  1  0  0  0  0
 85 86  1  0  0  0  0
 85 87  2  0  0  0  0
 87 88  1  0  0  0  0
 87 89  1  0  0  0  0
 89 90  2  0  0  0  0
 89 96  1  0  0  0  0
 90 91  1  0  0  0  0
 90 92  1  0  0  0  0
 92 93  2  0  0  0  0
 92 99  1  0  0  0  0
 93 94  1  0  0  0  0
 93 98  1  0  0  0  0
 94 95  1  0  0  0  0
 94 96  2  0  0  0  0
 96 97  1  0  0  0  0
 99100  1  0  0  0  0
100101  1  0  0  0  0
100102  1  0  0  0  0
100103  1  0  0  0  0
104105  1  0  0  0  0
M  BCL ATM C_TeTeTeTe H_S H_S H_S C_TeTeTeTe C_TeTeTeTe H_S H_S H_S C_TeTeTeTe H_S H_S O_Tr2TrTrPi2 P_TeTeTeTePi O_Tr2Tr2TrPi O_Te2Te2Te2Te O_Tr2TrTrPi2 P_TeTeTeTePi O_Te2Te2TeTe O_Tr2Tr2TrPi O_Tr2TrTrPi2 C_TeTeTeTe H_S H_S C_TeTeTeTe H_S C_TeTeTeTe H_S C_TeTeTeTe H_S C_TeTeTeTe H_S O_Te2Te2TeTe N_TrTrTrPi2 C_TrTrTrPi H_S N_Tr2TrTrPi C_TrTrTrPi C_TrTrTrPi N_Tr2TrTrPi C_TrTrTrPi H_S N_Tr2TrTrPi C_TrTrTrPi N_TrTrTrPi2 H_S H_S O_Te2Te2TeTe H_S O_Tr2TrTrPi2 P_TeTeTeTePi O_Tr2Tr2TrPi O_Te2Te2Te2Te O_Te2Te2Te2Te C_TeTeTeTe H_S C_TrTrTrPi O_Tr2Tr2TrPi N_TrTrTrPi2 H_S C_TeTeTeTe H_S H_S C_TeTeTeTe H_S H_S C_TrTrTrPi O_Tr2Tr2TrPi N_TrTrTrPi2 H_S C_TeTeTeTe H_S H_S C_TeTeTeTe H_S H_S S_Te2Te2TeTe C_TrTrTrPi O_Tr2Tr2TrPi C_TeTeTeTe H_S H_S C_TrTrTrPi O_Tr2Tr2TrPi C_TrTrTrPi H_S C_TrTrTrPi H_S C_TrTrTrPi C_TrTrTrPi H_S C_TrTrTrPi C_TrTrTrPi C_TrTrTrPi H_S C_TrTrTrPi H_S O_Te2Te2Te2Te O_Tr2TrTrPi2 C_TeTeTeTe H_S H_S H_S O_Te2Te2TeTe H_S
M  BCL BND NonConjugatedSingleBond NonConjugatedSingleBond NonConjugatedSingleBond NonConjugatedSingleBond NonConjugatedSingleBond NonConjugatedSingleBond NonConjugatedSingleBond NonConjugatedSingleBond NonConjugatedSingleBond NonConjugatedSingleBond NonConjugatedSingleBond NonConjugatedSingleBond NonConjugatedSingleBond ConjugatedSingleBond ConjugatedDoubleBond ConjugatedSingleBond ConjugatedSingleBond ConjugatedSingleBond ConjugatedSingleBond ConjugatedDoubleBond ConjugatedSingleBond NonConjugatedSingleBond NonConjugatedSingleBond NonConjugatedSingleBond NonConjugatedSingleBond NonConjugatedSingleBond NonConjugatedSingleBondInRing NonConjugatedSingleBondInRing NonConjugatedSingleBond NonConjugatedSingleBondInRing NonConjugatedSingleBond NonConjugatedSingleBond NonConjugatedSingleBondInRing NonConjugatedSingleBond NonConjugatedSingleBond NonConjugatedSingleBondInRing NonConjugatedSingleBond AromaticSingleBond AromaticSingleBond NonConjugatedSingleBond AromaticDoubleBond AromaticSingleBond AromaticSingleBond AromaticDoubleBond AromaticDoubleBond ConjugatedSingleBond AromaticSingleBond NonConjugatedSingleBond AromaticDoubleBond AromaticSingleBond NonConjugatedSingleBond NonConjugatedSingleBond NonConjugatedSingleBond ConjugatedSingleBond ConjugatedDoubleBond ConjugatedSingleBond ConjugatedSingleBond NonConjugatedSingleBond NonConjugatedSingleBond NonConjugatedSingleBond ConjugatedDoubleBond AmideSingleBond NonConjugatedSingleBond NonConjugatedSingleBond NonConjugatedSingleBond NonConjugatedSingleBond NonConjugatedSingleBond NonConjugatedSingleBond NonConjugatedSingleBond NonConjugatedSingleBond ConjugatedDoubleBond AmideSingleBond NonConjugatedSingleBond NonConjugatedSingleBond NonConjugatedSingleBond NonConjugatedSingleBond NonConjugatedSingleBond NonConjugatedSingleBond NonConjugatedSingleBond NonConjugatedSingleBond ConjugatedSingleBond ConjugatedDoubleBond NonConjugatedSingleBond NonConjugatedSingleBond NonConjugatedSingleBond NonConjugatedSingleBond ConjugatedDoubleBond ConjugatedSingleBond NonConjugatedSingleBond ConjugatedDoubleBond NonConjugatedSingleBond ConjugatedSingleBond AromaticDoubleBond AromaticSingleBond NonConjugatedSingleBond AromaticSingleBond AromaticDoubleBond ConjugatedSingleBond AromaticSingleBond ConjugatedSingleBond NonConjugatedSingleBond AromaticDoubleBond NonConjugatedSingleBond NonConjugatedSingleBond NonConjugatedSingleBond NonConjugatedSingleBond NonConjugatedSingleBond NonConjugatedSingleBond
M  BCL CHI  14   R  18   S  25   R  27   R  29   R  31   S  55   R
M  BCL DBI - - - - - - - - - - - E - - -
M  END
> <ConfClashScore>
0.000772223 

> <ConfOneFourInteractionScore>
-0.972755 

> <ConfScore>
0.614084 

> <ConfScorePBest>
0.00510745 

> <ConfTolerance>
3.99892 

$$$$
L03.****
  PyMOL2.5          3D                             0

105108  0  0  0  0  0  0  0  0999 V2000
    0.5969  -10.2261    4.9081 C   0  0  0  1  0  0  0  0  0  0  0  0
    1.6239  -10.1822    5.2052 H   0  0  0  1  0  0  0  0  0  0  0  0
    0.1156  -11.0401    5.4087 H   0  0  0  1  0  0  0  0  0  0  0  0
    0.1111   -9.3091    5.1686 H   0  0  0  1  0  0  0  0  0  0  0  0
    0.5113  -10.4366    3.3917 C   0  0  0  1  0  0  0  0  0  0  0  0
    0.5408   -9.0767    2.6811 C   0  0  0  1  0  0  0  0  0  0  0  0
   -0.3912   -8.9147    2.1811 H   0  0  0  1  0  0  0  0  0  0  0  0
    1.3360   -9.0657    1.9653 H   0  0  0  1  0  0  0  0  0  0  0  0
    0.6981   -8.3015    3.4017 H   0  0  0  1  0  0  0  0  0  0  0  0
   -0.7153  -11.1933    3.0748 C   0  0  0  1  0  0  0  0  0  0  0  0
   -0.6924  -12.1321    3.5876 H   0  0  0  1  0  0  0  0  0  0  0  0
   -0.7614  -11.3637    2.0195 H   0  0  0  1  0  0  0  0  0  0  0  0
   -1.8877  -10.4519    3.4896 O   0  0  0  1  0  0  0  0  0  0  0  0
   -2.9515   -9.9690    2.4355 P   0  0  0  1  0  0  0  0  0  0  0  0
   -3.1643  -11.3698    2.0080 O   0  0  0  1  0  0  0  0  0  0  0  0
   -3.0177   -9.1535    3.8337 O   0  5  0  1  0  0  0  0  0  0  0  0
   -4.0377   -9.4764    1.3590 O   0  0  0  1  0  0  0  0  0  0  0  0
   -3.9612   -8.4556    0.1601 P   0  0  0  1  0  0  0  0  0  0  0  0
   -5.3559   -8.3571   -0.3260 O   0  0  0  0  0  0  0  0  0  0  0  0
   -2.8879   -8.7590   -0.8110 O   0  0  0  1  0  0  0  0  0  0  0  0
   -3.5597   -7.1585    0.9554 O   0  0  0  1  0  0  0  0  0  0  0  0
   -2.6628   -6.1781    0.3746 C   0  0  0  1  0  0  0  0  0  0  0  0
   -2.2894   -6.5357   -0.5623 H   0  0  0  1  0  0  0  0  0  0  0  0
   -1.8441   -5.9945    1.0387 H   0  0  0  1  0  0  0  0  0  0  0  0
   -3.4456   -4.9111    0.1641 C   0  0  0  1  0  0  0  0  0  0  0  0
   -4.0683   -4.7304    1.0152 H   0  0  0  1  0  0  0  0  0  0  0  0
   -4.3082   -5.0208   -1.1174 C   0  0  0  1  0  0  0  0  0  0  0  0
   -5.2639   -4.5599   -0.9792 H   0  0  0  1  0  0  0  0  0  0  0  0
   -3.4814   -4.2680   -2.1449 C   0  0  0  1  0  0  0  0  0  0  0  0
   -4.1063   -3.8120   -2.8842 H   0  0  0  1  0  0  0  0  0  0  0  0
   -2.7690   -3.2077   -1.2904 C   0  0  0  1  0  0  0  0  0  0  0  0
   -3.3846   -2.3388   -1.1861 H   0  0  0  1  0  0  0  0  0  0  0  0
   -2.5522   -3.8026   -0.0435 O   0  0  0  1  0  0  0  0  0  0  0  0
   -1.4955   -2.8327   -1.9031 N   0  0  0  1  0  0  0  0  0  0  0  0
   -0.4483   -3.6536   -2.1900 C   0  0  0  1  0  0  0  0  0  0  0  0
   -0.4681   -4.6747   -1.9935 H   0  0  0  1  0  0  0  0  0  0  0  0
    0.5826   -3.0627   -2.7302 N   0  0  0  1  0  0  0  0  0  0  0  0
    0.1870   -1.7371   -2.8196 C   0  0  0  1  0  0  0  0  0  0  0  0
    0.7930   -0.5727   -3.2820 C   0  0  0  1  0  0  0  0  0  0  0  0
    0.1290    0.5870   -3.2272 N   0  0  0  1  0  0  0  0  0  0  0  0
   -1.1084    0.5798   -2.7069 C   0  0  0  1  0  0  0  0  0  0  0  0
   -1.5895    1.5014   -2.6782 H   0  0  0  1  0  0  0  0  0  0  0  0
   -1.8008   -0.4446   -2.2242 N   0  0  0  1  0  0  0  0  0  0  0  0
   -1.1082   -1.5814   -2.3079 C   0  0  0  1  0  0  0  0  0  0  0  0
    2.0729   -0.6145   -3.7947 N   0  0  0  1  0  0  0  0  0  0  0  0
    2.5616   -1.4635   -3.8237 H   0  0  0  1  0  0  0  0  0  0  0  0
    2.4935    0.2047   -4.1299 H   0  0  0  1  0  0  0  0  0  0  0  0
   -2.5407   -5.1327   -2.7832 O   0  0  0  1  0  0  0  0  0  0  0  0
   -2.8792   -5.3963   -3.6420 H   0  0  0  1  0  0  0  0  0  0  0  0
   -4.4892   -6.3953   -1.5042 O   0  0  0  1  0  0  0  0  0  0  0  0
   -5.3168   -6.8480   -2.8457 P   0  0  0  1  0  0  0  0  0  0  0  0
   -5.9517   -5.6492   -3.4376 O   0  0  0  1  0  0  0  0  0  0  0  0
   -4.2331   -7.3428   -3.9435 O   0  5  0  1  0  0  0  0  0  0  0  0
   -6.3249   -8.0584   -2.4675 O   0  5  0  1  0  0  0  0  0  0  0  0
    1.7303  -11.2615    2.9623 C   0  0  0  1  0  0  0  0  0  0  0  0
    1.6328  -11.4814    1.9197 H   0  0  0  1  0  0  0  0  0  0  0  0
    3.0028  -10.4620    3.1640 C   0  0  0  1  0  0  0  0  0  0  0  0
    3.4228  -10.2116    4.2817 O   0  0  0  1  0  0  0  0  0  0  0  0
    3.6184  -10.0597    2.0486 N   0  0  0  1  0  0  0  0  0  0  0  0
    3.2016  -10.2911    1.1924 H   0  0  0  1  0  0  0  0  0  0  0  0
    4.8613   -9.3037    2.0093 C   0  0  0  1  0  0  0  0  0  0  0  0
    5.4325   -9.6073    1.1569 H   0  0  0  1  0  0  0  0  0  0  0  0
    5.4204   -9.4967    2.9010 H   0  0  0  1  0  0  0  0  0  0  0  0
    4.5705   -7.8221    1.9133 C   0  0  0  1  0  0  0  0  0  0  0  0
    5.5030   -7.2992    1.9556 H   0  0  0  1  0  0  0  0  0  0  0  0
    3.9691   -7.5486    2.7550 H   0  0  0  1  0  0  0  0  0  0  0  0
    3.8442   -7.3824    0.6570 C   0  0  0  1  0  0  0  0  0  0  0  0
    3.6763   -8.1486   -0.2790 O   0  0  0  1  0  0  0  0  0  0  0  0
    3.4099   -6.1189    0.6498 N   0  0  0  1  0  0  0  0  0  0  0  0
    3.5511   -5.5657    1.4463 H   0  0  0  1  0  0  0  0  0  0  0  0
    2.7343   -5.5357   -0.4997 C   0  0  0  1  0  0  0  0  0  0  0  0
    1.8258   -6.0802   -0.6511 H   0  0  0  1  0  0  0  0  0  0  0  0
    3.3729   -5.6632   -1.3487 H   0  0  0  1  0  0  0  0  0  0  0  0
    2.3782   -4.0688   -0.4126 C   0  0  0  1  0  0  0  0  0  0  0  0
    2.6339   -3.7234    0.5673 H   0  0  0  1  0  0  0  0  0  0  0  0
    1.3226   -3.9747   -0.5603 H   0  0  0  1  0  0  0  0  0  0  0  0
    3.2091   -3.0047   -1.6161 S   0  0  0  1  0  0  0  0  0  0  0  0
    2.8508   -1.3789   -0.9924 C   0  0  0  1  0  0  0  0  0  0  0  0
    3.1581   -0.3615   -1.5849 O   0  0  0  1  0  0  0  0  0  0  0  0
    2.1328   -1.3402    0.3345 C   0  0  0  1  0  0  0  0  0  0  0  0
    2.8585   -1.4672    1.1105 H   0  0  0  1  0  0  0  0  0  0  0  0
    1.4360   -2.1518    0.3607 H   0  0  0  1  0  0  0  0  0  0  0  0
    1.3774   -0.0630    0.6017 C   0  0  0  1  0  0  0  0  0  0  0  0
    1.0162    0.6551   -0.3161 O   0  0  0  1  0  0  0  0  0  0  0  0
    1.0641    0.3372    1.9705 C   0  0  0  1  0  0  0  0  0  0  0  0
    0.9146   -0.4532    2.6297 H   0  0  0  1  0  0  0  0  0  0  0  0
    0.9378    1.5464    2.5157 C   0  0  0  1  0  0  0  0  0  0  0  0
    1.0792    2.3664    1.8918 H   0  0  0  1  0  0  0  0  0  0  0  0
    0.6125    1.8235    3.9377 C   0  0  0  1  0  0  0  0  0  0  0  0
    1.2946    1.1674    4.9449 C   0  0  0  1  0  0  0  0  0  0  0  0
    2.0793    0.5266    4.7098 H   0  0  0  1  0  0  0  0  0  0  0  0
    0.9327    1.3636    6.2686 C   0  0  0  1  0  0  0  0  0  0  0  0
   -0.1135    2.2111    6.5808 C   0  0  0  1  0  0  0  0  0  0  0  0
   -0.7975    2.8690    5.5704 C   0  0  0  1  0  0  0  0  0  0  0  0
   -1.5822    3.5098    5.8055 H   0  0  0  1  0  0  0  0  0  0  0  0
   -0.4368    2.6735    4.2506 C   0  0  0  1  0  0  0  0  0  0  0  0
   -0.9526    3.1640    3.4924 H   0  0  0  1  0  0  0  0  0  0  0  0
   -0.5592    2.4759    7.8381 O   0  5  0  1  0  0  0  0  0  0  0  0
    1.5280    0.7821    7.3369 O   0  0  0  1  0  0  0  0  0  0  0  0
    1.7760    1.6121    8.4823 C   0  0  0  1  0  0  0  0  0  0  0  0
    2.3165    2.4849    8.1807 H   0  0  0  1  0  0  0  0  0  0  0  0
    2.3523    1.0663    9.1999 H   0  0  0  1  0  0  0  0  0  0  0  0
    0.8440    1.9034    8.9198 H   0  0  0  1  0  0  0  0  0  0  0  0
    1.7164  -12.4617    3.7060 O   0  0  0  1  0  0  0  0  0  0  0  0
    2.6166  -12.7138    3.9244 H   0  0  0  1  0  0  0  0  0  0  0  0
  1  2  1  0  0  0  0
  1  3  1  0  0  0  0
  1  4  1  0  0  0  0
  1  5  1  0  0  0  0
  5  6  1  0  0  0  0
  5 10  1  0  0  0  0
  5 55  1  0  0  0  0
  6  7  1  0  0  0  0
  6  8  1  0  0  0  0
  6  9  1  0  0  0  0
 10 11  1  0  0  0  0
 10 12  1  0  0  0  0
 10 13  1  0  0  0  0
 13 14  1  0  0  0  0
 14 15  2  0  0  0  0
 14 16  1  0  0  0  0
 14 17  1  0  0  0  0
 17 18  1  0  0  0  0
 18 19  1  0  0  0  0
 18 20  2  0  0  0  0
 18 21  1  0  0  0  0
 21 22  1  0  0  0  0
 22 23  1  0  0  0  0
 22 24  1  0  0  0  0
 22 25  1  0  0  0  0
 25 26  1  0  0  0  0
 25 27  1  0  0  0  0
 25 33  1  0  0  0  0
 27 28  1  0  0  0  0
 27 29  1  0  0  0  0
 27 50  1  0  0  0  0
 29 30  1  0  0  0  0
 29 31  1  0  0  0  0
 29 48  1  0  0  0  0
 31 32  1  0  0  0  0
 31 33  1  0  0  0  0
 31 34  1  0  0  0  0
 34 35  1  0  0  0  0
 34 44  1  0  0  0  0
 35 36  1  0  0  0  0
 35 37  2  0  0  0  0
 37 38  1  0  0  0  0
 38 39  1  0  0  0  0
 38 44  2  0  0  0  0
 39 40  2  0  0  0  0
 39 45  1  0  0  0  0
 40 41  1  0  0  0  0
 41 42  1  0  0  0  0
 41 43  2  0  0  0  0
 43 44  1  0  0  0  0
 45 46  1  0  0  0  0
 45 47  1  0  0  0  0
 48 49  1  0  0  0  0
 50 51  1  0  0  0  0
 51 52  2  0  0  0  0
 51 53  1  0  0  0  0
 51 54  1  0  0  0  0
 55 56  1  0  0  0  0
 55 57  1  0  0  0  0
 55104  1  0  0  0  0
 57 58  2  0  0  0  0
 57 59  1  0  0  0  0
 59 60  1  0  0  0  0
 59 61  1  0  0  0  0
 61 62  1  0  0  0  0
 61 63  1  0  0  0  0
 61 64  1  0  0  0  0
 64 65  1  0  0  0  0
 64 66  1  0  0  0  0
 64 67  1  0  0  0  0
 67 68  2  0  0  0  0
 67 69  1  0  0  0  0
 69 70  1  0  0  0  0
 69 71  1  0  0  0  0
 71 72  1  0  0  0  0
 71 73  1  0  0  0  0
 71 74  1  0  0  0  0
 74 75  1  0  0  0  0
 74 76  1  0  0  0  0
 74 77  1  0  0  0  0
 77 78  1  0  0  0  0
 78 79  2  0  0  0  0
 78 80  1  0  0  0  0
 80 81  1  0  0  0  0
 80 82  1  0  0  0  0
 80 83  1  0  0  0  0
 83 84  2  0  0  0  0
 83 85  1  0  0  0  0
 85 86  1  0  0  0  0
 85 87  2  0  0  0  0
 87 88  1  0  0  0  0
 87 89  1  0  0  0  0
 89 90  2  0  0  0  0
 89 96  1  0  0  0  0
 90 91  1  0  0  0  0
 90 92  1  0  0  0  0
 92 93  2  0  0  0  0
 92 99  1  0  0  0  0
 93 94  1  0  0  0  0
 93 98  1  0  0  0  0
 94 95  1  0  0  0  0
 94 96  2  0  0  0  0
 96 97  1  0  0  0  0
 99100  1  0  0  0  0
100101  1  0  0  0  0
100102  1  0  0  0  0
100103  1  0  0  0  0
104105  1  0  0  0  0
M  BCL ATM C_TeTeTeTe H_S H_S H_S C_TeTeTeTe C_TeTeTeTe H_S H_S H_S C_TeTeTeTe H_S H_S O_Tr2TrTrPi2 P_TeTeTeTePi O_Tr2Tr2TrPi O_Te2Te2Te2Te O_Tr2TrTrPi2 P_TeTeTeTePi O_Te2Te2TeTe O_Tr2Tr2TrPi O_Tr2TrTrPi2 C_TeTeTeTe H_S H_S C_TeTeTeTe H_S C_TeTeTeTe H_S C_TeTeTeTe H_S C_TeTeTeTe H_S O_Te2Te2TeTe N_TrTrTrPi2 C_TrTrTrPi H_S N_Tr2TrTrPi C_TrTrTrPi C_TrTrTrPi N_Tr2TrTrPi C_TrTrTrPi H_S N_Tr2TrTrPi C_TrTrTrPi N_TrTrTrPi2 H_S H_S O_Te2Te2TeTe H_S O_Tr2TrTrPi2 P_TeTeTeTePi O_Tr2Tr2TrPi O_Te2Te2Te2Te O_Te2Te2Te2Te C_TeTeTeTe H_S C_TrTrTrPi O_Tr2Tr2TrPi N_TrTrTrPi2 H_S C_TeTeTeTe H_S H_S C_TeTeTeTe H_S H_S C_TrTrTrPi O_Tr2Tr2TrPi N_TrTrTrPi2 H_S C_TeTeTeTe H_S H_S C_TeTeTeTe H_S H_S S_Te2Te2TeTe C_TrTrTrPi O_Tr2Tr2TrPi C_TeTeTeTe H_S H_S C_TrTrTrPi O_Tr2Tr2TrPi C_TrTrTrPi H_S C_TrTrTrPi H_S C_TrTrTrPi C_TrTrTrPi H_S C_TrTrTrPi C_TrTrTrPi C_TrTrTrPi H_S C_TrTrTrPi H_S O_Te2Te2Te2Te O_Tr2TrTrPi2 C_TeTeTeTe H_S H_S H_S O_Te2Te2TeTe H_S
M  BCL BND NonConjugatedSingleBond NonConjugatedSingleBond NonConjugatedSingleBond NonConjugatedSingleBond NonConjugatedSingleBond NonConjugatedSingleBond NonConjugatedSingleBond NonConjugatedSingleBond NonConjugatedSingleBond NonConjugatedSingleBond NonConjugatedSingleBond NonConjugatedSingleBond NonConjugatedSingleBond ConjugatedSingleBond ConjugatedDoubleBond ConjugatedSingleBond ConjugatedSingleBond ConjugatedSingleBond ConjugatedSingleBond ConjugatedDoubleBond ConjugatedSingleBond NonConjugatedSingleBond NonConjugatedSingleBond NonConjugatedSingleBond NonConjugatedSingleBond NonConjugatedSingleBond NonConjugatedSingleBondInRing NonConjugatedSingleBondInRing NonConjugatedSingleBond NonConjugatedSingleBondInRing NonConjugatedSingleBond NonConjugatedSingleBond NonConjugatedSingleBondInRing NonConjugatedSingleBond NonConjugatedSingleBond NonConjugatedSingleBondInRing NonConjugatedSingleBond AromaticSingleBond AromaticSingleBond NonConjugatedSingleBond AromaticDoubleBond AromaticSingleBond AromaticSingleBond AromaticDoubleBond AromaticDoubleBond ConjugatedSingleBond AromaticSingleBond NonConjugatedSingleBond AromaticDoubleBond AromaticSingleBond NonConjugatedSingleBond NonConjugatedSingleBond NonConjugatedSingleBond ConjugatedSingleBond ConjugatedDoubleBond ConjugatedSingleBond ConjugatedSingleBond NonConjugatedSingleBond NonConjugatedSingleBond NonConjugatedSingleBond ConjugatedDoubleBond AmideSingleBond NonConjugatedSingleBond NonConjugatedSingleBond NonConjugatedSingleBond NonConjugatedSingleBond NonConjugatedSingleBond NonConjugatedSingleBond NonConjugatedSingleBond NonConjugatedSingleBond ConjugatedDoubleBond AmideSingleBond NonConjugatedSingleBond NonConjugatedSingleBond NonConjugatedSingleBond NonConjugatedSingleBond NonConjugatedSingleBond NonConjugatedSingleBond NonConjugatedSingleBond NonConjugatedSingleBond ConjugatedSingleBond ConjugatedDoubleBond NonConjugatedSingleBond NonConjugatedSingleBond NonConjugatedSingleBond NonConjugatedSingleBond ConjugatedDoubleBond ConjugatedSingleBond NonConjugatedSingleBond ConjugatedDoubleBond NonConjugatedSingleBond ConjugatedSingleBond AromaticDoubleBond AromaticSingleBond NonConjugatedSingleBond AromaticSingleBond AromaticDoubleBond ConjugatedSingleBond AromaticSingleBond ConjugatedSingleBond NonConjugatedSingleBond AromaticDoubleBond NonConjugatedSingleBond NonConjugatedSingleBond NonConjugatedSingleBond NonConjugatedSingleBond NonConjugatedSingleBond NonConjugatedSingleBond
M  BCL CHI  14   R  18   S  25   R  27   R  29   R  31   S  55   R
M  BCL DBI - - - - - - - - - - - E - - -
M  END
> <ConfClashScore>
0.00131407 

> <ConfOneFourInteractionScore>
-0.967152 

> <ConfScore>
0.616847 

> <ConfScorePBest>
0.00500445 

> <ConfTolerance>
5.52299 

$$$$
L03.****
  PyMOL2.5          3D                             0

105108  0  0  0  0  0  0  0  0999 V2000
   -9.3219    3.6136   -1.8278 C   0  0  0  1  0  0  0  0  0  0  0  0
   -8.4211    4.0488   -1.4484 H   0  0  0  1  0  0  0  0  0  0  0  0
   -9.9299    3.2839   -1.0113 H   0  0  0  1  0  0  0  0  0  0  0  0
   -9.8568    4.3429   -2.3996 H   0  0  0  1  0  0  0  0  0  0  0  0
   -8.9753    2.4173   -2.7221 C   0  0  0  1  0  0  0  0  0  0  0  0
   -7.7503    1.6907   -2.1541 C   0  0  0  1  0  0  0  0  0  0  0  0
   -7.4624    2.1453   -1.2292 H   0  0  0  1  0  0  0  0  0  0  0  0
   -6.9412    1.7577   -2.8512 H   0  0  0  1  0  0  0  0  0  0  0  0
   -7.9923    0.6621   -1.9856 H   0  0  0  1  0  0  0  0  0  0  0  0
   -8.6928    2.7517   -4.1313 C   0  0  0  1  0  0  0  0  0  0  0  0
   -7.8202    3.3692   -4.1788 H   0  0  0  1  0  0  0  0  0  0  0  0
   -9.5274    3.2805   -4.5421 H   0  0  0  1  0  0  0  0  0  0  0  0
   -8.4664    1.5473   -4.9007 O   0  0  0  1  0  0  0  0  0  0  0  0
   -7.0067    1.0813   -5.2591 P   0  0  0  1  0  0  0  0  0  0  0  0
   -7.4272   -0.3323   -5.1351 O   0  0  0  1  0  0  0  0  0  0  0  0
   -7.4942    2.3730   -6.1066 O   0  5  0  1  0  0  0  0  0  0  0  0
   -5.5062    0.6018   -5.6275 O   0  0  0  1  0  0  0  0  0  0  0  0
   -4.9589   -0.8314   -5.2308 P   0  0  0  1  0  0  0  0  0  0  0  0
   -3.4916   -0.7156   -5.0780 O   0  0  0  0  0  0  0  0  0  0  0  0
   -5.5051   -1.8674   -6.1338 O   0  0  0  1  0  0  0  0  0  0  0  0
   -5.6156   -1.0959   -3.8255 O   0  0  0  1  0  0  0  0  0  0  0  0
   -4.9073   -0.7732   -2.6008 C   0  0  0  1  0  0  0  0  0  0  0  0
   -5.4271    0.0096   -2.0890 H   0  0  0  1  0  0  0  0  0  0  0  0
   -3.9174   -0.4464   -2.8420 H   0  0  0  1  0  0  0  0  0  0  0  0
   -4.8260   -1.9868   -1.7028 C   0  0  0  1  0  0  0  0  0  0  0  0
   -5.7963   -2.4280   -1.6098 H   0  0  0  1  0  0  0  0  0  0  0  0
   -4.3174   -1.5857   -0.3496 C   0  0  0  1  0  0  0  0  0  0  0  0
   -5.0418   -1.8326    0.3981 H   0  0  0  1  0  0  0  0  0  0  0  0
   -3.0441   -2.3348   -0.0911 C   0  0  0  1  0  0  0  0  0  0  0  0
   -3.1523   -2.9444    0.7816 H   0  0  0  1  0  0  0  0  0  0  0  0
   -2.7650   -3.1997   -1.2850 C   0  0  0  1  0  0  0  0  0  0  0  0
   -2.7382   -4.2279   -0.9900 H   0  0  0  1  0  0  0  0  0  0  0  0
   -3.8666   -2.9844   -2.2810 O   0  0  0  1  0  0  0  0  0  0  0  0
   -1.4810   -2.8283   -1.8774 N   0  0  0  1  0  0  0  0  0  0  0  0
   -0.4219   -3.6481   -2.1225 C   0  0  0  1  0  0  0  0  0  0  0  0
   -0.4328   -4.6661   -1.9099 H   0  0  0  1  0  0  0  0  0  0  0  0
    0.6195   -3.0363   -2.6537 N   0  0  0  1  0  0  0  0  0  0  0  0
    0.1793   -1.7185   -2.7796 C   0  0  0  1  0  0  0  0  0  0  0  0
    0.8041   -0.5727   -3.3016 C   0  0  0  1  0  0  0  0  0  0  0  0
    0.1031    0.5867   -3.2760 N   0  0  0  1  0  0  0  0  0  0  0  0
   -1.1396    0.5677   -2.7618 C   0  0  0  1  0  0  0  0  0  0  0  0
   -1.6329    1.4833   -2.7635 H   0  0  0  1  0  0  0  0  0  0  0  0
   -1.8335   -0.4490   -2.2505 N   0  0  0  1  0  0  0  0  0  0  0  0
   -1.0928   -1.5749   -2.3032 C   0  0  0  1  0  0  0  0  0  0  0  0
    2.0726   -0.6261   -3.8162 N   0  0  0  1  0  0  0  0  0  0  0  0
    2.8446   -0.4637   -3.2348 H   0  0  0  1  0  0  0  0  0  0  0  0
    2.2081   -0.8266   -4.7659 H   0  0  0  1  0  0  0  0  0  0  0  0
   -1.9701   -1.4131    0.1014 O   0  0  0  1  0  0  0  0  0  0  0  0
   -2.2604   -0.5289   -0.1344 H   0  0  0  1  0  0  0  0  0  0  0  0
   -4.0620   -0.1579   -0.3236 O   0  0  0  1  0  0  0  0  0  0  0  0
   -4.8340    0.8148    0.7476 P   0  0  0  1  0  0  0  0  0  0  0  0
   -5.2579    0.1051    1.9751 O   0  0  0  1  0  0  0  0  0  0  0  0
   -4.0394    2.1972    1.0341 O   0  5  0  1  0  0  0  0  0  0  0  0
   -6.2517    1.1946    0.0618 O   0  5  0  1  0  0  0  0  0  0  0  0
  -10.1569    1.4404   -2.7047 C   0  0  0  1  0  0  0  0  0  0  0  0
  -10.3752    1.1746   -1.6915 H   0  0  0  1  0  0  0  0  0  0  0  0
  -11.3867    2.0410   -3.3367 C   0  0  0  1  0  0  0  0  0  0  0  0
  -11.5588    3.2362   -3.5111 O   0  0  0  1  0  0  0  0  0  0  0  0
  -12.3040    1.1268   -3.7030 N   0  0  0  1  0  0  0  0  0  0  0  0
  -12.1118    0.1677   -3.6424 H   0  0  0  1  0  0  0  0  0  0  0  0
  -13.5896    1.6029   -4.1914 C   0  0  0  1  0  0  0  0  0  0  0  0
  -13.4230    2.4442   -4.8312 H   0  0  0  1  0  0  0  0  0  0  0  0
  -14.1845    1.9032   -3.3543 H   0  0  0  1  0  0  0  0  0  0  0  0
  -14.3469    0.5404   -4.9711 C   0  0  0  1  0  0  0  0  0  0  0  0
  -14.2324    0.7518   -6.0137 H   0  0  0  1  0  0  0  0  0  0  0  0
  -15.3807    0.6092   -4.7041 H   0  0  0  1  0  0  0  0  0  0  0  0
  -13.8990   -0.8768   -4.7326 C   0  0  0  1  0  0  0  0  0  0  0  0
  -13.3898   -1.5380   -5.6362 O   0  0  0  1  0  0  0  0  0  0  0  0
  -14.0720   -1.3955   -3.5066 N   0  0  0  1  0  0  0  0  0  0  0  0
  -14.5631   -0.8743   -2.8375 H   0  0  0  1  0  0  0  0  0  0  0  0
  -13.5558   -2.7049   -3.1365 C   0  0  0  1  0  0  0  0  0  0  0  0
  -13.2530   -2.6766   -2.1107 H   0  0  0  1  0  0  0  0  0  0  0  0
  -12.7096   -2.9265   -3.7527 H   0  0  0  1  0  0  0  0  0  0  0  0
  -14.5867   -3.8083   -3.3099 C   0  0  0  1  0  0  0  0  0  0  0  0
  -14.6816   -4.3584   -2.3970 H   0  0  0  1  0  0  0  0  0  0  0  0
  -14.2790   -4.4680   -4.0941 H   0  0  0  1  0  0  0  0  0  0  0  0
  -16.1765   -3.0582   -3.7355 S   0  0  0  1  0  0  0  0  0  0  0  0
  -17.2600   -4.0324   -2.7104 C   0  0  0  1  0  0  0  0  0  0  0  0
  -16.8414   -4.8921   -1.9883 O   0  0  0  1  0  0  0  0  0  0  0  0
  -18.6981   -3.5871   -2.8117 C   0  0  0  1  0  0  0  0  0  0  0  0
  -19.3006   -4.4284   -3.0842 H   0  0  0  1  0  0  0  0  0  0  0  0
  -18.7729   -2.8342   -3.5683 H   0  0  0  1  0  0  0  0  0  0  0  0
  -19.2136   -3.0215   -1.5110 C   0  0  0  1  0  0  0  0  0  0  0  0
  -20.3041   -3.3592   -1.0806 O   0  0  0  1  0  0  0  0  0  0  0  0
  -18.3852   -2.0637   -0.7774 C   0  0  0  1  0  0  0  0  0  0  0  0
  -17.4140   -1.8703   -1.0953 H   0  0  0  1  0  0  0  0  0  0  0  0
  -18.8678   -1.4380    0.2954 C   0  0  0  1  0  0  0  0  0  0  0  0
  -19.8435   -1.6618    0.5775 H   0  0  0  1  0  0  0  0  0  0  0  0
  -18.1337   -0.4510    1.1208 C   0  0  0  1  0  0  0  0  0  0  0  0
  -16.8751   -0.0363    0.7284 C   0  0  0  1  0  0  0  0  0  0  0  0
  -16.4480   -0.4198   -0.1388 H   0  0  0  1  0  0  0  0  0  0  0  0
  -16.1820    0.8910    1.4909 C   0  0  0  1  0  0  0  0  0  0  0  0
  -16.7473    1.3967    2.6463 C   0  0  0  1  0  0  0  0  0  0  0  0
  -18.0097    0.9806    3.0397 C   0  0  0  1  0  0  0  0  0  0  0  0
  -18.4369    1.3641    3.9070 H   0  0  0  1  0  0  0  0  0  0  0  0
  -18.7009    0.0561    2.2796 C   0  0  0  1  0  0  0  0  0  0  0  0
  -19.6463   -0.2591    2.5769 H   0  0  0  1  0  0  0  0  0  0  0  0
  -16.0720    2.3826    3.2957 O   0  5  0  1  0  0  0  0  0  0  0  0
  -14.9691    1.2232    1.0079 O   0  0  0  1  0  0  0  0  0  0  0  0
  -14.8466    1.1641   -0.4323 C   0  0  0  1  0  0  0  0  0  0  0  0
  -15.0300    0.1641   -0.7656 H   0  0  0  1  0  0  0  0  0  0  0  0
  -13.8588    1.4596   -0.7183 H   0  0  0  1  0  0  0  0  0  0  0  0
  -15.5603    1.8250   -0.8781 H   0  0  0  1  0  0  0  0  0  0  0  0
   -9.7355    0.2948   -3.4427 O   0  0  0  1  0  0  0  0  0  0  0  0
   -9.8678   -0.4945   -2.9124 H   0  0  0  1  0  0  0  0  0  0  0  0
  1  2  1  0  0  0  0
  1  3  1  0  0  0  0
  1  4  1  0  0  0  0
  1  5  1  0  0  0  0
  5  6  1  0  0  0  0
  5 10  1  0  0  0  0
  5 55  1  0  0  0  0
  6  7  1  0  0  0  0
  6  8  1  0  0  0  0
  6  9  1  0  0  0  0
 10 11  1  0  0  0  0
 10 12  1  0  0  0  0
 10 13  1  0  0  0  0
 13 14  1  0  0  0  0
 14 15  2  0  0  0  0
 14 16  1  0  0  0  0
 14 17  1  0  0  0  0
 17 18  1  0  0  0  0
 18 19  1  0  0  0  0
 18 20  2  0  0  0  0
 18 21  1  0  0  0  0
 21 22  1  0  0  0  0
 22 23  1  0  0  0  0
 22 24  1  0  0  0  0
 22 25  1  0  0  0  0
 25 26  1  0  0  0  0
 25 27  1  0  0  0  0
 25 33  1  0  0  0  0
 27 28  1  0  0  0  0
 27 29  1  0  0  0  0
 27 50  1  0  0  0  0
 29 30  1  0  0  0  0
 29 31  1  0  0  0  0
 29 48  1  0  0  0  0
 31 32  1  0  0  0  0
 31 33  1  0  0  0  0
 31 34  1  0  0  0  0
 34 35  1  0  0  0  0
 34 44  1  0  0  0  0
 35 36  1  0  0  0  0
 35 37  2  0  0  0  0
 37 38  1  0  0  0  0
 38 39  1  0  0  0  0
 38 44  2  0  0  0  0
 39 40  2  0  0  0  0
 39 45  1  0  0  0  0
 40 41  1  0  0  0  0
 41 42  1  0  0  0  0
 41 43  2  0  0  0  0
 43 44  1  0  0  0  0
 45 46  1  0  0  0  0
 45 47  1  0  0  0  0
 48 49  1  0  0  0  0
 50 51  1  0  0  0  0
 51 52  2  0  0  0  0
 51 53  1  0  0  0  0
 51 54  1  0  0  0  0
 55 56  1  0  0  0  0
 55 57  1  0  0  0  0
 55104  1  0  0  0  0
 57 58  2  0  0  0  0
 57 59  1  0  0  0  0
 59 60  1  0  0  0  0
 59 61  1  0  0  0  0
 61 62  1  0  0  0  0
 61 63  1  0  0  0  0
 61 64  1  0  0  0  0
 64 65  1  0  0  0  0
 64 66  1  0  0  0  0
 64 67  1  0  0  0  0
 67 68  2  0  0  0  0
 67 69  1  0  0  0  0
 69 70  1  0  0  0  0
 69 71  1  0  0  0  0
 71 72  1  0  0  0  0
 71 73  1  0  0  0  0
 71 74  1  0  0  0  0
 74 75  1  0  0  0  0
 74 76  1  0  0  0  0
 74 77  1  0  0  0  0
 77 78  1  0  0  0  0
 78 79  2  0  0  0  0
 78 80  1  0  0  0  0
 80 81  1  0  0  0  0
 80 82  1  0  0  0  0
 80 83  1  0  0  0  0
 83 84  2  0  0  0  0
 83 85  1  0  0  0  0
 85 86  1  0  0  0  0
 85 87  2  0  0  0  0
 87 88  1  0  0  0  0
 87 89  1  0  0  0  0
 89 90  2  0  0  0  0
 89 96  1  0  0  0  0
 90 91  1  0  0  0  0
 90 92  1  0  0  0  0
 92 93  2  0  0  0  0
 92 99  1  0  0  0  0
 93 94  1  0  0  0  0
 93 98  1  0  0  0  0
 94 95  1  0  0  0  0
 94 96  2  0  0  0  0
 96 97  1  0  0  0  0
 99100  1  0  0  0  0
100101  1  0  0  0  0
100102  1  0  0  0  0
100103  1  0  0  0  0
104105  1  0  0  0  0
M  BCL ATM C_TeTeTeTe H_S H_S H_S C_TeTeTeTe C_TeTeTeTe H_S H_S H_S C_TeTeTeTe H_S H_S O_Tr2TrTrPi2 P_TeTeTeTePi O_Tr2Tr2TrPi O_Te2Te2Te2Te O_Tr2TrTrPi2 P_TeTeTeTePi O_Te2Te2TeTe O_Tr2Tr2TrPi O_Tr2TrTrPi2 C_TeTeTeTe H_S H_S C_TeTeTeTe H_S C_TeTeTeTe H_S C_TeTeTeTe H_S C_TeTeTeTe H_S O_Te2Te2TeTe N_TrTrTrPi2 C_TrTrTrPi H_S N_Tr2TrTrPi C_TrTrTrPi C_TrTrTrPi N_Tr2TrTrPi C_TrTrTrPi H_S N_Tr2TrTrPi C_TrTrTrPi N_TrTrTrPi2 H_S H_S O_Te2Te2TeTe H_S O_Tr2TrTrPi2 P_TeTeTeTePi O_Tr2Tr2TrPi O_Te2Te2Te2Te O_Te2Te2Te2Te C_TeTeTeTe H_S C_TrTrTrPi O_Tr2Tr2TrPi N_TrTrTrPi2 H_S C_TeTeTeTe H_S H_S C_TeTeTeTe H_S H_S C_TrTrTrPi O_Tr2Tr2TrPi N_TrTrTrPi2 H_S C_TeTeTeTe H_S H_S C_TeTeTeTe H_S H_S S_Te2Te2TeTe C_TrTrTrPi O_Tr2Tr2TrPi C_TeTeTeTe H_S H_S C_TrTrTrPi O_Tr2Tr2TrPi C_TrTrTrPi H_S C_TrTrTrPi H_S C_TrTrTrPi C_TrTrTrPi H_S C_TrTrTrPi C_TrTrTrPi C_TrTrTrPi H_S C_TrTrTrPi H_S O_Te2Te2Te2Te O_Tr2TrTrPi2 C_TeTeTeTe H_S H_S H_S O_Te2Te2TeTe H_S
M  BCL BND NonConjugatedSingleBond NonConjugatedSingleBond NonConjugatedSingleBond NonConjugatedSingleBond NonConjugatedSingleBond NonConjugatedSingleBond NonConjugatedSingleBond NonConjugatedSingleBond NonConjugatedSingleBond NonConjugatedSingleBond NonConjugatedSingleBond NonConjugatedSingleBond NonConjugatedSingleBond ConjugatedSingleBond ConjugatedDoubleBond ConjugatedSingleBond ConjugatedSingleBond ConjugatedSingleBond ConjugatedSingleBond ConjugatedDoubleBond ConjugatedSingleBond NonConjugatedSingleBond NonConjugatedSingleBond NonConjugatedSingleBond NonConjugatedSingleBond NonConjugatedSingleBond NonConjugatedSingleBondInRing NonConjugatedSingleBondInRing NonConjugatedSingleBond NonConjugatedSingleBondInRing NonConjugatedSingleBond NonConjugatedSingleBond NonConjugatedSingleBondInRing NonConjugatedSingleBond NonConjugatedSingleBond NonConjugatedSingleBondInRing NonConjugatedSingleBond AromaticSingleBond AromaticSingleBond NonConjugatedSingleBond AromaticDoubleBond AromaticSingleBond AromaticSingleBond AromaticDoubleBond AromaticDoubleBond ConjugatedSingleBond AromaticSingleBond NonConjugatedSingleBond AromaticDoubleBond AromaticSingleBond NonConjugatedSingleBond NonConjugatedSingleBond NonConjugatedSingleBond ConjugatedSingleBond ConjugatedDoubleBond ConjugatedSingleBond ConjugatedSingleBond NonConjugatedSingleBond NonConjugatedSingleBond NonConjugatedSingleBond ConjugatedDoubleBond AmideSingleBond NonConjugatedSingleBond NonConjugatedSingleBond NonConjugatedSingleBond NonConjugatedSingleBond NonConjugatedSingleBond NonConjugatedSingleBond NonConjugatedSingleBond NonConjugatedSingleBond ConjugatedDoubleBond AmideSingleBond NonConjugatedSingleBond NonConjugatedSingleBond NonConjugatedSingleBond NonConjugatedSingleBond NonConjugatedSingleBond NonConjugatedSingleBond NonConjugatedSingleBond NonConjugatedSingleBond ConjugatedSingleBond ConjugatedDoubleBond NonConjugatedSingleBond NonConjugatedSingleBond NonConjugatedSingleBond NonConjugatedSingleBond ConjugatedDoubleBond ConjugatedSingleBond NonConjugatedSingleBond ConjugatedDoubleBond NonConjugatedSingleBond ConjugatedSingleBond AromaticDoubleBond AromaticSingleBond NonConjugatedSingleBond AromaticSingleBond AromaticDoubleBond ConjugatedSingleBond AromaticSingleBond ConjugatedSingleBond NonConjugatedSingleBond AromaticDoubleBond NonConjugatedSingleBond NonConjugatedSingleBond NonConjugatedSingleBond NonConjugatedSingleBond NonConjugatedSingleBond NonConjugatedSingleBond
M  BCL CHI  14   R  18   S  25   R  27   R  29   R  31   S  55   R
M  BCL DBI - - - - - - - - - - - E - - -
M  END
> <ConfClashScore>
0.00189996 

> <ConfOneFourInteractionScore>
-0.959173 

> <ConfScore>
0.621229 

> <ConfScorePBest>
0.00490145 

> <ConfTolerance>
6.71468 

$$$$
