# created with PyMOL 2.5.2
@<TRIPOS>MOLECULE
L04
37 39 1                 
SMALL
USER_CHARGES
@<TRIPOS>ATOM
1	   C	13.662	-4.453	0.000	C.3	1	UNK0	0.000	
2	   N	13.907	-3.432	0.000	N.pl3	1	UNK0	0.000	
3	   O	12.989	-3.961	0.000	O.3	1	UNK0	0.000	
4	   C	13.420	-5.221	0.000	C.3	1	UNK0	0.000	
5	   C	13.199	-3.008	0.000	C.2	1	UNK0	0.000	
6	   C	14.633	-3.008	0.000	C.2	1	UNK0	0.000	
7	   C	12.330	-4.434	0.000	C.3	1	UNK0	0.000	
8	   C	12.599	-5.221	0.000	C.3	1	UNK0	0.000	
9	   O	13.908	-5.887	0.000	O.3	1	UNK0	0.000	
10	   N	13.199	-2.176	0.000	N.pl3	1	UNK0	0.000	
11	   O	12.484	-3.413	0.000	O.2	1	UNK0	0.000	
12	   C	14.633	-2.176	0.000	C.2	1	UNK0	0.000	
13	   C	11.547	-4.184	0.000	C.3	1	UNK0	0.000	
14	   O	12.115	-5.891	0.000	O.3	1	UNK0	0.000	
15	   C	13.910	-1.763	0.000	C.2	1	UNK0	0.000	
16	   O	11.373	-3.382	0.000	O.3	1	UNK0	0.000	
17	   O	13.910	-0.938	0.000	O.2	1	UNK0	0.000	
18	   P	10.548	-3.378	0.000	P.3	1	UNK0	0.000	
19	   O	9.722	-3.378	0.000	O.3	1	UNK0	0.000	
20	   O	10.548	-2.557	0.000	O.co2	1	UNK0	0.000	
21	   O	10.544	-4.203	0.000	O.co2	1	UNK0	0.000	
22	   P	8.901	-3.378	0.000	P.3	1	UNK0	0.000	
23	   O	8.073	-3.374	0.000	O.3	1	UNK0	0.000	
24	   O	8.901	-2.557	0.000	O.co2	1	UNK0	0.000	
25	   O	8.901	-4.203	0.000	O.co2	1	UNK0	0.000	
26	   C	7.361	-3.787	0.000	C.3	1	UNK0	0.000	
27	   O	6.694	-3.302	0.000	O.3	1	UNK0	0.000	
28	   C	7.106	-4.571	0.000	C.3	1	UNK0	0.000	
29	   O	7.519	-5.286	0.000	O.3	1	UNK0	0.000	
30	   C	6.281	-4.571	0.000	C.3	1	UNK0	0.000	
31	   O	5.869	-5.286	0.000	O.3	1	UNK0	0.000	
32	   C	5.016	-2.776	0.000	C.3	1	UNK0	0.000	
33	   O	4.219	-2.563	0.000	O.3	1	UNK0	0.000	
34	   C	5.229	-3.573	0.000	C.3	1	UNK0	0.000	
35	   O	4.646	-4.156	0.000	O.3	1	UNK0	0.000	
36	   C	6.026	-3.787	0.000	C.3	1	UNK0	0.000	
37	   H	6.024	-2.884	0.000	 H	1	UNK0	0.000	
@<TRIPOS>BOND
1 1 2 1
2 1 3 1
3 1 4 1
4 2 5 1
5 2 6 1
6 3 7 1
7 4 8 1
8 4 9 1
9 5 10 1
10 5 11 2
11 6 12 2
12 7 8 1
13 7 13 1
14 8 14 1
15 10 15 1
16 12 15 1
17 13 16 1
18 15 17 2
19 16 18 1
20 18 19 1
21 18 20 1
22 18 21 2
23 19 22 1
24 22 23 1
25 22 24 1
26 22 25 2
27 23 26 1
28 26 27 1
29 26 28 1
30 28 29 1
31 28 30 1
32 30 31 1
33 32 33 1
34 32 34 1
35 34 35 1
36 27 36 1
37 30 36 1
38 34 36 1
39 36 37 1
@<TRIPOS>SUBSTRUCTURE
1	UNK0	1	GROUP	1 ****	UNK
