# created with PyMOL 2.4.0
@<TRIPOS>MOLECULE
L04.****
58 60 1                 
SMALL
USER_CHARGES
@<TRIPOS>ATOM
1	   C	13.662	-4.453	0.000	C.3	1	UNK0	0.000	
2	   H	13.662	-4.453	-1.090	 H	1	UNK0	0.000	
3	   N	13.907	-3.432	0.000	N.pl3	1	UNK0	0.000	
4	   O	12.989	-3.961	0.000	O.3	1	UNK0	0.000	
5	   C	13.420	-5.221	0.000	C.3	1	UNK0	0.000	
6	   H	13.420	-5.221	-1.090	 H	1	UNK0	0.000	
7	   C	13.199	-3.008	0.000	C.2	1	UNK0	0.000	
8	   C	14.633	-3.008	0.000	C.2	1	UNK0	0.000	
9	   H	15.570	-3.546	0.000	 H	1	UNK0	0.000	
10	   C	12.330	-4.434	0.000	C.3	1	UNK0	0.000	
11	   H	12.330	-4.434	1.090	 H	1	UNK0	0.000	
12	   C	12.599	-5.221	0.000	C.3	1	UNK0	0.000	
13	   H	12.599	-5.221	-1.090	 H	1	UNK0	0.000	
14	   O	13.908	-5.887	0.000	O.3	1	UNK0	0.000	
15	   H	13.440	-6.589	-0.458	 H	1	UNK0	0.000	
16	   N	13.199	-2.176	0.000	N.pl3	1	UNK0	0.000	
17	   H	12.324	-1.672	0.000	 H	1	UNK0	0.000	
18	   O	12.484	-3.413	0.000	O.2	1	UNK0	0.000	
19	   C	14.633	-2.176	0.000	C.2	1	UNK0	0.000	
20	   H	15.567	-1.634	0.000	 H	1	UNK0	0.000	
21	   C	11.547	-4.184	0.000	C.3	1	UNK0	0.000	
22	   H	11.081	-4.607	0.890	 H	1	UNK0	0.000	
23	   H	11.081	-4.607	-0.890	 H	1	UNK0	0.000	
24	   O	12.115	-5.891	0.000	O.3	1	UNK0	0.000	
25	   H	11.303	-5.662	-0.458	 H	1	UNK0	0.000	
26	   C	13.910	-1.763	0.000	C.2	1	UNK0	0.000	
27	   O	11.373	-3.382	0.000	O.3	1	UNK0	0.000	
28	   O	13.910	-0.938	0.000	O.2	1	UNK0	0.000	
29	   P	10.548	-3.378	0.000	 P	1	UNK0	0.000	
30	   O	9.722	-3.378	0.000	O.3	1	UNK0	0.000	
31	   O	10.548	-2.557	0.000	O.2	1	UNK0	0.000	
32	   O	10.544	-4.203	0.000	O.2	1	UNK0	0.000	
33	   P	8.901	-3.378	0.000	 P	1	UNK0	0.000	
34	   O	8.073	-3.374	0.000	O.3	1	UNK0	0.000	
35	   O	8.901	-2.557	0.000	O.2	1	UNK0	0.000	
36	   O	8.901	-4.203	0.000	O.2	1	UNK0	0.000	
37	   C	7.361	-3.787	0.000	C.3	1	UNK0	0.000	
38	   H	7.361	-3.787	-1.090	 H	1	UNK0	0.000	
39	   O	6.694	-3.302	0.000	O.3	1	UNK0	0.000	
40	   C	7.106	-4.571	0.000	C.3	1	UNK0	0.000	
41	   H	7.106	-4.571	1.090	 H	1	UNK0	0.000	
42	   O	7.519	-5.286	0.000	O.3	1	UNK0	0.000	
43	   H	8.350	-5.141	0.458	 H	1	UNK0	0.000	
44	   C	6.281	-4.571	0.000	C.3	1	UNK0	0.000	
45	   H	6.281	-4.571	1.090	 H	1	UNK0	0.000	
46	   O	5.869	-5.286	0.000	O.3	1	UNK0	0.000	
47	   H	5.724	-5.537	-0.915	 H	1	UNK0	0.000	
48	   C	5.016	-2.776	0.000	C.3	1	UNK0	0.000	
49	   H	5.461	-2.331	0.890	 H	1	UNK0	0.000	
50	   H	5.461	-2.331	-0.890	 H	1	UNK0	0.000	
51	   O	4.219	-2.563	0.000	O.3	1	UNK0	0.000	
52	   H	3.815	-2.950	0.780	 H	1	UNK0	0.000	
53	   C	5.229	-3.573	0.000	C.3	1	UNK0	0.000	
54	   H	5.229	-3.573	-1.090	 H	1	UNK0	0.000	
55	   O	4.646	-4.156	0.000	O.3	1	UNK0	0.000	
56	   H	4.441	-4.361	0.915	 H	1	UNK0	0.000	
57	   C	6.026	-3.787	0.000	C.3	1	UNK0	0.000	
58	   H	6.026	-3.787	1.090	 H	1	UNK0	0.000	
@<TRIPOS>BOND
1 1 2 1
2 1 3 1
3 1 4 1
4 1 5 1
5 3 7 1
6 3 8 1
7 4 10 1
8 5 6 1
9 5 12 1
10 5 14 1
11 7 16 1
12 7 18 2
13 8 9 1
14 8 19 2
15 10 11 1
16 10 12 1
17 10 21 1
18 12 13 1
19 12 24 1
20 14 15 1
21 16 17 1
22 16 26 1
23 19 20 1
24 19 26 1
25 21 22 1
26 21 23 1
27 21 27 1
28 24 25 1
29 26 28 2
30 27 29 1
31 29 30 1
32 29 31 ar
33 29 32 ar
34 30 33 1
35 33 34 1
36 33 35 ar
37 33 36 ar
38 34 37 1
39 37 38 1
40 37 39 1
41 37 40 1
42 39 57 1
43 40 41 1
44 40 42 1
45 40 44 1
46 42 43 1
47 44 45 1
48 44 46 1
49 44 57 1
50 46 47 1
51 48 49 1
52 48 50 1
53 48 51 1
54 48 53 1
55 51 52 1
56 53 54 1
57 53 55 1
58 53 57 1
59 55 56 1
60 57 58 1
@<TRIPOS>SUBSTRUCTURE
1	UNK0	1	GROUP	1 ****	UNK
