# created with PyMOL 2.5.2
@<TRIPOS>MOLECULE
L05
107 110 1               
SMALL
USER_CHARGES
@<TRIPOS>ATOM
1	   C	11.942	-4.498	0.000	C.3	1	UNK0	0.000	
2	   O	11.274	-4.013	0.000	O.3	1	UNK0	0.000	
3	   C	11.687	-5.282	0.000	C.3	1	UNK0	0.000	
4	   O	12.099	-5.997	0.000	O.3	1	UNK0	0.000	
5	   C	10.862	-5.282	0.000	C.3	1	UNK0	0.000	
6	   O	10.449	-5.997	0.000	O.3	1	UNK0	0.000	
7	   C	9.597	-3.487	0.000	C.3	1	UNK0	0.000	
8	   O	8.800	-3.274	0.000	O.3	1	UNK0	0.000	
9	   C	9.810	-4.284	0.000	C.3	1	UNK0	0.000	
10	   O	9.227	-4.867	0.000	O.3	1	UNK0	0.000	
11	   C	10.607	-4.498	0.000	C.3	1	UNK0	0.000	
12	   H	10.607	-3.673	0.000	 H	1	UNK0	0.000	
13	   C	8.515	-5.280	0.000	C.3	1	UNK0	0.000	
14	   O	7.848	-4.795	0.000	O.3	1	UNK0	0.000	
15	   C	8.260	-6.065	0.000	C.3	1	UNK0	0.000	
16	   O	8.673	-6.779	0.000	O.3	1	UNK0	0.000	
17	   C	7.435	-6.065	0.000	C.3	1	UNK0	0.000	
18	   O	7.023	-6.779	0.000	O.3	1	UNK0	0.000	
19	   C	6.170	-4.270	0.000	C.3	1	UNK0	0.000	
20	   O	5.373	-4.056	0.000	O.3	1	UNK0	0.000	
21	   C	6.384	-5.067	0.000	C.3	1	UNK0	0.000	
22	   O	5.800	-5.650	0.000	O.3	1	UNK0	0.000	
23	   C	7.180	-5.280	0.000	C.3	1	UNK0	0.000	
24	   H	7.180	-4.455	0.000	 H	1	UNK0	0.000	
25	   O	12.907	-4.041	0.000	O.3	1	UNK0	0.000	
26	   O	22.261	-5.737	0.000	O.3	1	UNK0	0.000	
27	   P	21.395	-5.737	0.000	P.3	1	UNK0	0.000	
28	   O	20.528	-5.737	0.000	O.3	1	UNK0	0.000	
29	   O	21.395	-4.870	0.000	O.co2	1	UNK0	0.000	
30	   O	21.395	-6.603	0.000	O.co2	1	UNK0	0.000	
31	   P	19.662	-5.737	0.000	P.3	1	UNK0	0.000	
32	   O	18.796	-5.737	0.000	O.3	1	UNK0	0.000	
33	   O	19.662	-4.870	0.000	O.co2	1	UNK0	0.000	
34	   O	19.662	-6.603	0.000	O.co2	1	UNK0	0.000	
35	   C	22.976	-5.324	0.000	C.3	1	UNK0	0.000	
36	   C	23.690	-5.737	0.000	C.2	1	UNK0	0.000	
37	   C	23.690	-6.562	0.000	C.2	1	UNK0	0.000	
38	   C	24.404	-6.974	0.000	C.3	1	UNK0	0.000	
39	   C	22.976	-6.974	0.000	C.3	1	UNK0	0.000	
40	   C	22.976	-7.799	0.000	C.3	1	UNK0	0.000	
41	   C	23.690	-8.212	0.000	C.2	1	UNK0	0.000	
42	   C	23.690	-9.037	0.000	C.2	1	UNK0	0.000	
43	   C	24.404	-9.449	0.000	C.3	1	UNK0	0.000	
44	   C	22.976	-9.449	0.000	C.3	1	UNK0	0.000	
45	   C	22.976	-10.274	0.000	C.3	1	UNK0	0.000	
46	   C	23.690	-10.687	0.000	C.2	1	UNK0	0.000	
47	   C	23.690	-11.512	0.000	C.2	1	UNK0	0.000	
48	   C	22.976	-11.924	0.000	C.3	1	UNK0	0.000	
49	   C	24.405	-11.924	0.000	C.3	1	UNK0	0.000	
50	   C	22.976	-12.749	0.000	C.3	1	UNK0	0.000	
51	   C	23.690	-13.162	0.000	C.2	1	UNK0	0.000	
52	   C	23.690	-13.986	0.000	C.2	1	UNK0	0.000	
53	   C	22.976	-14.399	0.000	C.3	1	UNK0	0.000	
54	   C	24.405	-14.399	0.000	C.3	1	UNK0	0.000	
55	   C	22.976	-15.224	0.000	C.3	1	UNK0	0.000	
56	   C	23.690	-15.637	0.000	C.2	1	UNK0	0.000	
57	   C	23.690	-16.462	0.000	C.2	1	UNK0	0.000	
58	   C	22.976	-16.874	0.000	C.3	1	UNK0	0.000	
59	   C	24.405	-16.874	0.000	C.3	1	UNK0	0.000	
60	   C	22.260	-16.463	0.000	C.3	1	UNK0	0.000	
61	   C	21.547	-16.878	0.000	C.2	1	UNK0	0.000	
62	   C	20.835	-16.469	0.000	C.2	1	UNK0	0.000	
63	   C	20.831	-15.645	0.000	C.3	1	UNK0	0.000	
64	   C	20.122	-16.885	0.000	C.3	1	UNK0	0.000	
65	   C	20.114	-15.242	0.000	C.3	1	UNK0	0.000	
66	   C	19.402	-15.657	0.000	C.2	1	UNK0	0.000	
67	   C	18.687	-15.245	0.000	C.2	1	UNK0	0.000	
68	   C	18.686	-14.420	0.000	C.3	1	UNK0	0.000	
69	   C	17.973	-15.658	0.000	C.3	1	UNK0	0.000	
70	   C	17.971	-14.008	0.000	C.3	1	UNK0	0.000	
71	   C	17.257	-14.421	0.000	C.2	1	UNK0	0.000	
72	   C	16.542	-14.009	0.000	C.2	1	UNK0	0.000	
73	   C	16.542	-13.184	0.000	C.3	1	UNK0	0.000	
74	   C	15.828	-14.422	0.000	C.3	1	UNK0	0.000	
75	   C	15.827	-12.772	0.000	C.3	1	UNK0	0.000	
76	   C	15.107	-13.193	0.000	C.2	1	UNK0	0.000	
77	   C	14.392	-12.781	0.000	C.2	1	UNK0	0.000	
78	   C	13.678	-13.193	0.000	C.3	1	UNK0	0.000	
79	   C	14.391	-11.956	0.000	C.3	1	UNK0	0.000	
80	   C	12.963	-12.782	0.000	C.3	1	UNK0	0.000	
81	   C	12.249	-13.195	0.000	C.2	1	UNK0	0.000	
82	   C	11.534	-12.783	0.000	C.2	1	UNK0	0.000	
83	   C	10.820	-13.196	0.000	C.3	1	UNK0	0.000	
84	   C	11.533	-11.958	0.000	C.3	1	UNK0	0.000	
85	   C	15.222	-5.333	0.000	C.3	1	UNK0	0.000	
86	   C	14.509	-5.747	0.000	C.3	1	UNK0	0.000	
87	   O	15.220	-4.508	0.000	O.3	1	UNK0	0.000	
88	   C	13.794	-5.337	0.000	C.3	1	UNK0	0.000	
89	   C	14.505	-4.097	0.000	C.3	1	UNK0	0.000	
90	   C	13.791	-4.512	0.000	C.3	1	UNK0	0.000	
91	   O	15.938	-5.744	0.000	O.3	1	UNK0	0.000	
92	   O	14.511	-6.572	0.000	O.3	1	UNK0	0.000	
93	   O	13.080	-5.751	0.000	O.3	1	UNK0	0.000	
94	   C	14.503	-3.272	0.000	C.3	1	UNK0	0.000	
95	   C	18.080	-5.326	0.000	C.3	1	UNK0	0.000	
96	   C	17.367	-5.740	0.000	C.3	1	UNK0	0.000	
97	   O	18.078	-4.501	0.000	O.3	1	UNK0	0.000	
98	   C	16.652	-5.330	0.000	C.3	1	UNK0	0.000	
99	   C	17.363	-4.090	0.000	C.3	1	UNK0	0.000	
100	   C	16.649	-4.504	0.000	C.3	1	UNK0	0.000	
101	   N	17.369	-6.565	0.000	N.pl3	1	UNK0	0.000	
102	   O	15.934	-4.094	0.000	O.3	1	UNK0	0.000	
103	   C	17.361	-3.265	0.000	C.3	1	UNK0	0.000	
104	   O	16.645	-2.855	0.000	O.3	1	UNK0	0.000	
105	   C	16.656	-6.980	0.000	C.2	1	UNK0	0.000	
106	   O	16.658	-7.805	0.000	O.2	1	UNK0	0.000	
107	   C	15.940	-6.569	0.000	C.3	1	UNK0	0.000	
@<TRIPOS>BOND
1 1 25 1
2 1 2 1
3 2 11 1
4 1 3 1
5 3 4 1
6 3 5 1
7 5 6 1
8 7 8 1
9 7 9 1
10 9 10 1
11 5 11 1
12 9 11 1
13 11 12 1
14 10 13 1
15 13 14 1
16 14 23 1
17 13 15 1
18 15 16 1
19 15 17 1
20 17 18 1
21 19 20 1
22 19 21 1
23 21 22 1
24 17 23 1
25 21 23 1
26 23 24 1
27 26 27 1
28 26 35 1
29 27 28 1
30 27 29 1
31 27 30 2
32 28 31 1
33 31 32 1
34 31 33 1
35 31 34 2
36 35 36 1
37 36 37 2
38 37 38 1
39 37 39 1
40 39 40 1
41 40 41 1
42 41 42 2
43 42 43 1
44 42 44 1
45 44 45 1
46 45 46 1
47 46 47 2
48 47 48 1
49 47 49 1
50 48 50 1
51 50 51 1
52 51 52 2
53 52 53 1
54 52 54 1
55 53 55 1
56 55 56 1
57 56 57 2
58 57 58 1
59 57 59 1
60 58 60 1
61 60 61 1
62 61 62 2
63 62 63 1
64 62 64 1
65 63 65 1
66 65 66 1
67 66 67 2
68 67 68 1
69 67 69 1
70 68 70 1
71 70 71 1
72 71 72 2
73 72 73 1
74 72 74 1
75 73 75 1
76 75 76 1
77 76 77 2
78 77 78 1
79 77 79 1
80 78 80 1
81 80 81 1
82 81 82 2
83 82 83 1
84 82 84 1
85 85 86 1
86 85 87 1
87 85 91 1
88 86 88 1
89 86 92 1
90 87 89 1
91 88 90 1
92 88 93 1
93 89 90 1
94 89 94 1
95 25 90 1
96 32 95 1
97 95 96 1
98 95 97 1
99 96 98 1
100 96 101 1
101 97 99 1
102 91 98 1
103 98 100 1
104 99 100 1
105 99 103 1
106 100 102 1
107 101 105 1
108 103 104 1
109 105 106 2
110 105 107 1
@<TRIPOS>SUBSTRUCTURE
1	UNK0	1	GROUP	1 ****	UNK
