L05.****
  PyMOL2.5          3D                             0

230233  0  0  0  0  0  0  0  0999 V2000
   12.9980   -3.3644   -3.5158 C   0  0  0  0  0  0  0  0  0  0  0  0
   13.4545   -3.3921   -4.5052 H   0  0  0  0  0  0  0  0  0  0  0  0
   12.4626   -2.7937   -3.7788 O   0  0  0  0  0  0  0  0  0  0  0  0
   12.6644   -4.1065   -3.6489 C   0  0  0  0  0  0  0  0  0  0  0  0
   12.2079   -4.0787   -2.6595 H   0  0  0  0  0  0  0  0  0  0  0  0
   12.9392   -4.8704   -3.5007 O   0  0  0  0  0  0  0  0  0  0  0  0
   13.5138   -4.8284   -2.7328 H   0  0  0  0  0  0  0  0  0  0  0  0
   11.9234   -3.9950   -3.9939 C   0  0  0  0  0  0  0  0  0  0  0  0
   11.4669   -3.9672   -3.0045 H   0  0  0  0  0  0  0  0  0  0  0  0
   11.4570   -4.6474   -4.1907 O   0  0  0  0  0  0  0  0  0  0  0  0
   11.6651   -5.3504   -3.5711 H   0  0  0  0  0  0  0  0  0  0  0  0
   11.0264   -2.0461   -4.4624 C   0  0  0  0  0  0  0  0  0  0  0  0
   11.1127   -1.6428   -3.4534 H   0  0  0  0  0  0  0  0  0  0  0  0
   11.8582   -1.6881   -5.0691 H   0  0  0  0  0  0  0  0  0  0  0  0
   10.3389   -1.7274   -4.7885 O   0  0  0  0  0  0  0  0  0  0  0  0
   10.4172   -0.7712   -4.7533 H   0  0  0  0  0  0  0  0  0  0  0  0
   11.1115   -2.8643   -4.4002 C   0  0  0  0  0  0  0  0  0  0  0  0
   11.5679   -2.8920   -5.3896 H   0  0  0  0  0  0  0  0  0  0  0  0
   10.5100   -3.3629   -4.6636 O   0  0  0  0  0  0  0  0  0  0  0  0
   11.7988   -3.1840   -4.0741 C   0  0  0  0  0  0  0  0  0  0  0  0
   11.3424   -3.1562   -3.0847 H   0  0  0  0  0  0  0  0  0  0  0  0
    9.8154   -3.6758   -4.9753 C   0  0  0  0  0  0  0  0  0  0  0  0
   10.2719   -3.7035   -5.9648 H   0  0  0  0  0  0  0  0  0  0  0  0
    9.2810   -3.1052   -5.2379 O   0  0  0  0  0  0  0  0  0  0  0  0
    9.4817   -4.4189   -5.1084 C   0  0  0  0  0  0  0  0  0  0  0  0
    9.0252   -4.3911   -4.1190 H   0  0  0  0  0  0  0  0  0  0  0  0
    9.7575   -5.1819   -4.9598 O   0  0  0  0  0  0  0  0  0  0  0  0
   10.2377   -5.4737   -5.7382 H   0  0  0  0  0  0  0  0  0  0  0  0
    8.7407   -4.3074   -5.4534 C   0  0  0  0  0  0  0  0  0  0  0  0
    8.2842   -4.2796   -4.4640 H   0  0  0  0  0  0  0  0  0  0  0  0
    8.2754   -4.9589   -5.6498 O   0  0  0  0  0  0  0  0  0  0  0  0
    8.4948   -5.2116   -6.5497 H   0  0  0  0  0  0  0  0  0  0  0  0
    7.8437   -2.3584   -5.9219 C   0  0  0  0  0  0  0  0  0  0  0  0
    7.9300   -1.9552   -4.9129 H   0  0  0  0  0  0  0  0  0  0  0  0
    8.6755   -2.0005   -6.5287 H   0  0  0  0  0  0  0  0  0  0  0  0
    7.1563   -2.0388   -6.2480 O   0  0  0  0  0  0  0  0  0  0  0  0
    6.4149   -2.3470   -5.7218 H   0  0  0  0  0  0  0  0  0  0  0  0
    7.9297   -3.1768   -5.8593 C   0  0  0  0  0  0  0  0  0  0  0  0
    8.3861   -3.2045   -6.8487 H   0  0  0  0  0  0  0  0  0  0  0  0
    7.3274   -3.6753   -6.1232 O   0  0  0  0  0  0  0  0  0  0  0  0
    6.7323   -3.8274   -5.3853 H   0  0  0  0  0  0  0  0  0  0  0  0
    8.6163   -3.4954   -5.5336 C   0  0  0  0  0  0  0  0  0  0  0  0
    8.1598   -3.4676   -4.5442 H   0  0  0  0  0  0  0  0  0  0  0  0
   13.9257   -3.0422   -3.0968 O   0  0  0  0  0  0  0  0  0  0  0  0
   22.0624   -5.8419   -0.7987 O   0  0  0  0  0  0  0  0  0  0  0  0
   21.2957   -5.7895   -0.3996 P   0  0  0  0  0  0  0  0  0  0  0  0
   20.5452   -5.7521    0.0330 O   0  0  0  0  0  0  0  0  0  0  0  0
   21.4656   -4.9679   -0.1810 O   0  0  0  0  0  0  0  0  0  0  0  0
   21.2036   -6.4412    0.1633 O   0  5  0  0  0  0  0  0  0  0  0  0
   19.7673   -5.6350   -0.3292 P   0  0  0  0  0  0  0  0  0  0  0  0
   18.9894   -5.5180   -0.6913 O   0  0  0  0  0  0  0  0  0  0  0  0
   19.5213   -5.0865    0.2956 O   0  0  0  0  0  0  0  0  0  0  0  0
   19.6518   -6.4928   -0.3584 O   0  5  0  0  0  0  0  0  0  0  0  0
   22.2048   -5.0568   -1.0112 C   0  0  0  0  0  0  0  0  0  0  0  0
   22.5202   -4.5378   -0.1061 H   0  0  0  0  0  0  0  0  0  0  0  0
   21.2550   -4.6459   -1.3534 H   0  0  0  0  0  0  0  0  0  0  0  0
   22.7632   -4.8825   -1.5927 C   0  0  0  0  0  0  0  0  0  0  0  0
   22.9500   -3.8559   -1.8711 H   0  0  0  0  0  0  0  0  0  0  0  0
   23.1792   -5.4919   -1.9618 C   0  0  0  0  0  0  0  0  0  0  0  0
   23.7371   -5.3169   -2.5429 C   0  0  0  0  0  0  0  0  0  0  0  0
   24.1800   -6.2420   -2.9118 H   0  0  0  0  0  0  0  0  0  0  0  0
   24.5172   -4.6845   -2.1189 H   0  0  0  0  0  0  0  0  0  0  0  0
   23.2520   -4.7926   -3.3662 H   0  0  0  0  0  0  0  0  0  0  0  0
   23.0368   -6.2755   -1.7494 C   0  0  0  0  0  0  0  0  0  0  0  0
   21.9782   -6.4631   -1.9294 H   0  0  0  0  0  0  0  0  0  0  0  0
   23.2435   -6.3549   -0.6821 H   0  0  0  0  0  0  0  0  0  0  0  0
   23.4528   -6.8849   -2.1185 C   0  0  0  0  0  0  0  0  0  0  0  0
   22.7114   -7.5372   -2.5799 H   0  0  0  0  0  0  0  0  0  0  0  0
   23.9766   -7.4290   -1.3326 H   0  0  0  0  0  0  0  0  0  0  0  0
   24.0112   -6.7106   -2.7000 C   0  0  0  0  0  0  0  0  0  0  0  0
   24.1979   -5.6840   -2.9784 H   0  0  0  0  0  0  0  0  0  0  0  0
   24.4272   -7.3200   -3.0691 C   0  0  0  0  0  0  0  0  0  0  0  0
   24.9851   -7.1450   -3.6502 C   0  0  0  0  0  0  0  0  0  0  0  0
   25.4279   -8.0701   -4.0191 H   0  0  0  0  0  0  0  0  0  0  0  0
   25.7651   -6.5126   -3.2262 H   0  0  0  0  0  0  0  0  0  0  0  0
   24.4999   -6.6207   -4.4735 H   0  0  0  0  0  0  0  0  0  0  0  0
   24.2848   -8.1037   -2.8567 C   0  0  0  0  0  0  0  0  0  0  0  0
   23.2262   -8.2912   -3.0368 H   0  0  0  0  0  0  0  0  0  0  0  0
   24.4914   -8.1830   -1.7894 H   0  0  0  0  0  0  0  0  0  0  0  0
   24.7007   -8.7131   -3.2258 C   0  0  0  0  0  0  0  0  0  0  0  0
   23.9594   -9.3653   -3.6873 H   0  0  0  0  0  0  0  0  0  0  0  0
   25.2246   -9.2572   -2.4399 H   0  0  0  0  0  0  0  0  0  0  0  0
   25.2592   -8.5388   -3.8073 C   0  0  0  0  0  0  0  0  0  0  0  0
   25.4459   -7.5121   -4.0857 H   0  0  0  0  0  0  0  0  0  0  0  0
   25.6752   -9.1481   -4.1764 C   0  0  0  0  0  0  0  0  0  0  0  0
   25.5327   -9.9318   -3.9640 C   0  0  0  0  0  0  0  0  0  0  0  0
   24.4742  -10.1193   -4.1441 H   0  0  0  0  0  0  0  0  0  0  0  0
   25.7394  -10.0112   -2.8967 H   0  0  0  0  0  0  0  0  0  0  0  0
   26.2336   -8.9724   -4.7581 C   0  0  0  0  0  0  0  0  0  0  0  0
   26.6767   -9.8972   -5.1274 H   0  0  0  0  0  0  0  0  0  0  0  0
   27.0134   -8.3399   -4.3339 H   0  0  0  0  0  0  0  0  0  0  0  0
   25.7482   -8.4481   -5.5812 H   0  0  0  0  0  0  0  0  0  0  0  0
   25.9487  -10.5412   -4.3331 C   0  0  0  0  0  0  0  0  0  0  0  0
   25.2073  -11.1934   -4.7946 H   0  0  0  0  0  0  0  0  0  0  0  0
   26.4725  -11.0853   -3.5472 H   0  0  0  0  0  0  0  0  0  0  0  0
   26.5071  -10.3669   -4.9146 C   0  0  0  0  0  0  0  0  0  0  0  0
   26.6939   -9.3403   -5.1931 H   0  0  0  0  0  0  0  0  0  0  0  0
   26.9226  -10.9755   -5.2833 C   0  0  0  0  0  0  0  0  0  0  0  0
   26.7807  -11.7600   -5.0713 C   0  0  0  0  0  0  0  0  0  0  0  0
   25.7222  -11.9477   -5.2515 H   0  0  0  0  0  0  0  0  0  0  0  0
   26.9874  -11.8396   -4.0041 H   0  0  0  0  0  0  0  0  0  0  0  0
   27.4815  -10.8006   -5.8654 C   0  0  0  0  0  0  0  0  0  0  0  0
   27.9241  -11.7260   -6.2340 H   0  0  0  0  0  0  0  0  0  0  0  0
   28.2617  -10.1683   -5.4416 H   0  0  0  0  0  0  0  0  0  0  0  0
   26.9965  -10.2765   -6.6889 H   0  0  0  0  0  0  0  0  0  0  0  0
   27.1967  -12.3693   -5.4404 C   0  0  0  0  0  0  0  0  0  0  0  0
   26.4553  -13.0216   -5.9019 H   0  0  0  0  0  0  0  0  0  0  0  0
   27.7205  -12.9134   -4.6545 H   0  0  0  0  0  0  0  0  0  0  0  0
   27.7551  -12.1950   -6.0220 C   0  0  0  0  0  0  0  0  0  0  0  0
   27.9418  -11.1684   -6.3004 H   0  0  0  0  0  0  0  0  0  0  0  0
   28.1711  -12.8044   -6.3911 C   0  0  0  0  0  0  0  0  0  0  0  0
   28.0287  -13.5881   -6.1787 C   0  0  0  0  0  0  0  0  0  0  0  0
   28.9789  -13.9983   -5.8369 H   0  0  0  0  0  0  0  0  0  0  0  0
   27.7137  -14.1065   -7.0843 H   0  0  0  0  0  0  0  0  0  0  0  0
   28.7295  -12.6287   -6.9727 C   0  0  0  0  0  0  0  0  0  0  0  0
   29.1727  -13.5535   -7.3420 H   0  0  0  0  0  0  0  0  0  0  0  0
   29.5093  -11.9962   -6.5485 H   0  0  0  0  0  0  0  0  0  0  0  0
   28.2441  -12.1043   -7.7959 H   0  0  0  0  0  0  0  0  0  0  0  0
   27.4703  -13.7652   -5.5969 C   0  0  0  0  0  0  0  0  0  0  0  0
   26.5194  -13.3557   -5.9380 H   0  0  0  0  0  0  0  0  0  0  0  0
   27.7846  -13.2476   -4.6906 H   0  0  0  0  0  0  0  0  0  0  0  0
   27.3299  -14.5504   -5.3864 C   0  0  0  0  0  0  0  0  0  0  0  0
   27.8759  -15.3460   -5.8713 H   0  0  0  0  0  0  0  0  0  0  0  0
   26.7744  -14.7263   -4.8078 C   0  0  0  0  0  0  0  0  0  0  0  0
   26.3570  -14.1203   -4.4369 C   0  0  0  0  0  0  0  0  0  0  0  0
   25.8295  -13.5746   -5.2192 H   0  0  0  0  0  0  0  0  0  0  0  0
   27.0947  -13.4664   -3.9719 H   0  0  0  0  0  0  0  0  0  0  0  0
   26.6345  -15.5122   -4.5977 C   0  0  0  0  0  0  0  0  0  0  0  0
   25.8714  -15.5503   -3.8204 H   0  0  0  0  0  0  0  0  0  0  0  0
   27.5563  -15.9581   -4.2240 H   0  0  0  0  0  0  0  0  0  0  0  0
   26.2911  -16.0662   -5.4714 H   0  0  0  0  0  0  0  0  0  0  0  0
   25.8022  -14.3040   -3.8582 C   0  0  0  0  0  0  0  0  0  0  0  0
   24.8498  -13.8966   -4.1976 H   0  0  0  0  0  0  0  0  0  0  0  0
   26.1151  -13.7884   -2.9503 H   0  0  0  0  0  0  0  0  0  0  0  0
   25.6622  -15.0886   -3.6482 C   0  0  0  0  0  0  0  0  0  0  0  0
   26.2081  -15.8845   -4.1329 H   0  0  0  0  0  0  0  0  0  0  0  0
   25.1038  -15.2643   -3.0666 C   0  0  0  0  0  0  0  0  0  0  0  0
   24.6873  -14.6556   -2.6970 C   0  0  0  0  0  0  0  0  0  0  0  0
   24.1629  -14.1112   -3.4823 H   0  0  0  0  0  0  0  0  0  0  0  0
   25.4282  -14.0030   -2.2349 H   0  0  0  0  0  0  0  0  0  0  0  0
   24.9619  -16.0487   -2.8547 C   0  0  0  0  0  0  0  0  0  0  0  0
   24.1985  -16.0825   -2.0774 H   0  0  0  0  0  0  0  0  0  0  0  0
   25.8825  -16.4959   -2.4796 H   0  0  0  0  0  0  0  0  0  0  0  0
   24.6172  -16.6041   -3.7269 H   0  0  0  0  0  0  0  0  0  0  0  0
   24.1289  -14.8313   -2.1153 C   0  0  0  0  0  0  0  0  0  0  0  0
   23.1788  -14.4209   -2.4572 H   0  0  0  0  0  0  0  0  0  0  0  0
   24.4440  -14.3127   -1.2098 H   0  0  0  0  0  0  0  0  0  0  0  0
   23.9870  -15.6157   -1.9034 C   0  0  0  0  0  0  0  0  0  0  0  0
   24.5320  -16.4128   -2.3871 H   0  0  0  0  0  0  0  0  0  0  0  0
   23.4286  -15.7914   -1.3217 C   0  0  0  0  0  0  0  0  0  0  0  0
   23.0126  -15.1820   -0.9526 C   0  0  0  0  0  0  0  0  0  0  0  0
   22.4885  -14.6377   -1.7382 H   0  0  0  0  0  0  0  0  0  0  0  0
   23.7537  -14.5295   -0.4908 H   0  0  0  0  0  0  0  0  0  0  0  0
   23.2867  -16.5758   -1.1098 C   0  0  0  0  0  0  0  0  0  0  0  0
   22.5233  -16.6096   -0.3325 H   0  0  0  0  0  0  0  0  0  0  0  0
   24.2073  -17.0230   -0.7347 H   0  0  0  0  0  0  0  0  0  0  0  0
   22.9420  -17.1312   -1.9821 H   0  0  0  0  0  0  0  0  0  0  0  0
   22.4542  -15.3577   -0.3710 C   0  0  0  0  0  0  0  0  0  0  0  0
   21.5033  -14.9483   -0.7120 H   0  0  0  0  0  0  0  0  0  0  0  0
   22.7686  -14.8402    0.5353 H   0  0  0  0  0  0  0  0  0  0  0  0
   22.3134  -16.1521   -0.1593 C   0  0  0  0  0  0  0  0  0  0  0  0
   22.8596  -16.9475   -0.6444 H   0  0  0  0  0  0  0  0  0  0  0  0
   21.7550  -16.3278    0.4223 C   0  0  0  0  0  0  0  0  0  0  0  0
   21.6126  -17.1114    0.6348 C   0  0  0  0  0  0  0  0  0  0  0  0
   22.5627  -17.5218    0.9766 H   0  0  0  0  0  0  0  0  0  0  0  0
   21.2975  -17.6300   -0.2708 H   0  0  0  0  0  0  0  0  0  0  0  0
   21.3385  -15.7191    0.7920 C   0  0  0  0  0  0  0  0  0  0  0  0
   20.6517  -16.1418    1.5253 H   0  0  0  0  0  0  0  0  0  0  0  0
   20.7742  -15.1596    0.0459 H   0  0  0  0  0  0  0  0  0  0  0  0
   22.0394  -15.0514    1.2933 H   0  0  0  0  0  0  0  0  0  0  0  0
   21.0547  -17.2879    1.2159 C   0  0  0  0  0  0  0  0  0  0  0  0
   20.1043  -16.8777    0.8743 H   0  0  0  0  0  0  0  0  0  0  0  0
   21.3695  -16.7696    2.1217 H   0  0  0  0  0  0  0  0  0  0  0  0
   20.9128  -18.0723    1.4279 C   0  0  0  0  0  0  0  0  0  0  0  0
   21.4578  -18.8694    0.9442 H   0  0  0  0  0  0  0  0  0  0  0  0
   20.3544  -18.2480    2.0095 C   0  0  0  0  0  0  0  0  0  0  0  0
   20.2124  -19.0324    2.2215 C   0  0  0  0  0  0  0  0  0  0  0  0
   19.4490  -19.0662    2.9988 H   0  0  0  0  0  0  0  0  0  0  0  0
   21.1330  -19.4796    2.5966 H   0  0  0  0  0  0  0  0  0  0  0  0
   19.8678  -19.5878    1.3492 H   0  0  0  0  0  0  0  0  0  0  0  0
   19.9379  -17.6393    2.3792 C   0  0  0  0  0  0  0  0  0  0  0  0
   19.2511  -18.0620    3.1125 H   0  0  0  0  0  0  0  0  0  0  0  0
   19.3735  -17.0798    1.6331 H   0  0  0  0  0  0  0  0  0  0  0  0
   20.6387  -16.9716    2.8804 H   0  0  0  0  0  0  0  0  0  0  0  0
   15.8329   -4.6348   -2.1723 C   0  0  0  0  0  0  0  0  0  0  0  0
   15.3765   -4.6070   -1.1829 H   0  0  0  0  0  0  0  0  0  0  0  0
   15.1373   -4.9485   -2.4845 C   0  0  0  0  0  0  0  0  0  0  0  0
   15.5937   -4.9762   -3.4739 H   0  0  0  0  0  0  0  0  0  0  0  0
   15.9411   -3.8173   -2.1453 O   0  0  0  0  0  0  0  0  0  0  0  0
   14.5497   -4.4457   -2.7696 C   0  0  0  0  0  0  0  0  0  0  0  0
   15.0062   -4.4735   -3.7591 H   0  0  0  0  0  0  0  0  0  0  0  0
   15.3537   -3.3136   -2.4305 C   0  0  0  0  0  0  0  0  0  0  0  0
   14.8972   -3.2859   -1.4410 H   0  0  0  0  0  0  0  0  0  0  0  0
   14.6570   -3.6282   -2.7431 C   0  0  0  0  0  0  0  0  0  0  0  0
   15.1135   -3.6559   -3.7325 H   0  0  0  0  0  0  0  0  0  0  0  0
   16.4213   -5.1386   -1.8868 O   0  0  0  0  0  0  0  0  0  0  0  0
   15.0291   -5.7659   -2.5114 O   0  0  0  0  0  0  0  0  0  0  0  0
   14.6078   -6.0302   -1.6903 H   0  0  0  0  0  0  0  0  0  0  0  0
   13.8531   -4.7593   -3.0822 O   0  0  0  0  0  0  0  0  0  0  0  0
   14.0654   -5.6140   -3.4643 H   0  0  0  0  0  0  0  0  0  0  0  0
   15.4619   -2.4962   -2.4035 C   0  0  0  0  0  0  0  0  0  0  0  0
   16.4330   -2.2726   -1.9617 H   0  0  0  0  0  0  0  0  0  0  0  0
   14.6751   -2.0453   -1.7986 H   0  0  0  0  0  0  0  0  0  0  0  0
   15.4205   -2.0906   -3.4144 H   0  0  0  0  0  0  0  0  0  0  0  0
   18.4011   -5.0141   -0.9769 C   0  0  0  0  0  0  0  0  0  0  0  0
   17.9446   -4.9863    0.0125 H   0  0  0  0  0  0  0  0  0  0  0  0
   17.7054   -5.3278   -1.2890 C   0  0  0  0  0  0  0  0  0  0  0  0
   18.1619   -5.3555   -2.2785 H   0  0  0  0  0  0  0  0  0  0  0  0
   18.5092   -4.1967   -0.9499 O   0  0  0  0  0  0  0  0  0  0  0  0
   17.1178   -4.8251   -1.5742 C   0  0  0  0  0  0  0  0  0  0  0  0
   17.5743   -4.8528   -2.5636 H   0  0  0  0  0  0  0  0  0  0  0  0
   17.9218   -3.6929   -1.2350 C   0  0  0  0  0  0  0  0  0  0  0  0
   17.4653   -3.6652   -0.2456 H   0  0  0  0  0  0  0  0  0  0  0  0
   17.2253   -4.0065   -1.5476 C   0  0  0  0  0  0  0  0  0  0  0  0
   17.6817   -4.0342   -2.5370 H   0  0  0  0  0  0  0  0  0  0  0  0
   17.5972   -6.1452   -1.3160 N   0  0  0  0  0  0  0  0  0  0  0  0
   18.3173   -6.7613   -0.9666 H   0  0  0  0  0  0  0  0  0  0  0  0
   16.6377   -3.5038   -1.8328 O   0  0  0  0  0  0  0  0  0  0  0  0
   16.1766   -3.9660   -2.5365 H   0  0  0  0  0  0  0  0  0  0  0  0
   18.0300   -2.8755   -1.2081 C   0  0  0  0  0  0  0  0  0  0  0  0
   18.9336   -2.6584   -1.7777 H   0  0  0  0  0  0  0  0  0  0  0  0
   18.1882   -2.6131   -0.1620 H   0  0  0  0  0  0  0  0  0  0  0  0
   17.4415   -2.3726   -1.4936 O   0  0  0  0  0  0  0  0  0  0  0  0
   16.7202   -2.9208   -1.8111 H   0  0  0  0  0  0  0  0  0  0  0  0
   16.9014   -6.4599   -1.6282 C   0  0  0  0  0  0  0  0  0  0  0  0
   16.7932   -7.2774   -1.6552 O   0  0  0  0  0  0  0  0  0  0  0  0
   16.3131   -5.9561   -1.9138 C   0  0  0  0  0  0  0  0  0  0  0  0
   16.6325   -4.9207   -1.7954 H   0  0  0  0  0  0  0  0  0  0  0  0
   15.3923   -6.1184   -1.3535 H   0  0  0  0  0  0  0  0  0  0  0  0
   16.1377   -6.1637   -2.9693 H   0  0  0  0  0  0  0  0  0  0  0  0
  1  2  1  0  0  0  0
  1  3  1  0  0  0  0
  1  4  1  0  0  0  0
  1 44  1  0  0  0  0
  3 20  1  0  0  0  0
  4  5  1  0  0  0  0
  4  6  1  0  0  0  0
  4  8  1  0  0  0  0
  6  7  1  0  0  0  0
  8  9  1  0  0  0  0
  8 10  1  0  0  0  0
  8 20  1  0  0  0  0
 10 11  1  0  0  0  0
 12 13  1  0  0  0  0
 12 14  1  0  0  0  0
 12 15  1  0  0  0  0
 12 17  1  0  0  0  0
 15 16  1  0  0  0  0
 17 18  1  0  0  0  0
 17 19  1  0  0  0  0
 17 20  1  0  0  0  0
 19 22  1  0  0  0  0
 20 21  1  0  0  0  0
 22 23  1  0  0  0  0
 22 24  1  0  0  0  0
 22 25  1  0  0  0  0
 24 42  1  0  0  0  0
 25 26  1  0  0  0  0
 25 27  1  0  0  0  0
 25 29  1  0  0  0  0
 27 28  1  0  0  0  0
 29 30  1  0  0  0  0
 29 31  1  0  0  0  0
 29 42  1  0  0  0  0
 31 32  1  0  0  0  0
 33 34  1  0  0  0  0
 33 35  1  0  0  0  0
 33 36  1  0  0  0  0
 33 38  1  0  0  0  0
 36 37  1  0  0  0  0
 38 39  1  0  0  0  0
 38 40  1  0  0  0  0
 38 42  1  0  0  0  0
 40 41  1  0  0  0  0
 42 43  1  0  0  0  0
 44194  1  0  0  0  0
 45 46  1  0  0  0  0
 45 54  1  0  0  0  0
 46 47  1  0  0  0  0
 47 50  1  0  0  0  0
 50 51  1  0  0  0  0
 51205  1  0  0  0  0
 54 55  1  0  0  0  0
 54 56  1  0  0  0  0
 54 57  1  0  0  0  0
 57 58  1  0  0  0  0
 57 59  2  0  0  0  0
 59 60  1  0  0  0  0
 59 64  1  0  0  0  0
 60 61  1  0  0  0  0
 60 62  1  0  0  0  0
 60 63  1  0  0  0  0
 64 65  1  0  0  0  0
 64 66  1  0  0  0  0
 64 67  1  0  0  0  0
 67 68  1  0  0  0  0
 67 69  1  0  0  0  0
 67 70  1  0  0  0  0
 70 71  1  0  0  0  0
 70 72  2  0  0  0  0
 72 73  1  0  0  0  0
 72 77  1  0  0  0  0
 73 74  1  0  0  0  0
 73 75  1  0  0  0  0
 73 76  1  0  0  0  0
 77 78  1  0  0  0  0
 77 79  1  0  0  0  0
 77 80  1  0  0  0  0
 80 81  1  0  0  0  0
 80 82  1  0  0  0  0
 80 83  1  0  0  0  0
 83 84  1  0  0  0  0
 83 85  2  0  0  0  0
 85 86  1  0  0  0  0
 85 89  1  0  0  0  0
 86 87  1  0  0  0  0
 86 88  1  0  0  0  0
 86 93  1  0  0  0  0
 89 90  1  0  0  0  0
 89 91  1  0  0  0  0
 89 92  1  0  0  0  0
 93 94  1  0  0  0  0
 93 95  1  0  0  0  0
 93 96  1  0  0  0  0
 96 97  1  0  0  0  0
 96 98  2  0  0  0  0
 98 99  1  0  0  0  0
 98102  1  0  0  0  0
 99100  1  0  0  0  0
 99101  1  0  0  0  0
 99106  1  0  0  0  0
102103  1  0  0  0  0
102104  1  0  0  0  0
102105  1  0  0  0  0
106107  1  0  0  0  0
106108  1  0  0  0  0
106109  1  0  0  0  0
109110  1  0  0  0  0
109111  2  0  0  0  0
111112  1  0  0  0  0
111115  1  0  0  0  0
112113  1  0  0  0  0
112114  1  0  0  0  0
112119  1  0  0  0  0
115116  1  0  0  0  0
115117  1  0  0  0  0
115118  1  0  0  0  0
119120  1  0  0  0  0
119121  1  0  0  0  0
119122  1  0  0  0  0
122123  1  0  0  0  0
122124  2  0  0  0  0
124125  1  0  0  0  0
124128  1  0  0  0  0
125126  1  0  0  0  0
125127  1  0  0  0  0
125132  1  0  0  0  0
128129  1  0  0  0  0
128130  1  0  0  0  0
128131  1  0  0  0  0
132133  1  0  0  0  0
132134  1  0  0  0  0
132135  1  0  0  0  0
135136  1  0  0  0  0
135137  2  0  0  0  0
137138  1  0  0  0  0
137141  1  0  0  0  0
138139  1  0  0  0  0
138140  1  0  0  0  0
138145  1  0  0  0  0
141142  1  0  0  0  0
141143  1  0  0  0  0
141144  1  0  0  0  0
145146  1  0  0  0  0
145147  1  0  0  0  0
145148  1  0  0  0  0
148149  1  0  0  0  0
148150  2  0  0  0  0
150151  1  0  0  0  0
150154  1  0  0  0  0
151152  1  0  0  0  0
151153  1  0  0  0  0
151158  1  0  0  0  0
154155  1  0  0  0  0
154156  1  0  0  0  0
154157  1  0  0  0  0
158159  1  0  0  0  0
158160  1  0  0  0  0
158161  1  0  0  0  0
161162  1  0  0  0  0
161163  2  0  0  0  0
163164  1  0  0  0  0
163167  1  0  0  0  0
164165  1  0  0  0  0
164166  1  0  0  0  0
164171  1  0  0  0  0
167168  1  0  0  0  0
167169  1  0  0  0  0
167170  1  0  0  0  0
171172  1  0  0  0  0
171173  1  0  0  0  0
171174  1  0  0  0  0
174175  1  0  0  0  0
174176  2  0  0  0  0
176177  1  0  0  0  0
176181  1  0  0  0  0
177178  1  0  0  0  0
177179  1  0  0  0  0
177180  1  0  0  0  0
181182  1  0  0  0  0
181183  1  0  0  0  0
181184  1  0  0  0  0
185186  1  0  0  0  0
185187  1  0  0  0  0
185189  1  0  0  0  0
185196  1  0  0  0  0
187188  1  0  0  0  0
187190  1  0  0  0  0
187197  1  0  0  0  0
189192  1  0  0  0  0
190191  1  0  0  0  0
190194  1  0  0  0  0
190199  1  0  0  0  0
192193  1  0  0  0  0
192194  1  0  0  0  0
192201  1  0  0  0  0
194195  1  0  0  0  0
196210  1  0  0  0  0
197198  1  0  0  0  0
199200  1  0  0  0  0
201202  1  0  0  0  0
201203  1  0  0  0  0
201204  1  0  0  0  0
205206  1  0  0  0  0
205207  1  0  0  0  0
205209  1  0  0  0  0
207208  1  0  0  0  0
207210  1  0  0  0  0
207216  1  0  0  0  0
209212  1  0  0  0  0
210211  1  0  0  0  0
210214  1  0  0  0  0
212213  1  0  0  0  0
212214  1  0  0  0  0
212220  1  0  0  0  0
214215  1  0  0  0  0
214218  1  0  0  0  0
216217  1  0  0  0  0
216225  1  0  0  0  0
218219  1  0  0  0  0
220221  1  0  0  0  0
220222  1  0  0  0  0
220223  1  0  0  0  0
223224  1  0  0  0  0
225226  2  0  0  0  0
225227  1  0  0  0  0
227228  1  0  0  0  0
227229  1  0  0  0  0
227230  1  0  0  0  0
 50 52  1  0  0  0  0
 46 48  1  0  0  0  0
 50 53  2  0  0  0  0
 46 49  2  0  0  0  0
M  END
$$$$
