L05.****
  PyMOL2.5          3D                             0

230233  0  0  0  0  0  0  0  0999 V2000
   12.3443   -2.3788   -3.1725 C   0  0  0  1  0  0  0  0  0  0  0  0
   11.5667   -2.1060   -2.4900 H   0  0  0  1  0  0  0  0  0  0  0  0
   11.8001   -2.9571   -4.3237 O   0  0  0  1  0  0  0  0  0  0  0  0
   13.1017   -1.1285   -3.6470 C   0  0  0  1  0  0  0  0  0  0  0  0
   14.0998   -1.3720   -3.9461 H   0  0  0  1  0  0  0  0  0  0  0  0
   13.1400   -0.1305   -2.6258 O   0  0  0  1  0  0  0  0  0  0  0  0
   12.5006    0.5572   -2.8255 H   0  0  0  1  0  0  0  0  0  0  0  0
   12.2715   -0.6680   -4.8323 C   0  0  0  1  0  0  0  0  0  0  0  0
   11.4845   -0.0136   -4.5204 H   0  0  0  1  0  0  0  0  0  0  0  0
   13.0841   -0.0073   -5.8037 O   0  0  0  1  0  0  0  0  0  0  0  0
   13.3755   -0.6417   -6.4626 H   0  0  0  1  0  0  0  0  0  0  0  0
    9.2691   -2.0593   -4.6690 C   0  0  0  1  0  0  0  0  0  0  0  0
    9.2038   -3.1096   -4.4751 H   0  0  0  1  0  0  0  0  0  0  0  0
    9.6111   -1.5544   -3.7897 H   0  0  0  1  0  0  0  0  0  0  0  0
    7.9860   -1.5647   -5.0290 O   0  0  0  1  0  0  0  0  0  0  0  0
    7.3074   -2.1013   -4.6130 H   0  0  0  1  0  0  0  0  0  0  0  0
   10.2505   -1.8149   -5.8068 C   0  0  0  1  0  0  0  0  0  0  0  0
   10.1253   -0.8064   -6.1417 H   0  0  0  1  0  0  0  0  0  0  0  0
    9.8936   -2.7079   -6.8556 O   0  0  0  1  0  0  0  0  0  0  0  0
   11.7041   -1.9964   -5.3904 C   0  0  0  1  0  0  0  0  0  0  0  0
   12.2792   -2.3198   -6.2328 H   0  0  0  1  0  0  0  0  0  0  0  0
    8.9478   -2.2431   -7.7696 C   0  0  0  1  0  0  0  0  0  0  0  0
    8.3766   -1.4560   -7.3233 H   0  0  0  1  0  0  0  0  0  0  0  0
    9.5952   -1.7818   -8.9942 O   0  0  0  1  0  0  0  0  0  0  0  0
    8.0457   -3.3672   -8.2248 C   0  0  0  1  0  0  0  0  0  0  0  0
    7.0969   -2.9903   -8.5449 H   0  0  0  1  0  0  0  0  0  0  0  0
    7.8518   -4.3211   -7.1794 O   0  0  0  1  0  0  0  0  0  0  0  0
    6.9292   -4.3224   -6.9139 H   0  0  0  1  0  0  0  0  0  0  0  0
    8.8132   -3.9892   -9.3991 C   0  0  0  1  0  0  0  0  0  0  0  0
    8.1418   -4.3879  -10.1306 H   0  0  0  1  0  0  0  0  0  0  0  0
    9.6929   -5.0164   -8.9510 O   0  0  0  1  0  0  0  0  0  0  0  0
    9.2313   -5.8581   -8.9557 H   0  0  0  1  0  0  0  0  0  0  0  0
    7.5118   -1.8298  -10.9696 C   0  0  0  1  0  0  0  0  0  0  0  0
    7.5314   -1.0565  -10.2303 H   0  0  0  1  0  0  0  0  0  0  0  0
    7.1073   -1.4422  -11.8812 H   0  0  0  1  0  0  0  0  0  0  0  0
    6.6731   -2.8795  -10.5088 O   0  0  0  1  0  0  0  0  0  0  0  0
    5.8807   -2.5071  -10.1150 H   0  0  0  1  0  0  0  0  0  0  0  0
    8.9388   -2.2959  -11.2273 C   0  0  0  1  0  0  0  0  0  0  0  0
    9.5055   -1.4758  -11.6161 H   0  0  0  1  0  0  0  0  0  0  0  0
    8.9088   -3.3668  -12.1753 O   0  0  0  1  0  0  0  0  0  0  0  0
    9.7265   -3.3726  -12.6782 H   0  0  0  1  0  0  0  0  0  0  0  0
    9.5986   -2.7938   -9.9614 C   0  0  0  1  0  0  0  0  0  0  0  0
   10.6048   -3.0884  -10.1751 H   0  0  0  1  0  0  0  0  0  0  0  0
   13.2370   -3.2867   -2.5374 O   0  0  0  1  0  0  0  0  0  0  0  0
   20.1354  -10.6995   -5.3738 O   0  0  0  1  0  0  0  0  0  0  0  0
   20.9158   -9.3828   -5.8416 P   0  0  0  1  0  0  0  0  0  0  0  0
   20.7091   -8.3806   -4.5887 O   0  0  0  1  0  0  0  0  0  0  0  0
   20.2236   -8.7955   -7.0313 O   0  0  0  0  0  0  0  0  0  0  0  0
   22.3540   -9.7173   -5.8984 O   0  0  0  1  0  0  0  0  0  0  0  0
   20.7494   -8.8299   -3.0230 P   0  0  0  1  0  0  0  0  0  0  0  0
   20.8406   -7.3995   -2.3737 O   0  0  0  1  0  0  0  0  0  0  0  0
   21.9959   -9.6114   -2.7726 O   0  0  0  0  0  0  0  0  0  0  0  0
   19.4258   -9.3936   -2.6577 O   0  0  0  1  0  0  0  0  0  0  0  0
   18.7170  -10.7712   -5.5878 C   0  0  0  1  0  0  0  0  0  0  0  0
   18.4890  -11.6877   -6.0908 H   0  0  0  1  0  0  0  0  0  0  0  0
   18.4170   -9.9448   -6.1977 H   0  0  0  1  0  0  0  0  0  0  0  0
   17.9540  -10.7236   -4.2968 C   0  0  0  1  0  0  0  0  0  0  0  0
   18.3111  -11.3220   -3.5248 H   0  0  0  1  0  0  0  0  0  0  0  0
   16.8714   -9.9998   -4.0328 C   0  0  0  1  0  0  0  0  0  0  0  0
   15.9801  -10.2359   -2.8483 C   0  0  0  1  0  0  0  0  0  0  0  0
   16.1151   -9.4481   -2.1370 H   0  0  0  1  0  0  0  0  0  0  0  0
   16.2304  -11.1723   -2.3949 H   0  0  0  1  0  0  0  0  0  0  0  0
   14.9593  -10.2558   -3.1686 H   0  0  0  1  0  0  0  0  0  0  0  0
   16.4495   -8.8660   -4.9201 C   0  0  0  1  0  0  0  0  0  0  0  0
   17.3267   -8.4026   -5.3209 H   0  0  0  1  0  0  0  0  0  0  0  0
   15.9079   -8.1558   -4.3309 H   0  0  0  1  0  0  0  0  0  0  0  0
   15.5665   -9.3103   -6.0749 C   0  0  0  1  0  0  0  0  0  0  0  0
   14.7331   -9.8353   -5.6570 H   0  0  0  1  0  0  0  0  0  0  0  0
   16.1429   -9.9787   -6.6798 H   0  0  0  1  0  0  0  0  0  0  0  0
   15.0170   -8.2421   -6.9820 C   0  0  0  1  0  0  0  0  0  0  0  0
   14.4228   -7.5149   -6.5351 H   0  0  0  1  0  0  0  0  0  0  0  0
   15.2096   -8.1270   -8.2974 C   0  0  0  1  0  0  0  0  0  0  0  0
   14.8867   -6.8524   -9.0216 C   0  0  0  1  0  0  0  0  0  0  0  0
   14.5660   -6.1131   -8.3177 H   0  0  0  1  0  0  0  0  0  0  0  0
   14.1052   -7.0330   -9.7298 H   0  0  0  1  0  0  0  0  0  0  0  0
   15.7588   -6.5026   -9.5335 H   0  0  0  1  0  0  0  0  0  0  0  0
   15.7565   -9.2667   -9.1054 C   0  0  0  1  0  0  0  0  0  0  0  0
   16.1501   -9.9938   -8.4262 H   0  0  0  1  0  0  0  0  0  0  0  0
   16.5463   -8.8870   -9.7193 H   0  0  0  1  0  0  0  0  0  0  0  0
   14.7537   -9.9643  -10.0099 C   0  0  0  1  0  0  0  0  0  0  0  0
   14.1958   -9.2116  -10.5266 H   0  0  0  1  0  0  0  0  0  0  0  0
   14.0939  -10.5366   -9.3917 H   0  0  0  1  0  0  0  0  0  0  0  0
   15.3432  -10.8844  -11.0312 C   0  0  0  1  0  0  0  0  0  0  0  0
   16.0214  -10.4805  -11.7084 H   0  0  0  1  0  0  0  0  0  0  0  0
   15.0639  -12.1843  -11.1383 C   0  0  0  1  0  0  0  0  0  0  0  0
   14.2865  -12.8867  -10.0574 C   0  0  0  1  0  0  0  0  0  0  0  0
   14.1941  -12.2264   -9.2205 H   0  0  0  1  0  0  0  0  0  0  0  0
   14.8268  -13.7623   -9.7635 H   0  0  0  1  0  0  0  0  0  0  0  0
   15.5879  -12.9881  -12.2633 C   0  0  0  1  0  0  0  0  0  0  0  0
   16.2716  -12.3973  -12.8364 H   0  0  0  1  0  0  0  0  0  0  0  0
   14.7763  -13.2995  -12.8872 H   0  0  0  1  0  0  0  0  0  0  0  0
   16.0950  -13.8490  -11.8805 H   0  0  0  1  0  0  0  0  0  0  0  0
   12.8937  -13.3036  -10.5008 C   0  0  0  1  0  0  0  0  0  0  0  0
   12.4436  -13.8538   -9.7011 H   0  0  0  1  0  0  0  0  0  0  0  0
   12.9958  -13.9371  -11.3571 H   0  0  0  1  0  0  0  0  0  0  0  0
   11.9679  -12.1744  -10.8663 C   0  0  0  1  0  0  0  0  0  0  0  0
   11.8530  -11.4040  -10.1772 H   0  0  0  1  0  0  0  0  0  0  0  0
   11.2870  -12.0886  -12.0029 C   0  0  0  1  0  0  0  0  0  0  0  0
   11.5559  -13.0241  -13.1474 C   0  0  0  1  0  0  0  0  0  0  0  0
   10.7131  -13.6703  -13.2778 H   0  0  0  1  0  0  0  0  0  0  0  0
   12.4238  -13.6094  -12.9256 H   0  0  0  1  0  0  0  0  0  0  0  0
   10.2077  -11.0777  -12.2584 C   0  0  0  1  0  0  0  0  0  0  0  0
    9.2501  -11.5365  -12.1262 H   0  0  0  1  0  0  0  0  0  0  0  0
   10.2922  -10.7116  -13.2603 H   0  0  0  1  0  0  0  0  0  0  0  0
   10.3111  -10.2643  -11.5710 H   0  0  0  1  0  0  0  0  0  0  0  0
   11.7931  -12.2487  -14.4330 C   0  0  0  1  0  0  0  0  0  0  0  0
   12.7320  -11.7397  -14.3676 H   0  0  0  1  0  0  0  0  0  0  0  0
   11.0074  -11.5337  -14.5615 H   0  0  0  1  0  0  0  0  0  0  0  0
   11.8157  -13.1747  -15.6179 C   0  0  0  1  0  0  0  0  0  0  0  0
   12.5412  -13.9197  -15.6327 H   0  0  0  1  0  0  0  0  0  0  0  0
   10.9777  -13.1121  -16.6472 C   0  0  0  1  0  0  0  0  0  0  0  0
    9.6987  -12.3264  -16.6334 C   0  0  0  1  0  0  0  0  0  0  0  0
    9.7439  -11.5886  -17.4071 H   0  0  0  1  0  0  0  0  0  0  0  0
    9.6065  -11.8426  -15.6835 H   0  0  0  1  0  0  0  0  0  0  0  0
   11.2548  -13.8404  -17.9322 C   0  0  0  1  0  0  0  0  0  0  0  0
   10.4269  -14.4758  -18.1683 H   0  0  0  1  0  0  0  0  0  0  0  0
   12.1390  -14.4329  -17.8226 H   0  0  0  1  0  0  0  0  0  0  0  0
   11.3957  -13.1310  -18.7208 H   0  0  0  1  0  0  0  0  0  0  0  0
    8.4676  -13.1889  -16.8587 C   0  0  0  1  0  0  0  0  0  0  0  0
    8.4420  -13.9343  -16.0914 H   0  0  0  1  0  0  0  0  0  0  0  0
    8.5663  -13.6622  -17.8132 H   0  0  0  1  0  0  0  0  0  0  0  0
    7.1616  -12.4601  -16.8378 C   0  0  0  1  0  0  0  0  0  0  0  0
    6.9872  -11.7987  -17.6212 H   0  0  0  1  0  0  0  0  0  0  0  0
    6.1955  -12.5666  -15.9226 C   0  0  0  1  0  0  0  0  0  0  0  0
    6.1728  -13.7061  -14.9413 C   0  0  0  1  0  0  0  0  0  0  0  0
    6.7841  -14.4917  -15.3336 H   0  0  0  1  0  0  0  0  0  0  0  0
    5.1625  -14.0482  -14.8561 H   0  0  0  1  0  0  0  0  0  0  0  0
    5.1474  -11.4798  -15.7876 C   0  0  0  1  0  0  0  0  0  0  0  0
    5.2329  -11.0186  -14.8258 H   0  0  0  1  0  0  0  0  0  0  0  0
    4.1730  -11.9094  -15.8915 H   0  0  0  1  0  0  0  0  0  0  0  0
    5.2965  -10.7441  -16.5501 H   0  0  0  1  0  0  0  0  0  0  0  0
    6.6746  -13.3740  -13.5455 C   0  0  0  1  0  0  0  0  0  0  0  0
    5.9863  -12.6849  -13.1025 H   0  0  0  1  0  0  0  0  0  0  0  0
    7.6335  -12.9090  -13.6414 H   0  0  0  1  0  0  0  0  0  0  0  0
    6.8182  -14.5412  -12.6212 C   0  0  0  1  0  0  0  0  0  0  0  0
    7.5854  -15.2100  -12.8347 H   0  0  0  1  0  0  0  0  0  0  0  0
    6.0723  -14.8160  -11.5577 C   0  0  0  1  0  0  0  0  0  0  0  0
    4.9994  -13.8749  -11.0925 C   0  0  0  1  0  0  0  0  0  0  0  0
    4.0962  -14.4311  -10.9515 H   0  0  0  1  0  0  0  0  0  0  0  0
    4.8472  -13.1320  -11.8473 H   0  0  0  1  0  0  0  0  0  0  0  0
    6.2180  -16.0620  -10.7303 C   0  0  0  1  0  0  0  0  0  0  0  0
    5.2980  -16.6082  -10.7419 H   0  0  0  1  0  0  0  0  0  0  0  0
    6.4611  -15.7946   -9.7231 H   0  0  0  1  0  0  0  0  0  0  0  0
    6.9988  -16.6705  -11.1366 H   0  0  0  1  0  0  0  0  0  0  0  0
    5.3455  -13.1755   -9.7881 C   0  0  0  1  0  0  0  0  0  0  0  0
    4.5550  -13.3649   -9.0922 H   0  0  0  1  0  0  0  0  0  0  0  0
    5.4060  -12.1251   -9.9827 H   0  0  0  1  0  0  0  0  0  0  0  0
    6.6310  -13.6020   -9.1534 C   0  0  0  1  0  0  0  0  0  0  0  0
    7.4088  -13.8833   -9.7838 H   0  0  0  1  0  0  0  0  0  0  0  0
    6.8505  -13.6476   -7.8610 C   0  0  0  1  0  0  0  0  0  0  0  0
    5.7652  -13.5904   -6.8254 C   0  0  0  1  0  0  0  0  0  0  0  0
    5.8064  -14.4845   -6.2392 H   0  0  0  1  0  0  0  0  0  0  0  0
    4.8206  -13.5339   -7.3248 H   0  0  0  1  0  0  0  0  0  0  0  0
    8.2351  -13.8584   -7.3222 C   0  0  0  1  0  0  0  0  0  0  0  0
    8.4348  -14.9072   -7.2510 H   0  0  0  1  0  0  0  0  0  0  0  0
    8.3114  -13.4144   -6.3517 H   0  0  0  1  0  0  0  0  0  0  0  0
    8.9465  -13.4041   -7.9799 H   0  0  0  1  0  0  0  0  0  0  0  0
    5.8927  -12.3954   -5.8947 C   0  0  0  1  0  0  0  0  0  0  0  0
    5.8281  -11.5008   -6.4783 H   0  0  0  1  0  0  0  0  0  0  0  0
    6.8470  -12.4393   -5.4128 H   0  0  0  1  0  0  0  0  0  0  0  0
    4.8229  -12.3554   -4.8365 C   0  0  0  1  0  0  0  0  0  0  0  0
    4.2051  -13.1894   -4.7701 H   0  0  0  1  0  0  0  0  0  0  0  0
    4.5814  -11.3661   -3.9743 C   0  0  0  1  0  0  0  0  0  0  0  0
    3.2941  -11.3058   -3.1989 C   0  0  0  1  0  0  0  0  0  0  0  0
    2.5623  -11.8790   -3.7289 H   0  0  0  1  0  0  0  0  0  0  0  0
    2.9830  -10.2830   -3.1546 H   0  0  0  1  0  0  0  0  0  0  0  0
    5.5842  -10.2738   -3.7437 C   0  0  0  1  0  0  0  0  0  0  0  0
    5.8624  -10.3539   -2.7136 H   0  0  0  1  0  0  0  0  0  0  0  0
    5.1467   -9.3172   -3.9394 H   0  0  0  1  0  0  0  0  0  0  0  0
    6.4383  -10.4115   -4.3734 H   0  0  0  1  0  0  0  0  0  0  0  0
    3.3650  -11.8364   -1.7763 C   0  0  0  1  0  0  0  0  0  0  0  0
    4.0369  -11.2203   -1.2161 H   0  0  0  1  0  0  0  0  0  0  0  0
    3.7389  -12.8386   -1.8048 H   0  0  0  1  0  0  0  0  0  0  0  0
    2.0293  -11.8429   -1.0821 C   0  0  0  1  0  0  0  0  0  0  0  0
    1.5438  -10.9308   -0.9642 H   0  0  0  1  0  0  0  0  0  0  0  0
    1.4321  -12.9133   -0.6149 C   0  0  0  1  0  0  0  0  0  0  0  0
    0.0485  -12.8292   -0.0389 C   0  0  0  1  0  0  0  0  0  0  0  0
   -0.5345  -13.6557   -0.3881 H   0  0  0  1  0  0  0  0  0  0  0  0
   -0.4109  -11.9134   -0.3473 H   0  0  0  1  0  0  0  0  0  0  0  0
    0.1047  -12.8586    1.0292 H   0  0  0  1  0  0  0  0  0  0  0  0
    2.0900  -14.2687   -0.5239 C   0  0  0  1  0  0  0  0  0  0  0  0
    1.6364  -14.8943   -1.2640 H   0  0  0  1  0  0  0  0  0  0  0  0
    1.9374  -14.6847    0.4501 H   0  0  0  1  0  0  0  0  0  0  0  0
    3.1393  -14.1794   -0.7137 H   0  0  0  1  0  0  0  0  0  0  0  0
   15.9729   -5.1371   -1.4729 C   0  0  0  1  0  0  0  0  0  0  0  0
   16.0612   -5.6548   -0.5406 H   0  0  0  1  0  0  0  0  0  0  0  0
   14.8759   -5.7654   -2.2806 C   0  0  0  1  0  0  0  0  0  0  0  0
   15.1587   -6.7633   -2.5435 H   0  0  0  1  0  0  0  0  0  0  0  0
   15.7016   -3.7856   -1.2224 O   0  0  0  1  0  0  0  0  0  0  0  0
   14.6279   -4.9644   -3.5483 C   0  0  0  1  0  0  0  0  0  0  0  0
   13.7391   -5.3285   -4.0199 H   0  0  0  1  0  0  0  0  0  0  0  0
   15.6266   -3.0025   -2.4165 C   0  0  0  1  0  0  0  0  0  0  0  0
   16.5354   -3.1066   -2.9716 H   0  0  0  1  0  0  0  0  0  0  0  0
   14.4584   -3.4921   -3.2554 C   0  0  0  1  0  0  0  0  0  0  0  0
   14.4277   -2.9472   -4.1757 H   0  0  0  1  0  0  0  0  0  0  0  0
   17.1894   -5.2398   -2.1868 O   0  0  0  1  0  0  0  0  0  0  0  0
   13.6780   -5.7984   -1.5025 O   0  0  0  1  0  0  0  0  0  0  0  0
   13.3603   -4.9030   -1.3652 H   0  0  0  1  0  0  0  0  0  0  0  0
   15.7331   -5.1350   -4.4237 O   0  0  0  1  0  0  0  0  0  0  0  0
   15.4466   -5.5962   -5.2154 H   0  0  0  1  0  0  0  0  0  0  0  0
   15.4173   -1.5409   -2.0552 C   0  0  0  1  0  0  0  0  0  0  0  0
   15.4325   -0.9473   -2.9453 H   0  0  0  1  0  0  0  0  0  0  0  0
   16.1998   -1.2203   -1.3996 H   0  0  0  1  0  0  0  0  0  0  0  0
   14.4724   -1.4264   -1.5665 H   0  0  0  1  0  0  0  0  0  0  0  0
   19.8614   -6.4189   -2.6427 C   0  0  0  1  0  0  0  0  0  0  0  0
   19.0426   -6.8660   -3.1666 H   0  0  0  1  0  0  0  0  0  0  0  0
   19.3568   -5.8389   -1.3244 C   0  0  0  1  0  0  0  0  0  0  0  0
   20.1858   -5.4648   -0.7607 H   0  0  0  1  0  0  0  0  0  0  0  0
   20.4321   -5.3980   -3.4513 O   0  0  0  1  0  0  0  0  0  0  0  0
   18.3772   -4.7005   -1.6011 C   0  0  0  1  0  0  0  0  0  0  0  0
   18.1329   -4.2184   -0.6776 H   0  0  0  1  0  0  0  0  0  0  0  0
   19.4967   -4.3690   -3.8105 C   0  0  0  1  0  0  0  0  0  0  0  0
   19.9836   -3.6480   -4.4332 H   0  0  0  1  0  0  0  0  0  0  0  0
   18.9751   -3.6800   -2.5478 C   0  0  0  1  0  0  0  0  0  0  0  0
   18.2241   -2.9678   -2.8191 H   0  0  0  1  0  0  0  0  0  0  0  0
   18.6806   -6.8860   -0.5612 N   0  0  0  1  0  0  0  0  0  0  0  0
   17.8357   -7.2482   -0.9009 H   0  0  0  1  0  0  0  0  0  0  0  0
   20.0516   -3.0116   -1.8988 O   0  0  0  1  0  0  0  0  0  0  0  0
   19.9335   -2.0747   -2.0717 H   0  0  0  1  0  0  0  0  0  0  0  0
   18.3455   -4.9802   -4.5567 C   0  0  0  1  0  0  0  0  0  0  0  0
   17.5718   -4.2538   -4.6931 H   0  0  0  1  0  0  0  0  0  0  0  0
   17.9589   -5.8157   -4.0113 H   0  0  0  1  0  0  0  0  0  0  0  0
   18.8366   -5.4110   -5.8224 O   0  0  0  1  0  0  0  0  0  0  0  0
   18.1954   -6.0154   -6.2034 H   0  0  0  1  0  0  0  0  0  0  0  0
   19.1790   -7.3712    0.5949 C   0  0  0  1  0  0  0  0  0  0  0  0
   20.2430   -6.9594    1.0494 O   0  0  0  1  0  0  0  0  0  0  0  0
   18.3865   -8.4421    1.3190 C   0  0  0  1  0  0  0  0  0  0  0  0
   17.6591   -7.8983    1.8848 H   0  0  0  1  0  0  0  0  0  0  0  0
   19.0216   -9.0104    1.9660 H   0  0  0  1  0  0  0  0  0  0  0  0
   17.9099   -9.0976    0.6204 H   0  0  0  1  0  0  0  0  0  0  0  0
  1  2  1  0  0  0  0
  1  3  1  0  0  0  0
  1  4  1  0  0  0  0
  1 44  1  0  0  0  0
  3 20  1  0  0  0  0
  4  5  1  0  0  0  0
  4  6  1  0  0  0  0
  4  8  1  0  0  0  0
  6  7  1  0  0  0  0
  8  9  1  0  0  0  0
  8 10  1  0  0  0  0
  8 20  1  0  0  0  0
 10 11  1  0  0  0  0
 12 13  1  0  0  0  0
 12 14  1  0  0  0  0
 12 15  1  0  0  0  0
 12 17  1  0  0  0  0
 15 16  1  0  0  0  0
 17 18  1  0  0  0  0
 17 19  1  0  0  0  0
 17 20  1  0  0  0  0
 19 22  1  0  0  0  0
 20 21  1  0  0  0  0
 22 23  1  0  0  0  0
 22 24  1  0  0  0  0
 22 25  1  0  0  0  0
 24 42  1  0  0  0  0
 25 26  1  0  0  0  0
 25 27  1  0  0  0  0
 25 29  1  0  0  0  0
 27 28  1  0  0  0  0
 29 30  1  0  0  0  0
 29 31  1  0  0  0  0
 29 42  1  0  0  0  0
 31 32  1  0  0  0  0
 33 34  1  0  0  0  0
 33 35  1  0  0  0  0
 33 36  1  0  0  0  0
 33 38  1  0  0  0  0
 36 37  1  0  0  0  0
 38 39  1  0  0  0  0
 38 40  1  0  0  0  0
 38 42  1  0  0  0  0
 40 41  1  0  0  0  0
 42 43  1  0  0  0  0
 44194  1  0  0  0  0
 45 46  1  0  0  0  0
 45 54  1  0  0  0  0
 46 47  1  0  0  0  0
 46 48  1  0  0  0  0
 46 49  2  0  0  0  0
 47 50  1  0  0  0  0
 50 51  1  0  0  0  0
 50 52  1  0  0  0  0
 50 53  2  0  0  0  0
 51205  1  0  0  0  0
 54 55  1  0  0  0  0
 54 56  1  0  0  0  0
 54 57  1  0  0  0  0
 57 58  1  0  0  0  0
 57 59  2  0  0  0  0
 59 60  1  0  0  0  0
 59 64  1  0  0  0  0
 60 61  1  0  0  0  0
 60 62  1  0  0  0  0
 60 63  1  0  0  0  0
 64 65  1  0  0  0  0
 64 66  1  0  0  0  0
 64 67  1  0  0  0  0
 67 68  1  0  0  0  0
 67 69  1  0  0  0  0
 67 70  1  0  0  0  0
 70 71  1  0  0  0  0
 70 72  2  0  0  0  0
 72 73  1  0  0  0  0
 72 77  1  0  0  0  0
 73 74  1  0  0  0  0
 73 75  1  0  0  0  0
 73 76  1  0  0  0  0
 77 78  1  0  0  0  0
 77 79  1  0  0  0  0
 77 80  1  0  0  0  0
 80 81  1  0  0  0  0
 80 82  1  0  0  0  0
 80 83  1  0  0  0  0
 83 84  1  0  0  0  0
 83 85  2  0  0  0  0
 85 86  1  0  0  0  0
 85 89  1  0  0  0  0
 86 87  1  0  0  0  0
 86 88  1  0  0  0  0
 86 93  1  0  0  0  0
 89 90  1  0  0  0  0
 89 91  1  0  0  0  0
 89 92  1  0  0  0  0
 93 94  1  0  0  0  0
 93 95  1  0  0  0  0
 93 96  1  0  0  0  0
 96 97  1  0  0  0  0
 96 98  2  0  0  0  0
 98 99  1  0  0  0  0
 98102  1  0  0  0  0
 99100  1  0  0  0  0
 99101  1  0  0  0  0
 99106  1  0  0  0  0
102103  1  0  0  0  0
102104  1  0  0  0  0
102105  1  0  0  0  0
106107  1  0  0  0  0
106108  1  0  0  0  0
106109  1  0  0  0  0
109110  1  0  0  0  0
109111  2  0  0  0  0
111112  1  0  0  0  0
111115  1  0  0  0  0
112113  1  0  0  0  0
112114  1  0  0  0  0
112119  1  0  0  0  0
115116  1  0  0  0  0
115117  1  0  0  0  0
115118  1  0  0  0  0
119120  1  0  0  0  0
119121  1  0  0  0  0
119122  1  0  0  0  0
122123  1  0  0  0  0
122124  2  0  0  0  0
124125  1  0  0  0  0
124128  1  0  0  0  0
125126  1  0  0  0  0
125127  1  0  0  0  0
125132  1  0  0  0  0
128129  1  0  0  0  0
128130  1  0  0  0  0
128131  1  0  0  0  0
132133  1  0  0  0  0
132134  1  0  0  0  0
132135  1  0  0  0  0
135136  1  0  0  0  0
135137  2  0  0  0  0
137138  1  0  0  0  0
137141  1  0  0  0  0
138139  1  0  0  0  0
138140  1  0  0  0  0
138145  1  0  0  0  0
141142  1  0  0  0  0
141143  1  0  0  0  0
141144  1  0  0  0  0
145146  1  0  0  0  0
145147  1  0  0  0  0
145148  1  0  0  0  0
148149  1  0  0  0  0
148150  2  0  0  0  0
150151  1  0  0  0  0
150154  1  0  0  0  0
151152  1  0  0  0  0
151153  1  0  0  0  0
151158  1  0  0  0  0
154155  1  0  0  0  0
154156  1  0  0  0  0
154157  1  0  0  0  0
158159  1  0  0  0  0
158160  1  0  0  0  0
158161  1  0  0  0  0
161162  1  0  0  0  0
161163  2  0  0  0  0
163164  1  0  0  0  0
163167  1  0  0  0  0
164165  1  0  0  0  0
164166  1  0  0  0  0
164171  1  0  0  0  0
167168  1  0  0  0  0
167169  1  0  0  0  0
167170  1  0  0  0  0
171172  1  0  0  0  0
171173  1  0  0  0  0
171174  1  0  0  0  0
174175  1  0  0  0  0
174176  2  0  0  0  0
176177  1  0  0  0  0
176181  1  0  0  0  0
177178  1  0  0  0  0
177179  1  0  0  0  0
177180  1  0  0  0  0
181182  1  0  0  0  0
181183  1  0  0  0  0
181184  1  0  0  0  0
185186  1  0  0  0  0
185187  1  0  0  0  0
185189  1  0  0  0  0
185196  1  0  0  0  0
187188  1  0  0  0  0
187190  1  0  0  0  0
187197  1  0  0  0  0
189192  1  0  0  0  0
190191  1  0  0  0  0
190194  1  0  0  0  0
190199  1  0  0  0  0
192193  1  0  0  0  0
192194  1  0  0  0  0
192201  1  0  0  0  0
194195  1  0  0  0  0
196210  1  0  0  0  0
197198  1  0  0  0  0
199200  1  0  0  0  0
201202  1  0  0  0  0
201203  1  0  0  0  0
201204  1  0  0  0  0
205206  1  0  0  0  0
205207  1  0  0  0  0
205209  1  0  0  0  0
207208  1  0  0  0  0
207210  1  0  0  0  0
207216  1  0  0  0  0
209212  1  0  0  0  0
210211  1  0  0  0  0
210214  1  0  0  0  0
212213  1  0  0  0  0
212214  1  0  0  0  0
212220  1  0  0  0  0
214215  1  0  0  0  0
214218  1  0  0  0  0
216217  1  0  0  0  0
216225  1  0  0  0  0
218219  1  0  0  0  0
220221  1  0  0  0  0
220222  1  0  0  0  0
220223  1  0  0  0  0
223224  1  0  0  0  0
225226  2  0  0  0  0
225227  1  0  0  0  0
227228  1  0  0  0  0
227229  1  0  0  0  0
227230  1  0  0  0  0
M  BCL ATM C_TeTeTeTe H_S O_Te2Te2TeTe C_TeTeTeTe H_S O_Te2Te2TeTe H_S C_TeTeTeTe H_S O_Te2Te2TeTe H_S C_TeTeTeTe H_S H_S O_Te2Te2TeTe H_S C_TeTeTeTe H_S O_Te2Te2TeTe C_TeTeTeTe H_S C_TeTeTeTe H_S O_Te2Te2TeTe C_TeTeTeTe H_S O_Te2Te2TeTe H_S C_TeTeTeTe H_S O_Te2Te2TeTe H_S C_TeTeTeTe H_S H_S O_Te2Te2TeTe H_S C_TeTeTeTe H_S O_Te2Te2TeTe H_S C_TeTeTeTe H_S O_Te2Te2TeTe O_Tr2TrTrPi2 P_TeTeTeTePi O_Tr2TrTrPi2 O_Te2Te2TeTe O_Tr2Tr2TrPi P_TeTeTeTePi O_Tr2TrTrPi2 O_Te2Te2TeTe O_Tr2Tr2TrPi C_TeTeTeTe H_S H_S C_TrTrTrPi H_S C_TrTrTrPi C_TeTeTeTe H_S H_S H_S C_TeTeTeTe H_S H_S C_TeTeTeTe H_S H_S C_TrTrTrPi H_S C_TrTrTrPi C_TeTeTeTe H_S H_S H_S C_TeTeTeTe H_S H_S C_TeTeTeTe H_S H_S C_TrTrTrPi H_S C_TrTrTrPi C_TeTeTeTe H_S H_S C_TeTeTeTe H_S H_S H_S C_TeTeTeTe H_S H_S C_TrTrTrPi H_S C_TrTrTrPi C_TeTeTeTe H_S H_S C_TeTeTeTe H_S H_S H_S C_TeTeTeTe H_S H_S C_TrTrTrPi H_S C_TrTrTrPi C_TeTeTeTe H_S H_S C_TeTeTeTe H_S H_S H_S C_TeTeTeTe H_S H_S C_TrTrTrPi H_S C_TrTrTrPi C_TeTeTeTe H_S H_S C_TeTeTeTe H_S H_S H_S C_TeTeTeTe H_S H_S C_TrTrTrPi H_S C_TrTrTrPi C_TeTeTeTe H_S H_S C_TeTeTeTe H_S H_S H_S C_TeTeTeTe H_S H_S C_TrTrTrPi H_S C_TrTrTrPi C_TeTeTeTe H_S H_S C_TeTeTeTe H_S H_S H_S C_TeTeTeTe H_S H_S C_TrTrTrPi H_S C_TrTrTrPi C_TeTeTeTe H_S H_S C_TeTeTeTe H_S H_S H_S C_TeTeTeTe H_S H_S C_TrTrTrPi H_S C_TrTrTrPi C_TeTeTeTe H_S H_S H_S C_TeTeTeTe H_S H_S H_S C_TeTeTeTe H_S C_TeTeTeTe H_S O_Te2Te2TeTe C_TeTeTeTe H_S C_TeTeTeTe H_S C_TeTeTeTe H_S O_Te2Te2TeTe O_Te2Te2TeTe H_S O_Te2Te2TeTe H_S C_TeTeTeTe H_S H_S H_S C_TeTeTeTe H_S C_TeTeTeTe H_S O_Te2Te2TeTe C_TeTeTeTe H_S C_TeTeTeTe H_S C_TeTeTeTe H_S N_TrTrTrPi2 H_S O_Te2Te2TeTe H_S C_TeTeTeTe H_S H_S O_Te2Te2TeTe H_S C_TrTrTrPi O_Tr2Tr2TrPi C_TeTeTeTe H_S H_S H_S
M  BCL BND NonConjugatedSingleBond NonConjugatedSingleBondInRing NonConjugatedSingleBondInRing NonConjugatedSingleBond NonConjugatedSingleBondInRing NonConjugatedSingleBond NonConjugatedSingleBond NonConjugatedSingleBondInRing NonConjugatedSingleBond NonConjugatedSingleBond NonConjugatedSingleBond NonConjugatedSingleBondInRing NonConjugatedSingleBond NonConjugatedSingleBond NonConjugatedSingleBond NonConjugatedSingleBond NonConjugatedSingleBond NonConjugatedSingleBond NonConjugatedSingleBond NonConjugatedSingleBond NonConjugatedSingleBond NonConjugatedSingleBond NonConjugatedSingleBond NonConjugatedSingleBond NonConjugatedSingleBondInRing NonConjugatedSingleBondInRing NonConjugatedSingleBondInRing NonConjugatedSingleBond NonConjugatedSingleBond NonConjugatedSingleBondInRing NonConjugatedSingleBond NonConjugatedSingleBond NonConjugatedSingleBond NonConjugatedSingleBondInRing NonConjugatedSingleBond NonConjugatedSingleBond NonConjugatedSingleBond NonConjugatedSingleBond NonConjugatedSingleBond NonConjugatedSingleBond NonConjugatedSingleBond NonConjugatedSingleBond NonConjugatedSingleBond NonConjugatedSingleBond NonConjugatedSingleBond NonConjugatedSingleBond ConjugatedSingleBond NonConjugatedSingleBond ConjugatedSingleBond ConjugatedSingleBond ConjugatedDoubleBond ConjugatedSingleBond ConjugatedSingleBond ConjugatedSingleBond ConjugatedDoubleBond NonConjugatedSingleBond NonConjugatedSingleBond NonConjugatedSingleBond NonConjugatedSingleBond NonConjugatedSingleBond ConjugatedDoubleBond NonConjugatedSingleBond NonConjugatedSingleBond NonConjugatedSingleBond NonConjugatedSingleBond NonConjugatedSingleBond NonConjugatedSingleBond NonConjugatedSingleBond NonConjugatedSingleBond NonConjugatedSingleBond NonConjugatedSingleBond NonConjugatedSingleBond NonConjugatedSingleBond ConjugatedDoubleBond NonConjugatedSingleBond NonConjugatedSingleBond NonConjugatedSingleBond NonConjugatedSingleBond NonConjugatedSingleBond NonConjugatedSingleBond NonConjugatedSingleBond NonConjugatedSingleBond NonConjugatedSingleBond NonConjugatedSingleBond NonConjugatedSingleBond NonConjugatedSingleBond ConjugatedDoubleBond NonConjugatedSingleBond NonConjugatedSingleBond NonConjugatedSingleBond NonConjugatedSingleBond NonConjugatedSingleBond NonConjugatedSingleBond NonConjugatedSingleBond NonConjugatedSingleBond NonConjugatedSingleBond NonConjugatedSingleBond NonConjugatedSingleBond NonConjugatedSingleBond ConjugatedDoubleBond NonConjugatedSingleBond NonConjugatedSingleBond NonConjugatedSingleBond NonConjugatedSingleBond NonConjugatedSingleBond NonConjugatedSingleBond NonConjugatedSingleBond NonConjugatedSingleBond NonConjugatedSingleBond NonConjugatedSingleBond NonConjugatedSingleBond NonConjugatedSingleBond ConjugatedDoubleBond NonConjugatedSingleBond NonConjugatedSingleBond NonConjugatedSingleBond NonConjugatedSingleBond NonConjugatedSingleBond NonConjugatedSingleBond NonConjugatedSingleBond NonConjugatedSingleBond NonConjugatedSingleBond NonConjugatedSingleBond NonConjugatedSingleBond NonConjugatedSingleBond ConjugatedDoubleBond NonConjugatedSingleBond NonConjugatedSingleBond NonConjugatedSingleBond NonConjugatedSingleBond NonConjugatedSingleBond NonConjugatedSingleBond NonConjugatedSingleBond NonConjugatedSingleBond NonConjugatedSingleBond NonConjugatedSingleBond NonConjugatedSingleBond NonConjugatedSingleBond ConjugatedDoubleBond NonConjugatedSingleBond NonConjugatedSingleBond NonConjugatedSingleBond NonConjugatedSingleBond NonConjugatedSingleBond NonConjugatedSingleBond NonConjugatedSingleBond NonConjugatedSingleBond NonConjugatedSingleBond NonConjugatedSingleBond NonConjugatedSingleBond NonConjugatedSingleBond ConjugatedDoubleBond NonConjugatedSingleBond NonConjugatedSingleBond NonConjugatedSingleBond NonConjugatedSingleBond NonConjugatedSingleBond NonConjugatedSingleBond NonConjugatedSingleBond NonConjugatedSingleBond NonConjugatedSingleBond NonConjugatedSingleBond NonConjugatedSingleBond NonConjugatedSingleBond ConjugatedDoubleBond NonConjugatedSingleBond NonConjugatedSingleBond NonConjugatedSingleBond NonConjugatedSingleBond NonConjugatedSingleBond NonConjugatedSingleBond NonConjugatedSingleBond NonConjugatedSingleBond NonConjugatedSingleBond NonConjugatedSingleBond NonConjugatedSingleBond NonConjugatedSingleBond ConjugatedDoubleBond NonConjugatedSingleBond NonConjugatedSingleBond NonConjugatedSingleBond NonConjugatedSingleBond NonConjugatedSingleBond NonConjugatedSingleBond NonConjugatedSingleBond NonConjugatedSingleBond NonConjugatedSingleBond NonConjugatedSingleBondInRing NonConjugatedSingleBondInRing NonConjugatedSingleBond NonConjugatedSingleBond NonConjugatedSingleBondInRing NonConjugatedSingleBond NonConjugatedSingleBondInRing NonConjugatedSingleBond NonConjugatedSingleBondInRing NonConjugatedSingleBond NonConjugatedSingleBond NonConjugatedSingleBondInRing NonConjugatedSingleBond NonConjugatedSingleBond NonConjugatedSingleBond NonConjugatedSingleBond NonConjugatedSingleBond NonConjugatedSingleBond NonConjugatedSingleBond NonConjugatedSingleBond NonConjugatedSingleBond NonConjugatedSingleBondInRing NonConjugatedSingleBondInRing NonConjugatedSingleBond NonConjugatedSingleBondInRing NonConjugatedSingleBond NonConjugatedSingleBondInRing NonConjugatedSingleBond NonConjugatedSingleBondInRing NonConjugatedSingleBond NonConjugatedSingleBondInRing NonConjugatedSingleBond NonConjugatedSingleBond NonConjugatedSingleBond NonConjugatedSingleBond AmideSingleBond NonConjugatedSingleBond NonConjugatedSingleBond NonConjugatedSingleBond NonConjugatedSingleBond NonConjugatedSingleBond ConjugatedDoubleBond NonConjugatedSingleBond NonConjugatedSingleBond NonConjugatedSingleBond NonConjugatedSingleBond
M  BCL CHI   1   R   4   R   8   R  17   S  20   R  22   S  25   R  29   S  38   S  42   R  46   R  50   S 185   R 187   S 190   S 192   R 194   R 205   R 207   S 210   R 212   S 214   S
M  BCL DBI - - E E E E E E E E Z - -
M  END
> <ConfClashScore>
0.000387445 

> <ConfOneFourInteractionScore>
-0.969095 

> <ConfScore>
0.00733709 

> <ConfScorePBest>
0.0150985 

> <ConfTolerance>
2.72308 

$$$$
L05.****
  PyMOL2.5          3D                             0

230233  0  0  0  0  0  0  0  0999 V2000
   12.1238   -3.3192   -3.3557 C   0  0  0  1  0  0  0  0  0  0  0  0
   12.0661   -4.3078   -3.7611 H   0  0  0  1  0  0  0  0  0  0  0  0
   12.1752   -2.3435   -4.4082 O   0  0  0  1  0  0  0  0  0  0  0  0
   10.8791   -2.9904   -2.5877 C   0  0  0  1  0  0  0  0  0  0  0  0
   10.9495   -3.3325   -1.5763 H   0  0  0  1  0  0  0  0  0  0  0  0
    9.7271   -3.5652   -3.2064 O   0  0  0  1  0  0  0  0  0  0  0  0
    9.0254   -2.9113   -3.2472 H   0  0  0  1  0  0  0  0  0  0  0  0
   10.8323   -1.4777   -2.6488 C   0  0  0  1  0  0  0  0  0  0  0  0
    9.8249   -1.1377   -2.7688 H   0  0  0  1  0  0  0  0  0  0  0  0
   11.3887   -0.9106   -1.4618 O   0  0  0  1  0  0  0  0  0  0  0  0
   12.1411   -0.3605   -1.6918 H   0  0  0  1  0  0  0  0  0  0  0  0
   11.5929   -0.0690   -6.1520 C   0  0  0  1  0  0  0  0  0  0  0  0
   11.8028   -0.9767   -6.6783 H   0  0  0  1  0  0  0  0  0  0  0  0
   11.0159    0.5807   -6.7764 H   0  0  0  1  0  0  0  0  0  0  0  0
   12.8147    0.5700   -5.8065 O   0  0  0  1  0  0  0  0  0  0  0  0
   13.1416    0.2103   -4.9786 H   0  0  0  1  0  0  0  0  0  0  0  0
   10.8052   -0.3874   -4.8878 C   0  0  0  1  0  0  0  0  0  0  0  0
    9.9773   -1.0147   -5.1448 H   0  0  0  1  0  0  0  0  0  0  0  0
   10.3414    0.8314   -4.3185 O   0  0  0  1  0  0  0  0  0  0  0  0
   11.6662   -1.1061   -3.8569 C   0  0  0  1  0  0  0  0  0  0  0  0
   12.4769   -0.4720   -3.5641 H   0  0  0  1  0  0  0  0  0  0  0  0
    9.4957    1.5788   -5.1785 C   0  0  0  1  0  0  0  0  0  0  0  0
   10.0082    1.7815   -6.0957 H   0  0  0  1  0  0  0  0  0  0  0  0
    8.3247    0.8572   -5.4380 O   0  0  0  1  0  0  0  0  0  0  0  0
    9.0980    2.8994   -4.5004 C   0  0  0  1  0  0  0  0  0  0  0  0
    9.1390    3.7153   -5.1914 H   0  0  0  1  0  0  0  0  0  0  0  0
    9.9420    3.1786   -3.3824 O   0  0  0  1  0  0  0  0  0  0  0  0
    9.4013    3.3693   -2.6124 H   0  0  0  1  0  0  0  0  0  0  0  0
    7.6562    2.6277   -4.0506 C   0  0  0  1  0  0  0  0  0  0  0  0
    7.0757    3.5264   -4.0640 H   0  0  0  1  0  0  0  0  0  0  0  0
    7.6288    2.0634   -2.7427 O   0  0  0  1  0  0  0  0  0  0  0  0
    7.7808    1.1171   -2.7987 H   0  0  0  1  0  0  0  0  0  0  0  0
    5.1630    2.8743   -6.1131 C   0  0  0  1  0  0  0  0  0  0  0  0
    5.1124    3.5164   -5.2586 H   0  0  0  1  0  0  0  0  0  0  0  0
    4.8805    3.4213   -6.9882 H   0  0  0  1  0  0  0  0  0  0  0  0
    4.2761    1.7794   -5.9339 O   0  0  0  1  0  0  0  0  0  0  0  0
    3.3809    2.1073   -5.8212 H   0  0  0  1  0  0  0  0  0  0  0  0
    6.5936    2.3571   -6.2765 C   0  0  0  1  0  0  0  0  0  0  0  0
    7.2213    3.2032   -6.4637 H   0  0  0  1  0  0  0  0  0  0  0  0
    6.6737    1.4711   -7.3899 O   0  0  0  1  0  0  0  0  0  0  0  0
    7.3527    1.7778   -7.9952 H   0  0  0  1  0  0  0  0  0  0  0  0
    7.1470    1.6404   -5.0755 C   0  0  0  1  0  0  0  0  0  0  0  0
    6.3898    1.0129   -4.6537 H   0  0  0  1  0  0  0  0  0  0  0  0
   13.2711   -3.2149   -2.5191 O   0  0  0  1  0  0  0  0  0  0  0  0
   20.0200   -2.1039   -6.9667 O   0  0  0  1  0  0  0  0  0  0  0  0
   19.6087   -2.7062   -5.5723 P   0  0  0  1  0  0  0  0  0  0  0  0
   20.9209   -3.3639   -4.8964 O   0  0  0  1  0  0  0  0  0  0  0  0
   18.6056   -3.8064   -5.9105 O   0  0  0  0  0  0  0  0  0  0  0  0
   19.0869   -1.6843   -4.6202 O   0  0  0  1  0  0  0  0  0  0  0  0
   21.4952   -4.7852   -4.6760 P   0  0  0  1  0  0  0  0  0  0  0  0
   21.3582   -4.9364   -3.1231 O   0  0  0  1  0  0  0  0  0  0  0  0
   23.0107   -4.6832   -4.9787 O   0  0  0  0  0  0  0  0  0  0  0  0
   20.7413   -5.7936   -5.4273 O   0  0  0  1  0  0  0  0  0  0  0  0
   20.5329   -2.9394   -8.0007 C   0  0  0  1  0  0  0  0  0  0  0  0
   20.3440   -3.9582   -7.7336 H   0  0  0  1  0  0  0  0  0  0  0  0
   21.5884   -2.7781   -8.0699 H   0  0  0  1  0  0  0  0  0  0  0  0
   19.9283   -2.6871   -9.3523 C   0  0  0  1  0  0  0  0  0  0  0  0
   18.9499   -2.3359   -9.3838 H   0  0  0  1  0  0  0  0  0  0  0  0
   20.5512   -2.8796  -10.5123 C   0  0  0  1  0  0  0  0  0  0  0  0
   19.8336   -2.9325  -11.8423 C   0  0  0  1  0  0  0  0  0  0  0  0
   20.1993   -2.1524  -12.4768 H   0  0  0  1  0  0  0  0  0  0  0  0
   18.7831   -2.8017  -11.6860 H   0  0  0  1  0  0  0  0  0  0  0  0
   20.0104   -3.8808  -12.3053 H   0  0  0  1  0  0  0  0  0  0  0  0
   22.0270   -3.1623  -10.5344 C   0  0  0  1  0  0  0  0  0  0  0  0
   22.1873   -4.0971  -11.0296 H   0  0  0  1  0  0  0  0  0  0  0  0
   22.3763   -3.2282   -9.5251 H   0  0  0  1  0  0  0  0  0  0  0  0
   22.8280   -2.0897  -11.2544 C   0  0  0  1  0  0  0  0  0  0  0  0
   22.4439   -1.1360  -10.9579 H   0  0  0  1  0  0  0  0  0  0  0  0
   22.6845   -2.2211  -12.3066 H   0  0  0  1  0  0  0  0  0  0  0  0
   24.3086   -2.0988  -10.9830 C   0  0  0  1  0  0  0  0  0  0  0  0
   24.5980   -2.0126   -9.9878 H   0  0  0  1  0  0  0  0  0  0  0  0
   25.2859   -2.2050  -11.8770 C   0  0  0  1  0  0  0  0  0  0  0  0
   26.7082   -2.5276  -11.5218 C   0  0  0  1  0  0  0  0  0  0  0  0
   26.7629   -3.5242  -11.1362 H   0  0  0  1  0  0  0  0  0  0  0  0
   27.0553   -1.8389  -10.7800 H   0  0  0  1  0  0  0  0  0  0  0  0
   27.3204   -2.4495  -12.3959 H   0  0  0  1  0  0  0  0  0  0  0  0
   25.0338   -2.0055  -13.3450 C   0  0  0  1  0  0  0  0  0  0  0  0
   25.5761   -1.1340  -13.6474 H   0  0  0  1  0  0  0  0  0  0  0  0
   23.9849   -1.8346  -13.4695 H   0  0  0  1  0  0  0  0  0  0  0  0
   25.4254   -3.1338  -14.2852 C   0  0  0  1  0  0  0  0  0  0  0  0
   25.1719   -4.0652  -13.8237 H   0  0  0  1  0  0  0  0  0  0  0  0
   26.4823   -3.0912  -14.4467 H   0  0  0  1  0  0  0  0  0  0  0  0
   24.7333   -3.0563  -15.6198 C   0  0  0  1  0  0  0  0  0  0  0  0
   23.7187   -2.8280  -15.6231 H   0  0  0  1  0  0  0  0  0  0  0  0
   25.3271   -3.2596  -16.8038 C   0  0  0  1  0  0  0  0  0  0  0  0
   26.8381   -3.2537  -16.8706 C   0  0  0  1  0  0  0  0  0  0  0  0
   27.2107   -2.6159  -16.0965 H   0  0  0  1  0  0  0  0  0  0  0  0
   27.1353   -2.8694  -17.8240 H   0  0  0  1  0  0  0  0  0  0  0  0
   24.5628   -3.4901  -18.0518 C   0  0  0  1  0  0  0  0  0  0  0  0
   23.5145   -3.4492  -17.8413 H   0  0  0  1  0  0  0  0  0  0  0  0
   24.8094   -4.4530  -18.4480 H   0  0  0  1  0  0  0  0  0  0  0  0
   24.8125   -2.7348  -18.7673 H   0  0  0  1  0  0  0  0  0  0  0  0
   27.4472   -4.6351  -16.6945 C   0  0  0  1  0  0  0  0  0  0  0  0
   27.0771   -5.2615  -17.4791 H   0  0  0  1  0  0  0  0  0  0  0  0
   27.1259   -5.0194  -15.7490 H   0  0  0  1  0  0  0  0  0  0  0  0
   28.9499   -4.6863  -16.7298 C   0  0  0  1  0  0  0  0  0  0  0  0
   29.4643   -4.2800  -15.9224 H   0  0  0  1  0  0  0  0  0  0  0  0
   29.6687   -5.2115  -17.7147 C   0  0  0  1  0  0  0  0  0  0  0  0
   29.0417   -6.1059  -18.7506 C   0  0  0  1  0  0  0  0  0  0  0  0
   28.3124   -6.7101  -18.2527 H   0  0  0  1  0  0  0  0  0  0  0  0
   29.8155   -6.7315  -19.1440 H   0  0  0  1  0  0  0  0  0  0  0  0
   31.1420   -4.9764  -17.8957 C   0  0  0  1  0  0  0  0  0  0  0  0
   31.6298   -5.9067  -18.0994 H   0  0  0  1  0  0  0  0  0  0  0  0
   31.5472   -4.5497  -17.0020 H   0  0  0  1  0  0  0  0  0  0  0  0
   31.2979   -4.3054  -18.7145 H   0  0  0  1  0  0  0  0  0  0  0  0
   28.3520   -5.4395  -19.9298 C   0  0  0  1  0  0  0  0  0  0  0  0
   29.0925   -4.8745  -20.4564 H   0  0  0  1  0  0  0  0  0  0  0  0
   27.6111   -4.7764  -19.5345 H   0  0  0  1  0  0  0  0  0  0  0  0
   27.6736   -6.3260  -20.9255 C   0  0  0  1  0  0  0  0  0  0  0  0
   26.8535   -6.8763  -20.5998 H   0  0  0  1  0  0  0  0  0  0  0  0
   28.0408   -6.4628  -22.1952 C   0  0  0  1  0  0  0  0  0  0  0  0
   28.9783   -5.5191  -22.8999 C   0  0  0  1  0  0  0  0  0  0  0  0
   29.6418   -6.0927  -23.5127 H   0  0  0  1  0  0  0  0  0  0  0  0
   29.5429   -4.9867  -22.1632 H   0  0  0  1  0  0  0  0  0  0  0  0
   27.5354   -7.5967  -23.0421 C   0  0  0  1  0  0  0  0  0  0  0  0
   26.9039   -8.2285  -22.4532 H   0  0  0  1  0  0  0  0  0  0  0  0
   28.3647   -8.1644  -23.4093 H   0  0  0  1  0  0  0  0  0  0  0  0
   26.9779   -7.2045  -23.8669 H   0  0  0  1  0  0  0  0  0  0  0  0
   28.2577   -4.5103  -23.7794 C   0  0  0  1  0  0  0  0  0  0  0  0
   27.5731   -3.9652  -23.1638 H   0  0  0  1  0  0  0  0  0  0  0  0
   27.7142   -5.0516  -24.5254 H   0  0  0  1  0  0  0  0  0  0  0  0
   29.1387   -3.5226  -24.4762 C   0  0  0  1  0  0  0  0  0  0  0  0
   29.7614   -3.8800  -25.2286 H   0  0  0  1  0  0  0  0  0  0  0  0
   29.1850   -2.2225  -24.2056 C   0  0  0  1  0  0  0  0  0  0  0  0
   28.1450   -1.5021  -23.3951 C   0  0  0  1  0  0  0  0  0  0  0  0
   28.6182   -1.0221  -22.5641 H   0  0  0  1  0  0  0  0  0  0  0  0
   27.4267   -2.2099  -23.0373 H   0  0  0  1  0  0  0  0  0  0  0  0
   30.3062   -1.3567  -24.7011 C   0  0  0  1  0  0  0  0  0  0  0  0
   30.2045   -0.3727  -24.2935 H   0  0  0  1  0  0  0  0  0  0  0  0
   30.2716   -1.3055  -25.7693 H   0  0  0  1  0  0  0  0  0  0  0  0
   31.2419   -1.7748  -24.3937 H   0  0  0  1  0  0  0  0  0  0  0  0
   27.4354   -0.4547  -24.2377 C   0  0  0  1  0  0  0  0  0  0  0  0
   26.9304   -0.9489  -25.0411 H   0  0  0  1  0  0  0  0  0  0  0  0
   28.1681    0.2162  -24.6352 H   0  0  0  1  0  0  0  0  0  0  0  0
   26.4267    0.3452  -23.4575 C   0  0  0  1  0  0  0  0  0  0  0  0
   25.6869   -0.1790  -22.9480 H   0  0  0  1  0  0  0  0  0  0  0  0
   26.4109    1.6700  -23.3715 C   0  0  0  1  0  0  0  0  0  0  0  0
   27.4578    2.5112  -24.0516 C   0  0  0  1  0  0  0  0  0  0  0  0
   26.9611    3.3183  -24.5483 H   0  0  0  1  0  0  0  0  0  0  0  0
   27.9549    1.8987  -24.7745 H   0  0  0  1  0  0  0  0  0  0  0  0
   25.3785    2.4475  -22.6096 C   0  0  0  1  0  0  0  0  0  0  0  0
   25.2819    3.4248  -23.0344 H   0  0  0  1  0  0  0  0  0  0  0  0
   25.6793    2.5318  -21.5862 H   0  0  0  1  0  0  0  0  0  0  0  0
   24.4379    1.9404  -22.6648 H   0  0  0  1  0  0  0  0  0  0  0  0
   28.5142    3.1044  -23.1338 C   0  0  0  1  0  0  0  0  0  0  0  0
   28.9849    2.3077  -22.5965 H   0  0  0  1  0  0  0  0  0  0  0  0
   28.0332    3.7655  -22.4434 H   0  0  0  1  0  0  0  0  0  0  0  0
   29.5743    3.8743  -23.8750 C   0  0  0  1  0  0  0  0  0  0  0  0
   29.3348    4.1823  -24.8391 H   0  0  0  1  0  0  0  0  0  0  0  0
   30.7841    4.2033  -23.4308 C   0  0  0  1  0  0  0  0  0  0  0  0
   31.2335    4.1526  -21.9980 C   0  0  0  1  0  0  0  0  0  0  0  0
   30.5756    3.5047  -21.4574 H   0  0  0  1  0  0  0  0  0  0  0  0
   31.1787    5.1397  -21.5887 H   0  0  0  1  0  0  0  0  0  0  0  0
   31.8232    4.6713  -24.4071 C   0  0  0  1  0  0  0  0  0  0  0  0
   31.8464    5.7410  -24.4188 H   0  0  0  1  0  0  0  0  0  0  0  0
   31.5824    4.3093  -25.3848 H   0  0  0  1  0  0  0  0  0  0  0  0
   32.7819    4.2972  -24.1139 H   0  0  0  1  0  0  0  0  0  0  0  0
   32.6558    3.6408  -21.8379 C   0  0  0  1  0  0  0  0  0  0  0  0
   32.9628    3.2470  -22.7843 H   0  0  0  1  0  0  0  0  0  0  0  0
   32.6331    2.8533  -21.1138 H   0  0  0  1  0  0  0  0  0  0  0  0
   33.7045    4.6261  -21.3986 C   0  0  0  1  0  0  0  0  0  0  0  0
   34.6349    4.5768  -21.8609 H   0  0  0  1  0  0  0  0  0  0  0  0
   33.5307    5.5546  -20.4642 C   0  0  0  1  0  0  0  0  0  0  0  0
   34.5115    6.6585  -20.1943 C   0  0  0  1  0  0  0  0  0  0  0  0
   34.2221    7.1421  -19.2847 H   0  0  0  1  0  0  0  0  0  0  0  0
   34.4543    7.3561  -21.0036 H   0  0  0  1  0  0  0  0  0  0  0  0
   32.3104    5.5690  -19.5873 C   0  0  0  1  0  0  0  0  0  0  0  0
   31.7603    4.6891  -19.8482 H   0  0  0  1  0  0  0  0  0  0  0  0
   31.7254    6.4450  -19.7752 H   0  0  0  1  0  0  0  0  0  0  0  0
   32.5914    5.5418  -18.5552 H   0  0  0  1  0  0  0  0  0  0  0  0
   35.9607    6.2223  -20.0529 C   0  0  0  1  0  0  0  0  0  0  0  0
   36.2697    5.7648  -20.9695 H   0  0  0  1  0  0  0  0  0  0  0  0
   36.0257    5.5090  -19.2580 H   0  0  0  1  0  0  0  0  0  0  0  0
   36.8933    7.3643  -19.7493 C   0  0  0  1  0  0  0  0  0  0  0  0
   36.9594    8.1308  -20.4491 H   0  0  0  1  0  0  0  0  0  0  0  0
   37.6378    7.4660  -18.6547 C   0  0  0  1  0  0  0  0  0  0  0  0
   37.5867    6.4232  -17.5762 C   0  0  0  1  0  0  0  0  0  0  0  0
   38.1644    6.7490  -16.7366 H   0  0  0  1  0  0  0  0  0  0  0  0
   37.9877    5.5042  -17.9498 H   0  0  0  1  0  0  0  0  0  0  0  0
   36.5714    6.2729  -17.2736 H   0  0  0  1  0  0  0  0  0  0  0  0
   38.5877    8.6076  -18.3849 C   0  0  0  1  0  0  0  0  0  0  0  0
   38.4617    9.3209  -19.1724 H   0  0  0  1  0  0  0  0  0  0  0  0
   39.5959    8.2495  -18.3736 H   0  0  0  1  0  0  0  0  0  0  0  0
   38.3585    9.0591  -17.4423 H   0  0  0  1  0  0  0  0  0  0  0  0
   16.0002   -5.0371   -1.4134 C   0  0  0  1  0  0  0  0  0  0  0  0
   16.0991   -5.5164   -0.4619 H   0  0  0  1  0  0  0  0  0  0  0  0
   14.8870   -5.6903   -2.1780 C   0  0  0  1  0  0  0  0  0  0  0  0
   15.1593   -6.7002   -2.4037 H   0  0  0  1  0  0  0  0  0  0  0  0
   15.7414   -3.6744   -1.2149 O   0  0  0  1  0  0  0  0  0  0  0  0
   14.6250   -4.9406   -3.4739 C   0  0  0  1  0  0  0  0  0  0  0  0
   13.7269   -5.3175   -3.9168 H   0  0  0  1  0  0  0  0  0  0  0  0
   15.6534   -2.9408   -2.4392 C   0  0  0  1  0  0  0  0  0  0  0  0
   16.5530   -3.0742   -3.0029 H   0  0  0  1  0  0  0  0  0  0  0  0
   14.4695   -3.4563   -3.2396 C   0  0  0  1  0  0  0  0  0  0  0  0
   14.4284   -2.9495   -4.1811 H   0  0  0  1  0  0  0  0  0  0  0  0
   17.2124   -5.1786   -2.1449 O   0  0  0  1  0  0  0  0  0  0  0  0
   13.7036   -5.6828   -1.3834 O   0  0  0  1  0  0  0  0  0  0  0  0
   12.9448   -5.8820   -1.9367 H   0  0  0  1  0  0  0  0  0  0  0  0
   15.7157   -5.1549   -4.3578 O   0  0  0  1  0  0  0  0  0  0  0  0
   15.4566   -5.7770   -5.0415 H   0  0  0  1  0  0  0  0  0  0  0  0
   15.4603   -1.4734   -2.1374 C   0  0  0  1  0  0  0  0  0  0  0  0
   15.8270   -0.8893   -2.9555 H   0  0  0  1  0  0  0  0  0  0  0  0
   15.9982   -1.2186   -1.2482 H   0  0  0  1  0  0  0  0  0  0  0  0
   14.4190   -1.2728   -1.9948 H   0  0  0  1  0  0  0  0  0  0  0  0
   20.1332   -4.8176   -2.3821 C   0  0  0  1  0  0  0  0  0  0  0  0
   19.5193   -4.0619   -2.8258 H   0  0  0  1  0  0  0  0  0  0  0  0
   19.3928   -6.1514   -2.4195 C   0  0  0  1  0  0  0  0  0  0  0  0
   20.0352   -6.9245   -2.0527 H   0  0  0  1  0  0  0  0  0  0  0  0
   20.4317   -4.4497   -1.0414 O   0  0  0  1  0  0  0  0  0  0  0  0
   18.1427   -6.0742   -1.5457 C   0  0  0  1  0  0  0  0  0  0  0  0
   17.7059   -7.0484   -1.4750 H   0  0  0  1  0  0  0  0  0  0  0  0
   19.2616   -4.2693   -0.2285 C   0  0  0  1  0  0  0  0  0  0  0  0
   19.5557   -3.9741    0.7570 H   0  0  0  1  0  0  0  0  0  0  0  0
   18.4766   -5.5805   -0.1529 C   0  0  0  1  0  0  0  0  0  0  0  0
   17.5695   -5.4179    0.3908 H   0  0  0  1  0  0  0  0  0  0  0  0
   19.0074   -6.4499   -3.7859 N   0  0  0  1  0  0  0  0  0  0  0  0
   18.9850   -5.7213   -4.4409 H   0  0  0  1  0  0  0  0  0  0  0  0
   19.2654   -6.5637    0.5190 O   0  0  0  1  0  0  0  0  0  0  0  0
   19.5534   -6.1642    1.3430 H   0  0  0  1  0  0  0  0  0  0  0  0
   18.3927   -3.2015   -0.8341 C   0  0  0  1  0  0  0  0  0  0  0  0
   17.4753   -3.1369   -0.2871 H   0  0  0  1  0  0  0  0  0  0  0  0
   18.1838   -3.4489   -1.8539 H   0  0  0  1  0  0  0  0  0  0  0  0
   19.0658   -1.9474   -0.7795 O   0  0  0  1  0  0  0  0  0  0  0  0
   19.1976   -1.6380   -1.6786 H   0  0  0  1  0  0  0  0  0  0  0  0
   18.6818   -7.6835   -4.1824 C   0  0  0  1  0  0  0  0  0  0  0  0
   18.6854   -8.6533   -3.4253 O   0  0  0  1  0  0  0  0  0  0  0  0
   18.3003   -7.8269   -5.6429 C   0  0  0  1  0  0  0  0  0  0  0  0
   17.8702   -6.8814   -5.8999 H   0  0  0  1  0  0  0  0  0  0  0  0
   17.5878   -8.6145   -5.7724 H   0  0  0  1  0  0  0  0  0  0  0  0
   19.1645   -8.0249   -6.2420 H   0  0  0  1  0  0  0  0  0  0  0  0
  1  2  1  0  0  0  0
  1  3  1  0  0  0  0
  1  4  1  0  0  0  0
  1 44  1  0  0  0  0
  3 20  1  0  0  0  0
  4  5  1  0  0  0  0
  4  6  1  0  0  0  0
  4  8  1  0  0  0  0
  6  7  1  0  0  0  0
  8  9  1  0  0  0  0
  8 10  1  0  0  0  0
  8 20  1  0  0  0  0
 10 11  1  0  0  0  0
 12 13  1  0  0  0  0
 12 14  1  0  0  0  0
 12 15  1  0  0  0  0
 12 17  1  0  0  0  0
 15 16  1  0  0  0  0
 17 18  1  0  0  0  0
 17 19  1  0  0  0  0
 17 20  1  0  0  0  0
 19 22  1  0  0  0  0
 20 21  1  0  0  0  0
 22 23  1  0  0  0  0
 22 24  1  0  0  0  0
 22 25  1  0  0  0  0
 24 42  1  0  0  0  0
 25 26  1  0  0  0  0
 25 27  1  0  0  0  0
 25 29  1  0  0  0  0
 27 28  1  0  0  0  0
 29 30  1  0  0  0  0
 29 31  1  0  0  0  0
 29 42  1  0  0  0  0
 31 32  1  0  0  0  0
 33 34  1  0  0  0  0
 33 35  1  0  0  0  0
 33 36  1  0  0  0  0
 33 38  1  0  0  0  0
 36 37  1  0  0  0  0
 38 39  1  0  0  0  0
 38 40  1  0  0  0  0
 38 42  1  0  0  0  0
 40 41  1  0  0  0  0
 42 43  1  0  0  0  0
 44194  1  0  0  0  0
 45 46  1  0  0  0  0
 45 54  1  0  0  0  0
 46 47  1  0  0  0  0
 46 48  1  0  0  0  0
 46 49  2  0  0  0  0
 47 50  1  0  0  0  0
 50 51  1  0  0  0  0
 50 52  1  0  0  0  0
 50 53  2  0  0  0  0
 51205  1  0  0  0  0
 54 55  1  0  0  0  0
 54 56  1  0  0  0  0
 54 57  1  0  0  0  0
 57 58  1  0  0  0  0
 57 59  2  0  0  0  0
 59 60  1  0  0  0  0
 59 64  1  0  0  0  0
 60 61  1  0  0  0  0
 60 62  1  0  0  0  0
 60 63  1  0  0  0  0
 64 65  1  0  0  0  0
 64 66  1  0  0  0  0
 64 67  1  0  0  0  0
 67 68  1  0  0  0  0
 67 69  1  0  0  0  0
 67 70  1  0  0  0  0
 70 71  1  0  0  0  0
 70 72  2  0  0  0  0
 72 73  1  0  0  0  0
 72 77  1  0  0  0  0
 73 74  1  0  0  0  0
 73 75  1  0  0  0  0
 73 76  1  0  0  0  0
 77 78  1  0  0  0  0
 77 79  1  0  0  0  0
 77 80  1  0  0  0  0
 80 81  1  0  0  0  0
 80 82  1  0  0  0  0
 80 83  1  0  0  0  0
 83 84  1  0  0  0  0
 83 85  2  0  0  0  0
 85 86  1  0  0  0  0
 85 89  1  0  0  0  0
 86 87  1  0  0  0  0
 86 88  1  0  0  0  0
 86 93  1  0  0  0  0
 89 90  1  0  0  0  0
 89 91  1  0  0  0  0
 89 92  1  0  0  0  0
 93 94  1  0  0  0  0
 93 95  1  0  0  0  0
 93 96  1  0  0  0  0
 96 97  1  0  0  0  0
 96 98  2  0  0  0  0
 98 99  1  0  0  0  0
 98102  1  0  0  0  0
 99100  1  0  0  0  0
 99101  1  0  0  0  0
 99106  1  0  0  0  0
102103  1  0  0  0  0
102104  1  0  0  0  0
102105  1  0  0  0  0
106107  1  0  0  0  0
106108  1  0  0  0  0
106109  1  0  0  0  0
109110  1  0  0  0  0
109111  2  0  0  0  0
111112  1  0  0  0  0
111115  1  0  0  0  0
112113  1  0  0  0  0
112114  1  0  0  0  0
112119  1  0  0  0  0
115116  1  0  0  0  0
115117  1  0  0  0  0
115118  1  0  0  0  0
119120  1  0  0  0  0
119121  1  0  0  0  0
119122  1  0  0  0  0
122123  1  0  0  0  0
122124  2  0  0  0  0
124125  1  0  0  0  0
124128  1  0  0  0  0
125126  1  0  0  0  0
125127  1  0  0  0  0
125132  1  0  0  0  0
128129  1  0  0  0  0
128130  1  0  0  0  0
128131  1  0  0  0  0
132133  1  0  0  0  0
132134  1  0  0  0  0
132135  1  0  0  0  0
135136  1  0  0  0  0
135137  2  0  0  0  0
137138  1  0  0  0  0
137141  1  0  0  0  0
138139  1  0  0  0  0
138140  1  0  0  0  0
138145  1  0  0  0  0
141142  1  0  0  0  0
141143  1  0  0  0  0
141144  1  0  0  0  0
145146  1  0  0  0  0
145147  1  0  0  0  0
145148  1  0  0  0  0
148149  1  0  0  0  0
148150  2  0  0  0  0
150151  1  0  0  0  0
150154  1  0  0  0  0
151152  1  0  0  0  0
151153  1  0  0  0  0
151158  1  0  0  0  0
154155  1  0  0  0  0
154156  1  0  0  0  0
154157  1  0  0  0  0
158159  1  0  0  0  0
158160  1  0  0  0  0
158161  1  0  0  0  0
161162  1  0  0  0  0
161163  2  0  0  0  0
163164  1  0  0  0  0
163167  1  0  0  0  0
164165  1  0  0  0  0
164166  1  0  0  0  0
164171  1  0  0  0  0
167168  1  0  0  0  0
167169  1  0  0  0  0
167170  1  0  0  0  0
171172  1  0  0  0  0
171173  1  0  0  0  0
171174  1  0  0  0  0
174175  1  0  0  0  0
174176  2  0  0  0  0
176177  1  0  0  0  0
176181  1  0  0  0  0
177178  1  0  0  0  0
177179  1  0  0  0  0
177180  1  0  0  0  0
181182  1  0  0  0  0
181183  1  0  0  0  0
181184  1  0  0  0  0
185186  1  0  0  0  0
185187  1  0  0  0  0
185189  1  0  0  0  0
185196  1  0  0  0  0
187188  1  0  0  0  0
187190  1  0  0  0  0
187197  1  0  0  0  0
189192  1  0  0  0  0
190191  1  0  0  0  0
190194  1  0  0  0  0
190199  1  0  0  0  0
192193  1  0  0  0  0
192194  1  0  0  0  0
192201  1  0  0  0  0
194195  1  0  0  0  0
196210  1  0  0  0  0
197198  1  0  0  0  0
199200  1  0  0  0  0
201202  1  0  0  0  0
201203  1  0  0  0  0
201204  1  0  0  0  0
205206  1  0  0  0  0
205207  1  0  0  0  0
205209  1  0  0  0  0
207208  1  0  0  0  0
207210  1  0  0  0  0
207216  1  0  0  0  0
209212  1  0  0  0  0
210211  1  0  0  0  0
210214  1  0  0  0  0
212213  1  0  0  0  0
212214  1  0  0  0  0
212220  1  0  0  0  0
214215  1  0  0  0  0
214218  1  0  0  0  0
216217  1  0  0  0  0
216225  1  0  0  0  0
218219  1  0  0  0  0
220221  1  0  0  0  0
220222  1  0  0  0  0
220223  1  0  0  0  0
223224  1  0  0  0  0
225226  2  0  0  0  0
225227  1  0  0  0  0
227228  1  0  0  0  0
227229  1  0  0  0  0
227230  1  0  0  0  0
M  BCL ATM C_TeTeTeTe H_S O_Te2Te2TeTe C_TeTeTeTe H_S O_Te2Te2TeTe H_S C_TeTeTeTe H_S O_Te2Te2TeTe H_S C_TeTeTeTe H_S H_S O_Te2Te2TeTe H_S C_TeTeTeTe H_S O_Te2Te2TeTe C_TeTeTeTe H_S C_TeTeTeTe H_S O_Te2Te2TeTe C_TeTeTeTe H_S O_Te2Te2TeTe H_S C_TeTeTeTe H_S O_Te2Te2TeTe H_S C_TeTeTeTe H_S H_S O_Te2Te2TeTe H_S C_TeTeTeTe H_S O_Te2Te2TeTe H_S C_TeTeTeTe H_S O_Te2Te2TeTe O_Tr2TrTrPi2 P_TeTeTeTePi O_Tr2TrTrPi2 O_Te2Te2TeTe O_Tr2Tr2TrPi P_TeTeTeTePi O_Tr2TrTrPi2 O_Te2Te2TeTe O_Tr2Tr2TrPi C_TeTeTeTe H_S H_S C_TrTrTrPi H_S C_TrTrTrPi C_TeTeTeTe H_S H_S H_S C_TeTeTeTe H_S H_S C_TeTeTeTe H_S H_S C_TrTrTrPi H_S C_TrTrTrPi C_TeTeTeTe H_S H_S H_S C_TeTeTeTe H_S H_S C_TeTeTeTe H_S H_S C_TrTrTrPi H_S C_TrTrTrPi C_TeTeTeTe H_S H_S C_TeTeTeTe H_S H_S H_S C_TeTeTeTe H_S H_S C_TrTrTrPi H_S C_TrTrTrPi C_TeTeTeTe H_S H_S C_TeTeTeTe H_S H_S H_S C_TeTeTeTe H_S H_S C_TrTrTrPi H_S C_TrTrTrPi C_TeTeTeTe H_S H_S C_TeTeTeTe H_S H_S H_S C_TeTeTeTe H_S H_S C_TrTrTrPi H_S C_TrTrTrPi C_TeTeTeTe H_S H_S C_TeTeTeTe H_S H_S H_S C_TeTeTeTe H_S H_S C_TrTrTrPi H_S C_TrTrTrPi C_TeTeTeTe H_S H_S C_TeTeTeTe H_S H_S H_S C_TeTeTeTe H_S H_S C_TrTrTrPi H_S C_TrTrTrPi C_TeTeTeTe H_S H_S C_TeTeTeTe H_S H_S H_S C_TeTeTeTe H_S H_S C_TrTrTrPi H_S C_TrTrTrPi C_TeTeTeTe H_S H_S C_TeTeTeTe H_S H_S H_S C_TeTeTeTe H_S H_S C_TrTrTrPi H_S C_TrTrTrPi C_TeTeTeTe H_S H_S H_S C_TeTeTeTe H_S H_S H_S C_TeTeTeTe H_S C_TeTeTeTe H_S O_Te2Te2TeTe C_TeTeTeTe H_S C_TeTeTeTe H_S C_TeTeTeTe H_S O_Te2Te2TeTe O_Te2Te2TeTe H_S O_Te2Te2TeTe H_S C_TeTeTeTe H_S H_S H_S C_TeTeTeTe H_S C_TeTeTeTe H_S O_Te2Te2TeTe C_TeTeTeTe H_S C_TeTeTeTe H_S C_TeTeTeTe H_S N_TrTrTrPi2 H_S O_Te2Te2TeTe H_S C_TeTeTeTe H_S H_S O_Te2Te2TeTe H_S C_TrTrTrPi O_Tr2Tr2TrPi C_TeTeTeTe H_S H_S H_S
M  BCL BND NonConjugatedSingleBond NonConjugatedSingleBondInRing NonConjugatedSingleBondInRing NonConjugatedSingleBond NonConjugatedSingleBondInRing NonConjugatedSingleBond NonConjugatedSingleBond NonConjugatedSingleBondInRing NonConjugatedSingleBond NonConjugatedSingleBond NonConjugatedSingleBond NonConjugatedSingleBondInRing NonConjugatedSingleBond NonConjugatedSingleBond NonConjugatedSingleBond NonConjugatedSingleBond NonConjugatedSingleBond NonConjugatedSingleBond NonConjugatedSingleBond NonConjugatedSingleBond NonConjugatedSingleBond NonConjugatedSingleBond NonConjugatedSingleBond NonConjugatedSingleBond NonConjugatedSingleBondInRing NonConjugatedSingleBondInRing NonConjugatedSingleBondInRing NonConjugatedSingleBond NonConjugatedSingleBond NonConjugatedSingleBondInRing NonConjugatedSingleBond NonConjugatedSingleBond NonConjugatedSingleBond NonConjugatedSingleBondInRing NonConjugatedSingleBond NonConjugatedSingleBond NonConjugatedSingleBond NonConjugatedSingleBond NonConjugatedSingleBond NonConjugatedSingleBond NonConjugatedSingleBond NonConjugatedSingleBond NonConjugatedSingleBond NonConjugatedSingleBond NonConjugatedSingleBond NonConjugatedSingleBond ConjugatedSingleBond NonConjugatedSingleBond ConjugatedSingleBond ConjugatedSingleBond ConjugatedDoubleBond ConjugatedSingleBond ConjugatedSingleBond ConjugatedSingleBond ConjugatedDoubleBond NonConjugatedSingleBond NonConjugatedSingleBond NonConjugatedSingleBond NonConjugatedSingleBond NonConjugatedSingleBond ConjugatedDoubleBond NonConjugatedSingleBond NonConjugatedSingleBond NonConjugatedSingleBond NonConjugatedSingleBond NonConjugatedSingleBond NonConjugatedSingleBond NonConjugatedSingleBond NonConjugatedSingleBond NonConjugatedSingleBond NonConjugatedSingleBond NonConjugatedSingleBond NonConjugatedSingleBond ConjugatedDoubleBond NonConjugatedSingleBond NonConjugatedSingleBond NonConjugatedSingleBond NonConjugatedSingleBond NonConjugatedSingleBond NonConjugatedSingleBond NonConjugatedSingleBond NonConjugatedSingleBond NonConjugatedSingleBond NonConjugatedSingleBond NonConjugatedSingleBond NonConjugatedSingleBond ConjugatedDoubleBond NonConjugatedSingleBond NonConjugatedSingleBond NonConjugatedSingleBond NonConjugatedSingleBond NonConjugatedSingleBond NonConjugatedSingleBond NonConjugatedSingleBond NonConjugatedSingleBond NonConjugatedSingleBond NonConjugatedSingleBond NonConjugatedSingleBond NonConjugatedSingleBond ConjugatedDoubleBond NonConjugatedSingleBond NonConjugatedSingleBond NonConjugatedSingleBond NonConjugatedSingleBond NonConjugatedSingleBond NonConjugatedSingleBond NonConjugatedSingleBond NonConjugatedSingleBond NonConjugatedSingleBond NonConjugatedSingleBond NonConjugatedSingleBond NonConjugatedSingleBond ConjugatedDoubleBond NonConjugatedSingleBond NonConjugatedSingleBond NonConjugatedSingleBond NonConjugatedSingleBond NonConjugatedSingleBond NonConjugatedSingleBond NonConjugatedSingleBond NonConjugatedSingleBond NonConjugatedSingleBond NonConjugatedSingleBond NonConjugatedSingleBond NonConjugatedSingleBond ConjugatedDoubleBond NonConjugatedSingleBond NonConjugatedSingleBond NonConjugatedSingleBond NonConjugatedSingleBond NonConjugatedSingleBond NonConjugatedSingleBond NonConjugatedSingleBond NonConjugatedSingleBond NonConjugatedSingleBond NonConjugatedSingleBond NonConjugatedSingleBond NonConjugatedSingleBond ConjugatedDoubleBond NonConjugatedSingleBond NonConjugatedSingleBond NonConjugatedSingleBond NonConjugatedSingleBond NonConjugatedSingleBond NonConjugatedSingleBond NonConjugatedSingleBond NonConjugatedSingleBond NonConjugatedSingleBond NonConjugatedSingleBond NonConjugatedSingleBond NonConjugatedSingleBond ConjugatedDoubleBond NonConjugatedSingleBond NonConjugatedSingleBond NonConjugatedSingleBond NonConjugatedSingleBond NonConjugatedSingleBond NonConjugatedSingleBond NonConjugatedSingleBond NonConjugatedSingleBond NonConjugatedSingleBond NonConjugatedSingleBond NonConjugatedSingleBond NonConjugatedSingleBond ConjugatedDoubleBond NonConjugatedSingleBond NonConjugatedSingleBond NonConjugatedSingleBond NonConjugatedSingleBond NonConjugatedSingleBond NonConjugatedSingleBond NonConjugatedSingleBond NonConjugatedSingleBond NonConjugatedSingleBond NonConjugatedSingleBond NonConjugatedSingleBond NonConjugatedSingleBond ConjugatedDoubleBond NonConjugatedSingleBond NonConjugatedSingleBond NonConjugatedSingleBond NonConjugatedSingleBond NonConjugatedSingleBond NonConjugatedSingleBond NonConjugatedSingleBond NonConjugatedSingleBond NonConjugatedSingleBond NonConjugatedSingleBondInRing NonConjugatedSingleBondInRing NonConjugatedSingleBond NonConjugatedSingleBond NonConjugatedSingleBondInRing NonConjugatedSingleBond NonConjugatedSingleBondInRing NonConjugatedSingleBond NonConjugatedSingleBondInRing NonConjugatedSingleBond NonConjugatedSingleBond NonConjugatedSingleBondInRing NonConjugatedSingleBond NonConjugatedSingleBond NonConjugatedSingleBond NonConjugatedSingleBond NonConjugatedSingleBond NonConjugatedSingleBond NonConjugatedSingleBond NonConjugatedSingleBond NonConjugatedSingleBond NonConjugatedSingleBondInRing NonConjugatedSingleBondInRing NonConjugatedSingleBond NonConjugatedSingleBondInRing NonConjugatedSingleBond NonConjugatedSingleBondInRing NonConjugatedSingleBond NonConjugatedSingleBondInRing NonConjugatedSingleBond NonConjugatedSingleBondInRing NonConjugatedSingleBond NonConjugatedSingleBond NonConjugatedSingleBond NonConjugatedSingleBond AmideSingleBond NonConjugatedSingleBond NonConjugatedSingleBond NonConjugatedSingleBond NonConjugatedSingleBond NonConjugatedSingleBond ConjugatedDoubleBond NonConjugatedSingleBond NonConjugatedSingleBond NonConjugatedSingleBond NonConjugatedSingleBond
M  BCL CHI   1   R   4   R   8   R  17   S  20   R  22   S  25   R  29   S  38   S  42   R  46   R  50   S 185   R 187   S 190   S 192   R 194   R 205   R 207   S 210   R 212   S 214   S
M  BCL DBI - - E E E E E E E E Z - -
M  END
> <ConfClashScore>
0 

> <ConfOneFourInteractionScore>
-0.975912 

> <ConfScore>
0.067931 

> <ConfScorePBest>
0.0149955 

> <ConfTolerance>
0.25 

$$$$
L05.****
  PyMOL2.5          3D                             0

230233  0  0  0  0  0  0  0  0999 V2000
   12.0360   -3.1804   -3.2276 C   0  0  0  1  0  0  0  0  0  0  0  0
   12.0577   -4.0441   -3.8587 H   0  0  0  1  0  0  0  0  0  0  0  0
   11.8539   -2.0237   -3.9923 O   0  0  0  1  0  0  0  0  0  0  0  0
   10.8343   -3.2469   -2.2718 C   0  0  0  1  0  0  0  0  0  0  0  0
   11.0164   -2.6804   -1.3825 H   0  0  0  1  0  0  0  0  0  0  0  0
   10.5278   -4.5975   -1.9224 O   0  0  0  1  0  0  0  0  0  0  0  0
   10.1057   -4.6176   -1.0604 H   0  0  0  1  0  0  0  0  0  0  0  0
    9.7198   -2.6280   -3.0970 C   0  0  0  1  0  0  0  0  0  0  0  0
    9.2255   -3.3669   -3.6926 H   0  0  0  1  0  0  0  0  0  0  0  0
    8.7648   -1.9719   -2.2617 O   0  0  0  1  0  0  0  0  0  0  0  0
    9.1638   -1.7770   -1.4106 H   0  0  0  1  0  0  0  0  0  0  0  0
   10.6676   -0.7248   -6.3940 C   0  0  0  1  0  0  0  0  0  0  0  0
   10.2076    0.2410   -6.4169 H   0  0  0  1  0  0  0  0  0  0  0  0
   11.6878   -0.6273   -6.0862 H   0  0  0  1  0  0  0  0  0  0  0  0
   10.6189   -1.3022   -7.6921 O   0  0  0  1  0  0  0  0  0  0  0  0
   11.0400   -2.1648   -7.6751 H   0  0  0  1  0  0  0  0  0  0  0  0
    9.9159   -1.6265   -5.3966 C   0  0  0  1  0  0  0  0  0  0  0  0
   10.0191   -2.6300   -5.7534 H   0  0  0  1  0  0  0  0  0  0  0  0
    8.5258   -1.3367   -5.2928 O   0  0  0  1  0  0  0  0  0  0  0  0
   10.4760   -1.6099   -3.9858 C   0  0  0  1  0  0  0  0  0  0  0  0
   10.3872   -0.6247   -3.5779 H   0  0  0  1  0  0  0  0  0  0  0  0
    8.2468   -0.0909   -4.6790 C   0  0  0  1  0  0  0  0  0  0  0  0
    8.8146   -0.0023   -3.7765 H   0  0  0  1  0  0  0  0  0  0  0  0
    8.5500    0.9712   -5.5588 O   0  0  0  1  0  0  0  0  0  0  0  0
    6.7627    0.0352   -4.3862 C   0  0  0  1  0  0  0  0  0  0  0  0
    6.5230   -0.3634   -3.4226 H   0  0  0  1  0  0  0  0  0  0  0  0
    5.9810   -0.6251   -5.3834 O   0  0  0  1  0  0  0  0  0  0  0  0
    6.5025   -1.3206   -5.7907 H   0  0  0  1  0  0  0  0  0  0  0  0
    6.5518    1.5268   -4.4272 C   0  0  0  1  0  0  0  0  0  0  0  0
    6.8564    1.9895   -3.5117 H   0  0  0  1  0  0  0  0  0  0  0  0
    5.1908    1.8522   -4.6946 O   0  0  0  1  0  0  0  0  0  0  0  0
    5.1327    2.3289   -5.5259 H   0  0  0  1  0  0  0  0  0  0  0  0
    8.9670    3.7289   -6.4810 C   0  0  0  1  0  0  0  0  0  0  0  0
    8.4232    3.8311   -7.3968 H   0  0  0  1  0  0  0  0  0  0  0  0
    9.4018    4.6702   -6.2168 H   0  0  0  1  0  0  0  0  0  0  0  0
   10.0128    2.8044   -6.6908 O   0  0  0  1  0  0  0  0  0  0  0  0
   10.3553    2.9049   -7.5819 H   0  0  0  1  0  0  0  0  0  0  0  0
    7.9839    3.3356   -5.3861 C   0  0  0  1  0  0  0  0  0  0  0  0
    7.1610    4.0195   -5.3989 H   0  0  0  1  0  0  0  0  0  0  0  0
    8.6522    3.3942   -4.1265 O   0  0  0  1  0  0  0  0  0  0  0  0
    8.6800    4.3037   -3.8205 H   0  0  0  1  0  0  0  0  0  0  0  0
    7.4605    1.9330   -5.5866 C   0  0  0  1  0  0  0  0  0  0  0  0
    6.9329    1.8781   -6.5159 H   0  0  0  1  0  0  0  0  0  0  0  0
   13.2505   -3.1000   -2.4905 O   0  0  0  1  0  0  0  0  0  0  0  0
   19.3224  -11.2461    0.5982 O   0  0  0  1  0  0  0  0  0  0  0  0
   18.1150  -11.1362   -0.3777 P   0  0  0  1  0  0  0  0  0  0  0  0
   18.4501  -10.0175   -1.4810 O   0  0  0  1  0  0  0  0  0  0  0  0
   16.8939  -10.5930    0.3705 O   0  0  0  0  0  0  0  0  0  0  0  0
   17.8981  -12.4753   -0.9733 O   0  0  0  1  0  0  0  0  0  0  0  0
   19.7449   -9.6665   -2.2547 P   0  0  0  1  0  0  0  0  0  0  0  0
   20.0423   -8.2165   -1.7206 O   0  0  0  1  0  0  0  0  0  0  0  0
   19.3261   -9.5144   -3.7380 O   0  0  0  0  0  0  0  0  0  0  0  0
   20.8191  -10.6228   -1.9698 O   0  0  0  1  0  0  0  0  0  0  0  0
   20.3179  -12.2518    0.3508 C   0  0  0  1  0  0  0  0  0  0  0  0
   20.7419  -12.1079   -0.6210 H   0  0  0  1  0  0  0  0  0  0  0  0
   19.8709  -13.2225    0.4054 H   0  0  0  1  0  0  0  0  0  0  0  0
   21.3902  -12.1299    1.3932 C   0  0  0  1  0  0  0  0  0  0  0  0
   21.1772  -12.5350    2.3271 H   0  0  0  1  0  0  0  0  0  0  0  0
   22.5930  -11.5555    1.2513 C   0  0  0  1  0  0  0  0  0  0  0  0
   23.6576  -11.6675    2.2754 C   0  0  0  1  0  0  0  0  0  0  0  0
   23.2703  -12.1643    3.1404 H   0  0  0  1  0  0  0  0  0  0  0  0
   23.9949  -10.6892    2.5474 H   0  0  0  1  0  0  0  0  0  0  0  0
   24.4766  -12.2300    1.8782 H   0  0  0  1  0  0  0  0  0  0  0  0
   22.8762  -10.7610   -0.0039 C   0  0  0  1  0  0  0  0  0  0  0  0
   22.2677  -11.1574   -0.7898 H   0  0  0  1  0  0  0  0  0  0  0  0
   23.9089  -10.8918   -0.2514 H   0  0  0  1  0  0  0  0  0  0  0  0
   22.6027   -9.2690    0.0938 C   0  0  0  1  0  0  0  0  0  0  0  0
   23.1322   -8.8803    0.9384 H   0  0  0  1  0  0  0  0  0  0  0  0
   21.5518   -9.1238    0.2333 H   0  0  0  1  0  0  0  0  0  0  0  0
   23.0328   -8.5091   -1.1324 C   0  0  0  1  0  0  0  0  0  0  0  0
   22.7408   -8.9045   -2.0490 H   0  0  0  1  0  0  0  0  0  0  0  0
   23.7513   -7.3782   -1.1712 C   0  0  0  1  0  0  0  0  0  0  0  0
   24.3936   -6.8818   -2.4104 C   0  0  0  1  0  0  0  0  0  0  0  0
   23.6615   -6.3988   -3.0234 H   0  0  0  1  0  0  0  0  0  0  0  0
   24.8195   -7.7048   -2.9454 H   0  0  0  1  0  0  0  0  0  0  0  0
   25.1637   -6.1833   -2.1576 H   0  0  0  1  0  0  0  0  0  0  0  0
   23.9129   -6.5794    0.0944 C   0  0  0  1  0  0  0  0  0  0  0  0
   23.3958   -7.0837    0.8839 H   0  0  0  1  0  0  0  0  0  0  0  0
   23.4801   -5.6124   -0.0555 H   0  0  0  1  0  0  0  0  0  0  0  0
   25.3657   -6.4009    0.5044 C   0  0  0  1  0  0  0  0  0  0  0  0
   25.8801   -5.8861   -0.2800 H   0  0  0  1  0  0  0  0  0  0  0  0
   25.8018   -7.3681    0.6428 H   0  0  0  1  0  0  0  0  0  0  0  0
   25.5256   -5.6209    1.7706 C   0  0  0  1  0  0  0  0  0  0  0  0
   24.9099   -5.8927    2.5634 H   0  0  0  1  0  0  0  0  0  0  0  0
   26.3689   -4.6183    1.9923 C   0  0  0  1  0  0  0  0  0  0  0  0
   27.5385   -4.2993    1.1021 C   0  0  0  1  0  0  0  0  0  0  0  0
   27.8100   -5.1933    0.5807 H   0  0  0  1  0  0  0  0  0  0  0  0
   28.3514   -3.9877    1.7242 H   0  0  0  1  0  0  0  0  0  0  0  0
   26.2131   -3.7069    3.1770 C   0  0  0  1  0  0  0  0  0  0  0  0
   26.6910   -4.1437    4.0289 H   0  0  0  1  0  0  0  0  0  0  0  0
   25.1728   -3.5671    3.3847 H   0  0  0  1  0  0  0  0  0  0  0  0
   26.6644   -2.7612    2.9610 H   0  0  0  1  0  0  0  0  0  0  0  0
   27.2938   -3.2105    0.0700 C   0  0  0  1  0  0  0  0  0  0  0  0
   26.7260   -2.4337    0.5380 H   0  0  0  1  0  0  0  0  0  0  0  0
   26.7252   -3.6361   -0.7302 H   0  0  0  1  0  0  0  0  0  0  0  0
   28.5226   -2.5948   -0.5145 C   0  0  0  1  0  0  0  0  0  0  0  0
   29.3581   -3.1976   -0.6564 H   0  0  0  1  0  0  0  0  0  0  0  0
   28.6008   -1.3157   -0.8619 C   0  0  0  1  0  0  0  0  0  0  0  0
   27.3687   -0.4673   -1.0017 C   0  0  0  1  0  0  0  0  0  0  0  0
   26.5140   -1.1104   -1.0317 H   0  0  0  1  0  0  0  0  0  0  0  0
   27.4351    0.0813   -1.9180 H   0  0  0  1  0  0  0  0  0  0  0  0
   29.8902   -0.6016   -1.1437 C   0  0  0  1  0  0  0  0  0  0  0  0
   30.3612   -1.0390   -1.9992 H   0  0  0  1  0  0  0  0  0  0  0  0
   30.5383   -0.6885   -0.2967 H   0  0  0  1  0  0  0  0  0  0  0  0
   29.6906    0.4318   -1.3362 H   0  0  0  1  0  0  0  0  0  0  0  0
   27.1921    0.5191    0.1411 C   0  0  0  1  0  0  0  0  0  0  0  0
   27.9867    1.2337    0.0861 H   0  0  0  1  0  0  0  0  0  0  0  0
   27.2634   -0.0242    1.0601 H   0  0  0  1  0  0  0  0  0  0  0  0
   25.8892    1.2730    0.1473 C   0  0  0  1  0  0  0  0  0  0  0  0
   25.0940    0.8286   -0.3545 H   0  0  0  1  0  0  0  0  0  0  0  0
   25.6428    2.4551    0.7293 C   0  0  0  1  0  0  0  0  0  0  0  0
   26.7394    3.3710    1.2030 C   0  0  0  1  0  0  0  0  0  0  0  0
   27.6813    2.8974    1.0204 H   0  0  0  1  0  0  0  0  0  0  0  0
   26.6184    3.5322    2.2538 H   0  0  0  1  0  0  0  0  0  0  0  0
   24.2149    2.8846    0.9172 C   0  0  0  1  0  0  0  0  0  0  0  0
   24.0737    3.8535    0.4856 H   0  0  0  1  0  0  0  0  0  0  0  0
   23.9891    2.9236    1.9623 H   0  0  0  1  0  0  0  0  0  0  0  0
   23.5655    2.1825    0.4374 H   0  0  0  1  0  0  0  0  0  0  0  0
   26.7325    4.7201    0.5026 C   0  0  0  1  0  0  0  0  0  0  0  0
   27.6423    5.2312    0.7391 H   0  0  0  1  0  0  0  0  0  0  0  0
   25.9000    5.2870    0.8639 H   0  0  0  1  0  0  0  0  0  0  0  0
   26.6216    4.6068   -0.9943 C   0  0  0  1  0  0  0  0  0  0  0  0
   27.3027    3.9760   -1.4632 H   0  0  0  1  0  0  0  0  0  0  0  0
   25.7487    5.2248   -1.7809 C   0  0  0  1  0  0  0  0  0  0  0  0
   24.9421    6.3958   -1.2870 C   0  0  0  1  0  0  0  0  0  0  0  0
   24.9315    6.3882   -0.2171 H   0  0  0  1  0  0  0  0  0  0  0  0
   23.9407    6.3121   -1.6546 H   0  0  0  1  0  0  0  0  0  0  0  0
   25.4807    4.8336   -3.2043 C   0  0  0  1  0  0  0  0  0  0  0  0
   26.1507    4.0504   -3.4917 H   0  0  0  1  0  0  0  0  0  0  0  0
   25.6290    5.6809   -3.8407 H   0  0  0  1  0  0  0  0  0  0  0  0
   24.4713    4.4906   -3.2957 H   0  0  0  1  0  0  0  0  0  0  0  0
   25.5425    7.7060   -1.7701 C   0  0  0  1  0  0  0  0  0  0  0  0
   25.7934    7.6043   -2.8053 H   0  0  0  1  0  0  0  0  0  0  0  0
   26.4296    7.9029   -1.2052 H   0  0  0  1  0  0  0  0  0  0  0  0
   24.6131    8.8680   -1.6175 C   0  0  0  1  0  0  0  0  0  0  0  0
   24.3798    9.1916   -0.6570 H   0  0  0  1  0  0  0  0  0  0  0  0
   24.0708    9.5070   -2.6485 C   0  0  0  1  0  0  0  0  0  0  0  0
   24.0544    8.9660   -4.0486 C   0  0  0  1  0  0  0  0  0  0  0  0
   25.0201    9.1460   -4.4727 H   0  0  0  1  0  0  0  0  0  0  0  0
   23.3163    9.5149   -4.5953 H   0  0  0  1  0  0  0  0  0  0  0  0
   23.4181   10.8509   -2.4857 C   0  0  0  1  0  0  0  0  0  0  0  0
   22.5935   10.7678   -1.8089 H   0  0  0  1  0  0  0  0  0  0  0  0
   23.0659   11.1936   -3.4362 H   0  0  0  1  0  0  0  0  0  0  0  0
   24.1301   11.5481   -2.0960 H   0  0  0  1  0  0  0  0  0  0  0  0
   23.7473    7.4882   -4.2276 C   0  0  0  1  0  0  0  0  0  0  0  0
   22.7100    7.3282   -4.0196 H   0  0  0  1  0  0  0  0  0  0  0  0
   24.3409    6.9305   -3.5337 H   0  0  0  1  0  0  0  0  0  0  0  0
   24.0366    6.9947   -5.6023 C   0  0  0  1  0  0  0  0  0  0  0  0
   24.6648    7.5464   -6.2208 H   0  0  0  1  0  0  0  0  0  0  0  0
   23.5072    5.8626   -6.0537 C   0  0  0  1  0  0  0  0  0  0  0  0
   22.3546    5.2321   -5.3246 C   0  0  0  1  0  0  0  0  0  0  0  0
   22.4330    5.4780   -4.2862 H   0  0  0  1  0  0  0  0  0  0  0  0
   22.4145    4.1707   -5.4458 H   0  0  0  1  0  0  0  0  0  0  0  0
   23.9356    5.2043   -7.3484 C   0  0  0  1  0  0  0  0  0  0  0  0
   23.6841    5.8391   -8.1721 H   0  0  0  1  0  0  0  0  0  0  0  0
   23.4322    4.2661   -7.4548 H   0  0  0  1  0  0  0  0  0  0  0  0
   24.9932    5.0424   -7.3330 H   0  0  0  1  0  0  0  0  0  0  0  0
   21.0008    5.7014   -5.8319 C   0  0  0  1  0  0  0  0  0  0  0  0
   20.9783    5.5593   -6.8922 H   0  0  0  1  0  0  0  0  0  0  0  0
   20.9081    6.7439   -5.6093 H   0  0  0  1  0  0  0  0  0  0  0  0
   19.8112    4.9937   -5.2436 C   0  0  0  1  0  0  0  0  0  0  0  0
   19.6683    5.1004   -4.2190 H   0  0  0  1  0  0  0  0  0  0  0  0
   18.9237    4.2476   -5.8904 C   0  0  0  1  0  0  0  0  0  0  0  0
   17.7760    3.5959   -5.1693 C   0  0  0  1  0  0  0  0  0  0  0  0
   17.6362    2.6134   -5.5693 H   0  0  0  1  0  0  0  0  0  0  0  0
   16.8941    4.1783   -5.3363 H   0  0  0  1  0  0  0  0  0  0  0  0
   18.9694    3.9825   -7.3668 C   0  0  0  1  0  0  0  0  0  0  0  0
   18.3169    4.7069   -7.8077 H   0  0  0  1  0  0  0  0  0  0  0  0
   18.6260    2.9917   -7.5795 H   0  0  0  1  0  0  0  0  0  0  0  0
   19.9660    4.1024   -7.7374 H   0  0  0  1  0  0  0  0  0  0  0  0
   18.0030    3.4804   -3.6708 C   0  0  0  1  0  0  0  0  0  0  0  0
   17.9695    4.4613   -3.2446 H   0  0  0  1  0  0  0  0  0  0  0  0
   18.9691    3.0516   -3.5047 H   0  0  0  1  0  0  0  0  0  0  0  0
   16.9739    2.6237   -2.9829 C   0  0  0  1  0  0  0  0  0  0  0  0
   16.0979    2.3256   -3.4575 H   0  0  0  1  0  0  0  0  0  0  0  0
   17.2526    2.2718   -1.7334 C   0  0  0  1  0  0  0  0  0  0  0  0
   16.2980    1.4443   -0.9247 C   0  0  0  1  0  0  0  0  0  0  0  0
   16.6963    0.4591   -0.8002 H   0  0  0  1  0  0  0  0  0  0  0  0
   15.3577    1.3872   -1.4321 H   0  0  0  1  0  0  0  0  0  0  0  0
   16.1591    1.8965    0.0351 H   0  0  0  1  0  0  0  0  0  0  0  0
   18.5149    2.6529   -1.0177 C   0  0  0  1  0  0  0  0  0  0  0  0
   18.2320    3.1620   -0.1201 H   0  0  0  1  0  0  0  0  0  0  0  0
   19.1041    3.2991   -1.6344 H   0  0  0  1  0  0  0  0  0  0  0  0
   19.0788    1.7756   -0.7784 H   0  0  0  1  0  0  0  0  0  0  0  0
   15.9554   -5.1026   -1.5495 C   0  0  0  1  0  0  0  0  0  0  0  0
   16.0779   -5.6163   -0.6189 H   0  0  0  1  0  0  0  0  0  0  0  0
   14.7696   -5.6703   -2.2872 C   0  0  0  1  0  0  0  0  0  0  0  0
   14.9734   -6.6876   -2.5490 H   0  0  0  1  0  0  0  0  0  0  0  0
   15.7308   -3.7164   -1.3036 O   0  0  0  1  0  0  0  0  0  0  0  0
   14.4919   -4.8738   -3.5560 C   0  0  0  1  0  0  0  0  0  0  0  0
   13.5609   -5.1970   -3.9728 H   0  0  0  1  0  0  0  0  0  0  0  0
   15.6448   -2.9257   -2.5037 C   0  0  0  1  0  0  0  0  0  0  0  0
   16.5189   -3.0770   -3.1020 H   0  0  0  1  0  0  0  0  0  0  0  0
   14.4136   -3.3717   -3.2685 C   0  0  0  1  0  0  0  0  0  0  0  0
   14.3578   -2.8364   -4.1933 H   0  0  0  1  0  0  0  0  0  0  0  0
   17.1287   -5.2626   -2.3384 O   0  0  0  1  0  0  0  0  0  0  0  0
   13.6208   -5.6169   -1.4395 O   0  0  0  1  0  0  0  0  0  0  0  0
   13.0889   -6.4053   -1.5705 H   0  0  0  1  0  0  0  0  0  0  0  0
   15.5366   -5.1114   -4.4882 O   0  0  0  1  0  0  0  0  0  0  0  0
   16.2157   -5.6517   -4.0775 H   0  0  0  1  0  0  0  0  0  0  0  0
   15.5251   -1.4638   -2.1470 C   0  0  0  1  0  0  0  0  0  0  0  0
   16.4940   -1.0102   -2.1694 H   0  0  0  1  0  0  0  0  0  0  0  0
   15.1099   -1.3692   -1.1655 H   0  0  0  1  0  0  0  0  0  0  0  0
   14.8867   -0.9756   -2.8535 H   0  0  0  1  0  0  0  0  0  0  0  0
   19.4242   -7.0634   -2.2393 C   0  0  0  1  0  0  0  0  0  0  0  0
   18.5959   -7.3479   -2.8540 H   0  0  0  1  0  0  0  0  0  0  0  0
   18.9359   -6.2028   -1.1061 C   0  0  0  1  0  0  0  0  0  0  0  0
   19.7583   -5.9567   -0.4674 H   0  0  0  1  0  0  0  0  0  0  0  0
   20.3578   -6.3348   -3.0129 O   0  0  0  1  0  0  0  0  0  0  0  0
   18.3318   -4.9404   -1.6491 C   0  0  0  1  0  0  0  0  0  0  0  0
   18.1116   -4.2822   -0.8347 H   0  0  0  1  0  0  0  0  0  0  0  0
   19.7352   -5.2162   -3.6697 C   0  0  0  1  0  0  0  0  0  0  0  0
   20.4400   -4.7374   -4.3169 H   0  0  0  1  0  0  0  0  0  0  0  0
   19.2726   -4.2425   -2.6035 C   0  0  0  1  0  0  0  0  0  0  0  0
   18.7648   -3.4227   -3.0671 H   0  0  0  1  0  0  0  0  0  0  0  0
   17.9310   -6.9306   -0.3455 N   0  0  0  1  0  0  0  0  0  0  0  0
   17.0384   -7.0171   -0.7407 H   0  0  0  1  0  0  0  0  0  0  0  0
   20.4015   -3.7571   -1.8845 O   0  0  0  1  0  0  0  0  0  0  0  0
   20.4783   -4.3030   -1.0986 H   0  0  0  1  0  0  0  0  0  0  0  0
   18.5508   -5.6914   -4.4776 C   0  0  0  1  0  0  0  0  0  0  0  0
   18.0757   -4.8665   -4.9661 H   0  0  0  1  0  0  0  0  0  0  0  0
   17.8434   -6.1890   -3.8476 H   0  0  0  1  0  0  0  0  0  0  0  0
   19.0922   -6.6061   -5.4466 O   0  0  0  1  0  0  0  0  0  0  0  0
   18.7791   -7.4884   -5.2344 H   0  0  0  1  0  0  0  0  0  0  0  0
   18.1337   -7.4896    0.8509 C   0  0  0  1  0  0  0  0  0  0  0  0
   19.2012   -7.4115    1.4533 O   0  0  0  1  0  0  0  0  0  0  0  0
   16.9530   -8.2396    1.4361 C   0  0  0  1  0  0  0  0  0  0  0  0
   17.3892   -9.0913    1.9148 H   0  0  0  1  0  0  0  0  0  0  0  0
   16.2777   -8.5440    0.6640 H   0  0  0  1  0  0  0  0  0  0  0  0
   16.4327   -7.6315    2.1463 H   0  0  0  1  0  0  0  0  0  0  0  0
  1  2  1  0  0  0  0
  1  3  1  0  0  0  0
  1  4  1  0  0  0  0
  1 44  1  0  0  0  0
  3 20  1  0  0  0  0
  4  5  1  0  0  0  0
  4  6  1  0  0  0  0
  4  8  1  0  0  0  0
  6  7  1  0  0  0  0
  8  9  1  0  0  0  0
  8 10  1  0  0  0  0
  8 20  1  0  0  0  0
 10 11  1  0  0  0  0
 12 13  1  0  0  0  0
 12 14  1  0  0  0  0
 12 15  1  0  0  0  0
 12 17  1  0  0  0  0
 15 16  1  0  0  0  0
 17 18  1  0  0  0  0
 17 19  1  0  0  0  0
 17 20  1  0  0  0  0
 19 22  1  0  0  0  0
 20 21  1  0  0  0  0
 22 23  1  0  0  0  0
 22 24  1  0  0  0  0
 22 25  1  0  0  0  0
 24 42  1  0  0  0  0
 25 26  1  0  0  0  0
 25 27  1  0  0  0  0
 25 29  1  0  0  0  0
 27 28  1  0  0  0  0
 29 30  1  0  0  0  0
 29 31  1  0  0  0  0
 29 42  1  0  0  0  0
 31 32  1  0  0  0  0
 33 34  1  0  0  0  0
 33 35  1  0  0  0  0
 33 36  1  0  0  0  0
 33 38  1  0  0  0  0
 36 37  1  0  0  0  0
 38 39  1  0  0  0  0
 38 40  1  0  0  0  0
 38 42  1  0  0  0  0
 40 41  1  0  0  0  0
 42 43  1  0  0  0  0
 44194  1  0  0  0  0
 45 46  1  0  0  0  0
 45 54  1  0  0  0  0
 46 47  1  0  0  0  0
 46 48  1  0  0  0  0
 46 49  2  0  0  0  0
 47 50  1  0  0  0  0
 50 51  1  0  0  0  0
 50 52  1  0  0  0  0
 50 53  2  0  0  0  0
 51205  1  0  0  0  0
 54 55  1  0  0  0  0
 54 56  1  0  0  0  0
 54 57  1  0  0  0  0
 57 58  1  0  0  0  0
 57 59  2  0  0  0  0
 59 60  1  0  0  0  0
 59 64  1  0  0  0  0
 60 61  1  0  0  0  0
 60 62  1  0  0  0  0
 60 63  1  0  0  0  0
 64 65  1  0  0  0  0
 64 66  1  0  0  0  0
 64 67  1  0  0  0  0
 67 68  1  0  0  0  0
 67 69  1  0  0  0  0
 67 70  1  0  0  0  0
 70 71  1  0  0  0  0
 70 72  2  0  0  0  0
 72 73  1  0  0  0  0
 72 77  1  0  0  0  0
 73 74  1  0  0  0  0
 73 75  1  0  0  0  0
 73 76  1  0  0  0  0
 77 78  1  0  0  0  0
 77 79  1  0  0  0  0
 77 80  1  0  0  0  0
 80 81  1  0  0  0  0
 80 82  1  0  0  0  0
 80 83  1  0  0  0  0
 83 84  1  0  0  0  0
 83 85  2  0  0  0  0
 85 86  1  0  0  0  0
 85 89  1  0  0  0  0
 86 87  1  0  0  0  0
 86 88  1  0  0  0  0
 86 93  1  0  0  0  0
 89 90  1  0  0  0  0
 89 91  1  0  0  0  0
 89 92  1  0  0  0  0
 93 94  1  0  0  0  0
 93 95  1  0  0  0  0
 93 96  1  0  0  0  0
 96 97  1  0  0  0  0
 96 98  2  0  0  0  0
 98 99  1  0  0  0  0
 98102  1  0  0  0  0
 99100  1  0  0  0  0
 99101  1  0  0  0  0
 99106  1  0  0  0  0
102103  1  0  0  0  0
102104  1  0  0  0  0
102105  1  0  0  0  0
106107  1  0  0  0  0
106108  1  0  0  0  0
106109  1  0  0  0  0
109110  1  0  0  0  0
109111  2  0  0  0  0
111112  1  0  0  0  0
111115  1  0  0  0  0
112113  1  0  0  0  0
112114  1  0  0  0  0
112119  1  0  0  0  0
115116  1  0  0  0  0
115117  1  0  0  0  0
115118  1  0  0  0  0
119120  1  0  0  0  0
119121  1  0  0  0  0
119122  1  0  0  0  0
122123  1  0  0  0  0
122124  2  0  0  0  0
124125  1  0  0  0  0
124128  1  0  0  0  0
125126  1  0  0  0  0
125127  1  0  0  0  0
125132  1  0  0  0  0
128129  1  0  0  0  0
128130  1  0  0  0  0
128131  1  0  0  0  0
132133  1  0  0  0  0
132134  1  0  0  0  0
132135  1  0  0  0  0
135136  1  0  0  0  0
135137  2  0  0  0  0
137138  1  0  0  0  0
137141  1  0  0  0  0
138139  1  0  0  0  0
138140  1  0  0  0  0
138145  1  0  0  0  0
141142  1  0  0  0  0
141143  1  0  0  0  0
141144  1  0  0  0  0
145146  1  0  0  0  0
145147  1  0  0  0  0
145148  1  0  0  0  0
148149  1  0  0  0  0
148150  2  0  0  0  0
150151  1  0  0  0  0
150154  1  0  0  0  0
151152  1  0  0  0  0
151153  1  0  0  0  0
151158  1  0  0  0  0
154155  1  0  0  0  0
154156  1  0  0  0  0
154157  1  0  0  0  0
158159  1  0  0  0  0
158160  1  0  0  0  0
158161  1  0  0  0  0
161162  1  0  0  0  0
161163  2  0  0  0  0
163164  1  0  0  0  0
163167  1  0  0  0  0
164165  1  0  0  0  0
164166  1  0  0  0  0
164171  1  0  0  0  0
167168  1  0  0  0  0
167169  1  0  0  0  0
167170  1  0  0  0  0
171172  1  0  0  0  0
171173  1  0  0  0  0
171174  1  0  0  0  0
174175  1  0  0  0  0
174176  2  0  0  0  0
176177  1  0  0  0  0
176181  1  0  0  0  0
177178  1  0  0  0  0
177179  1  0  0  0  0
177180  1  0  0  0  0
181182  1  0  0  0  0
181183  1  0  0  0  0
181184  1  0  0  0  0
185186  1  0  0  0  0
185187  1  0  0  0  0
185189  1  0  0  0  0
185196  1  0  0  0  0
187188  1  0  0  0  0
187190  1  0  0  0  0
187197  1  0  0  0  0
189192  1  0  0  0  0
190191  1  0  0  0  0
190194  1  0  0  0  0
190199  1  0  0  0  0
192193  1  0  0  0  0
192194  1  0  0  0  0
192201  1  0  0  0  0
194195  1  0  0  0  0
196210  1  0  0  0  0
197198  1  0  0  0  0
199200  1  0  0  0  0
201202  1  0  0  0  0
201203  1  0  0  0  0
201204  1  0  0  0  0
205206  1  0  0  0  0
205207  1  0  0  0  0
205209  1  0  0  0  0
207208  1  0  0  0  0
207210  1  0  0  0  0
207216  1  0  0  0  0
209212  1  0  0  0  0
210211  1  0  0  0  0
210214  1  0  0  0  0
212213  1  0  0  0  0
212214  1  0  0  0  0
212220  1  0  0  0  0
214215  1  0  0  0  0
214218  1  0  0  0  0
216217  1  0  0  0  0
216225  1  0  0  0  0
218219  1  0  0  0  0
220221  1  0  0  0  0
220222  1  0  0  0  0
220223  1  0  0  0  0
223224  1  0  0  0  0
225226  2  0  0  0  0
225227  1  0  0  0  0
227228  1  0  0  0  0
227229  1  0  0  0  0
227230  1  0  0  0  0
M  BCL ATM C_TeTeTeTe H_S O_Te2Te2TeTe C_TeTeTeTe H_S O_Te2Te2TeTe H_S C_TeTeTeTe H_S O_Te2Te2TeTe H_S C_TeTeTeTe H_S H_S O_Te2Te2TeTe H_S C_TeTeTeTe H_S O_Te2Te2TeTe C_TeTeTeTe H_S C_TeTeTeTe H_S O_Te2Te2TeTe C_TeTeTeTe H_S O_Te2Te2TeTe H_S C_TeTeTeTe H_S O_Te2Te2TeTe H_S C_TeTeTeTe H_S H_S O_Te2Te2TeTe H_S C_TeTeTeTe H_S O_Te2Te2TeTe H_S C_TeTeTeTe H_S O_Te2Te2TeTe O_Tr2TrTrPi2 P_TeTeTeTePi O_Tr2TrTrPi2 O_Te2Te2TeTe O_Tr2Tr2TrPi P_TeTeTeTePi O_Tr2TrTrPi2 O_Te2Te2TeTe O_Tr2Tr2TrPi C_TeTeTeTe H_S H_S C_TrTrTrPi H_S C_TrTrTrPi C_TeTeTeTe H_S H_S H_S C_TeTeTeTe H_S H_S C_TeTeTeTe H_S H_S C_TrTrTrPi H_S C_TrTrTrPi C_TeTeTeTe H_S H_S H_S C_TeTeTeTe H_S H_S C_TeTeTeTe H_S H_S C_TrTrTrPi H_S C_TrTrTrPi C_TeTeTeTe H_S H_S C_TeTeTeTe H_S H_S H_S C_TeTeTeTe H_S H_S C_TrTrTrPi H_S C_TrTrTrPi C_TeTeTeTe H_S H_S C_TeTeTeTe H_S H_S H_S C_TeTeTeTe H_S H_S C_TrTrTrPi H_S C_TrTrTrPi C_TeTeTeTe H_S H_S C_TeTeTeTe H_S H_S H_S C_TeTeTeTe H_S H_S C_TrTrTrPi H_S C_TrTrTrPi C_TeTeTeTe H_S H_S C_TeTeTeTe H_S H_S H_S C_TeTeTeTe H_S H_S C_TrTrTrPi H_S C_TrTrTrPi C_TeTeTeTe H_S H_S C_TeTeTeTe H_S H_S H_S C_TeTeTeTe H_S H_S C_TrTrTrPi H_S C_TrTrTrPi C_TeTeTeTe H_S H_S C_TeTeTeTe H_S H_S H_S C_TeTeTeTe H_S H_S C_TrTrTrPi H_S C_TrTrTrPi C_TeTeTeTe H_S H_S C_TeTeTeTe H_S H_S H_S C_TeTeTeTe H_S H_S C_TrTrTrPi H_S C_TrTrTrPi C_TeTeTeTe H_S H_S H_S C_TeTeTeTe H_S H_S H_S C_TeTeTeTe H_S C_TeTeTeTe H_S O_Te2Te2TeTe C_TeTeTeTe H_S C_TeTeTeTe H_S C_TeTeTeTe H_S O_Te2Te2TeTe O_Te2Te2TeTe H_S O_Te2Te2TeTe H_S C_TeTeTeTe H_S H_S H_S C_TeTeTeTe H_S C_TeTeTeTe H_S O_Te2Te2TeTe C_TeTeTeTe H_S C_TeTeTeTe H_S C_TeTeTeTe H_S N_TrTrTrPi2 H_S O_Te2Te2TeTe H_S C_TeTeTeTe H_S H_S O_Te2Te2TeTe H_S C_TrTrTrPi O_Tr2Tr2TrPi C_TeTeTeTe H_S H_S H_S
M  BCL BND NonConjugatedSingleBond NonConjugatedSingleBondInRing NonConjugatedSingleBondInRing NonConjugatedSingleBond NonConjugatedSingleBondInRing NonConjugatedSingleBond NonConjugatedSingleBond NonConjugatedSingleBondInRing NonConjugatedSingleBond NonConjugatedSingleBond NonConjugatedSingleBond NonConjugatedSingleBondInRing NonConjugatedSingleBond NonConjugatedSingleBond NonConjugatedSingleBond NonConjugatedSingleBond NonConjugatedSingleBond NonConjugatedSingleBond NonConjugatedSingleBond NonConjugatedSingleBond NonConjugatedSingleBond NonConjugatedSingleBond NonConjugatedSingleBond NonConjugatedSingleBond NonConjugatedSingleBondInRing NonConjugatedSingleBondInRing NonConjugatedSingleBondInRing NonConjugatedSingleBond NonConjugatedSingleBond NonConjugatedSingleBondInRing NonConjugatedSingleBond NonConjugatedSingleBond NonConjugatedSingleBond NonConjugatedSingleBondInRing NonConjugatedSingleBond NonConjugatedSingleBond NonConjugatedSingleBond NonConjugatedSingleBond NonConjugatedSingleBond NonConjugatedSingleBond NonConjugatedSingleBond NonConjugatedSingleBond NonConjugatedSingleBond NonConjugatedSingleBond NonConjugatedSingleBond NonConjugatedSingleBond ConjugatedSingleBond NonConjugatedSingleBond ConjugatedSingleBond ConjugatedSingleBond ConjugatedDoubleBond ConjugatedSingleBond ConjugatedSingleBond ConjugatedSingleBond ConjugatedDoubleBond NonConjugatedSingleBond NonConjugatedSingleBond NonConjugatedSingleBond NonConjugatedSingleBond NonConjugatedSingleBond ConjugatedDoubleBond NonConjugatedSingleBond NonConjugatedSingleBond NonConjugatedSingleBond NonConjugatedSingleBond NonConjugatedSingleBond NonConjugatedSingleBond NonConjugatedSingleBond NonConjugatedSingleBond NonConjugatedSingleBond NonConjugatedSingleBond NonConjugatedSingleBond NonConjugatedSingleBond ConjugatedDoubleBond NonConjugatedSingleBond NonConjugatedSingleBond NonConjugatedSingleBond NonConjugatedSingleBond NonConjugatedSingleBond NonConjugatedSingleBond NonConjugatedSingleBond NonConjugatedSingleBond NonConjugatedSingleBond NonConjugatedSingleBond NonConjugatedSingleBond NonConjugatedSingleBond ConjugatedDoubleBond NonConjugatedSingleBond NonConjugatedSingleBond NonConjugatedSingleBond NonConjugatedSingleBond NonConjugatedSingleBond NonConjugatedSingleBond NonConjugatedSingleBond NonConjugatedSingleBond NonConjugatedSingleBond NonConjugatedSingleBond NonConjugatedSingleBond NonConjugatedSingleBond ConjugatedDoubleBond NonConjugatedSingleBond NonConjugatedSingleBond NonConjugatedSingleBond NonConjugatedSingleBond NonConjugatedSingleBond NonConjugatedSingleBond NonConjugatedSingleBond NonConjugatedSingleBond NonConjugatedSingleBond NonConjugatedSingleBond NonConjugatedSingleBond NonConjugatedSingleBond ConjugatedDoubleBond NonConjugatedSingleBond NonConjugatedSingleBond NonConjugatedSingleBond NonConjugatedSingleBond NonConjugatedSingleBond NonConjugatedSingleBond NonConjugatedSingleBond NonConjugatedSingleBond NonConjugatedSingleBond NonConjugatedSingleBond NonConjugatedSingleBond NonConjugatedSingleBond ConjugatedDoubleBond NonConjugatedSingleBond NonConjugatedSingleBond NonConjugatedSingleBond NonConjugatedSingleBond NonConjugatedSingleBond NonConjugatedSingleBond NonConjugatedSingleBond NonConjugatedSingleBond NonConjugatedSingleBond NonConjugatedSingleBond NonConjugatedSingleBond NonConjugatedSingleBond ConjugatedDoubleBond NonConjugatedSingleBond NonConjugatedSingleBond NonConjugatedSingleBond NonConjugatedSingleBond NonConjugatedSingleBond NonConjugatedSingleBond NonConjugatedSingleBond NonConjugatedSingleBond NonConjugatedSingleBond NonConjugatedSingleBond NonConjugatedSingleBond NonConjugatedSingleBond ConjugatedDoubleBond NonConjugatedSingleBond NonConjugatedSingleBond NonConjugatedSingleBond NonConjugatedSingleBond NonConjugatedSingleBond NonConjugatedSingleBond NonConjugatedSingleBond NonConjugatedSingleBond NonConjugatedSingleBond NonConjugatedSingleBond NonConjugatedSingleBond NonConjugatedSingleBond ConjugatedDoubleBond NonConjugatedSingleBond NonConjugatedSingleBond NonConjugatedSingleBond NonConjugatedSingleBond NonConjugatedSingleBond NonConjugatedSingleBond NonConjugatedSingleBond NonConjugatedSingleBond NonConjugatedSingleBond NonConjugatedSingleBond NonConjugatedSingleBond NonConjugatedSingleBond ConjugatedDoubleBond NonConjugatedSingleBond NonConjugatedSingleBond NonConjugatedSingleBond NonConjugatedSingleBond NonConjugatedSingleBond NonConjugatedSingleBond NonConjugatedSingleBond NonConjugatedSingleBond NonConjugatedSingleBond NonConjugatedSingleBondInRing NonConjugatedSingleBondInRing NonConjugatedSingleBond NonConjugatedSingleBond NonConjugatedSingleBondInRing NonConjugatedSingleBond NonConjugatedSingleBondInRing NonConjugatedSingleBond NonConjugatedSingleBondInRing NonConjugatedSingleBond NonConjugatedSingleBond NonConjugatedSingleBondInRing NonConjugatedSingleBond NonConjugatedSingleBond NonConjugatedSingleBond NonConjugatedSingleBond NonConjugatedSingleBond NonConjugatedSingleBond NonConjugatedSingleBond NonConjugatedSingleBond NonConjugatedSingleBond NonConjugatedSingleBondInRing NonConjugatedSingleBondInRing NonConjugatedSingleBond NonConjugatedSingleBondInRing NonConjugatedSingleBond NonConjugatedSingleBondInRing NonConjugatedSingleBond NonConjugatedSingleBondInRing NonConjugatedSingleBond NonConjugatedSingleBondInRing NonConjugatedSingleBond NonConjugatedSingleBond NonConjugatedSingleBond NonConjugatedSingleBond AmideSingleBond NonConjugatedSingleBond NonConjugatedSingleBond NonConjugatedSingleBond NonConjugatedSingleBond NonConjugatedSingleBond ConjugatedDoubleBond NonConjugatedSingleBond NonConjugatedSingleBond NonConjugatedSingleBond NonConjugatedSingleBond
M  BCL CHI   1   R   4   R   8   R  17   S  20   R  22   S  25   R  29   S  38   S  42   R  46   R  50   S 185   R 187   S 190   S 192   R 194   R 205   R 207   S 210   R 212   S 214   S
M  BCL DBI - - E E E E E E E E Z - -
M  END
> <ConfClashScore>
0.000639245 

> <ConfOneFourInteractionScore>
-0.974379 

> <ConfScore>
0.122311 

> <ConfScorePBest>
0.0148925 

> <ConfTolerance>
2.08636 

$$$$
L05.****
  PyMOL2.5          3D                             0

230233  0  0  0  0  0  0  0  0999 V2000
   12.3427   -2.3763   -3.1708 C   0  0  0  1  0  0  0  0  0  0  0  0
   11.8788   -2.9561   -3.9412 H   0  0  0  1  0  0  0  0  0  0  0  0
   13.0008   -1.2725   -3.7224 O   0  0  0  1  0  0  0  0  0  0  0  0
   11.2799   -1.8017   -2.2210 C   0  0  0  1  0  0  0  0  0  0  0  0
   11.6901   -1.6140   -1.2507 H   0  0  0  1  0  0  0  0  0  0  0  0
   10.1624   -2.6837   -2.1038 O   0  0  0  1  0  0  0  0  0  0  0  0
   10.4649   -3.5931   -2.1591 H   0  0  0  1  0  0  0  0  0  0  0  0
   10.8859   -0.5066   -2.9091 C   0  0  0  1  0  0  0  0  0  0  0  0
   10.0979   -0.6693   -3.6145 H   0  0  0  1  0  0  0  0  0  0  0  0
   10.4784    0.4780   -1.9579 O   0  0  0  1  0  0  0  0  0  0  0  0
   11.2539    0.8630   -1.5431 H   0  0  0  1  0  0  0  0  0  0  0  0
   11.1687   -0.5702   -5.8715 C   0  0  0  1  0  0  0  0  0  0  0  0
   10.2380   -0.8190   -5.4058 H   0  0  0  1  0  0  0  0  0  0  0  0
   10.9832   -0.1433   -6.8349 H   0  0  0  1  0  0  0  0  0  0  0  0
   11.9271   -1.7595   -6.0383 O   0  0  0  1  0  0  0  0  0  0  0  0
   12.7036   -1.5723   -6.5708 H   0  0  0  1  0  0  0  0  0  0  0  0
   11.8860    0.4610   -5.0099 C   0  0  0  1  0  0  0  0  0  0  0  0
   11.2611    1.3240   -4.9110 H   0  0  0  1  0  0  0  0  0  0  0  0
   13.1125    0.8109   -5.6407 O   0  0  0  1  0  0  0  0  0  0  0  0
   12.1944   -0.0852   -3.6222 C   0  0  0  1  0  0  0  0  0  0  0  0
   12.7042    0.6613   -3.0497 H   0  0  0  1  0  0  0  0  0  0  0  0
   12.9020    1.5942   -6.7854 C   0  0  0  1  0  0  0  0  0  0  0  0
   12.3792    1.0189   -7.5207 H   0  0  0  1  0  0  0  0  0  0  0  0
   12.1589    2.8063   -6.4530 O   0  0  0  1  0  0  0  0  0  0  0  0
   14.2152    2.1007   -7.3364 C   0  0  0  1  0  0  0  0  0  0  0  0
   14.1382    2.3010   -8.3846 H   0  0  0  1  0  0  0  0  0  0  0  0
   15.2628    1.1572   -7.1070 O   0  0  0  1  0  0  0  0  0  0  0  0
   14.9408    0.4523   -6.5402 H   0  0  0  1  0  0  0  0  0  0  0  0
   14.4597    3.3940   -6.5475 C   0  0  0  1  0  0  0  0  0  0  0  0
   14.9918    4.1108   -7.1374 H   0  0  0  1  0  0  0  0  0  0  0  0
   15.1828    3.1346   -5.3477 O   0  0  0  1  0  0  0  0  0  0  0  0
   14.6541    2.5814   -4.7681 H   0  0  0  1  0  0  0  0  0  0  0  0
   11.4156    5.7452   -6.6880 C   0  0  0  1  0  0  0  0  0  0  0  0
   10.5783    5.0798   -6.7212 H   0  0  0  1  0  0  0  0  0  0  0  0
   11.5500    6.1005   -5.6877 H   0  0  0  1  0  0  0  0  0  0  0  0
   11.1998    6.8403   -7.5665 O   0  0  0  1  0  0  0  0  0  0  0  0
   10.5079    7.4037   -7.2124 H   0  0  0  1  0  0  0  0  0  0  0  0
   12.6731    5.0230   -7.1569 C   0  0  0  1  0  0  0  0  0  0  0  0
   13.4769    5.7283   -7.1212 H   0  0  0  1  0  0  0  0  0  0  0  0
   12.5356    4.5605   -8.4979 O   0  0  0  1  0  0  0  0  0  0  0  0
   11.9589    5.1543   -8.9841 H   0  0  0  1  0  0  0  0  0  0  0  0
   13.0336    3.8783   -6.2408 C   0  0  0  1  0  0  0  0  0  0  0  0
   12.9711    4.2021   -5.2229 H   0  0  0  1  0  0  0  0  0  0  0  0
   13.2615   -3.1914   -2.4507 O   0  0  0  1  0  0  0  0  0  0  0  0
   19.8177   -4.9884   -7.6049 O   0  0  0  1  0  0  0  0  0  0  0  0
   19.3644   -3.5144   -7.4619 P   0  0  0  1  0  0  0  0  0  0  0  0
   19.8238   -3.1848   -5.9463 O   0  0  0  1  0  0  0  0  0  0  0  0
   17.8160   -3.5440   -7.4584 O   0  0  0  0  0  0  0  0  0  0  0  0
   20.0031   -2.6546   -8.4631 O   0  0  0  1  0  0  0  0  0  0  0  0
   21.2657   -3.5153   -5.3379 P   0  0  0  1  0  0  0  0  0  0  0  0
   20.9634   -4.7586   -4.4074 O   0  0  0  1  0  0  0  0  0  0  0  0
   21.6432   -2.3513   -4.5165 O   0  0  0  0  0  0  0  0  0  0  0  0
   22.1596   -4.0530   -6.3750 O   0  0  0  1  0  0  0  0  0  0  0  0
   20.6302   -5.4046   -8.7135 C   0  0  0  1  0  0  0  0  0  0  0  0
   20.0366   -5.3862   -9.6036 H   0  0  0  1  0  0  0  0  0  0  0  0
   20.9750   -6.4016   -8.5347 H   0  0  0  1  0  0  0  0  0  0  0  0
   21.7951   -4.5245   -8.9003 C   0  0  0  1  0  0  0  0  0  0  0  0
   21.6754   -3.5498   -9.2425 H   0  0  0  1  0  0  0  0  0  0  0  0
   23.0022   -5.0025   -8.6222 C   0  0  0  1  0  0  0  0  0  0  0  0
   24.2454   -4.3032   -9.0897 C   0  0  0  1  0  0  0  0  0  0  0  0
   24.7888   -4.9449   -9.7514 H   0  0  0  1  0  0  0  0  0  0  0  0
   24.8571   -4.0613   -8.2457 H   0  0  0  1  0  0  0  0  0  0  0  0
   23.9767   -3.4049   -9.6052 H   0  0  0  1  0  0  0  0  0  0  0  0
   23.2459   -6.2579   -7.8329 C   0  0  0  1  0  0  0  0  0  0  0  0
   23.6880   -6.9792   -8.4881 H   0  0  0  1  0  0  0  0  0  0  0  0
   22.2997   -6.6205   -7.4890 H   0  0  0  1  0  0  0  0  0  0  0  0
   24.1554   -6.1019   -6.6251 C   0  0  0  1  0  0  0  0  0  0  0  0
   23.8293   -5.2631   -6.0464 H   0  0  0  1  0  0  0  0  0  0  0  0
   25.1581   -5.9367   -6.9600 H   0  0  0  1  0  0  0  0  0  0  0  0
   24.1192   -7.3378   -5.7665 C   0  0  0  1  0  0  0  0  0  0  0  0
   23.3052   -7.4583   -5.1304 H   0  0  0  1  0  0  0  0  0  0  0  0
   25.0497   -8.2864   -5.7607 C   0  0  0  1  0  0  0  0  0  0  0  0
   24.9868   -9.5106   -4.8917 C   0  0  0  1  0  0  0  0  0  0  0  0
   25.7080  -10.2254   -5.2290 H   0  0  0  1  0  0  0  0  0  0  0  0
   24.0076   -9.9382   -4.9487 H   0  0  0  1  0  0  0  0  0  0  0  0
   25.1999   -9.2399   -3.8787 H   0  0  0  1  0  0  0  0  0  0  0  0
   26.2608   -8.2035   -6.6422 C   0  0  0  1  0  0  0  0  0  0  0  0
   26.0981   -7.4213   -7.3539 H   0  0  0  1  0  0  0  0  0  0  0  0
   26.3607   -9.1375   -7.1546 H   0  0  0  1  0  0  0  0  0  0  0  0
   27.5705   -7.9198   -5.9249 C   0  0  0  1  0  0  0  0  0  0  0  0
   27.7173   -8.6530   -5.1595 H   0  0  0  1  0  0  0  0  0  0  0  0
   27.5249   -6.9464   -5.4831 H   0  0  0  1  0  0  0  0  0  0  0  0
   28.7013   -7.9704   -6.8644 C   0  0  0  1  0  0  0  0  0  0  0  0
   28.5774   -8.6980   -7.5971 H   0  0  0  1  0  0  0  0  0  0  0  0
   29.8438   -7.3051   -6.9968 C   0  0  0  1  0  0  0  0  0  0  0  0
   30.2765   -6.2014   -6.0760 C   0  0  0  1  0  0  0  0  0  0  0  0
   31.3023   -6.3674   -5.8209 H   0  0  0  1  0  0  0  0  0  0  0  0
   29.6756   -6.2542   -5.1922 H   0  0  0  1  0  0  0  0  0  0  0  0
   30.8107   -7.6155   -8.1046 C   0  0  0  1  0  0  0  0  0  0  0  0
   30.2753   -7.7324   -9.0237 H   0  0  0  1  0  0  0  0  0  0  0  0
   31.3329   -8.5216   -7.8785 H   0  0  0  1  0  0  0  0  0  0  0  0
   31.5123   -6.8133   -8.2005 H   0  0  0  1  0  0  0  0  0  0  0  0
   30.1556   -4.7958   -6.6418 C   0  0  0  1  0  0  0  0  0  0  0  0
   29.1198   -4.6032   -6.8288 H   0  0  0  1  0  0  0  0  0  0  0  0
   30.6970   -4.7636   -7.5641 H   0  0  0  1  0  0  0  0  0  0  0  0
   30.6795   -3.6977   -5.7577 C   0  0  0  1  0  0  0  0  0  0  0  0
   31.1695   -3.9761   -4.8837 H   0  0  0  1  0  0  0  0  0  0  0  0
   30.5630   -2.3994   -6.0098 C   0  0  0  1  0  0  0  0  0  0  0  0
   29.8711   -1.9028   -7.2477 C   0  0  0  1  0  0  0  0  0  0  0  0
   30.0477   -2.6004   -8.0396 H   0  0  0  1  0  0  0  0  0  0  0  0
   30.2848   -0.9517   -7.5108 H   0  0  0  1  0  0  0  0  0  0  0  0
   31.0942   -1.3207   -5.1119 C   0  0  0  1  0  0  0  0  0  0  0  0
   30.2868   -0.8835   -4.5625 H   0  0  0  1  0  0  0  0  0  0  0  0
   31.5718   -0.5677   -5.7033 H   0  0  0  1  0  0  0  0  0  0  0  0
   31.8028   -1.7418   -4.4296 H   0  0  0  1  0  0  0  0  0  0  0  0
   28.3701   -1.7447   -7.0680 C   0  0  0  1  0  0  0  0  0  0  0  0
   27.9272   -2.7179   -7.0302 H   0  0  0  1  0  0  0  0  0  0  0  0
   27.9813   -1.2077   -7.9079 H   0  0  0  1  0  0  0  0  0  0  0  0
   28.0099   -1.0180   -5.8398 C   0  0  0  1  0  0  0  0  0  0  0  0
   28.1383   -1.4567   -4.9057 H   0  0  0  1  0  0  0  0  0  0  0  0
   27.5174    0.2099   -5.9507 C   0  0  0  1  0  0  0  0  0  0  0  0
   27.3027    0.9103   -7.2610 C   0  0  0  1  0  0  0  0  0  0  0  0
   26.6933    1.7731   -7.0902 H   0  0  0  1  0  0  0  0  0  0  0  0
   26.7967    0.2416   -7.9257 H   0  0  0  1  0  0  0  0  0  0  0  0
   27.0441    0.9631   -4.7394 C   0  0  0  1  0  0  0  0  0  0  0  0
   26.0175    1.2362   -4.8671 H   0  0  0  1  0  0  0  0  0  0  0  0
   27.6351    1.8464   -4.6155 H   0  0  0  1  0  0  0  0  0  0  0  0
   27.1429    0.3429   -3.8731 H   0  0  0  1  0  0  0  0  0  0  0  0
   28.5992    1.3559   -7.9174 C   0  0  0  1  0  0  0  0  0  0  0  0
   29.1435    0.4796   -8.2016 H   0  0  0  1  0  0  0  0  0  0  0  0
   29.1627    1.9075   -7.1942 H   0  0  0  1  0  0  0  0  0  0  0  0
   28.4398    2.2202   -9.1395 C   0  0  0  1  0  0  0  0  0  0  0  0
   27.7296    1.9138   -9.8347 H   0  0  0  1  0  0  0  0  0  0  0  0
   29.1077    3.3313   -9.4262 C   0  0  0  1  0  0  0  0  0  0  0  0
   29.9066    4.0548   -8.3794 C   0  0  0  1  0  0  0  0  0  0  0  0
   30.1959    5.0126   -8.7587 H   0  0  0  1  0  0  0  0  0  0  0  0
   30.7811    3.4833   -8.1482 H   0  0  0  1  0  0  0  0  0  0  0  0
   29.1352    3.9647  -10.7864 C   0  0  0  1  0  0  0  0  0  0  0  0
   28.6438    3.3243  -11.4887 H   0  0  0  1  0  0  0  0  0  0  0  0
   30.1505    4.1138  -11.0896 H   0  0  0  1  0  0  0  0  0  0  0  0
   28.6310    4.9078  -10.7506 H   0  0  0  1  0  0  0  0  0  0  0  0
   29.0875    4.2468   -7.1134 C   0  0  0  1  0  0  0  0  0  0  0  0
   29.7492    4.2235   -6.2729 H   0  0  0  1  0  0  0  0  0  0  0  0
   28.3849    3.4434   -7.0372 H   0  0  0  1  0  0  0  0  0  0  0  0
   28.3361    5.5399   -7.0921 C   0  0  0  1  0  0  0  0  0  0  0  0
   28.8918    6.4019   -7.2648 H   0  0  0  1  0  0  0  0  0  0  0  0
   27.0429    5.7059   -6.8776 C   0  0  0  1  0  0  0  0  0  0  0  0
   26.0802    4.5707   -6.6093 C   0  0  0  1  0  0  0  0  0  0  0  0
   25.3412    4.9082   -5.9130 H   0  0  0  1  0  0  0  0  0  0  0  0
   26.6260    3.7548   -6.1834 H   0  0  0  1  0  0  0  0  0  0  0  0
   26.4467    7.0805   -6.7935 C   0  0  0  1  0  0  0  0  0  0  0  0
   26.0094    7.3384   -7.7354 H   0  0  0  1  0  0  0  0  0  0  0  0
   27.2128    7.7870   -6.5509 H   0  0  0  1  0  0  0  0  0  0  0  0
   25.6929    7.0962   -6.0343 H   0  0  0  1  0  0  0  0  0  0  0  0
   25.3751    4.0791   -7.8629 C   0  0  0  1  0  0  0  0  0  0  0  0
   26.1200    3.7151   -8.5393 H   0  0  0  1  0  0  0  0  0  0  0  0
   24.8679    4.9115   -8.3042 H   0  0  0  1  0  0  0  0  0  0  0  0
   24.3766    2.9923   -7.6500 C   0  0  0  1  0  0  0  0  0  0  0  0
   23.7150    3.1467   -6.8626 H   0  0  0  1  0  0  0  0  0  0  0  0
   24.2063    1.8511   -8.3201 C   0  0  0  1  0  0  0  0  0  0  0  0
   25.0868    1.4929   -9.4804 C   0  0  0  1  0  0  0  0  0  0  0  0
   26.0998    1.4497   -9.1387 H   0  0  0  1  0  0  0  0  0  0  0  0
   24.9937    2.2544  -10.2264 H   0  0  0  1  0  0  0  0  0  0  0  0
   23.1272    0.8800   -7.9399 C   0  0  0  1  0  0  0  0  0  0  0  0
   22.2368    1.1020   -8.4903 H   0  0  0  1  0  0  0  0  0  0  0  0
   22.9278    0.9611   -6.8918 H   0  0  0  1  0  0  0  0  0  0  0  0
   23.4474   -0.1154   -8.1666 H   0  0  0  1  0  0  0  0  0  0  0  0
   24.7282    0.1473  -10.1113 C   0  0  0  1  0  0  0  0  0  0  0  0
   23.6901    0.1584  -10.3702 H   0  0  0  1  0  0  0  0  0  0  0  0
   24.9089   -0.6246   -9.3928 H   0  0  0  1  0  0  0  0  0  0  0  0
   25.5278   -0.1547  -11.3504 C   0  0  0  1  0  0  0  0  0  0  0  0
   25.4168    0.5055  -12.1462 H   0  0  0  1  0  0  0  0  0  0  0  0
   26.3595   -1.1726  -11.5375 C   0  0  0  1  0  0  0  0  0  0  0  0
   26.8382   -1.5475  -12.9100 C   0  0  0  1  0  0  0  0  0  0  0  0
   27.8803   -1.7837  -12.8545 H   0  0  0  1  0  0  0  0  0  0  0  0
   26.6959   -0.7102  -13.5608 H   0  0  0  1  0  0  0  0  0  0  0  0
   26.8950   -2.0332  -10.4279 C   0  0  0  1  0  0  0  0  0  0  0  0
   27.2226   -2.9363  -10.8991 H   0  0  0  1  0  0  0  0  0  0  0  0
   26.1269   -2.2420   -9.7129 H   0  0  0  1  0  0  0  0  0  0  0  0
   27.7143   -1.5475   -9.9404 H   0  0  0  1  0  0  0  0  0  0  0  0
   26.1014   -2.7430  -13.4916 C   0  0  0  1  0  0  0  0  0  0  0  0
   25.0794   -2.4687  -13.6507 H   0  0  0  1  0  0  0  0  0  0  0  0
   26.1498   -3.5480  -12.7884 H   0  0  0  1  0  0  0  0  0  0  0  0
   26.6804   -3.2134  -14.7991 C   0  0  0  1  0  0  0  0  0  0  0  0
   27.6636   -3.5516  -14.7758 H   0  0  0  1  0  0  0  0  0  0  0  0
   26.0720   -3.2433  -15.9788 C   0  0  0  1  0  0  0  0  0  0  0  0
   24.6483   -2.7938  -16.1345 C   0  0  0  1  0  0  0  0  0  0  0  0
   24.2479   -2.5374  -15.1760 H   0  0  0  1  0  0  0  0  0  0  0  0
   24.0694   -3.5854  -16.5625 H   0  0  0  1  0  0  0  0  0  0  0  0
   24.6129   -1.9382  -16.7761 H   0  0  0  1  0  0  0  0  0  0  0  0
   26.7272   -3.7187  -17.2528 C   0  0  0  1  0  0  0  0  0  0  0  0
   27.7524   -3.9257  -17.0268 H   0  0  0  1  0  0  0  0  0  0  0  0
   26.6643   -2.9577  -18.0024 H   0  0  0  1  0  0  0  0  0  0  0  0
   26.2436   -4.6064  -17.6036 H   0  0  0  1  0  0  0  0  0  0  0  0
   16.1314   -5.0953   -1.5866 C   0  0  0  1  0  0  0  0  0  0  0  0
   16.3880   -5.6322   -0.6973 H   0  0  0  1  0  0  0  0  0  0  0  0
   14.9231   -5.7426   -2.2328 C   0  0  0  1  0  0  0  0  0  0  0  0
   15.1601   -6.7480   -2.5116 H   0  0  0  1  0  0  0  0  0  0  0  0
   15.8366   -3.7420   -1.2526 O   0  0  0  1  0  0  0  0  0  0  0  0
   14.5426   -4.9459   -3.4702 C   0  0  0  1  0  0  0  0  0  0  0  0
   13.5936   -5.2941   -3.8210 H   0  0  0  1  0  0  0  0  0  0  0  0
   15.6489   -2.9384   -2.4375 C   0  0  0  1  0  0  0  0  0  0  0  0
   16.5211   -3.0022   -3.0539 H   0  0  0  1  0  0  0  0  0  0  0  0
   14.4433   -3.4520   -3.2094 C   0  0  0  1  0  0  0  0  0  0  0  0
   14.3865   -2.9388   -4.1466 H   0  0  0  1  0  0  0  0  0  0  0  0
   17.2265   -5.1291   -2.4945 O   0  0  0  1  0  0  0  0  0  0  0  0
   13.8313   -5.7480   -1.3112 O   0  0  0  1  0  0  0  0  0  0  0  0
   13.0789   -5.2987   -1.7031 H   0  0  0  1  0  0  0  0  0  0  0  0
   15.5272   -5.1656   -4.4697 O   0  0  0  1  0  0  0  0  0  0  0  0
   15.3471   -5.9940   -4.9204 H   0  0  0  1  0  0  0  0  0  0  0  0
   15.4170   -1.5005   -2.0394 C   0  0  0  1  0  0  0  0  0  0  0  0
   14.7127   -1.0536   -2.7095 H   0  0  0  1  0  0  0  0  0  0  0  0
   16.3420   -0.9645   -2.0851 H   0  0  0  1  0  0  0  0  0  0  0  0
   15.0322   -1.4645   -1.0417 H   0  0  0  1  0  0  0  0  0  0  0  0
   19.9560   -4.6325   -3.4027 C   0  0  0  1  0  0  0  0  0  0  0  0
   19.1898   -3.9694   -3.7464 H   0  0  0  1  0  0  0  0  0  0  0  0
   19.3596   -5.9838   -3.1176 C   0  0  0  1  0  0  0  0  0  0  0  0
   20.1346   -6.6576   -2.8173 H   0  0  0  1  0  0  0  0  0  0  0  0
   20.5321   -4.1148   -2.2190 O   0  0  0  1  0  0  0  0  0  0  0  0
   18.3444   -5.8705   -2.0176 C   0  0  0  1  0  0  0  0  0  0  0  0
   18.0273   -6.8525   -1.7347 H   0  0  0  1  0  0  0  0  0  0  0  0
   19.5302   -3.8486   -1.2212 C   0  0  0  1  0  0  0  0  0  0  0  0
   19.9797   -3.3756   -0.3732 H   0  0  0  1  0  0  0  0  0  0  0  0
   18.9163   -5.1714   -0.8063 C   0  0  0  1  0  0  0  0  0  0  0  0
   18.1353   -4.9938   -0.0968 H   0  0  0  1  0  0  0  0  0  0  0  0
   18.7130   -6.4912   -4.3222 N   0  0  0  1  0  0  0  0  0  0  0  0
   18.5447   -5.8738   -5.0645 H   0  0  0  1  0  0  0  0  0  0  0  0
   19.9221   -5.9964   -0.2126 O   0  0  0  1  0  0  0  0  0  0  0  0
   20.7008   -5.9178   -0.7685 H   0  0  0  1  0  0  0  0  0  0  0  0
   18.4695   -2.9518   -1.7917 C   0  0  0  1  0  0  0  0  0  0  0  0
   17.7250   -2.7629   -1.0467 H   0  0  0  1  0  0  0  0  0  0  0  0
   18.0169   -3.4287   -2.6359 H   0  0  0  1  0  0  0  0  0  0  0  0
   19.0531   -1.7187   -2.2011 O   0  0  0  1  0  0  0  0  0  0  0  0
   19.1256   -1.7240   -3.1583 H   0  0  0  1  0  0  0  0  0  0  0  0
   18.3303   -7.8089   -4.4532 C   0  0  0  1  0  0  0  0  0  0  0  0
   18.5753   -8.6082   -3.5647 O   0  0  0  1  0  0  0  0  0  0  0  0
   17.6177   -8.1618   -5.7261 C   0  0  0  1  0  0  0  0  0  0  0  0
   18.2908   -8.8200   -6.2345 H   0  0  0  1  0  0  0  0  0  0  0  0
   17.4313   -7.2853   -6.3109 H   0  0  0  1  0  0  0  0  0  0  0  0
   16.6916   -8.6552   -5.5170 H   0  0  0  1  0  0  0  0  0  0  0  0
  1  2  1  0  0  0  0
  1  3  1  0  0  0  0
  1  4  1  0  0  0  0
  1 44  1  0  0  0  0
  3 20  1  0  0  0  0
  4  5  1  0  0  0  0
  4  6  1  0  0  0  0
  4  8  1  0  0  0  0
  6  7  1  0  0  0  0
  8  9  1  0  0  0  0
  8 10  1  0  0  0  0
  8 20  1  0  0  0  0
 10 11  1  0  0  0  0
 12 13  1  0  0  0  0
 12 14  1  0  0  0  0
 12 15  1  0  0  0  0
 12 17  1  0  0  0  0
 15 16  1  0  0  0  0
 17 18  1  0  0  0  0
 17 19  1  0  0  0  0
 17 20  1  0  0  0  0
 19 22  1  0  0  0  0
 20 21  1  0  0  0  0
 22 23  1  0  0  0  0
 22 24  1  0  0  0  0
 22 25  1  0  0  0  0
 24 42  1  0  0  0  0
 25 26  1  0  0  0  0
 25 27  1  0  0  0  0
 25 29  1  0  0  0  0
 27 28  1  0  0  0  0
 29 30  1  0  0  0  0
 29 31  1  0  0  0  0
 29 42  1  0  0  0  0
 31 32  1  0  0  0  0
 33 34  1  0  0  0  0
 33 35  1  0  0  0  0
 33 36  1  0  0  0  0
 33 38  1  0  0  0  0
 36 37  1  0  0  0  0
 38 39  1  0  0  0  0
 38 40  1  0  0  0  0
 38 42  1  0  0  0  0
 40 41  1  0  0  0  0
 42 43  1  0  0  0  0
 44194  1  0  0  0  0
 45 46  1  0  0  0  0
 45 54  1  0  0  0  0
 46 47  1  0  0  0  0
 46 48  1  0  0  0  0
 46 49  2  0  0  0  0
 47 50  1  0  0  0  0
 50 51  1  0  0  0  0
 50 52  1  0  0  0  0
 50 53  2  0  0  0  0
 51205  1  0  0  0  0
 54 55  1  0  0  0  0
 54 56  1  0  0  0  0
 54 57  1  0  0  0  0
 57 58  1  0  0  0  0
 57 59  2  0  0  0  0
 59 60  1  0  0  0  0
 59 64  1  0  0  0  0
 60 61  1  0  0  0  0
 60 62  1  0  0  0  0
 60 63  1  0  0  0  0
 64 65  1  0  0  0  0
 64 66  1  0  0  0  0
 64 67  1  0  0  0  0
 67 68  1  0  0  0  0
 67 69  1  0  0  0  0
 67 70  1  0  0  0  0
 70 71  1  0  0  0  0
 70 72  2  0  0  0  0
 72 73  1  0  0  0  0
 72 77  1  0  0  0  0
 73 74  1  0  0  0  0
 73 75  1  0  0  0  0
 73 76  1  0  0  0  0
 77 78  1  0  0  0  0
 77 79  1  0  0  0  0
 77 80  1  0  0  0  0
 80 81  1  0  0  0  0
 80 82  1  0  0  0  0
 80 83  1  0  0  0  0
 83 84  1  0  0  0  0
 83 85  2  0  0  0  0
 85 86  1  0  0  0  0
 85 89  1  0  0  0  0
 86 87  1  0  0  0  0
 86 88  1  0  0  0  0
 86 93  1  0  0  0  0
 89 90  1  0  0  0  0
 89 91  1  0  0  0  0
 89 92  1  0  0  0  0
 93 94  1  0  0  0  0
 93 95  1  0  0  0  0
 93 96  1  0  0  0  0
 96 97  1  0  0  0  0
 96 98  2  0  0  0  0
 98 99  1  0  0  0  0
 98102  1  0  0  0  0
 99100  1  0  0  0  0
 99101  1  0  0  0  0
 99106  1  0  0  0  0
102103  1  0  0  0  0
102104  1  0  0  0  0
102105  1  0  0  0  0
106107  1  0  0  0  0
106108  1  0  0  0  0
106109  1  0  0  0  0
109110  1  0  0  0  0
109111  2  0  0  0  0
111112  1  0  0  0  0
111115  1  0  0  0  0
112113  1  0  0  0  0
112114  1  0  0  0  0
112119  1  0  0  0  0
115116  1  0  0  0  0
115117  1  0  0  0  0
115118  1  0  0  0  0
119120  1  0  0  0  0
119121  1  0  0  0  0
119122  1  0  0  0  0
122123  1  0  0  0  0
122124  2  0  0  0  0
124125  1  0  0  0  0
124128  1  0  0  0  0
125126  1  0  0  0  0
125127  1  0  0  0  0
125132  1  0  0  0  0
128129  1  0  0  0  0
128130  1  0  0  0  0
128131  1  0  0  0  0
132133  1  0  0  0  0
132134  1  0  0  0  0
132135  1  0  0  0  0
135136  1  0  0  0  0
135137  2  0  0  0  0
137138  1  0  0  0  0
137141  1  0  0  0  0
138139  1  0  0  0  0
138140  1  0  0  0  0
138145  1  0  0  0  0
141142  1  0  0  0  0
141143  1  0  0  0  0
141144  1  0  0  0  0
145146  1  0  0  0  0
145147  1  0  0  0  0
145148  1  0  0  0  0
148149  1  0  0  0  0
148150  2  0  0  0  0
150151  1  0  0  0  0
150154  1  0  0  0  0
151152  1  0  0  0  0
151153  1  0  0  0  0
151158  1  0  0  0  0
154155  1  0  0  0  0
154156  1  0  0  0  0
154157  1  0  0  0  0
158159  1  0  0  0  0
158160  1  0  0  0  0
158161  1  0  0  0  0
161162  1  0  0  0  0
161163  2  0  0  0  0
163164  1  0  0  0  0
163167  1  0  0  0  0
164165  1  0  0  0  0
164166  1  0  0  0  0
164171  1  0  0  0  0
167168  1  0  0  0  0
167169  1  0  0  0  0
167170  1  0  0  0  0
171172  1  0  0  0  0
171173  1  0  0  0  0
171174  1  0  0  0  0
174175  1  0  0  0  0
174176  2  0  0  0  0
176177  1  0  0  0  0
176181  1  0  0  0  0
177178  1  0  0  0  0
177179  1  0  0  0  0
177180  1  0  0  0  0
181182  1  0  0  0  0
181183  1  0  0  0  0
181184  1  0  0  0  0
185186  1  0  0  0  0
185187  1  0  0  0  0
185189  1  0  0  0  0
185196  1  0  0  0  0
187188  1  0  0  0  0
187190  1  0  0  0  0
187197  1  0  0  0  0
189192  1  0  0  0  0
190191  1  0  0  0  0
190194  1  0  0  0  0
190199  1  0  0  0  0
192193  1  0  0  0  0
192194  1  0  0  0  0
192201  1  0  0  0  0
194195  1  0  0  0  0
196210  1  0  0  0  0
197198  1  0  0  0  0
199200  1  0  0  0  0
201202  1  0  0  0  0
201203  1  0  0  0  0
201204  1  0  0  0  0
205206  1  0  0  0  0
205207  1  0  0  0  0
205209  1  0  0  0  0
207208  1  0  0  0  0
207210  1  0  0  0  0
207216  1  0  0  0  0
209212  1  0  0  0  0
210211  1  0  0  0  0
210214  1  0  0  0  0
212213  1  0  0  0  0
212214  1  0  0  0  0
212220  1  0  0  0  0
214215  1  0  0  0  0
214218  1  0  0  0  0
216217  1  0  0  0  0
216225  1  0  0  0  0
218219  1  0  0  0  0
220221  1  0  0  0  0
220222  1  0  0  0  0
220223  1  0  0  0  0
223224  1  0  0  0  0
225226  2  0  0  0  0
225227  1  0  0  0  0
227228  1  0  0  0  0
227229  1  0  0  0  0
227230  1  0  0  0  0
M  BCL ATM C_TeTeTeTe H_S O_Te2Te2TeTe C_TeTeTeTe H_S O_Te2Te2TeTe H_S C_TeTeTeTe H_S O_Te2Te2TeTe H_S C_TeTeTeTe H_S H_S O_Te2Te2TeTe H_S C_TeTeTeTe H_S O_Te2Te2TeTe C_TeTeTeTe H_S C_TeTeTeTe H_S O_Te2Te2TeTe C_TeTeTeTe H_S O_Te2Te2TeTe H_S C_TeTeTeTe H_S O_Te2Te2TeTe H_S C_TeTeTeTe H_S H_S O_Te2Te2TeTe H_S C_TeTeTeTe H_S O_Te2Te2TeTe H_S C_TeTeTeTe H_S O_Te2Te2TeTe O_Tr2TrTrPi2 P_TeTeTeTePi O_Tr2TrTrPi2 O_Te2Te2TeTe O_Tr2Tr2TrPi P_TeTeTeTePi O_Tr2TrTrPi2 O_Te2Te2TeTe O_Tr2Tr2TrPi C_TeTeTeTe H_S H_S C_TrTrTrPi H_S C_TrTrTrPi C_TeTeTeTe H_S H_S H_S C_TeTeTeTe H_S H_S C_TeTeTeTe H_S H_S C_TrTrTrPi H_S C_TrTrTrPi C_TeTeTeTe H_S H_S H_S C_TeTeTeTe H_S H_S C_TeTeTeTe H_S H_S C_TrTrTrPi H_S C_TrTrTrPi C_TeTeTeTe H_S H_S C_TeTeTeTe H_S H_S H_S C_TeTeTeTe H_S H_S C_TrTrTrPi H_S C_TrTrTrPi C_TeTeTeTe H_S H_S C_TeTeTeTe H_S H_S H_S C_TeTeTeTe H_S H_S C_TrTrTrPi H_S C_TrTrTrPi C_TeTeTeTe H_S H_S C_TeTeTeTe H_S H_S H_S C_TeTeTeTe H_S H_S C_TrTrTrPi H_S C_TrTrTrPi C_TeTeTeTe H_S H_S C_TeTeTeTe H_S H_S H_S C_TeTeTeTe H_S H_S C_TrTrTrPi H_S C_TrTrTrPi C_TeTeTeTe H_S H_S C_TeTeTeTe H_S H_S H_S C_TeTeTeTe H_S H_S C_TrTrTrPi H_S C_TrTrTrPi C_TeTeTeTe H_S H_S C_TeTeTeTe H_S H_S H_S C_TeTeTeTe H_S H_S C_TrTrTrPi H_S C_TrTrTrPi C_TeTeTeTe H_S H_S C_TeTeTeTe H_S H_S H_S C_TeTeTeTe H_S H_S C_TrTrTrPi H_S C_TrTrTrPi C_TeTeTeTe H_S H_S H_S C_TeTeTeTe H_S H_S H_S C_TeTeTeTe H_S C_TeTeTeTe H_S O_Te2Te2TeTe C_TeTeTeTe H_S C_TeTeTeTe H_S C_TeTeTeTe H_S O_Te2Te2TeTe O_Te2Te2TeTe H_S O_Te2Te2TeTe H_S C_TeTeTeTe H_S H_S H_S C_TeTeTeTe H_S C_TeTeTeTe H_S O_Te2Te2TeTe C_TeTeTeTe H_S C_TeTeTeTe H_S C_TeTeTeTe H_S N_TrTrTrPi2 H_S O_Te2Te2TeTe H_S C_TeTeTeTe H_S H_S O_Te2Te2TeTe H_S C_TrTrTrPi O_Tr2Tr2TrPi C_TeTeTeTe H_S H_S H_S
M  BCL BND NonConjugatedSingleBond NonConjugatedSingleBondInRing NonConjugatedSingleBondInRing NonConjugatedSingleBond NonConjugatedSingleBondInRing NonConjugatedSingleBond NonConjugatedSingleBond NonConjugatedSingleBondInRing NonConjugatedSingleBond NonConjugatedSingleBond NonConjugatedSingleBond NonConjugatedSingleBondInRing NonConjugatedSingleBond NonConjugatedSingleBond NonConjugatedSingleBond NonConjugatedSingleBond NonConjugatedSingleBond NonConjugatedSingleBond NonConjugatedSingleBond NonConjugatedSingleBond NonConjugatedSingleBond NonConjugatedSingleBond NonConjugatedSingleBond NonConjugatedSingleBond NonConjugatedSingleBondInRing NonConjugatedSingleBondInRing NonConjugatedSingleBondInRing NonConjugatedSingleBond NonConjugatedSingleBond NonConjugatedSingleBondInRing NonConjugatedSingleBond NonConjugatedSingleBond NonConjugatedSingleBond NonConjugatedSingleBondInRing NonConjugatedSingleBond NonConjugatedSingleBond NonConjugatedSingleBond NonConjugatedSingleBond NonConjugatedSingleBond NonConjugatedSingleBond NonConjugatedSingleBond NonConjugatedSingleBond NonConjugatedSingleBond NonConjugatedSingleBond NonConjugatedSingleBond NonConjugatedSingleBond ConjugatedSingleBond NonConjugatedSingleBond ConjugatedSingleBond ConjugatedSingleBond ConjugatedDoubleBond ConjugatedSingleBond ConjugatedSingleBond ConjugatedSingleBond ConjugatedDoubleBond NonConjugatedSingleBond NonConjugatedSingleBond NonConjugatedSingleBond NonConjugatedSingleBond NonConjugatedSingleBond ConjugatedDoubleBond NonConjugatedSingleBond NonConjugatedSingleBond NonConjugatedSingleBond NonConjugatedSingleBond NonConjugatedSingleBond NonConjugatedSingleBond NonConjugatedSingleBond NonConjugatedSingleBond NonConjugatedSingleBond NonConjugatedSingleBond NonConjugatedSingleBond NonConjugatedSingleBond ConjugatedDoubleBond NonConjugatedSingleBond NonConjugatedSingleBond NonConjugatedSingleBond NonConjugatedSingleBond NonConjugatedSingleBond NonConjugatedSingleBond NonConjugatedSingleBond NonConjugatedSingleBond NonConjugatedSingleBond NonConjugatedSingleBond NonConjugatedSingleBond NonConjugatedSingleBond ConjugatedDoubleBond NonConjugatedSingleBond NonConjugatedSingleBond NonConjugatedSingleBond NonConjugatedSingleBond NonConjugatedSingleBond NonConjugatedSingleBond NonConjugatedSingleBond NonConjugatedSingleBond NonConjugatedSingleBond NonConjugatedSingleBond NonConjugatedSingleBond NonConjugatedSingleBond ConjugatedDoubleBond NonConjugatedSingleBond NonConjugatedSingleBond NonConjugatedSingleBond NonConjugatedSingleBond NonConjugatedSingleBond NonConjugatedSingleBond NonConjugatedSingleBond NonConjugatedSingleBond NonConjugatedSingleBond NonConjugatedSingleBond NonConjugatedSingleBond NonConjugatedSingleBond ConjugatedDoubleBond NonConjugatedSingleBond NonConjugatedSingleBond NonConjugatedSingleBond NonConjugatedSingleBond NonConjugatedSingleBond NonConjugatedSingleBond NonConjugatedSingleBond NonConjugatedSingleBond NonConjugatedSingleBond NonConjugatedSingleBond NonConjugatedSingleBond NonConjugatedSingleBond ConjugatedDoubleBond NonConjugatedSingleBond NonConjugatedSingleBond NonConjugatedSingleBond NonConjugatedSingleBond NonConjugatedSingleBond NonConjugatedSingleBond NonConjugatedSingleBond NonConjugatedSingleBond NonConjugatedSingleBond NonConjugatedSingleBond NonConjugatedSingleBond NonConjugatedSingleBond ConjugatedDoubleBond NonConjugatedSingleBond NonConjugatedSingleBond NonConjugatedSingleBond NonConjugatedSingleBond NonConjugatedSingleBond NonConjugatedSingleBond NonConjugatedSingleBond NonConjugatedSingleBond NonConjugatedSingleBond NonConjugatedSingleBond NonConjugatedSingleBond NonConjugatedSingleBond ConjugatedDoubleBond NonConjugatedSingleBond NonConjugatedSingleBond NonConjugatedSingleBond NonConjugatedSingleBond NonConjugatedSingleBond NonConjugatedSingleBond NonConjugatedSingleBond NonConjugatedSingleBond NonConjugatedSingleBond NonConjugatedSingleBond NonConjugatedSingleBond NonConjugatedSingleBond ConjugatedDoubleBond NonConjugatedSingleBond NonConjugatedSingleBond NonConjugatedSingleBond NonConjugatedSingleBond NonConjugatedSingleBond NonConjugatedSingleBond NonConjugatedSingleBond NonConjugatedSingleBond NonConjugatedSingleBond NonConjugatedSingleBond NonConjugatedSingleBond NonConjugatedSingleBond ConjugatedDoubleBond NonConjugatedSingleBond NonConjugatedSingleBond NonConjugatedSingleBond NonConjugatedSingleBond NonConjugatedSingleBond NonConjugatedSingleBond NonConjugatedSingleBond NonConjugatedSingleBond NonConjugatedSingleBond NonConjugatedSingleBondInRing NonConjugatedSingleBondInRing NonConjugatedSingleBond NonConjugatedSingleBond NonConjugatedSingleBondInRing NonConjugatedSingleBond NonConjugatedSingleBondInRing NonConjugatedSingleBond NonConjugatedSingleBondInRing NonConjugatedSingleBond NonConjugatedSingleBond NonConjugatedSingleBondInRing NonConjugatedSingleBond NonConjugatedSingleBond NonConjugatedSingleBond NonConjugatedSingleBond NonConjugatedSingleBond NonConjugatedSingleBond NonConjugatedSingleBond NonConjugatedSingleBond NonConjugatedSingleBond NonConjugatedSingleBondInRing NonConjugatedSingleBondInRing NonConjugatedSingleBond NonConjugatedSingleBondInRing NonConjugatedSingleBond NonConjugatedSingleBondInRing NonConjugatedSingleBond NonConjugatedSingleBondInRing NonConjugatedSingleBond NonConjugatedSingleBondInRing NonConjugatedSingleBond NonConjugatedSingleBond NonConjugatedSingleBond NonConjugatedSingleBond AmideSingleBond NonConjugatedSingleBond NonConjugatedSingleBond NonConjugatedSingleBond NonConjugatedSingleBond NonConjugatedSingleBond ConjugatedDoubleBond NonConjugatedSingleBond NonConjugatedSingleBond NonConjugatedSingleBond NonConjugatedSingleBond
M  BCL CHI   1   R   4   R   8   R  17   S  20   R  22   S  25   R  29   S  38   S  42   R  46   R  50   S 185   R 187   S 190   S 192   R 194   R 205   R 207   S 210   R 212   S 214   S
M  BCL DBI - - E E E E E E E E Z - -
M  END
> <ConfClashScore>
0.000908255 

> <ConfOneFourInteractionScore>
-0.974078 

> <ConfScore>
0.126581 

> <ConfScorePBest>
0.0147895 

> <ConfTolerance>
0.25 

$$$$
L05.****
  PyMOL2.5          3D                             0

230233  0  0  0  0  0  0  0  0999 V2000
   12.2025   -2.5086   -2.3221 C   0  0  0  1  0  0  0  0  0  0  0  0
   11.9079   -2.6403   -3.3423 H   0  0  0  1  0  0  0  0  0  0  0  0
   12.5216   -1.1096   -2.0525 O   0  0  0  1  0  0  0  0  0  0  0  0
   11.0535   -2.8160   -1.3894 C   0  0  0  1  0  0  0  0  0  0  0  0
   11.4121   -3.1177   -0.4275 H   0  0  0  1  0  0  0  0  0  0  0  0
   10.2176   -3.8405   -1.9296 O   0  0  0  1  0  0  0  0  0  0  0  0
   10.7530   -4.4598   -2.4310 H   0  0  0  1  0  0  0  0  0  0  0  0
   10.2986   -1.4830   -1.2996 C   0  0  0  1  0  0  0  0  0  0  0  0
    9.5545   -1.4089   -2.0650 H   0  0  0  1  0  0  0  0  0  0  0  0
    9.6899   -1.3264   -0.0329 O   0  0  0  1  0  0  0  0  0  0  0  0
    9.9563   -0.4869    0.3491 H   0  0  0  1  0  0  0  0  0  0  0  0
   10.5909    0.2450   -3.9327 C   0  0  0  1  0  0  0  0  0  0  0  0
   11.4756   -0.0944   -4.4298 H   0  0  0  1  0  0  0  0  0  0  0  0
    9.8618   -0.5381   -3.9268 H   0  0  0  1  0  0  0  0  0  0  0  0
   10.0665    1.3736   -4.6196 O   0  0  0  1  0  0  0  0  0  0  0  0
    9.7387    1.1014   -5.4798 H   0  0  0  1  0  0  0  0  0  0  0  0
   10.9390    0.6380   -2.4694 C   0  0  0  1  0  0  0  0  0  0  0  0
   10.0692    1.0897   -2.0402 H   0  0  0  1  0  0  0  0  0  0  0  0
   11.9903    1.5956   -2.5186 O   0  0  0  1  0  0  0  0  0  0  0  0
   11.4143   -0.4471   -1.5098 C   0  0  0  1  0  0  0  0  0  0  0  0
   11.6797   -0.0039   -0.5727 H   0  0  0  1  0  0  0  0  0  0  0  0
   12.0194    2.4648   -1.4088 C   0  0  0  1  0  0  0  0  0  0  0  0
   11.2608    2.1782   -0.7106 H   0  0  0  1  0  0  0  0  0  0  0  0
   13.2906    2.4380   -0.7945 O   0  0  0  1  0  0  0  0  0  0  0  0
   11.8140    3.9011   -1.8548 C   0  0  0  1  0  0  0  0  0  0  0  0
   10.7746    4.1538   -1.8804 H   0  0  0  1  0  0  0  0  0  0  0  0
   12.3923    4.1307   -3.1406 O   0  0  0  1  0  0  0  0  0  0  0  0
   12.3283    5.0634   -3.3589 H   0  0  0  1  0  0  0  0  0  0  0  0
   12.5377    4.6775   -0.7850 C   0  0  0  1  0  0  0  0  0  0  0  0
   11.9396    4.7782    0.0965 H   0  0  0  1  0  0  0  0  0  0  0  0
   12.9217    5.9684   -1.2492 O   0  0  0  1  0  0  0  0  0  0  0  0
   12.1455    6.4426   -1.5562 H   0  0  0  1  0  0  0  0  0  0  0  0
   14.5686    5.3711    1.2212 C   0  0  0  1  0  0  0  0  0  0  0  0
   15.3805    5.6917    0.6024 H   0  0  0  1  0  0  0  0  0  0  0  0
   13.7139    5.9881    1.0373 H   0  0  0  1  0  0  0  0  0  0  0  0
   14.9442    5.4798    2.5867 O   0  0  0  1  0  0  0  0  0  0  0  0
   14.2186    5.1870    3.1430 H   0  0  0  1  0  0  0  0  0  0  0  0
   14.2269    3.9246    0.8976 C   0  0  0  1  0  0  0  0  0  0  0  0
   13.4363    3.6106    1.5466 H   0  0  0  1  0  0  0  0  0  0  0  0
   15.3799    3.1060    1.1137 O   0  0  0  1  0  0  0  0  0  0  0  0
   15.1155    2.2847    1.5347 H   0  0  0  1  0  0  0  0  0  0  0  0
   13.7561    3.7901   -0.5336 C   0  0  0  1  0  0  0  0  0  0  0  0
   14.5541    4.0487   -1.1979 H   0  0  0  1  0  0  0  0  0  0  0  0
   13.3122   -3.3387   -2.0403 O   0  0  0  1  0  0  0  0  0  0  0  0
   17.4606  -11.9668   -2.6614 O   0  0  0  1  0  0  0  0  0  0  0  0
   18.0860  -11.4304   -3.9278 P   0  0  0  1  0  0  0  0  0  0  0  0
   18.8749  -10.0701   -3.5482 O   0  0  0  1  0  0  0  0  0  0  0  0
   17.0417  -10.9106   -4.9031 O   0  0  0  0  0  0  0  0  0  0  0  0
   19.1040  -12.3444   -4.5625 O   0  0  0  1  0  0  0  0  0  0  0  0
   19.8694   -9.2911   -4.5252 P   0  0  0  1  0  0  0  0  0  0  0  0
   20.2461   -8.0007   -3.7138 O   0  0  0  1  0  0  0  0  0  0  0  0
   19.0214   -8.9882   -5.7015 O   0  0  0  0  0  0  0  0  0  0  0  0
   21.1509  -10.0042   -4.6802 O   0  0  0  1  0  0  0  0  0  0  0  0
   18.2577  -12.6408   -1.6746 C   0  0  0  1  0  0  0  0  0  0  0  0
   17.7306  -12.6697   -0.7439 H   0  0  0  1  0  0  0  0  0  0  0  0
   19.1844  -12.1220   -1.5442 H   0  0  0  1  0  0  0  0  0  0  0  0
   18.5241  -14.0407   -2.1489 C   0  0  0  1  0  0  0  0  0  0  0  0
   17.7345  -14.7174   -2.1605 H   0  0  0  1  0  0  0  0  0  0  0  0
   19.7294  -14.4609   -2.5580 C   0  0  0  1  0  0  0  0  0  0  0  0
   20.0642  -15.8954   -2.7159 C   0  0  0  1  0  0  0  0  0  0  0  0
   19.7821  -16.2224   -3.6948 H   0  0  0  1  0  0  0  0  0  0  0  0
   19.5352  -16.4676   -1.9827 H   0  0  0  1  0  0  0  0  0  0  0  0
   21.1173  -16.0322   -2.5841 H   0  0  0  1  0  0  0  0  0  0  0  0
   20.7911  -13.4305   -2.8715 C   0  0  0  1  0  0  0  0  0  0  0  0
   20.3188  -12.4764   -2.9785 H   0  0  0  1  0  0  0  0  0  0  0  0
   21.2654  -13.6995   -3.7921 H   0  0  0  1  0  0  0  0  0  0  0  0
   21.8556  -13.3250   -1.7916 C   0  0  0  1  0  0  0  0  0  0  0  0
   22.2439  -14.3034   -1.5994 H   0  0  0  1  0  0  0  0  0  0  0  0
   21.4018  -12.9398   -0.9025 H   0  0  0  1  0  0  0  0  0  0  0  0
   22.9908  -12.4289   -2.1734 C   0  0  0  1  0  0  0  0  0  0  0  0
   23.4881  -12.6348   -3.0633 H   0  0  0  1  0  0  0  0  0  0  0  0
   23.4129  -11.3850   -1.4575 C   0  0  0  1  0  0  0  0  0  0  0  0
   24.5627  -10.5401   -1.9199 C   0  0  0  1  0  0  0  0  0  0  0  0
   24.3270  -10.1043   -2.8683 H   0  0  0  1  0  0  0  0  0  0  0  0
   25.4371  -11.1494   -2.0150 H   0  0  0  1  0  0  0  0  0  0  0  0
   24.7442   -9.7638   -1.2062 H   0  0  0  1  0  0  0  0  0  0  0  0
   22.7529  -11.0136   -0.1581 C   0  0  0  1  0  0  0  0  0  0  0  0
   22.8986  -11.8287    0.5195 H   0  0  0  1  0  0  0  0  0  0  0  0
   21.7076  -10.8934   -0.3528 H   0  0  0  1  0  0  0  0  0  0  0  0
   23.2338   -9.7513    0.5389 C   0  0  0  1  0  0  0  0  0  0  0  0
   22.5783   -9.5725    1.3655 H   0  0  0  1  0  0  0  0  0  0  0  0
   23.1518   -8.9473   -0.1624 H   0  0  0  1  0  0  0  0  0  0  0  0
   24.6267   -9.7432    1.0651 C   0  0  0  1  0  0  0  0  0  0  0  0
   25.2316  -10.4864    0.6607 H   0  0  0  1  0  0  0  0  0  0  0  0
   25.2436   -8.9754    1.9459 C   0  0  0  1  0  0  0  0  0  0  0  0
   24.5844   -7.8318    2.6695 C   0  0  0  1  0  0  0  0  0  0  0  0
   23.7246   -7.5257    2.1109 H   0  0  0  1  0  0  0  0  0  0  0  0
   25.2794   -7.0203    2.7286 H   0  0  0  1  0  0  0  0  0  0  0  0
   26.6572   -9.2617    2.3603 C   0  0  0  1  0  0  0  0  0  0  0  0
   27.2608   -8.3940    2.1943 H   0  0  0  1  0  0  0  0  0  0  0  0
   27.0396  -10.0775    1.7831 H   0  0  0  1  0  0  0  0  0  0  0  0
   26.6792   -9.5178    3.3990 H   0  0  0  1  0  0  0  0  0  0  0  0
   24.1425   -8.1940    4.0780 C   0  0  0  1  0  0  0  0  0  0  0  0
   24.8628   -8.8721    4.4858 H   0  0  0  1  0  0  0  0  0  0  0  0
   23.1919   -8.6804    4.0109 H   0  0  0  1  0  0  0  0  0  0  0  0
   24.0060   -7.0427    5.0231 C   0  0  0  1  0  0  0  0  0  0  0  0
   24.8784   -6.5714    5.3367 H   0  0  0  1  0  0  0  0  0  0  0  0
   22.8531   -6.5771    5.4917 C   0  0  0  1  0  0  0  0  0  0  0  0
   21.5105   -7.1535    5.1297 C   0  0  0  1  0  0  0  0  0  0  0  0
   21.6654   -8.0572    4.5782 H   0  0  0  1  0  0  0  0  0  0  0  0
   20.9901   -6.4465    4.5179 H   0  0  0  1  0  0  0  0  0  0  0  0
   22.8028   -5.4145    6.4393 C   0  0  0  1  0  0  0  0  0  0  0  0
   23.7540   -4.9248    6.4547 H   0  0  0  1  0  0  0  0  0  0  0  0
   22.5667   -5.7656    7.4221 H   0  0  0  1  0  0  0  0  0  0  0  0
   22.0517   -4.7240    6.1167 H   0  0  0  1  0  0  0  0  0  0  0  0
   20.6509   -7.4684    6.3430 C   0  0  0  1  0  0  0  0  0  0  0  0
   20.5318   -6.5737    6.9176 H   0  0  0  1  0  0  0  0  0  0  0  0
   21.1518   -8.2075    6.9327 H   0  0  0  1  0  0  0  0  0  0  0  0
   19.2862   -7.9896    5.9797 C   0  0  0  1  0  0  0  0  0  0  0  0
   19.2352   -8.7608    5.2837 H   0  0  0  1  0  0  0  0  0  0  0  0
   18.1429   -7.5383    6.4814 C   0  0  0  1  0  0  0  0  0  0  0  0
   18.1157   -6.6776    7.7110 C   0  0  0  1  0  0  0  0  0  0  0  0
   17.2648   -6.0324    7.6436 H   0  0  0  1  0  0  0  0  0  0  0  0
   19.0097   -6.0897    7.7222 H   0  0  0  1  0  0  0  0  0  0  0  0
   16.7931   -7.8320    5.8895 C   0  0  0  1  0  0  0  0  0  0  0  0
   16.3016   -6.9129    5.6474 H   0  0  0  1  0  0  0  0  0  0  0  0
   16.2037   -8.3754    6.5983 H   0  0  0  1  0  0  0  0  0  0  0  0
   16.9129   -8.4169    5.0016 H   0  0  0  1  0  0  0  0  0  0  0  0
   18.0317   -7.4283    9.0300 C   0  0  0  1  0  0  0  0  0  0  0  0
   18.8296   -8.1402    9.0682 H   0  0  0  1  0  0  0  0  0  0  0  0
   17.0934   -7.9410    9.0709 H   0  0  0  1  0  0  0  0  0  0  0  0
   18.1364   -6.5314   10.2224 C   0  0  0  1  0  0  0  0  0  0  0  0
   18.9271   -5.8577   10.1718 H   0  0  0  1  0  0  0  0  0  0  0  0
   17.4160   -6.4281   11.3328 C   0  0  0  1  0  0  0  0  0  0  0  0
   16.0613   -7.0677   11.4476 C   0  0  0  1  0  0  0  0  0  0  0  0
   15.8474   -7.5792   10.5324 H   0  0  0  1  0  0  0  0  0  0  0  0
   15.3340   -6.2990   11.6056 H   0  0  0  1  0  0  0  0  0  0  0  0
   17.8645   -5.6834   12.5560 C   0  0  0  1  0  0  0  0  0  0  0  0
   17.2582   -4.8113   12.6856 H   0  0  0  1  0  0  0  0  0  0  0  0
   18.8877   -5.3923   12.4409 H   0  0  0  1  0  0  0  0  0  0  0  0
   17.7673   -6.3156   13.4138 H   0  0  0  1  0  0  0  0  0  0  0  0
   15.9683   -8.0641   12.5918 C   0  0  0  1  0  0  0  0  0  0  0  0
   14.9355   -8.1780   12.8471 H   0  0  0  1  0  0  0  0  0  0  0  0
   16.5000   -7.6582   13.4269 H   0  0  0  1  0  0  0  0  0  0  0  0
   16.5286   -9.4299   12.3044 C   0  0  0  1  0  0  0  0  0  0  0  0
   17.4242   -9.6893   12.7650 H   0  0  0  1  0  0  0  0  0  0  0  0
   15.9647  -10.3298   11.5058 C   0  0  0  1  0  0  0  0  0  0  0  0
   14.8660  -10.0074   10.5285 C   0  0  0  1  0  0  0  0  0  0  0  0
   14.6885   -8.9536   10.5826 H   0  0  0  1  0  0  0  0  0  0  0  0
   13.9904  -10.5339   10.8461 H   0  0  0  1  0  0  0  0  0  0  0  0
   16.3918  -11.7705   11.5193 C   0  0  0  1  0  0  0  0  0  0  0  0
   16.1713  -12.1996   12.4743 H   0  0  0  1  0  0  0  0  0  0  0  0
   17.4441  -11.8320   11.3354 H   0  0  0  1  0  0  0  0  0  0  0  0
   15.8643  -12.3058   10.7577 H   0  0  0  1  0  0  0  0  0  0  0  0
   15.1007  -10.3546    9.0675 C   0  0  0  1  0  0  0  0  0  0  0  0
   15.7441  -11.2075    9.0085 H   0  0  0  1  0  0  0  0  0  0  0  0
   15.5643   -9.5230    8.5793 H   0  0  0  1  0  0  0  0  0  0  0  0
   13.8082  -10.6671    8.3824 C   0  0  0  1  0  0  0  0  0  0  0  0
   12.9633  -10.1784    8.7414 H   0  0  0  1  0  0  0  0  0  0  0  0
   13.6227  -11.5008    7.3659 C   0  0  0  1  0  0  0  0  0  0  0  0
   14.7676  -12.2640    6.7624 C   0  0  0  1  0  0  0  0  0  0  0  0
   15.6687  -11.9394    7.2394 H   0  0  0  1  0  0  0  0  0  0  0  0
   14.8097  -12.0263    5.7200 H   0  0  0  1  0  0  0  0  0  0  0  0
   12.2889  -11.7623    6.7298 C   0  0  0  1  0  0  0  0  0  0  0  0
   11.7787  -10.8345    6.5757 H   0  0  0  1  0  0  0  0  0  0  0  0
   11.7046  -12.3882    7.3714 H   0  0  0  1  0  0  0  0  0  0  0  0
   12.4326  -12.2507    5.7886 H   0  0  0  1  0  0  0  0  0  0  0  0
   14.6850  -13.7759    6.8955 C   0  0  0  1  0  0  0  0  0  0  0  0
   14.7107  -14.0281    7.9351 H   0  0  0  1  0  0  0  0  0  0  0  0
   15.5305  -14.2079    6.4022 H   0  0  0  1  0  0  0  0  0  0  0  0
   13.4456  -14.3471    6.2997 C   0  0  0  1  0  0  0  0  0  0  0  0
   13.4838  -14.4426    5.2648 H   0  0  0  1  0  0  0  0  0  0  0  0
   12.3004  -14.7584    6.8334 C   0  0  0  1  0  0  0  0  0  0  0  0
   11.0521  -15.0061    6.0373 C   0  0  0  1  0  0  0  0  0  0  0  0
   10.2855  -14.3497    6.3930 H   0  0  0  1  0  0  0  0  0  0  0  0
   10.7497  -16.0217    6.1853 H   0  0  0  1  0  0  0  0  0  0  0  0
   12.1666  -15.0122    8.3085 C   0  0  0  1  0  0  0  0  0  0  0  0
   12.9530  -14.4506    8.7678 H   0  0  0  1  0  0  0  0  0  0  0  0
   12.2791  -16.0550    8.5201 H   0  0  0  1  0  0  0  0  0  0  0  0
   11.2133  -14.6772    8.6605 H   0  0  0  1  0  0  0  0  0  0  0  0
   11.2390  -14.7692    4.5476 C   0  0  0  1  0  0  0  0  0  0  0  0
   11.9741  -15.4560    4.1831 H   0  0  0  1  0  0  0  0  0  0  0  0
   11.5840  -13.7667    4.4028 H   0  0  0  1  0  0  0  0  0  0  0  0
    9.9723  -14.9588    3.7568 C   0  0  0  1  0  0  0  0  0  0  0  0
    9.2642  -15.6032    4.1631 H   0  0  0  1  0  0  0  0  0  0  0  0
    9.6609  -14.3928    2.5969 C   0  0  0  1  0  0  0  0  0  0  0  0
   10.6188  -13.4752    1.8940 C   0  0  0  1  0  0  0  0  0  0  0  0
   11.4857  -13.3288    2.5038 H   0  0  0  1  0  0  0  0  0  0  0  0
   10.1444  -12.5327    1.7168 H   0  0  0  1  0  0  0  0  0  0  0  0
   10.9090  -13.9102    0.9605 H   0  0  0  1  0  0  0  0  0  0  0  0
    8.3490  -14.6047    1.8812 C   0  0  0  1  0  0  0  0  0  0  0  0
    7.5684  -14.3099    2.5512 H   0  0  0  1  0  0  0  0  0  0  0  0
    8.2370  -15.6364    1.6206 H   0  0  0  1  0  0  0  0  0  0  0  0
    8.3152  -14.0066    0.9946 H   0  0  0  1  0  0  0  0  0  0  0  0
   16.2674   -5.1297   -1.7981 C   0  0  0  1  0  0  0  0  0  0  0  0
   16.6438   -5.6716   -0.9558 H   0  0  0  1  0  0  0  0  0  0  0  0
   14.9856   -5.7707   -2.2603 C   0  0  0  1  0  0  0  0  0  0  0  0
   15.1883   -6.7688   -2.5884 H   0  0  0  1  0  0  0  0  0  0  0  0
   16.0620   -3.7761   -1.4226 O   0  0  0  1  0  0  0  0  0  0  0  0
   14.3890   -4.9838   -3.4003 C   0  0  0  1  0  0  0  0  0  0  0  0
   13.4046   -5.3507   -3.6037 H   0  0  0  1  0  0  0  0  0  0  0  0
   15.6333   -2.9851   -2.5283 C   0  0  0  1  0  0  0  0  0  0  0  0
   16.3666   -3.0321   -3.3060 H   0  0  0  1  0  0  0  0  0  0  0  0
   14.3092   -3.5176   -3.0483 C   0  0  0  1  0  0  0  0  0  0  0  0
   14.0351   -2.9666   -3.9236 H   0  0  0  1  0  0  0  0  0  0  0  0
   17.2177   -5.1776   -2.8573 O   0  0  0  1  0  0  0  0  0  0  0  0
   14.0575   -5.8048   -1.1746 O   0  0  0  1  0  0  0  0  0  0  0  0
   13.8578   -4.9082   -0.8954 H   0  0  0  1  0  0  0  0  0  0  0  0
   15.2105   -5.1450   -4.5654 O   0  0  0  1  0  0  0  0  0  0  0  0
   14.6983   -5.5592   -5.2637 H   0  0  0  1  0  0  0  0  0  0  0  0
   15.4589   -1.5427   -2.0818 C   0  0  0  1  0  0  0  0  0  0  0  0
   15.5420   -1.4859   -1.0166 H   0  0  0  1  0  0  0  0  0  0  0  0
   14.4946   -1.1903   -2.3833 H   0  0  0  1  0  0  0  0  0  0  0  0
   16.2173   -0.9363   -2.5313 H   0  0  0  1  0  0  0  0  0  0  0  0
   19.4683   -6.8016   -3.7467 C   0  0  0  1  0  0  0  0  0  0  0  0
   18.5092   -7.0096   -4.1730 H   0  0  0  1  0  0  0  0  0  0  0  0
   19.2890   -6.2762   -2.3304 C   0  0  0  1  0  0  0  0  0  0  0  0
   20.2474   -6.1300   -1.8776 H   0  0  0  1  0  0  0  0  0  0  0  0
   20.1353   -5.8275   -4.5372 O   0  0  0  1  0  0  0  0  0  0  0  0
   18.5416   -4.9474   -2.3873 C   0  0  0  1  0  0  0  0  0  0  0  0
   18.5036   -4.5250   -1.4050 H   0  0  0  1  0  0  0  0  0  0  0  0
   19.3759   -4.6157   -4.6971 C   0  0  0  1  0  0  0  0  0  0  0  0
   19.8881   -3.9485   -5.3585 H   0  0  0  1  0  0  0  0  0  0  0  0
   19.2351   -3.9756   -3.3176 C   0  0  0  1  0  0  0  0  0  0  0  0
   18.6553   -3.0798   -3.3962 H   0  0  0  1  0  0  0  0  0  0  0  0
   18.5212   -7.2362   -1.5458 N   0  0  0  1  0  0  0  0  0  0  0  0
   17.5827   -7.0392   -1.3440 H   0  0  0  1  0  0  0  0  0  0  0  0
   20.5313   -3.6616   -2.8015 O   0  0  0  1  0  0  0  0  0  0  0  0
   21.1593   -3.8773   -3.4948 H   0  0  0  1  0  0  0  0  0  0  0  0
   18.0185   -4.9317   -5.2562 C   0  0  0  1  0  0  0  0  0  0  0  0
   17.3788   -4.0821   -5.1384 H   0  0  0  1  0  0  0  0  0  0  0  0
   17.6034   -5.7668   -4.7315 H   0  0  0  1  0  0  0  0  0  0  0  0
   18.1320   -5.2508   -6.6397 O   0  0  0  1  0  0  0  0  0  0  0  0
   17.3064   -5.0173   -7.0704 H   0  0  0  1  0  0  0  0  0  0  0  0
   19.0529   -8.3751   -1.0926 C   0  0  0  1  0  0  0  0  0  0  0  0
   20.2565   -8.6227   -1.1521 O   0  0  0  1  0  0  0  0  0  0  0  0
   18.0748   -9.3645   -0.4896 C   0  0  0  1  0  0  0  0  0  0  0  0
   18.5015  -10.3229   -0.7002 H   0  0  0  1  0  0  0  0  0  0  0  0
   17.1116   -9.2706   -0.9462 H   0  0  0  1  0  0  0  0  0  0  0  0
   17.9860   -9.2134    0.5659 H   0  0  0  1  0  0  0  0  0  0  0  0
  1  2  1  0  0  0  0
  1  3  1  0  0  0  0
  1  4  1  0  0  0  0
  1 44  1  0  0  0  0
  3 20  1  0  0  0  0
  4  5  1  0  0  0  0
  4  6  1  0  0  0  0
  4  8  1  0  0  0  0
  6  7  1  0  0  0  0
  8  9  1  0  0  0  0
  8 10  1  0  0  0  0
  8 20  1  0  0  0  0
 10 11  1  0  0  0  0
 12 13  1  0  0  0  0
 12 14  1  0  0  0  0
 12 15  1  0  0  0  0
 12 17  1  0  0  0  0
 15 16  1  0  0  0  0
 17 18  1  0  0  0  0
 17 19  1  0  0  0  0
 17 20  1  0  0  0  0
 19 22  1  0  0  0  0
 20 21  1  0  0  0  0
 22 23  1  0  0  0  0
 22 24  1  0  0  0  0
 22 25  1  0  0  0  0
 24 42  1  0  0  0  0
 25 26  1  0  0  0  0
 25 27  1  0  0  0  0
 25 29  1  0  0  0  0
 27 28  1  0  0  0  0
 29 30  1  0  0  0  0
 29 31  1  0  0  0  0
 29 42  1  0  0  0  0
 31 32  1  0  0  0  0
 33 34  1  0  0  0  0
 33 35  1  0  0  0  0
 33 36  1  0  0  0  0
 33 38  1  0  0  0  0
 36 37  1  0  0  0  0
 38 39  1  0  0  0  0
 38 40  1  0  0  0  0
 38 42  1  0  0  0  0
 40 41  1  0  0  0  0
 42 43  1  0  0  0  0
 44194  1  0  0  0  0
 45 46  1  0  0  0  0
 45 54  1  0  0  0  0
 46 47  1  0  0  0  0
 46 48  1  0  0  0  0
 46 49  2  0  0  0  0
 47 50  1  0  0  0  0
 50 51  1  0  0  0  0
 50 52  1  0  0  0  0
 50 53  2  0  0  0  0
 51205  1  0  0  0  0
 54 55  1  0  0  0  0
 54 56  1  0  0  0  0
 54 57  1  0  0  0  0
 57 58  1  0  0  0  0
 57 59  2  0  0  0  0
 59 60  1  0  0  0  0
 59 64  1  0  0  0  0
 60 61  1  0  0  0  0
 60 62  1  0  0  0  0
 60 63  1  0  0  0  0
 64 65  1  0  0  0  0
 64 66  1  0  0  0  0
 64 67  1  0  0  0  0
 67 68  1  0  0  0  0
 67 69  1  0  0  0  0
 67 70  1  0  0  0  0
 70 71  1  0  0  0  0
 70 72  2  0  0  0  0
 72 73  1  0  0  0  0
 72 77  1  0  0  0  0
 73 74  1  0  0  0  0
 73 75  1  0  0  0  0
 73 76  1  0  0  0  0
 77 78  1  0  0  0  0
 77 79  1  0  0  0  0
 77 80  1  0  0  0  0
 80 81  1  0  0  0  0
 80 82  1  0  0  0  0
 80 83  1  0  0  0  0
 83 84  1  0  0  0  0
 83 85  2  0  0  0  0
 85 86  1  0  0  0  0
 85 89  1  0  0  0  0
 86 87  1  0  0  0  0
 86 88  1  0  0  0  0
 86 93  1  0  0  0  0
 89 90  1  0  0  0  0
 89 91  1  0  0  0  0
 89 92  1  0  0  0  0
 93 94  1  0  0  0  0
 93 95  1  0  0  0  0
 93 96  1  0  0  0  0
 96 97  1  0  0  0  0
 96 98  2  0  0  0  0
 98 99  1  0  0  0  0
 98102  1  0  0  0  0
 99100  1  0  0  0  0
 99101  1  0  0  0  0
 99106  1  0  0  0  0
102103  1  0  0  0  0
102104  1  0  0  0  0
102105  1  0  0  0  0
106107  1  0  0  0  0
106108  1  0  0  0  0
106109  1  0  0  0  0
109110  1  0  0  0  0
109111  2  0  0  0  0
111112  1  0  0  0  0
111115  1  0  0  0  0
112113  1  0  0  0  0
112114  1  0  0  0  0
112119  1  0  0  0  0
115116  1  0  0  0  0
115117  1  0  0  0  0
115118  1  0  0  0  0
119120  1  0  0  0  0
119121  1  0  0  0  0
119122  1  0  0  0  0
122123  1  0  0  0  0
122124  2  0  0  0  0
124125  1  0  0  0  0
124128  1  0  0  0  0
125126  1  0  0  0  0
125127  1  0  0  0  0
125132  1  0  0  0  0
128129  1  0  0  0  0
128130  1  0  0  0  0
128131  1  0  0  0  0
132133  1  0  0  0  0
132134  1  0  0  0  0
132135  1  0  0  0  0
135136  1  0  0  0  0
135137  2  0  0  0  0
137138  1  0  0  0  0
137141  1  0  0  0  0
138139  1  0  0  0  0
138140  1  0  0  0  0
138145  1  0  0  0  0
141142  1  0  0  0  0
141143  1  0  0  0  0
141144  1  0  0  0  0
145146  1  0  0  0  0
145147  1  0  0  0  0
145148  1  0  0  0  0
148149  1  0  0  0  0
148150  2  0  0  0  0
150151  1  0  0  0  0
150154  1  0  0  0  0
151152  1  0  0  0  0
151153  1  0  0  0  0
151158  1  0  0  0  0
154155  1  0  0  0  0
154156  1  0  0  0  0
154157  1  0  0  0  0
158159  1  0  0  0  0
158160  1  0  0  0  0
158161  1  0  0  0  0
161162  1  0  0  0  0
161163  2  0  0  0  0
163164  1  0  0  0  0
163167  1  0  0  0  0
164165  1  0  0  0  0
164166  1  0  0  0  0
164171  1  0  0  0  0
167168  1  0  0  0  0
167169  1  0  0  0  0
167170  1  0  0  0  0
171172  1  0  0  0  0
171173  1  0  0  0  0
171174  1  0  0  0  0
174175  1  0  0  0  0
174176  2  0  0  0  0
176177  1  0  0  0  0
176181  1  0  0  0  0
177178  1  0  0  0  0
177179  1  0  0  0  0
177180  1  0  0  0  0
181182  1  0  0  0  0
181183  1  0  0  0  0
181184  1  0  0  0  0
185186  1  0  0  0  0
185187  1  0  0  0  0
185189  1  0  0  0  0
185196  1  0  0  0  0
187188  1  0  0  0  0
187190  1  0  0  0  0
187197  1  0  0  0  0
189192  1  0  0  0  0
190191  1  0  0  0  0
190194  1  0  0  0  0
190199  1  0  0  0  0
192193  1  0  0  0  0
192194  1  0  0  0  0
192201  1  0  0  0  0
194195  1  0  0  0  0
196210  1  0  0  0  0
197198  1  0  0  0  0
199200  1  0  0  0  0
201202  1  0  0  0  0
201203  1  0  0  0  0
201204  1  0  0  0  0
205206  1  0  0  0  0
205207  1  0  0  0  0
205209  1  0  0  0  0
207208  1  0  0  0  0
207210  1  0  0  0  0
207216  1  0  0  0  0
209212  1  0  0  0  0
210211  1  0  0  0  0
210214  1  0  0  0  0
212213  1  0  0  0  0
212214  1  0  0  0  0
212220  1  0  0  0  0
214215  1  0  0  0  0
214218  1  0  0  0  0
216217  1  0  0  0  0
216225  1  0  0  0  0
218219  1  0  0  0  0
220221  1  0  0  0  0
220222  1  0  0  0  0
220223  1  0  0  0  0
223224  1  0  0  0  0
225226  2  0  0  0  0
225227  1  0  0  0  0
227228  1  0  0  0  0
227229  1  0  0  0  0
227230  1  0  0  0  0
M  BCL ATM C_TeTeTeTe H_S O_Te2Te2TeTe C_TeTeTeTe H_S O_Te2Te2TeTe H_S C_TeTeTeTe H_S O_Te2Te2TeTe H_S C_TeTeTeTe H_S H_S O_Te2Te2TeTe H_S C_TeTeTeTe H_S O_Te2Te2TeTe C_TeTeTeTe H_S C_TeTeTeTe H_S O_Te2Te2TeTe C_TeTeTeTe H_S O_Te2Te2TeTe H_S C_TeTeTeTe H_S O_Te2Te2TeTe H_S C_TeTeTeTe H_S H_S O_Te2Te2TeTe H_S C_TeTeTeTe H_S O_Te2Te2TeTe H_S C_TeTeTeTe H_S O_Te2Te2TeTe O_Tr2TrTrPi2 P_TeTeTeTePi O_Tr2TrTrPi2 O_Te2Te2TeTe O_Tr2Tr2TrPi P_TeTeTeTePi O_Tr2TrTrPi2 O_Te2Te2TeTe O_Tr2Tr2TrPi C_TeTeTeTe H_S H_S C_TrTrTrPi H_S C_TrTrTrPi C_TeTeTeTe H_S H_S H_S C_TeTeTeTe H_S H_S C_TeTeTeTe H_S H_S C_TrTrTrPi H_S C_TrTrTrPi C_TeTeTeTe H_S H_S H_S C_TeTeTeTe H_S H_S C_TeTeTeTe H_S H_S C_TrTrTrPi H_S C_TrTrTrPi C_TeTeTeTe H_S H_S C_TeTeTeTe H_S H_S H_S C_TeTeTeTe H_S H_S C_TrTrTrPi H_S C_TrTrTrPi C_TeTeTeTe H_S H_S C_TeTeTeTe H_S H_S H_S C_TeTeTeTe H_S H_S C_TrTrTrPi H_S C_TrTrTrPi C_TeTeTeTe H_S H_S C_TeTeTeTe H_S H_S H_S C_TeTeTeTe H_S H_S C_TrTrTrPi H_S C_TrTrTrPi C_TeTeTeTe H_S H_S C_TeTeTeTe H_S H_S H_S C_TeTeTeTe H_S H_S C_TrTrTrPi H_S C_TrTrTrPi C_TeTeTeTe H_S H_S C_TeTeTeTe H_S H_S H_S C_TeTeTeTe H_S H_S C_TrTrTrPi H_S C_TrTrTrPi C_TeTeTeTe H_S H_S C_TeTeTeTe H_S H_S H_S C_TeTeTeTe H_S H_S C_TrTrTrPi H_S C_TrTrTrPi C_TeTeTeTe H_S H_S C_TeTeTeTe H_S H_S H_S C_TeTeTeTe H_S H_S C_TrTrTrPi H_S C_TrTrTrPi C_TeTeTeTe H_S H_S H_S C_TeTeTeTe H_S H_S H_S C_TeTeTeTe H_S C_TeTeTeTe H_S O_Te2Te2TeTe C_TeTeTeTe H_S C_TeTeTeTe H_S C_TeTeTeTe H_S O_Te2Te2TeTe O_Te2Te2TeTe H_S O_Te2Te2TeTe H_S C_TeTeTeTe H_S H_S H_S C_TeTeTeTe H_S C_TeTeTeTe H_S O_Te2Te2TeTe C_TeTeTeTe H_S C_TeTeTeTe H_S C_TeTeTeTe H_S N_TrTrTrPi2 H_S O_Te2Te2TeTe H_S C_TeTeTeTe H_S H_S O_Te2Te2TeTe H_S C_TrTrTrPi O_Tr2Tr2TrPi C_TeTeTeTe H_S H_S H_S
M  BCL BND NonConjugatedSingleBond NonConjugatedSingleBondInRing NonConjugatedSingleBondInRing NonConjugatedSingleBond NonConjugatedSingleBondInRing NonConjugatedSingleBond NonConjugatedSingleBond NonConjugatedSingleBondInRing NonConjugatedSingleBond NonConjugatedSingleBond NonConjugatedSingleBond NonConjugatedSingleBondInRing NonConjugatedSingleBond NonConjugatedSingleBond NonConjugatedSingleBond NonConjugatedSingleBond NonConjugatedSingleBond NonConjugatedSingleBond NonConjugatedSingleBond NonConjugatedSingleBond NonConjugatedSingleBond NonConjugatedSingleBond NonConjugatedSingleBond NonConjugatedSingleBond NonConjugatedSingleBondInRing NonConjugatedSingleBondInRing NonConjugatedSingleBondInRing NonConjugatedSingleBond NonConjugatedSingleBond NonConjugatedSingleBondInRing NonConjugatedSingleBond NonConjugatedSingleBond NonConjugatedSingleBond NonConjugatedSingleBondInRing NonConjugatedSingleBond NonConjugatedSingleBond NonConjugatedSingleBond NonConjugatedSingleBond NonConjugatedSingleBond NonConjugatedSingleBond NonConjugatedSingleBond NonConjugatedSingleBond NonConjugatedSingleBond NonConjugatedSingleBond NonConjugatedSingleBond NonConjugatedSingleBond ConjugatedSingleBond NonConjugatedSingleBond ConjugatedSingleBond ConjugatedSingleBond ConjugatedDoubleBond ConjugatedSingleBond ConjugatedSingleBond ConjugatedSingleBond ConjugatedDoubleBond NonConjugatedSingleBond NonConjugatedSingleBond NonConjugatedSingleBond NonConjugatedSingleBond NonConjugatedSingleBond ConjugatedDoubleBond NonConjugatedSingleBond NonConjugatedSingleBond NonConjugatedSingleBond NonConjugatedSingleBond NonConjugatedSingleBond NonConjugatedSingleBond NonConjugatedSingleBond NonConjugatedSingleBond NonConjugatedSingleBond NonConjugatedSingleBond NonConjugatedSingleBond NonConjugatedSingleBond ConjugatedDoubleBond NonConjugatedSingleBond NonConjugatedSingleBond NonConjugatedSingleBond NonConjugatedSingleBond NonConjugatedSingleBond NonConjugatedSingleBond NonConjugatedSingleBond NonConjugatedSingleBond NonConjugatedSingleBond NonConjugatedSingleBond NonConjugatedSingleBond NonConjugatedSingleBond ConjugatedDoubleBond NonConjugatedSingleBond NonConjugatedSingleBond NonConjugatedSingleBond NonConjugatedSingleBond NonConjugatedSingleBond NonConjugatedSingleBond NonConjugatedSingleBond NonConjugatedSingleBond NonConjugatedSingleBond NonConjugatedSingleBond NonConjugatedSingleBond NonConjugatedSingleBond ConjugatedDoubleBond NonConjugatedSingleBond NonConjugatedSingleBond NonConjugatedSingleBond NonConjugatedSingleBond NonConjugatedSingleBond NonConjugatedSingleBond NonConjugatedSingleBond NonConjugatedSingleBond NonConjugatedSingleBond NonConjugatedSingleBond NonConjugatedSingleBond NonConjugatedSingleBond ConjugatedDoubleBond NonConjugatedSingleBond NonConjugatedSingleBond NonConjugatedSingleBond NonConjugatedSingleBond NonConjugatedSingleBond NonConjugatedSingleBond NonConjugatedSingleBond NonConjugatedSingleBond NonConjugatedSingleBond NonConjugatedSingleBond NonConjugatedSingleBond NonConjugatedSingleBond ConjugatedDoubleBond NonConjugatedSingleBond NonConjugatedSingleBond NonConjugatedSingleBond NonConjugatedSingleBond NonConjugatedSingleBond NonConjugatedSingleBond NonConjugatedSingleBond NonConjugatedSingleBond NonConjugatedSingleBond NonConjugatedSingleBond NonConjugatedSingleBond NonConjugatedSingleBond ConjugatedDoubleBond NonConjugatedSingleBond NonConjugatedSingleBond NonConjugatedSingleBond NonConjugatedSingleBond NonConjugatedSingleBond NonConjugatedSingleBond NonConjugatedSingleBond NonConjugatedSingleBond NonConjugatedSingleBond NonConjugatedSingleBond NonConjugatedSingleBond NonConjugatedSingleBond ConjugatedDoubleBond NonConjugatedSingleBond NonConjugatedSingleBond NonConjugatedSingleBond NonConjugatedSingleBond NonConjugatedSingleBond NonConjugatedSingleBond NonConjugatedSingleBond NonConjugatedSingleBond NonConjugatedSingleBond NonConjugatedSingleBond NonConjugatedSingleBond NonConjugatedSingleBond ConjugatedDoubleBond NonConjugatedSingleBond NonConjugatedSingleBond NonConjugatedSingleBond NonConjugatedSingleBond NonConjugatedSingleBond NonConjugatedSingleBond NonConjugatedSingleBond NonConjugatedSingleBond NonConjugatedSingleBond NonConjugatedSingleBond NonConjugatedSingleBond NonConjugatedSingleBond ConjugatedDoubleBond NonConjugatedSingleBond NonConjugatedSingleBond NonConjugatedSingleBond NonConjugatedSingleBond NonConjugatedSingleBond NonConjugatedSingleBond NonConjugatedSingleBond NonConjugatedSingleBond NonConjugatedSingleBond NonConjugatedSingleBondInRing NonConjugatedSingleBondInRing NonConjugatedSingleBond NonConjugatedSingleBond NonConjugatedSingleBondInRing NonConjugatedSingleBond NonConjugatedSingleBondInRing NonConjugatedSingleBond NonConjugatedSingleBondInRing NonConjugatedSingleBond NonConjugatedSingleBond NonConjugatedSingleBondInRing NonConjugatedSingleBond NonConjugatedSingleBond NonConjugatedSingleBond NonConjugatedSingleBond NonConjugatedSingleBond NonConjugatedSingleBond NonConjugatedSingleBond NonConjugatedSingleBond NonConjugatedSingleBond NonConjugatedSingleBondInRing NonConjugatedSingleBondInRing NonConjugatedSingleBond NonConjugatedSingleBondInRing NonConjugatedSingleBond NonConjugatedSingleBondInRing NonConjugatedSingleBond NonConjugatedSingleBondInRing NonConjugatedSingleBond NonConjugatedSingleBondInRing NonConjugatedSingleBond NonConjugatedSingleBond NonConjugatedSingleBond NonConjugatedSingleBond AmideSingleBond NonConjugatedSingleBond NonConjugatedSingleBond NonConjugatedSingleBond NonConjugatedSingleBond NonConjugatedSingleBond ConjugatedDoubleBond NonConjugatedSingleBond NonConjugatedSingleBond NonConjugatedSingleBond NonConjugatedSingleBond
M  BCL CHI   1   R   4   R   8   R  17   S  20   R  22   S  25   R  29   S  38   S  42   R  46   R  50   S 185   R 187   S 190   S 192   R 194   R 205   R 207   S 210   R 212   S 214   S
M  BCL DBI - - E E E E E E E E Z - -
M  END
> <ConfClashScore>
0.000404198 

> <ConfOneFourInteractionScore>
-0.968655 

> <ConfScore>
0.148575 

> <ConfScorePBest>
0.0146865 

> <ConfTolerance>
3.87824 

$$$$
L05.****
  PyMOL2.5          3D                             0

230233  0  0  0  0  0  0  0  0999 V2000
   11.9401   -3.3169   -2.7720 C   0  0  0  1  0  0  0  0  0  0  0  0
   11.2474   -2.7597   -2.1765 H   0  0  0  1  0  0  0  0  0  0  0  0
   11.6309   -4.7431   -2.7263 O   0  0  0  1  0  0  0  0  0  0  0  0
   11.8047   -2.9521   -4.2325 C   0  0  0  1  0  0  0  0  0  0  0  0
   12.7189   -3.1333   -4.7582 H   0  0  0  1  0  0  0  0  0  0  0  0
   11.4311   -1.5818   -4.3839 O   0  0  0  1  0  0  0  0  0  0  0  0
   12.0480   -1.0263   -3.9017 H   0  0  0  1  0  0  0  0  0  0  0  0
   10.6913   -3.8824   -4.7323 C   0  0  0  1  0  0  0  0  0  0  0  0
    9.7286   -3.4313   -4.6113 H   0  0  0  1  0  0  0  0  0  0  0  0
   10.8867   -4.2283   -6.1044 O   0  0  0  1  0  0  0  0  0  0  0  0
   10.2437   -4.8929   -6.3621 H   0  0  0  1  0  0  0  0  0  0  0  0
    8.6184   -6.1287   -4.4802 C   0  0  0  1  0  0  0  0  0  0  0  0
    9.1709   -6.8751   -5.0119 H   0  0  0  1  0  0  0  0  0  0  0  0
    7.7290   -6.5639   -4.0747 H   0  0  0  1  0  0  0  0  0  0  0  0
    8.2667   -5.0777   -5.3703 O   0  0  0  1  0  0  0  0  0  0  0  0
    7.3615   -5.1980   -5.6665 H   0  0  0  1  0  0  0  0  0  0  0  0
    9.4750   -5.5760   -3.3458 C   0  0  0  1  0  0  0  0  0  0  0  0
    9.6404   -6.3810   -2.6606 H   0  0  0  1  0  0  0  0  0  0  0  0
    8.7428   -4.5582   -2.6713 O   0  0  0  1  0  0  0  0  0  0  0  0
   10.8446   -5.1125   -3.8238 C   0  0  0  1  0  0  0  0  0  0  0  0
   11.3218   -5.9045   -4.3623 H   0  0  0  1  0  0  0  0  0  0  0  0
    7.7348   -5.0969   -1.8577 C   0  0  0  1  0  0  0  0  0  0  0  0
    6.9908   -5.5611   -2.4708 H   0  0  0  1  0  0  0  0  0  0  0  0
    8.2937   -6.0550   -0.9082 O   0  0  0  1  0  0  0  0  0  0  0  0
    7.1191   -4.0251   -0.9878 C   0  0  0  1  0  0  0  0  0  0  0  0
    6.1184   -4.2848   -0.7118 H   0  0  0  1  0  0  0  0  0  0  0  0
    7.1168   -2.7633   -1.6573 O   0  0  0  1  0  0  0  0  0  0  0  0
    7.6894   -2.1512   -1.1892 H   0  0  0  1  0  0  0  0  0  0  0  0
    8.0359   -3.9916    0.2423 C   0  0  0  1  0  0  0  0  0  0  0  0
    7.4896   -3.7266    1.1233 H   0  0  0  1  0  0  0  0  0  0  0  0
    9.1114   -3.0759    0.0562 O   0  0  0  1  0  0  0  0  0  0  0  0
    9.1573   -2.4787    0.8064 H   0  0  0  1  0  0  0  0  0  0  0  0
    6.3345   -6.4054    1.1756 C   0  0  0  1  0  0  0  0  0  0  0  0
    5.8260   -5.4703    1.0667 H   0  0  0  1  0  0  0  0  0  0  0  0
    6.1880   -6.9962    0.2957 H   0  0  0  1  0  0  0  0  0  0  0  0
    5.8564   -7.1058    2.3374 O   0  0  0  1  0  0  0  0  0  0  0  0
    5.0146   -7.5214    2.1371 H   0  0  0  1  0  0  0  0  0  0  0  0
    7.8267   -6.1773    1.4249 C   0  0  0  1  0  0  0  0  0  0  0  0
    8.2864   -7.1386    1.5222 H   0  0  0  1  0  0  0  0  0  0  0  0
    8.0193   -5.4518    2.6363 O   0  0  0  1  0  0  0  0  0  0  0  0
    8.4068   -6.0297    3.2977 H   0  0  0  1  0  0  0  0  0  0  0  0
    8.5481   -5.4384    0.3224 C   0  0  0  1  0  0  0  0  0  0  0  0
    9.5998   -5.4410    0.5195 H   0  0  0  1  0  0  0  0  0  0  0  0
   13.2565   -3.0749   -2.3153 O   0  0  0  1  0  0  0  0  0  0  0  0
   21.2680   -8.2354   -5.5428 O   0  0  0  1  0  0  0  0  0  0  0  0
   20.1548   -9.3491   -5.8107 P   0  0  0  1  0  0  0  0  0  0  0  0
   20.0645  -10.0278   -4.3573 O   0  0  0  1  0  0  0  0  0  0  0  0
   20.6279  -10.3149   -6.8550 O   0  0  0  0  0  0  0  0  0  0  0  0
   18.8330   -8.6964   -6.0749 O   0  0  0  1  0  0  0  0  0  0  0  0
   19.6690   -9.4433   -2.9008 P   0  0  0  1  0  0  0  0  0  0  0  0
   20.2705   -7.9894   -2.8805 O   0  0  0  1  0  0  0  0  0  0  0  0
   20.4502  -10.1796   -1.8581 O   0  0  0  0  0  0  0  0  0  0  0  0
   18.1959   -9.4541   -2.8769 O   0  0  0  1  0  0  0  0  0  0  0  0
   21.5651   -7.2958   -6.5856 C   0  0  0  1  0  0  0  0  0  0  0  0
   22.4165   -6.7125   -6.3031 H   0  0  0  1  0  0  0  0  0  0  0  0
   20.7231   -6.6516   -6.7307 H   0  0  0  1  0  0  0  0  0  0  0  0
   21.8627   -8.0176   -7.8668 C   0  0  0  1  0  0  0  0  0  0  0  0
   22.4261   -8.8914   -7.8896 H   0  0  0  1  0  0  0  0  0  0  0  0
   21.3630   -7.4730   -8.9698 C   0  0  0  1  0  0  0  0  0  0  0  0
   21.3611   -8.2148  -10.2748 C   0  0  0  1  0  0  0  0  0  0  0  0
   22.1681   -8.9172  -10.2876 H   0  0  0  1  0  0  0  0  0  0  0  0
   21.4804   -7.5200  -11.0798 H   0  0  0  1  0  0  0  0  0  0  0  0
   20.4333   -8.7358  -10.3873 H   0  0  0  1  0  0  0  0  0  0  0  0
   20.7635   -6.0962   -9.0281 C   0  0  0  1  0  0  0  0  0  0  0  0
   21.2322   -5.4887   -8.2824 H   0  0  0  1  0  0  0  0  0  0  0  0
   19.7164   -6.1716   -8.8210 H   0  0  0  1  0  0  0  0  0  0  0  0
   20.9420   -5.4258  -10.3806 C   0  0  0  1  0  0  0  0  0  0  0  0
   20.5571   -6.0860  -11.1296 H   0  0  0  1  0  0  0  0  0  0  0  0
   21.9897   -5.2774  -10.5396 H   0  0  0  1  0  0  0  0  0  0  0  0
   20.2555   -4.0954  -10.5370 C   0  0  0  1  0  0  0  0  0  0  0  0
   19.2769   -4.1171  -10.8885 H   0  0  0  1  0  0  0  0  0  0  0  0
   20.7646   -2.8950  -10.2744 C   0  0  0  1  0  0  0  0  0  0  0  0
   19.8425   -1.7137  -10.1664 C   0  0  0  1  0  0  0  0  0  0  0  0
   19.7155   -1.2702  -11.1318 H   0  0  0  1  0  0  0  0  0  0  0  0
   20.2629   -0.9935   -9.4959 H   0  0  0  1  0  0  0  0  0  0  0  0
   18.8924   -2.0360   -9.7944 H   0  0  0  1  0  0  0  0  0  0  0  0
   22.2235   -2.5877  -10.0667 C   0  0  0  1  0  0  0  0  0  0  0  0
   22.6029   -2.1222  -10.9523 H   0  0  0  1  0  0  0  0  0  0  0  0
   22.7440   -3.5066   -9.8952 H   0  0  0  1  0  0  0  0  0  0  0  0
   22.4750   -1.6618   -8.8877 C   0  0  0  1  0  0  0  0  0  0  0  0
   22.0360   -0.7126   -9.1140 H   0  0  0  1  0  0  0  0  0  0  0  0
   23.5332   -1.5487   -8.7768 H   0  0  0  1  0  0  0  0  0  0  0  0
   21.9173   -2.1291   -7.5699 C   0  0  0  1  0  0  0  0  0  0  0  0
   22.0061   -3.1444   -7.3628 H   0  0  0  1  0  0  0  0  0  0  0  0
   21.3238   -1.3852   -6.6427 C   0  0  0  1  0  0  0  0  0  0  0  0
   21.1099    0.0978   -6.7736 C   0  0  0  1  0  0  0  0  0  0  0  0
   21.6765    0.4511   -7.6097 H   0  0  0  1  0  0  0  0  0  0  0  0
   21.4581    0.5723   -5.8800 H   0  0  0  1  0  0  0  0  0  0  0  0
   20.8106   -1.9835   -5.3657 C   0  0  0  1  0  0  0  0  0  0  0  0
   21.5376   -1.8511   -4.5918 H   0  0  0  1  0  0  0  0  0  0  0  0
   20.6293   -3.0282   -5.5093 H   0  0  0  1  0  0  0  0  0  0  0  0
   19.8992   -1.4980   -5.0855 H   0  0  0  1  0  0  0  0  0  0  0  0
   19.6520    0.4728   -6.9840 C   0  0  0  1  0  0  0  0  0  0  0  0
   19.1001    0.1453   -6.1279 H   0  0  0  1  0  0  0  0  0  0  0  0
   19.3009   -0.0421   -7.8537 H   0  0  0  1  0  0  0  0  0  0  0  0
   19.3850    1.9406   -7.1745 C   0  0  0  1  0  0  0  0  0  0  0  0
   20.0540    2.4794   -7.7607 H   0  0  0  1  0  0  0  0  0  0  0  0
   18.3580    2.6004   -6.6496 C   0  0  0  1  0  0  0  0  0  0  0  0
   17.4991    2.0607   -5.5391 C   0  0  0  1  0  0  0  0  0  0  0  0
   17.7094    1.0153   -5.4510 H   0  0  0  1  0  0  0  0  0  0  0  0
   16.4782    2.1964   -5.8291 H   0  0  0  1  0  0  0  0  0  0  0  0
   17.9696    3.9650   -7.1373 C   0  0  0  1  0  0  0  0  0  0  0  0
   18.7016    4.3171   -7.8338 H   0  0  0  1  0  0  0  0  0  0  0  0
   17.9149    4.6379   -6.3072 H   0  0  0  1  0  0  0  0  0  0  0  0
   17.0154    3.9133   -7.6187 H   0  0  0  1  0  0  0  0  0  0  0  0
   17.6656    2.6760   -4.1593 C   0  0  0  1  0  0  0  0  0  0  0  0
   17.3351    3.6933   -4.1866 H   0  0  0  1  0  0  0  0  0  0  0  0
   18.6988    2.6435   -3.8830 H   0  0  0  1  0  0  0  0  0  0  0  0
   16.8626    1.9266   -3.1440 C   0  0  0  1  0  0  0  0  0  0  0  0
   17.1319    0.9357   -2.9794 H   0  0  0  1  0  0  0  0  0  0  0  0
   15.8425    2.3896   -2.4295 C   0  0  0  1  0  0  0  0  0  0  0  0
   15.5189    3.8486   -2.2880 C   0  0  0  1  0  0  0  0  0  0  0  0
   16.4051    4.4148   -2.4856 H   0  0  0  1  0  0  0  0  0  0  0  0
   15.1955    4.0300   -1.2843 H   0  0  0  1  0  0  0  0  0  0  0  0
   14.9148    1.4652   -1.6924 C   0  0  0  1  0  0  0  0  0  0  0  0
   15.4049    0.5296   -1.5208 H   0  0  0  1  0  0  0  0  0  0  0  0
   14.0335    1.3038   -2.2773 H   0  0  0  1  0  0  0  0  0  0  0  0
   14.6456    1.9039   -0.7543 H   0  0  0  1  0  0  0  0  0  0  0  0
   14.4272    4.3113   -3.2391 C   0  0  0  1  0  0  0  0  0  0  0  0
   13.7418    3.4985   -3.3595 H   0  0  0  1  0  0  0  0  0  0  0  0
   14.8917    4.5288   -4.1782 H   0  0  0  1  0  0  0  0  0  0  0  0
   13.6328    5.5104   -2.8460 C   0  0  0  1  0  0  0  0  0  0  0  0
   13.2930    5.5138   -1.8631 H   0  0  0  1  0  0  0  0  0  0  0  0
   13.2932    6.5795   -3.5686 C   0  0  0  1  0  0  0  0  0  0  0  0
   13.9694    6.8819   -4.8742 C   0  0  0  1  0  0  0  0  0  0  0  0
   13.2514    6.7487   -5.6563 H   0  0  0  1  0  0  0  0  0  0  0  0
   14.7696    6.1830   -5.0012 H   0  0  0  1  0  0  0  0  0  0  0  0
   12.2219    7.5227   -3.1051 C   0  0  0  1  0  0  0  0  0  0  0  0
   12.6729    8.3791   -2.6489 H   0  0  0  1  0  0  0  0  0  0  0  0
   11.5953    7.0279   -2.3927 H   0  0  0  1  0  0  0  0  0  0  0  0
   11.6338    7.8335   -3.9431 H   0  0  0  1  0  0  0  0  0  0  0  0
   14.5458    8.2827   -5.0004 C   0  0  0  1  0  0  0  0  0  0  0  0
   15.3168    8.3897   -4.2662 H   0  0  0  1  0  0  0  0  0  0  0  0
   13.7612    8.9818   -4.7990 H   0  0  0  1  0  0  0  0  0  0  0  0
   15.1344    8.6196   -6.3443 C   0  0  0  1  0  0  0  0  0  0  0  0
   15.7181    7.9428   -6.8761 H   0  0  0  1  0  0  0  0  0  0  0  0
   14.8643    9.8276   -6.8073 C   0  0  0  1  0  0  0  0  0  0  0  0
   14.3135   10.8903   -5.9013 C   0  0  0  1  0  0  0  0  0  0  0  0
   14.6394   10.6886   -4.9023 H   0  0  0  1  0  0  0  0  0  0  0  0
   13.2450   10.8530   -5.9429 H   0  0  0  1  0  0  0  0  0  0  0  0
   14.9861   10.2140   -8.2545 C   0  0  0  1  0  0  0  0  0  0  0  0
   15.7094   10.9959   -8.3558 H   0  0  0  1  0  0  0  0  0  0  0  0
   14.0380   10.5568   -8.6129 H   0  0  0  1  0  0  0  0  0  0  0  0
   15.2976    9.3642   -8.8252 H   0  0  0  1  0  0  0  0  0  0  0  0
   14.7640   12.2908   -6.2837 C   0  0  0  1  0  0  0  0  0  0  0  0
   14.6064   12.4468   -7.3305 H   0  0  0  1  0  0  0  0  0  0  0  0
   15.8030   12.4095   -6.0573 H   0  0  0  1  0  0  0  0  0  0  0  0
   13.9565   13.2871   -5.4955 C   0  0  0  1  0  0  0  0  0  0  0  0
   12.9883   13.4856   -5.8192 H   0  0  0  1  0  0  0  0  0  0  0  0
   14.3902   13.9345   -4.4124 C   0  0  0  1  0  0  0  0  0  0  0  0
   15.7887   13.7408   -3.8982 C   0  0  0  1  0  0  0  0  0  0  0  0
   16.0791   12.7263   -4.0752 H   0  0  0  1  0  0  0  0  0  0  0  0
   15.7947   13.9356   -2.8461 H   0  0  0  1  0  0  0  0  0  0  0  0
   13.4977   14.8835   -3.6632 C   0  0  0  1  0  0  0  0  0  0  0  0
   13.9909   15.8268   -3.5540 H   0  0  0  1  0  0  0  0  0  0  0  0
   13.2810   14.4805   -2.6959 H   0  0  0  1  0  0  0  0  0  0  0  0
   12.5857   15.0188   -4.2062 H   0  0  0  1  0  0  0  0  0  0  0  0
   16.8009   14.6574   -4.5658 C   0  0  0  1  0  0  0  0  0  0  0  0
   16.3795   15.6386   -4.6327 H   0  0  0  1  0  0  0  0  0  0  0  0
   16.9997   14.2862   -5.5494 H   0  0  0  1  0  0  0  0  0  0  0  0
   18.1024   14.7450   -3.8146 C   0  0  0  1  0  0  0  0  0  0  0  0
   18.0600   14.9946   -2.8059 H   0  0  0  1  0  0  0  0  0  0  0  0
   19.3117   14.5254   -4.3488 C   0  0  0  1  0  0  0  0  0  0  0  0
   20.4885   14.3130   -3.4228 C   0  0  0  1  0  0  0  0  0  0  0  0
   21.1426   15.1559   -3.5045 H   0  0  0  1  0  0  0  0  0  0  0  0
   21.0066   13.4280   -3.7279 H   0  0  0  1  0  0  0  0  0  0  0  0
   19.5431   14.4820   -5.8114 C   0  0  0  1  0  0  0  0  0  0  0  0
   19.8579   13.4812   -6.0215 H   0  0  0  1  0  0  0  0  0  0  0  0
   20.3049   15.1797   -6.0901 H   0  0  0  1  0  0  0  0  0  0  0  0
   18.6406   14.7086   -6.3395 H   0  0  0  1  0  0  0  0  0  0  0  0
   20.0801   14.1570   -1.9670 C   0  0  0  1  0  0  0  0  0  0  0  0
   19.3420   13.3852   -1.9012 H   0  0  0  1  0  0  0  0  0  0  0  0
   19.6608   15.0819   -1.6299 H   0  0  0  1  0  0  0  0  0  0  0  0
   21.2243   13.7990   -1.0726 C   0  0  0  1  0  0  0  0  0  0  0  0
   21.6102   12.8387   -1.1754 H   0  0  0  1  0  0  0  0  0  0  0  0
   21.8011   14.5748   -0.1611 C   0  0  0  1  0  0  0  0  0  0  0  0
   21.3407   15.9671    0.1594 C   0  0  0  1  0  0  0  0  0  0  0  0
   20.9159   16.4131   -0.7155 H   0  0  0  1  0  0  0  0  0  0  0  0
   22.1746   16.5514    0.4884 H   0  0  0  1  0  0  0  0  0  0  0  0
   20.6034   15.9292    0.9340 H   0  0  0  1  0  0  0  0  0  0  0  0
   22.9907   14.1027    0.6392 C   0  0  0  1  0  0  0  0  0  0  0  0
   23.3311   13.1897    0.1971 H   0  0  0  1  0  0  0  0  0  0  0  0
   22.7033   13.9320    1.6556 H   0  0  0  1  0  0  0  0  0  0  0  0
   23.7683   14.8371    0.6064 H   0  0  0  1  0  0  0  0  0  0  0  0
   16.0916   -5.1328   -1.7492 C   0  0  0  1  0  0  0  0  0  0  0  0
   16.3784   -5.6944   -0.8848 H   0  0  0  1  0  0  0  0  0  0  0  0
   14.7869   -5.6880   -2.3055 C   0  0  0  1  0  0  0  0  0  0  0  0
   14.9278   -6.7040   -2.6100 H   0  0  0  1  0  0  0  0  0  0  0  0
   15.9099   -3.7616   -1.3878 O   0  0  0  1  0  0  0  0  0  0  0  0
   14.3733   -4.8396   -3.5121 C   0  0  0  1  0  0  0  0  0  0  0  0
   13.3936   -5.1378   -3.8220 H   0  0  0  1  0  0  0  0  0  0  0  0
   15.6516   -2.9267   -2.5272 C   0  0  0  1  0  0  0  0  0  0  0  0
   16.4577   -3.0188   -3.2248 H   0  0  0  1  0  0  0  0  0  0  0  0
   14.3538   -3.3540   -3.1964 C   0  0  0  1  0  0  0  0  0  0  0  0
   14.2305   -2.8038   -4.1058 H   0  0  0  1  0  0  0  0  0  0  0  0
   17.1092   -5.2315   -2.7389 O   0  0  0  1  0  0  0  0  0  0  0  0
   13.7709   -5.6272   -1.3028 O   0  0  0  1  0  0  0  0  0  0  0  0
   14.0830   -6.0584   -0.5038 H   0  0  0  1  0  0  0  0  0  0  0  0
   15.3023   -5.0710   -4.5765 O   0  0  0  1  0  0  0  0  0  0  0  0
   15.2190   -5.9768   -4.8833 H   0  0  0  1  0  0  0  0  0  0  0  0
   15.5347   -1.4897   -2.0790 C   0  0  0  1  0  0  0  0  0  0  0  0
   16.0161   -1.3709   -1.1309 H   0  0  0  1  0  0  0  0  0  0  0  0
   14.5012   -1.2273   -1.9893 H   0  0  0  1  0  0  0  0  0  0  0  0
   16.0038   -0.8524   -2.7992 H   0  0  0  1  0  0  0  0  0  0  0  0
   19.4778   -6.8761   -3.2151 C   0  0  0  1  0  0  0  0  0  0  0  0
   18.5482   -7.2102   -3.6264 H   0  0  0  1  0  0  0  0  0  0  0  0
   19.2152   -6.0576   -1.9806 C   0  0  0  1  0  0  0  0  0  0  0  0
   20.1471   -5.7624   -1.5456 H   0  0  0  1  0  0  0  0  0  0  0  0
   20.1574   -6.0822   -4.1684 O   0  0  0  1  0  0  0  0  0  0  0  0
   18.4234   -4.8338   -2.3398 C   0  0  0  1  0  0  0  0  0  0  0  0
   18.3590   -4.1974   -1.4821 H   0  0  0  1  0  0  0  0  0  0  0  0
   19.3300   -5.0025   -4.6372 C   0  0  0  1  0  0  0  0  0  0  0  0
   19.8328   -4.4737   -5.4199 H   0  0  0  1  0  0  0  0  0  0  0  0
   19.0696   -4.0689   -3.4712 C   0  0  0  1  0  0  0  0  0  0  0  0
   18.4175   -3.2810   -3.7856 H   0  0  0  1  0  0  0  0  0  0  0  0
   18.4617   -6.8570   -1.0214 N   0  0  0  1  0  0  0  0  0  0  0  0
   17.4922   -6.9572   -1.1230 H   0  0  0  1  0  0  0  0  0  0  0  0
   20.3074   -3.5132   -3.0225 O   0  0  0  1  0  0  0  0  0  0  0  0
   20.9244   -3.5994   -3.7529 H   0  0  0  1  0  0  0  0  0  0  0  0
   18.0272   -5.5465   -5.1554 C   0  0  0  1  0  0  0  0  0  0  0  0
   17.3579   -4.7295   -5.3269 H   0  0  0  1  0  0  0  0  0  0  0  0
   17.6107   -6.2006   -4.4180 H   0  0  0  1  0  0  0  0  0  0  0  0
   18.1854   -6.2708   -6.3716 O   0  0  0  1  0  0  0  0  0  0  0  0
   19.0840   -6.1409   -6.6836 H   0  0  0  1  0  0  0  0  0  0  0  0
   19.0895   -7.4520   -0.0059 C   0  0  0  1  0  0  0  0  0  0  0  0
   20.2950   -7.3765    0.1657 O   0  0  0  1  0  0  0  0  0  0  0  0
   18.2078   -8.2421    0.9415 C   0  0  0  1  0  0  0  0  0  0  0  0
   17.4610   -8.6767    0.3103 H   0  0  0  1  0  0  0  0  0  0  0  0
   17.7602   -7.5971    1.6685 H   0  0  0  1  0  0  0  0  0  0  0  0
   18.7727   -9.0028    1.4385 H   0  0  0  1  0  0  0  0  0  0  0  0
  1  2  1  0  0  0  0
  1  3  1  0  0  0  0
  1  4  1  0  0  0  0
  1 44  1  0  0  0  0
  3 20  1  0  0  0  0
  4  5  1  0  0  0  0
  4  6  1  0  0  0  0
  4  8  1  0  0  0  0
  6  7  1  0  0  0  0
  8  9  1  0  0  0  0
  8 10  1  0  0  0  0
  8 20  1  0  0  0  0
 10 11  1  0  0  0  0
 12 13  1  0  0  0  0
 12 14  1  0  0  0  0
 12 15  1  0  0  0  0
 12 17  1  0  0  0  0
 15 16  1  0  0  0  0
 17 18  1  0  0  0  0
 17 19  1  0  0  0  0
 17 20  1  0  0  0  0
 19 22  1  0  0  0  0
 20 21  1  0  0  0  0
 22 23  1  0  0  0  0
 22 24  1  0  0  0  0
 22 25  1  0  0  0  0
 24 42  1  0  0  0  0
 25 26  1  0  0  0  0
 25 27  1  0  0  0  0
 25 29  1  0  0  0  0
 27 28  1  0  0  0  0
 29 30  1  0  0  0  0
 29 31  1  0  0  0  0
 29 42  1  0  0  0  0
 31 32  1  0  0  0  0
 33 34  1  0  0  0  0
 33 35  1  0  0  0  0
 33 36  1  0  0  0  0
 33 38  1  0  0  0  0
 36 37  1  0  0  0  0
 38 39  1  0  0  0  0
 38 40  1  0  0  0  0
 38 42  1  0  0  0  0
 40 41  1  0  0  0  0
 42 43  1  0  0  0  0
 44194  1  0  0  0  0
 45 46  1  0  0  0  0
 45 54  1  0  0  0  0
 46 47  1  0  0  0  0
 46 48  1  0  0  0  0
 46 49  2  0  0  0  0
 47 50  1  0  0  0  0
 50 51  1  0  0  0  0
 50 52  1  0  0  0  0
 50 53  2  0  0  0  0
 51205  1  0  0  0  0
 54 55  1  0  0  0  0
 54 56  1  0  0  0  0
 54 57  1  0  0  0  0
 57 58  1  0  0  0  0
 57 59  2  0  0  0  0
 59 60  1  0  0  0  0
 59 64  1  0  0  0  0
 60 61  1  0  0  0  0
 60 62  1  0  0  0  0
 60 63  1  0  0  0  0
 64 65  1  0  0  0  0
 64 66  1  0  0  0  0
 64 67  1  0  0  0  0
 67 68  1  0  0  0  0
 67 69  1  0  0  0  0
 67 70  1  0  0  0  0
 70 71  1  0  0  0  0
 70 72  2  0  0  0  0
 72 73  1  0  0  0  0
 72 77  1  0  0  0  0
 73 74  1  0  0  0  0
 73 75  1  0  0  0  0
 73 76  1  0  0  0  0
 77 78  1  0  0  0  0
 77 79  1  0  0  0  0
 77 80  1  0  0  0  0
 80 81  1  0  0  0  0
 80 82  1  0  0  0  0
 80 83  1  0  0  0  0
 83 84  1  0  0  0  0
 83 85  2  0  0  0  0
 85 86  1  0  0  0  0
 85 89  1  0  0  0  0
 86 87  1  0  0  0  0
 86 88  1  0  0  0  0
 86 93  1  0  0  0  0
 89 90  1  0  0  0  0
 89 91  1  0  0  0  0
 89 92  1  0  0  0  0
 93 94  1  0  0  0  0
 93 95  1  0  0  0  0
 93 96  1  0  0  0  0
 96 97  1  0  0  0  0
 96 98  2  0  0  0  0
 98 99  1  0  0  0  0
 98102  1  0  0  0  0
 99100  1  0  0  0  0
 99101  1  0  0  0  0
 99106  1  0  0  0  0
102103  1  0  0  0  0
102104  1  0  0  0  0
102105  1  0  0  0  0
106107  1  0  0  0  0
106108  1  0  0  0  0
106109  1  0  0  0  0
109110  1  0  0  0  0
109111  2  0  0  0  0
111112  1  0  0  0  0
111115  1  0  0  0  0
112113  1  0  0  0  0
112114  1  0  0  0  0
112119  1  0  0  0  0
115116  1  0  0  0  0
115117  1  0  0  0  0
115118  1  0  0  0  0
119120  1  0  0  0  0
119121  1  0  0  0  0
119122  1  0  0  0  0
122123  1  0  0  0  0
122124  2  0  0  0  0
124125  1  0  0  0  0
124128  1  0  0  0  0
125126  1  0  0  0  0
125127  1  0  0  0  0
125132  1  0  0  0  0
128129  1  0  0  0  0
128130  1  0  0  0  0
128131  1  0  0  0  0
132133  1  0  0  0  0
132134  1  0  0  0  0
132135  1  0  0  0  0
135136  1  0  0  0  0
135137  2  0  0  0  0
137138  1  0  0  0  0
137141  1  0  0  0  0
138139  1  0  0  0  0
138140  1  0  0  0  0
138145  1  0  0  0  0
141142  1  0  0  0  0
141143  1  0  0  0  0
141144  1  0  0  0  0
145146  1  0  0  0  0
145147  1  0  0  0  0
145148  1  0  0  0  0
148149  1  0  0  0  0
148150  2  0  0  0  0
150151  1  0  0  0  0
150154  1  0  0  0  0
151152  1  0  0  0  0
151153  1  0  0  0  0
151158  1  0  0  0  0
154155  1  0  0  0  0
154156  1  0  0  0  0
154157  1  0  0  0  0
158159  1  0  0  0  0
158160  1  0  0  0  0
158161  1  0  0  0  0
161162  1  0  0  0  0
161163  2  0  0  0  0
163164  1  0  0  0  0
163167  1  0  0  0  0
164165  1  0  0  0  0
164166  1  0  0  0  0
164171  1  0  0  0  0
167168  1  0  0  0  0
167169  1  0  0  0  0
167170  1  0  0  0  0
171172  1  0  0  0  0
171173  1  0  0  0  0
171174  1  0  0  0  0
174175  1  0  0  0  0
174176  2  0  0  0  0
176177  1  0  0  0  0
176181  1  0  0  0  0
177178  1  0  0  0  0
177179  1  0  0  0  0
177180  1  0  0  0  0
181182  1  0  0  0  0
181183  1  0  0  0  0
181184  1  0  0  0  0
185186  1  0  0  0  0
185187  1  0  0  0  0
185189  1  0  0  0  0
185196  1  0  0  0  0
187188  1  0  0  0  0
187190  1  0  0  0  0
187197  1  0  0  0  0
189192  1  0  0  0  0
190191  1  0  0  0  0
190194  1  0  0  0  0
190199  1  0  0  0  0
192193  1  0  0  0  0
192194  1  0  0  0  0
192201  1  0  0  0  0
194195  1  0  0  0  0
196210  1  0  0  0  0
197198  1  0  0  0  0
199200  1  0  0  0  0
201202  1  0  0  0  0
201203  1  0  0  0  0
201204  1  0  0  0  0
205206  1  0  0  0  0
205207  1  0  0  0  0
205209  1  0  0  0  0
207208  1  0  0  0  0
207210  1  0  0  0  0
207216  1  0  0  0  0
209212  1  0  0  0  0
210211  1  0  0  0  0
210214  1  0  0  0  0
212213  1  0  0  0  0
212214  1  0  0  0  0
212220  1  0  0  0  0
214215  1  0  0  0  0
214218  1  0  0  0  0
216217  1  0  0  0  0
216225  1  0  0  0  0
218219  1  0  0  0  0
220221  1  0  0  0  0
220222  1  0  0  0  0
220223  1  0  0  0  0
223224  1  0  0  0  0
225226  2  0  0  0  0
225227  1  0  0  0  0
227228  1  0  0  0  0
227229  1  0  0  0  0
227230  1  0  0  0  0
M  BCL ATM C_TeTeTeTe H_S O_Te2Te2TeTe C_TeTeTeTe H_S O_Te2Te2TeTe H_S C_TeTeTeTe H_S O_Te2Te2TeTe H_S C_TeTeTeTe H_S H_S O_Te2Te2TeTe H_S C_TeTeTeTe H_S O_Te2Te2TeTe C_TeTeTeTe H_S C_TeTeTeTe H_S O_Te2Te2TeTe C_TeTeTeTe H_S O_Te2Te2TeTe H_S C_TeTeTeTe H_S O_Te2Te2TeTe H_S C_TeTeTeTe H_S H_S O_Te2Te2TeTe H_S C_TeTeTeTe H_S O_Te2Te2TeTe H_S C_TeTeTeTe H_S O_Te2Te2TeTe O_Tr2TrTrPi2 P_TeTeTeTePi O_Tr2TrTrPi2 O_Te2Te2TeTe O_Tr2Tr2TrPi P_TeTeTeTePi O_Tr2TrTrPi2 O_Te2Te2TeTe O_Tr2Tr2TrPi C_TeTeTeTe H_S H_S C_TrTrTrPi H_S C_TrTrTrPi C_TeTeTeTe H_S H_S H_S C_TeTeTeTe H_S H_S C_TeTeTeTe H_S H_S C_TrTrTrPi H_S C_TrTrTrPi C_TeTeTeTe H_S H_S H_S C_TeTeTeTe H_S H_S C_TeTeTeTe H_S H_S C_TrTrTrPi H_S C_TrTrTrPi C_TeTeTeTe H_S H_S C_TeTeTeTe H_S H_S H_S C_TeTeTeTe H_S H_S C_TrTrTrPi H_S C_TrTrTrPi C_TeTeTeTe H_S H_S C_TeTeTeTe H_S H_S H_S C_TeTeTeTe H_S H_S C_TrTrTrPi H_S C_TrTrTrPi C_TeTeTeTe H_S H_S C_TeTeTeTe H_S H_S H_S C_TeTeTeTe H_S H_S C_TrTrTrPi H_S C_TrTrTrPi C_TeTeTeTe H_S H_S C_TeTeTeTe H_S H_S H_S C_TeTeTeTe H_S H_S C_TrTrTrPi H_S C_TrTrTrPi C_TeTeTeTe H_S H_S C_TeTeTeTe H_S H_S H_S C_TeTeTeTe H_S H_S C_TrTrTrPi H_S C_TrTrTrPi C_TeTeTeTe H_S H_S C_TeTeTeTe H_S H_S H_S C_TeTeTeTe H_S H_S C_TrTrTrPi H_S C_TrTrTrPi C_TeTeTeTe H_S H_S C_TeTeTeTe H_S H_S H_S C_TeTeTeTe H_S H_S C_TrTrTrPi H_S C_TrTrTrPi C_TeTeTeTe H_S H_S H_S C_TeTeTeTe H_S H_S H_S C_TeTeTeTe H_S C_TeTeTeTe H_S O_Te2Te2TeTe C_TeTeTeTe H_S C_TeTeTeTe H_S C_TeTeTeTe H_S O_Te2Te2TeTe O_Te2Te2TeTe H_S O_Te2Te2TeTe H_S C_TeTeTeTe H_S H_S H_S C_TeTeTeTe H_S C_TeTeTeTe H_S O_Te2Te2TeTe C_TeTeTeTe H_S C_TeTeTeTe H_S C_TeTeTeTe H_S N_TrTrTrPi2 H_S O_Te2Te2TeTe H_S C_TeTeTeTe H_S H_S O_Te2Te2TeTe H_S C_TrTrTrPi O_Tr2Tr2TrPi C_TeTeTeTe H_S H_S H_S
M  BCL BND NonConjugatedSingleBond NonConjugatedSingleBondInRing NonConjugatedSingleBondInRing NonConjugatedSingleBond NonConjugatedSingleBondInRing NonConjugatedSingleBond NonConjugatedSingleBond NonConjugatedSingleBondInRing NonConjugatedSingleBond NonConjugatedSingleBond NonConjugatedSingleBond NonConjugatedSingleBondInRing NonConjugatedSingleBond NonConjugatedSingleBond NonConjugatedSingleBond NonConjugatedSingleBond NonConjugatedSingleBond NonConjugatedSingleBond NonConjugatedSingleBond NonConjugatedSingleBond NonConjugatedSingleBond NonConjugatedSingleBond NonConjugatedSingleBond NonConjugatedSingleBond NonConjugatedSingleBondInRing NonConjugatedSingleBondInRing NonConjugatedSingleBondInRing NonConjugatedSingleBond NonConjugatedSingleBond NonConjugatedSingleBondInRing NonConjugatedSingleBond NonConjugatedSingleBond NonConjugatedSingleBond NonConjugatedSingleBondInRing NonConjugatedSingleBond NonConjugatedSingleBond NonConjugatedSingleBond NonConjugatedSingleBond NonConjugatedSingleBond NonConjugatedSingleBond NonConjugatedSingleBond NonConjugatedSingleBond NonConjugatedSingleBond NonConjugatedSingleBond NonConjugatedSingleBond NonConjugatedSingleBond ConjugatedSingleBond NonConjugatedSingleBond ConjugatedSingleBond ConjugatedSingleBond ConjugatedDoubleBond ConjugatedSingleBond ConjugatedSingleBond ConjugatedSingleBond ConjugatedDoubleBond NonConjugatedSingleBond NonConjugatedSingleBond NonConjugatedSingleBond NonConjugatedSingleBond NonConjugatedSingleBond ConjugatedDoubleBond NonConjugatedSingleBond NonConjugatedSingleBond NonConjugatedSingleBond NonConjugatedSingleBond NonConjugatedSingleBond NonConjugatedSingleBond NonConjugatedSingleBond NonConjugatedSingleBond NonConjugatedSingleBond NonConjugatedSingleBond NonConjugatedSingleBond NonConjugatedSingleBond ConjugatedDoubleBond NonConjugatedSingleBond NonConjugatedSingleBond NonConjugatedSingleBond NonConjugatedSingleBond NonConjugatedSingleBond NonConjugatedSingleBond NonConjugatedSingleBond NonConjugatedSingleBond NonConjugatedSingleBond NonConjugatedSingleBond NonConjugatedSingleBond NonConjugatedSingleBond ConjugatedDoubleBond NonConjugatedSingleBond NonConjugatedSingleBond NonConjugatedSingleBond NonConjugatedSingleBond NonConjugatedSingleBond NonConjugatedSingleBond NonConjugatedSingleBond NonConjugatedSingleBond NonConjugatedSingleBond NonConjugatedSingleBond NonConjugatedSingleBond NonConjugatedSingleBond ConjugatedDoubleBond NonConjugatedSingleBond NonConjugatedSingleBond NonConjugatedSingleBond NonConjugatedSingleBond NonConjugatedSingleBond NonConjugatedSingleBond NonConjugatedSingleBond NonConjugatedSingleBond NonConjugatedSingleBond NonConjugatedSingleBond NonConjugatedSingleBond NonConjugatedSingleBond ConjugatedDoubleBond NonConjugatedSingleBond NonConjugatedSingleBond NonConjugatedSingleBond NonConjugatedSingleBond NonConjugatedSingleBond NonConjugatedSingleBond NonConjugatedSingleBond NonConjugatedSingleBond NonConjugatedSingleBond NonConjugatedSingleBond NonConjugatedSingleBond NonConjugatedSingleBond ConjugatedDoubleBond NonConjugatedSingleBond NonConjugatedSingleBond NonConjugatedSingleBond NonConjugatedSingleBond NonConjugatedSingleBond NonConjugatedSingleBond NonConjugatedSingleBond NonConjugatedSingleBond NonConjugatedSingleBond NonConjugatedSingleBond NonConjugatedSingleBond NonConjugatedSingleBond ConjugatedDoubleBond NonConjugatedSingleBond NonConjugatedSingleBond NonConjugatedSingleBond NonConjugatedSingleBond NonConjugatedSingleBond NonConjugatedSingleBond NonConjugatedSingleBond NonConjugatedSingleBond NonConjugatedSingleBond NonConjugatedSingleBond NonConjugatedSingleBond NonConjugatedSingleBond ConjugatedDoubleBond NonConjugatedSingleBond NonConjugatedSingleBond NonConjugatedSingleBond NonConjugatedSingleBond NonConjugatedSingleBond NonConjugatedSingleBond NonConjugatedSingleBond NonConjugatedSingleBond NonConjugatedSingleBond NonConjugatedSingleBond NonConjugatedSingleBond NonConjugatedSingleBond ConjugatedDoubleBond NonConjugatedSingleBond NonConjugatedSingleBond NonConjugatedSingleBond NonConjugatedSingleBond NonConjugatedSingleBond NonConjugatedSingleBond NonConjugatedSingleBond NonConjugatedSingleBond NonConjugatedSingleBond NonConjugatedSingleBond NonConjugatedSingleBond NonConjugatedSingleBond ConjugatedDoubleBond NonConjugatedSingleBond NonConjugatedSingleBond NonConjugatedSingleBond NonConjugatedSingleBond NonConjugatedSingleBond NonConjugatedSingleBond NonConjugatedSingleBond NonConjugatedSingleBond NonConjugatedSingleBond NonConjugatedSingleBondInRing NonConjugatedSingleBondInRing NonConjugatedSingleBond NonConjugatedSingleBond NonConjugatedSingleBondInRing NonConjugatedSingleBond NonConjugatedSingleBondInRing NonConjugatedSingleBond NonConjugatedSingleBondInRing NonConjugatedSingleBond NonConjugatedSingleBond NonConjugatedSingleBondInRing NonConjugatedSingleBond NonConjugatedSingleBond NonConjugatedSingleBond NonConjugatedSingleBond NonConjugatedSingleBond NonConjugatedSingleBond NonConjugatedSingleBond NonConjugatedSingleBond NonConjugatedSingleBond NonConjugatedSingleBondInRing NonConjugatedSingleBondInRing NonConjugatedSingleBond NonConjugatedSingleBondInRing NonConjugatedSingleBond NonConjugatedSingleBondInRing NonConjugatedSingleBond NonConjugatedSingleBondInRing NonConjugatedSingleBond NonConjugatedSingleBondInRing NonConjugatedSingleBond NonConjugatedSingleBond NonConjugatedSingleBond NonConjugatedSingleBond AmideSingleBond NonConjugatedSingleBond NonConjugatedSingleBond NonConjugatedSingleBond NonConjugatedSingleBond NonConjugatedSingleBond ConjugatedDoubleBond NonConjugatedSingleBond NonConjugatedSingleBond NonConjugatedSingleBond NonConjugatedSingleBond
M  BCL CHI   1   R   4   R   8   R  17   S  20   R  22   S  25   R  29   S  38   S  42   R  46   R  50   S 185   R 187   S 190   S 192   R 194   R 205   R 207   S 210   R 212   S 214   S
M  BCL DBI - - E E E E E E E E Z - -
M  END
> <ConfClashScore>
0.00152264 

> <ConfOneFourInteractionScore>
-0.969913 

> <ConfScore>
0.222752 

> <ConfScorePBest>
0.0145835 

> <ConfTolerance>
0.25 

$$$$
L05.****
  PyMOL2.5          3D                             0

230233  0  0  0  0  0  0  0  0999 V2000
   11.9445   -3.4269   -2.5575 C   0  0  0  1  0  0  0  0  0  0  0  0
   11.8262   -4.4747   -2.7392 H   0  0  0  1  0  0  0  0  0  0  0  0
   11.6733   -2.6782   -3.7607 O   0  0  0  1  0  0  0  0  0  0  0  0
   10.9467   -2.9610   -1.5339 C   0  0  0  1  0  0  0  0  0  0  0  0
   11.4272   -2.3680   -0.7840 H   0  0  0  1  0  0  0  0  0  0  0  0
   10.3017   -4.0770   -0.9185 O   0  0  0  1  0  0  0  0  0  0  0  0
   10.9605   -4.6410   -0.5070 H   0  0  0  1  0  0  0  0  0  0  0  0
    9.9594   -2.1407   -2.2974 C   0  0  0  1  0  0  0  0  0  0  0  0
    9.1277   -2.7368   -2.6104 H   0  0  0  1  0  0  0  0  0  0  0  0
    9.4908   -1.0438   -1.5116 O   0  0  0  1  0  0  0  0  0  0  0  0
    9.2088   -1.3632   -0.6514 H   0  0  0  1  0  0  0  0  0  0  0  0
    9.4381   -2.7471   -5.3158 C   0  0  0  1  0  0  0  0  0  0  0  0
   10.1386   -2.9311   -6.1034 H   0  0  0  1  0  0  0  0  0  0  0  0
    9.4920   -3.5384   -4.5976 H   0  0  0  1  0  0  0  0  0  0  0  0
    8.1282   -2.7203   -5.8674 O   0  0  0  1  0  0  0  0  0  0  0  0
    7.5437   -2.2338   -5.2816 H   0  0  0  1  0  0  0  0  0  0  0  0
    9.8070   -1.4382   -4.6295 C   0  0  0  1  0  0  0  0  0  0  0  0
    8.9116   -0.9652   -4.2841 H   0  0  0  1  0  0  0  0  0  0  0  0
   10.4742   -0.6019   -5.5676 O   0  0  0  1  0  0  0  0  0  0  0  0
   10.7276   -1.6679   -3.4505 C   0  0  0  1  0  0  0  0  0  0  0  0
   11.2311   -0.7555   -3.2075 H   0  0  0  1  0  0  0  0  0  0  0  0
   10.2224    0.7882   -5.5369 C   0  0  0  1  0  0  0  0  0  0  0  0
    9.2320    0.9798   -5.8935 H   0  0  0  1  0  0  0  0  0  0  0  0
   10.3900    1.2947   -4.2406 O   0  0  0  1  0  0  0  0  0  0  0  0
   11.2595    1.5475   -6.3770 C   0  0  0  1  0  0  0  0  0  0  0  0
   10.9503    1.6193   -7.3989 H   0  0  0  1  0  0  0  0  0  0  0  0
   12.5390    0.9162   -6.3094 O   0  0  0  1  0  0  0  0  0  0  0  0
   12.4244   -0.0257   -6.1632 H   0  0  0  1  0  0  0  0  0  0  0  0
   11.2876    2.9033   -5.7217 C   0  0  0  1  0  0  0  0  0  0  0  0
   10.5123    3.5320   -6.1071 H   0  0  0  1  0  0  0  0  0  0  0  0
   12.5503    3.5357   -5.9097 O   0  0  0  1  0  0  0  0  0  0  0  0
   13.0212    3.5658   -5.0737 H   0  0  0  1  0  0  0  0  0  0  0  0
   10.4730    5.0682   -4.0446 C   0  0  0  1  0  0  0  0  0  0  0  0
   10.0273    5.7529   -3.3536 H   0  0  0  1  0  0  0  0  0  0  0  0
   11.5325    5.2170   -4.0618 H   0  0  0  1  0  0  0  0  0  0  0  0
    9.9428    5.2959   -5.3437 O   0  0  0  1  0  0  0  0  0  0  0  0
   10.4590    5.9736   -5.7863 H   0  0  0  1  0  0  0  0  0  0  0  0
   10.1673    3.6309   -3.6068 C   0  0  0  1  0  0  0  0  0  0  0  0
    9.1636    3.4204   -3.9120 H   0  0  0  1  0  0  0  0  0  0  0  0
   10.2120    3.6130   -2.1825 O   0  0  0  1  0  0  0  0  0  0  0  0
    9.9024    4.4553   -1.8415 H   0  0  0  1  0  0  0  0  0  0  0  0
   11.0494    2.5809   -4.2435 C   0  0  0  1  0  0  0  0  0  0  0  0
   11.9789    2.5277   -3.7161 H   0  0  0  1  0  0  0  0  0  0  0  0
   13.2691   -3.1697   -2.1060 O   0  0  0  1  0  0  0  0  0  0  0  0
   22.3831  -10.2694   -6.1859 O   0  0  0  1  0  0  0  0  0  0  0  0
   22.3804   -9.1623   -7.2993 P   0  0  0  1  0  0  0  0  0  0  0  0
   21.8215   -7.9006   -6.4755 O   0  0  0  1  0  0  0  0  0  0  0  0
   21.5267   -9.5763   -8.4716 O   0  0  0  0  0  0  0  0  0  0  0  0
   23.8002   -8.9144   -7.5740 O   0  0  0  1  0  0  0  0  0  0  0  0
   20.3234   -7.6704   -5.9058 P   0  0  0  1  0  0  0  0  0  0  0  0
   20.5273   -6.9411   -4.5303 O   0  0  0  1  0  0  0  0  0  0  0  0
   19.7752   -9.0460   -5.7205 O   0  0  0  0  0  0  0  0  0  0  0  0
   19.5546   -6.7206   -6.7292 O   0  0  0  1  0  0  0  0  0  0  0  0
   22.7982  -11.6218   -6.4250 C   0  0  0  1  0  0  0  0  0  0  0  0
   22.1294  -12.0867   -7.1190 H   0  0  0  1  0  0  0  0  0  0  0  0
   22.7945  -12.1680   -5.5049 H   0  0  0  1  0  0  0  0  0  0  0  0
   24.1856  -11.6025   -6.9957 C   0  0  0  1  0  0  0  0  0  0  0  0
   24.6348  -10.6693   -7.0910 H   0  0  0  1  0  0  0  0  0  0  0  0
   24.9028  -12.6482   -7.3926 C   0  0  0  1  0  0  0  0  0  0  0  0
   26.3627  -12.5756   -7.7344 C   0  0  0  1  0  0  0  0  0  0  0  0
   26.6723  -11.5518   -7.7634 H   0  0  0  1  0  0  0  0  0  0  0  0
   26.5275  -13.0251   -8.6913 H   0  0  0  1  0  0  0  0  0  0  0  0
   26.9290  -13.0982   -6.9919 H   0  0  0  1  0  0  0  0  0  0  0  0
   24.2912  -14.0139   -7.5322 C   0  0  0  1  0  0  0  0  0  0  0  0
   23.9635  -14.1500   -8.5416 H   0  0  0  1  0  0  0  0  0  0  0  0
   23.4535  -14.0923   -6.8710 H   0  0  0  1  0  0  0  0  0  0  0  0
   25.3021  -15.0950   -7.1863 C   0  0  0  1  0  0  0  0  0  0  0  0
   25.4404  -15.0764   -6.1254 H   0  0  0  1  0  0  0  0  0  0  0  0
   26.2215  -14.8406   -7.6709 H   0  0  0  1  0  0  0  0  0  0  0  0
   24.9666  -16.5102   -7.5717 C   0  0  0  1  0  0  0  0  0  0  0  0
   24.0294  -16.6657   -7.9948 H   0  0  0  1  0  0  0  0  0  0  0  0
   25.7379  -17.5828   -7.4301 C   0  0  0  1  0  0  0  0  0  0  0  0
   25.4789  -18.8917   -8.1179 C   0  0  0  1  0  0  0  0  0  0  0  0
   26.3735  -19.2241   -8.6018 H   0  0  0  1  0  0  0  0  0  0  0  0
   24.7057  -18.7645   -8.8466 H   0  0  0  1  0  0  0  0  0  0  0  0
   25.1728  -19.6194   -7.3957 H   0  0  0  1  0  0  0  0  0  0  0  0
   26.9579  -17.5649   -6.5484 C   0  0  0  1  0  0  0  0  0  0  0  0
   27.6550  -16.8572   -6.9459 H   0  0  0  1  0  0  0  0  0  0  0  0
   27.3969  -18.5407   -6.5546 H   0  0  0  1  0  0  0  0  0  0  0  0
   26.6477  -17.1831   -5.1102 C   0  0  0  1  0  0  0  0  0  0  0  0
   25.9403  -17.8831   -4.7171 H   0  0  0  1  0  0  0  0  0  0  0  0
   26.2211  -16.2018   -5.1028 H   0  0  0  1  0  0  0  0  0  0  0  0
   27.8532  -17.1831   -4.2328 C   0  0  0  1  0  0  0  0  0  0  0  0
   28.3097  -18.1091   -4.1072 H   0  0  0  1  0  0  0  0  0  0  0  0
   28.4308  -16.1753   -3.5876 C   0  0  0  1  0  0  0  0  0  0  0  0
   27.9750  -14.7454   -3.6940 C   0  0  0  1  0  0  0  0  0  0  0  0
   27.1677  -14.6965   -4.3946 H   0  0  0  1  0  0  0  0  0  0  0  0
   28.7922  -14.1529   -4.0489 H   0  0  0  1  0  0  0  0  0  0  0  0
   29.6102  -16.3939   -2.6823 C   0  0  0  1  0  0  0  0  0  0  0  0
   30.2469  -15.5345   -2.7113 H   0  0  0  1  0  0  0  0  0  0  0  0
   30.1565  -17.2536   -3.0100 H   0  0  0  1  0  0  0  0  0  0  0  0
   29.2668  -16.5494   -1.6809 H   0  0  0  1  0  0  0  0  0  0  0  0
   27.5009  -14.1714   -2.3688 C   0  0  0  1  0  0  0  0  0  0  0  0
   28.2818  -14.3284   -1.6543 H   0  0  0  1  0  0  0  0  0  0  0  0
   26.6315  -14.7213   -2.0744 H   0  0  0  1  0  0  0  0  0  0  0  0
   27.1435  -12.7103   -2.3313 C   0  0  0  1  0  0  0  0  0  0  0  0
   27.8918  -12.0428   -2.6073 H   0  0  0  1  0  0  0  0  0  0  0  0
   25.9701  -12.1779   -1.9823 C   0  0  0  1  0  0  0  0  0  0  0  0
   24.8138  -13.0442   -1.5646 C   0  0  0  1  0  0  0  0  0  0  0  0
   24.9095  -13.9857   -2.0640 H   0  0  0  1  0  0  0  0  0  0  0  0
   23.9109  -12.5635   -1.8785 H   0  0  0  1  0  0  0  0  0  0  0  0
   25.8067  -10.6729   -1.9038 C   0  0  0  1  0  0  0  0  0  0  0  0
   25.2823  -10.3250   -2.7691 H   0  0  0  1  0  0  0  0  0  0  0  0
   26.7712  -10.2114   -1.8620 H   0  0  0  1  0  0  0  0  0  0  0  0
   25.2514  -10.4200   -1.0248 H   0  0  0  1  0  0  0  0  0  0  0  0
   24.7072  -13.3137   -0.0725 C   0  0  0  1  0  0  0  0  0  0  0  0
   24.5198  -12.3869    0.4284 H   0  0  0  1  0  0  0  0  0  0  0  0
   25.6362  -13.7218    0.2671 H   0  0  0  1  0  0  0  0  0  0  0  0
   23.6047  -14.2778    0.2753 C   0  0  0  1  0  0  0  0  0  0  0  0
   23.7987  -15.2929    0.1593 H   0  0  0  1  0  0  0  0  0  0  0  0
   22.4030  -13.9288    0.7191 C   0  0  0  1  0  0  0  0  0  0  0  0
   22.0295  -12.4769    0.9190 C   0  0  0  1  0  0  0  0  0  0  0  0
   21.0401  -12.3247    0.5412 H   0  0  0  1  0  0  0  0  0  0  0  0
   22.7187  -11.8693    0.3706 H   0  0  0  1  0  0  0  0  0  0  0  0
   21.3186  -14.9089    1.0599 C   0  0  0  1  0  0  0  0  0  0  0  0
   21.7578  -15.8319    1.3763 H   0  0  0  1  0  0  0  0  0  0  0  0
   20.7099  -15.0813    0.1969 H   0  0  0  1  0  0  0  0  0  0  0  0
   20.7149  -14.5123    1.8493 H   0  0  0  1  0  0  0  0  0  0  0  0
   22.0618  -12.0492    2.3772 C   0  0  0  1  0  0  0  0  0  0  0  0
   23.0724  -12.1005    2.7249 H   0  0  0  1  0  0  0  0  0  0  0  0
   21.4545  -12.7239    2.9436 H   0  0  0  1  0  0  0  0  0  0  0  0
   21.5515  -10.6494    2.5926 C   0  0  0  1  0  0  0  0  0  0  0  0
   21.1060  -10.1700    1.7843 H   0  0  0  1  0  0  0  0  0  0  0  0
   21.6277   -9.9814    3.7374 C   0  0  0  1  0  0  0  0  0  0  0  0
   21.9411  -10.6798    5.0302 C   0  0  0  1  0  0  0  0  0  0  0  0
   21.1395  -11.3559    5.2429 H   0  0  0  1  0  0  0  0  0  0  0  0
   21.9975   -9.9391    5.8003 H   0  0  0  1  0  0  0  0  0  0  0  0
   21.4153   -8.5008    3.8590 C   0  0  0  1  0  0  0  0  0  0  0  0
   21.9656   -8.1287    4.6978 H   0  0  0  1  0  0  0  0  0  0  0  0
   20.3736   -8.3005    3.9989 H   0  0  0  1  0  0  0  0  0  0  0  0
   21.7552   -8.0175    2.9669 H   0  0  0  1  0  0  0  0  0  0  0  0
   23.2386  -11.4714    5.0453 C   0  0  0  1  0  0  0  0  0  0  0  0
   24.0328  -10.8297    4.7252 H   0  0  0  1  0  0  0  0  0  0  0  0
   23.1453  -12.2913    4.3641 H   0  0  0  1  0  0  0  0  0  0  0  0
   23.5793  -12.0124    6.3975 C   0  0  0  1  0  0  0  0  0  0  0  0
   22.8951  -12.6552    6.8450 H   0  0  0  1  0  0  0  0  0  0  0  0
   24.6909  -11.7330    7.0696 C   0  0  0  1  0  0  0  0  0  0  0  0
   25.8118  -10.9015    6.5167 C   0  0  0  1  0  0  0  0  0  0  0  0
   25.7536  -10.9186    5.4485 H   0  0  0  1  0  0  0  0  0  0  0  0
   26.7406  -11.3301    6.8307 H   0  0  0  1  0  0  0  0  0  0  0  0
   24.9139  -12.2405    8.4665 C   0  0  0  1  0  0  0  0  0  0  0  0
   25.9184  -12.0281    8.7675 H   0  0  0  1  0  0  0  0  0  0  0  0
   24.7501  -13.2976    8.4919 H   0  0  0  1  0  0  0  0  0  0  0  0
   24.2318  -11.7573    9.1344 H   0  0  0  1  0  0  0  0  0  0  0  0
   25.7650   -9.4549    6.9808 C   0  0  0  1  0  0  0  0  0  0  0  0
   26.6883   -8.9759    6.7299 H   0  0  0  1  0  0  0  0  0  0  0  0
   25.6269   -9.4310    8.0416 H   0  0  0  1  0  0  0  0  0  0  0  0
   24.6401   -8.7242    6.3240 C   0  0  0  1  0  0  0  0  0  0  0  0
   24.0730   -9.2268    5.6117 H   0  0  0  1  0  0  0  0  0  0  0  0
   24.3283   -7.4645    6.6048 C   0  0  0  1  0  0  0  0  0  0  0  0
   25.1031   -6.6761    7.6224 C   0  0  0  1  0  0  0  0  0  0  0  0
   25.4441   -7.3548    8.3761 H   0  0  0  1  0  0  0  0  0  0  0  0
   24.4394   -5.9601    8.0604 H   0  0  0  1  0  0  0  0  0  0  0  0
   23.2019   -6.7156    5.9550 C   0  0  0  1  0  0  0  0  0  0  0  0
   22.2836   -7.2404    6.1169 H   0  0  0  1  0  0  0  0  0  0  0  0
   23.3863   -6.6359    4.9040 H   0  0  0  1  0  0  0  0  0  0  0  0
   23.1326   -5.7363    6.3807 H   0  0  0  1  0  0  0  0  0  0  0  0
   26.3115   -5.9274    7.0843 C   0  0  0  1  0  0  0  0  0  0  0  0
   26.0091   -5.3236    6.2543 H   0  0  0  1  0  0  0  0  0  0  0  0
   27.0474   -6.6343    6.7623 H   0  0  0  1  0  0  0  0  0  0  0  0
   26.9042   -5.0487    8.1397 C   0  0  0  1  0  0  0  0  0  0  0  0
   26.2853   -4.3357    8.5757 H   0  0  0  1  0  0  0  0  0  0  0  0
   28.1671   -5.1114    8.5632 C   0  0  0  1  0  0  0  0  0  0  0  0
   28.6450   -4.1721    9.6322 C   0  0  0  1  0  0  0  0  0  0  0  0
   28.9667   -4.7493   10.4738 H   0  0  0  1  0  0  0  0  0  0  0  0
   27.8297   -3.5424    9.9216 H   0  0  0  1  0  0  0  0  0  0  0  0
   29.1479   -6.1661    8.0956 C   0  0  0  1  0  0  0  0  0  0  0  0
   28.8613   -6.3979    7.0911 H   0  0  0  1  0  0  0  0  0  0  0  0
   29.0827   -7.0374    8.7134 H   0  0  0  1  0  0  0  0  0  0  0  0
   30.1472   -5.7846    8.1206 H   0  0  0  1  0  0  0  0  0  0  0  0
   29.7988   -3.2923    9.1793 C   0  0  0  1  0  0  0  0  0  0  0  0
   30.5225   -3.9179    8.6999 H   0  0  0  1  0  0  0  0  0  0  0  0
   30.2335   -2.8447   10.0486 H   0  0  0  1  0  0  0  0  0  0  0  0
   29.4346   -2.1961    8.2291 C   0  0  0  1  0  0  0  0  0  0  0  0
   28.7682   -1.4711    8.5634 H   0  0  0  1  0  0  0  0  0  0  0  0
   29.8987   -2.0797    6.9906 C   0  0  0  1  0  0  0  0  0  0  0  0
   30.8495   -3.0888    6.4152 C   0  0  0  1  0  0  0  0  0  0  0  0
   31.7029   -3.1804    7.0542 H   0  0  0  1  0  0  0  0  0  0  0  0
   31.1643   -2.7685    5.4440 H   0  0  0  1  0  0  0  0  0  0  0  0
   30.3592   -4.0366    6.3373 H   0  0  0  1  0  0  0  0  0  0  0  0
   29.5310   -0.9534    6.0555 C   0  0  0  1  0  0  0  0  0  0  0  0
   29.1146   -1.3935    5.1735 H   0  0  0  1  0  0  0  0  0  0  0  0
   30.4033   -0.3868    5.8046 H   0  0  0  1  0  0  0  0  0  0  0  0
   28.8104   -0.3130    6.5198 H   0  0  0  1  0  0  0  0  0  0  0  0
   16.0665   -5.1404   -1.7615 C   0  0  0  1  0  0  0  0  0  0  0  0
   16.2891   -5.7002   -0.8771 H   0  0  0  1  0  0  0  0  0  0  0  0
   14.7975   -5.6890   -2.3860 C   0  0  0  1  0  0  0  0  0  0  0  0
   14.9975   -6.6696   -2.7646 H   0  0  0  1  0  0  0  0  0  0  0  0
   15.9252   -3.7761   -1.4186 O   0  0  0  1  0  0  0  0  0  0  0  0
   14.2885   -4.8213   -3.5247 C   0  0  0  1  0  0  0  0  0  0  0  0
   13.2971   -5.1281   -3.7851 H   0  0  0  1  0  0  0  0  0  0  0  0
   15.6241   -2.9461   -2.5552 C   0  0  0  1  0  0  0  0  0  0  0  0
   16.3757   -3.0757   -3.3057 H   0  0  0  1  0  0  0  0  0  0  0  0
   14.2669   -3.3598   -3.1107 C   0  0  0  1  0  0  0  0  0  0  0  0
   14.0355   -2.7553   -3.9628 H   0  0  0  1  0  0  0  0  0  0  0  0
   17.1360   -5.2757   -2.6914 O   0  0  0  1  0  0  0  0  0  0  0  0
   13.7864   -5.7635   -1.3792 O   0  0  0  1  0  0  0  0  0  0  0  0
   14.1813   -6.0374   -0.5482 H   0  0  0  1  0  0  0  0  0  0  0  0
   15.1453   -4.9765   -4.6510 O   0  0  0  1  0  0  0  0  0  0  0  0
   15.5808   -5.8309   -4.6070 H   0  0  0  1  0  0  0  0  0  0  0  0
   15.5800   -1.4881   -2.1277 C   0  0  0  1  0  0  0  0  0  0  0  0
   15.8470   -1.4106   -1.0945 H   0  0  0  1  0  0  0  0  0  0  0  0
   14.5913   -1.1047   -2.2701 H   0  0  0  1  0  0  0  0  0  0  0  0
   16.2708   -0.9227   -2.7177 H   0  0  0  1  0  0  0  0  0  0  0  0
   19.6242   -5.9471   -4.0283 C   0  0  0  1  0  0  0  0  0  0  0  0
   18.7080   -5.9858   -4.5798 H   0  0  0  1  0  0  0  0  0  0  0  0
   19.3225   -6.2660   -2.5839 C   0  0  0  1  0  0  0  0  0  0  0  0
   20.2306   -6.2821   -2.0182 H   0  0  0  1  0  0  0  0  0  0  0  0
   20.2145   -4.6624   -4.2284 O   0  0  0  1  0  0  0  0  0  0  0  0
   18.4045   -5.1888   -2.0510 C   0  0  0  1  0  0  0  0  0  0  0  0
   18.2803   -5.3081   -0.9949 H   0  0  0  1  0  0  0  0  0  0  0  0
   19.5411   -3.5410   -3.7346 C   0  0  0  1  0  0  0  0  0  0  0  0
   20.2088   -2.7050   -3.7195 H   0  0  0  1  0  0  0  0  0  0  0  0
   19.0536   -3.8082   -2.3525 C   0  0  0  1  0  0  0  0  0  0  0  0
   18.3243   -3.0593   -2.1242 H   0  0  0  1  0  0  0  0  0  0  0  0
   18.6689   -7.5629   -2.4905 N   0  0  0  1  0  0  0  0  0  0  0  0
   18.7760   -8.2007   -3.2268 H   0  0  0  1  0  0  0  0  0  0  0  0
   20.1736   -3.6671   -1.4747 O   0  0  0  1  0  0  0  0  0  0  0  0
   20.9550   -3.8593   -1.9983 H   0  0  0  1  0  0  0  0  0  0  0  0
   18.3693   -3.2315   -4.6251 C   0  0  0  1  0  0  0  0  0  0  0  0
   18.7357   -2.9625   -5.5937 H   0  0  0  1  0  0  0  0  0  0  0  0
   17.8281   -2.4088   -4.2067 H   0  0  0  1  0  0  0  0  0  0  0  0
   17.4853   -4.3363   -4.7625 O   0  0  0  1  0  0  0  0  0  0  0  0
   17.4222   -4.5560   -5.6949 H   0  0  0  1  0  0  0  0  0  0  0  0
   17.9280   -7.9144   -1.4357 C   0  0  0  1  0  0  0  0  0  0  0  0
   17.7492   -7.1771   -0.4671 O   0  0  0  1  0  0  0  0  0  0  0  0
   17.3077   -9.2966   -1.4976 C   0  0  0  1  0  0  0  0  0  0  0  0
   18.0251   -9.8870   -2.0282 H   0  0  0  1  0  0  0  0  0  0  0  0
   16.3761   -9.2702   -2.0234 H   0  0  0  1  0  0  0  0  0  0  0  0
   17.1513   -9.6856   -0.5132 H   0  0  0  1  0  0  0  0  0  0  0  0
  1  2  1  0  0  0  0
  1  3  1  0  0  0  0
  1  4  1  0  0  0  0
  1 44  1  0  0  0  0
  3 20  1  0  0  0  0
  4  5  1  0  0  0  0
  4  6  1  0  0  0  0
  4  8  1  0  0  0  0
  6  7  1  0  0  0  0
  8  9  1  0  0  0  0
  8 10  1  0  0  0  0
  8 20  1  0  0  0  0
 10 11  1  0  0  0  0
 12 13  1  0  0  0  0
 12 14  1  0  0  0  0
 12 15  1  0  0  0  0
 12 17  1  0  0  0  0
 15 16  1  0  0  0  0
 17 18  1  0  0  0  0
 17 19  1  0  0  0  0
 17 20  1  0  0  0  0
 19 22  1  0  0  0  0
 20 21  1  0  0  0  0
 22 23  1  0  0  0  0
 22 24  1  0  0  0  0
 22 25  1  0  0  0  0
 24 42  1  0  0  0  0
 25 26  1  0  0  0  0
 25 27  1  0  0  0  0
 25 29  1  0  0  0  0
 27 28  1  0  0  0  0
 29 30  1  0  0  0  0
 29 31  1  0  0  0  0
 29 42  1  0  0  0  0
 31 32  1  0  0  0  0
 33 34  1  0  0  0  0
 33 35  1  0  0  0  0
 33 36  1  0  0  0  0
 33 38  1  0  0  0  0
 36 37  1  0  0  0  0
 38 39  1  0  0  0  0
 38 40  1  0  0  0  0
 38 42  1  0  0  0  0
 40 41  1  0  0  0  0
 42 43  1  0  0  0  0
 44194  1  0  0  0  0
 45 46  1  0  0  0  0
 45 54  1  0  0  0  0
 46 47  1  0  0  0  0
 46 48  1  0  0  0  0
 46 49  2  0  0  0  0
 47 50  1  0  0  0  0
 50 51  1  0  0  0  0
 50 52  1  0  0  0  0
 50 53  2  0  0  0  0
 51205  1  0  0  0  0
 54 55  1  0  0  0  0
 54 56  1  0  0  0  0
 54 57  1  0  0  0  0
 57 58  1  0  0  0  0
 57 59  2  0  0  0  0
 59 60  1  0  0  0  0
 59 64  1  0  0  0  0
 60 61  1  0  0  0  0
 60 62  1  0  0  0  0
 60 63  1  0  0  0  0
 64 65  1  0  0  0  0
 64 66  1  0  0  0  0
 64 67  1  0  0  0  0
 67 68  1  0  0  0  0
 67 69  1  0  0  0  0
 67 70  1  0  0  0  0
 70 71  1  0  0  0  0
 70 72  2  0  0  0  0
 72 73  1  0  0  0  0
 72 77  1  0  0  0  0
 73 74  1  0  0  0  0
 73 75  1  0  0  0  0
 73 76  1  0  0  0  0
 77 78  1  0  0  0  0
 77 79  1  0  0  0  0
 77 80  1  0  0  0  0
 80 81  1  0  0  0  0
 80 82  1  0  0  0  0
 80 83  1  0  0  0  0
 83 84  1  0  0  0  0
 83 85  2  0  0  0  0
 85 86  1  0  0  0  0
 85 89  1  0  0  0  0
 86 87  1  0  0  0  0
 86 88  1  0  0  0  0
 86 93  1  0  0  0  0
 89 90  1  0  0  0  0
 89 91  1  0  0  0  0
 89 92  1  0  0  0  0
 93 94  1  0  0  0  0
 93 95  1  0  0  0  0
 93 96  1  0  0  0  0
 96 97  1  0  0  0  0
 96 98  2  0  0  0  0
 98 99  1  0  0  0  0
 98102  1  0  0  0  0
 99100  1  0  0  0  0
 99101  1  0  0  0  0
 99106  1  0  0  0  0
102103  1  0  0  0  0
102104  1  0  0  0  0
102105  1  0  0  0  0
106107  1  0  0  0  0
106108  1  0  0  0  0
106109  1  0  0  0  0
109110  1  0  0  0  0
109111  2  0  0  0  0
111112  1  0  0  0  0
111115  1  0  0  0  0
112113  1  0  0  0  0
112114  1  0  0  0  0
112119  1  0  0  0  0
115116  1  0  0  0  0
115117  1  0  0  0  0
115118  1  0  0  0  0
119120  1  0  0  0  0
119121  1  0  0  0  0
119122  1  0  0  0  0
122123  1  0  0  0  0
122124  2  0  0  0  0
124125  1  0  0  0  0
124128  1  0  0  0  0
125126  1  0  0  0  0
125127  1  0  0  0  0
125132  1  0  0  0  0
128129  1  0  0  0  0
128130  1  0  0  0  0
128131  1  0  0  0  0
132133  1  0  0  0  0
132134  1  0  0  0  0
132135  1  0  0  0  0
135136  1  0  0  0  0
135137  2  0  0  0  0
137138  1  0  0  0  0
137141  1  0  0  0  0
138139  1  0  0  0  0
138140  1  0  0  0  0
138145  1  0  0  0  0
141142  1  0  0  0  0
141143  1  0  0  0  0
141144  1  0  0  0  0
145146  1  0  0  0  0
145147  1  0  0  0  0
145148  1  0  0  0  0
148149  1  0  0  0  0
148150  2  0  0  0  0
150151  1  0  0  0  0
150154  1  0  0  0  0
151152  1  0  0  0  0
151153  1  0  0  0  0
151158  1  0  0  0  0
154155  1  0  0  0  0
154156  1  0  0  0  0
154157  1  0  0  0  0
158159  1  0  0  0  0
158160  1  0  0  0  0
158161  1  0  0  0  0
161162  1  0  0  0  0
161163  2  0  0  0  0
163164  1  0  0  0  0
163167  1  0  0  0  0
164165  1  0  0  0  0
164166  1  0  0  0  0
164171  1  0  0  0  0
167168  1  0  0  0  0
167169  1  0  0  0  0
167170  1  0  0  0  0
171172  1  0  0  0  0
171173  1  0  0  0  0
171174  1  0  0  0  0
174175  1  0  0  0  0
174176  2  0  0  0  0
176177  1  0  0  0  0
176181  1  0  0  0  0
177178  1  0  0  0  0
177179  1  0  0  0  0
177180  1  0  0  0  0
181182  1  0  0  0  0
181183  1  0  0  0  0
181184  1  0  0  0  0
185186  1  0  0  0  0
185187  1  0  0  0  0
185189  1  0  0  0  0
185196  1  0  0  0  0
187188  1  0  0  0  0
187190  1  0  0  0  0
187197  1  0  0  0  0
189192  1  0  0  0  0
190191  1  0  0  0  0
190194  1  0  0  0  0
190199  1  0  0  0  0
192193  1  0  0  0  0
192194  1  0  0  0  0
192201  1  0  0  0  0
194195  1  0  0  0  0
196210  1  0  0  0  0
197198  1  0  0  0  0
199200  1  0  0  0  0
201202  1  0  0  0  0
201203  1  0  0  0  0
201204  1  0  0  0  0
205206  1  0  0  0  0
205207  1  0  0  0  0
205209  1  0  0  0  0
207208  1  0  0  0  0
207210  1  0  0  0  0
207216  1  0  0  0  0
209212  1  0  0  0  0
210211  1  0  0  0  0
210214  1  0  0  0  0
212213  1  0  0  0  0
212214  1  0  0  0  0
212220  1  0  0  0  0
214215  1  0  0  0  0
214218  1  0  0  0  0
216217  1  0  0  0  0
216225  1  0  0  0  0
218219  1  0  0  0  0
220221  1  0  0  0  0
220222  1  0  0  0  0
220223  1  0  0  0  0
223224  1  0  0  0  0
225226  2  0  0  0  0
225227  1  0  0  0  0
227228  1  0  0  0  0
227229  1  0  0  0  0
227230  1  0  0  0  0
M  BCL ATM C_TeTeTeTe H_S O_Te2Te2TeTe C_TeTeTeTe H_S O_Te2Te2TeTe H_S C_TeTeTeTe H_S O_Te2Te2TeTe H_S C_TeTeTeTe H_S H_S O_Te2Te2TeTe H_S C_TeTeTeTe H_S O_Te2Te2TeTe C_TeTeTeTe H_S C_TeTeTeTe H_S O_Te2Te2TeTe C_TeTeTeTe H_S O_Te2Te2TeTe H_S C_TeTeTeTe H_S O_Te2Te2TeTe H_S C_TeTeTeTe H_S H_S O_Te2Te2TeTe H_S C_TeTeTeTe H_S O_Te2Te2TeTe H_S C_TeTeTeTe H_S O_Te2Te2TeTe O_Tr2TrTrPi2 P_TeTeTeTePi O_Tr2TrTrPi2 O_Te2Te2TeTe O_Tr2Tr2TrPi P_TeTeTeTePi O_Tr2TrTrPi2 O_Te2Te2TeTe O_Tr2Tr2TrPi C_TeTeTeTe H_S H_S C_TrTrTrPi H_S C_TrTrTrPi C_TeTeTeTe H_S H_S H_S C_TeTeTeTe H_S H_S C_TeTeTeTe H_S H_S C_TrTrTrPi H_S C_TrTrTrPi C_TeTeTeTe H_S H_S H_S C_TeTeTeTe H_S H_S C_TeTeTeTe H_S H_S C_TrTrTrPi H_S C_TrTrTrPi C_TeTeTeTe H_S H_S C_TeTeTeTe H_S H_S H_S C_TeTeTeTe H_S H_S C_TrTrTrPi H_S C_TrTrTrPi C_TeTeTeTe H_S H_S C_TeTeTeTe H_S H_S H_S C_TeTeTeTe H_S H_S C_TrTrTrPi H_S C_TrTrTrPi C_TeTeTeTe H_S H_S C_TeTeTeTe H_S H_S H_S C_TeTeTeTe H_S H_S C_TrTrTrPi H_S C_TrTrTrPi C_TeTeTeTe H_S H_S C_TeTeTeTe H_S H_S H_S C_TeTeTeTe H_S H_S C_TrTrTrPi H_S C_TrTrTrPi C_TeTeTeTe H_S H_S C_TeTeTeTe H_S H_S H_S C_TeTeTeTe H_S H_S C_TrTrTrPi H_S C_TrTrTrPi C_TeTeTeTe H_S H_S C_TeTeTeTe H_S H_S H_S C_TeTeTeTe H_S H_S C_TrTrTrPi H_S C_TrTrTrPi C_TeTeTeTe H_S H_S C_TeTeTeTe H_S H_S H_S C_TeTeTeTe H_S H_S C_TrTrTrPi H_S C_TrTrTrPi C_TeTeTeTe H_S H_S H_S C_TeTeTeTe H_S H_S H_S C_TeTeTeTe H_S C_TeTeTeTe H_S O_Te2Te2TeTe C_TeTeTeTe H_S C_TeTeTeTe H_S C_TeTeTeTe H_S O_Te2Te2TeTe O_Te2Te2TeTe H_S O_Te2Te2TeTe H_S C_TeTeTeTe H_S H_S H_S C_TeTeTeTe H_S C_TeTeTeTe H_S O_Te2Te2TeTe C_TeTeTeTe H_S C_TeTeTeTe H_S C_TeTeTeTe H_S N_TrTrTrPi2 H_S O_Te2Te2TeTe H_S C_TeTeTeTe H_S H_S O_Te2Te2TeTe H_S C_TrTrTrPi O_Tr2Tr2TrPi C_TeTeTeTe H_S H_S H_S
M  BCL BND NonConjugatedSingleBond NonConjugatedSingleBondInRing NonConjugatedSingleBondInRing NonConjugatedSingleBond NonConjugatedSingleBondInRing NonConjugatedSingleBond NonConjugatedSingleBond NonConjugatedSingleBondInRing NonConjugatedSingleBond NonConjugatedSingleBond NonConjugatedSingleBond NonConjugatedSingleBondInRing NonConjugatedSingleBond NonConjugatedSingleBond NonConjugatedSingleBond NonConjugatedSingleBond NonConjugatedSingleBond NonConjugatedSingleBond NonConjugatedSingleBond NonConjugatedSingleBond NonConjugatedSingleBond NonConjugatedSingleBond NonConjugatedSingleBond NonConjugatedSingleBond NonConjugatedSingleBondInRing NonConjugatedSingleBondInRing NonConjugatedSingleBondInRing NonConjugatedSingleBond NonConjugatedSingleBond NonConjugatedSingleBondInRing NonConjugatedSingleBond NonConjugatedSingleBond NonConjugatedSingleBond NonConjugatedSingleBondInRing NonConjugatedSingleBond NonConjugatedSingleBond NonConjugatedSingleBond NonConjugatedSingleBond NonConjugatedSingleBond NonConjugatedSingleBond NonConjugatedSingleBond NonConjugatedSingleBond NonConjugatedSingleBond NonConjugatedSingleBond NonConjugatedSingleBond NonConjugatedSingleBond ConjugatedSingleBond NonConjugatedSingleBond ConjugatedSingleBond ConjugatedSingleBond ConjugatedDoubleBond ConjugatedSingleBond ConjugatedSingleBond ConjugatedSingleBond ConjugatedDoubleBond NonConjugatedSingleBond NonConjugatedSingleBond NonConjugatedSingleBond NonConjugatedSingleBond NonConjugatedSingleBond ConjugatedDoubleBond NonConjugatedSingleBond NonConjugatedSingleBond NonConjugatedSingleBond NonConjugatedSingleBond NonConjugatedSingleBond NonConjugatedSingleBond NonConjugatedSingleBond NonConjugatedSingleBond NonConjugatedSingleBond NonConjugatedSingleBond NonConjugatedSingleBond NonConjugatedSingleBond ConjugatedDoubleBond NonConjugatedSingleBond NonConjugatedSingleBond NonConjugatedSingleBond NonConjugatedSingleBond NonConjugatedSingleBond NonConjugatedSingleBond NonConjugatedSingleBond NonConjugatedSingleBond NonConjugatedSingleBond NonConjugatedSingleBond NonConjugatedSingleBond NonConjugatedSingleBond ConjugatedDoubleBond NonConjugatedSingleBond NonConjugatedSingleBond NonConjugatedSingleBond NonConjugatedSingleBond NonConjugatedSingleBond NonConjugatedSingleBond NonConjugatedSingleBond NonConjugatedSingleBond NonConjugatedSingleBond NonConjugatedSingleBond NonConjugatedSingleBond NonConjugatedSingleBond ConjugatedDoubleBond NonConjugatedSingleBond NonConjugatedSingleBond NonConjugatedSingleBond NonConjugatedSingleBond NonConjugatedSingleBond NonConjugatedSingleBond NonConjugatedSingleBond NonConjugatedSingleBond NonConjugatedSingleBond NonConjugatedSingleBond NonConjugatedSingleBond NonConjugatedSingleBond ConjugatedDoubleBond NonConjugatedSingleBond NonConjugatedSingleBond NonConjugatedSingleBond NonConjugatedSingleBond NonConjugatedSingleBond NonConjugatedSingleBond NonConjugatedSingleBond NonConjugatedSingleBond NonConjugatedSingleBond NonConjugatedSingleBond NonConjugatedSingleBond NonConjugatedSingleBond ConjugatedDoubleBond NonConjugatedSingleBond NonConjugatedSingleBond NonConjugatedSingleBond NonConjugatedSingleBond NonConjugatedSingleBond NonConjugatedSingleBond NonConjugatedSingleBond NonConjugatedSingleBond NonConjugatedSingleBond NonConjugatedSingleBond NonConjugatedSingleBond NonConjugatedSingleBond ConjugatedDoubleBond NonConjugatedSingleBond NonConjugatedSingleBond NonConjugatedSingleBond NonConjugatedSingleBond NonConjugatedSingleBond NonConjugatedSingleBond NonConjugatedSingleBond NonConjugatedSingleBond NonConjugatedSingleBond NonConjugatedSingleBond NonConjugatedSingleBond NonConjugatedSingleBond ConjugatedDoubleBond NonConjugatedSingleBond NonConjugatedSingleBond NonConjugatedSingleBond NonConjugatedSingleBond NonConjugatedSingleBond NonConjugatedSingleBond NonConjugatedSingleBond NonConjugatedSingleBond NonConjugatedSingleBond NonConjugatedSingleBond NonConjugatedSingleBond NonConjugatedSingleBond ConjugatedDoubleBond NonConjugatedSingleBond NonConjugatedSingleBond NonConjugatedSingleBond NonConjugatedSingleBond NonConjugatedSingleBond NonConjugatedSingleBond NonConjugatedSingleBond NonConjugatedSingleBond NonConjugatedSingleBond NonConjugatedSingleBond NonConjugatedSingleBond NonConjugatedSingleBond ConjugatedDoubleBond NonConjugatedSingleBond NonConjugatedSingleBond NonConjugatedSingleBond NonConjugatedSingleBond NonConjugatedSingleBond NonConjugatedSingleBond NonConjugatedSingleBond NonConjugatedSingleBond NonConjugatedSingleBond NonConjugatedSingleBondInRing NonConjugatedSingleBondInRing NonConjugatedSingleBond NonConjugatedSingleBond NonConjugatedSingleBondInRing NonConjugatedSingleBond NonConjugatedSingleBondInRing NonConjugatedSingleBond NonConjugatedSingleBondInRing NonConjugatedSingleBond NonConjugatedSingleBond NonConjugatedSingleBondInRing NonConjugatedSingleBond NonConjugatedSingleBond NonConjugatedSingleBond NonConjugatedSingleBond NonConjugatedSingleBond NonConjugatedSingleBond NonConjugatedSingleBond NonConjugatedSingleBond NonConjugatedSingleBond NonConjugatedSingleBondInRing NonConjugatedSingleBondInRing NonConjugatedSingleBond NonConjugatedSingleBondInRing NonConjugatedSingleBond NonConjugatedSingleBondInRing NonConjugatedSingleBond NonConjugatedSingleBondInRing NonConjugatedSingleBond NonConjugatedSingleBondInRing NonConjugatedSingleBond NonConjugatedSingleBond NonConjugatedSingleBond NonConjugatedSingleBond AmideSingleBond NonConjugatedSingleBond NonConjugatedSingleBond NonConjugatedSingleBond NonConjugatedSingleBond NonConjugatedSingleBond ConjugatedDoubleBond NonConjugatedSingleBond NonConjugatedSingleBond NonConjugatedSingleBond NonConjugatedSingleBond
M  BCL CHI   1   R   4   R   8   R  17   S  20   R  22   S  25   R  29   S  38   S  42   R  46   R  50   S 185   R 187   S 190   S 192   R 194   R 205   R 207   S 210   R 212   S 214   S
M  BCL DBI - - E E E E E E E E Z - -
M  END
> <ConfClashScore>
0.000254731 

> <ConfOneFourInteractionScore>
-0.967369 

> <ConfScore>
0.253075 

> <ConfScorePBest>
0.0144805 

> <ConfTolerance>
0.25 

$$$$
L05.****
  PyMOL2.5          3D                             0

230233  0  0  0  0  0  0  0  0999 V2000
   12.2429   -2.4439   -3.1702 C   0  0  0  1  0  0  0  0  0  0  0  0
   12.5388   -2.3211   -4.1912 H   0  0  0  1  0  0  0  0  0  0  0  0
   11.9099   -1.1553   -2.5699 O   0  0  0  1  0  0  0  0  0  0  0  0
   10.9625   -3.2416   -3.0762 C   0  0  0  1  0  0  0  0  0  0  0  0
   10.8899   -3.7382   -2.1312 H   0  0  0  1  0  0  0  0  0  0  0  0
   10.8827   -4.2045   -4.1283 O   0  0  0  1  0  0  0  0  0  0  0  0
   11.7373   -4.2803   -4.5589 H   0  0  0  1  0  0  0  0  0  0  0  0
    9.8662   -2.1779   -3.2222 C   0  0  0  1  0  0  0  0  0  0  0  0
    9.6065   -2.0303   -4.2497 H   0  0  0  1  0  0  0  0  0  0  0  0
    8.6984   -2.5372   -2.4822 O   0  0  0  1  0  0  0  0  0  0  0  0
    8.9188   -3.2253   -1.8501 H   0  0  0  1  0  0  0  0  0  0  0  0
    8.7614    0.5257   -3.7221 C   0  0  0  1  0  0  0  0  0  0  0  0
    8.3397   -0.2472   -4.3302 H   0  0  0  1  0  0  0  0  0  0  0  0
    8.2659    0.5446   -2.7740 H   0  0  0  1  0  0  0  0  0  0  0  0
    8.6198    1.7836   -4.3688 O   0  0  0  1  0  0  0  0  0  0  0  0
    8.4131    2.4575   -3.7171 H   0  0  0  1  0  0  0  0  0  0  0  0
   10.2492    0.2780   -3.5256 C   0  0  0  1  0  0  0  0  0  0  0  0
   10.6822    1.1460   -3.0740 H   0  0  0  1  0  0  0  0  0  0  0  0
   10.8077    0.0752   -4.8185 O   0  0  0  1  0  0  0  0  0  0  0  0
   10.5309   -0.9235   -2.6333 C   0  0  0  1  0  0  0  0  0  0  0  0
   10.1484   -0.7368   -1.6516 H   0  0  0  1  0  0  0  0  0  0  0  0
   11.6299    1.1235   -5.1906 C   0  0  0  1  0  0  0  0  0  0  0  0
   11.7291    1.1389   -6.2559 H   0  0  0  1  0  0  0  0  0  0  0  0
   11.1060    2.3499   -4.7263 O   0  0  0  1  0  0  0  0  0  0  0  0
   12.9914    0.9886   -4.5332 C   0  0  0  1  0  0  0  0  0  0  0  0
   13.6558    0.4045   -5.1352 H   0  0  0  1  0  0  0  0  0  0  0  0
   12.8830    0.4013   -3.2356 O   0  0  0  1  0  0  0  0  0  0  0  0
   12.3251    0.9512   -2.6806 H   0  0  0  1  0  0  0  0  0  0  0  0
   13.4510    2.4212   -4.4467 C   0  0  0  1  0  0  0  0  0  0  0  0
   13.8439    2.7623   -5.3817 H   0  0  0  1  0  0  0  0  0  0  0  0
   14.4320    2.5918   -3.4279 O   0  0  0  1  0  0  0  0  0  0  0  0
   14.0130    2.9289   -2.6327 H   0  0  0  1  0  0  0  0  0  0  0  0
   13.5796    4.9805   -4.9676 C   0  0  0  1  0  0  0  0  0  0  0  0
   14.2007    4.7765   -4.1205 H   0  0  0  1  0  0  0  0  0  0  0  0
   13.9229    4.4128   -5.8072 H   0  0  0  1  0  0  0  0  0  0  0  0
   13.6765    6.3623   -5.2816 O   0  0  0  1  0  0  0  0  0  0  0  0
   12.8161    6.6903   -5.5531 H   0  0  0  1  0  0  0  0  0  0  0  0
   12.1547    4.5570   -4.6416 C   0  0  0  1  0  0  0  0  0  0  0  0
   11.5697    4.5864   -5.5371 H   0  0  0  1  0  0  0  0  0  0  0  0
   11.5773    5.4058   -3.6454 O   0  0  0  1  0  0  0  0  0  0  0  0
   11.8094    5.0796   -2.7729 H   0  0  0  1  0  0  0  0  0  0  0  0
   12.1494    3.1396   -4.0935 C   0  0  0  1  0  0  0  0  0  0  0  0
   12.0102    3.1674   -3.0329 H   0  0  0  1  0  0  0  0  0  0  0  0
   13.2885   -3.0820   -2.4462 O   0  0  0  1  0  0  0  0  0  0  0  0
   18.5168  -11.6318   -4.4740 O   0  0  0  1  0  0  0  0  0  0  0  0
   18.2017  -10.2523   -3.7285 P   0  0  0  1  0  0  0  0  0  0  0  0
   19.3999   -9.3080   -4.2323 O   0  0  0  1  0  0  0  0  0  0  0  0
   18.3444  -10.5211   -2.2864 O   0  0  0  0  0  0  0  0  0  0  0  0
   16.9928   -9.6233   -4.2823 O   0  0  0  1  0  0  0  0  0  0  0  0
   20.8200   -8.9786   -3.6324 P   0  0  0  1  0  0  0  0  0  0  0  0
   20.4155   -7.8347   -2.6357 O   0  0  0  1  0  0  0  0  0  0  0  0
   21.5813   -8.4274   -4.7759 O   0  0  0  0  0  0  0  0  0  0  0  0
   21.4085  -10.0898   -2.8538 O   0  0  0  1  0  0  0  0  0  0  0  0
   18.3925  -11.6853   -5.9041 C   0  0  0  1  0  0  0  0  0  0  0  0
   19.0168  -10.9384   -6.3483 H   0  0  0  1  0  0  0  0  0  0  0  0
   17.3744  -11.5125   -6.1842 H   0  0  0  1  0  0  0  0  0  0  0  0
   18.8212  -13.0453   -6.3709 C   0  0  0  1  0  0  0  0  0  0  0  0
   18.7764  -13.8117   -5.6693 H   0  0  0  1  0  0  0  0  0  0  0  0
   19.2518  -13.3767   -7.5835 C   0  0  0  1  0  0  0  0  0  0  0  0
   19.3569  -14.7922   -8.0720 C   0  0  0  1  0  0  0  0  0  0  0  0
   18.3774  -15.2144   -8.1569 H   0  0  0  1  0  0  0  0  0  0  0  0
   19.9338  -15.3669   -7.3779 H   0  0  0  1  0  0  0  0  0  0  0  0
   19.8344  -14.8043   -9.0295 H   0  0  0  1  0  0  0  0  0  0  0  0
   19.6757  -12.3343   -8.5796 C   0  0  0  1  0  0  0  0  0  0  0  0
   19.5215  -11.3725   -8.1367 H   0  0  0  1  0  0  0  0  0  0  0  0
   19.0543  -12.4328   -9.4451 H   0  0  0  1  0  0  0  0  0  0  0  0
   21.1248  -12.4157   -9.0310 C   0  0  0  1  0  0  0  0  0  0  0  0
   21.3021  -13.3915   -9.4329 H   0  0  0  1  0  0  0  0  0  0  0  0
   21.7557  -12.2595   -8.1810 H   0  0  0  1  0  0  0  0  0  0  0  0
   21.4737  -11.3947  -10.0807 C   0  0  0  1  0  0  0  0  0  0  0  0
   21.4524  -11.6998  -11.0747 H   0  0  0  1  0  0  0  0  0  0  0  0
   21.8081  -10.1282   -9.8310 C   0  0  0  1  0  0  0  0  0  0  0  0
   21.8092   -9.1215  -10.9445 C   0  0  0  1  0  0  0  0  0  0  0  0
   22.1834   -9.5770  -11.8375 H   0  0  0  1  0  0  0  0  0  0  0  0
   22.4340   -8.2950  -10.6772 H   0  0  0  1  0  0  0  0  0  0  0  0
   20.8109   -8.7748  -11.1126 H   0  0  0  1  0  0  0  0  0  0  0  0
   22.0946   -9.6043   -8.4394 C   0  0  0  1  0  0  0  0  0  0  0  0
   21.3488   -9.9837   -7.7725 H   0  0  0  1  0  0  0  0  0  0  0  0
   22.0443   -8.5357   -8.4608 H   0  0  0  1  0  0  0  0  0  0  0  0
   23.4626  -10.0140   -7.9189 C   0  0  0  1  0  0  0  0  0  0  0  0
   24.1957   -9.5344   -8.5334 H   0  0  0  1  0  0  0  0  0  0  0  0
   23.5427  -11.0752   -8.0297 H   0  0  0  1  0  0  0  0  0  0  0  0
   23.7879   -9.6867   -6.4961 C   0  0  0  1  0  0  0  0  0  0  0  0
   22.9804   -9.5670   -5.8517 H   0  0  0  1  0  0  0  0  0  0  0  0
   24.9965   -9.5324   -5.9662 C   0  0  0  1  0  0  0  0  0  0  0  0
   26.2835   -9.6697   -6.7537 C   0  0  0  1  0  0  0  0  0  0  0  0
   26.0599   -9.9338   -7.7662 H   0  0  0  1  0  0  0  0  0  0  0  0
   26.8960  -10.4287   -6.3136 H   0  0  0  1  0  0  0  0  0  0  0  0
   25.1812   -9.2023   -4.5117 C   0  0  0  1  0  0  0  0  0  0  0  0
   24.5782   -9.8567   -3.9176 H   0  0  0  1  0  0  0  0  0  0  0  0
   24.8867   -8.1887   -4.3361 H   0  0  0  1  0  0  0  0  0  0  0  0
   26.2102   -9.3264   -4.2459 H   0  0  0  1  0  0  0  0  0  0  0  0
   27.0161   -8.3383   -6.7218 C   0  0  0  1  0  0  0  0  0  0  0  0
   27.2772   -8.1174   -5.7079 H   0  0  0  1  0  0  0  0  0  0  0  0
   26.3603   -7.5797   -7.0952 H   0  0  0  1  0  0  0  0  0  0  0  0
   28.2723   -8.3364   -7.5513 C   0  0  0  1  0  0  0  0  0  0  0  0
   29.0699   -8.9147   -7.2180 H   0  0  0  1  0  0  0  0  0  0  0  0
   28.4379   -7.6516   -8.6766 C   0  0  0  1  0  0  0  0  0  0  0  0
   27.2678   -7.0615   -9.4116 C   0  0  0  1  0  0  0  0  0  0  0  0
   26.4955   -7.8010   -9.4505 H   0  0  0  1  0  0  0  0  0  0  0  0
   27.5870   -6.8258  -10.4052 H   0  0  0  1  0  0  0  0  0  0  0  0
   29.7722   -7.4011   -9.3161 C   0  0  0  1  0  0  0  0  0  0  0  0
   30.5425   -7.8459   -8.7213 H   0  0  0  1  0  0  0  0  0  0  0  0
   29.9410   -6.3469   -9.3874 H   0  0  0  1  0  0  0  0  0  0  0  0
   29.7846   -7.8318  -10.2954 H   0  0  0  1  0  0  0  0  0  0  0  0
   26.6802   -5.8018   -8.7965 C   0  0  0  1  0  0  0  0  0  0  0  0
   27.4416   -5.0501   -8.7930 H   0  0  0  1  0  0  0  0  0  0  0  0
   26.3964   -6.0274   -7.7898 H   0  0  0  1  0  0  0  0  0  0  0  0
   25.4760   -5.2397   -9.5037 C   0  0  0  1  0  0  0  0  0  0  0  0
   24.6483   -5.8601   -9.6118 H   0  0  0  1  0  0  0  0  0  0  0  0
   25.3917   -4.0111   -9.9996 C   0  0  0  1  0  0  0  0  0  0  0  0
   26.5358   -3.0452   -9.8909 C   0  0  0  1  0  0  0  0  0  0  0  0
   27.3663   -3.4558  -10.4263 H   0  0  0  1  0  0  0  0  0  0  0  0
   26.7899   -2.9497   -8.8560 H   0  0  0  1  0  0  0  0  0  0  0  0
   24.1778   -3.4714  -10.7021 C   0  0  0  1  0  0  0  0  0  0  0  0
   23.8892   -2.5434  -10.2546 H   0  0  0  1  0  0  0  0  0  0  0  0
   23.3749   -4.1735  -10.6163 H   0  0  0  1  0  0  0  0  0  0  0  0
   24.4050   -3.3133  -11.7357 H   0  0  0  1  0  0  0  0  0  0  0  0
   26.2672   -1.6529  -10.4382 C   0  0  0  1  0  0  0  0  0  0  0  0
   25.5156   -1.1887   -9.8344 H   0  0  0  1  0  0  0  0  0  0  0  0
   25.9115   -1.7447  -11.4432 H   0  0  0  1  0  0  0  0  0  0  0  0
   27.4818   -0.7800  -10.4410 C   0  0  0  1  0  0  0  0  0  0  0  0
   28.2398   -1.0776  -11.0879 H   0  0  0  1  0  0  0  0  0  0  0  0
   27.7357    0.3185   -9.7399 C   0  0  0  1  0  0  0  0  0  0  0  0
   26.9071    0.6904   -8.5430 C   0  0  0  1  0  0  0  0  0  0  0  0
   26.2278   -0.1133   -8.3491 H   0  0  0  1  0  0  0  0  0  0  0  0
   26.3548    1.5742   -8.7856 H   0  0  0  1  0  0  0  0  0  0  0  0
   28.8448    1.2779  -10.0584 C   0  0  0  1  0  0  0  0  0  0  0  0
   29.0745    1.8593   -9.1900 H   0  0  0  1  0  0  0  0  0  0  0  0
   28.5375    1.9274  -10.8512 H   0  0  0  1  0  0  0  0  0  0  0  0
   29.7133    0.7310  -10.3611 H   0  0  0  1  0  0  0  0  0  0  0  0
   27.6890    0.9614   -7.2680 C   0  0  0  1  0  0  0  0  0  0  0  0
   27.0111    1.3222   -6.5229 H   0  0  0  1  0  0  0  0  0  0  0  0
   28.4258    1.7097   -7.4728 H   0  0  0  1  0  0  0  0  0  0  0  0
   28.3797   -0.2535   -6.7348 C   0  0  0  1  0  0  0  0  0  0  0  0
   28.9699   -0.7837   -7.4072 H   0  0  0  1  0  0  0  0  0  0  0  0
   28.3207   -0.7308   -5.4902 C   0  0  0  1  0  0  0  0  0  0  0  0
   27.7875    0.1039   -4.3621 C   0  0  0  1  0  0  0  0  0  0  0  0
   28.0752   -0.3502   -3.4370 H   0  0  0  1  0  0  0  0  0  0  0  0
   26.7201    0.1282   -4.4314 H   0  0  0  1  0  0  0  0  0  0  0  0
   28.7865   -2.1258   -5.1668 C   0  0  0  1  0  0  0  0  0  0  0  0
   29.8533   -2.1362   -5.0848 H   0  0  0  1  0  0  0  0  0  0  0  0
   28.4824   -2.7928   -5.9463 H   0  0  0  1  0  0  0  0  0  0  0  0
   28.3547   -2.4398   -4.2395 H   0  0  0  1  0  0  0  0  0  0  0  0
   28.3062    1.5326   -4.3818 C   0  0  0  1  0  0  0  0  0  0  0  0
   27.9519    2.0113   -5.2707 H   0  0  0  1  0  0  0  0  0  0  0  0
   29.3758    1.5064   -4.3922 H   0  0  0  1  0  0  0  0  0  0  0  0
   27.8611    2.3338   -3.1997 C   0  0  0  1  0  0  0  0  0  0  0  0
   27.2499    1.8633   -2.5021 H   0  0  0  1  0  0  0  0  0  0  0  0
   28.1883    3.6017   -2.9746 C   0  0  0  1  0  0  0  0  0  0  0  0
   29.0631    4.4140   -3.8916 C   0  0  0  1  0  0  0  0  0  0  0  0
   29.6182    3.7442   -4.5146 H   0  0  0  1  0  0  0  0  0  0  0  0
   29.7394    4.9902   -3.2952 H   0  0  0  1  0  0  0  0  0  0  0  0
   27.6985    4.3355   -1.7606 C   0  0  0  1  0  0  0  0  0  0  0  0
   27.7610    5.3900   -1.9313 H   0  0  0  1  0  0  0  0  0  0  0  0
   28.3039    4.0743   -0.9179 H   0  0  0  1  0  0  0  0  0  0  0  0
   26.6814    4.0654   -1.5672 H   0  0  0  1  0  0  0  0  0  0  0  0
   28.2752    5.3615   -4.7814 C   0  0  0  1  0  0  0  0  0  0  0  0
   27.8033    6.0962   -4.1630 H   0  0  0  1  0  0  0  0  0  0  0  0
   27.5280    4.7987   -5.3008 H   0  0  0  1  0  0  0  0  0  0  0  0
   29.1328    6.0682   -5.7948 C   0  0  0  1  0  0  0  0  0  0  0  0
   29.6838    5.4643   -6.4377 H   0  0  0  1  0  0  0  0  0  0  0  0
   29.2629    7.3794   -5.9577 C   0  0  0  1  0  0  0  0  0  0  0  0
   29.9016    7.9547   -7.1918 C   0  0  0  1  0  0  0  0  0  0  0  0
   29.3102    8.7868   -7.5123 H   0  0  0  1  0  0  0  0  0  0  0  0
   29.8955    7.1992   -7.9494 H   0  0  0  1  0  0  0  0  0  0  0  0
   28.8001    8.3978   -4.9573 C   0  0  0  1  0  0  0  0  0  0  0  0
   28.0740    8.9932   -5.4703 H   0  0  0  1  0  0  0  0  0  0  0  0
   29.6204    9.0044   -4.6346 H   0  0  0  1  0  0  0  0  0  0  0  0
   28.3576    7.9158   -4.1106 H   0  0  0  1  0  0  0  0  0  0  0  0
   31.3334    8.4354   -7.0207 C   0  0  0  1  0  0  0  0  0  0  0  0
   31.9058    7.6288   -6.6124 H   0  0  0  1  0  0  0  0  0  0  0  0
   31.3267    9.2535   -6.3310 H   0  0  0  1  0  0  0  0  0  0  0  0
   32.0100    8.8936   -8.2735 C   0  0  0  1  0  0  0  0  0  0  0  0
   32.5794    8.1849   -8.7786 H   0  0  0  1  0  0  0  0  0  0  0  0
   31.9624   10.1068   -8.8107 C   0  0  0  1  0  0  0  0  0  0  0  0
   32.7369   10.4417  -10.0521 C   0  0  0  1  0  0  0  0  0  0  0  0
   33.4515   11.2070   -9.8317 H   0  0  0  1  0  0  0  0  0  0  0  0
   32.0647   10.7890  -10.8088 H   0  0  0  1  0  0  0  0  0  0  0  0
   33.2466    9.5679  -10.4008 H   0  0  0  1  0  0  0  0  0  0  0  0
   31.1483   11.2463   -8.2475 C   0  0  0  1  0  0  0  0  0  0  0  0
   31.7421   11.7219   -7.4952 H   0  0  0  1  0  0  0  0  0  0  0  0
   30.2436   10.8713   -7.8165 H   0  0  0  1  0  0  0  0  0  0  0  0
   30.9118   11.9449   -9.0227 H   0  0  0  1  0  0  0  0  0  0  0  0
   16.0906   -5.0686   -1.6010 C   0  0  0  1  0  0  0  0  0  0  0  0
   16.3280   -5.5880   -0.6961 H   0  0  0  1  0  0  0  0  0  0  0  0
   14.8305   -5.6662   -2.2135 C   0  0  0  1  0  0  0  0  0  0  0  0
   15.0022   -6.6924   -2.4631 H   0  0  0  1  0  0  0  0  0  0  0  0
   15.8704   -3.6858   -1.3130 O   0  0  0  1  0  0  0  0  0  0  0  0
   14.4851   -4.8772   -3.4803 C   0  0  0  1  0  0  0  0  0  0  0  0
   13.5306   -5.2025   -3.8380 H   0  0  0  1  0  0  0  0  0  0  0  0
   15.6758   -2.9051   -2.5024 C   0  0  0  1  0  0  0  0  0  0  0  0
   16.5258   -3.0159   -3.1428 H   0  0  0  1  0  0  0  0  0  0  0  0
   14.4283   -3.3796   -3.2327 C   0  0  0  1  0  0  0  0  0  0  0  0
   14.3570   -2.8714   -4.1716 H   0  0  0  1  0  0  0  0  0  0  0  0
   17.1411   -5.1924   -2.4941 O   0  0  0  1  0  0  0  0  0  0  0  0
   13.7519   -5.5763   -1.2807 O   0  0  0  1  0  0  0  0  0  0  0  0
   13.4186   -6.4563   -1.0905 H   0  0  0  1  0  0  0  0  0  0  0  0
   15.4747   -5.1393   -4.4646 O   0  0  0  1  0  0  0  0  0  0  0  0
   15.2161   -5.9046   -4.9832 H   0  0  0  1  0  0  0  0  0  0  0  0
   15.5128   -1.4419   -2.1242 C   0  0  0  1  0  0  0  0  0  0  0  0
   16.4235   -1.0807   -1.6940 H   0  0  0  1  0  0  0  0  0  0  0  0
   14.7193   -1.3439   -1.4132 H   0  0  0  1  0  0  0  0  0  0  0  0
   15.2810   -0.8713   -2.9992 H   0  0  0  1  0  0  0  0  0  0  0  0
   19.5471   -6.7568   -2.9935 C   0  0  0  1  0  0  0  0  0  0  0  0
   18.6193   -7.1499   -3.3533 H   0  0  0  1  0  0  0  0  0  0  0  0
   19.2930   -5.8953   -1.7867 C   0  0  0  1  0  0  0  0  0  0  0  0
   20.2258   -5.5397   -1.4016 H   0  0  0  1  0  0  0  0  0  0  0  0
   20.1542   -5.9779   -4.0063 O   0  0  0  1  0  0  0  0  0  0  0  0
   18.4333   -4.7252   -2.1682 C   0  0  0  1  0  0  0  0  0  0  0  0
   18.3714   -4.0538   -1.3374 H   0  0  0  1  0  0  0  0  0  0  0  0
   19.2615   -4.9581   -4.4895 C   0  0  0  1  0  0  0  0  0  0  0  0
   19.7103   -4.4439   -5.3135 H   0  0  0  1  0  0  0  0  0  0  0  0
   19.0017   -3.9848   -3.3563 C   0  0  0  1  0  0  0  0  0  0  0  0
   18.3030   -3.2416   -3.6794 H   0  0  0  1  0  0  0  0  0  0  0  0
   18.6142   -6.6809   -0.7670 N   0  0  0  1  0  0  0  0  0  0  0  0
   17.6969   -6.4418   -0.5184 H   0  0  0  1  0  0  0  0  0  0  0  0
   20.2238   -3.3576   -2.9822 O   0  0  0  1  0  0  0  0  0  0  0  0
   20.9190   -3.8037   -3.4713 H   0  0  0  1  0  0  0  0  0  0  0  0
   17.9687   -5.5813   -4.9317 C   0  0  0  1  0  0  0  0  0  0  0  0
   17.3070   -4.8169   -5.2820 H   0  0  0  1  0  0  0  0  0  0  0  0
   17.5192   -6.0918   -4.1057 H   0  0  0  1  0  0  0  0  0  0  0  0
   18.2185   -6.5094   -5.9828 O   0  0  0  1  0  0  0  0  0  0  0  0
   18.2292   -6.0273   -6.8129 H   0  0  0  1  0  0  0  0  0  0  0  0
   19.2029   -7.7256   -0.1529 C   0  0  0  1  0  0  0  0  0  0  0  0
   20.3623   -8.0891   -0.3465 O   0  0  0  1  0  0  0  0  0  0  0  0
   18.2939   -8.4478    0.8333 C   0  0  0  1  0  0  0  0  0  0  0  0
   18.8843   -9.2658    1.1900 H   0  0  0  1  0  0  0  0  0  0  0  0
   17.4112   -8.8031    0.3440 H   0  0  0  1  0  0  0  0  0  0  0  0
   18.0192   -7.7997    1.6392 H   0  0  0  1  0  0  0  0  0  0  0  0
  1  2  1  0  0  0  0
  1  3  1  0  0  0  0
  1  4  1  0  0  0  0
  1 44  1  0  0  0  0
  3 20  1  0  0  0  0
  4  5  1  0  0  0  0
  4  6  1  0  0  0  0
  4  8  1  0  0  0  0
  6  7  1  0  0  0  0
  8  9  1  0  0  0  0
  8 10  1  0  0  0  0
  8 20  1  0  0  0  0
 10 11  1  0  0  0  0
 12 13  1  0  0  0  0
 12 14  1  0  0  0  0
 12 15  1  0  0  0  0
 12 17  1  0  0  0  0
 15 16  1  0  0  0  0
 17 18  1  0  0  0  0
 17 19  1  0  0  0  0
 17 20  1  0  0  0  0
 19 22  1  0  0  0  0
 20 21  1  0  0  0  0
 22 23  1  0  0  0  0
 22 24  1  0  0  0  0
 22 25  1  0  0  0  0
 24 42  1  0  0  0  0
 25 26  1  0  0  0  0
 25 27  1  0  0  0  0
 25 29  1  0  0  0  0
 27 28  1  0  0  0  0
 29 30  1  0  0  0  0
 29 31  1  0  0  0  0
 29 42  1  0  0  0  0
 31 32  1  0  0  0  0
 33 34  1  0  0  0  0
 33 35  1  0  0  0  0
 33 36  1  0  0  0  0
 33 38  1  0  0  0  0
 36 37  1  0  0  0  0
 38 39  1  0  0  0  0
 38 40  1  0  0  0  0
 38 42  1  0  0  0  0
 40 41  1  0  0  0  0
 42 43  1  0  0  0  0
 44194  1  0  0  0  0
 45 46  1  0  0  0  0
 45 54  1  0  0  0  0
 46 47  1  0  0  0  0
 46 48  1  0  0  0  0
 46 49  2  0  0  0  0
 47 50  1  0  0  0  0
 50 51  1  0  0  0  0
 50 52  1  0  0  0  0
 50 53  2  0  0  0  0
 51205  1  0  0  0  0
 54 55  1  0  0  0  0
 54 56  1  0  0  0  0
 54 57  1  0  0  0  0
 57 58  1  0  0  0  0
 57 59  2  0  0  0  0
 59 60  1  0  0  0  0
 59 64  1  0  0  0  0
 60 61  1  0  0  0  0
 60 62  1  0  0  0  0
 60 63  1  0  0  0  0
 64 65  1  0  0  0  0
 64 66  1  0  0  0  0
 64 67  1  0  0  0  0
 67 68  1  0  0  0  0
 67 69  1  0  0  0  0
 67 70  1  0  0  0  0
 70 71  1  0  0  0  0
 70 72  2  0  0  0  0
 72 73  1  0  0  0  0
 72 77  1  0  0  0  0
 73 74  1  0  0  0  0
 73 75  1  0  0  0  0
 73 76  1  0  0  0  0
 77 78  1  0  0  0  0
 77 79  1  0  0  0  0
 77 80  1  0  0  0  0
 80 81  1  0  0  0  0
 80 82  1  0  0  0  0
 80 83  1  0  0  0  0
 83 84  1  0  0  0  0
 83 85  2  0  0  0  0
 85 86  1  0  0  0  0
 85 89  1  0  0  0  0
 86 87  1  0  0  0  0
 86 88  1  0  0  0  0
 86 93  1  0  0  0  0
 89 90  1  0  0  0  0
 89 91  1  0  0  0  0
 89 92  1  0  0  0  0
 93 94  1  0  0  0  0
 93 95  1  0  0  0  0
 93 96  1  0  0  0  0
 96 97  1  0  0  0  0
 96 98  2  0  0  0  0
 98 99  1  0  0  0  0
 98102  1  0  0  0  0
 99100  1  0  0  0  0
 99101  1  0  0  0  0
 99106  1  0  0  0  0
102103  1  0  0  0  0
102104  1  0  0  0  0
102105  1  0  0  0  0
106107  1  0  0  0  0
106108  1  0  0  0  0
106109  1  0  0  0  0
109110  1  0  0  0  0
109111  2  0  0  0  0
111112  1  0  0  0  0
111115  1  0  0  0  0
112113  1  0  0  0  0
112114  1  0  0  0  0
112119  1  0  0  0  0
115116  1  0  0  0  0
115117  1  0  0  0  0
115118  1  0  0  0  0
119120  1  0  0  0  0
119121  1  0  0  0  0
119122  1  0  0  0  0
122123  1  0  0  0  0
122124  2  0  0  0  0
124125  1  0  0  0  0
124128  1  0  0  0  0
125126  1  0  0  0  0
125127  1  0  0  0  0
125132  1  0  0  0  0
128129  1  0  0  0  0
128130  1  0  0  0  0
128131  1  0  0  0  0
132133  1  0  0  0  0
132134  1  0  0  0  0
132135  1  0  0  0  0
135136  1  0  0  0  0
135137  2  0  0  0  0
137138  1  0  0  0  0
137141  1  0  0  0  0
138139  1  0  0  0  0
138140  1  0  0  0  0
138145  1  0  0  0  0
141142  1  0  0  0  0
141143  1  0  0  0  0
141144  1  0  0  0  0
145146  1  0  0  0  0
145147  1  0  0  0  0
145148  1  0  0  0  0
148149  1  0  0  0  0
148150  2  0  0  0  0
150151  1  0  0  0  0
150154  1  0  0  0  0
151152  1  0  0  0  0
151153  1  0  0  0  0
151158  1  0  0  0  0
154155  1  0  0  0  0
154156  1  0  0  0  0
154157  1  0  0  0  0
158159  1  0  0  0  0
158160  1  0  0  0  0
158161  1  0  0  0  0
161162  1  0  0  0  0
161163  2  0  0  0  0
163164  1  0  0  0  0
163167  1  0  0  0  0
164165  1  0  0  0  0
164166  1  0  0  0  0
164171  1  0  0  0  0
167168  1  0  0  0  0
167169  1  0  0  0  0
167170  1  0  0  0  0
171172  1  0  0  0  0
171173  1  0  0  0  0
171174  1  0  0  0  0
174175  1  0  0  0  0
174176  2  0  0  0  0
176177  1  0  0  0  0
176181  1  0  0  0  0
177178  1  0  0  0  0
177179  1  0  0  0  0
177180  1  0  0  0  0
181182  1  0  0  0  0
181183  1  0  0  0  0
181184  1  0  0  0  0
185186  1  0  0  0  0
185187  1  0  0  0  0
185189  1  0  0  0  0
185196  1  0  0  0  0
187188  1  0  0  0  0
187190  1  0  0  0  0
187197  1  0  0  0  0
189192  1  0  0  0  0
190191  1  0  0  0  0
190194  1  0  0  0  0
190199  1  0  0  0  0
192193  1  0  0  0  0
192194  1  0  0  0  0
192201  1  0  0  0  0
194195  1  0  0  0  0
196210  1  0  0  0  0
197198  1  0  0  0  0
199200  1  0  0  0  0
201202  1  0  0  0  0
201203  1  0  0  0  0
201204  1  0  0  0  0
205206  1  0  0  0  0
205207  1  0  0  0  0
205209  1  0  0  0  0
207208  1  0  0  0  0
207210  1  0  0  0  0
207216  1  0  0  0  0
209212  1  0  0  0  0
210211  1  0  0  0  0
210214  1  0  0  0  0
212213  1  0  0  0  0
212214  1  0  0  0  0
212220  1  0  0  0  0
214215  1  0  0  0  0
214218  1  0  0  0  0
216217  1  0  0  0  0
216225  1  0  0  0  0
218219  1  0  0  0  0
220221  1  0  0  0  0
220222  1  0  0  0  0
220223  1  0  0  0  0
223224  1  0  0  0  0
225226  2  0  0  0  0
225227  1  0  0  0  0
227228  1  0  0  0  0
227229  1  0  0  0  0
227230  1  0  0  0  0
M  BCL ATM C_TeTeTeTe H_S O_Te2Te2TeTe C_TeTeTeTe H_S O_Te2Te2TeTe H_S C_TeTeTeTe H_S O_Te2Te2TeTe H_S C_TeTeTeTe H_S H_S O_Te2Te2TeTe H_S C_TeTeTeTe H_S O_Te2Te2TeTe C_TeTeTeTe H_S C_TeTeTeTe H_S O_Te2Te2TeTe C_TeTeTeTe H_S O_Te2Te2TeTe H_S C_TeTeTeTe H_S O_Te2Te2TeTe H_S C_TeTeTeTe H_S H_S O_Te2Te2TeTe H_S C_TeTeTeTe H_S O_Te2Te2TeTe H_S C_TeTeTeTe H_S O_Te2Te2TeTe O_Tr2TrTrPi2 P_TeTeTeTePi O_Tr2TrTrPi2 O_Te2Te2TeTe O_Tr2Tr2TrPi P_TeTeTeTePi O_Tr2TrTrPi2 O_Te2Te2TeTe O_Tr2Tr2TrPi C_TeTeTeTe H_S H_S C_TrTrTrPi H_S C_TrTrTrPi C_TeTeTeTe H_S H_S H_S C_TeTeTeTe H_S H_S C_TeTeTeTe H_S H_S C_TrTrTrPi H_S C_TrTrTrPi C_TeTeTeTe H_S H_S H_S C_TeTeTeTe H_S H_S C_TeTeTeTe H_S H_S C_TrTrTrPi H_S C_TrTrTrPi C_TeTeTeTe H_S H_S C_TeTeTeTe H_S H_S H_S C_TeTeTeTe H_S H_S C_TrTrTrPi H_S C_TrTrTrPi C_TeTeTeTe H_S H_S C_TeTeTeTe H_S H_S H_S C_TeTeTeTe H_S H_S C_TrTrTrPi H_S C_TrTrTrPi C_TeTeTeTe H_S H_S C_TeTeTeTe H_S H_S H_S C_TeTeTeTe H_S H_S C_TrTrTrPi H_S C_TrTrTrPi C_TeTeTeTe H_S H_S C_TeTeTeTe H_S H_S H_S C_TeTeTeTe H_S H_S C_TrTrTrPi H_S C_TrTrTrPi C_TeTeTeTe H_S H_S C_TeTeTeTe H_S H_S H_S C_TeTeTeTe H_S H_S C_TrTrTrPi H_S C_TrTrTrPi C_TeTeTeTe H_S H_S C_TeTeTeTe H_S H_S H_S C_TeTeTeTe H_S H_S C_TrTrTrPi H_S C_TrTrTrPi C_TeTeTeTe H_S H_S C_TeTeTeTe H_S H_S H_S C_TeTeTeTe H_S H_S C_TrTrTrPi H_S C_TrTrTrPi C_TeTeTeTe H_S H_S H_S C_TeTeTeTe H_S H_S H_S C_TeTeTeTe H_S C_TeTeTeTe H_S O_Te2Te2TeTe C_TeTeTeTe H_S C_TeTeTeTe H_S C_TeTeTeTe H_S O_Te2Te2TeTe O_Te2Te2TeTe H_S O_Te2Te2TeTe H_S C_TeTeTeTe H_S H_S H_S C_TeTeTeTe H_S C_TeTeTeTe H_S O_Te2Te2TeTe C_TeTeTeTe H_S C_TeTeTeTe H_S C_TeTeTeTe H_S N_TrTrTrPi2 H_S O_Te2Te2TeTe H_S C_TeTeTeTe H_S H_S O_Te2Te2TeTe H_S C_TrTrTrPi O_Tr2Tr2TrPi C_TeTeTeTe H_S H_S H_S
M  BCL BND NonConjugatedSingleBond NonConjugatedSingleBondInRing NonConjugatedSingleBondInRing NonConjugatedSingleBond NonConjugatedSingleBondInRing NonConjugatedSingleBond NonConjugatedSingleBond NonConjugatedSingleBondInRing NonConjugatedSingleBond NonConjugatedSingleBond NonConjugatedSingleBond NonConjugatedSingleBondInRing NonConjugatedSingleBond NonConjugatedSingleBond NonConjugatedSingleBond NonConjugatedSingleBond NonConjugatedSingleBond NonConjugatedSingleBond NonConjugatedSingleBond NonConjugatedSingleBond NonConjugatedSingleBond NonConjugatedSingleBond NonConjugatedSingleBond NonConjugatedSingleBond NonConjugatedSingleBondInRing NonConjugatedSingleBondInRing NonConjugatedSingleBondInRing NonConjugatedSingleBond NonConjugatedSingleBond NonConjugatedSingleBondInRing NonConjugatedSingleBond NonConjugatedSingleBond NonConjugatedSingleBond NonConjugatedSingleBondInRing NonConjugatedSingleBond NonConjugatedSingleBond NonConjugatedSingleBond NonConjugatedSingleBond NonConjugatedSingleBond NonConjugatedSingleBond NonConjugatedSingleBond NonConjugatedSingleBond NonConjugatedSingleBond NonConjugatedSingleBond NonConjugatedSingleBond NonConjugatedSingleBond ConjugatedSingleBond NonConjugatedSingleBond ConjugatedSingleBond ConjugatedSingleBond ConjugatedDoubleBond ConjugatedSingleBond ConjugatedSingleBond ConjugatedSingleBond ConjugatedDoubleBond NonConjugatedSingleBond NonConjugatedSingleBond NonConjugatedSingleBond NonConjugatedSingleBond NonConjugatedSingleBond ConjugatedDoubleBond NonConjugatedSingleBond NonConjugatedSingleBond NonConjugatedSingleBond NonConjugatedSingleBond NonConjugatedSingleBond NonConjugatedSingleBond NonConjugatedSingleBond NonConjugatedSingleBond NonConjugatedSingleBond NonConjugatedSingleBond NonConjugatedSingleBond NonConjugatedSingleBond ConjugatedDoubleBond NonConjugatedSingleBond NonConjugatedSingleBond NonConjugatedSingleBond NonConjugatedSingleBond NonConjugatedSingleBond NonConjugatedSingleBond NonConjugatedSingleBond NonConjugatedSingleBond NonConjugatedSingleBond NonConjugatedSingleBond NonConjugatedSingleBond NonConjugatedSingleBond ConjugatedDoubleBond NonConjugatedSingleBond NonConjugatedSingleBond NonConjugatedSingleBond NonConjugatedSingleBond NonConjugatedSingleBond NonConjugatedSingleBond NonConjugatedSingleBond NonConjugatedSingleBond NonConjugatedSingleBond NonConjugatedSingleBond NonConjugatedSingleBond NonConjugatedSingleBond ConjugatedDoubleBond NonConjugatedSingleBond NonConjugatedSingleBond NonConjugatedSingleBond NonConjugatedSingleBond NonConjugatedSingleBond NonConjugatedSingleBond NonConjugatedSingleBond NonConjugatedSingleBond NonConjugatedSingleBond NonConjugatedSingleBond NonConjugatedSingleBond NonConjugatedSingleBond ConjugatedDoubleBond NonConjugatedSingleBond NonConjugatedSingleBond NonConjugatedSingleBond NonConjugatedSingleBond NonConjugatedSingleBond NonConjugatedSingleBond NonConjugatedSingleBond NonConjugatedSingleBond NonConjugatedSingleBond NonConjugatedSingleBond NonConjugatedSingleBond NonConjugatedSingleBond ConjugatedDoubleBond NonConjugatedSingleBond NonConjugatedSingleBond NonConjugatedSingleBond NonConjugatedSingleBond NonConjugatedSingleBond NonConjugatedSingleBond NonConjugatedSingleBond NonConjugatedSingleBond NonConjugatedSingleBond NonConjugatedSingleBond NonConjugatedSingleBond NonConjugatedSingleBond ConjugatedDoubleBond NonConjugatedSingleBond NonConjugatedSingleBond NonConjugatedSingleBond NonConjugatedSingleBond NonConjugatedSingleBond NonConjugatedSingleBond NonConjugatedSingleBond NonConjugatedSingleBond NonConjugatedSingleBond NonConjugatedSingleBond NonConjugatedSingleBond NonConjugatedSingleBond ConjugatedDoubleBond NonConjugatedSingleBond NonConjugatedSingleBond NonConjugatedSingleBond NonConjugatedSingleBond NonConjugatedSingleBond NonConjugatedSingleBond NonConjugatedSingleBond NonConjugatedSingleBond NonConjugatedSingleBond NonConjugatedSingleBond NonConjugatedSingleBond NonConjugatedSingleBond ConjugatedDoubleBond NonConjugatedSingleBond NonConjugatedSingleBond NonConjugatedSingleBond NonConjugatedSingleBond NonConjugatedSingleBond NonConjugatedSingleBond NonConjugatedSingleBond NonConjugatedSingleBond NonConjugatedSingleBond NonConjugatedSingleBond NonConjugatedSingleBond NonConjugatedSingleBond ConjugatedDoubleBond NonConjugatedSingleBond NonConjugatedSingleBond NonConjugatedSingleBond NonConjugatedSingleBond NonConjugatedSingleBond NonConjugatedSingleBond NonConjugatedSingleBond NonConjugatedSingleBond NonConjugatedSingleBond NonConjugatedSingleBondInRing NonConjugatedSingleBondInRing NonConjugatedSingleBond NonConjugatedSingleBond NonConjugatedSingleBondInRing NonConjugatedSingleBond NonConjugatedSingleBondInRing NonConjugatedSingleBond NonConjugatedSingleBondInRing NonConjugatedSingleBond NonConjugatedSingleBond NonConjugatedSingleBondInRing NonConjugatedSingleBond NonConjugatedSingleBond NonConjugatedSingleBond NonConjugatedSingleBond NonConjugatedSingleBond NonConjugatedSingleBond NonConjugatedSingleBond NonConjugatedSingleBond NonConjugatedSingleBond NonConjugatedSingleBondInRing NonConjugatedSingleBondInRing NonConjugatedSingleBond NonConjugatedSingleBondInRing NonConjugatedSingleBond NonConjugatedSingleBondInRing NonConjugatedSingleBond NonConjugatedSingleBondInRing NonConjugatedSingleBond NonConjugatedSingleBondInRing NonConjugatedSingleBond NonConjugatedSingleBond NonConjugatedSingleBond NonConjugatedSingleBond AmideSingleBond NonConjugatedSingleBond NonConjugatedSingleBond NonConjugatedSingleBond NonConjugatedSingleBond NonConjugatedSingleBond ConjugatedDoubleBond NonConjugatedSingleBond NonConjugatedSingleBond NonConjugatedSingleBond NonConjugatedSingleBond
M  BCL CHI   1   R   4   R   8   R  17   S  20   R  22   S  25   R  29   S  38   S  42   R  46   R  50   S 185   R 187   S 190   S 192   R 194   R 205   R 207   S 210   R 212   S 214   S
M  BCL DBI - - E E E E E E E E Z - -
M  END
> <ConfClashScore>
0.00234867 

> <ConfOneFourInteractionScore>
-0.96643 

> <ConfScore>
0.295099 

> <ConfScorePBest>
0.0143775 

> <ConfTolerance>
2.74537 

$$$$
L05.****
  PyMOL2.5          3D                             0

230233  0  0  0  0  0  0  0  0999 V2000
   12.1498   -2.6254   -2.3046 C   0  0  0  1  0  0  0  0  0  0  0  0
   11.5382   -2.5074   -1.4347 H   0  0  0  1  0  0  0  0  0  0  0  0
   11.4415   -3.3769   -3.3367 O   0  0  0  1  0  0  0  0  0  0  0  0
   12.4326   -1.2861   -2.9458 C   0  0  0  1  0  0  0  0  0  0  0  0
   13.3448   -1.3146   -3.5043 H   0  0  0  1  0  0  0  0  0  0  0  0
   12.5086   -0.2545   -1.9608 O   0  0  0  1  0  0  0  0  0  0  0  0
   12.6707   -0.6455   -1.0991 H   0  0  0  1  0  0  0  0  0  0  0  0
   11.2286   -1.0715   -3.8728 C   0  0  0  1  0  0  0  0  0  0  0  0
   10.4330   -0.5706   -3.3619 H   0  0  0  1  0  0  0  0  0  0  0  0
   11.5981   -0.3216   -5.0311 O   0  0  0  1  0  0  0  0  0  0  0  0
   12.3336   -0.7537   -5.4714 H   0  0  0  1  0  0  0  0  0  0  0  0
    8.7472   -4.0001   -4.6254 C   0  0  0  1  0  0  0  0  0  0  0  0
    8.7747   -4.0531   -5.6938 H   0  0  0  1  0  0  0  0  0  0  0  0
    9.3340   -4.7943   -4.2132 H   0  0  0  1  0  0  0  0  0  0  0  0
    7.4029   -4.1260   -4.1806 O   0  0  0  1  0  0  0  0  0  0  0  0
    7.3748   -4.0612   -3.2232 H   0  0  0  1  0  0  0  0  0  0  0  0
    9.3158   -2.6600   -4.1694 C   0  0  0  1  0  0  0  0  0  0  0  0
    9.0471   -2.5461   -3.1400 H   0  0  0  1  0  0  0  0  0  0  0  0
    8.6740   -1.6229   -4.9039 O   0  0  0  1  0  0  0  0  0  0  0  0
   10.8291   -2.5076   -4.2470 C   0  0  0  1  0  0  0  0  0  0  0  0
   11.1600   -2.7296   -5.2400 H   0  0  0  1  0  0  0  0  0  0  0  0
    7.3744   -1.3686   -4.4196 C   0  0  0  1  0  0  0  0  0  0  0  0
    6.7800   -2.2538   -4.5098 H   0  0  0  1  0  0  0  0  0  0  0  0
    7.4279   -0.9411   -3.0476 O   0  0  0  1  0  0  0  0  0  0  0  0
    6.7485   -0.2440   -5.1794 C   0  0  0  1  0  0  0  0  0  0  0  0
    5.6835   -0.3441   -5.2040 H   0  0  0  1  0  0  0  0  0  0  0  0
    7.2528   -0.1856   -6.5146 O   0  0  0  1  0  0  0  0  0  0  0  0
    7.2757    0.7279   -6.8089 H   0  0  0  1  0  0  0  0  0  0  0  0
    7.1558    0.9693   -4.3982 C   0  0  0  1  0  0  0  0  0  0  0  0
    6.4448    1.7604   -4.5147 H   0  0  0  1  0  0  0  0  0  0  0  0
    8.4455    1.4269   -4.7943 O   0  0  0  1  0  0  0  0  0  0  0  0
    8.4977    2.3784   -4.6779 H   0  0  0  1  0  0  0  0  0  0  0  0
    5.3312    2.1439   -2.5661 C   0  0  0  1  0  0  0  0  0  0  0  0
    5.0974    2.2630   -3.6034 H   0  0  0  1  0  0  0  0  0  0  0  0
    4.4487    2.2986   -1.9811 H   0  0  0  1  0  0  0  0  0  0  0  0
    6.2965    3.1200   -2.2016 O   0  0  0  1  0  0  0  0  0  0  0  0
    6.9008    3.2621   -2.9338 H   0  0  0  1  0  0  0  0  0  0  0  0
    5.8274    0.7194   -2.3364 C   0  0  0  1  0  0  0  0  0  0  0  0
    5.1106    0.0401   -2.7482 H   0  0  0  1  0  0  0  0  0  0  0  0
    5.8804    0.5639   -0.9154 O   0  0  0  1  0  0  0  0  0  0  0  0
    6.7463    0.8282   -0.5961 H   0  0  0  1  0  0  0  0  0  0  0  0
    7.1719    0.4622   -2.9957 C   0  0  0  1  0  0  0  0  0  0  0  0
    7.9424    0.9533   -2.4390 H   0  0  0  1  0  0  0  0  0  0  0  0
   13.3622   -3.2792   -1.9477 O   0  0  0  1  0  0  0  0  0  0  0  0
   21.9098   -1.6826   -6.2446 O   0  0  0  1  0  0  0  0  0  0  0  0
   20.3724   -2.0086   -6.5405 P   0  0  0  1  0  0  0  0  0  0  0  0
   20.3501   -3.5621   -6.0899 O   0  0  0  1  0  0  0  0  0  0  0  0
   20.0824   -2.0150   -8.0045 O   0  0  0  0  0  0  0  0  0  0  0  0
   19.4748   -1.1591   -5.7023 O   0  0  0  1  0  0  0  0  0  0  0  0
   21.5806   -4.3367   -5.4324 P   0  0  0  1  0  0  0  0  0  0  0  0
   20.8276   -5.6493   -5.0134 O   0  0  0  1  0  0  0  0  0  0  0  0
   22.0808   -3.6260   -4.2304 O   0  0  0  0  0  0  0  0  0  0  0  0
   22.4488   -4.7330   -6.4995 O   0  0  0  1  0  0  0  0  0  0  0  0
   22.4192   -0.3453   -6.1185 C   0  0  0  1  0  0  0  0  0  0  0  0
   21.6265    0.3466   -6.3130 H   0  0  0  1  0  0  0  0  0  0  0  0
   23.2007   -0.2038   -6.8354 H   0  0  0  1  0  0  0  0  0  0  0  0
   22.9663   -0.0828   -4.7463 C   0  0  0  1  0  0  0  0  0  0  0  0
   23.7992   -0.6294   -4.4476 H   0  0  0  1  0  0  0  0  0  0  0  0
   22.4638    0.8000   -3.8801 C   0  0  0  1  0  0  0  0  0  0  0  0
   22.8439    0.7744   -2.4519 C   0  0  0  1  0  0  0  0  0  0  0  0
   23.0749    1.7670   -2.1260 H   0  0  0  1  0  0  0  0  0  0  0  0
   23.7017    0.1481   -2.3226 H   0  0  0  1  0  0  0  0  0  0  0  0
   22.0302    0.3896   -1.8734 H   0  0  0  1  0  0  0  0  0  0  0  0
   21.5689    1.9091   -4.3609 C   0  0  0  1  0  0  0  0  0  0  0  0
   20.6277    1.8140   -3.8609 H   0  0  0  1  0  0  0  0  0  0  0  0
   21.4278    1.7861   -5.4144 H   0  0  0  1  0  0  0  0  0  0  0  0
   22.0884    3.3169   -4.1185 C   0  0  0  1  0  0  0  0  0  0  0  0
   22.9352    3.4916   -4.7488 H   0  0  0  1  0  0  0  0  0  0  0  0
   22.3804    3.4114   -3.0935 H   0  0  0  1  0  0  0  0  0  0  0  0
   21.0258    4.3381   -4.4252 C   0  0  0  1  0  0  0  0  0  0  0  0
   20.5119    4.2176   -5.3213 H   0  0  0  1  0  0  0  0  0  0  0  0
   20.6736    5.3759   -3.6759 C   0  0  0  1  0  0  0  0  0  0  0  0
   19.3947    6.1211   -3.9260 C   0  0  0  1  0  0  0  0  0  0  0  0
   19.6004    7.1685   -4.0003 H   0  0  0  1  0  0  0  0  0  0  0  0
   18.7169    5.9476   -3.1165 H   0  0  0  1  0  0  0  0  0  0  0  0
   18.9554    5.7785   -4.8395 H   0  0  0  1  0  0  0  0  0  0  0  0
   21.4919    5.8994   -2.5325 C   0  0  0  1  0  0  0  0  0  0  0  0
   21.7961    6.8965   -2.7737 H   0  0  0  1  0  0  0  0  0  0  0  0
   22.3562    5.2766   -2.4328 H   0  0  0  1  0  0  0  0  0  0  0  0
   20.7837    5.9374   -1.1881 C   0  0  0  1  0  0  0  0  0  0  0  0
   20.4143    4.9572   -0.9699 H   0  0  0  1  0  0  0  0  0  0  0  0
   19.9637    6.6216   -1.2544 H   0  0  0  1  0  0  0  0  0  0  0  0
   21.6756    6.3704   -0.0681 C   0  0  0  1  0  0  0  0  0  0  0  0
   22.4227    5.7129    0.2338 H   0  0  0  1  0  0  0  0  0  0  0  0
   21.5846    7.5314    0.5694 C   0  0  0  1  0  0  0  0  0  0  0  0
   20.7727    8.6761    0.0063 C   0  0  0  1  0  0  0  0  0  0  0  0
   20.8726    8.6729   -1.0590 H   0  0  0  1  0  0  0  0  0  0  0  0
   21.1596    9.5934    0.3985 H   0  0  0  1  0  0  0  0  0  0  0  0
   22.2588    7.8238    1.8802 C   0  0  0  1  0  0  0  0  0  0  0  0
   23.2126    7.3395    1.9072 H   0  0  0  1  0  0  0  0  0  0  0  0
   21.6515    7.4597    2.6824 H   0  0  0  1  0  0  0  0  0  0  0  0
   22.3925    8.8802    1.9845 H   0  0  0  1  0  0  0  0  0  0  0  0
   19.2957    8.5862    0.3539 C   0  0  0  1  0  0  0  0  0  0  0  0
   19.2014    8.6647    1.4169 H   0  0  0  1  0  0  0  0  0  0  0  0
   18.9389    7.6297    0.0334 H   0  0  0  1  0  0  0  0  0  0  0  0
   18.4208    9.6408   -0.2691 C   0  0  0  1  0  0  0  0  0  0  0  0
   18.8274   10.1677   -1.0683 H   0  0  0  1  0  0  0  0  0  0  0  0
   17.1736    9.9748    0.0947 C   0  0  0  1  0  0  0  0  0  0  0  0
   16.4257    9.3241    1.2237 C   0  0  0  1  0  0  0  0  0  0  0  0
   15.8646   10.0690    1.7483 H   0  0  0  1  0  0  0  0  0  0  0  0
   17.1261    8.8681    1.8919 H   0  0  0  1  0  0  0  0  0  0  0  0
   16.3586   11.0441   -0.5784 C   0  0  0  1  0  0  0  0  0  0  0  0
   16.5095   10.9952   -1.6366 H   0  0  0  1  0  0  0  0  0  0  0  0
   16.6640   12.0044   -0.2188 H   0  0  0  1  0  0  0  0  0  0  0  0
   15.3222   10.8935   -0.3589 H   0  0  0  1  0  0  0  0  0  0  0  0
   15.4741    8.2616    0.6982 C   0  0  0  1  0  0  0  0  0  0  0  0
   15.0014    7.7854    1.5317 H   0  0  0  1  0  0  0  0  0  0  0  0
   16.0403    7.5393    0.1482 H   0  0  0  1  0  0  0  0  0  0  0  0
   14.4060    8.8205   -0.2033 C   0  0  0  1  0  0  0  0  0  0  0  0
   13.7322    9.4828    0.2315 H   0  0  0  1  0  0  0  0  0  0  0  0
   14.2306    8.5595   -1.4943 C   0  0  0  1  0  0  0  0  0  0  0  0
   15.1065    7.6295   -2.2825 C   0  0  0  1  0  0  0  0  0  0  0  0
   14.5593    6.7260   -2.4532 H   0  0  0  1  0  0  0  0  0  0  0  0
   15.9744    7.4157   -1.6944 H   0  0  0  1  0  0  0  0  0  0  0  0
   13.1159    9.1909   -2.2799 C   0  0  0  1  0  0  0  0  0  0  0  0
   12.1766    8.8115   -1.9353 H   0  0  0  1  0  0  0  0  0  0  0  0
   13.2350    8.9586   -3.3175 H   0  0  0  1  0  0  0  0  0  0  0  0
   13.1422   10.2522   -2.1461 H   0  0  0  1  0  0  0  0  0  0  0  0
   15.5715    8.1577   -3.6298 C   0  0  0  1  0  0  0  0  0  0  0  0
   16.1102    9.0685   -3.4710 H   0  0  0  1  0  0  0  0  0  0  0  0
   14.7106    8.3527   -4.2347 H   0  0  0  1  0  0  0  0  0  0  0  0
   16.4593    7.2005   -4.3597 C   0  0  0  1  0  0  0  0  0  0  0  0
   17.3943    7.0481   -3.9304 H   0  0  0  1  0  0  0  0  0  0  0  0
   16.2295    6.5130   -5.4799 C   0  0  0  1  0  0  0  0  0  0  0  0
   14.8393    6.3648   -6.0304 C   0  0  0  1  0  0  0  0  0  0  0  0
   14.8637    6.5771   -7.0788 H   0  0  0  1  0  0  0  0  0  0  0  0
   14.2012    7.0688   -5.5382 H   0  0  0  1  0  0  0  0  0  0  0  0
   17.3500    5.8603   -6.2352 C   0  0  0  1  0  0  0  0  0  0  0  0
   17.6226    4.9462   -5.7503 H   0  0  0  1  0  0  0  0  0  0  0  0
   18.1943    6.5171   -6.2583 H   0  0  0  1  0  0  0  0  0  0  0  0
   17.0319    5.6521   -7.2354 H   0  0  0  1  0  0  0  0  0  0  0  0
   14.2658    4.9712   -5.8322 C   0  0  0  1  0  0  0  0  0  0  0  0
   15.0737    4.2715   -5.8833 H   0  0  0  1  0  0  0  0  0  0  0  0
   13.5777    4.7810   -6.6292 H   0  0  0  1  0  0  0  0  0  0  0  0
   13.5464    4.7518   -4.5393 C   0  0  0  1  0  0  0  0  0  0  0  0
   14.0564    4.9753   -3.6609 H   0  0  0  1  0  0  0  0  0  0  0  0
   12.3044    4.2926   -4.4293 C   0  0  0  1  0  0  0  0  0  0  0  0
   11.5524    3.6230   -5.5614 C   0  0  0  1  0  0  0  0  0  0  0  0
   11.2608    4.3565   -6.2837 H   0  0  0  1  0  0  0  0  0  0  0  0
   10.6815    3.1349   -5.1764 H   0  0  0  1  0  0  0  0  0  0  0  0
   11.5351    4.4060   -3.1433 C   0  0  0  1  0  0  0  0  0  0  0  0
   11.5611    3.4688   -2.6277 H   0  0  0  1  0  0  0  0  0  0  0  0
   10.5197    4.6670   -3.3573 H   0  0  0  1  0  0  0  0  0  0  0  0
   11.9767    5.1629   -2.5294 H   0  0  0  1  0  0  0  0  0  0  0  0
   12.4675    2.5988   -6.2126 C   0  0  0  1  0  0  0  0  0  0  0  0
   12.8750    1.9612   -5.4561 H   0  0  0  1  0  0  0  0  0  0  0  0
   13.2621    3.1084   -6.7163 H   0  0  0  1  0  0  0  0  0  0  0  0
   11.7090    1.7617   -7.2076 C   0  0  0  1  0  0  0  0  0  0  0  0
   11.0859    1.0173   -6.8344 H   0  0  0  1  0  0  0  0  0  0  0  0
   11.7761    1.9029   -8.5260 C   0  0  0  1  0  0  0  0  0  0  0  0
   12.6491    2.9508   -9.1562 C   0  0  0  1  0  0  0  0  0  0  0  0
   13.0376    3.5804   -8.3831 H   0  0  0  1  0  0  0  0  0  0  0  0
   12.0519    3.5341   -9.8255 H   0  0  0  1  0  0  0  0  0  0  0  0
   11.0097    1.0558   -9.4992 C   0  0  0  1  0  0  0  0  0  0  0  0
   11.6818    0.6510  -10.2268 H   0  0  0  1  0  0  0  0  0  0  0  0
   10.2721    1.6557   -9.9901 H   0  0  0  1  0  0  0  0  0  0  0  0
   10.5289    0.2567   -8.9747 H   0  0  0  1  0  0  0  0  0  0  0  0
   13.8157    2.3646   -9.9345 C   0  0  0  1  0  0  0  0  0  0  0  0
   13.4271    1.7894  -10.7488 H   0  0  0  1  0  0  0  0  0  0  0  0
   14.3747    1.7272   -9.2817 H   0  0  0  1  0  0  0  0  0  0  0  0
   14.7419    3.4141  -10.4883 C   0  0  0  1  0  0  0  0  0  0  0  0
   15.0866    4.2065   -9.9095 H   0  0  0  1  0  0  0  0  0  0  0  0
   15.0924    3.2666  -11.7615 C   0  0  0  1  0  0  0  0  0  0  0  0
   15.7311    4.3530  -12.5824 C   0  0  0  1  0  0  0  0  0  0  0  0
   16.4080    3.9014  -13.2773 H   0  0  0  1  0  0  0  0  0  0  0  0
   16.2729    5.0017  -11.9263 H   0  0  0  1  0  0  0  0  0  0  0  0
   14.8717    1.9745  -12.4921 C   0  0  0  1  0  0  0  0  0  0  0  0
   15.7663    1.8080  -13.0551 H   0  0  0  1  0  0  0  0  0  0  0  0
   14.0281    2.0540  -13.1455 H   0  0  0  1  0  0  0  0  0  0  0  0
   14.7124    1.1754  -11.7986 H   0  0  0  1  0  0  0  0  0  0  0  0
   14.7224    5.1832  -13.3594 C   0  0  0  1  0  0  0  0  0  0  0  0
   14.0171    5.5960  -12.6688 H   0  0  0  1  0  0  0  0  0  0  0  0
   14.2139    4.5429  -14.0495 H   0  0  0  1  0  0  0  0  0  0  0  0
   15.3486    6.2988  -14.1211 C   0  0  0  1  0  0  0  0  0  0  0  0
   15.7272    7.1191  -13.6059 H   0  0  0  1  0  0  0  0  0  0  0  0
   15.4328    6.2661  -15.4481 C   0  0  0  1  0  0  0  0  0  0  0  0
   15.1403    5.0455  -16.2714 C   0  0  0  1  0  0  0  0  0  0  0  0
   14.7599    4.2708  -15.6389 H   0  0  0  1  0  0  0  0  0  0  0  0
   16.0400    4.7103  -16.7438 H   0  0  0  1  0  0  0  0  0  0  0  0
   14.4126    5.2854  -17.0183 H   0  0  0  1  0  0  0  0  0  0  0  0
   15.8383    7.4829  -16.2440 C   0  0  0  1  0  0  0  0  0  0  0  0
   15.0570    8.2066  -16.1414 H   0  0  0  1  0  0  0  0  0  0  0  0
   15.9618    7.2215  -17.2742 H   0  0  0  1  0  0  0  0  0  0  0  0
   16.7564    7.8794  -15.8636 H   0  0  0  1  0  0  0  0  0  0  0  0
   16.3510   -5.0254   -1.8011 C   0  0  0  1  0  0  0  0  0  0  0  0
   16.7785   -5.5326   -0.9616 H   0  0  0  1  0  0  0  0  0  0  0  0
   15.0555   -5.6975   -2.1723 C   0  0  0  1  0  0  0  0  0  0  0  0
   15.2544   -6.7041   -2.4758 H   0  0  0  1  0  0  0  0  0  0  0  0
   16.1470   -3.6619   -1.4624 O   0  0  0  1  0  0  0  0  0  0  0  0
   14.3891   -4.9585   -3.3056 C   0  0  0  1  0  0  0  0  0  0  0  0
   13.4006   -5.3440   -3.4438 H   0  0  0  1  0  0  0  0  0  0  0  0
   15.6500   -2.9156   -2.5706 C   0  0  0  1  0  0  0  0  0  0  0  0
   16.3421   -2.9814   -3.3840 H   0  0  0  1  0  0  0  0  0  0  0  0
   14.3079   -3.4818   -3.0010 C   0  0  0  1  0  0  0  0  0  0  0  0
   13.9806   -2.9654   -3.8791 H   0  0  0  1  0  0  0  0  0  0  0  0
   17.2443   -5.0994   -2.9062 O   0  0  0  1  0  0  0  0  0  0  0  0
   14.1863   -5.7042   -1.0384 O   0  0  0  1  0  0  0  0  0  0  0  0
   13.3689   -6.1544   -1.2638 H   0  0  0  1  0  0  0  0  0  0  0  0
   15.1428   -5.1491   -4.4942 O   0  0  0  1  0  0  0  0  0  0  0  0
   14.5921   -5.5694   -5.1588 H   0  0  0  1  0  0  0  0  0  0  0  0
   15.4796   -1.4605   -2.1658 C   0  0  0  1  0  0  0  0  0  0  0  0
   15.2502   -1.4045   -1.1222 H   0  0  0  1  0  0  0  0  0  0  0  0
   14.6816   -1.0247   -2.7300 H   0  0  0  1  0  0  0  0  0  0  0  0
   16.3869   -0.9278   -2.3604 H   0  0  0  1  0  0  0  0  0  0  0  0
   19.9003   -5.7001   -3.9582 C   0  0  0  1  0  0  0  0  0  0  0  0
   19.7241   -4.7111   -3.5897 H   0  0  0  1  0  0  0  0  0  0  0  0
   18.6078   -6.2888   -4.4538 C   0  0  0  1  0  0  0  0  0  0  0  0
   18.7938   -7.2598   -4.8631 H   0  0  0  1  0  0  0  0  0  0  0  0
   20.4145   -6.5073   -2.9165 O   0  0  0  1  0  0  0  0  0  0  0  0
   17.6329   -6.4055   -3.3182 C   0  0  0  1  0  0  0  0  0  0  0  0
   16.7719   -6.9452   -3.6534 H   0  0  0  1  0  0  0  0  0  0  0  0
   19.5564   -6.4826   -1.7618 C   0  0  0  1  0  0  0  0  0  0  0  0
   20.0114   -7.0260   -0.9602 H   0  0  0  1  0  0  0  0  0  0  0  0
   18.2395   -7.1317   -2.1403 C   0  0  0  1  0  0  0  0  0  0  0  0
   17.5677   -7.0837   -1.3089 H   0  0  0  1  0  0  0  0  0  0  0  0
   18.0481   -5.4265   -5.4839 N   0  0  0  1  0  0  0  0  0  0  0  0
   17.6872   -4.5478   -5.2430 H   0  0  0  1  0  0  0  0  0  0  0  0
   18.4666   -8.4930   -2.4899 O   0  0  0  1  0  0  0  0  0  0  0  0
   19.3187   -8.5217   -2.9311 H   0  0  0  1  0  0  0  0  0  0  0  0
   19.3196   -5.0628   -1.3340 C   0  0  0  1  0  0  0  0  0  0  0  0
   18.3928   -5.0148   -0.8013 H   0  0  0  1  0  0  0  0  0  0  0  0
   19.2622   -4.4463   -2.2067 H   0  0  0  1  0  0  0  0  0  0  0  0
   20.3567   -4.5681   -0.4923 O   0  0  0  1  0  0  0  0  0  0  0  0
   21.1970   -4.7181   -0.9315 H   0  0  0  1  0  0  0  0  0  0  0  0
   18.0250   -5.8343   -6.7697 C   0  0  0  1  0  0  0  0  0  0  0  0
   18.5327   -6.8895   -7.1471 O   0  0  0  1  0  0  0  0  0  0  0  0
   17.3266   -4.9048   -7.7431 C   0  0  0  1  0  0  0  0  0  0  0  0
   17.9184   -4.0135   -7.7315 H   0  0  0  1  0  0  0  0  0  0  0  0
   16.3273   -4.6999   -7.4200 H   0  0  0  1  0  0  0  0  0  0  0  0
   17.3043   -5.3315   -8.7241 H   0  0  0  1  0  0  0  0  0  0  0  0
  1  2  1  0  0  0  0
  1  3  1  0  0  0  0
  1  4  1  0  0  0  0
  1 44  1  0  0  0  0
  3 20  1  0  0  0  0
  4  5  1  0  0  0  0
  4  6  1  0  0  0  0
  4  8  1  0  0  0  0
  6  7  1  0  0  0  0
  8  9  1  0  0  0  0
  8 10  1  0  0  0  0
  8 20  1  0  0  0  0
 10 11  1  0  0  0  0
 12 13  1  0  0  0  0
 12 14  1  0  0  0  0
 12 15  1  0  0  0  0
 12 17  1  0  0  0  0
 15 16  1  0  0  0  0
 17 18  1  0  0  0  0
 17 19  1  0  0  0  0
 17 20  1  0  0  0  0
 19 22  1  0  0  0  0
 20 21  1  0  0  0  0
 22 23  1  0  0  0  0
 22 24  1  0  0  0  0
 22 25  1  0  0  0  0
 24 42  1  0  0  0  0
 25 26  1  0  0  0  0
 25 27  1  0  0  0  0
 25 29  1  0  0  0  0
 27 28  1  0  0  0  0
 29 30  1  0  0  0  0
 29 31  1  0  0  0  0
 29 42  1  0  0  0  0
 31 32  1  0  0  0  0
 33 34  1  0  0  0  0
 33 35  1  0  0  0  0
 33 36  1  0  0  0  0
 33 38  1  0  0  0  0
 36 37  1  0  0  0  0
 38 39  1  0  0  0  0
 38 40  1  0  0  0  0
 38 42  1  0  0  0  0
 40 41  1  0  0  0  0
 42 43  1  0  0  0  0
 44194  1  0  0  0  0
 45 46  1  0  0  0  0
 45 54  1  0  0  0  0
 46 47  1  0  0  0  0
 46 48  1  0  0  0  0
 46 49  2  0  0  0  0
 47 50  1  0  0  0  0
 50 51  1  0  0  0  0
 50 52  1  0  0  0  0
 50 53  2  0  0  0  0
 51205  1  0  0  0  0
 54 55  1  0  0  0  0
 54 56  1  0  0  0  0
 54 57  1  0  0  0  0
 57 58  1  0  0  0  0
 57 59  2  0  0  0  0
 59 60  1  0  0  0  0
 59 64  1  0  0  0  0
 60 61  1  0  0  0  0
 60 62  1  0  0  0  0
 60 63  1  0  0  0  0
 64 65  1  0  0  0  0
 64 66  1  0  0  0  0
 64 67  1  0  0  0  0
 67 68  1  0  0  0  0
 67 69  1  0  0  0  0
 67 70  1  0  0  0  0
 70 71  1  0  0  0  0
 70 72  2  0  0  0  0
 72 73  1  0  0  0  0
 72 77  1  0  0  0  0
 73 74  1  0  0  0  0
 73 75  1  0  0  0  0
 73 76  1  0  0  0  0
 77 78  1  0  0  0  0
 77 79  1  0  0  0  0
 77 80  1  0  0  0  0
 80 81  1  0  0  0  0
 80 82  1  0  0  0  0
 80 83  1  0  0  0  0
 83 84  1  0  0  0  0
 83 85  2  0  0  0  0
 85 86  1  0  0  0  0
 85 89  1  0  0  0  0
 86 87  1  0  0  0  0
 86 88  1  0  0  0  0
 86 93  1  0  0  0  0
 89 90  1  0  0  0  0
 89 91  1  0  0  0  0
 89 92  1  0  0  0  0
 93 94  1  0  0  0  0
 93 95  1  0  0  0  0
 93 96  1  0  0  0  0
 96 97  1  0  0  0  0
 96 98  2  0  0  0  0
 98 99  1  0  0  0  0
 98102  1  0  0  0  0
 99100  1  0  0  0  0
 99101  1  0  0  0  0
 99106  1  0  0  0  0
102103  1  0  0  0  0
102104  1  0  0  0  0
102105  1  0  0  0  0
106107  1  0  0  0  0
106108  1  0  0  0  0
106109  1  0  0  0  0
109110  1  0  0  0  0
109111  2  0  0  0  0
111112  1  0  0  0  0
111115  1  0  0  0  0
112113  1  0  0  0  0
112114  1  0  0  0  0
112119  1  0  0  0  0
115116  1  0  0  0  0
115117  1  0  0  0  0
115118  1  0  0  0  0
119120  1  0  0  0  0
119121  1  0  0  0  0
119122  1  0  0  0  0
122123  1  0  0  0  0
122124  2  0  0  0  0
124125  1  0  0  0  0
124128  1  0  0  0  0
125126  1  0  0  0  0
125127  1  0  0  0  0
125132  1  0  0  0  0
128129  1  0  0  0  0
128130  1  0  0  0  0
128131  1  0  0  0  0
132133  1  0  0  0  0
132134  1  0  0  0  0
132135  1  0  0  0  0
135136  1  0  0  0  0
135137  2  0  0  0  0
137138  1  0  0  0  0
137141  1  0  0  0  0
138139  1  0  0  0  0
138140  1  0  0  0  0
138145  1  0  0  0  0
141142  1  0  0  0  0
141143  1  0  0  0  0
141144  1  0  0  0  0
145146  1  0  0  0  0
145147  1  0  0  0  0
145148  1  0  0  0  0
148149  1  0  0  0  0
148150  2  0  0  0  0
150151  1  0  0  0  0
150154  1  0  0  0  0
151152  1  0  0  0  0
151153  1  0  0  0  0
151158  1  0  0  0  0
154155  1  0  0  0  0
154156  1  0  0  0  0
154157  1  0  0  0  0
158159  1  0  0  0  0
158160  1  0  0  0  0
158161  1  0  0  0  0
161162  1  0  0  0  0
161163  2  0  0  0  0
163164  1  0  0  0  0
163167  1  0  0  0  0
164165  1  0  0  0  0
164166  1  0  0  0  0
164171  1  0  0  0  0
167168  1  0  0  0  0
167169  1  0  0  0  0
167170  1  0  0  0  0
171172  1  0  0  0  0
171173  1  0  0  0  0
171174  1  0  0  0  0
174175  1  0  0  0  0
174176  2  0  0  0  0
176177  1  0  0  0  0
176181  1  0  0  0  0
177178  1  0  0  0  0
177179  1  0  0  0  0
177180  1  0  0  0  0
181182  1  0  0  0  0
181183  1  0  0  0  0
181184  1  0  0  0  0
185186  1  0  0  0  0
185187  1  0  0  0  0
185189  1  0  0  0  0
185196  1  0  0  0  0
187188  1  0  0  0  0
187190  1  0  0  0  0
187197  1  0  0  0  0
189192  1  0  0  0  0
190191  1  0  0  0  0
190194  1  0  0  0  0
190199  1  0  0  0  0
192193  1  0  0  0  0
192194  1  0  0  0  0
192201  1  0  0  0  0
194195  1  0  0  0  0
196210  1  0  0  0  0
197198  1  0  0  0  0
199200  1  0  0  0  0
201202  1  0  0  0  0
201203  1  0  0  0  0
201204  1  0  0  0  0
205206  1  0  0  0  0
205207  1  0  0  0  0
205209  1  0  0  0  0
207208  1  0  0  0  0
207210  1  0  0  0  0
207216  1  0  0  0  0
209212  1  0  0  0  0
210211  1  0  0  0  0
210214  1  0  0  0  0
212213  1  0  0  0  0
212214  1  0  0  0  0
212220  1  0  0  0  0
214215  1  0  0  0  0
214218  1  0  0  0  0
216217  1  0  0  0  0
216225  1  0  0  0  0
218219  1  0  0  0  0
220221  1  0  0  0  0
220222  1  0  0  0  0
220223  1  0  0  0  0
223224  1  0  0  0  0
225226  2  0  0  0  0
225227  1  0  0  0  0
227228  1  0  0  0  0
227229  1  0  0  0  0
227230  1  0  0  0  0
M  BCL ATM C_TeTeTeTe H_S O_Te2Te2TeTe C_TeTeTeTe H_S O_Te2Te2TeTe H_S C_TeTeTeTe H_S O_Te2Te2TeTe H_S C_TeTeTeTe H_S H_S O_Te2Te2TeTe H_S C_TeTeTeTe H_S O_Te2Te2TeTe C_TeTeTeTe H_S C_TeTeTeTe H_S O_Te2Te2TeTe C_TeTeTeTe H_S O_Te2Te2TeTe H_S C_TeTeTeTe H_S O_Te2Te2TeTe H_S C_TeTeTeTe H_S H_S O_Te2Te2TeTe H_S C_TeTeTeTe H_S O_Te2Te2TeTe H_S C_TeTeTeTe H_S O_Te2Te2TeTe O_Tr2TrTrPi2 P_TeTeTeTePi O_Tr2TrTrPi2 O_Te2Te2TeTe O_Tr2Tr2TrPi P_TeTeTeTePi O_Tr2TrTrPi2 O_Te2Te2TeTe O_Tr2Tr2TrPi C_TeTeTeTe H_S H_S C_TrTrTrPi H_S C_TrTrTrPi C_TeTeTeTe H_S H_S H_S C_TeTeTeTe H_S H_S C_TeTeTeTe H_S H_S C_TrTrTrPi H_S C_TrTrTrPi C_TeTeTeTe H_S H_S H_S C_TeTeTeTe H_S H_S C_TeTeTeTe H_S H_S C_TrTrTrPi H_S C_TrTrTrPi C_TeTeTeTe H_S H_S C_TeTeTeTe H_S H_S H_S C_TeTeTeTe H_S H_S C_TrTrTrPi H_S C_TrTrTrPi C_TeTeTeTe H_S H_S C_TeTeTeTe H_S H_S H_S C_TeTeTeTe H_S H_S C_TrTrTrPi H_S C_TrTrTrPi C_TeTeTeTe H_S H_S C_TeTeTeTe H_S H_S H_S C_TeTeTeTe H_S H_S C_TrTrTrPi H_S C_TrTrTrPi C_TeTeTeTe H_S H_S C_TeTeTeTe H_S H_S H_S C_TeTeTeTe H_S H_S C_TrTrTrPi H_S C_TrTrTrPi C_TeTeTeTe H_S H_S C_TeTeTeTe H_S H_S H_S C_TeTeTeTe H_S H_S C_TrTrTrPi H_S C_TrTrTrPi C_TeTeTeTe H_S H_S C_TeTeTeTe H_S H_S H_S C_TeTeTeTe H_S H_S C_TrTrTrPi H_S C_TrTrTrPi C_TeTeTeTe H_S H_S C_TeTeTeTe H_S H_S H_S C_TeTeTeTe H_S H_S C_TrTrTrPi H_S C_TrTrTrPi C_TeTeTeTe H_S H_S H_S C_TeTeTeTe H_S H_S H_S C_TeTeTeTe H_S C_TeTeTeTe H_S O_Te2Te2TeTe C_TeTeTeTe H_S C_TeTeTeTe H_S C_TeTeTeTe H_S O_Te2Te2TeTe O_Te2Te2TeTe H_S O_Te2Te2TeTe H_S C_TeTeTeTe H_S H_S H_S C_TeTeTeTe H_S C_TeTeTeTe H_S O_Te2Te2TeTe C_TeTeTeTe H_S C_TeTeTeTe H_S C_TeTeTeTe H_S N_TrTrTrPi2 H_S O_Te2Te2TeTe H_S C_TeTeTeTe H_S H_S O_Te2Te2TeTe H_S C_TrTrTrPi O_Tr2Tr2TrPi C_TeTeTeTe H_S H_S H_S
M  BCL BND NonConjugatedSingleBond NonConjugatedSingleBondInRing NonConjugatedSingleBondInRing NonConjugatedSingleBond NonConjugatedSingleBondInRing NonConjugatedSingleBond NonConjugatedSingleBond NonConjugatedSingleBondInRing NonConjugatedSingleBond NonConjugatedSingleBond NonConjugatedSingleBond NonConjugatedSingleBondInRing NonConjugatedSingleBond NonConjugatedSingleBond NonConjugatedSingleBond NonConjugatedSingleBond NonConjugatedSingleBond NonConjugatedSingleBond NonConjugatedSingleBond NonConjugatedSingleBond NonConjugatedSingleBond NonConjugatedSingleBond NonConjugatedSingleBond NonConjugatedSingleBond NonConjugatedSingleBondInRing NonConjugatedSingleBondInRing NonConjugatedSingleBondInRing NonConjugatedSingleBond NonConjugatedSingleBond NonConjugatedSingleBondInRing NonConjugatedSingleBond NonConjugatedSingleBond NonConjugatedSingleBond NonConjugatedSingleBondInRing NonConjugatedSingleBond NonConjugatedSingleBond NonConjugatedSingleBond NonConjugatedSingleBond NonConjugatedSingleBond NonConjugatedSingleBond NonConjugatedSingleBond NonConjugatedSingleBond NonConjugatedSingleBond NonConjugatedSingleBond NonConjugatedSingleBond NonConjugatedSingleBond ConjugatedSingleBond NonConjugatedSingleBond ConjugatedSingleBond ConjugatedSingleBond ConjugatedDoubleBond ConjugatedSingleBond ConjugatedSingleBond ConjugatedSingleBond ConjugatedDoubleBond NonConjugatedSingleBond NonConjugatedSingleBond NonConjugatedSingleBond NonConjugatedSingleBond NonConjugatedSingleBond ConjugatedDoubleBond NonConjugatedSingleBond NonConjugatedSingleBond NonConjugatedSingleBond NonConjugatedSingleBond NonConjugatedSingleBond NonConjugatedSingleBond NonConjugatedSingleBond NonConjugatedSingleBond NonConjugatedSingleBond NonConjugatedSingleBond NonConjugatedSingleBond NonConjugatedSingleBond ConjugatedDoubleBond NonConjugatedSingleBond NonConjugatedSingleBond NonConjugatedSingleBond NonConjugatedSingleBond NonConjugatedSingleBond NonConjugatedSingleBond NonConjugatedSingleBond NonConjugatedSingleBond NonConjugatedSingleBond NonConjugatedSingleBond NonConjugatedSingleBond NonConjugatedSingleBond ConjugatedDoubleBond NonConjugatedSingleBond NonConjugatedSingleBond NonConjugatedSingleBond NonConjugatedSingleBond NonConjugatedSingleBond NonConjugatedSingleBond NonConjugatedSingleBond NonConjugatedSingleBond NonConjugatedSingleBond NonConjugatedSingleBond NonConjugatedSingleBond NonConjugatedSingleBond ConjugatedDoubleBond NonConjugatedSingleBond NonConjugatedSingleBond NonConjugatedSingleBond NonConjugatedSingleBond NonConjugatedSingleBond NonConjugatedSingleBond NonConjugatedSingleBond NonConjugatedSingleBond NonConjugatedSingleBond NonConjugatedSingleBond NonConjugatedSingleBond NonConjugatedSingleBond ConjugatedDoubleBond NonConjugatedSingleBond NonConjugatedSingleBond NonConjugatedSingleBond NonConjugatedSingleBond NonConjugatedSingleBond NonConjugatedSingleBond NonConjugatedSingleBond NonConjugatedSingleBond NonConjugatedSingleBond NonConjugatedSingleBond NonConjugatedSingleBond NonConjugatedSingleBond ConjugatedDoubleBond NonConjugatedSingleBond NonConjugatedSingleBond NonConjugatedSingleBond NonConjugatedSingleBond NonConjugatedSingleBond NonConjugatedSingleBond NonConjugatedSingleBond NonConjugatedSingleBond NonConjugatedSingleBond NonConjugatedSingleBond NonConjugatedSingleBond NonConjugatedSingleBond ConjugatedDoubleBond NonConjugatedSingleBond NonConjugatedSingleBond NonConjugatedSingleBond NonConjugatedSingleBond NonConjugatedSingleBond NonConjugatedSingleBond NonConjugatedSingleBond NonConjugatedSingleBond NonConjugatedSingleBond NonConjugatedSingleBond NonConjugatedSingleBond NonConjugatedSingleBond ConjugatedDoubleBond NonConjugatedSingleBond NonConjugatedSingleBond NonConjugatedSingleBond NonConjugatedSingleBond NonConjugatedSingleBond NonConjugatedSingleBond NonConjugatedSingleBond NonConjugatedSingleBond NonConjugatedSingleBond NonConjugatedSingleBond NonConjugatedSingleBond NonConjugatedSingleBond ConjugatedDoubleBond NonConjugatedSingleBond NonConjugatedSingleBond NonConjugatedSingleBond NonConjugatedSingleBond NonConjugatedSingleBond NonConjugatedSingleBond NonConjugatedSingleBond NonConjugatedSingleBond NonConjugatedSingleBond NonConjugatedSingleBond NonConjugatedSingleBond NonConjugatedSingleBond ConjugatedDoubleBond NonConjugatedSingleBond NonConjugatedSingleBond NonConjugatedSingleBond NonConjugatedSingleBond NonConjugatedSingleBond NonConjugatedSingleBond NonConjugatedSingleBond NonConjugatedSingleBond NonConjugatedSingleBond NonConjugatedSingleBondInRing NonConjugatedSingleBondInRing NonConjugatedSingleBond NonConjugatedSingleBond NonConjugatedSingleBondInRing NonConjugatedSingleBond NonConjugatedSingleBondInRing NonConjugatedSingleBond NonConjugatedSingleBondInRing NonConjugatedSingleBond NonConjugatedSingleBond NonConjugatedSingleBondInRing NonConjugatedSingleBond NonConjugatedSingleBond NonConjugatedSingleBond NonConjugatedSingleBond NonConjugatedSingleBond NonConjugatedSingleBond NonConjugatedSingleBond NonConjugatedSingleBond NonConjugatedSingleBond NonConjugatedSingleBondInRing NonConjugatedSingleBondInRing NonConjugatedSingleBond NonConjugatedSingleBondInRing NonConjugatedSingleBond NonConjugatedSingleBondInRing NonConjugatedSingleBond NonConjugatedSingleBondInRing NonConjugatedSingleBond NonConjugatedSingleBondInRing NonConjugatedSingleBond NonConjugatedSingleBond NonConjugatedSingleBond NonConjugatedSingleBond AmideSingleBond NonConjugatedSingleBond NonConjugatedSingleBond NonConjugatedSingleBond NonConjugatedSingleBond NonConjugatedSingleBond ConjugatedDoubleBond NonConjugatedSingleBond NonConjugatedSingleBond NonConjugatedSingleBond NonConjugatedSingleBond
M  BCL CHI   1   R   4   R   8   R  17   S  20   R  22   S  25   R  29   S  38   S  42   R  46   R  50   S 185   R 187   S 190   S 192   R 194   R 205   R 207   S 210   R 212   S 214   S
M  BCL DBI - - E E E E E E E E Z - -
M  END
> <ConfClashScore>
0.00250457 

> <ConfOneFourInteractionScore>
-0.970062 

> <ConfScore>
0.302479 

> <ConfScorePBest>
0.0142745 

> <ConfTolerance>
4.17767 

$$$$
L05.****
  PyMOL2.5          3D                             0

230233  0  0  0  0  0  0  0  0999 V2000
   12.0102   -3.2913   -3.1676 C   0  0  0  1  0  0  0  0  0  0  0  0
   12.2164   -3.4074   -4.2111 H   0  0  0  1  0  0  0  0  0  0  0  0
   11.2096   -2.1102   -2.9370 O   0  0  0  1  0  0  0  0  0  0  0  0
   11.1584   -4.4565   -2.6551 C   0  0  0  1  0  0  0  0  0  0  0  0
   11.7650   -5.1883   -2.1637 H   0  0  0  1  0  0  0  0  0  0  0  0
   10.4384   -5.0734   -3.7233 O   0  0  0  1  0  0  0  0  0  0  0  0
   10.7504   -5.9735   -3.8422 H   0  0  0  1  0  0  0  0  0  0  0  0
   10.2189   -3.7926   -1.6829 C   0  0  0  1  0  0  0  0  0  0  0  0
    9.3025   -4.3384   -1.5982 H   0  0  0  1  0  0  0  0  0  0  0  0
   10.8187   -3.6646   -0.3929 O   0  0  0  1  0  0  0  0  0  0  0  0
   10.6394   -2.7894   -0.0415 H   0  0  0  1  0  0  0  0  0  0  0  0
    9.0000   -1.5051   -4.5200 C   0  0  0  1  0  0  0  0  0  0  0  0
    9.9463   -1.6735   -4.9903 H   0  0  0  1  0  0  0  0  0  0  0  0
    8.2138   -1.7039   -5.2181 H   0  0  0  1  0  0  0  0  0  0  0  0
    8.9276   -0.1446   -4.1513 O   0  0  0  1  0  0  0  0  0  0  0  0
    9.3672    0.3913   -4.8155 H   0  0  0  1  0  0  0  0  0  0  0  0
    8.8646   -2.4848   -3.3596 C   0  0  0  1  0  0  0  0  0  0  0  0
    8.8470   -3.4756   -3.7631 H   0  0  0  1  0  0  0  0  0  0  0  0
    7.6244   -2.2204   -2.7124 O   0  0  0  1  0  0  0  0  0  0  0  0
    9.9867   -2.4169   -2.3243 C   0  0  0  1  0  0  0  0  0  0  0  0
    9.7423   -1.6880   -1.5801 H   0  0  0  1  0  0  0  0  0  0  0  0
    7.3728   -3.1350   -1.6816 C   0  0  0  1  0  0  0  0  0  0  0  0
    7.6591   -4.1165   -1.9971 H   0  0  0  1  0  0  0  0  0  0  0  0
    8.0959   -2.7735   -0.5388 O   0  0  0  1  0  0  0  0  0  0  0  0
    5.8787   -3.1177   -1.3219 C   0  0  0  1  0  0  0  0  0  0  0  0
    5.5065   -4.1098   -1.1730 H   0  0  0  1  0  0  0  0  0  0  0  0
    5.1123   -2.4684   -2.3375 O   0  0  0  1  0  0  0  0  0  0  0  0
    4.4245   -3.0616   -2.6485 H   0  0  0  1  0  0  0  0  0  0  0  0
    5.8551   -2.3160   -0.0137 C   0  0  0  1  0  0  0  0  0  0  0  0
    5.0618   -2.6472    0.6234 H   0  0  0  1  0  0  0  0  0  0  0  0
    5.7066   -0.9230   -0.2730 O   0  0  0  1  0  0  0  0  0  0  0  0
    4.8690   -0.6182    0.0835 H   0  0  0  1  0  0  0  0  0  0  0  0
    7.0517   -5.1669    0.6133 C   0  0  0  1  0  0  0  0  0  0  0  0
    6.0762   -5.2251    0.1775 H   0  0  0  1  0  0  0  0  0  0  0  0
    7.7884   -5.1405   -0.1623 H   0  0  0  1  0  0  0  0  0  0  0  0
    7.2663   -6.3254    1.4065 O   0  0  0  1  0  0  0  0  0  0  0  0
    6.7688   -7.0606    1.0411 H   0  0  0  1  0  0  0  0  0  0  0  0
    7.1494   -3.8751    1.4273 C   0  0  0  1  0  0  0  0  0  0  0  0
    8.0515   -3.9245    2.0007 H   0  0  0  1  0  0  0  0  0  0  0  0
    6.0423   -3.7698    2.3215 O   0  0  0  1  0  0  0  0  0  0  0  0
    5.6195   -2.9153    2.2088 H   0  0  0  1  0  0  0  0  0  0  0  0
    7.2027   -2.6097    0.6045 C   0  0  0  1  0  0  0  0  0  0  0  0
    7.5221   -1.7958    1.2213 H   0  0  0  1  0  0  0  0  0  0  0  0
   13.2348   -3.2132   -2.4473 O   0  0  0  1  0  0  0  0  0  0  0  0
   19.7010   -7.5776   -7.8171 O   0  0  0  1  0  0  0  0  0  0  0  0
   19.2715   -7.8950   -6.4038 P   0  0  0  1  0  0  0  0  0  0  0  0
   20.5664   -7.8006   -5.4697 O   0  0  0  1  0  0  0  0  0  0  0  0
   18.8877   -9.3571   -6.2397 O   0  0  0  0  0  0  0  0  0  0  0  0
   18.2625   -6.9363   -5.8229 O   0  0  0  1  0  0  0  0  0  0  0  0
   20.8991   -8.2145   -4.0552 P   0  0  0  1  0  0  0  0  0  0  0  0
   20.9509   -6.9108   -3.1755 O   0  0  0  1  0  0  0  0  0  0  0  0
   22.3280   -8.7190   -3.9304 O   0  0  0  0  0  0  0  0  0  0  0  0
   19.8800   -9.1187   -3.4084 O   0  0  0  1  0  0  0  0  0  0  0  0
   21.0003   -7.9603   -8.2954 C   0  0  0  1  0  0  0  0  0  0  0  0
   21.1252   -9.0180   -8.1924 H   0  0  0  1  0  0  0  0  0  0  0  0
   21.7556   -7.4548   -7.7306 H   0  0  0  1  0  0  0  0  0  0  0  0
   21.1095   -7.5770   -9.7419 C   0  0  0  1  0  0  0  0  0  0  0  0
   20.4070   -7.9725  -10.3989 H   0  0  0  1  0  0  0  0  0  0  0  0
   22.0360   -6.7705  -10.2457 C   0  0  0  1  0  0  0  0  0  0  0  0
   21.9155   -6.2122  -11.6458 C   0  0  0  1  0  0  0  0  0  0  0  0
   21.7271   -5.1601  -11.5958 H   0  0  0  1  0  0  0  0  0  0  0  0
   21.1072   -6.6953  -12.1538 H   0  0  0  1  0  0  0  0  0  0  0  0
   22.8270   -6.3861  -12.1786 H   0  0  0  1  0  0  0  0  0  0  0  0
   23.2696   -6.3381   -9.4992 C   0  0  0  1  0  0  0  0  0  0  0  0
   23.1695   -6.6579   -8.4830 H   0  0  0  1  0  0  0  0  0  0  0  0
   23.3191   -5.2699   -9.5342 H   0  0  0  1  0  0  0  0  0  0  0  0
   24.5817   -6.8862  -10.0361 C   0  0  0  1  0  0  0  0  0  0  0  0
   25.3877   -6.3799   -9.5474 H   0  0  0  1  0  0  0  0  0  0  0  0
   24.6255   -6.6954  -11.0880 H   0  0  0  1  0  0  0  0  0  0  0  0
   24.7378   -8.3569   -9.8121 C   0  0  0  1  0  0  0  0  0  0  0  0
   24.6176   -8.7113   -8.8418 H   0  0  0  1  0  0  0  0  0  0  0  0
   25.0198   -9.2480  -10.7644 C   0  0  0  1  0  0  0  0  0  0  0  0
   25.4818  -10.6340  -10.4197 C   0  0  0  1  0  0  0  0  0  0  0  0
   26.5492  -10.6796  -10.4783 H   0  0  0  1  0  0  0  0  0  0  0  0
   25.0568  -11.3331  -11.1093 H   0  0  0  1  0  0  0  0  0  0  0  0
   25.1686  -10.8772   -9.4259 H   0  0  0  1  0  0  0  0  0  0  0  0
   24.8864   -8.9006  -12.2179 C   0  0  0  1  0  0  0  0  0  0  0  0
   24.1362   -8.1461  -12.3308 H   0  0  0  1  0  0  0  0  0  0  0  0
   24.5982   -9.7753  -12.7626 H   0  0  0  1  0  0  0  0  0  0  0  0
   26.2034   -8.3806  -12.7707 C   0  0  0  1  0  0  0  0  0  0  0  0
   27.0045   -8.8349  -12.2260 H   0  0  0  1  0  0  0  0  0  0  0  0
   26.2350   -7.3198  -12.6341 H   0  0  0  1  0  0  0  0  0  0  0  0
   26.3881   -8.6807  -14.2334 C   0  0  0  1  0  0  0  0  0  0  0  0
   26.0218   -9.5515  -14.6684 H   0  0  0  1  0  0  0  0  0  0  0  0
   27.0478   -7.7658  -14.9357 C   0  0  0  1  0  0  0  0  0  0  0  0
   27.5367   -6.4679  -14.3614 C   0  0  0  1  0  0  0  0  0  0  0  0
   28.5037   -6.2581  -14.7684 H   0  0  0  1  0  0  0  0  0  0  0  0
   27.6112   -6.5721  -13.2991 H   0  0  0  1  0  0  0  0  0  0  0  0
   27.3608   -7.9670  -16.3917 C   0  0  0  1  0  0  0  0  0  0  0  0
   28.4024   -7.7898  -16.5609 H   0  0  0  1  0  0  0  0  0  0  0  0
   26.7831   -7.2836  -16.9783 H   0  0  0  1  0  0  0  0  0  0  0  0
   27.1199   -8.9710  -16.6726 H   0  0  0  1  0  0  0  0  0  0  0  0
   26.6178   -5.2968  -14.6693 C   0  0  0  1  0  0  0  0  0  0  0  0
   25.6539   -5.5014  -14.2522 H   0  0  0  1  0  0  0  0  0  0  0  0
   26.5340   -5.1998  -15.7316 H   0  0  0  1  0  0  0  0  0  0  0  0
   27.1162   -3.9925  -14.1069 C   0  0  0  1  0  0  0  0  0  0  0  0
   28.1416   -3.8889  -13.9679 H   0  0  0  1  0  0  0  0  0  0  0  0
   26.3437   -2.9637  -13.7748 C   0  0  0  1  0  0  0  0  0  0  0  0
   24.9105   -2.8246  -14.2040 C   0  0  0  1  0  0  0  0  0  0  0  0
   24.6387   -3.7105  -14.7390 H   0  0  0  1  0  0  0  0  0  0  0  0
   24.8416   -1.9786  -14.8554 H   0  0  0  1  0  0  0  0  0  0  0  0
   26.8575   -1.8375  -12.9264 C   0  0  0  1  0  0  0  0  0  0  0  0
   27.6223   -1.3104  -13.4574 H   0  0  0  1  0  0  0  0  0  0  0  0
   27.2617   -2.2318  -12.0175 H   0  0  0  1  0  0  0  0  0  0  0  0
   26.0548   -1.1675  -12.6992 H   0  0  0  1  0  0  0  0  0  0  0  0
   23.9088   -2.6316  -13.0772 C   0  0  0  1  0  0  0  0  0  0  0  0
   24.1731   -1.7580  -12.5186 H   0  0  0  1  0  0  0  0  0  0  0  0
   23.9338   -3.4871  -12.4351 H   0  0  0  1  0  0  0  0  0  0  0  0
   22.5249   -2.4663  -13.6203 C   0  0  0  1  0  0  0  0  0  0  0  0
   22.1910   -3.2056  -14.2711 H   0  0  0  1  0  0  0  0  0  0  0  0
   21.6767   -1.4782  -13.3617 C   0  0  0  1  0  0  0  0  0  0  0  0
   22.1372   -0.2022  -12.7190 C   0  0  0  1  0  0  0  0  0  0  0  0
   21.7014    0.6210  -13.2457 H   0  0  0  1  0  0  0  0  0  0  0  0
   23.2033   -0.1492  -12.7926 H   0  0  0  1  0  0  0  0  0  0  0  0
   20.2079   -1.5298  -13.6755 C   0  0  0  1  0  0  0  0  0  0  0  0
   19.9991   -0.8973  -14.5129 H   0  0  0  1  0  0  0  0  0  0  0  0
   19.6501   -1.1932  -12.8268 H   0  0  0  1  0  0  0  0  0  0  0  0
   19.9287   -2.5357  -13.9103 H   0  0  0  1  0  0  0  0  0  0  0  0
   21.7478   -0.0995  -11.2533 C   0  0  0  1  0  0  0  0  0  0  0  0
   22.1525   -0.9363  -10.7233 H   0  0  0  1  0  0  0  0  0  0  0  0
   20.6809   -0.1075  -11.1724 H   0  0  0  1  0  0  0  0  0  0  0  0
   22.2750    1.1622  -10.6525 C   0  0  0  1  0  0  0  0  0  0  0  0
   23.2993    1.3379  -10.6913 H   0  0  0  1  0  0  0  0  0  0  0  0
   21.4965    2.0750  -10.0685 C   0  0  0  1  0  0  0  0  0  0  0  0
   19.9989    1.9590  -10.1059 C   0  0  0  1  0  0  0  0  0  0  0  0
   19.6045    2.3438   -9.1887 H   0  0  0  1  0  0  0  0  0  0  0  0
   19.7397    0.9252  -10.2004 H   0  0  0  1  0  0  0  0  0  0  0  0
   22.0852    3.2542   -9.3508 C   0  0  0  1  0  0  0  0  0  0  0  0
   21.8450    4.1517   -9.8816 H   0  0  0  1  0  0  0  0  0  0  0  0
   23.1483    3.1450   -9.2981 H   0  0  0  1  0  0  0  0  0  0  0  0
   21.6820    3.3067   -8.3611 H   0  0  0  1  0  0  0  0  0  0  0  0
   19.3712    2.7226  -11.2606 C   0  0  0  1  0  0  0  0  0  0  0  0
   19.7964    2.3665  -12.1756 H   0  0  0  1  0  0  0  0  0  0  0  0
   19.5956    3.7623  -11.1433 H   0  0  0  1  0  0  0  0  0  0  0  0
   17.8764    2.5601  -11.3317 C   0  0  0  1  0  0  0  0  0  0  0  0
   17.4356    1.8745  -10.6858 H   0  0  0  1  0  0  0  0  0  0  0  0
   17.0787    3.2268  -12.1575 C   0  0  0  1  0  0  0  0  0  0  0  0
   17.5551    4.4546  -12.8838 C   0  0  0  1  0  0  0  0  0  0  0  0
   17.0792    4.4899  -13.8415 H   0  0  0  1  0  0  0  0  0  0  0  0
   18.6148    4.3837  -13.0139 H   0  0  0  1  0  0  0  0  0  0  0  0
   15.6583    2.8380  -12.4461 C   0  0  0  1  0  0  0  0  0  0  0  0
   15.0248    3.1892  -11.6586 H   0  0  0  1  0  0  0  0  0  0  0  0
   15.5869    1.7724  -12.5126 H   0  0  0  1  0  0  0  0  0  0  0  0
   15.3504    3.2751  -13.3729 H   0  0  0  1  0  0  0  0  0  0  0  0
   17.2440    5.7439  -12.1412 C   0  0  0  1  0  0  0  0  0  0  0  0
   17.7183    5.7078  -11.1827 H   0  0  0  1  0  0  0  0  0  0  0  0
   16.1842    5.8157  -12.0127 H   0  0  0  1  0  0  0  0  0  0  0  0
   17.7226    6.9716  -12.8662 C   0  0  0  1  0  0  0  0  0  0  0  0
   18.7516    7.0714  -12.9796 H   0  0  0  1  0  0  0  0  0  0  0  0
   16.9702    7.9466  -13.3798 C   0  0  0  1  0  0  0  0  0  0  0  0
   15.5231    8.0931  -13.0029 C   0  0  0  1  0  0  0  0  0  0  0  0
   15.4020    9.0116  -12.4675 H   0  0  0  1  0  0  0  0  0  0  0  0
   15.2509    7.2731  -12.3716 H   0  0  0  1  0  0  0  0  0  0  0  0
   17.5389    8.9359  -14.3544 C   0  0  0  1  0  0  0  0  0  0  0  0
   17.4769    9.9208  -13.9407 H   0  0  0  1  0  0  0  0  0  0  0  0
   16.9824    8.8971  -15.2674 H   0  0  0  1  0  0  0  0  0  0  0  0
   18.5630    8.6953  -14.5498 H   0  0  0  1  0  0  0  0  0  0  0  0
   14.5933    8.1076  -14.2052 C   0  0  0  1  0  0  0  0  0  0  0  0
   14.9080    8.9065  -14.8437 H   0  0  0  1  0  0  0  0  0  0  0  0
   13.6060    8.3069  -13.8439 H   0  0  0  1  0  0  0  0  0  0  0  0
   14.5223    6.8613  -15.0450 C   0  0  0  1  0  0  0  0  0  0  0  0
   15.3903    6.5934  -15.5513 H   0  0  0  1  0  0  0  0  0  0  0  0
   13.4617    6.0588  -15.2115 C   0  0  0  1  0  0  0  0  0  0  0  0
   13.5018    4.8310  -16.0792 C   0  0  0  1  0  0  0  0  0  0  0  0
   14.4267    4.8372  -16.6172 H   0  0  0  1  0  0  0  0  0  0  0  0
   12.6865    4.8880  -16.7698 H   0  0  0  1  0  0  0  0  0  0  0  0
   12.1722    6.4002  -14.4989 C   0  0  0  1  0  0  0  0  0  0  0  0
   12.4576    7.0114  -13.6683 H   0  0  0  1  0  0  0  0  0  0  0  0
   11.6863    5.5098  -14.1582 H   0  0  0  1  0  0  0  0  0  0  0  0
   11.5160    6.9381  -15.1507 H   0  0  0  1  0  0  0  0  0  0  0  0
   13.3983    3.5070  -15.3399 C   0  0  0  1  0  0  0  0  0  0  0  0
   12.4569    3.4730  -14.8323 H   0  0  0  1  0  0  0  0  0  0  0  0
   14.1920    3.4535  -14.6242 H   0  0  0  1  0  0  0  0  0  0  0  0
   13.4943    2.3132  -16.2519 C   0  0  0  1  0  0  0  0  0  0  0  0
   14.2689    2.2988  -16.9457 H   0  0  0  1  0  0  0  0  0  0  0  0
   12.6639    1.2774  -16.2365 C   0  0  0  1  0  0  0  0  0  0  0  0
   12.8900    0.0816  -17.1177 C   0  0  0  1  0  0  0  0  0  0  0  0
   13.6212    0.3194  -17.8618 H   0  0  0  1  0  0  0  0  0  0  0  0
   11.9710   -0.1885  -17.5947 H   0  0  0  1  0  0  0  0  0  0  0  0
   13.2387   -0.7376  -16.5243 H   0  0  0  1  0  0  0  0  0  0  0  0
   11.4394    1.1922  -15.3581 C   0  0  0  1  0  0  0  0  0  0  0  0
   10.5832    1.2460  -15.9975 H   0  0  0  1  0  0  0  0  0  0  0  0
   11.4295    2.0068  -14.6644 H   0  0  0  1  0  0  0  0  0  0  0  0
   11.4378    0.2663  -14.8218 H   0  0  0  1  0  0  0  0  0  0  0  0
   15.9087   -5.1882   -1.5932 C   0  0  0  1  0  0  0  0  0  0  0  0
   15.9691   -5.7419   -0.6796 H   0  0  0  1  0  0  0  0  0  0  0  0
   14.7677   -5.7375   -2.4284 C   0  0  0  1  0  0  0  0  0  0  0  0
   15.0271   -6.7216   -2.7589 H   0  0  0  1  0  0  0  0  0  0  0  0
   15.7150   -3.8209   -1.2900 O   0  0  0  1  0  0  0  0  0  0  0  0
   14.4718   -4.8769   -3.6451 C   0  0  0  1  0  0  0  0  0  0  0  0
   13.5407   -5.1826   -4.0746 H   0  0  0  1  0  0  0  0  0  0  0  0
   15.6232   -2.9986   -2.4677 C   0  0  0  1  0  0  0  0  0  0  0  0
   16.4951   -3.1362   -3.0726 H   0  0  0  1  0  0  0  0  0  0  0  0
   14.3838   -3.4123   -3.2516 C   0  0  0  1  0  0  0  0  0  0  0  0
   14.3093   -2.8136   -4.1352 H   0  0  0  1  0  0  0  0  0  0  0  0
   17.1244   -5.3337   -2.3180 O   0  0  0  1  0  0  0  0  0  0  0  0
   13.5943   -5.8013   -1.6158 O   0  0  0  1  0  0  0  0  0  0  0  0
   13.6207   -5.1014   -0.9592 H   0  0  0  1  0  0  0  0  0  0  0  0
   15.5110   -5.0429   -4.5987 O   0  0  0  1  0  0  0  0  0  0  0  0
   16.0886   -5.7580   -4.3221 H   0  0  0  1  0  0  0  0  0  0  0  0
   15.5114   -1.5473   -2.0676 C   0  0  0  1  0  0  0  0  0  0  0  0
   16.4906   -1.1268   -1.9719 H   0  0  0  1  0  0  0  0  0  0  0  0
   14.9990   -1.4743   -1.1311 H   0  0  0  1  0  0  0  0  0  0  0  0
   14.9654   -1.0123   -2.8162 H   0  0  0  1  0  0  0  0  0  0  0  0
   19.8398   -6.0144   -3.1286 C   0  0  0  1  0  0  0  0  0  0  0  0
   19.0352   -6.4120   -3.7113 H   0  0  0  1  0  0  0  0  0  0  0  0
   19.3854   -5.8474   -1.6864 C   0  0  0  1  0  0  0  0  0  0  0  0
   20.2066   -5.5129   -1.0876 H   0  0  0  1  0  0  0  0  0  0  0  0
   20.2274   -4.7537   -3.6568 O   0  0  0  1  0  0  0  0  0  0  0  0
   18.2630   -4.8153   -1.6385 C   0  0  0  1  0  0  0  0  0  0  0  0
   18.0109   -4.6196   -0.6172 H   0  0  0  1  0  0  0  0  0  0  0  0
   19.1392   -3.8148   -3.7295 C   0  0  0  1  0  0  0  0  0  0  0  0
   19.4670   -2.9119   -4.2009 H   0  0  0  1  0  0  0  0  0  0  0  0
   18.6880   -3.5221   -2.3001 C   0  0  0  1  0  0  0  0  0  0  0  0
   17.8628   -2.8411   -2.3176 H   0  0  0  1  0  0  0  0  0  0  0  0
   18.8997   -7.1211   -1.1768 N   0  0  0  1  0  0  0  0  0  0  0  0
   18.0003   -7.4189   -1.4275 H   0  0  0  1  0  0  0  0  0  0  0  0
   19.7650   -2.9450   -1.5694 O   0  0  0  1  0  0  0  0  0  0  0  0
   20.3226   -2.5011   -2.2126 H   0  0  0  1  0  0  0  0  0  0  0  0
   17.9949   -4.4110   -4.5203 C   0  0  0  1  0  0  0  0  0  0  0  0
   17.0822   -4.2323   -3.9912 H   0  0  0  1  0  0  0  0  0  0  0  0
   18.1538   -5.4650   -4.6126 H   0  0  0  1  0  0  0  0  0  0  0  0
   17.8855   -3.8545   -5.8128 O   0  0  0  1  0  0  0  0  0  0  0  0
   16.9651   -3.8995   -6.0821 H   0  0  0  1  0  0  0  0  0  0  0  0
   19.6428   -7.9044   -0.3733 C   0  0  0  1  0  0  0  0  0  0  0  0
   20.8234   -7.6766   -0.1228 O   0  0  0  1  0  0  0  0  0  0  0  0
   18.9307   -9.1058    0.2174 C   0  0  0  1  0  0  0  0  0  0  0  0
   19.6994   -9.8413    0.3318 H   0  0  0  1  0  0  0  0  0  0  0  0
   18.1670   -9.4564   -0.4449 H   0  0  0  1  0  0  0  0  0  0  0  0
   18.4974   -8.8609    1.1646 H   0  0  0  1  0  0  0  0  0  0  0  0
  1  2  1  0  0  0  0
  1  3  1  0  0  0  0
  1  4  1  0  0  0  0
  1 44  1  0  0  0  0
  3 20  1  0  0  0  0
  4  5  1  0  0  0  0
  4  6  1  0  0  0  0
  4  8  1  0  0  0  0
  6  7  1  0  0  0  0
  8  9  1  0  0  0  0
  8 10  1  0  0  0  0
  8 20  1  0  0  0  0
 10 11  1  0  0  0  0
 12 13  1  0  0  0  0
 12 14  1  0  0  0  0
 12 15  1  0  0  0  0
 12 17  1  0  0  0  0
 15 16  1  0  0  0  0
 17 18  1  0  0  0  0
 17 19  1  0  0  0  0
 17 20  1  0  0  0  0
 19 22  1  0  0  0  0
 20 21  1  0  0  0  0
 22 23  1  0  0  0  0
 22 24  1  0  0  0  0
 22 25  1  0  0  0  0
 24 42  1  0  0  0  0
 25 26  1  0  0  0  0
 25 27  1  0  0  0  0
 25 29  1  0  0  0  0
 27 28  1  0  0  0  0
 29 30  1  0  0  0  0
 29 31  1  0  0  0  0
 29 42  1  0  0  0  0
 31 32  1  0  0  0  0
 33 34  1  0  0  0  0
 33 35  1  0  0  0  0
 33 36  1  0  0  0  0
 33 38  1  0  0  0  0
 36 37  1  0  0  0  0
 38 39  1  0  0  0  0
 38 40  1  0  0  0  0
 38 42  1  0  0  0  0
 40 41  1  0  0  0  0
 42 43  1  0  0  0  0
 44194  1  0  0  0  0
 45 46  1  0  0  0  0
 45 54  1  0  0  0  0
 46 47  1  0  0  0  0
 46 48  1  0  0  0  0
 46 49  2  0  0  0  0
 47 50  1  0  0  0  0
 50 51  1  0  0  0  0
 50 52  1  0  0  0  0
 50 53  2  0  0  0  0
 51205  1  0  0  0  0
 54 55  1  0  0  0  0
 54 56  1  0  0  0  0
 54 57  1  0  0  0  0
 57 58  1  0  0  0  0
 57 59  2  0  0  0  0
 59 60  1  0  0  0  0
 59 64  1  0  0  0  0
 60 61  1  0  0  0  0
 60 62  1  0  0  0  0
 60 63  1  0  0  0  0
 64 65  1  0  0  0  0
 64 66  1  0  0  0  0
 64 67  1  0  0  0  0
 67 68  1  0  0  0  0
 67 69  1  0  0  0  0
 67 70  1  0  0  0  0
 70 71  1  0  0  0  0
 70 72  2  0  0  0  0
 72 73  1  0  0  0  0
 72 77  1  0  0  0  0
 73 74  1  0  0  0  0
 73 75  1  0  0  0  0
 73 76  1  0  0  0  0
 77 78  1  0  0  0  0
 77 79  1  0  0  0  0
 77 80  1  0  0  0  0
 80 81  1  0  0  0  0
 80 82  1  0  0  0  0
 80 83  1  0  0  0  0
 83 84  1  0  0  0  0
 83 85  2  0  0  0  0
 85 86  1  0  0  0  0
 85 89  1  0  0  0  0
 86 87  1  0  0  0  0
 86 88  1  0  0  0  0
 86 93  1  0  0  0  0
 89 90  1  0  0  0  0
 89 91  1  0  0  0  0
 89 92  1  0  0  0  0
 93 94  1  0  0  0  0
 93 95  1  0  0  0  0
 93 96  1  0  0  0  0
 96 97  1  0  0  0  0
 96 98  2  0  0  0  0
 98 99  1  0  0  0  0
 98102  1  0  0  0  0
 99100  1  0  0  0  0
 99101  1  0  0  0  0
 99106  1  0  0  0  0
102103  1  0  0  0  0
102104  1  0  0  0  0
102105  1  0  0  0  0
106107  1  0  0  0  0
106108  1  0  0  0  0
106109  1  0  0  0  0
109110  1  0  0  0  0
109111  2  0  0  0  0
111112  1  0  0  0  0
111115  1  0  0  0  0
112113  1  0  0  0  0
112114  1  0  0  0  0
112119  1  0  0  0  0
115116  1  0  0  0  0
115117  1  0  0  0  0
115118  1  0  0  0  0
119120  1  0  0  0  0
119121  1  0  0  0  0
119122  1  0  0  0  0
122123  1  0  0  0  0
122124  2  0  0  0  0
124125  1  0  0  0  0
124128  1  0  0  0  0
125126  1  0  0  0  0
125127  1  0  0  0  0
125132  1  0  0  0  0
128129  1  0  0  0  0
128130  1  0  0  0  0
128131  1  0  0  0  0
132133  1  0  0  0  0
132134  1  0  0  0  0
132135  1  0  0  0  0
135136  1  0  0  0  0
135137  2  0  0  0  0
137138  1  0  0  0  0
137141  1  0  0  0  0
138139  1  0  0  0  0
138140  1  0  0  0  0
138145  1  0  0  0  0
141142  1  0  0  0  0
141143  1  0  0  0  0
141144  1  0  0  0  0
145146  1  0  0  0  0
145147  1  0  0  0  0
145148  1  0  0  0  0
148149  1  0  0  0  0
148150  2  0  0  0  0
150151  1  0  0  0  0
150154  1  0  0  0  0
151152  1  0  0  0  0
151153  1  0  0  0  0
151158  1  0  0  0  0
154155  1  0  0  0  0
154156  1  0  0  0  0
154157  1  0  0  0  0
158159  1  0  0  0  0
158160  1  0  0  0  0
158161  1  0  0  0  0
161162  1  0  0  0  0
161163  2  0  0  0  0
163164  1  0  0  0  0
163167  1  0  0  0  0
164165  1  0  0  0  0
164166  1  0  0  0  0
164171  1  0  0  0  0
167168  1  0  0  0  0
167169  1  0  0  0  0
167170  1  0  0  0  0
171172  1  0  0  0  0
171173  1  0  0  0  0
171174  1  0  0  0  0
174175  1  0  0  0  0
174176  2  0  0  0  0
176177  1  0  0  0  0
176181  1  0  0  0  0
177178  1  0  0  0  0
177179  1  0  0  0  0
177180  1  0  0  0  0
181182  1  0  0  0  0
181183  1  0  0  0  0
181184  1  0  0  0  0
185186  1  0  0  0  0
185187  1  0  0  0  0
185189  1  0  0  0  0
185196  1  0  0  0  0
187188  1  0  0  0  0
187190  1  0  0  0  0
187197  1  0  0  0  0
189192  1  0  0  0  0
190191  1  0  0  0  0
190194  1  0  0  0  0
190199  1  0  0  0  0
192193  1  0  0  0  0
192194  1  0  0  0  0
192201  1  0  0  0  0
194195  1  0  0  0  0
196210  1  0  0  0  0
197198  1  0  0  0  0
199200  1  0  0  0  0
201202  1  0  0  0  0
201203  1  0  0  0  0
201204  1  0  0  0  0
205206  1  0  0  0  0
205207  1  0  0  0  0
205209  1  0  0  0  0
207208  1  0  0  0  0
207210  1  0  0  0  0
207216  1  0  0  0  0
209212  1  0  0  0  0
210211  1  0  0  0  0
210214  1  0  0  0  0
212213  1  0  0  0  0
212214  1  0  0  0  0
212220  1  0  0  0  0
214215  1  0  0  0  0
214218  1  0  0  0  0
216217  1  0  0  0  0
216225  1  0  0  0  0
218219  1  0  0  0  0
220221  1  0  0  0  0
220222  1  0  0  0  0
220223  1  0  0  0  0
223224  1  0  0  0  0
225226  2  0  0  0  0
225227  1  0  0  0  0
227228  1  0  0  0  0
227229  1  0  0  0  0
227230  1  0  0  0  0
M  BCL ATM C_TeTeTeTe H_S O_Te2Te2TeTe C_TeTeTeTe H_S O_Te2Te2TeTe H_S C_TeTeTeTe H_S O_Te2Te2TeTe H_S C_TeTeTeTe H_S H_S O_Te2Te2TeTe H_S C_TeTeTeTe H_S O_Te2Te2TeTe C_TeTeTeTe H_S C_TeTeTeTe H_S O_Te2Te2TeTe C_TeTeTeTe H_S O_Te2Te2TeTe H_S C_TeTeTeTe H_S O_Te2Te2TeTe H_S C_TeTeTeTe H_S H_S O_Te2Te2TeTe H_S C_TeTeTeTe H_S O_Te2Te2TeTe H_S C_TeTeTeTe H_S O_Te2Te2TeTe O_Tr2TrTrPi2 P_TeTeTeTePi O_Tr2TrTrPi2 O_Te2Te2TeTe O_Tr2Tr2TrPi P_TeTeTeTePi O_Tr2TrTrPi2 O_Te2Te2TeTe O_Tr2Tr2TrPi C_TeTeTeTe H_S H_S C_TrTrTrPi H_S C_TrTrTrPi C_TeTeTeTe H_S H_S H_S C_TeTeTeTe H_S H_S C_TeTeTeTe H_S H_S C_TrTrTrPi H_S C_TrTrTrPi C_TeTeTeTe H_S H_S H_S C_TeTeTeTe H_S H_S C_TeTeTeTe H_S H_S C_TrTrTrPi H_S C_TrTrTrPi C_TeTeTeTe H_S H_S C_TeTeTeTe H_S H_S H_S C_TeTeTeTe H_S H_S C_TrTrTrPi H_S C_TrTrTrPi C_TeTeTeTe H_S H_S C_TeTeTeTe H_S H_S H_S C_TeTeTeTe H_S H_S C_TrTrTrPi H_S C_TrTrTrPi C_TeTeTeTe H_S H_S C_TeTeTeTe H_S H_S H_S C_TeTeTeTe H_S H_S C_TrTrTrPi H_S C_TrTrTrPi C_TeTeTeTe H_S H_S C_TeTeTeTe H_S H_S H_S C_TeTeTeTe H_S H_S C_TrTrTrPi H_S C_TrTrTrPi C_TeTeTeTe H_S H_S C_TeTeTeTe H_S H_S H_S C_TeTeTeTe H_S H_S C_TrTrTrPi H_S C_TrTrTrPi C_TeTeTeTe H_S H_S C_TeTeTeTe H_S H_S H_S C_TeTeTeTe H_S H_S C_TrTrTrPi H_S C_TrTrTrPi C_TeTeTeTe H_S H_S C_TeTeTeTe H_S H_S H_S C_TeTeTeTe H_S H_S C_TrTrTrPi H_S C_TrTrTrPi C_TeTeTeTe H_S H_S H_S C_TeTeTeTe H_S H_S H_S C_TeTeTeTe H_S C_TeTeTeTe H_S O_Te2Te2TeTe C_TeTeTeTe H_S C_TeTeTeTe H_S C_TeTeTeTe H_S O_Te2Te2TeTe O_Te2Te2TeTe H_S O_Te2Te2TeTe H_S C_TeTeTeTe H_S H_S H_S C_TeTeTeTe H_S C_TeTeTeTe H_S O_Te2Te2TeTe C_TeTeTeTe H_S C_TeTeTeTe H_S C_TeTeTeTe H_S N_TrTrTrPi2 H_S O_Te2Te2TeTe H_S C_TeTeTeTe H_S H_S O_Te2Te2TeTe H_S C_TrTrTrPi O_Tr2Tr2TrPi C_TeTeTeTe H_S H_S H_S
M  BCL BND NonConjugatedSingleBond NonConjugatedSingleBondInRing NonConjugatedSingleBondInRing NonConjugatedSingleBond NonConjugatedSingleBondInRing NonConjugatedSingleBond NonConjugatedSingleBond NonConjugatedSingleBondInRing NonConjugatedSingleBond NonConjugatedSingleBond NonConjugatedSingleBond NonConjugatedSingleBondInRing NonConjugatedSingleBond NonConjugatedSingleBond NonConjugatedSingleBond NonConjugatedSingleBond NonConjugatedSingleBond NonConjugatedSingleBond NonConjugatedSingleBond NonConjugatedSingleBond NonConjugatedSingleBond NonConjugatedSingleBond NonConjugatedSingleBond NonConjugatedSingleBond NonConjugatedSingleBondInRing NonConjugatedSingleBondInRing NonConjugatedSingleBondInRing NonConjugatedSingleBond NonConjugatedSingleBond NonConjugatedSingleBondInRing NonConjugatedSingleBond NonConjugatedSingleBond NonConjugatedSingleBond NonConjugatedSingleBondInRing NonConjugatedSingleBond NonConjugatedSingleBond NonConjugatedSingleBond NonConjugatedSingleBond NonConjugatedSingleBond NonConjugatedSingleBond NonConjugatedSingleBond NonConjugatedSingleBond NonConjugatedSingleBond NonConjugatedSingleBond NonConjugatedSingleBond NonConjugatedSingleBond ConjugatedSingleBond NonConjugatedSingleBond ConjugatedSingleBond ConjugatedSingleBond ConjugatedDoubleBond ConjugatedSingleBond ConjugatedSingleBond ConjugatedSingleBond ConjugatedDoubleBond NonConjugatedSingleBond NonConjugatedSingleBond NonConjugatedSingleBond NonConjugatedSingleBond NonConjugatedSingleBond ConjugatedDoubleBond NonConjugatedSingleBond NonConjugatedSingleBond NonConjugatedSingleBond NonConjugatedSingleBond NonConjugatedSingleBond NonConjugatedSingleBond NonConjugatedSingleBond NonConjugatedSingleBond NonConjugatedSingleBond NonConjugatedSingleBond NonConjugatedSingleBond NonConjugatedSingleBond ConjugatedDoubleBond NonConjugatedSingleBond NonConjugatedSingleBond NonConjugatedSingleBond NonConjugatedSingleBond NonConjugatedSingleBond NonConjugatedSingleBond NonConjugatedSingleBond NonConjugatedSingleBond NonConjugatedSingleBond NonConjugatedSingleBond NonConjugatedSingleBond NonConjugatedSingleBond ConjugatedDoubleBond NonConjugatedSingleBond NonConjugatedSingleBond NonConjugatedSingleBond NonConjugatedSingleBond NonConjugatedSingleBond NonConjugatedSingleBond NonConjugatedSingleBond NonConjugatedSingleBond NonConjugatedSingleBond NonConjugatedSingleBond NonConjugatedSingleBond NonConjugatedSingleBond ConjugatedDoubleBond NonConjugatedSingleBond NonConjugatedSingleBond NonConjugatedSingleBond NonConjugatedSingleBond NonConjugatedSingleBond NonConjugatedSingleBond NonConjugatedSingleBond NonConjugatedSingleBond NonConjugatedSingleBond NonConjugatedSingleBond NonConjugatedSingleBond NonConjugatedSingleBond ConjugatedDoubleBond NonConjugatedSingleBond NonConjugatedSingleBond NonConjugatedSingleBond NonConjugatedSingleBond NonConjugatedSingleBond NonConjugatedSingleBond NonConjugatedSingleBond NonConjugatedSingleBond NonConjugatedSingleBond NonConjugatedSingleBond NonConjugatedSingleBond NonConjugatedSingleBond ConjugatedDoubleBond NonConjugatedSingleBond NonConjugatedSingleBond NonConjugatedSingleBond NonConjugatedSingleBond NonConjugatedSingleBond NonConjugatedSingleBond NonConjugatedSingleBond NonConjugatedSingleBond NonConjugatedSingleBond NonConjugatedSingleBond NonConjugatedSingleBond NonConjugatedSingleBond ConjugatedDoubleBond NonConjugatedSingleBond NonConjugatedSingleBond NonConjugatedSingleBond NonConjugatedSingleBond NonConjugatedSingleBond NonConjugatedSingleBond NonConjugatedSingleBond NonConjugatedSingleBond NonConjugatedSingleBond NonConjugatedSingleBond NonConjugatedSingleBond NonConjugatedSingleBond ConjugatedDoubleBond NonConjugatedSingleBond NonConjugatedSingleBond NonConjugatedSingleBond NonConjugatedSingleBond NonConjugatedSingleBond NonConjugatedSingleBond NonConjugatedSingleBond NonConjugatedSingleBond NonConjugatedSingleBond NonConjugatedSingleBond NonConjugatedSingleBond NonConjugatedSingleBond ConjugatedDoubleBond NonConjugatedSingleBond NonConjugatedSingleBond NonConjugatedSingleBond NonConjugatedSingleBond NonConjugatedSingleBond NonConjugatedSingleBond NonConjugatedSingleBond NonConjugatedSingleBond NonConjugatedSingleBond NonConjugatedSingleBond NonConjugatedSingleBond NonConjugatedSingleBond ConjugatedDoubleBond NonConjugatedSingleBond NonConjugatedSingleBond NonConjugatedSingleBond NonConjugatedSingleBond NonConjugatedSingleBond NonConjugatedSingleBond NonConjugatedSingleBond NonConjugatedSingleBond NonConjugatedSingleBond NonConjugatedSingleBondInRing NonConjugatedSingleBondInRing NonConjugatedSingleBond NonConjugatedSingleBond NonConjugatedSingleBondInRing NonConjugatedSingleBond NonConjugatedSingleBondInRing NonConjugatedSingleBond NonConjugatedSingleBondInRing NonConjugatedSingleBond NonConjugatedSingleBond NonConjugatedSingleBondInRing NonConjugatedSingleBond NonConjugatedSingleBond NonConjugatedSingleBond NonConjugatedSingleBond NonConjugatedSingleBond NonConjugatedSingleBond NonConjugatedSingleBond NonConjugatedSingleBond NonConjugatedSingleBond NonConjugatedSingleBondInRing NonConjugatedSingleBondInRing NonConjugatedSingleBond NonConjugatedSingleBondInRing NonConjugatedSingleBond NonConjugatedSingleBondInRing NonConjugatedSingleBond NonConjugatedSingleBondInRing NonConjugatedSingleBond NonConjugatedSingleBondInRing NonConjugatedSingleBond NonConjugatedSingleBond NonConjugatedSingleBond NonConjugatedSingleBond AmideSingleBond NonConjugatedSingleBond NonConjugatedSingleBond NonConjugatedSingleBond NonConjugatedSingleBond NonConjugatedSingleBond ConjugatedDoubleBond NonConjugatedSingleBond NonConjugatedSingleBond NonConjugatedSingleBond NonConjugatedSingleBond
M  BCL CHI   1   R   4   R   8   R  17   S  20   R  22   S  25   R  29   S  38   S  42   R  46   R  50   S 185   R 187   S 190   S 192   R 194   R 205   R 207   S 210   R 212   S 214   S
M  BCL DBI - - E E E E E E E E Z - -
M  END
> <ConfClashScore>
0.00288592 

> <ConfOneFourInteractionScore>
-0.97059 

> <ConfScore>
0.321537 

> <ConfScorePBest>
0.0141715 

> <ConfTolerance>
2.28108 

$$$$
L05.****
  PyMOL2.5          3D                             0

230233  0  0  0  0  0  0  0  0999 V2000
   12.0250   -3.2104   -3.0755 C   0  0  0  1  0  0  0  0  0  0  0  0
   11.2376   -2.9061   -2.4180 H   0  0  0  1  0  0  0  0  0  0  0  0
   11.7071   -4.4291   -3.6834 O   0  0  0  1  0  0  0  0  0  0  0  0
   12.1866   -2.1981   -4.2205 C   0  0  0  1  0  0  0  0  0  0  0  0
   13.1820   -2.2144   -4.6127 H   0  0  0  1  0  0  0  0  0  0  0  0
   11.8661   -0.8747   -3.7876 O   0  0  0  1  0  0  0  0  0  0  0  0
   11.2185   -0.9169   -3.0803 H   0  0  0  1  0  0  0  0  0  0  0  0
   11.1848   -2.6963   -5.2473 C   0  0  0  1  0  0  0  0  0  0  0  0
   10.2161   -2.2753   -5.0763 H   0  0  0  1  0  0  0  0  0  0  0  0
   11.6118   -2.3867   -6.5748 O   0  0  0  1  0  0  0  0  0  0  0  0
   12.5342   -2.6311   -6.6799 H   0  0  0  1  0  0  0  0  0  0  0  0
    9.6958   -6.1948   -4.5807 C   0  0  0  1  0  0  0  0  0  0  0  0
    8.7050   -6.5819   -4.6964 H   0  0  0  1  0  0  0  0  0  0  0  0
   10.3846   -6.8085   -5.1228 H   0  0  0  1  0  0  0  0  0  0  0  0
   10.0489   -6.1686   -3.2040 O   0  0  0  1  0  0  0  0  0  0  0  0
   10.0082   -7.0584   -2.8458 H   0  0  0  1  0  0  0  0  0  0  0  0
    9.7579   -4.7676   -5.0946 C   0  0  0  1  0  0  0  0  0  0  0  0
    9.1189   -4.1563   -4.4923 H   0  0  0  1  0  0  0  0  0  0  0  0
    9.4060   -4.6394   -6.4673 O   0  0  0  1  0  0  0  0  0  0  0  0
   11.1785   -4.2261   -5.0060 C   0  0  0  1  0  0  0  0  0  0  0  0
   11.7940   -4.7177   -5.7302 H   0  0  0  1  0  0  0  0  0  0  0  0
    8.0099   -4.5447   -6.6408 C   0  0  0  1  0  0  0  0  0  0  0  0
    7.5425   -5.4317   -6.2669 H   0  0  0  1  0  0  0  0  0  0  0  0
    7.4929   -3.3758   -5.9659 O   0  0  0  1  0  0  0  0  0  0  0  0
    7.6646   -4.3371   -8.1184 C   0  0  0  1  0  0  0  0  0  0  0  0
    7.3734   -5.2586   -8.5776 H   0  0  0  1  0  0  0  0  0  0  0  0
    8.7705   -3.7786   -8.8294 O   0  0  0  1  0  0  0  0  0  0  0  0
    9.5325   -3.7275   -8.2477 H   0  0  0  1  0  0  0  0  0  0  0  0
    6.5108   -3.3702   -8.0683 C   0  0  0  1  0  0  0  0  0  0  0  0
    5.5832   -3.8838   -7.9243 H   0  0  0  1  0  0  0  0  0  0  0  0
    6.4427   -2.5898   -9.2582 O   0  0  0  1  0  0  0  0  0  0  0  0
    7.0411   -2.9536   -9.9148 H   0  0  0  1  0  0  0  0  0  0  0  0
    4.8729   -1.0876   -7.2670 C   0  0  0  1  0  0  0  0  0  0  0  0
    4.4660   -1.7390   -8.0120 H   0  0  0  1  0  0  0  0  0  0  0  0
    4.0788   -0.5579   -6.7835 H   0  0  0  1  0  0  0  0  0  0  0  0
    5.7279   -0.1475   -7.9014 O   0  0  0  1  0  0  0  0  0  0  0  0
    5.2726    0.2461   -8.6493 H   0  0  0  1  0  0  0  0  0  0  0  0
    5.6005   -1.9264   -6.2312 C   0  0  0  1  0  0  0  0  0  0  0  0
    4.9660   -2.7437   -5.9585 H   0  0  0  1  0  0  0  0  0  0  0  0
    5.8845   -1.1419   -5.0759 O   0  0  0  1  0  0  0  0  0  0  0  0
    5.8907   -0.2118   -5.3137 H   0  0  0  1  0  0  0  0  0  0  0  0
    6.8548   -2.4974   -6.8527 C   0  0  0  1  0  0  0  0  0  0  0  0
    7.5101   -1.6991   -7.1326 H   0  0  0  1  0  0  0  0  0  0  0  0
   13.2394   -3.3254   -2.3413 O   0  0  0  1  0  0  0  0  0  0  0  0
   22.0436   -1.8330   -4.0701 O   0  0  0  1  0  0  0  0  0  0  0  0
   22.5756   -3.1581   -3.3376 P   0  0  0  1  0  0  0  0  0  0  0  0
   21.6652   -4.2867   -4.0307 O   0  0  0  1  0  0  0  0  0  0  0  0
   22.2832   -3.0489   -1.8875 O   0  0  0  0  0  0  0  0  0  0  0  0
   23.9574   -3.4139   -3.7594 O   0  0  0  1  0  0  0  0  0  0  0  0
   22.0561   -5.7800   -4.3582 P   0  0  0  1  0  0  0  0  0  0  0  0
   20.6415   -6.4025   -4.6539 O   0  0  0  1  0  0  0  0  0  0  0  0
   22.7925   -6.4119   -3.2038 O   0  0  0  0  0  0  0  0  0  0  0  0
   22.7767   -5.6995   -5.6337 O   0  0  0  1  0  0  0  0  0  0  0  0
   22.2708   -0.5214   -3.4923 C   0  0  0  1  0  0  0  0  0  0  0  0
   23.1791   -0.1026   -3.8724 H   0  0  0  1  0  0  0  0  0  0  0  0
   22.3289   -0.5924   -2.4262 H   0  0  0  1  0  0  0  0  0  0  0  0
   21.1012    0.3293   -3.8918 C   0  0  0  1  0  0  0  0  0  0  0  0
   20.1486   -0.0429   -3.7029 H   0  0  0  1  0  0  0  0  0  0  0  0
   21.1919    1.5244   -4.4699 C   0  0  0  1  0  0  0  0  0  0  0  0
   19.9968    2.4121   -4.7355 C   0  0  0  1  0  0  0  0  0  0  0  0
   20.2105    3.0621   -5.5581 H   0  0  0  1  0  0  0  0  0  0  0  0
   19.7866    2.9969   -3.8644 H   0  0  0  1  0  0  0  0  0  0  0  0
   19.1477    1.8054   -4.9718 H   0  0  0  1  0  0  0  0  0  0  0  0
   22.5162    2.0087   -4.9895 C   0  0  0  1  0  0  0  0  0  0  0  0
   22.3839    2.3478   -5.9957 H   0  0  0  1  0  0  0  0  0  0  0  0
   23.2069    1.1916   -4.9758 H   0  0  0  1  0  0  0  0  0  0  0  0
   23.0978    3.1476   -4.1678 C   0  0  0  1  0  0  0  0  0  0  0  0
   23.2224    2.8111   -3.1597 H   0  0  0  1  0  0  0  0  0  0  0  0
   22.4109    3.9677   -4.1882 H   0  0  0  1  0  0  0  0  0  0  0  0
   24.4297    3.6252   -4.6816 C   0  0  0  1  0  0  0  0  0  0  0  0
   25.1740    2.9129   -4.8242 H   0  0  0  1  0  0  0  0  0  0  0  0
   24.7250    4.8879   -4.9663 C   0  0  0  1  0  0  0  0  0  0  0  0
   25.9408    5.2428   -5.7746 C   0  0  0  1  0  0  0  0  0  0  0  0
   26.0595    4.5369   -6.5700 H   0  0  0  1  0  0  0  0  0  0  0  0
   26.8061    5.2198   -5.1457 H   0  0  0  1  0  0  0  0  0  0  0  0
   25.8227    6.2243   -6.1839 H   0  0  0  1  0  0  0  0  0  0  0  0
   23.8978    6.0648   -4.5230 C   0  0  0  1  0  0  0  0  0  0  0  0
   24.5668    6.8460   -4.2278 H   0  0  0  1  0  0  0  0  0  0  0  0
   23.3127    5.7586   -3.6811 H   0  0  0  1  0  0  0  0  0  0  0  0
   22.9523    6.6284   -5.5712 C   0  0  0  1  0  0  0  0  0  0  0  0
   22.3152    7.3493   -5.1028 H   0  0  0  1  0  0  0  0  0  0  0  0
   22.3593    5.8275   -5.9608 H   0  0  0  1  0  0  0  0  0  0  0  0
   23.6648    7.2899   -6.7079 C   0  0  0  1  0  0  0  0  0  0  0  0
   24.6930    7.4198   -6.6211 H   0  0  0  1  0  0  0  0  0  0  0  0
   23.0820    7.7240   -7.8203 C   0  0  0  1  0  0  0  0  0  0  0  0
   21.5993    7.9069   -7.9670 C   0  0  0  1  0  0  0  0  0  0  0  0
   21.1311    7.6507   -7.0396 H   0  0  0  1  0  0  0  0  0  0  0  0
   21.2497    7.2510   -8.7368 H   0  0  0  1  0  0  0  0  0  0  0  0
   23.8829    8.0725   -9.0432 C   0  0  0  1  0  0  0  0  0  0  0  0
   24.9220    8.1107   -8.7908 H   0  0  0  1  0  0  0  0  0  0  0  0
   23.5708    9.0265   -9.4138 H   0  0  0  1  0  0  0  0  0  0  0  0
   23.7261    7.3283   -9.7959 H   0  0  0  1  0  0  0  0  0  0  0  0
   21.2079    9.3302   -8.3296 C   0  0  0  1  0  0  0  0  0  0  0  0
   21.4767    9.5078   -9.3500 H   0  0  0  1  0  0  0  0  0  0  0  0
   21.7465   10.0035   -7.6960 H   0  0  0  1  0  0  0  0  0  0  0  0
   19.7349    9.5958   -8.1689 C   0  0  0  1  0  0  0  0  0  0  0  0
   19.3461    9.4869   -7.2105 H   0  0  0  1  0  0  0  0  0  0  0  0
   18.8777    9.9544   -9.1188 C   0  0  0  1  0  0  0  0  0  0  0  0
   19.2636   10.1577  -10.5566 C   0  0  0  1  0  0  0  0  0  0  0  0
   20.0977    9.5251  -10.7780 H   0  0  0  1  0  0  0  0  0  0  0  0
   19.5454   11.1809  -10.6921 H   0  0  0  1  0  0  0  0  0  0  0  0
   17.4240   10.1887   -8.8184 C   0  0  0  1  0  0  0  0  0  0  0  0
   16.9119   10.4569   -9.7188 H   0  0  0  1  0  0  0  0  0  0  0  0
   17.3306   10.9813   -8.1056 H   0  0  0  1  0  0  0  0  0  0  0  0
   16.9944    9.2948   -8.4168 H   0  0  0  1  0  0  0  0  0  0  0  0
   18.1392    9.8329  -11.5265 C   0  0  0  1  0  0  0  0  0  0  0  0
   17.2921   10.4459  -11.2994 H   0  0  0  1  0  0  0  0  0  0  0  0
   17.8725    8.8020  -11.4219 H   0  0  0  1  0  0  0  0  0  0  0  0
   18.5654   10.0885  -12.9372 C   0  0  0  1  0  0  0  0  0  0  0  0
   19.3864    9.5599  -13.2952 H   0  0  0  1  0  0  0  0  0  0  0  0
   17.9734   10.9407  -13.7672 C   0  0  0  1  0  0  0  0  0  0  0  0
   16.6134   11.5288  -13.5267 C   0  0  0  1  0  0  0  0  0  0  0  0
   16.2409   11.1560  -12.5954 H   0  0  0  1  0  0  0  0  0  0  0  0
   15.9643   11.2213  -14.3198 H   0  0  0  1  0  0  0  0  0  0  0  0
   18.6371   11.3898  -15.0385 C   0  0  0  1  0  0  0  0  0  0  0  0
   18.4679   12.4369  -15.1792 H   0  0  0  1  0  0  0  0  0  0  0  0
   18.2270   10.8483  -15.8652 H   0  0  0  1  0  0  0  0  0  0  0  0
   19.6890   11.2039  -14.9763 H   0  0  0  1  0  0  0  0  0  0  0  0
   16.6229   13.0478  -13.4707 C   0  0  0  1  0  0  0  0  0  0  0  0
   16.6452   13.4150  -14.4754 H   0  0  0  1  0  0  0  0  0  0  0  0
   17.5113   13.3536  -12.9588 H   0  0  0  1  0  0  0  0  0  0  0  0
   15.4532   13.6711  -12.7775 C   0  0  0  1  0  0  0  0  0  0  0  0
   15.1966   13.2727  -11.8518 H   0  0  0  1  0  0  0  0  0  0  0  0
   14.7063   14.6787  -13.2162 C   0  0  0  1  0  0  0  0  0  0  0  0
   14.7118   15.1629  -14.6386 C   0  0  0  1  0  0  0  0  0  0  0  0
   15.6960   15.5086  -14.8768 H   0  0  0  1  0  0  0  0  0  0  0  0
   14.0180   15.9729  -14.7253 H   0  0  0  1  0  0  0  0  0  0  0  0
   13.7799   15.4257  -12.3019 C   0  0  0  1  0  0  0  0  0  0  0  0
   13.9407   15.1077  -11.2930 H   0  0  0  1  0  0  0  0  0  0  0  0
   12.7664   15.2266  -12.5812 H   0  0  0  1  0  0  0  0  0  0  0  0
   13.9722   16.4754  -12.3797 H   0  0  0  1  0  0  0  0  0  0  0  0
   14.3232   14.0841  -15.6363 C   0  0  0  1  0  0  0  0  0  0  0  0
   14.8687   13.1966  -15.3919 H   0  0  0  1  0  0  0  0  0  0  0  0
   14.6059   14.4197  -16.6122 H   0  0  0  1  0  0  0  0  0  0  0  0
   12.8608   13.7349  -15.6712 C   0  0  0  1  0  0  0  0  0  0  0  0
   12.1794   14.5197  -15.7098 H   0  0  0  1  0  0  0  0  0  0  0  0
   12.3743   12.4985  -15.6565 C   0  0  0  1  0  0  0  0  0  0  0  0
   13.2303   11.2661  -15.6986 C   0  0  0  1  0  0  0  0  0  0  0  0
   14.1902   11.5313  -16.0900 H   0  0  0  1  0  0  0  0  0  0  0  0
   12.7661   10.5510  -16.3452 H   0  0  0  1  0  0  0  0  0  0  0  0
   10.8959   12.2358  -15.5952 C   0  0  0  1  0  0  0  0  0  0  0  0
   10.3668   13.0777  -15.9905 H   0  0  0  1  0  0  0  0  0  0  0  0
   10.6040   12.0770  -14.5781 H   0  0  0  1  0  0  0  0  0  0  0  0
   10.6642   11.3658  -16.1734 H   0  0  0  1  0  0  0  0  0  0  0  0
   13.4241   10.6288  -14.3323 C   0  0  0  1  0  0  0  0  0  0  0  0
   12.4905   10.2285  -13.9963 H   0  0  0  1  0  0  0  0  0  0  0  0
   13.7623   11.3737  -13.6426 H   0  0  0  1  0  0  0  0  0  0  0  0
   14.4311    9.5311  -14.3990 C   0  0  0  1  0  0  0  0  0  0  0  0
   15.2535    9.7208  -15.0066 H   0  0  0  1  0  0  0  0  0  0  0  0
   14.4332    8.3419  -13.7948 C   0  0  0  1  0  0  0  0  0  0  0  0
   13.4979    8.0705  -12.6469 C   0  0  0  1  0  0  0  0  0  0  0  0
   12.8956    8.9400  -12.4855 H   0  0  0  1  0  0  0  0  0  0  0  0
   14.0811    7.8725  -11.7719 H   0  0  0  1  0  0  0  0  0  0  0  0
   15.4119    7.2979  -14.1667 C   0  0  0  1  0  0  0  0  0  0  0  0
   14.8924    6.4246  -14.5022 H   0  0  0  1  0  0  0  0  0  0  0  0
   16.0108    7.0512  -13.3151 H   0  0  0  1  0  0  0  0  0  0  0  0
   16.0406    7.6622  -14.9521 H   0  0  0  1  0  0  0  0  0  0  0  0
   12.5795    6.8850  -12.8947 C   0  0  0  1  0  0  0  0  0  0  0  0
   13.0903    6.2010  -13.5399 H   0  0  0  1  0  0  0  0  0  0  0  0
   11.6986    7.2463  -13.3828 H   0  0  0  1  0  0  0  0  0  0  0  0
   12.1564    6.1384  -11.6753 C   0  0  0  1  0  0  0  0  0  0  0  0
   12.9183    5.9235  -11.0008 H   0  0  0  1  0  0  0  0  0  0  0  0
   10.9510    5.7074  -11.3231 C   0  0  0  1  0  0  0  0  0  0  0  0
   10.7325    4.9653  -10.0366 C   0  0  0  1  0  0  0  0  0  0  0  0
   11.6888    4.6645   -9.6626 H   0  0  0  1  0  0  0  0  0  0  0  0
   10.1441    4.0979  -10.2518 H   0  0  0  1  0  0  0  0  0  0  0  0
    9.7128    5.9103  -12.1501 C   0  0  0  1  0  0  0  0  0  0  0  0
    9.3155    6.8552  -11.8432 H   0  0  0  1  0  0  0  0  0  0  0  0
    9.0060    5.1291  -11.9629 H   0  0  0  1  0  0  0  0  0  0  0  0
    9.9577    5.9283  -13.1916 H   0  0  0  1  0  0  0  0  0  0  0  0
   10.0272    5.7509   -8.9430 C   0  0  0  1  0  0  0  0  0  0  0  0
    9.0368    5.9722   -9.2820 H   0  0  0  1  0  0  0  0  0  0  0  0
   10.5655    6.6633   -8.7925 H   0  0  0  1  0  0  0  0  0  0  0  0
    9.9180    5.0517   -7.6144 C   0  0  0  1  0  0  0  0  0  0  0  0
   10.7997    4.8616   -7.0967 H   0  0  0  1  0  0  0  0  0  0  0  0
    8.7690    4.6558   -7.0489 C   0  0  0  1  0  0  0  0  0  0  0  0
    8.7266    3.8163   -5.8290 C   0  0  0  1  0  0  0  0  0  0  0  0
    9.6023    3.9963   -5.2410 H   0  0  0  1  0  0  0  0  0  0  0  0
    8.6906    2.7839   -6.1078 H   0  0  0  1  0  0  0  0  0  0  0  0
    7.8565    4.0624   -5.2570 H   0  0  0  1  0  0  0  0  0  0  0  0
    7.4651    5.0814   -7.6791 C   0  0  0  1  0  0  0  0  0  0  0  0
    6.8036    5.3618   -6.8862 H   0  0  0  1  0  0  0  0  0  0  0  0
    7.0455    4.2695   -8.2355 H   0  0  0  1  0  0  0  0  0  0  0  0
    7.6286    5.9142   -8.3308 H   0  0  0  1  0  0  0  0  0  0  0  0
   16.0675   -5.2031   -1.6695 C   0  0  0  1  0  0  0  0  0  0  0  0
   16.3077   -5.7403   -0.7759 H   0  0  0  1  0  0  0  0  0  0  0  0
   14.8390   -5.8119   -2.2922 C   0  0  0  1  0  0  0  0  0  0  0  0
   15.0503   -6.8221   -2.5749 H   0  0  0  1  0  0  0  0  0  0  0  0
   15.8593   -3.8367   -1.3453 O   0  0  0  1  0  0  0  0  0  0  0  0
   14.4294   -5.0286   -3.5142 C   0  0  0  1  0  0  0  0  0  0  0  0
   13.4699   -5.3680   -3.8442 H   0  0  0  1  0  0  0  0  0  0  0  0
   15.6113   -3.0539   -2.5106 C   0  0  0  1  0  0  0  0  0  0  0  0
   16.4413   -3.1391   -3.1806 H   0  0  0  1  0  0  0  0  0  0  0  0
   14.3526   -3.5541   -3.1980 C   0  0  0  1  0  0  0  0  0  0  0  0
   14.2184   -3.0117   -4.1105 H   0  0  0  1  0  0  0  0  0  0  0  0
   17.1497   -5.3014   -2.5882 O   0  0  0  1  0  0  0  0  0  0  0  0
   13.7721   -5.7957   -1.3427 O   0  0  0  1  0  0  0  0  0  0  0  0
   13.8501   -5.0173   -0.7863 H   0  0  0  1  0  0  0  0  0  0  0  0
   15.3854   -5.2360   -4.5437 O   0  0  0  1  0  0  0  0  0  0  0  0
   15.7241   -4.3887   -4.8420 H   0  0  0  1  0  0  0  0  0  0  0  0
   15.4284   -1.6081   -2.1160 C   0  0  0  1  0  0  0  0  0  0  0  0
   16.2551   -1.2951   -1.5131 H   0  0  0  1  0  0  0  0  0  0  0  0
   14.5210   -1.5027   -1.5590 H   0  0  0  1  0  0  0  0  0  0  0  0
   15.3797   -1.0018   -2.9964 H   0  0  0  1  0  0  0  0  0  0  0  0
   19.6283   -6.4071   -3.6632 C   0  0  0  1  0  0  0  0  0  0  0  0
   19.6954   -5.5129   -3.0794 H   0  0  0  1  0  0  0  0  0  0  0  0
   18.2792   -6.4742   -4.3252 C   0  0  0  1  0  0  0  0  0  0  0  0
   18.2304   -7.3457   -4.9441 H   0  0  0  1  0  0  0  0  0  0  0  0
   19.7949   -7.5328   -2.8229 O   0  0  0  1  0  0  0  0  0  0  0  0
   17.2025   -6.5436   -3.2814 C   0  0  0  1  0  0  0  0  0  0  0  0
   16.2638   -6.7248   -3.7619 H   0  0  0  1  0  0  0  0  0  0  0  0
   18.8670   -7.5085   -1.7236 C   0  0  0  1  0  0  0  0  0  0  0  0
   19.0734   -8.3195   -1.0568 H   0  0  0  1  0  0  0  0  0  0  0  0
   17.4664   -7.6500   -2.2868 C   0  0  0  1  0  0  0  0  0  0  0  0
   16.7550   -7.5886   -1.4899 H   0  0  0  1  0  0  0  0  0  0  0  0
   18.0829   -5.2857   -5.1432 N   0  0  0  1  0  0  0  0  0  0  0  0
   18.2602   -4.4060   -4.7495 H   0  0  0  1  0  0  0  0  0  0  0  0
   17.3431   -8.9143   -2.9397 O   0  0  0  1  0  0  0  0  0  0  0  0
   17.4063   -9.5821   -2.2529 H   0  0  0  1  0  0  0  0  0  0  0  0
   18.9899   -6.1975   -0.9776 C   0  0  0  1  0  0  0  0  0  0  0  0
   18.2792   -6.1897   -0.1778 H   0  0  0  1  0  0  0  0  0  0  0  0
   18.7755   -5.3964   -1.6538 H   0  0  0  1  0  0  0  0  0  0  0  0
   20.2799   -6.0026   -0.4391 O   0  0  0  1  0  0  0  0  0  0  0  0
   20.9235   -6.3013   -1.0858 H   0  0  0  1  0  0  0  0  0  0  0  0
   17.6695   -5.3528   -6.4119 C   0  0  0  1  0  0  0  0  0  0  0  0
   17.3723   -6.4020   -6.9591 O   0  0  0  1  0  0  0  0  0  0  0  0
   17.5879   -4.0302   -7.1490 C   0  0  0  1  0  0  0  0  0  0  0  0
   18.2154   -3.3720   -6.5852 H   0  0  0  1  0  0  0  0  0  0  0  0
   16.5809   -3.6691   -7.1680 H   0  0  0  1  0  0  0  0  0  0  0  0
   17.9497   -4.1323   -8.1508 H   0  0  0  1  0  0  0  0  0  0  0  0
  1  2  1  0  0  0  0
  1  3  1  0  0  0  0
  1  4  1  0  0  0  0
  1 44  1  0  0  0  0
  3 20  1  0  0  0  0
  4  5  1  0  0  0  0
  4  6  1  0  0  0  0
  4  8  1  0  0  0  0
  6  7  1  0  0  0  0
  8  9  1  0  0  0  0
  8 10  1  0  0  0  0
  8 20  1  0  0  0  0
 10 11  1  0  0  0  0
 12 13  1  0  0  0  0
 12 14  1  0  0  0  0
 12 15  1  0  0  0  0
 12 17  1  0  0  0  0
 15 16  1  0  0  0  0
 17 18  1  0  0  0  0
 17 19  1  0  0  0  0
 17 20  1  0  0  0  0
 19 22  1  0  0  0  0
 20 21  1  0  0  0  0
 22 23  1  0  0  0  0
 22 24  1  0  0  0  0
 22 25  1  0  0  0  0
 24 42  1  0  0  0  0
 25 26  1  0  0  0  0
 25 27  1  0  0  0  0
 25 29  1  0  0  0  0
 27 28  1  0  0  0  0
 29 30  1  0  0  0  0
 29 31  1  0  0  0  0
 29 42  1  0  0  0  0
 31 32  1  0  0  0  0
 33 34  1  0  0  0  0
 33 35  1  0  0  0  0
 33 36  1  0  0  0  0
 33 38  1  0  0  0  0
 36 37  1  0  0  0  0
 38 39  1  0  0  0  0
 38 40  1  0  0  0  0
 38 42  1  0  0  0  0
 40 41  1  0  0  0  0
 42 43  1  0  0  0  0
 44194  1  0  0  0  0
 45 46  1  0  0  0  0
 45 54  1  0  0  0  0
 46 47  1  0  0  0  0
 46 48  1  0  0  0  0
 46 49  2  0  0  0  0
 47 50  1  0  0  0  0
 50 51  1  0  0  0  0
 50 52  1  0  0  0  0
 50 53  2  0  0  0  0
 51205  1  0  0  0  0
 54 55  1  0  0  0  0
 54 56  1  0  0  0  0
 54 57  1  0  0  0  0
 57 58  1  0  0  0  0
 57 59  2  0  0  0  0
 59 60  1  0  0  0  0
 59 64  1  0  0  0  0
 60 61  1  0  0  0  0
 60 62  1  0  0  0  0
 60 63  1  0  0  0  0
 64 65  1  0  0  0  0
 64 66  1  0  0  0  0
 64 67  1  0  0  0  0
 67 68  1  0  0  0  0
 67 69  1  0  0  0  0
 67 70  1  0  0  0  0
 70 71  1  0  0  0  0
 70 72  2  0  0  0  0
 72 73  1  0  0  0  0
 72 77  1  0  0  0  0
 73 74  1  0  0  0  0
 73 75  1  0  0  0  0
 73 76  1  0  0  0  0
 77 78  1  0  0  0  0
 77 79  1  0  0  0  0
 77 80  1  0  0  0  0
 80 81  1  0  0  0  0
 80 82  1  0  0  0  0
 80 83  1  0  0  0  0
 83 84  1  0  0  0  0
 83 85  2  0  0  0  0
 85 86  1  0  0  0  0
 85 89  1  0  0  0  0
 86 87  1  0  0  0  0
 86 88  1  0  0  0  0
 86 93  1  0  0  0  0
 89 90  1  0  0  0  0
 89 91  1  0  0  0  0
 89 92  1  0  0  0  0
 93 94  1  0  0  0  0
 93 95  1  0  0  0  0
 93 96  1  0  0  0  0
 96 97  1  0  0  0  0
 96 98  2  0  0  0  0
 98 99  1  0  0  0  0
 98102  1  0  0  0  0
 99100  1  0  0  0  0
 99101  1  0  0  0  0
 99106  1  0  0  0  0
102103  1  0  0  0  0
102104  1  0  0  0  0
102105  1  0  0  0  0
106107  1  0  0  0  0
106108  1  0  0  0  0
106109  1  0  0  0  0
109110  1  0  0  0  0
109111  2  0  0  0  0
111112  1  0  0  0  0
111115  1  0  0  0  0
112113  1  0  0  0  0
112114  1  0  0  0  0
112119  1  0  0  0  0
115116  1  0  0  0  0
115117  1  0  0  0  0
115118  1  0  0  0  0
119120  1  0  0  0  0
119121  1  0  0  0  0
119122  1  0  0  0  0
122123  1  0  0  0  0
122124  2  0  0  0  0
124125  1  0  0  0  0
124128  1  0  0  0  0
125126  1  0  0  0  0
125127  1  0  0  0  0
125132  1  0  0  0  0
128129  1  0  0  0  0
128130  1  0  0  0  0
128131  1  0  0  0  0
132133  1  0  0  0  0
132134  1  0  0  0  0
132135  1  0  0  0  0
135136  1  0  0  0  0
135137  2  0  0  0  0
137138  1  0  0  0  0
137141  1  0  0  0  0
138139  1  0  0  0  0
138140  1  0  0  0  0
138145  1  0  0  0  0
141142  1  0  0  0  0
141143  1  0  0  0  0
141144  1  0  0  0  0
145146  1  0  0  0  0
145147  1  0  0  0  0
145148  1  0  0  0  0
148149  1  0  0  0  0
148150  2  0  0  0  0
150151  1  0  0  0  0
150154  1  0  0  0  0
151152  1  0  0  0  0
151153  1  0  0  0  0
151158  1  0  0  0  0
154155  1  0  0  0  0
154156  1  0  0  0  0
154157  1  0  0  0  0
158159  1  0  0  0  0
158160  1  0  0  0  0
158161  1  0  0  0  0
161162  1  0  0  0  0
161163  2  0  0  0  0
163164  1  0  0  0  0
163167  1  0  0  0  0
164165  1  0  0  0  0
164166  1  0  0  0  0
164171  1  0  0  0  0
167168  1  0  0  0  0
167169  1  0  0  0  0
167170  1  0  0  0  0
171172  1  0  0  0  0
171173  1  0  0  0  0
171174  1  0  0  0  0
174175  1  0  0  0  0
174176  2  0  0  0  0
176177  1  0  0  0  0
176181  1  0  0  0  0
177178  1  0  0  0  0
177179  1  0  0  0  0
177180  1  0  0  0  0
181182  1  0  0  0  0
181183  1  0  0  0  0
181184  1  0  0  0  0
185186  1  0  0  0  0
185187  1  0  0  0  0
185189  1  0  0  0  0
185196  1  0  0  0  0
187188  1  0  0  0  0
187190  1  0  0  0  0
187197  1  0  0  0  0
189192  1  0  0  0  0
190191  1  0  0  0  0
190194  1  0  0  0  0
190199  1  0  0  0  0
192193  1  0  0  0  0
192194  1  0  0  0  0
192201  1  0  0  0  0
194195  1  0  0  0  0
196210  1  0  0  0  0
197198  1  0  0  0  0
199200  1  0  0  0  0
201202  1  0  0  0  0
201203  1  0  0  0  0
201204  1  0  0  0  0
205206  1  0  0  0  0
205207  1  0  0  0  0
205209  1  0  0  0  0
207208  1  0  0  0  0
207210  1  0  0  0  0
207216  1  0  0  0  0
209212  1  0  0  0  0
210211  1  0  0  0  0
210214  1  0  0  0  0
212213  1  0  0  0  0
212214  1  0  0  0  0
212220  1  0  0  0  0
214215  1  0  0  0  0
214218  1  0  0  0  0
216217  1  0  0  0  0
216225  1  0  0  0  0
218219  1  0  0  0  0
220221  1  0  0  0  0
220222  1  0  0  0  0
220223  1  0  0  0  0
223224  1  0  0  0  0
225226  2  0  0  0  0
225227  1  0  0  0  0
227228  1  0  0  0  0
227229  1  0  0  0  0
227230  1  0  0  0  0
M  BCL ATM C_TeTeTeTe H_S O_Te2Te2TeTe C_TeTeTeTe H_S O_Te2Te2TeTe H_S C_TeTeTeTe H_S O_Te2Te2TeTe H_S C_TeTeTeTe H_S H_S O_Te2Te2TeTe H_S C_TeTeTeTe H_S O_Te2Te2TeTe C_TeTeTeTe H_S C_TeTeTeTe H_S O_Te2Te2TeTe C_TeTeTeTe H_S O_Te2Te2TeTe H_S C_TeTeTeTe H_S O_Te2Te2TeTe H_S C_TeTeTeTe H_S H_S O_Te2Te2TeTe H_S C_TeTeTeTe H_S O_Te2Te2TeTe H_S C_TeTeTeTe H_S O_Te2Te2TeTe O_Tr2TrTrPi2 P_TeTeTeTePi O_Tr2TrTrPi2 O_Te2Te2TeTe O_Tr2Tr2TrPi P_TeTeTeTePi O_Tr2TrTrPi2 O_Te2Te2TeTe O_Tr2Tr2TrPi C_TeTeTeTe H_S H_S C_TrTrTrPi H_S C_TrTrTrPi C_TeTeTeTe H_S H_S H_S C_TeTeTeTe H_S H_S C_TeTeTeTe H_S H_S C_TrTrTrPi H_S C_TrTrTrPi C_TeTeTeTe H_S H_S H_S C_TeTeTeTe H_S H_S C_TeTeTeTe H_S H_S C_TrTrTrPi H_S C_TrTrTrPi C_TeTeTeTe H_S H_S C_TeTeTeTe H_S H_S H_S C_TeTeTeTe H_S H_S C_TrTrTrPi H_S C_TrTrTrPi C_TeTeTeTe H_S H_S C_TeTeTeTe H_S H_S H_S C_TeTeTeTe H_S H_S C_TrTrTrPi H_S C_TrTrTrPi C_TeTeTeTe H_S H_S C_TeTeTeTe H_S H_S H_S C_TeTeTeTe H_S H_S C_TrTrTrPi H_S C_TrTrTrPi C_TeTeTeTe H_S H_S C_TeTeTeTe H_S H_S H_S C_TeTeTeTe H_S H_S C_TrTrTrPi H_S C_TrTrTrPi C_TeTeTeTe H_S H_S C_TeTeTeTe H_S H_S H_S C_TeTeTeTe H_S H_S C_TrTrTrPi H_S C_TrTrTrPi C_TeTeTeTe H_S H_S C_TeTeTeTe H_S H_S H_S C_TeTeTeTe H_S H_S C_TrTrTrPi H_S C_TrTrTrPi C_TeTeTeTe H_S H_S C_TeTeTeTe H_S H_S H_S C_TeTeTeTe H_S H_S C_TrTrTrPi H_S C_TrTrTrPi C_TeTeTeTe H_S H_S H_S C_TeTeTeTe H_S H_S H_S C_TeTeTeTe H_S C_TeTeTeTe H_S O_Te2Te2TeTe C_TeTeTeTe H_S C_TeTeTeTe H_S C_TeTeTeTe H_S O_Te2Te2TeTe O_Te2Te2TeTe H_S O_Te2Te2TeTe H_S C_TeTeTeTe H_S H_S H_S C_TeTeTeTe H_S C_TeTeTeTe H_S O_Te2Te2TeTe C_TeTeTeTe H_S C_TeTeTeTe H_S C_TeTeTeTe H_S N_TrTrTrPi2 H_S O_Te2Te2TeTe H_S C_TeTeTeTe H_S H_S O_Te2Te2TeTe H_S C_TrTrTrPi O_Tr2Tr2TrPi C_TeTeTeTe H_S H_S H_S
M  BCL BND NonConjugatedSingleBond NonConjugatedSingleBondInRing NonConjugatedSingleBondInRing NonConjugatedSingleBond NonConjugatedSingleBondInRing NonConjugatedSingleBond NonConjugatedSingleBond NonConjugatedSingleBondInRing NonConjugatedSingleBond NonConjugatedSingleBond NonConjugatedSingleBond NonConjugatedSingleBondInRing NonConjugatedSingleBond NonConjugatedSingleBond NonConjugatedSingleBond NonConjugatedSingleBond NonConjugatedSingleBond NonConjugatedSingleBond NonConjugatedSingleBond NonConjugatedSingleBond NonConjugatedSingleBond NonConjugatedSingleBond NonConjugatedSingleBond NonConjugatedSingleBond NonConjugatedSingleBondInRing NonConjugatedSingleBondInRing NonConjugatedSingleBondInRing NonConjugatedSingleBond NonConjugatedSingleBond NonConjugatedSingleBondInRing NonConjugatedSingleBond NonConjugatedSingleBond NonConjugatedSingleBond NonConjugatedSingleBondInRing NonConjugatedSingleBond NonConjugatedSingleBond NonConjugatedSingleBond NonConjugatedSingleBond NonConjugatedSingleBond NonConjugatedSingleBond NonConjugatedSingleBond NonConjugatedSingleBond NonConjugatedSingleBond NonConjugatedSingleBond NonConjugatedSingleBond NonConjugatedSingleBond ConjugatedSingleBond NonConjugatedSingleBond ConjugatedSingleBond ConjugatedSingleBond ConjugatedDoubleBond ConjugatedSingleBond ConjugatedSingleBond ConjugatedSingleBond ConjugatedDoubleBond NonConjugatedSingleBond NonConjugatedSingleBond NonConjugatedSingleBond NonConjugatedSingleBond NonConjugatedSingleBond ConjugatedDoubleBond NonConjugatedSingleBond NonConjugatedSingleBond NonConjugatedSingleBond NonConjugatedSingleBond NonConjugatedSingleBond NonConjugatedSingleBond NonConjugatedSingleBond NonConjugatedSingleBond NonConjugatedSingleBond NonConjugatedSingleBond NonConjugatedSingleBond NonConjugatedSingleBond ConjugatedDoubleBond NonConjugatedSingleBond NonConjugatedSingleBond NonConjugatedSingleBond NonConjugatedSingleBond NonConjugatedSingleBond NonConjugatedSingleBond NonConjugatedSingleBond NonConjugatedSingleBond NonConjugatedSingleBond NonConjugatedSingleBond NonConjugatedSingleBond NonConjugatedSingleBond ConjugatedDoubleBond NonConjugatedSingleBond NonConjugatedSingleBond NonConjugatedSingleBond NonConjugatedSingleBond NonConjugatedSingleBond NonConjugatedSingleBond NonConjugatedSingleBond NonConjugatedSingleBond NonConjugatedSingleBond NonConjugatedSingleBond NonConjugatedSingleBond NonConjugatedSingleBond ConjugatedDoubleBond NonConjugatedSingleBond NonConjugatedSingleBond NonConjugatedSingleBond NonConjugatedSingleBond NonConjugatedSingleBond NonConjugatedSingleBond NonConjugatedSingleBond NonConjugatedSingleBond NonConjugatedSingleBond NonConjugatedSingleBond NonConjugatedSingleBond NonConjugatedSingleBond ConjugatedDoubleBond NonConjugatedSingleBond NonConjugatedSingleBond NonConjugatedSingleBond NonConjugatedSingleBond NonConjugatedSingleBond NonConjugatedSingleBond NonConjugatedSingleBond NonConjugatedSingleBond NonConjugatedSingleBond NonConjugatedSingleBond NonConjugatedSingleBond NonConjugatedSingleBond ConjugatedDoubleBond NonConjugatedSingleBond NonConjugatedSingleBond NonConjugatedSingleBond NonConjugatedSingleBond NonConjugatedSingleBond NonConjugatedSingleBond NonConjugatedSingleBond NonConjugatedSingleBond NonConjugatedSingleBond NonConjugatedSingleBond NonConjugatedSingleBond NonConjugatedSingleBond ConjugatedDoubleBond NonConjugatedSingleBond NonConjugatedSingleBond NonConjugatedSingleBond NonConjugatedSingleBond NonConjugatedSingleBond NonConjugatedSingleBond NonConjugatedSingleBond NonConjugatedSingleBond NonConjugatedSingleBond NonConjugatedSingleBond NonConjugatedSingleBond NonConjugatedSingleBond ConjugatedDoubleBond NonConjugatedSingleBond NonConjugatedSingleBond NonConjugatedSingleBond NonConjugatedSingleBond NonConjugatedSingleBond NonConjugatedSingleBond NonConjugatedSingleBond NonConjugatedSingleBond NonConjugatedSingleBond NonConjugatedSingleBond NonConjugatedSingleBond NonConjugatedSingleBond ConjugatedDoubleBond NonConjugatedSingleBond NonConjugatedSingleBond NonConjugatedSingleBond NonConjugatedSingleBond NonConjugatedSingleBond NonConjugatedSingleBond NonConjugatedSingleBond NonConjugatedSingleBond NonConjugatedSingleBond NonConjugatedSingleBond NonConjugatedSingleBond NonConjugatedSingleBond ConjugatedDoubleBond NonConjugatedSingleBond NonConjugatedSingleBond NonConjugatedSingleBond NonConjugatedSingleBond NonConjugatedSingleBond NonConjugatedSingleBond NonConjugatedSingleBond NonConjugatedSingleBond NonConjugatedSingleBond NonConjugatedSingleBondInRing NonConjugatedSingleBondInRing NonConjugatedSingleBond NonConjugatedSingleBond NonConjugatedSingleBondInRing NonConjugatedSingleBond NonConjugatedSingleBondInRing NonConjugatedSingleBond NonConjugatedSingleBondInRing NonConjugatedSingleBond NonConjugatedSingleBond NonConjugatedSingleBondInRing NonConjugatedSingleBond NonConjugatedSingleBond NonConjugatedSingleBond NonConjugatedSingleBond NonConjugatedSingleBond NonConjugatedSingleBond NonConjugatedSingleBond NonConjugatedSingleBond NonConjugatedSingleBond NonConjugatedSingleBondInRing NonConjugatedSingleBondInRing NonConjugatedSingleBond NonConjugatedSingleBondInRing NonConjugatedSingleBond NonConjugatedSingleBondInRing NonConjugatedSingleBond NonConjugatedSingleBondInRing NonConjugatedSingleBond NonConjugatedSingleBondInRing NonConjugatedSingleBond NonConjugatedSingleBond NonConjugatedSingleBond NonConjugatedSingleBond AmideSingleBond NonConjugatedSingleBond NonConjugatedSingleBond NonConjugatedSingleBond NonConjugatedSingleBond NonConjugatedSingleBond ConjugatedDoubleBond NonConjugatedSingleBond NonConjugatedSingleBond NonConjugatedSingleBond NonConjugatedSingleBond
M  BCL CHI   1   R   4   R   8   R  17   S  20   R  22   S  25   R  29   S  38   S  42   R  46   R  50   S 185   R 187   S 190   S 192   R 194   R 205   R 207   S 210   R 212   S 214   S
M  BCL DBI - - E E E E E E E E Z - -
M  END
> <ConfClashScore>
0.00306978 

> <ConfOneFourInteractionScore>
-0.962748 

> <ConfScore>
0.328116 

> <ConfScorePBest>
0.0140685 

> <ConfTolerance>
2.14799 

$$$$
L05.****
  PyMOL2.5          3D                             0

230233  0  0  0  0  0  0  0  0999 V2000
   11.9979   -3.2612   -3.0279 C   0  0  0  1  0  0  0  0  0  0  0  0
   11.2547   -3.5877   -2.3308 H   0  0  0  1  0  0  0  0  0  0  0  0
   12.0418   -4.1261   -4.1433 O   0  0  0  1  0  0  0  0  0  0  0  0
   11.6379   -1.8963   -3.5862 C   0  0  0  1  0  0  0  0  0  0  0  0
   12.0315   -1.1117   -2.9744 H   0  0  0  1  0  0  0  0  0  0  0  0
   10.2227   -1.7436   -3.7056 O   0  0  0  1  0  0  0  0  0  0  0  0
    9.9490   -0.9368   -3.2632 H   0  0  0  1  0  0  0  0  0  0  0  0
   12.3003   -1.9168   -4.9397 C   0  0  0  1  0  0  0  0  0  0  0  0
   11.8399   -1.2216   -5.6102 H   0  0  0  1  0  0  0  0  0  0  0  0
   13.6964   -1.6311   -4.8411 O   0  0  0  1  0  0  0  0  0  0  0  0
   14.0325   -1.3742   -5.7029 H   0  0  0  1  0  0  0  0  0  0  0  0
   10.2815   -4.9314   -6.2473 C   0  0  0  1  0  0  0  0  0  0  0  0
   10.1468   -5.3523   -5.2729 H   0  0  0  1  0  0  0  0  0  0  0  0
    9.3515   -4.9502   -6.7762 H   0  0  0  1  0  0  0  0  0  0  0  0
   11.2264   -5.7203   -6.9582 O   0  0  0  1  0  0  0  0  0  0  0  0
   10.9227   -6.6303   -6.9928 H   0  0  0  1  0  0  0  0  0  0  0  0
   10.7294   -3.4815   -6.0965 C   0  0  0  1  0  0  0  0  0  0  0  0
    9.9875   -2.9553   -5.5329 H   0  0  0  1  0  0  0  0  0  0  0  0
   10.8718   -2.8853   -7.3806 O   0  0  0  1  0  0  0  0  0  0  0  0
   12.0561   -3.3600   -5.3785 C   0  0  0  1  0  0  0  0  0  0  0  0
   12.8423   -3.6965   -6.0216 H   0  0  0  1  0  0  0  0  0  0  0  0
    9.7548   -3.0185   -8.1833 C   0  0  0  1  0  0  0  0  0  0  0  0
    9.6968   -4.0216   -8.5510 H   0  0  0  1  0  0  0  0  0  0  0  0
    8.5441   -2.6669   -7.4469 O   0  0  0  1  0  0  0  0  0  0  0  0
    9.7965   -2.0307   -9.3266 C   0  0  0  1  0  0  0  0  0  0  0  0
    9.2267   -2.3860  -10.1597 H   0  0  0  1  0  0  0  0  0  0  0  0
   11.1416   -1.7842   -9.7394 O   0  0  0  1  0  0  0  0  0  0  0  0
   11.7353   -1.9262   -8.9984 H   0  0  0  1  0  0  0  0  0  0  0  0
    9.1654   -0.7655   -8.7301 C   0  0  0  1  0  0  0  0  0  0  0  0
    8.6442   -0.2052   -9.4781 H   0  0  0  1  0  0  0  0  0  0  0  0
   10.1516    0.0606   -8.1181 O   0  0  0  1  0  0  0  0  0  0  0  0
   10.9742   -0.0054   -8.6086 H   0  0  0  1  0  0  0  0  0  0  0  0
    5.6913   -1.6522   -7.2389 C   0  0  0  1  0  0  0  0  0  0  0  0
    5.8327   -2.6764   -6.9632 H   0  0  0  1  0  0  0  0  0  0  0  0
    5.7734   -1.0337   -6.3697 H   0  0  0  1  0  0  0  0  0  0  0  0
    4.3880   -1.5026   -7.7833 O   0  0  0  1  0  0  0  0  0  0  0  0
    4.4342   -1.5440   -8.7413 H   0  0  0  1  0  0  0  0  0  0  0  0
    6.7688   -1.2615   -8.2127 C   0  0  0  1  0  0  0  0  0  0  0  0
    6.5998   -0.2254   -8.4193 H   0  0  0  1  0  0  0  0  0  0  0  0
    6.6916   -1.9337   -9.4692 O   0  0  0  1  0  0  0  0  0  0  0  0
    7.5614   -1.9558   -9.8749 H   0  0  0  1  0  0  0  0  0  0  0  0
    8.1921   -1.3331   -7.6848 C   0  0  0  1  0  0  0  0  0  0  0  0
    8.2652   -0.7708   -6.7774 H   0  0  0  1  0  0  0  0  0  0  0  0
   13.2660   -3.2160   -2.3840 O   0  0  0  1  0  0  0  0  0  0  0  0
   20.8024  -11.2303   -7.2243 O   0  0  0  1  0  0  0  0  0  0  0  0
   21.2639  -10.4551   -5.8699 P   0  0  0  1  0  0  0  0  0  0  0  0
   20.0170  -10.6362   -4.8570 O   0  0  0  1  0  0  0  0  0  0  0  0
   21.3809   -8.9941   -6.0917 O   0  0  0  0  0  0  0  0  0  0  0  0
   22.4232  -11.2047   -5.4225 O   0  0  0  1  0  0  0  0  0  0  0  0
   18.8851   -9.6437   -4.3665 P   0  0  0  1  0  0  0  0  0  0  0  0
   19.6009   -8.5513   -3.4949 O   0  0  0  1  0  0  0  0  0  0  0  0
   17.8485  -10.4497   -3.6904 O   0  0  0  0  0  0  0  0  0  0  0  0
   18.3134   -8.8919   -5.5193 O   0  0  0  1  0  0  0  0  0  0  0  0
   21.6543  -12.2588   -7.7526 C   0  0  0  1  0  0  0  0  0  0  0  0
   21.6591  -13.0863   -7.0743 H   0  0  0  1  0  0  0  0  0  0  0  0
   22.6466  -11.8703   -7.8493 H   0  0  0  1  0  0  0  0  0  0  0  0
   21.1962  -12.7265   -9.0699 C   0  0  0  1  0  0  0  0  0  0  0  0
   20.1615  -12.8166   -9.1224 H   0  0  0  1  0  0  0  0  0  0  0  0
   21.7939  -13.0610  -10.2086 C   0  0  0  1  0  0  0  0  0  0  0  0
   21.0727  -13.2052  -11.5159 C   0  0  0  1  0  0  0  0  0  0  0  0
   21.5436  -12.5893  -12.2533 H   0  0  0  1  0  0  0  0  0  0  0  0
   20.0536  -12.9019  -11.3961 H   0  0  0  1  0  0  0  0  0  0  0  0
   21.1066  -14.2273  -11.8307 H   0  0  0  1  0  0  0  0  0  0  0  0
   23.2692  -13.3256  -10.2726 C   0  0  0  1  0  0  0  0  0  0  0  0
   23.4393  -14.1481  -10.9356 H   0  0  0  1  0  0  0  0  0  0  0  0
   23.6124  -13.5806   -9.2917 H   0  0  0  1  0  0  0  0  0  0  0  0
   24.0674  -12.1310  -10.7690 C   0  0  0  1  0  0  0  0  0  0  0  0
   25.0999  -12.3116  -10.5541 H   0  0  0  1  0  0  0  0  0  0  0  0
   23.7365  -11.2668  -10.2319 H   0  0  0  1  0  0  0  0  0  0  0  0
   23.9437  -11.8391  -12.2392 C   0  0  0  1  0  0  0  0  0  0  0  0
   23.1544  -12.2971  -12.7380 H   0  0  0  1  0  0  0  0  0  0  0  0
   24.7294  -11.0638  -12.9660 C   0  0  0  1  0  0  0  0  0  0  0  0
   24.3023  -10.6023  -14.3307 C   0  0  0  1  0  0  0  0  0  0  0  0
   24.5318   -9.5634  -14.4445 H   0  0  0  1  0  0  0  0  0  0  0  0
   23.2483  -10.7488  -14.4427 H   0  0  0  1  0  0  0  0  0  0  0  0
   24.8225  -11.1661  -15.0766 H   0  0  0  1  0  0  0  0  0  0  0  0
   26.1187  -10.6608  -12.5544 C   0  0  0  1  0  0  0  0  0  0  0  0
   26.4993   -9.9666  -13.2741 H   0  0  0  1  0  0  0  0  0  0  0  0
   26.7363  -11.5345  -12.5395 H   0  0  0  1  0  0  0  0  0  0  0  0
   26.1678  -10.0102  -11.1815 C   0  0  0  1  0  0  0  0  0  0  0  0
   27.1321   -9.5588  -11.0755 H   0  0  0  1  0  0  0  0  0  0  0  0
   26.0553  -10.7873  -10.4547 H   0  0  0  1  0  0  0  0  0  0  0  0
   25.1464   -8.9608  -10.8765 C   0  0  0  1  0  0  0  0  0  0  0  0
   24.1621   -9.1530  -11.1516 H   0  0  0  1  0  0  0  0  0  0  0  0
   25.4033   -7.8004  -10.2796 C   0  0  0  1  0  0  0  0  0  0  0  0
   26.7204   -7.6104   -9.5759 C   0  0  0  1  0  0  0  0  0  0  0  0
   27.1161   -6.6435   -9.8069 H   0  0  0  1  0  0  0  0  0  0  0  0
   27.4105   -8.3639   -9.8934 H   0  0  0  1  0  0  0  0  0  0  0  0
   24.4805   -6.6175  -10.2341 C   0  0  0  1  0  0  0  0  0  0  0  0
   24.7080   -6.0198   -9.3763 H   0  0  0  1  0  0  0  0  0  0  0  0
   23.4678   -6.9576  -10.1732 H   0  0  0  1  0  0  0  0  0  0  0  0
   24.6078   -6.0318  -11.1205 H   0  0  0  1  0  0  0  0  0  0  0  0
   26.4908   -7.7250   -8.0777 C   0  0  0  1  0  0  0  0  0  0  0  0
   25.9446   -8.6288   -7.9057 H   0  0  0  1  0  0  0  0  0  0  0  0
   25.8967   -6.8864   -7.7798 H   0  0  0  1  0  0  0  0  0  0  0  0
   27.7046   -7.7559   -7.1878 C   0  0  0  1  0  0  0  0  0  0  0  0
   28.5265   -8.2849   -7.5431 H   0  0  0  1  0  0  0  0  0  0  0  0
   27.8396   -7.1812   -5.9986 C   0  0  0  1  0  0  0  0  0  0  0  0
   26.7209   -6.3904   -5.3815 C   0  0  0  1  0  0  0  0  0  0  0  0
   26.6296   -6.6908   -4.3586 H   0  0  0  1  0  0  0  0  0  0  0  0
   25.8194   -6.6294   -5.9058 H   0  0  0  1  0  0  0  0  0  0  0  0
   29.0871   -7.2578   -5.1681 C   0  0  0  1  0  0  0  0  0  0  0  0
   28.8288   -7.2130   -4.1307 H   0  0  0  1  0  0  0  0  0  0  0  0
   29.7283   -6.4365   -5.4115 H   0  0  0  1  0  0  0  0  0  0  0  0
   29.5937   -8.1784   -5.3698 H   0  0  0  1  0  0  0  0  0  0  0  0
   26.8956   -4.8808   -5.4131 C   0  0  0  1  0  0  0  0  0  0  0  0
   27.0835   -4.5704   -6.4197 H   0  0  0  1  0  0  0  0  0  0  0  0
   27.7263   -4.6108   -4.7950 H   0  0  0  1  0  0  0  0  0  0  0  0
   25.6581   -4.1896   -4.9063 C   0  0  0  1  0  0  0  0  0  0  0  0
   24.9053   -4.0171   -5.6028 H   0  0  0  1  0  0  0  0  0  0  0  0
   25.4234   -3.7764   -3.6666 C   0  0  0  1  0  0  0  0  0  0  0  0
   26.4351   -3.9697   -2.5746 C   0  0  0  1  0  0  0  0  0  0  0  0
   26.5117   -3.0601   -2.0164 H   0  0  0  1  0  0  0  0  0  0  0  0
   27.3806   -4.1948   -3.0223 H   0  0  0  1  0  0  0  0  0  0  0  0
   24.1570   -3.0910   -3.2364 C   0  0  0  1  0  0  0  0  0  0  0  0
   24.3749   -2.0819   -2.9552 H   0  0  0  1  0  0  0  0  0  0  0  0
   23.7364   -3.6110   -2.4012 H   0  0  0  1  0  0  0  0  0  0  0  0
   23.4582   -3.0923   -4.0467 H   0  0  0  1  0  0  0  0  0  0  0  0
   26.0722   -5.0947   -1.6191 C   0  0  0  1  0  0  0  0  0  0  0  0
   26.0848   -6.0181   -2.1596 H   0  0  0  1  0  0  0  0  0  0  0  0
   25.0875   -4.9158   -1.2407 H   0  0  0  1  0  0  0  0  0  0  0  0
   27.0137   -5.2074   -0.4622 C   0  0  0  1  0  0  0  0  0  0  0  0
   28.0202   -5.3297   -0.6938 H   0  0  0  1  0  0  0  0  0  0  0  0
   26.7005   -5.1679    0.8415 C   0  0  0  1  0  0  0  0  0  0  0  0
   25.3788   -4.6837    1.3749 C   0  0  0  1  0  0  0  0  0  0  0  0
   24.9189   -5.4812    1.9202 H   0  0  0  1  0  0  0  0  0  0  0  0
   24.7569   -4.4114    0.5478 H   0  0  0  1  0  0  0  0  0  0  0  0
   27.6329   -5.6042    1.9494 C   0  0  0  1  0  0  0  0  0  0  0  0
   28.2168   -6.4372    1.6175 H   0  0  0  1  0  0  0  0  0  0  0  0
   27.0592   -5.8899    2.8062 H   0  0  0  1  0  0  0  0  0  0  0  0
   28.2824   -4.7942    2.2083 H   0  0  0  1  0  0  0  0  0  0  0  0
   25.5126   -3.4820    2.2959 C   0  0  0  1  0  0  0  0  0  0  0  0
   24.5563   -3.0201    2.4267 H   0  0  0  1  0  0  0  0  0  0  0  0
   26.1949   -2.7761    1.8704 H   0  0  0  1  0  0  0  0  0  0  0  0
   26.0305   -3.9490    3.6166 C   0  0  0  1  0  0  0  0  0  0  0  0
   25.4870   -4.6689    4.1342 H   0  0  0  1  0  0  0  0  0  0  0  0
   27.1525   -3.4894    4.1634 C   0  0  0  1  0  0  0  0  0  0  0  0
   27.8898   -2.2532    3.7374 C   0  0  0  1  0  0  0  0  0  0  0  0
   28.4093   -2.4636    2.8259 H   0  0  0  1  0  0  0  0  0  0  0  0
   28.5956   -1.9978    4.5000 H   0  0  0  1  0  0  0  0  0  0  0  0
   27.7733   -4.2382    5.3091 C   0  0  0  1  0  0  0  0  0  0  0  0
   27.0094   -4.7473    5.8588 H   0  0  0  1  0  0  0  0  0  0  0  0
   28.2773   -3.5490    5.9539 H   0  0  0  1  0  0  0  0  0  0  0  0
   28.4751   -4.9515    4.9301 H   0  0  0  1  0  0  0  0  0  0  0  0
   26.9732   -1.0625    3.5081 C   0  0  0  1  0  0  0  0  0  0  0  0
   26.5092   -0.8187    4.4409 H   0  0  0  1  0  0  0  0  0  0  0  0
   26.2240   -1.3540    2.8019 H   0  0  0  1  0  0  0  0  0  0  0  0
   27.6455    0.1775    2.9861 C   0  0  0  1  0  0  0  0  0  0  0  0
   28.6844    0.1782    2.9395 H   0  0  0  1  0  0  0  0  0  0  0  0
   27.0110    1.2721    2.5802 C   0  0  0  1  0  0  0  0  0  0  0  0
   25.5661    1.5569    2.8779 C   0  0  0  1  0  0  0  0  0  0  0  0
   24.9564    0.8272    2.3872 H   0  0  0  1  0  0  0  0  0  0  0  0
   25.3185    2.5321    2.5139 H   0  0  0  1  0  0  0  0  0  0  0  0
   27.7070    2.3303    1.7753 C   0  0  0  1  0  0  0  0  0  0  0  0
   28.7119    2.0227    1.5740 H   0  0  0  1  0  0  0  0  0  0  0  0
   27.7187    3.2473    2.3265 H   0  0  0  1  0  0  0  0  0  0  0  0
   27.1868    2.4753    0.8517 H   0  0  0  1  0  0  0  0  0  0  0  0
   25.3029    1.5017    4.3739 C   0  0  0  1  0  0  0  0  0  0  0  0
   25.9895    2.1592    4.8649 H   0  0  0  1  0  0  0  0  0  0  0  0
   25.4648    0.4993    4.7114 H   0  0  0  1  0  0  0  0  0  0  0  0
   23.9016    1.9106    4.7416 C   0  0  0  1  0  0  0  0  0  0  0  0
   23.7759    2.8312    5.2087 H   0  0  0  1  0  0  0  0  0  0  0  0
   22.8030    1.1761    4.5117 C   0  0  0  1  0  0  0  0  0  0  0  0
   21.4692    1.4343    5.1567 C   0  0  0  1  0  0  0  0  0  0  0  0
   20.9846    0.4953    5.3248 H   0  0  0  1  0  0  0  0  0  0  0  0
   20.8778    2.0273    4.4906 H   0  0  0  1  0  0  0  0  0  0  0  0
   22.7589   -0.0003    3.5809 C   0  0  0  1  0  0  0  0  0  0  0  0
   21.9655    0.2083    2.8940 H   0  0  0  1  0  0  0  0  0  0  0  0
   22.5562   -0.8995    4.1243 H   0  0  0  1  0  0  0  0  0  0  0  0
   23.6881   -0.0997    3.0598 H   0  0  0  1  0  0  0  0  0  0  0  0
   21.5815    2.1652    6.4847 C   0  0  0  1  0  0  0  0  0  0  0  0
   22.1720    3.0457    6.3400 H   0  0  0  1  0  0  0  0  0  0  0  0
   22.0670    1.5212    7.1879 H   0  0  0  1  0  0  0  0  0  0  0  0
   20.2464    2.5711    7.0492 C   0  0  0  1  0  0  0  0  0  0  0  0
   19.8093    3.4216    6.6403 H   0  0  0  1  0  0  0  0  0  0  0  0
   19.5663    1.9612    8.0126 C   0  0  0  1  0  0  0  0  0  0  0  0
   20.0943    0.7233    8.6774 C   0  0  0  1  0  0  0  0  0  0  0  0
   19.7628   -0.1402    8.1394 H   0  0  0  1  0  0  0  0  0  0  0  0
   19.7327    0.6770    9.6834 H   0  0  0  1  0  0  0  0  0  0  0  0
   21.1640    0.7506    8.6833 H   0  0  0  1  0  0  0  0  0  0  0  0
   18.2282    2.4329    8.5278 C   0  0  0  1  0  0  0  0  0  0  0  0
   18.3121    2.5330    9.5898 H   0  0  0  1  0  0  0  0  0  0  0  0
   17.4704    1.7171    8.2866 H   0  0  0  1  0  0  0  0  0  0  0  0
   17.9800    3.3772    8.0900 H   0  0  0  1  0  0  0  0  0  0  0  0
   16.1686   -5.0730   -1.5602 C   0  0  0  1  0  0  0  0  0  0  0  0
   16.4506   -5.5511   -0.6454 H   0  0  0  1  0  0  0  0  0  0  0  0
   14.9140   -5.7361   -2.1137 C   0  0  0  1  0  0  0  0  0  0  0  0
   15.1156   -6.7638   -2.3329 H   0  0  0  1  0  0  0  0  0  0  0  0
   15.9067   -3.6895   -1.3135 O   0  0  0  1  0  0  0  0  0  0  0  0
   14.5039   -5.0052   -3.3961 C   0  0  0  1  0  0  0  0  0  0  0  0
   13.5520   -5.3766   -3.7136 H   0  0  0  1  0  0  0  0  0  0  0  0
   15.6498   -2.9588   -2.5229 C   0  0  0  1  0  0  0  0  0  0  0  0
   16.4845   -3.0623   -3.1842 H   0  0  0  1  0  0  0  0  0  0  0  0
   14.3999   -3.5027   -3.1987 C   0  0  0  1  0  0  0  0  0  0  0  0
   14.2833   -3.0310   -4.1520 H   0  0  0  1  0  0  0  0  0  0  0  0
   17.2261   -5.1946   -2.5057 O   0  0  0  1  0  0  0  0  0  0  0  0
   13.8601   -5.6512   -1.1527 O   0  0  0  1  0  0  0  0  0  0  0  0
   13.1824   -6.2981   -1.3623 H   0  0  0  1  0  0  0  0  0  0  0  0
   15.4738   -5.2670   -4.3999 O   0  0  0  1  0  0  0  0  0  0  0  0
   15.2800   -4.7393   -5.1781 H   0  0  0  1  0  0  0  0  0  0  0  0
   15.4447   -1.4898   -2.1906 C   0  0  0  1  0  0  0  0  0  0  0  0
   16.3610   -1.0749   -1.8257 H   0  0  0  1  0  0  0  0  0  0  0  0
   14.6874   -1.3964   -1.4405 H   0  0  0  1  0  0  0  0  0  0  0  0
   15.1414   -0.9641   -3.0718 H   0  0  0  1  0  0  0  0  0  0  0  0
   19.1582   -7.1783   -3.4296 C   0  0  0  1  0  0  0  0  0  0  0  0
   18.2535   -7.0676   -3.9901 H   0  0  0  1  0  0  0  0  0  0  0  0
   18.9097   -6.7988   -1.9953 C   0  0  0  1  0  0  0  0  0  0  0  0
   19.8033   -6.9531   -1.4273 H   0  0  0  1  0  0  0  0  0  0  0  0
   20.1557   -6.3345   -3.9719 O   0  0  0  1  0  0  0  0  0  0  0  0
   18.5104   -5.3541   -1.9126 C   0  0  0  1  0  0  0  0  0  0  0  0
   18.4672   -5.0637   -0.8836 H   0  0  0  1  0  0  0  0  0  0  0  0
   19.7045   -4.9703   -4.0469 C   0  0  0  1  0  0  0  0  0  0  0  0
   20.4405   -4.3716   -4.5417 H   0  0  0  1  0  0  0  0  0  0  0  0
   19.4973   -4.4649   -2.6325 C   0  0  0  1  0  0  0  0  0  0  0  0
   19.1174   -3.4651   -2.6644 H   0  0  0  1  0  0  0  0  0  0  0  0
   17.8425   -7.6259   -1.4554 N   0  0  0  1  0  0  0  0  0  0  0  0
   16.9339   -7.5473   -1.8141 H   0  0  0  1  0  0  0  0  0  0  0  0
   20.7403   -4.4791   -1.9384 O   0  0  0  1  0  0  0  0  0  0  0  0
   20.8737   -3.5899   -1.6019 H   0  0  0  1  0  0  0  0  0  0  0  0
   18.4006   -4.9026   -4.8119 C   0  0  0  1  0  0  0  0  0  0  0  0
   17.6719   -5.4971   -4.3016 H   0  0  0  1  0  0  0  0  0  0  0  0
   18.5581   -5.2961   -5.7944 H   0  0  0  1  0  0  0  0  0  0  0  0
   17.9057   -3.5719   -4.9266 O   0  0  0  1  0  0  0  0  0  0  0  0
   17.0637   -3.6033   -5.3868 H   0  0  0  1  0  0  0  0  0  0  0  0
   18.1077   -8.5254   -0.4341 C   0  0  0  1  0  0  0  0  0  0  0  0
   19.2527   -8.6307   -0.0338 O   0  0  0  1  0  0  0  0  0  0  0  0
   16.9778   -9.3339    0.1389 C   0  0  0  1  0  0  0  0  0  0  0  0
   17.4384  -10.2442    0.4615 H   0  0  0  1  0  0  0  0  0  0  0  0
   16.2357   -9.5289   -0.6069 H   0  0  0  1  0  0  0  0  0  0  0  0
   16.5283   -8.8237    0.9651 H   0  0  0  1  0  0  0  0  0  0  0  0
  1  2  1  0  0  0  0
  1  3  1  0  0  0  0
  1  4  1  0  0  0  0
  1 44  1  0  0  0  0
  3 20  1  0  0  0  0
  4  5  1  0  0  0  0
  4  6  1  0  0  0  0
  4  8  1  0  0  0  0
  6  7  1  0  0  0  0
  8  9  1  0  0  0  0
  8 10  1  0  0  0  0
  8 20  1  0  0  0  0
 10 11  1  0  0  0  0
 12 13  1  0  0  0  0
 12 14  1  0  0  0  0
 12 15  1  0  0  0  0
 12 17  1  0  0  0  0
 15 16  1  0  0  0  0
 17 18  1  0  0  0  0
 17 19  1  0  0  0  0
 17 20  1  0  0  0  0
 19 22  1  0  0  0  0
 20 21  1  0  0  0  0
 22 23  1  0  0  0  0
 22 24  1  0  0  0  0
 22 25  1  0  0  0  0
 24 42  1  0  0  0  0
 25 26  1  0  0  0  0
 25 27  1  0  0  0  0
 25 29  1  0  0  0  0
 27 28  1  0  0  0  0
 29 30  1  0  0  0  0
 29 31  1  0  0  0  0
 29 42  1  0  0  0  0
 31 32  1  0  0  0  0
 33 34  1  0  0  0  0
 33 35  1  0  0  0  0
 33 36  1  0  0  0  0
 33 38  1  0  0  0  0
 36 37  1  0  0  0  0
 38 39  1  0  0  0  0
 38 40  1  0  0  0  0
 38 42  1  0  0  0  0
 40 41  1  0  0  0  0
 42 43  1  0  0  0  0
 44194  1  0  0  0  0
 45 46  1  0  0  0  0
 45 54  1  0  0  0  0
 46 47  1  0  0  0  0
 46 48  1  0  0  0  0
 46 49  2  0  0  0  0
 47 50  1  0  0  0  0
 50 51  1  0  0  0  0
 50 52  1  0  0  0  0
 50 53  2  0  0  0  0
 51205  1  0  0  0  0
 54 55  1  0  0  0  0
 54 56  1  0  0  0  0
 54 57  1  0  0  0  0
 57 58  1  0  0  0  0
 57 59  2  0  0  0  0
 59 60  1  0  0  0  0
 59 64  1  0  0  0  0
 60 61  1  0  0  0  0
 60 62  1  0  0  0  0
 60 63  1  0  0  0  0
 64 65  1  0  0  0  0
 64 66  1  0  0  0  0
 64 67  1  0  0  0  0
 67 68  1  0  0  0  0
 67 69  1  0  0  0  0
 67 70  1  0  0  0  0
 70 71  1  0  0  0  0
 70 72  2  0  0  0  0
 72 73  1  0  0  0  0
 72 77  1  0  0  0  0
 73 74  1  0  0  0  0
 73 75  1  0  0  0  0
 73 76  1  0  0  0  0
 77 78  1  0  0  0  0
 77 79  1  0  0  0  0
 77 80  1  0  0  0  0
 80 81  1  0  0  0  0
 80 82  1  0  0  0  0
 80 83  1  0  0  0  0
 83 84  1  0  0  0  0
 83 85  2  0  0  0  0
 85 86  1  0  0  0  0
 85 89  1  0  0  0  0
 86 87  1  0  0  0  0
 86 88  1  0  0  0  0
 86 93  1  0  0  0  0
 89 90  1  0  0  0  0
 89 91  1  0  0  0  0
 89 92  1  0  0  0  0
 93 94  1  0  0  0  0
 93 95  1  0  0  0  0
 93 96  1  0  0  0  0
 96 97  1  0  0  0  0
 96 98  2  0  0  0  0
 98 99  1  0  0  0  0
 98102  1  0  0  0  0
 99100  1  0  0  0  0
 99101  1  0  0  0  0
 99106  1  0  0  0  0
102103  1  0  0  0  0
102104  1  0  0  0  0
102105  1  0  0  0  0
106107  1  0  0  0  0
106108  1  0  0  0  0
106109  1  0  0  0  0
109110  1  0  0  0  0
109111  2  0  0  0  0
111112  1  0  0  0  0
111115  1  0  0  0  0
112113  1  0  0  0  0
112114  1  0  0  0  0
112119  1  0  0  0  0
115116  1  0  0  0  0
115117  1  0  0  0  0
115118  1  0  0  0  0
119120  1  0  0  0  0
119121  1  0  0  0  0
119122  1  0  0  0  0
122123  1  0  0  0  0
122124  2  0  0  0  0
124125  1  0  0  0  0
124128  1  0  0  0  0
125126  1  0  0  0  0
125127  1  0  0  0  0
125132  1  0  0  0  0
128129  1  0  0  0  0
128130  1  0  0  0  0
128131  1  0  0  0  0
132133  1  0  0  0  0
132134  1  0  0  0  0
132135  1  0  0  0  0
135136  1  0  0  0  0
135137  2  0  0  0  0
137138  1  0  0  0  0
137141  1  0  0  0  0
138139  1  0  0  0  0
138140  1  0  0  0  0
138145  1  0  0  0  0
141142  1  0  0  0  0
141143  1  0  0  0  0
141144  1  0  0  0  0
145146  1  0  0  0  0
145147  1  0  0  0  0
145148  1  0  0  0  0
148149  1  0  0  0  0
148150  2  0  0  0  0
150151  1  0  0  0  0
150154  1  0  0  0  0
151152  1  0  0  0  0
151153  1  0  0  0  0
151158  1  0  0  0  0
154155  1  0  0  0  0
154156  1  0  0  0  0
154157  1  0  0  0  0
158159  1  0  0  0  0
158160  1  0  0  0  0
158161  1  0  0  0  0
161162  1  0  0  0  0
161163  2  0  0  0  0
163164  1  0  0  0  0
163167  1  0  0  0  0
164165  1  0  0  0  0
164166  1  0  0  0  0
164171  1  0  0  0  0
167168  1  0  0  0  0
167169  1  0  0  0  0
167170  1  0  0  0  0
171172  1  0  0  0  0
171173  1  0  0  0  0
171174  1  0  0  0  0
174175  1  0  0  0  0
174176  2  0  0  0  0
176177  1  0  0  0  0
176181  1  0  0  0  0
177178  1  0  0  0  0
177179  1  0  0  0  0
177180  1  0  0  0  0
181182  1  0  0  0  0
181183  1  0  0  0  0
181184  1  0  0  0  0
185186  1  0  0  0  0
185187  1  0  0  0  0
185189  1  0  0  0  0
185196  1  0  0  0  0
187188  1  0  0  0  0
187190  1  0  0  0  0
187197  1  0  0  0  0
189192  1  0  0  0  0
190191  1  0  0  0  0
190194  1  0  0  0  0
190199  1  0  0  0  0
192193  1  0  0  0  0
192194  1  0  0  0  0
192201  1  0  0  0  0
194195  1  0  0  0  0
196210  1  0  0  0  0
197198  1  0  0  0  0
199200  1  0  0  0  0
201202  1  0  0  0  0
201203  1  0  0  0  0
201204  1  0  0  0  0
205206  1  0  0  0  0
205207  1  0  0  0  0
205209  1  0  0  0  0
207208  1  0  0  0  0
207210  1  0  0  0  0
207216  1  0  0  0  0
209212  1  0  0  0  0
210211  1  0  0  0  0
210214  1  0  0  0  0
212213  1  0  0  0  0
212214  1  0  0  0  0
212220  1  0  0  0  0
214215  1  0  0  0  0
214218  1  0  0  0  0
216217  1  0  0  0  0
216225  1  0  0  0  0
218219  1  0  0  0  0
220221  1  0  0  0  0
220222  1  0  0  0  0
220223  1  0  0  0  0
223224  1  0  0  0  0
225226  2  0  0  0  0
225227  1  0  0  0  0
227228  1  0  0  0  0
227229  1  0  0  0  0
227230  1  0  0  0  0
M  BCL ATM C_TeTeTeTe H_S O_Te2Te2TeTe C_TeTeTeTe H_S O_Te2Te2TeTe H_S C_TeTeTeTe H_S O_Te2Te2TeTe H_S C_TeTeTeTe H_S H_S O_Te2Te2TeTe H_S C_TeTeTeTe H_S O_Te2Te2TeTe C_TeTeTeTe H_S C_TeTeTeTe H_S O_Te2Te2TeTe C_TeTeTeTe H_S O_Te2Te2TeTe H_S C_TeTeTeTe H_S O_Te2Te2TeTe H_S C_TeTeTeTe H_S H_S O_Te2Te2TeTe H_S C_TeTeTeTe H_S O_Te2Te2TeTe H_S C_TeTeTeTe H_S O_Te2Te2TeTe O_Tr2TrTrPi2 P_TeTeTeTePi O_Tr2TrTrPi2 O_Te2Te2TeTe O_Tr2Tr2TrPi P_TeTeTeTePi O_Tr2TrTrPi2 O_Te2Te2TeTe O_Tr2Tr2TrPi C_TeTeTeTe H_S H_S C_TrTrTrPi H_S C_TrTrTrPi C_TeTeTeTe H_S H_S H_S C_TeTeTeTe H_S H_S C_TeTeTeTe H_S H_S C_TrTrTrPi H_S C_TrTrTrPi C_TeTeTeTe H_S H_S H_S C_TeTeTeTe H_S H_S C_TeTeTeTe H_S H_S C_TrTrTrPi H_S C_TrTrTrPi C_TeTeTeTe H_S H_S C_TeTeTeTe H_S H_S H_S C_TeTeTeTe H_S H_S C_TrTrTrPi H_S C_TrTrTrPi C_TeTeTeTe H_S H_S C_TeTeTeTe H_S H_S H_S C_TeTeTeTe H_S H_S C_TrTrTrPi H_S C_TrTrTrPi C_TeTeTeTe H_S H_S C_TeTeTeTe H_S H_S H_S C_TeTeTeTe H_S H_S C_TrTrTrPi H_S C_TrTrTrPi C_TeTeTeTe H_S H_S C_TeTeTeTe H_S H_S H_S C_TeTeTeTe H_S H_S C_TrTrTrPi H_S C_TrTrTrPi C_TeTeTeTe H_S H_S C_TeTeTeTe H_S H_S H_S C_TeTeTeTe H_S H_S C_TrTrTrPi H_S C_TrTrTrPi C_TeTeTeTe H_S H_S C_TeTeTeTe H_S H_S H_S C_TeTeTeTe H_S H_S C_TrTrTrPi H_S C_TrTrTrPi C_TeTeTeTe H_S H_S C_TeTeTeTe H_S H_S H_S C_TeTeTeTe H_S H_S C_TrTrTrPi H_S C_TrTrTrPi C_TeTeTeTe H_S H_S H_S C_TeTeTeTe H_S H_S H_S C_TeTeTeTe H_S C_TeTeTeTe H_S O_Te2Te2TeTe C_TeTeTeTe H_S C_TeTeTeTe H_S C_TeTeTeTe H_S O_Te2Te2TeTe O_Te2Te2TeTe H_S O_Te2Te2TeTe H_S C_TeTeTeTe H_S H_S H_S C_TeTeTeTe H_S C_TeTeTeTe H_S O_Te2Te2TeTe C_TeTeTeTe H_S C_TeTeTeTe H_S C_TeTeTeTe H_S N_TrTrTrPi2 H_S O_Te2Te2TeTe H_S C_TeTeTeTe H_S H_S O_Te2Te2TeTe H_S C_TrTrTrPi O_Tr2Tr2TrPi C_TeTeTeTe H_S H_S H_S
M  BCL BND NonConjugatedSingleBond NonConjugatedSingleBondInRing NonConjugatedSingleBondInRing NonConjugatedSingleBond NonConjugatedSingleBondInRing NonConjugatedSingleBond NonConjugatedSingleBond NonConjugatedSingleBondInRing NonConjugatedSingleBond NonConjugatedSingleBond NonConjugatedSingleBond NonConjugatedSingleBondInRing NonConjugatedSingleBond NonConjugatedSingleBond NonConjugatedSingleBond NonConjugatedSingleBond NonConjugatedSingleBond NonConjugatedSingleBond NonConjugatedSingleBond NonConjugatedSingleBond NonConjugatedSingleBond NonConjugatedSingleBond NonConjugatedSingleBond NonConjugatedSingleBond NonConjugatedSingleBondInRing NonConjugatedSingleBondInRing NonConjugatedSingleBondInRing NonConjugatedSingleBond NonConjugatedSingleBond NonConjugatedSingleBondInRing NonConjugatedSingleBond NonConjugatedSingleBond NonConjugatedSingleBond NonConjugatedSingleBondInRing NonConjugatedSingleBond NonConjugatedSingleBond NonConjugatedSingleBond NonConjugatedSingleBond NonConjugatedSingleBond NonConjugatedSingleBond NonConjugatedSingleBond NonConjugatedSingleBond NonConjugatedSingleBond NonConjugatedSingleBond NonConjugatedSingleBond NonConjugatedSingleBond ConjugatedSingleBond NonConjugatedSingleBond ConjugatedSingleBond ConjugatedSingleBond ConjugatedDoubleBond ConjugatedSingleBond ConjugatedSingleBond ConjugatedSingleBond ConjugatedDoubleBond NonConjugatedSingleBond NonConjugatedSingleBond NonConjugatedSingleBond NonConjugatedSingleBond NonConjugatedSingleBond ConjugatedDoubleBond NonConjugatedSingleBond NonConjugatedSingleBond NonConjugatedSingleBond NonConjugatedSingleBond NonConjugatedSingleBond NonConjugatedSingleBond NonConjugatedSingleBond NonConjugatedSingleBond NonConjugatedSingleBond NonConjugatedSingleBond NonConjugatedSingleBond NonConjugatedSingleBond ConjugatedDoubleBond NonConjugatedSingleBond NonConjugatedSingleBond NonConjugatedSingleBond NonConjugatedSingleBond NonConjugatedSingleBond NonConjugatedSingleBond NonConjugatedSingleBond NonConjugatedSingleBond NonConjugatedSingleBond NonConjugatedSingleBond NonConjugatedSingleBond NonConjugatedSingleBond ConjugatedDoubleBond NonConjugatedSingleBond NonConjugatedSingleBond NonConjugatedSingleBond NonConjugatedSingleBond NonConjugatedSingleBond NonConjugatedSingleBond NonConjugatedSingleBond NonConjugatedSingleBond NonConjugatedSingleBond NonConjugatedSingleBond NonConjugatedSingleBond NonConjugatedSingleBond ConjugatedDoubleBond NonConjugatedSingleBond NonConjugatedSingleBond NonConjugatedSingleBond NonConjugatedSingleBond NonConjugatedSingleBond NonConjugatedSingleBond NonConjugatedSingleBond NonConjugatedSingleBond NonConjugatedSingleBond NonConjugatedSingleBond NonConjugatedSingleBond NonConjugatedSingleBond ConjugatedDoubleBond NonConjugatedSingleBond NonConjugatedSingleBond NonConjugatedSingleBond NonConjugatedSingleBond NonConjugatedSingleBond NonConjugatedSingleBond NonConjugatedSingleBond NonConjugatedSingleBond NonConjugatedSingleBond NonConjugatedSingleBond NonConjugatedSingleBond NonConjugatedSingleBond ConjugatedDoubleBond NonConjugatedSingleBond NonConjugatedSingleBond NonConjugatedSingleBond NonConjugatedSingleBond NonConjugatedSingleBond NonConjugatedSingleBond NonConjugatedSingleBond NonConjugatedSingleBond NonConjugatedSingleBond NonConjugatedSingleBond NonConjugatedSingleBond NonConjugatedSingleBond ConjugatedDoubleBond NonConjugatedSingleBond NonConjugatedSingleBond NonConjugatedSingleBond NonConjugatedSingleBond NonConjugatedSingleBond NonConjugatedSingleBond NonConjugatedSingleBond NonConjugatedSingleBond NonConjugatedSingleBond NonConjugatedSingleBond NonConjugatedSingleBond NonConjugatedSingleBond ConjugatedDoubleBond NonConjugatedSingleBond NonConjugatedSingleBond NonConjugatedSingleBond NonConjugatedSingleBond NonConjugatedSingleBond NonConjugatedSingleBond NonConjugatedSingleBond NonConjugatedSingleBond NonConjugatedSingleBond NonConjugatedSingleBond NonConjugatedSingleBond NonConjugatedSingleBond ConjugatedDoubleBond NonConjugatedSingleBond NonConjugatedSingleBond NonConjugatedSingleBond NonConjugatedSingleBond NonConjugatedSingleBond NonConjugatedSingleBond NonConjugatedSingleBond NonConjugatedSingleBond NonConjugatedSingleBond NonConjugatedSingleBond NonConjugatedSingleBond NonConjugatedSingleBond ConjugatedDoubleBond NonConjugatedSingleBond NonConjugatedSingleBond NonConjugatedSingleBond NonConjugatedSingleBond NonConjugatedSingleBond NonConjugatedSingleBond NonConjugatedSingleBond NonConjugatedSingleBond NonConjugatedSingleBond NonConjugatedSingleBondInRing NonConjugatedSingleBondInRing NonConjugatedSingleBond NonConjugatedSingleBond NonConjugatedSingleBondInRing NonConjugatedSingleBond NonConjugatedSingleBondInRing NonConjugatedSingleBond NonConjugatedSingleBondInRing NonConjugatedSingleBond NonConjugatedSingleBond NonConjugatedSingleBondInRing NonConjugatedSingleBond NonConjugatedSingleBond NonConjugatedSingleBond NonConjugatedSingleBond NonConjugatedSingleBond NonConjugatedSingleBond NonConjugatedSingleBond NonConjugatedSingleBond NonConjugatedSingleBond NonConjugatedSingleBondInRing NonConjugatedSingleBondInRing NonConjugatedSingleBond NonConjugatedSingleBondInRing NonConjugatedSingleBond NonConjugatedSingleBondInRing NonConjugatedSingleBond NonConjugatedSingleBondInRing NonConjugatedSingleBond NonConjugatedSingleBondInRing NonConjugatedSingleBond NonConjugatedSingleBond NonConjugatedSingleBond NonConjugatedSingleBond AmideSingleBond NonConjugatedSingleBond NonConjugatedSingleBond NonConjugatedSingleBond NonConjugatedSingleBond NonConjugatedSingleBond ConjugatedDoubleBond NonConjugatedSingleBond NonConjugatedSingleBond NonConjugatedSingleBond NonConjugatedSingleBond
M  BCL CHI   1   R   4   R   8   R  17   S  20   R  22   S  25   R  29   S  38   S  42   R  46   R  50   S 185   R 187   S 190   S 192   R 194   R 205   R 207   S 210   R 212   S 214   S
M  BCL DBI - - E E E E E E E E Z - -
M  END
> <ConfClashScore>
0.00199109 

> <ConfOneFourInteractionScore>
-0.97622 

> <ConfScore>
0.352911 

> <ConfScorePBest>
0.0139655 

> <ConfTolerance>
3.36223 

$$$$
L05.****
  PyMOL2.5          3D                             0

230233  0  0  0  0  0  0  0  0999 V2000
   12.0847   -3.2664   -3.3459 C   0  0  0  1  0  0  0  0  0  0  0  0
   11.2627   -2.8743   -2.7843 H   0  0  0  1  0  0  0  0  0  0  0  0
   11.8032   -4.5670   -3.7762 O   0  0  0  1  0  0  0  0  0  0  0  0
   12.3032   -2.4386   -4.6222 C   0  0  0  1  0  0  0  0  0  0  0  0
   13.3180   -2.5034   -4.9554 H   0  0  0  1  0  0  0  0  0  0  0  0
   11.9562   -1.0688   -4.4138 O   0  0  0  1  0  0  0  0  0  0  0  0
   11.2096   -0.8389   -4.9717 H   0  0  0  1  0  0  0  0  0  0  0  0
   11.3587   -3.0987   -5.6112 C   0  0  0  1  0  0  0  0  0  0  0  0
   10.3810   -2.6675   -5.5569 H   0  0  0  1  0  0  0  0  0  0  0  0
   11.8542   -2.9903   -6.9466 O   0  0  0  1  0  0  0  0  0  0  0  0
   11.9116   -2.0642   -7.1928 H   0  0  0  1  0  0  0  0  0  0  0  0
    9.8961   -6.5044   -4.5594 C   0  0  0  1  0  0  0  0  0  0  0  0
    9.0234   -7.0322   -4.8832 H   0  0  0  1  0  0  0  0  0  0  0  0
   10.7703   -7.0559   -4.8359 H   0  0  0  1  0  0  0  0  0  0  0  0
    9.8599   -6.3537   -3.1464 O   0  0  0  1  0  0  0  0  0  0  0  0
    9.0435   -6.7261   -2.8052 H   0  0  0  1  0  0  0  0  0  0  0  0
    9.9324   -5.1385   -5.2179 C   0  0  0  1  0  0  0  0  0  0  0  0
    9.2886   -4.4886   -4.6629 H   0  0  0  1  0  0  0  0  0  0  0  0
    9.5128   -5.1607   -6.5774 O   0  0  0  1  0  0  0  0  0  0  0  0
   11.3446   -4.5739   -5.1398 C   0  0  0  1  0  0  0  0  0  0  0  0
   11.9990   -5.1631   -5.7476 H   0  0  0  1  0  0  0  0  0  0  0  0
    8.3967   -4.3404   -6.8410 C   0  0  0  1  0  0  0  0  0  0  0  0
    7.5947   -4.6068   -6.1848 H   0  0  0  1  0  0  0  0  0  0  0  0
    8.7422   -2.9551   -6.6731 O   0  0  0  1  0  0  0  0  0  0  0  0
    7.9675   -4.4827   -8.2816 C   0  0  0  1  0  0  0  0  0  0  0  0
    7.2101   -5.2314   -8.3848 H   0  0  0  1  0  0  0  0  0  0  0  0
    9.0704   -4.8074   -9.1121 O   0  0  0  1  0  0  0  0  0  0  0  0
    9.0035   -4.3223   -9.9378 H   0  0  0  1  0  0  0  0  0  0  0  0
    7.4279   -3.1213   -8.6098 C   0  0  0  1  0  0  0  0  0  0  0  0
    6.4077   -3.0289   -8.3009 H   0  0  0  1  0  0  0  0  0  0  0  0
    7.5280   -2.8560  -10.0060 O   0  0  0  1  0  0  0  0  0  0  0  0
    7.3401   -3.6581  -10.4988 H   0  0  0  1  0  0  0  0  0  0  0  0
    7.1123   -1.0008   -5.9265 C   0  0  0  1  0  0  0  0  0  0  0  0
    7.0325   -2.0190   -5.6072 H   0  0  0  1  0  0  0  0  0  0  0  0
    7.8481   -0.4976   -5.3347 H   0  0  0  1  0  0  0  0  0  0  0  0
    5.8558   -0.3557   -5.7669 O   0  0  0  1  0  0  0  0  0  0  0  0
    5.8744    0.4961   -6.2093 H   0  0  0  1  0  0  0  0  0  0  0  0
    7.5265   -0.9609   -7.3893 C   0  0  0  1  0  0  0  0  0  0  0  0
    8.1440   -0.1004   -7.5417 H   0  0  0  1  0  0  0  0  0  0  0  0
    6.3796   -0.8851   -8.2409 O   0  0  0  1  0  0  0  0  0  0  0  0
    5.5887   -0.7881   -7.7055 H   0  0  0  1  0  0  0  0  0  0  0  0
    8.3085   -2.2041   -7.8270 C   0  0  0  1  0  0  0  0  0  0  0  0
    9.1516   -1.9071   -8.4151 H   0  0  0  1  0  0  0  0  0  0  0  0
   13.2583   -3.2545   -2.5414 O   0  0  0  1  0  0  0  0  0  0  0  0
   21.3721  -10.9066   -6.0356 O   0  0  0  1  0  0  0  0  0  0  0  0
   20.7057  -11.6558   -4.7926 P   0  0  0  1  0  0  0  0  0  0  0  0
   20.4662  -10.4766   -3.7270 O   0  0  0  1  0  0  0  0  0  0  0  0
   21.7630  -12.6004   -4.3586 O   0  0  0  0  0  0  0  0  0  0  0  0
   19.3507  -12.1333   -5.1083 O   0  0  0  1  0  0  0  0  0  0  0  0
   19.1723   -9.6993   -3.2723 P   0  0  0  1  0  0  0  0  0  0  0  0
   19.8478   -8.4360   -2.6294 O   0  0  0  1  0  0  0  0  0  0  0  0
   18.5770  -10.5604   -2.2259 O   0  0  0  0  0  0  0  0  0  0  0  0
   18.3216   -9.2526   -4.3966 O   0  0  0  1  0  0  0  0  0  0  0  0
   21.4849  -11.4970   -7.3404 C   0  0  0  1  0  0  0  0  0  0  0  0
   21.2512  -12.5398   -7.2855 H   0  0  0  1  0  0  0  0  0  0  0  0
   22.4825  -11.3734   -7.7069 H   0  0  0  1  0  0  0  0  0  0  0  0
   20.5184  -10.8098   -8.2620 C   0  0  0  1  0  0  0  0  0  0  0  0
   19.5081  -10.8528   -8.0189 H   0  0  0  1  0  0  0  0  0  0  0  0
   20.8576  -10.1514   -9.3639 C   0  0  0  1  0  0  0  0  0  0  0  0
   19.8949   -9.2238  -10.0466 C   0  0  0  1  0  0  0  0  0  0  0  0
   19.9978   -9.3197  -11.1073 H   0  0  0  1  0  0  0  0  0  0  0  0
   20.1060   -8.2154   -9.7577 H   0  0  0  1  0  0  0  0  0  0  0  0
   18.8947   -9.4751   -9.7613 H   0  0  0  1  0  0  0  0  0  0  0  0
   22.2002  -10.2609  -10.0253 C   0  0  0  1  0  0  0  0  0  0  0  0
   22.1928  -11.1333  -10.6448 H   0  0  0  1  0  0  0  0  0  0  0  0
   22.9378  -10.3738   -9.2583 H   0  0  0  1  0  0  0  0  0  0  0  0
   22.5996   -9.0757  -10.8891 C   0  0  0  1  0  0  0  0  0  0  0  0
   23.6647   -9.0436  -10.9867 H   0  0  0  1  0  0  0  0  0  0  0  0
   22.2548   -8.1687  -10.4381 H   0  0  0  1  0  0  0  0  0  0  0  0
   21.9747   -9.2365  -12.2385 C   0  0  0  1  0  0  0  0  0  0  0  0
   21.1178   -9.8220  -12.3053 H   0  0  0  1  0  0  0  0  0  0  0  0
   22.4346   -8.6846  -13.3629 C   0  0  0  1  0  0  0  0  0  0  0  0
   21.7401   -8.9016  -14.6759 C   0  0  0  1  0  0  0  0  0  0  0  0
   22.3528   -9.5100  -15.3078 H   0  0  0  1  0  0  0  0  0  0  0  0
   21.5679   -7.9572  -15.1484 H   0  0  0  1  0  0  0  0  0  0  0  0
   20.8044   -9.3924  -14.5072 H   0  0  0  1  0  0  0  0  0  0  0  0
   23.6643   -7.8251  -13.3603 C   0  0  0  1  0  0  0  0  0  0  0  0
   24.4588   -8.3688  -12.8933 H   0  0  0  1  0  0  0  0  0  0  0  0
   23.4590   -6.9386  -12.7974 H   0  0  0  1  0  0  0  0  0  0  0  0
   24.1103   -7.4197  -14.7557 C   0  0  0  1  0  0  0  0  0  0  0  0
   23.3393   -6.8372  -15.2151 H   0  0  0  1  0  0  0  0  0  0  0  0
   24.2872   -8.3003  -15.3372 H   0  0  0  1  0  0  0  0  0  0  0  0
   25.3669   -6.6105  -14.6966 C   0  0  0  1  0  0  0  0  0  0  0  0
   26.2593   -7.1426  -14.6504 H   0  0  0  1  0  0  0  0  0  0  0  0
   25.4667   -5.2866  -14.6968 C   0  0  0  1  0  0  0  0  0  0  0  0
   24.2716   -4.4115  -14.4283 C   0  0  0  1  0  0  0  0  0  0  0  0
   23.4140   -5.0297  -14.2635 H   0  0  0  1  0  0  0  0  0  0  0  0
   24.1004   -3.7817  -15.2762 H   0  0  0  1  0  0  0  0  0  0  0  0
   26.7456   -4.5417  -14.9574 C   0  0  0  1  0  0  0  0  0  0  0  0
   27.0155   -4.6449  -15.9876 H   0  0  0  1  0  0  0  0  0  0  0  0
   27.5239   -4.9440  -14.3430 H   0  0  0  1  0  0  0  0  0  0  0  0
   26.6081   -3.5059  -14.7270 H   0  0  0  1  0  0  0  0  0  0  0  0
   24.5036   -3.5440  -13.2019 C   0  0  0  1  0  0  0  0  0  0  0  0
   23.7336   -2.8042  -13.1330 H   0  0  0  1  0  0  0  0  0  0  0  0
   25.4561   -3.0622  -13.2762 H   0  0  0  1  0  0  0  0  0  0  0  0
   24.4738   -4.4166  -11.9874 C   0  0  0  1  0  0  0  0  0  0  0  0
   25.1951   -5.1640  -11.9358 H   0  0  0  1  0  0  0  0  0  0  0  0
   23.6250   -4.3403  -10.9662 C   0  0  0  1  0  0  0  0  0  0  0  0
   22.7202   -3.1759  -10.6639 C   0  0  0  1  0  0  0  0  0  0  0  0
   23.1330   -2.3155  -11.1479 H   0  0  0  1  0  0  0  0  0  0  0  0
   22.7308   -3.0289   -9.6040 H   0  0  0  1  0  0  0  0  0  0  0  0
   23.5253   -5.4889  -10.0063 C   0  0  0  1  0  0  0  0  0  0  0  0
   22.6914   -6.1047  -10.2714 H   0  0  0  1  0  0  0  0  0  0  0  0
   23.3895   -5.1131   -9.0137 H   0  0  0  1  0  0  0  0  0  0  0  0
   24.4240   -6.0681  -10.0490 H   0  0  0  1  0  0  0  0  0  0  0  0
   21.2662   -3.2854  -11.0933 C   0  0  0  1  0  0  0  0  0  0  0  0
   20.7122   -2.4996  -10.6236 H   0  0  0  1  0  0  0  0  0  0  0  0
   20.8863   -4.2323  -10.7709 H   0  0  0  1  0  0  0  0  0  0  0  0
   21.0817   -3.1773  -12.5834 C   0  0  0  1  0  0  0  0  0  0  0  0
   21.1809   -2.2356  -13.0134 H   0  0  0  1  0  0  0  0  0  0  0  0
   20.8018   -4.1944  -13.3894 C   0  0  0  1  0  0  0  0  0  0  0  0
   20.6403   -5.5893  -12.8589 C   0  0  0  1  0  0  0  0  0  0  0  0
   21.0495   -5.6053  -11.8704 H   0  0  0  1  0  0  0  0  0  0  0  0
   21.2079   -6.2400  -13.4909 H   0  0  0  1  0  0  0  0  0  0  0  0
   20.6220   -4.0621  -14.8756 C   0  0  0  1  0  0  0  0  0  0  0  0
   21.0957   -3.1644  -15.2142 H   0  0  0  1  0  0  0  0  0  0  0  0
   19.5779   -4.0230  -15.1062 H   0  0  0  1  0  0  0  0  0  0  0  0
   21.0645   -4.9048  -15.3645 H   0  0  0  1  0  0  0  0  0  0  0  0
   19.2304   -6.1512  -12.7766 C   0  0  0  1  0  0  0  0  0  0  0  0
   19.2909   -7.2189  -12.7398 H   0  0  0  1  0  0  0  0  0  0  0  0
   18.6935   -5.8539  -13.6531 H   0  0  0  1  0  0  0  0  0  0  0  0
   18.4792   -5.6752  -11.5739 C   0  0  0  1  0  0  0  0  0  0  0  0
   18.9621   -5.7249  -10.6541 H   0  0  0  1  0  0  0  0  0  0  0  0
   17.2409   -5.1937  -11.5930 C   0  0  0  1  0  0  0  0  0  0  0  0
   16.5348   -4.7587  -12.8458 C   0  0  0  1  0  0  0  0  0  0  0  0
   17.2856   -4.5162  -13.5687 H   0  0  0  1  0  0  0  0  0  0  0  0
   15.9717   -3.8806  -12.6075 H   0  0  0  1  0  0  0  0  0  0  0  0
   16.4367   -5.0451  -10.3347 C   0  0  0  1  0  0  0  0  0  0  0  0
   15.6685   -5.7896  -10.3119 H   0  0  0  1  0  0  0  0  0  0  0  0
   15.9914   -4.0725  -10.3091 H   0  0  0  1  0  0  0  0  0  0  0  0
   17.0768   -5.1673   -9.4861 H   0  0  0  1  0  0  0  0  0  0  0  0
   15.5811   -5.7483  -13.4950 C   0  0  0  1  0  0  0  0  0  0  0  0
   14.8622   -6.0573  -12.7652 H   0  0  0  1  0  0  0  0  0  0  0  0
   16.1433   -6.5971  -13.8243 H   0  0  0  1  0  0  0  0  0  0  0  0
   14.8474   -5.1720  -14.6763 C   0  0  0  1  0  0  0  0  0  0  0  0
   14.2441   -4.3414  -14.5096 H   0  0  0  1  0  0  0  0  0  0  0  0
   14.9135   -5.6496  -15.9270 C   0  0  0  1  0  0  0  0  0  0  0  0
   15.9760   -6.6181  -16.3706 C   0  0  0  1  0  0  0  0  0  0  0  0
   16.1303   -7.3123  -15.5711 H   0  0  0  1  0  0  0  0  0  0  0  0
   16.8723   -6.0571  -16.5345 H   0  0  0  1  0  0  0  0  0  0  0  0
   13.8859   -5.2006  -16.9275 C   0  0  0  1  0  0  0  0  0  0  0  0
   13.2293   -4.4898  -16.4707 H   0  0  0  1  0  0  0  0  0  0  0  0
   13.3201   -6.0454  -17.2609 H   0  0  0  1  0  0  0  0  0  0  0  0
   14.3765   -4.7470  -17.7632 H   0  0  0  1  0  0  0  0  0  0  0  0
   15.7088   -7.4266  -17.6297 C   0  0  0  1  0  0  0  0  0  0  0  0
   15.4356   -6.7533  -18.4151 H   0  0  0  1  0  0  0  0  0  0  0  0
   14.8987   -8.0986  -17.4374 H   0  0  0  1  0  0  0  0  0  0  0  0
   16.9005   -8.2289  -18.0793 C   0  0  0  1  0  0  0  0  0  0  0  0
   17.7808   -8.1295  -17.5344 H   0  0  0  1  0  0  0  0  0  0  0  0
   16.9116   -9.0538  -19.1195 C   0  0  0  1  0  0  0  0  0  0  0  0
   15.8219   -9.0222  -20.1535 C   0  0  0  1  0  0  0  0  0  0  0  0
   14.8765   -9.0341  -19.6524 H   0  0  0  1  0  0  0  0  0  0  0  0
   15.9110   -9.8929  -20.7689 H   0  0  0  1  0  0  0  0  0  0  0  0
   17.9822  -10.0760  -19.3665 C   0  0  0  1  0  0  0  0  0  0  0  0
   18.3843  -10.4053  -18.4313 H   0  0  0  1  0  0  0  0  0  0  0  0
   18.7617   -9.6404  -19.9561 H   0  0  0  1  0  0  0  0  0  0  0  0
   17.5639  -10.9112  -19.8885 H   0  0  0  1  0  0  0  0  0  0  0  0
   15.8818   -7.7920  -21.0442 C   0  0  0  1  0  0  0  0  0  0  0  0
   16.7228   -7.8863  -21.6990 H   0  0  0  1  0  0  0  0  0  0  0  0
   16.0066   -6.9286  -20.4246 H   0  0  0  1  0  0  0  0  0  0  0  0
   14.6429   -7.6076  -21.8791 C   0  0  0  1  0  0  0  0  0  0  0  0
   14.0334   -6.8018  -21.6325 H   0  0  0  1  0  0  0  0  0  0  0  0
   14.2462   -8.3577  -22.8903 C   0  0  0  1  0  0  0  0  0  0  0  0
   13.1666   -7.9097  -23.8077 C   0  0  0  1  0  0  0  0  0  0  0  0
   13.5581   -7.8750  -24.8030 H   0  0  0  1  0  0  0  0  0  0  0  0
   12.8536   -6.9301  -23.5126 H   0  0  0  1  0  0  0  0  0  0  0  0
   14.8267   -9.7058  -23.2131 C   0  0  0  1  0  0  0  0  0  0  0  0
   14.0522  -10.2347  -23.7281 H   0  0  0  1  0  0  0  0  0  0  0  0
   15.0977  -10.2207  -22.3152 H   0  0  0  1  0  0  0  0  0  0  0  0
   15.6882   -9.6016  -23.8390 H   0  0  0  1  0  0  0  0  0  0  0  0
   11.9559   -8.8286  -23.7959 C   0  0  0  1  0  0  0  0  0  0  0  0
   11.4750   -8.7461  -22.8436 H   0  0  0  1  0  0  0  0  0  0  0  0
   12.2903   -9.8346  -23.9412 H   0  0  0  1  0  0  0  0  0  0  0  0
   10.9600   -8.4993  -24.8623 C   0  0  0  1  0  0  0  0  0  0  0  0
   10.5555   -7.5426  -24.8105 H   0  0  0  1  0  0  0  0  0  0  0  0
   10.5155   -9.2481  -25.8659 C   0  0  0  1  0  0  0  0  0  0  0  0
   10.8775  -10.6930  -26.0508 C   0  0  0  1  0  0  0  0  0  0  0  0
   10.6724  -10.9864  -27.0592 H   0  0  0  1  0  0  0  0  0  0  0  0
   10.2994  -11.2939  -25.3802 H   0  0  0  1  0  0  0  0  0  0  0  0
   11.9187  -10.8288  -25.8449 H   0  0  0  1  0  0  0  0  0  0  0  0
    9.5915   -8.6883  -26.9200 C   0  0  0  1  0  0  0  0  0  0  0  0
    9.7722   -9.2312  -27.8242 H   0  0  0  1  0  0  0  0  0  0  0  0
    9.7956   -7.6488  -27.0706 H   0  0  0  1  0  0  0  0  0  0  0  0
    8.5729   -8.8119  -26.6165 H   0  0  0  1  0  0  0  0  0  0  0  0
   16.0000   -5.0773   -1.4891 C   0  0  0  1  0  0  0  0  0  0  0  0
   16.1481   -5.5690   -0.5503 H   0  0  0  1  0  0  0  0  0  0  0  0
   14.8429   -5.7238   -2.2039 C   0  0  0  1  0  0  0  0  0  0  0  0
   15.0838   -6.7450   -2.4137 H   0  0  0  1  0  0  0  0  0  0  0  0
   15.7573   -3.6982   -1.2551 O   0  0  0  1  0  0  0  0  0  0  0  0
   14.5596   -5.0034   -3.4982 C   0  0  0  1  0  0  0  0  0  0  0  0
   13.6396   -5.3648   -3.9078 H   0  0  0  1  0  0  0  0  0  0  0  0
   15.6290   -2.9746   -2.4766 C   0  0  0  1  0  0  0  0  0  0  0  0
   16.5234   -3.0865   -3.0530 H   0  0  0  1  0  0  0  0  0  0  0  0
   14.4483   -3.5159   -3.2640 C   0  0  0  1  0  0  0  0  0  0  0  0
   14.4076   -3.0191   -4.2108 H   0  0  0  1  0  0  0  0  0  0  0  0
   17.1709   -5.2128   -2.2861 O   0  0  0  1  0  0  0  0  0  0  0  0
   13.6838   -5.6687   -1.3703 O   0  0  0  1  0  0  0  0  0  0  0  0
   13.1510   -6.4550   -1.5100 H   0  0  0  1  0  0  0  0  0  0  0  0
   15.6166   -5.2540   -4.4130 O   0  0  0  1  0  0  0  0  0  0  0  0
   15.9767   -4.4198   -4.7230 H   0  0  0  1  0  0  0  0  0  0  0  0
   15.4036   -1.5088   -2.1732 C   0  0  0  1  0  0  0  0  0  0  0  0
   15.0683   -1.0084   -3.0575 H   0  0  0  1  0  0  0  0  0  0  0  0
   16.3203   -1.0686   -1.8404 H   0  0  0  1  0  0  0  0  0  0  0  0
   14.6628   -1.4132   -1.4070 H   0  0  0  1  0  0  0  0  0  0  0  0
   19.3242   -7.1257   -2.7611 C   0  0  0  1  0  0  0  0  0  0  0  0
   18.4904   -7.1400   -3.4315 H   0  0  0  1  0  0  0  0  0  0  0  0
   18.8770   -6.6262   -1.4144 C   0  0  0  1  0  0  0  0  0  0  0  0
   19.7016   -6.6554   -0.7332 H   0  0  0  1  0  0  0  0  0  0  0  0
   20.3254   -6.2664   -3.2712 O   0  0  0  1  0  0  0  0  0  0  0  0
   18.3797   -5.2149   -1.5341 C   0  0  0  1  0  0  0  0  0  0  0  0
   18.1914   -4.8284   -0.5543 H   0  0  0  1  0  0  0  0  0  0  0  0
   19.8014   -4.9545   -3.5440 C   0  0  0  1  0  0  0  0  0  0  0  0
   20.5533   -4.3536   -4.0113 H   0  0  0  1  0  0  0  0  0  0  0  0
   19.3895   -4.3290   -2.2257 C   0  0  0  1  0  0  0  0  0  0  0  0
   18.9538   -3.3690   -2.4086 H   0  0  0  1  0  0  0  0  0  0  0  0
   17.8029   -7.4770   -0.9152 N   0  0  0  1  0  0  0  0  0  0  0  0
   16.8834   -7.1385   -0.9352 H   0  0  0  1  0  0  0  0  0  0  0  0
   20.5420   -4.1793   -1.3898 O   0  0  0  1  0  0  0  0  0  0  0  0
   21.2151   -3.7568   -1.9283 H   0  0  0  1  0  0  0  0  0  0  0  0
   18.6092   -5.0612   -4.4513 C   0  0  0  1  0  0  0  0  0  0  0  0
   18.1297   -4.1086   -4.5378 H   0  0  0  1  0  0  0  0  0  0  0  0
   17.9156   -5.7761   -4.0605 H   0  0  0  1  0  0  0  0  0  0  0  0
   19.0791   -5.4865   -5.7268 O   0  0  0  1  0  0  0  0  0  0  0  0
   18.3191   -5.7254   -6.2625 H   0  0  0  1  0  0  0  0  0  0  0  0
   18.0287   -8.7017   -0.4314 C   0  0  0  1  0  0  0  0  0  0  0  0
   19.1065   -9.2668   -0.3936 O   0  0  0  1  0  0  0  0  0  0  0  0
   16.8118   -9.4484    0.1213 C   0  0  0  1  0  0  0  0  0  0  0  0
   16.4060   -9.9606   -0.7261 H   0  0  0  1  0  0  0  0  0  0  0  0
   16.0980   -8.7616    0.5258 H   0  0  0  1  0  0  0  0  0  0  0  0
   17.1067  -10.1444    0.8786 H   0  0  0  1  0  0  0  0  0  0  0  0
  1  2  1  0  0  0  0
  1  3  1  0  0  0  0
  1  4  1  0  0  0  0
  1 44  1  0  0  0  0
  3 20  1  0  0  0  0
  4  5  1  0  0  0  0
  4  6  1  0  0  0  0
  4  8  1  0  0  0  0
  6  7  1  0  0  0  0
  8  9  1  0  0  0  0
  8 10  1  0  0  0  0
  8 20  1  0  0  0  0
 10 11  1  0  0  0  0
 12 13  1  0  0  0  0
 12 14  1  0  0  0  0
 12 15  1  0  0  0  0
 12 17  1  0  0  0  0
 15 16  1  0  0  0  0
 17 18  1  0  0  0  0
 17 19  1  0  0  0  0
 17 20  1  0  0  0  0
 19 22  1  0  0  0  0
 20 21  1  0  0  0  0
 22 23  1  0  0  0  0
 22 24  1  0  0  0  0
 22 25  1  0  0  0  0
 24 42  1  0  0  0  0
 25 26  1  0  0  0  0
 25 27  1  0  0  0  0
 25 29  1  0  0  0  0
 27 28  1  0  0  0  0
 29 30  1  0  0  0  0
 29 31  1  0  0  0  0
 29 42  1  0  0  0  0
 31 32  1  0  0  0  0
 33 34  1  0  0  0  0
 33 35  1  0  0  0  0
 33 36  1  0  0  0  0
 33 38  1  0  0  0  0
 36 37  1  0  0  0  0
 38 39  1  0  0  0  0
 38 40  1  0  0  0  0
 38 42  1  0  0  0  0
 40 41  1  0  0  0  0
 42 43  1  0  0  0  0
 44194  1  0  0  0  0
 45 46  1  0  0  0  0
 45 54  1  0  0  0  0
 46 47  1  0  0  0  0
 46 48  1  0  0  0  0
 46 49  2  0  0  0  0
 47 50  1  0  0  0  0
 50 51  1  0  0  0  0
 50 52  1  0  0  0  0
 50 53  2  0  0  0  0
 51205  1  0  0  0  0
 54 55  1  0  0  0  0
 54 56  1  0  0  0  0
 54 57  1  0  0  0  0
 57 58  1  0  0  0  0
 57 59  2  0  0  0  0
 59 60  1  0  0  0  0
 59 64  1  0  0  0  0
 60 61  1  0  0  0  0
 60 62  1  0  0  0  0
 60 63  1  0  0  0  0
 64 65  1  0  0  0  0
 64 66  1  0  0  0  0
 64 67  1  0  0  0  0
 67 68  1  0  0  0  0
 67 69  1  0  0  0  0
 67 70  1  0  0  0  0
 70 71  1  0  0  0  0
 70 72  2  0  0  0  0
 72 73  1  0  0  0  0
 72 77  1  0  0  0  0
 73 74  1  0  0  0  0
 73 75  1  0  0  0  0
 73 76  1  0  0  0  0
 77 78  1  0  0  0  0
 77 79  1  0  0  0  0
 77 80  1  0  0  0  0
 80 81  1  0  0  0  0
 80 82  1  0  0  0  0
 80 83  1  0  0  0  0
 83 84  1  0  0  0  0
 83 85  2  0  0  0  0
 85 86  1  0  0  0  0
 85 89  1  0  0  0  0
 86 87  1  0  0  0  0
 86 88  1  0  0  0  0
 86 93  1  0  0  0  0
 89 90  1  0  0  0  0
 89 91  1  0  0  0  0
 89 92  1  0  0  0  0
 93 94  1  0  0  0  0
 93 95  1  0  0  0  0
 93 96  1  0  0  0  0
 96 97  1  0  0  0  0
 96 98  2  0  0  0  0
 98 99  1  0  0  0  0
 98102  1  0  0  0  0
 99100  1  0  0  0  0
 99101  1  0  0  0  0
 99106  1  0  0  0  0
102103  1  0  0  0  0
102104  1  0  0  0  0
102105  1  0  0  0  0
106107  1  0  0  0  0
106108  1  0  0  0  0
106109  1  0  0  0  0
109110  1  0  0  0  0
109111  2  0  0  0  0
111112  1  0  0  0  0
111115  1  0  0  0  0
112113  1  0  0  0  0
112114  1  0  0  0  0
112119  1  0  0  0  0
115116  1  0  0  0  0
115117  1  0  0  0  0
115118  1  0  0  0  0
119120  1  0  0  0  0
119121  1  0  0  0  0
119122  1  0  0  0  0
122123  1  0  0  0  0
122124  2  0  0  0  0
124125  1  0  0  0  0
124128  1  0  0  0  0
125126  1  0  0  0  0
125127  1  0  0  0  0
125132  1  0  0  0  0
128129  1  0  0  0  0
128130  1  0  0  0  0
128131  1  0  0  0  0
132133  1  0  0  0  0
132134  1  0  0  0  0
132135  1  0  0  0  0
135136  1  0  0  0  0
135137  2  0  0  0  0
137138  1  0  0  0  0
137141  1  0  0  0  0
138139  1  0  0  0  0
138140  1  0  0  0  0
138145  1  0  0  0  0
141142  1  0  0  0  0
141143  1  0  0  0  0
141144  1  0  0  0  0
145146  1  0  0  0  0
145147  1  0  0  0  0
145148  1  0  0  0  0
148149  1  0  0  0  0
148150  2  0  0  0  0
150151  1  0  0  0  0
150154  1  0  0  0  0
151152  1  0  0  0  0
151153  1  0  0  0  0
151158  1  0  0  0  0
154155  1  0  0  0  0
154156  1  0  0  0  0
154157  1  0  0  0  0
158159  1  0  0  0  0
158160  1  0  0  0  0
158161  1  0  0  0  0
161162  1  0  0  0  0
161163  2  0  0  0  0
163164  1  0  0  0  0
163167  1  0  0  0  0
164165  1  0  0  0  0
164166  1  0  0  0  0
164171  1  0  0  0  0
167168  1  0  0  0  0
167169  1  0  0  0  0
167170  1  0  0  0  0
171172  1  0  0  0  0
171173  1  0  0  0  0
171174  1  0  0  0  0
174175  1  0  0  0  0
174176  2  0  0  0  0
176177  1  0  0  0  0
176181  1  0  0  0  0
177178  1  0  0  0  0
177179  1  0  0  0  0
177180  1  0  0  0  0
181182  1  0  0  0  0
181183  1  0  0  0  0
181184  1  0  0  0  0
185186  1  0  0  0  0
185187  1  0  0  0  0
185189  1  0  0  0  0
185196  1  0  0  0  0
187188  1  0  0  0  0
187190  1  0  0  0  0
187197  1  0  0  0  0
189192  1  0  0  0  0
190191  1  0  0  0  0
190194  1  0  0  0  0
190199  1  0  0  0  0
192193  1  0  0  0  0
192194  1  0  0  0  0
192201  1  0  0  0  0
194195  1  0  0  0  0
196210  1  0  0  0  0
197198  1  0  0  0  0
199200  1  0  0  0  0
201202  1  0  0  0  0
201203  1  0  0  0  0
201204  1  0  0  0  0
205206  1  0  0  0  0
205207  1  0  0  0  0
205209  1  0  0  0  0
207208  1  0  0  0  0
207210  1  0  0  0  0
207216  1  0  0  0  0
209212  1  0  0  0  0
210211  1  0  0  0  0
210214  1  0  0  0  0
212213  1  0  0  0  0
212214  1  0  0  0  0
212220  1  0  0  0  0
214215  1  0  0  0  0
214218  1  0  0  0  0
216217  1  0  0  0  0
216225  1  0  0  0  0
218219  1  0  0  0  0
220221  1  0  0  0  0
220222  1  0  0  0  0
220223  1  0  0  0  0
223224  1  0  0  0  0
225226  2  0  0  0  0
225227  1  0  0  0  0
227228  1  0  0  0  0
227229  1  0  0  0  0
227230  1  0  0  0  0
M  BCL ATM C_TeTeTeTe H_S O_Te2Te2TeTe C_TeTeTeTe H_S O_Te2Te2TeTe H_S C_TeTeTeTe H_S O_Te2Te2TeTe H_S C_TeTeTeTe H_S H_S O_Te2Te2TeTe H_S C_TeTeTeTe H_S O_Te2Te2TeTe C_TeTeTeTe H_S C_TeTeTeTe H_S O_Te2Te2TeTe C_TeTeTeTe H_S O_Te2Te2TeTe H_S C_TeTeTeTe H_S O_Te2Te2TeTe H_S C_TeTeTeTe H_S H_S O_Te2Te2TeTe H_S C_TeTeTeTe H_S O_Te2Te2TeTe H_S C_TeTeTeTe H_S O_Te2Te2TeTe O_Tr2TrTrPi2 P_TeTeTeTePi O_Tr2TrTrPi2 O_Te2Te2TeTe O_Tr2Tr2TrPi P_TeTeTeTePi O_Tr2TrTrPi2 O_Te2Te2TeTe O_Tr2Tr2TrPi C_TeTeTeTe H_S H_S C_TrTrTrPi H_S C_TrTrTrPi C_TeTeTeTe H_S H_S H_S C_TeTeTeTe H_S H_S C_TeTeTeTe H_S H_S C_TrTrTrPi H_S C_TrTrTrPi C_TeTeTeTe H_S H_S H_S C_TeTeTeTe H_S H_S C_TeTeTeTe H_S H_S C_TrTrTrPi H_S C_TrTrTrPi C_TeTeTeTe H_S H_S C_TeTeTeTe H_S H_S H_S C_TeTeTeTe H_S H_S C_TrTrTrPi H_S C_TrTrTrPi C_TeTeTeTe H_S H_S C_TeTeTeTe H_S H_S H_S C_TeTeTeTe H_S H_S C_TrTrTrPi H_S C_TrTrTrPi C_TeTeTeTe H_S H_S C_TeTeTeTe H_S H_S H_S C_TeTeTeTe H_S H_S C_TrTrTrPi H_S C_TrTrTrPi C_TeTeTeTe H_S H_S C_TeTeTeTe H_S H_S H_S C_TeTeTeTe H_S H_S C_TrTrTrPi H_S C_TrTrTrPi C_TeTeTeTe H_S H_S C_TeTeTeTe H_S H_S H_S C_TeTeTeTe H_S H_S C_TrTrTrPi H_S C_TrTrTrPi C_TeTeTeTe H_S H_S C_TeTeTeTe H_S H_S H_S C_TeTeTeTe H_S H_S C_TrTrTrPi H_S C_TrTrTrPi C_TeTeTeTe H_S H_S C_TeTeTeTe H_S H_S H_S C_TeTeTeTe H_S H_S C_TrTrTrPi H_S C_TrTrTrPi C_TeTeTeTe H_S H_S H_S C_TeTeTeTe H_S H_S H_S C_TeTeTeTe H_S C_TeTeTeTe H_S O_Te2Te2TeTe C_TeTeTeTe H_S C_TeTeTeTe H_S C_TeTeTeTe H_S O_Te2Te2TeTe O_Te2Te2TeTe H_S O_Te2Te2TeTe H_S C_TeTeTeTe H_S H_S H_S C_TeTeTeTe H_S C_TeTeTeTe H_S O_Te2Te2TeTe C_TeTeTeTe H_S C_TeTeTeTe H_S C_TeTeTeTe H_S N_TrTrTrPi2 H_S O_Te2Te2TeTe H_S C_TeTeTeTe H_S H_S O_Te2Te2TeTe H_S C_TrTrTrPi O_Tr2Tr2TrPi C_TeTeTeTe H_S H_S H_S
M  BCL BND NonConjugatedSingleBond NonConjugatedSingleBondInRing NonConjugatedSingleBondInRing NonConjugatedSingleBond NonConjugatedSingleBondInRing NonConjugatedSingleBond NonConjugatedSingleBond NonConjugatedSingleBondInRing NonConjugatedSingleBond NonConjugatedSingleBond NonConjugatedSingleBond NonConjugatedSingleBondInRing NonConjugatedSingleBond NonConjugatedSingleBond NonConjugatedSingleBond NonConjugatedSingleBond NonConjugatedSingleBond NonConjugatedSingleBond NonConjugatedSingleBond NonConjugatedSingleBond NonConjugatedSingleBond NonConjugatedSingleBond NonConjugatedSingleBond NonConjugatedSingleBond NonConjugatedSingleBondInRing NonConjugatedSingleBondInRing NonConjugatedSingleBondInRing NonConjugatedSingleBond NonConjugatedSingleBond NonConjugatedSingleBondInRing NonConjugatedSingleBond NonConjugatedSingleBond NonConjugatedSingleBond NonConjugatedSingleBondInRing NonConjugatedSingleBond NonConjugatedSingleBond NonConjugatedSingleBond NonConjugatedSingleBond NonConjugatedSingleBond NonConjugatedSingleBond NonConjugatedSingleBond NonConjugatedSingleBond NonConjugatedSingleBond NonConjugatedSingleBond NonConjugatedSingleBond NonConjugatedSingleBond ConjugatedSingleBond NonConjugatedSingleBond ConjugatedSingleBond ConjugatedSingleBond ConjugatedDoubleBond ConjugatedSingleBond ConjugatedSingleBond ConjugatedSingleBond ConjugatedDoubleBond NonConjugatedSingleBond NonConjugatedSingleBond NonConjugatedSingleBond NonConjugatedSingleBond NonConjugatedSingleBond ConjugatedDoubleBond NonConjugatedSingleBond NonConjugatedSingleBond NonConjugatedSingleBond NonConjugatedSingleBond NonConjugatedSingleBond NonConjugatedSingleBond NonConjugatedSingleBond NonConjugatedSingleBond NonConjugatedSingleBond NonConjugatedSingleBond NonConjugatedSingleBond NonConjugatedSingleBond ConjugatedDoubleBond NonConjugatedSingleBond NonConjugatedSingleBond NonConjugatedSingleBond NonConjugatedSingleBond NonConjugatedSingleBond NonConjugatedSingleBond NonConjugatedSingleBond NonConjugatedSingleBond NonConjugatedSingleBond NonConjugatedSingleBond NonConjugatedSingleBond NonConjugatedSingleBond ConjugatedDoubleBond NonConjugatedSingleBond NonConjugatedSingleBond NonConjugatedSingleBond NonConjugatedSingleBond NonConjugatedSingleBond NonConjugatedSingleBond NonConjugatedSingleBond NonConjugatedSingleBond NonConjugatedSingleBond NonConjugatedSingleBond NonConjugatedSingleBond NonConjugatedSingleBond ConjugatedDoubleBond NonConjugatedSingleBond NonConjugatedSingleBond NonConjugatedSingleBond NonConjugatedSingleBond NonConjugatedSingleBond NonConjugatedSingleBond NonConjugatedSingleBond NonConjugatedSingleBond NonConjugatedSingleBond NonConjugatedSingleBond NonConjugatedSingleBond NonConjugatedSingleBond ConjugatedDoubleBond NonConjugatedSingleBond NonConjugatedSingleBond NonConjugatedSingleBond NonConjugatedSingleBond NonConjugatedSingleBond NonConjugatedSingleBond NonConjugatedSingleBond NonConjugatedSingleBond NonConjugatedSingleBond NonConjugatedSingleBond NonConjugatedSingleBond NonConjugatedSingleBond ConjugatedDoubleBond NonConjugatedSingleBond NonConjugatedSingleBond NonConjugatedSingleBond NonConjugatedSingleBond NonConjugatedSingleBond NonConjugatedSingleBond NonConjugatedSingleBond NonConjugatedSingleBond NonConjugatedSingleBond NonConjugatedSingleBond NonConjugatedSingleBond NonConjugatedSingleBond ConjugatedDoubleBond NonConjugatedSingleBond NonConjugatedSingleBond NonConjugatedSingleBond NonConjugatedSingleBond NonConjugatedSingleBond NonConjugatedSingleBond NonConjugatedSingleBond NonConjugatedSingleBond NonConjugatedSingleBond NonConjugatedSingleBond NonConjugatedSingleBond NonConjugatedSingleBond ConjugatedDoubleBond NonConjugatedSingleBond NonConjugatedSingleBond NonConjugatedSingleBond NonConjugatedSingleBond NonConjugatedSingleBond NonConjugatedSingleBond NonConjugatedSingleBond NonConjugatedSingleBond NonConjugatedSingleBond NonConjugatedSingleBond NonConjugatedSingleBond NonConjugatedSingleBond ConjugatedDoubleBond NonConjugatedSingleBond NonConjugatedSingleBond NonConjugatedSingleBond NonConjugatedSingleBond NonConjugatedSingleBond NonConjugatedSingleBond NonConjugatedSingleBond NonConjugatedSingleBond NonConjugatedSingleBond NonConjugatedSingleBond NonConjugatedSingleBond NonConjugatedSingleBond ConjugatedDoubleBond NonConjugatedSingleBond NonConjugatedSingleBond NonConjugatedSingleBond NonConjugatedSingleBond NonConjugatedSingleBond NonConjugatedSingleBond NonConjugatedSingleBond NonConjugatedSingleBond NonConjugatedSingleBond NonConjugatedSingleBondInRing NonConjugatedSingleBondInRing NonConjugatedSingleBond NonConjugatedSingleBond NonConjugatedSingleBondInRing NonConjugatedSingleBond NonConjugatedSingleBondInRing NonConjugatedSingleBond NonConjugatedSingleBondInRing NonConjugatedSingleBond NonConjugatedSingleBond NonConjugatedSingleBondInRing NonConjugatedSingleBond NonConjugatedSingleBond NonConjugatedSingleBond NonConjugatedSingleBond NonConjugatedSingleBond NonConjugatedSingleBond NonConjugatedSingleBond NonConjugatedSingleBond NonConjugatedSingleBond NonConjugatedSingleBondInRing NonConjugatedSingleBondInRing NonConjugatedSingleBond NonConjugatedSingleBondInRing NonConjugatedSingleBond NonConjugatedSingleBondInRing NonConjugatedSingleBond NonConjugatedSingleBondInRing NonConjugatedSingleBond NonConjugatedSingleBondInRing NonConjugatedSingleBond NonConjugatedSingleBond NonConjugatedSingleBond NonConjugatedSingleBond AmideSingleBond NonConjugatedSingleBond NonConjugatedSingleBond NonConjugatedSingleBond NonConjugatedSingleBond NonConjugatedSingleBond ConjugatedDoubleBond NonConjugatedSingleBond NonConjugatedSingleBond NonConjugatedSingleBond NonConjugatedSingleBond
M  BCL CHI   1   R   4   R   8   R  17   S  20   R  22   S  25   R  29   S  38   S  42   R  46   R  50   S 185   R 187   S 190   S 192   R 194   R 205   R 207   S 210   R 212   S 214   S
M  BCL DBI - - E E E E E E E E Z - -
M  END
> <ConfClashScore>
0.00184138 

> <ConfOneFourInteractionScore>
-0.959616 

> <ConfScore>
0.355318 

> <ConfScorePBest>
0.0138625 

> <ConfTolerance>
2.94654 

$$$$
L05.****
  PyMOL2.5          3D                             0

230233  0  0  0  0  0  0  0  0999 V2000
   12.4591   -2.1723   -3.0569 C   0  0  0  1  0  0  0  0  0  0  0  0
   12.5755   -2.0487   -4.1133 H   0  0  0  1  0  0  0  0  0  0  0  0
   12.8140   -0.9967   -2.3877 O   0  0  0  1  0  0  0  0  0  0  0  0
   10.9840   -2.4266   -2.7080 C   0  0  0  1  0  0  0  0  0  0  0  0
   10.8924   -2.9703   -1.7910 H   0  0  0  1  0  0  0  0  0  0  0  0
   10.3227   -3.1404   -3.7537 O   0  0  0  1  0  0  0  0  0  0  0  0
   10.3888   -4.0839   -3.5892 H   0  0  0  1  0  0  0  0  0  0  0  0
   10.4291   -1.0200   -2.5688 C   0  0  0  1  0  0  0  0  0  0  0  0
   10.0911   -0.6440   -3.5118 H   0  0  0  1  0  0  0  0  0  0  0  0
    9.3554   -0.9815   -1.6275 O   0  0  0  1  0  0  0  0  0  0  0  0
    8.7967   -1.7530   -1.7469 H   0  0  0  1  0  0  0  0  0  0  0  0
   12.7191    2.0626   -2.0576 C   0  0  0  1  0  0  0  0  0  0  0  0
   13.3046    2.5463   -2.8114 H   0  0  0  1  0  0  0  0  0  0  0  0
   12.1849    2.7983   -1.4935 H   0  0  0  1  0  0  0  0  0  0  0  0
   13.5860    1.3667   -1.1880 O   0  0  0  1  0  0  0  0  0  0  0  0
   13.6000    1.8027   -0.3328 H   0  0  0  1  0  0  0  0  0  0  0  0
   11.7133    1.1416   -2.7360 C   0  0  0  1  0  0  0  0  0  0  0  0
   12.0032    1.0044   -3.7569 H   0  0  0  1  0  0  0  0  0  0  0  0
   10.4213    1.7430   -2.6671 O   0  0  0  1  0  0  0  0  0  0  0  0
   11.6505   -0.2187   -2.0544 C   0  0  0  1  0  0  0  0  0  0  0  0
   11.5859   -0.0847   -0.9948 H   0  0  0  1  0  0  0  0  0  0  0  0
    9.7760    1.6983   -1.4138 C   0  0  0  1  0  0  0  0  0  0  0  0
    9.6474    0.6791   -1.1145 H   0  0  0  1  0  0  0  0  0  0  0  0
   10.5355    2.4299   -0.4219 O   0  0  0  1  0  0  0  0  0  0  0  0
    8.4611    2.3987   -1.4740 C   0  0  0  1  0  0  0  0  0  0  0  0
    7.8000    2.0351   -0.7153 H   0  0  0  1  0  0  0  0  0  0  0  0
    7.8533    2.2321   -2.7559 O   0  0  0  1  0  0  0  0  0  0  0  0
    8.4631    1.7795   -3.3432 H   0  0  0  1  0  0  0  0  0  0  0  0
    8.8157    3.8443   -1.2307 C   0  0  0  1  0  0  0  0  0  0  0  0
    8.0795    4.3130   -0.6116 H   0  0  0  1  0  0  0  0  0  0  0  0
    8.9181    4.5492   -2.4645 O   0  0  0  1  0  0  0  0  0  0  0  0
    9.5728    4.1238   -3.0232 H   0  0  0  1  0  0  0  0  0  0  0  0
    9.4079    3.4943    1.8994 C   0  0  0  1  0  0  0  0  0  0  0  0
    9.9213    2.5555    1.8909 H   0  0  0  1  0  0  0  0  0  0  0  0
    9.5032    3.9448    2.8653 H   0  0  0  1  0  0  0  0  0  0  0  0
    8.0333    3.2832    1.6106 O   0  0  0  1  0  0  0  0  0  0  0  0
    7.7216    3.9696    1.0162 H   0  0  0  1  0  0  0  0  0  0  0  0
   10.0213    4.4203    0.8424 C   0  0  0  1  0  0  0  0  0  0  0  0
   11.0138    4.6501    1.1696 H   0  0  0  1  0  0  0  0  0  0  0  0
    9.2593    5.6245    0.8537 O   0  0  0  1  0  0  0  0  0  0  0  0
    9.8402    6.3728    0.6984 H   0  0  0  1  0  0  0  0  0  0  0  0
   10.1436    3.8059   -0.5337 C   0  0  0  1  0  0  0  0  0  0  0  0
   10.8702    4.3470   -1.1031 H   0  0  0  1  0  0  0  0  0  0  0  0
   13.2581   -3.2458   -2.6182 O   0  0  0  1  0  0  0  0  0  0  0  0
   16.6706  -11.9328   -3.5663 O   0  0  0  1  0  0  0  0  0  0  0  0
   16.5481  -10.3713   -3.5597 P   0  0  0  1  0  0  0  0  0  0  0  0
   17.6801   -9.8142   -2.5700 O   0  0  0  1  0  0  0  0  0  0  0  0
   15.1987  -10.0682   -2.9901 O   0  0  0  0  0  0  0  0  0  0  0  0
   16.8187   -9.7917   -4.8932 O   0  0  0  1  0  0  0  0  0  0  0  0
   19.2932   -9.8490   -2.6963 P   0  0  0  1  0  0  0  0  0  0  0  0
   19.7798   -8.5438   -1.9467 O   0  0  0  1  0  0  0  0  0  0  0  0
   19.6695   -9.6147   -4.1256 O   0  0  0  0  0  0  0  0  0  0  0  0
   19.6993  -11.0894   -2.0098 O   0  0  0  1  0  0  0  0  0  0  0  0
   17.8931  -12.6682   -3.7191 C   0  0  0  1  0  0  0  0  0  0  0  0
   18.0173  -13.3367   -2.8929 H   0  0  0  1  0  0  0  0  0  0  0  0
   18.7195  -11.9896   -3.7569 H   0  0  0  1  0  0  0  0  0  0  0  0
   17.8234  -13.4510   -4.9962 C   0  0  0  1  0  0  0  0  0  0  0  0
   18.6882  -13.5125   -5.5707 H   0  0  0  1  0  0  0  0  0  0  0  0
   16.7377  -14.0729   -5.4493 C   0  0  0  1  0  0  0  0  0  0  0  0
   16.7718  -15.1094   -6.5498 C   0  0  0  1  0  0  0  0  0  0  0  0
   16.0963  -14.8250   -7.3293 H   0  0  0  1  0  0  0  0  0  0  0  0
   16.4794  -16.0594   -6.1538 H   0  0  0  1  0  0  0  0  0  0  0  0
   17.7638  -15.1771   -6.9449 H   0  0  0  1  0  0  0  0  0  0  0  0
   15.3799  -13.6816   -4.9377 C   0  0  0  1  0  0  0  0  0  0  0  0
   14.6502  -13.9399   -5.6765 H   0  0  0  1  0  0  0  0  0  0  0  0
   15.3678  -12.6236   -4.7783 H   0  0  0  1  0  0  0  0  0  0  0  0
   15.0133  -14.3715   -3.6338 C   0  0  0  1  0  0  0  0  0  0  0  0
   15.7554  -14.1316   -2.9013 H   0  0  0  1  0  0  0  0  0  0  0  0
   15.0031  -15.4287   -3.7990 H   0  0  0  1  0  0  0  0  0  0  0  0
   13.6750  -13.9588   -3.1086 C   0  0  0  1  0  0  0  0  0  0  0  0
   13.5677  -12.9576   -2.8484 H   0  0  0  1  0  0  0  0  0  0  0  0
   12.6140  -14.7285   -2.9395 C   0  0  0  1  0  0  0  0  0  0  0  0
   11.3078  -14.1445   -2.4808 C   0  0  0  1  0  0  0  0  0  0  0  0
   10.9001  -14.7511   -1.6993 H   0  0  0  1  0  0  0  0  0  0  0  0
   10.6230  -14.1140   -3.3023 H   0  0  0  1  0  0  0  0  0  0  0  0
   11.4701  -13.1525   -2.1141 H   0  0  0  1  0  0  0  0  0  0  0  0
   12.6341  -16.2210   -3.0900 C   0  0  0  1  0  0  0  0  0  0  0  0
   13.5929  -16.5722   -2.7702 H   0  0  0  1  0  0  0  0  0  0  0  0
   12.4971  -16.4502   -4.1261 H   0  0  0  1  0  0  0  0  0  0  0  0
   11.5732  -16.9699   -2.2999 C   0  0  0  1  0  0  0  0  0  0  0  0
   11.6188  -16.6497   -1.2800 H   0  0  0  1  0  0  0  0  0  0  0  0
   11.7835  -18.0175   -2.3552 H   0  0  0  1  0  0  0  0  0  0  0  0
   10.1796  -16.7336   -2.8139 C   0  0  0  1  0  0  0  0  0  0  0  0
   10.0256  -16.8101   -3.8396 H   0  0  0  1  0  0  0  0  0  0  0  0
    9.1261  -16.4333   -2.0520 C   0  0  0  1  0  0  0  0  0  0  0  0
    9.2914  -16.0755   -0.6006 C   0  0  0  1  0  0  0  0  0  0  0  0
   10.3289  -16.1462   -0.3485 H   0  0  0  1  0  0  0  0  0  0  0  0
    8.7326  -16.7729   -0.0122 H   0  0  0  1  0  0  0  0  0  0  0  0
    7.7321  -16.4403   -2.6135 C   0  0  0  1  0  0  0  0  0  0  0  0
    7.4317  -15.4378   -2.8361 H   0  0  0  1  0  0  0  0  0  0  0  0
    7.0607  -16.8624   -1.8951 H   0  0  0  1  0  0  0  0  0  0  0  0
    7.7114  -17.0258   -3.5088 H   0  0  0  1  0  0  0  0  0  0  0  0
    8.8088  -14.6715   -0.2747 C   0  0  0  1  0  0  0  0  0  0  0  0
    9.4242  -13.9868   -0.8201 H   0  0  0  1  0  0  0  0  0  0  0  0
    8.9497  -14.5201    0.7751 H   0  0  0  1  0  0  0  0  0  0  0  0
    7.3864  -14.3401   -0.5871 C   0  0  0  1  0  0  0  0  0  0  0  0
    6.6411  -14.7421    0.0167 H   0  0  0  1  0  0  0  0  0  0  0  0
    7.0266  -13.5577   -1.5976 C   0  0  0  1  0  0  0  0  0  0  0  0
    7.9905  -13.2103   -2.7004 C   0  0  0  1  0  0  0  0  0  0  0  0
    7.6383  -13.6480   -3.6110 H   0  0  0  1  0  0  0  0  0  0  0  0
    8.9492  -13.6177   -2.4556 H   0  0  0  1  0  0  0  0  0  0  0  0
    5.6606  -12.9538   -1.7442 C   0  0  0  1  0  0  0  0  0  0  0  0
    5.0192  -13.3304   -0.9750 H   0  0  0  1  0  0  0  0  0  0  0  0
    5.2581  -13.2110   -2.7016 H   0  0  0  1  0  0  0  0  0  0  0  0
    5.7307  -11.8894   -1.6604 H   0  0  0  1  0  0  0  0  0  0  0  0
    8.1406  -11.7124   -2.9100 C   0  0  0  1  0  0  0  0  0  0  0  0
    8.4826  -11.2832   -1.9914 H   0  0  0  1  0  0  0  0  0  0  0  0
    7.1774  -11.3149   -3.1531 H   0  0  0  1  0  0  0  0  0  0  0  0
    9.0912  -11.3090   -3.9891 C   0  0  0  1  0  0  0  0  0  0  0  0
   10.1100  -11.4367   -3.8236 H   0  0  0  1  0  0  0  0  0  0  0  0
    8.6990  -10.7946   -5.1512 C   0  0  0  1  0  0  0  0  0  0  0  0
    7.2577  -10.9082   -5.5550 C   0  0  0  1  0  0  0  0  0  0  0  0
    6.7920  -11.6564   -4.9481 H   0  0  0  1  0  0  0  0  0  0  0  0
    7.2141  -11.2037   -6.5824 H   0  0  0  1  0  0  0  0  0  0  0  0
    9.5835  -10.0852   -6.1375 C   0  0  0  1  0  0  0  0  0  0  0  0
   10.4176  -10.7091   -6.3825 H   0  0  0  1  0  0  0  0  0  0  0  0
    9.9363   -9.1714   -5.7070 H   0  0  0  1  0  0  0  0  0  0  0  0
    9.0265   -9.8701   -7.0254 H   0  0  0  1  0  0  0  0  0  0  0  0
    6.4895   -9.6067   -5.3929 C   0  0  0  1  0  0  0  0  0  0  0  0
    7.1413   -8.7939   -5.6365 H   0  0  0  1  0  0  0  0  0  0  0  0
    6.1769   -9.5205   -4.3732 H   0  0  0  1  0  0  0  0  0  0  0  0
    5.2805   -9.5268   -6.2699 C   0  0  0  1  0  0  0  0  0  0  0  0
    4.4568  -10.0899   -5.9765 H   0  0  0  1  0  0  0  0  0  0  0  0
    5.1446   -8.8143   -7.3832 C   0  0  0  1  0  0  0  0  0  0  0  0
    6.2982   -8.2078   -8.1308 C   0  0  0  1  0  0  0  0  0  0  0  0
    6.2321   -8.5033   -9.1571 H   0  0  0  1  0  0  0  0  0  0  0  0
    7.2095   -8.5788   -7.7102 H   0  0  0  1  0  0  0  0  0  0  0  0
    3.7970   -8.5565   -7.9910 C   0  0  0  1  0  0  0  0  0  0  0  0
    3.7797   -8.9306   -8.9933 H   0  0  0  1  0  0  0  0  0  0  0  0
    3.6056   -7.5038   -8.0002 H   0  0  0  1  0  0  0  0  0  0  0  0
    3.0447   -9.0512   -7.4129 H   0  0  0  1  0  0  0  0  0  0  0  0
    6.3180   -6.6893   -8.0650 C   0  0  0  1  0  0  0  0  0  0  0  0
    5.9041   -6.3837   -7.1268 H   0  0  0  1  0  0  0  0  0  0  0  0
    5.7166   -6.3060   -8.8626 H   0  0  0  1  0  0  0  0  0  0  0  0
    7.6938   -6.1154   -8.1879 C   0  0  0  1  0  0  0  0  0  0  0  0
    8.4127   -6.5536   -7.5773 H   0  0  0  1  0  0  0  0  0  0  0  0
    8.1312   -5.1341   -8.9575 C   0  0  0  1  0  0  0  0  0  0  0  0
    7.1676   -4.2012   -9.6319 C   0  0  0  1  0  0  0  0  0  0  0  0
    6.6983   -4.7222  -10.4401 H   0  0  0  1  0  0  0  0  0  0  0  0
    7.7147   -3.3655  -10.0155 H   0  0  0  1  0  0  0  0  0  0  0  0
    9.5769   -4.9226   -9.2982 C   0  0  0  1  0  0  0  0  0  0  0  0
    9.6700   -4.0827   -9.9544 H   0  0  0  1  0  0  0  0  0  0  0  0
    9.9607   -5.7967   -9.7814 H   0  0  0  1  0  0  0  0  0  0  0  0
   10.1310   -4.7377   -8.4017 H   0  0  0  1  0  0  0  0  0  0  0  0
    6.0865   -3.6839   -8.6970 C   0  0  0  1  0  0  0  0  0  0  0  0
    5.6535   -4.5166   -8.1833 H   0  0  0  1  0  0  0  0  0  0  0  0
    5.3356   -3.1953   -9.2821 H   0  0  0  1  0  0  0  0  0  0  0  0
    6.6071   -2.7098   -7.6762 C   0  0  0  1  0  0  0  0  0  0  0  0
    7.3028   -3.0605   -6.9873 H   0  0  0  1  0  0  0  0  0  0  0  0
    6.2442   -1.4332   -7.5889 C   0  0  0  1  0  0  0  0  0  0  0  0
    5.5172   -0.7942   -8.7418 C   0  0  0  1  0  0  0  0  0  0  0  0
    5.4580   -1.5025   -9.5416 H   0  0  0  1  0  0  0  0  0  0  0  0
    6.0735    0.0615   -9.0629 H   0  0  0  1  0  0  0  0  0  0  0  0
    6.4944   -0.5316   -6.4156 C   0  0  0  1  0  0  0  0  0  0  0  0
    7.2399    0.1914   -6.6733 H   0  0  0  1  0  0  0  0  0  0  0  0
    6.8346   -1.1139   -5.5849 H   0  0  0  1  0  0  0  0  0  0  0  0
    5.5870   -0.0295   -6.1520 H   0  0  0  1  0  0  0  0  0  0  0  0
    4.1056   -0.3484   -8.3836 C   0  0  0  1  0  0  0  0  0  0  0  0
    4.1510    0.1735   -7.4506 H   0  0  0  1  0  0  0  0  0  0  0  0
    3.5007   -1.2241   -8.2740 H   0  0  0  1  0  0  0  0  0  0  0  0
    3.4546    0.5329   -9.3651 C   0  0  0  1  0  0  0  0  0  0  0  0
    3.3778    0.0937  -10.3047 H   0  0  0  1  0  0  0  0  0  0  0  0
    2.9416    1.7582   -9.3335 C   0  0  0  1  0  0  0  0  0  0  0  0
    2.6160    2.5590  -10.5649 C   0  0  0  1  0  0  0  0  0  0  0  0
    2.8809    1.9821  -11.4262 H   0  0  0  1  0  0  0  0  0  0  0  0
    3.1926    3.4601  -10.5474 H   0  0  0  1  0  0  0  0  0  0  0  0
    2.6417    2.4506   -8.0363 C   0  0  0  1  0  0  0  0  0  0  0  0
    3.5667    2.4633   -7.4985 H   0  0  0  1  0  0  0  0  0  0  0  0
    1.8978    1.9114   -7.4879 H   0  0  0  1  0  0  0  0  0  0  0  0
    2.2999    3.4486   -8.2156 H   0  0  0  1  0  0  0  0  0  0  0  0
    1.1447    2.9279  -10.6634 C   0  0  0  1  0  0  0  0  0  0  0  0
    0.8525    2.8481  -11.6897 H   0  0  0  1  0  0  0  0  0  0  0  0
    1.0362    3.9417  -10.3390 H   0  0  0  1  0  0  0  0  0  0  0  0
    0.2107    2.0771   -9.8475 C   0  0  0  1  0  0  0  0  0  0  0  0
    0.2142    1.0524  -10.0250 H   0  0  0  1  0  0  0  0  0  0  0  0
   -0.6179    2.5367   -8.9175 C   0  0  0  1  0  0  0  0  0  0  0  0
   -0.7303    4.0055   -8.6292 C   0  0  0  1  0  0  0  0  0  0  0  0
   -0.1258    4.2503   -7.7810 H   0  0  0  1  0  0  0  0  0  0  0  0
   -1.7510    4.2510   -8.4222 H   0  0  0  1  0  0  0  0  0  0  0  0
   -0.3943    4.5623   -9.4789 H   0  0  0  1  0  0  0  0  0  0  0  0
   -1.5098    1.6576   -8.0749 C   0  0  0  1  0  0  0  0  0  0  0  0
   -1.6113    2.1281   -7.1192 H   0  0  0  1  0  0  0  0  0  0  0  0
   -1.0673    0.6900   -7.9609 H   0  0  0  1  0  0  0  0  0  0  0  0
   -2.4693    1.5593   -8.5379 H   0  0  0  1  0  0  0  0  0  0  0  0
   16.0144   -5.1628   -1.4992 C   0  0  0  1  0  0  0  0  0  0  0  0
   16.1667   -5.6923   -0.5820 H   0  0  0  1  0  0  0  0  0  0  0  0
   14.8501   -5.7863   -2.2581 C   0  0  0  1  0  0  0  0  0  0  0  0
   15.0818   -6.8016   -2.5036 H   0  0  0  1  0  0  0  0  0  0  0  0
   15.7188   -3.7932   -1.2152 O   0  0  0  1  0  0  0  0  0  0  0  0
   14.6219   -4.9833   -3.5426 C   0  0  0  1  0  0  0  0  0  0  0  0
   13.7241   -5.3305   -4.0097 H   0  0  0  1  0  0  0  0  0  0  0  0
   15.6321   -2.9955   -2.4062 C   0  0  0  1  0  0  0  0  0  0  0  0
   16.5510   -3.0677   -2.9495 H   0  0  0  1  0  0  0  0  0  0  0  0
   14.4894   -3.4934   -3.2786 C   0  0  0  1  0  0  0  0  0  0  0  0
   14.5062   -2.9692   -4.2113 H   0  0  0  1  0  0  0  0  0  0  0  0
   17.1936   -5.2388   -2.2935 O   0  0  0  1  0  0  0  0  0  0  0  0
   13.6724   -5.7477   -1.4501 O   0  0  0  1  0  0  0  0  0  0  0  0
   13.3967   -4.8362   -1.3287 H   0  0  0  1  0  0  0  0  0  0  0  0
   15.7227   -5.1956   -4.4145 O   0  0  0  1  0  0  0  0  0  0  0  0
   15.4056   -5.5390   -5.2530 H   0  0  0  1  0  0  0  0  0  0  0  0
   15.3807   -1.5457   -2.0248 C   0  0  0  1  0  0  0  0  0  0  0  0
   15.2320   -0.9641   -2.9105 H   0  0  0  1  0  0  0  0  0  0  0  0
   16.2248   -1.1671   -1.4873 H   0  0  0  1  0  0  0  0  0  0  0  0
   14.5083   -1.4855   -1.4083 H   0  0  0  1  0  0  0  0  0  0  0  0
   19.2986   -7.2555   -2.3324 C   0  0  0  1  0  0  0  0  0  0  0  0
   18.4924   -7.3685   -3.0267 H   0  0  0  1  0  0  0  0  0  0  0  0
   18.8133   -6.5159   -1.1157 C   0  0  0  1  0  0  0  0  0  0  0  0
   19.6086   -6.4435   -0.4036 H   0  0  0  1  0  0  0  0  0  0  0  0
   20.3454   -6.5231   -2.9398 O   0  0  0  1  0  0  0  0  0  0  0  0
   18.3647   -5.1367   -1.5032 C   0  0  0  1  0  0  0  0  0  0  0  0
   18.1493   -4.5791   -0.6158 H   0  0  0  1  0  0  0  0  0  0  0  0
   19.8732   -5.2682   -3.4617 C   0  0  0  1  0  0  0  0  0  0  0  0
   20.6614   -4.7767   -3.9929 H   0  0  0  1  0  0  0  0  0  0  0  0
   19.4282   -4.4104   -2.2933 C   0  0  0  1  0  0  0  0  0  0  0  0
   19.0299   -3.4879   -2.6611 H   0  0  0  1  0  0  0  0  0  0  0  0
   17.6976   -7.2380   -0.5254 N   0  0  0  1  0  0  0  0  0  0  0  0
   17.2064   -7.8985   -1.0573 H   0  0  0  1  0  0  0  0  0  0  0  0
   20.5490   -4.1426   -1.4467 O   0  0  0  1  0  0  0  0  0  0  0  0
   20.4306   -4.6809   -0.6607 H   0  0  0  1  0  0  0  0  0  0  0  0
   18.7160   -5.5055   -4.3887 C   0  0  0  1  0  0  0  0  0  0  0  0
   17.9928   -6.1269   -3.9029 H   0  0  0  1  0  0  0  0  0  0  0  0
   19.0650   -5.9906   -5.2763 H   0  0  0  1  0  0  0  0  0  0  0  0
   18.1151   -4.2612   -4.7342 O   0  0  0  1  0  0  0  0  0  0  0  0
   17.6027   -4.3876   -5.5361 H   0  0  0  1  0  0  0  0  0  0  0  0
   17.3407   -7.0028    0.7404 C   0  0  0  1  0  0  0  0  0  0  0  0
   17.9394   -6.2157    1.4688 O   0  0  0  1  0  0  0  0  0  0  0  0
   16.1342   -7.7742    1.2388 C   0  0  0  1  0  0  0  0  0  0  0  0
   15.3706   -7.5694    0.5178 H   0  0  0  1  0  0  0  0  0  0  0  0
   15.8403   -7.4316    2.2089 H   0  0  0  1  0  0  0  0  0  0  0  0
   16.3454   -8.8224    1.2790 H   0  0  0  1  0  0  0  0  0  0  0  0
  1  2  1  0  0  0  0
  1  3  1  0  0  0  0
  1  4  1  0  0  0  0
  1 44  1  0  0  0  0
  3 20  1  0  0  0  0
  4  5  1  0  0  0  0
  4  6  1  0  0  0  0
  4  8  1  0  0  0  0
  6  7  1  0  0  0  0
  8  9  1  0  0  0  0
  8 10  1  0  0  0  0
  8 20  1  0  0  0  0
 10 11  1  0  0  0  0
 12 13  1  0  0  0  0
 12 14  1  0  0  0  0
 12 15  1  0  0  0  0
 12 17  1  0  0  0  0
 15 16  1  0  0  0  0
 17 18  1  0  0  0  0
 17 19  1  0  0  0  0
 17 20  1  0  0  0  0
 19 22  1  0  0  0  0
 20 21  1  0  0  0  0
 22 23  1  0  0  0  0
 22 24  1  0  0  0  0
 22 25  1  0  0  0  0
 24 42  1  0  0  0  0
 25 26  1  0  0  0  0
 25 27  1  0  0  0  0
 25 29  1  0  0  0  0
 27 28  1  0  0  0  0
 29 30  1  0  0  0  0
 29 31  1  0  0  0  0
 29 42  1  0  0  0  0
 31 32  1  0  0  0  0
 33 34  1  0  0  0  0
 33 35  1  0  0  0  0
 33 36  1  0  0  0  0
 33 38  1  0  0  0  0
 36 37  1  0  0  0  0
 38 39  1  0  0  0  0
 38 40  1  0  0  0  0
 38 42  1  0  0  0  0
 40 41  1  0  0  0  0
 42 43  1  0  0  0  0
 44194  1  0  0  0  0
 45 46  1  0  0  0  0
 45 54  1  0  0  0  0
 46 47  1  0  0  0  0
 46 48  1  0  0  0  0
 46 49  2  0  0  0  0
 47 50  1  0  0  0  0
 50 51  1  0  0  0  0
 50 52  1  0  0  0  0
 50 53  2  0  0  0  0
 51205  1  0  0  0  0
 54 55  1  0  0  0  0
 54 56  1  0  0  0  0
 54 57  1  0  0  0  0
 57 58  1  0  0  0  0
 57 59  2  0  0  0  0
 59 60  1  0  0  0  0
 59 64  1  0  0  0  0
 60 61  1  0  0  0  0
 60 62  1  0  0  0  0
 60 63  1  0  0  0  0
 64 65  1  0  0  0  0
 64 66  1  0  0  0  0
 64 67  1  0  0  0  0
 67 68  1  0  0  0  0
 67 69  1  0  0  0  0
 67 70  1  0  0  0  0
 70 71  1  0  0  0  0
 70 72  2  0  0  0  0
 72 73  1  0  0  0  0
 72 77  1  0  0  0  0
 73 74  1  0  0  0  0
 73 75  1  0  0  0  0
 73 76  1  0  0  0  0
 77 78  1  0  0  0  0
 77 79  1  0  0  0  0
 77 80  1  0  0  0  0
 80 81  1  0  0  0  0
 80 82  1  0  0  0  0
 80 83  1  0  0  0  0
 83 84  1  0  0  0  0
 83 85  2  0  0  0  0
 85 86  1  0  0  0  0
 85 89  1  0  0  0  0
 86 87  1  0  0  0  0
 86 88  1  0  0  0  0
 86 93  1  0  0  0  0
 89 90  1  0  0  0  0
 89 91  1  0  0  0  0
 89 92  1  0  0  0  0
 93 94  1  0  0  0  0
 93 95  1  0  0  0  0
 93 96  1  0  0  0  0
 96 97  1  0  0  0  0
 96 98  2  0  0  0  0
 98 99  1  0  0  0  0
 98102  1  0  0  0  0
 99100  1  0  0  0  0
 99101  1  0  0  0  0
 99106  1  0  0  0  0
102103  1  0  0  0  0
102104  1  0  0  0  0
102105  1  0  0  0  0
106107  1  0  0  0  0
106108  1  0  0  0  0
106109  1  0  0  0  0
109110  1  0  0  0  0
109111  2  0  0  0  0
111112  1  0  0  0  0
111115  1  0  0  0  0
112113  1  0  0  0  0
112114  1  0  0  0  0
112119  1  0  0  0  0
115116  1  0  0  0  0
115117  1  0  0  0  0
115118  1  0  0  0  0
119120  1  0  0  0  0
119121  1  0  0  0  0
119122  1  0  0  0  0
122123  1  0  0  0  0
122124  2  0  0  0  0
124125  1  0  0  0  0
124128  1  0  0  0  0
125126  1  0  0  0  0
125127  1  0  0  0  0
125132  1  0  0  0  0
128129  1  0  0  0  0
128130  1  0  0  0  0
128131  1  0  0  0  0
132133  1  0  0  0  0
132134  1  0  0  0  0
132135  1  0  0  0  0
135136  1  0  0  0  0
135137  2  0  0  0  0
137138  1  0  0  0  0
137141  1  0  0  0  0
138139  1  0  0  0  0
138140  1  0  0  0  0
138145  1  0  0  0  0
141142  1  0  0  0  0
141143  1  0  0  0  0
141144  1  0  0  0  0
145146  1  0  0  0  0
145147  1  0  0  0  0
145148  1  0  0  0  0
148149  1  0  0  0  0
148150  2  0  0  0  0
150151  1  0  0  0  0
150154  1  0  0  0  0
151152  1  0  0  0  0
151153  1  0  0  0  0
151158  1  0  0  0  0
154155  1  0  0  0  0
154156  1  0  0  0  0
154157  1  0  0  0  0
158159  1  0  0  0  0
158160  1  0  0  0  0
158161  1  0  0  0  0
161162  1  0  0  0  0
161163  2  0  0  0  0
163164  1  0  0  0  0
163167  1  0  0  0  0
164165  1  0  0  0  0
164166  1  0  0  0  0
164171  1  0  0  0  0
167168  1  0  0  0  0
167169  1  0  0  0  0
167170  1  0  0  0  0
171172  1  0  0  0  0
171173  1  0  0  0  0
171174  1  0  0  0  0
174175  1  0  0  0  0
174176  2  0  0  0  0
176177  1  0  0  0  0
176181  1  0  0  0  0
177178  1  0  0  0  0
177179  1  0  0  0  0
177180  1  0  0  0  0
181182  1  0  0  0  0
181183  1  0  0  0  0
181184  1  0  0  0  0
185186  1  0  0  0  0
185187  1  0  0  0  0
185189  1  0  0  0  0
185196  1  0  0  0  0
187188  1  0  0  0  0
187190  1  0  0  0  0
187197  1  0  0  0  0
189192  1  0  0  0  0
190191  1  0  0  0  0
190194  1  0  0  0  0
190199  1  0  0  0  0
192193  1  0  0  0  0
192194  1  0  0  0  0
192201  1  0  0  0  0
194195  1  0  0  0  0
196210  1  0  0  0  0
197198  1  0  0  0  0
199200  1  0  0  0  0
201202  1  0  0  0  0
201203  1  0  0  0  0
201204  1  0  0  0  0
205206  1  0  0  0  0
205207  1  0  0  0  0
205209  1  0  0  0  0
207208  1  0  0  0  0
207210  1  0  0  0  0
207216  1  0  0  0  0
209212  1  0  0  0  0
210211  1  0  0  0  0
210214  1  0  0  0  0
212213  1  0  0  0  0
212214  1  0  0  0  0
212220  1  0  0  0  0
214215  1  0  0  0  0
214218  1  0  0  0  0
216217  1  0  0  0  0
216225  1  0  0  0  0
218219  1  0  0  0  0
220221  1  0  0  0  0
220222  1  0  0  0  0
220223  1  0  0  0  0
223224  1  0  0  0  0
225226  2  0  0  0  0
225227  1  0  0  0  0
227228  1  0  0  0  0
227229  1  0  0  0  0
227230  1  0  0  0  0
M  BCL ATM C_TeTeTeTe H_S O_Te2Te2TeTe C_TeTeTeTe H_S O_Te2Te2TeTe H_S C_TeTeTeTe H_S O_Te2Te2TeTe H_S C_TeTeTeTe H_S H_S O_Te2Te2TeTe H_S C_TeTeTeTe H_S O_Te2Te2TeTe C_TeTeTeTe H_S C_TeTeTeTe H_S O_Te2Te2TeTe C_TeTeTeTe H_S O_Te2Te2TeTe H_S C_TeTeTeTe H_S O_Te2Te2TeTe H_S C_TeTeTeTe H_S H_S O_Te2Te2TeTe H_S C_TeTeTeTe H_S O_Te2Te2TeTe H_S C_TeTeTeTe H_S O_Te2Te2TeTe O_Tr2TrTrPi2 P_TeTeTeTePi O_Tr2TrTrPi2 O_Te2Te2TeTe O_Tr2Tr2TrPi P_TeTeTeTePi O_Tr2TrTrPi2 O_Te2Te2TeTe O_Tr2Tr2TrPi C_TeTeTeTe H_S H_S C_TrTrTrPi H_S C_TrTrTrPi C_TeTeTeTe H_S H_S H_S C_TeTeTeTe H_S H_S C_TeTeTeTe H_S H_S C_TrTrTrPi H_S C_TrTrTrPi C_TeTeTeTe H_S H_S H_S C_TeTeTeTe H_S H_S C_TeTeTeTe H_S H_S C_TrTrTrPi H_S C_TrTrTrPi C_TeTeTeTe H_S H_S C_TeTeTeTe H_S H_S H_S C_TeTeTeTe H_S H_S C_TrTrTrPi H_S C_TrTrTrPi C_TeTeTeTe H_S H_S C_TeTeTeTe H_S H_S H_S C_TeTeTeTe H_S H_S C_TrTrTrPi H_S C_TrTrTrPi C_TeTeTeTe H_S H_S C_TeTeTeTe H_S H_S H_S C_TeTeTeTe H_S H_S C_TrTrTrPi H_S C_TrTrTrPi C_TeTeTeTe H_S H_S C_TeTeTeTe H_S H_S H_S C_TeTeTeTe H_S H_S C_TrTrTrPi H_S C_TrTrTrPi C_TeTeTeTe H_S H_S C_TeTeTeTe H_S H_S H_S C_TeTeTeTe H_S H_S C_TrTrTrPi H_S C_TrTrTrPi C_TeTeTeTe H_S H_S C_TeTeTeTe H_S H_S H_S C_TeTeTeTe H_S H_S C_TrTrTrPi H_S C_TrTrTrPi C_TeTeTeTe H_S H_S C_TeTeTeTe H_S H_S H_S C_TeTeTeTe H_S H_S C_TrTrTrPi H_S C_TrTrTrPi C_TeTeTeTe H_S H_S H_S C_TeTeTeTe H_S H_S H_S C_TeTeTeTe H_S C_TeTeTeTe H_S O_Te2Te2TeTe C_TeTeTeTe H_S C_TeTeTeTe H_S C_TeTeTeTe H_S O_Te2Te2TeTe O_Te2Te2TeTe H_S O_Te2Te2TeTe H_S C_TeTeTeTe H_S H_S H_S C_TeTeTeTe H_S C_TeTeTeTe H_S O_Te2Te2TeTe C_TeTeTeTe H_S C_TeTeTeTe H_S C_TeTeTeTe H_S N_TrTrTrPi2 H_S O_Te2Te2TeTe H_S C_TeTeTeTe H_S H_S O_Te2Te2TeTe H_S C_TrTrTrPi O_Tr2Tr2TrPi C_TeTeTeTe H_S H_S H_S
M  BCL BND NonConjugatedSingleBond NonConjugatedSingleBondInRing NonConjugatedSingleBondInRing NonConjugatedSingleBond NonConjugatedSingleBondInRing NonConjugatedSingleBond NonConjugatedSingleBond NonConjugatedSingleBondInRing NonConjugatedSingleBond NonConjugatedSingleBond NonConjugatedSingleBond NonConjugatedSingleBondInRing NonConjugatedSingleBond NonConjugatedSingleBond NonConjugatedSingleBond NonConjugatedSingleBond NonConjugatedSingleBond NonConjugatedSingleBond NonConjugatedSingleBond NonConjugatedSingleBond NonConjugatedSingleBond NonConjugatedSingleBond NonConjugatedSingleBond NonConjugatedSingleBond NonConjugatedSingleBondInRing NonConjugatedSingleBondInRing NonConjugatedSingleBondInRing NonConjugatedSingleBond NonConjugatedSingleBond NonConjugatedSingleBondInRing NonConjugatedSingleBond NonConjugatedSingleBond NonConjugatedSingleBond NonConjugatedSingleBondInRing NonConjugatedSingleBond NonConjugatedSingleBond NonConjugatedSingleBond NonConjugatedSingleBond NonConjugatedSingleBond NonConjugatedSingleBond NonConjugatedSingleBond NonConjugatedSingleBond NonConjugatedSingleBond NonConjugatedSingleBond NonConjugatedSingleBond NonConjugatedSingleBond ConjugatedSingleBond NonConjugatedSingleBond ConjugatedSingleBond ConjugatedSingleBond ConjugatedDoubleBond ConjugatedSingleBond ConjugatedSingleBond ConjugatedSingleBond ConjugatedDoubleBond NonConjugatedSingleBond NonConjugatedSingleBond NonConjugatedSingleBond NonConjugatedSingleBond NonConjugatedSingleBond ConjugatedDoubleBond NonConjugatedSingleBond NonConjugatedSingleBond NonConjugatedSingleBond NonConjugatedSingleBond NonConjugatedSingleBond NonConjugatedSingleBond NonConjugatedSingleBond NonConjugatedSingleBond NonConjugatedSingleBond NonConjugatedSingleBond NonConjugatedSingleBond NonConjugatedSingleBond ConjugatedDoubleBond NonConjugatedSingleBond NonConjugatedSingleBond NonConjugatedSingleBond NonConjugatedSingleBond NonConjugatedSingleBond NonConjugatedSingleBond NonConjugatedSingleBond NonConjugatedSingleBond NonConjugatedSingleBond NonConjugatedSingleBond NonConjugatedSingleBond NonConjugatedSingleBond ConjugatedDoubleBond NonConjugatedSingleBond NonConjugatedSingleBond NonConjugatedSingleBond NonConjugatedSingleBond NonConjugatedSingleBond NonConjugatedSingleBond NonConjugatedSingleBond NonConjugatedSingleBond NonConjugatedSingleBond NonConjugatedSingleBond NonConjugatedSingleBond NonConjugatedSingleBond ConjugatedDoubleBond NonConjugatedSingleBond NonConjugatedSingleBond NonConjugatedSingleBond NonConjugatedSingleBond NonConjugatedSingleBond NonConjugatedSingleBond NonConjugatedSingleBond NonConjugatedSingleBond NonConjugatedSingleBond NonConjugatedSingleBond NonConjugatedSingleBond NonConjugatedSingleBond ConjugatedDoubleBond NonConjugatedSingleBond NonConjugatedSingleBond NonConjugatedSingleBond NonConjugatedSingleBond NonConjugatedSingleBond NonConjugatedSingleBond NonConjugatedSingleBond NonConjugatedSingleBond NonConjugatedSingleBond NonConjugatedSingleBond NonConjugatedSingleBond NonConjugatedSingleBond ConjugatedDoubleBond NonConjugatedSingleBond NonConjugatedSingleBond NonConjugatedSingleBond NonConjugatedSingleBond NonConjugatedSingleBond NonConjugatedSingleBond NonConjugatedSingleBond NonConjugatedSingleBond NonConjugatedSingleBond NonConjugatedSingleBond NonConjugatedSingleBond NonConjugatedSingleBond ConjugatedDoubleBond NonConjugatedSingleBond NonConjugatedSingleBond NonConjugatedSingleBond NonConjugatedSingleBond NonConjugatedSingleBond NonConjugatedSingleBond NonConjugatedSingleBond NonConjugatedSingleBond NonConjugatedSingleBond NonConjugatedSingleBond NonConjugatedSingleBond NonConjugatedSingleBond ConjugatedDoubleBond NonConjugatedSingleBond NonConjugatedSingleBond NonConjugatedSingleBond NonConjugatedSingleBond NonConjugatedSingleBond NonConjugatedSingleBond NonConjugatedSingleBond NonConjugatedSingleBond NonConjugatedSingleBond NonConjugatedSingleBond NonConjugatedSingleBond NonConjugatedSingleBond ConjugatedDoubleBond NonConjugatedSingleBond NonConjugatedSingleBond NonConjugatedSingleBond NonConjugatedSingleBond NonConjugatedSingleBond NonConjugatedSingleBond NonConjugatedSingleBond NonConjugatedSingleBond NonConjugatedSingleBond NonConjugatedSingleBond NonConjugatedSingleBond NonConjugatedSingleBond ConjugatedDoubleBond NonConjugatedSingleBond NonConjugatedSingleBond NonConjugatedSingleBond NonConjugatedSingleBond NonConjugatedSingleBond NonConjugatedSingleBond NonConjugatedSingleBond NonConjugatedSingleBond NonConjugatedSingleBond NonConjugatedSingleBondInRing NonConjugatedSingleBondInRing NonConjugatedSingleBond NonConjugatedSingleBond NonConjugatedSingleBondInRing NonConjugatedSingleBond NonConjugatedSingleBondInRing NonConjugatedSingleBond NonConjugatedSingleBondInRing NonConjugatedSingleBond NonConjugatedSingleBond NonConjugatedSingleBondInRing NonConjugatedSingleBond NonConjugatedSingleBond NonConjugatedSingleBond NonConjugatedSingleBond NonConjugatedSingleBond NonConjugatedSingleBond NonConjugatedSingleBond NonConjugatedSingleBond NonConjugatedSingleBond NonConjugatedSingleBondInRing NonConjugatedSingleBondInRing NonConjugatedSingleBond NonConjugatedSingleBondInRing NonConjugatedSingleBond NonConjugatedSingleBondInRing NonConjugatedSingleBond NonConjugatedSingleBondInRing NonConjugatedSingleBond NonConjugatedSingleBondInRing NonConjugatedSingleBond NonConjugatedSingleBond NonConjugatedSingleBond NonConjugatedSingleBond AmideSingleBond NonConjugatedSingleBond NonConjugatedSingleBond NonConjugatedSingleBond NonConjugatedSingleBond NonConjugatedSingleBond ConjugatedDoubleBond NonConjugatedSingleBond NonConjugatedSingleBond NonConjugatedSingleBond NonConjugatedSingleBond
M  BCL CHI   1   R   4   R   8   R  17   S  20   R  22   S  25   R  29   S  38   S  42   R  46   R  50   S 185   R 187   S 190   S 192   R 194   R 205   R 207   S 210   R 212   S 214   S
M  BCL DBI - - E E E E E E E E Z - -
M  END
> <ConfClashScore>
0.00230203 

> <ConfOneFourInteractionScore>
-0.969732 

> <ConfScore>
0.375916 

> <ConfScorePBest>
0.0137595 

> <ConfTolerance>
1.17948 

$$$$
L05.****
  PyMOL2.5          3D                             0

230233  0  0  0  0  0  0  0  0999 V2000
   12.0841   -2.7888   -2.3844 C   0  0  0  1  0  0  0  0  0  0  0  0
   11.6212   -3.3551   -3.1654 H   0  0  0  1  0  0  0  0  0  0  0  0
   12.3523   -1.4732   -2.8217 O   0  0  0  1  0  0  0  0  0  0  0  0
   11.1393   -2.6405   -1.2057 C   0  0  0  1  0  0  0  0  0  0  0  0
   11.2441   -3.4555   -0.5204 H   0  0  0  1  0  0  0  0  0  0  0  0
    9.7811   -2.5541   -1.6396 O   0  0  0  1  0  0  0  0  0  0  0  0
    9.1996   -2.8396   -0.9312 H   0  0  0  1  0  0  0  0  0  0  0  0
   11.5973   -1.3451   -0.5865 C   0  0  0  1  0  0  0  0  0  0  0  0
   10.8220   -0.8965   -0.0013 H   0  0  0  1  0  0  0  0  0  0  0  0
   12.7571   -1.5367    0.2250 O   0  0  0  1  0  0  0  0  0  0  0  0
   13.4065   -0.8598    0.0208 H   0  0  0  1  0  0  0  0  0  0  0  0
    9.7962   -0.5706   -3.2759 C   0  0  0  1  0  0  0  0  0  0  0  0
    9.5181    0.0550   -4.0983 H   0  0  0  1  0  0  0  0  0  0  0  0
   10.3403   -1.4173   -3.6392 H   0  0  0  1  0  0  0  0  0  0  0  0
    8.6253   -1.0146   -2.6031 O   0  0  0  1  0  0  0  0  0  0  0  0
    8.0712   -1.5055   -3.2144 H   0  0  0  1  0  0  0  0  0  0  0  0
   10.6828    0.2282   -2.3018 C   0  0  0  1  0  0  0  0  0  0  0  0
   10.0877    0.4195   -1.4333 H   0  0  0  1  0  0  0  0  0  0  0  0
   11.1233    1.4789   -2.8181 O   0  0  0  1  0  0  0  0  0  0  0  0
   11.9155   -0.5090   -1.8254 C   0  0  0  1  0  0  0  0  0  0  0  0
   12.6937    0.1947   -1.6154 H   0  0  0  1  0  0  0  0  0  0  0  0
   10.3625    1.9426   -3.9040 C   0  0  0  1  0  0  0  0  0  0  0  0
   10.5732    1.3475   -4.7679 H   0  0  0  1  0  0  0  0  0  0  0  0
    8.9373    1.9094   -3.5885 O   0  0  0  1  0  0  0  0  0  0  0  0
   10.6508    3.4013   -4.1755 C   0  0  0  1  0  0  0  0  0  0  0  0
   10.4527    3.6463   -5.1981 H   0  0  0  1  0  0  0  0  0  0  0  0
   12.0077    3.7200   -3.8632 O   0  0  0  1  0  0  0  0  0  0  0  0
   12.1778    4.6405   -4.0763 H   0  0  0  1  0  0  0  0  0  0  0  0
    9.6848    4.1380   -3.2381 C   0  0  0  1  0  0  0  0  0  0  0  0
    9.3752    5.0715   -3.6595 H   0  0  0  1  0  0  0  0  0  0  0  0
   10.2795    4.3655   -1.9636 O   0  0  0  1  0  0  0  0  0  0  0  0
   11.1513    3.9641   -1.9405 H   0  0  0  1  0  0  0  0  0  0  0  0
    7.7118    3.7440   -5.4627 C   0  0  0  1  0  0  0  0  0  0  0  0
    8.4500    4.5064   -5.5994 H   0  0  0  1  0  0  0  0  0  0  0  0
    8.1031    2.8046   -5.7931 H   0  0  0  1  0  0  0  0  0  0  0  0
    6.5545    4.0661   -6.2205 O   0  0  0  1  0  0  0  0  0  0  0  0
    5.8160    4.2216   -5.6272 H   0  0  0  1  0  0  0  0  0  0  0  0
    7.3490    3.6502   -3.9886 C   0  0  0  1  0  0  0  0  0  0  0  0
    6.5315    2.9681   -3.8816 H   0  0  0  1  0  0  0  0  0  0  0  0
    6.9468    4.9563   -3.5778 O   0  0  0  1  0  0  0  0  0  0  0  0
    5.9910    4.9853   -3.4923 H   0  0  0  1  0  0  0  0  0  0  0  0
    8.5042    3.1597   -3.1316 C   0  0  0  1  0  0  0  0  0  0  0  0
    8.1861    3.0839   -2.1128 H   0  0  0  1  0  0  0  0  0  0  0  0
   13.2866   -3.4328   -1.9794 O   0  0  0  1  0  0  0  0  0  0  0  0
   21.6263   -4.2383   -9.9742 O   0  0  0  1  0  0  0  0  0  0  0  0
   21.6462   -3.3229   -8.6289 P   0  0  0  1  0  0  0  0  0  0  0  0
   21.1719   -4.3149   -7.4636 O   0  0  0  1  0  0  0  0  0  0  0  0
   20.6175   -2.2568   -8.6803 O   0  0  0  0  0  0  0  0  0  0  0  0
   23.0435   -2.9603   -8.4801 O   0  0  0  1  0  0  0  0  0  0  0  0
   21.3832   -4.6028   -5.9281 P   0  0  0  1  0  0  0  0  0  0  0  0
   20.3035   -5.7198   -5.7289 O   0  0  0  1  0  0  0  0  0  0  0  0
   20.9652   -3.3498   -5.2600 O   0  0  0  0  0  0  0  0  0  0  0  0
   22.7171   -5.1761   -5.6057 O   0  0  0  1  0  0  0  0  0  0  0  0
   21.9930   -3.7902  -11.2889 C   0  0  0  1  0  0  0  0  0  0  0  0
   22.2402   -2.7498  -11.2511 H   0  0  0  1  0  0  0  0  0  0  0  0
   21.1685   -3.9374  -11.9548 H   0  0  0  1  0  0  0  0  0  0  0  0
   23.1790   -4.5633  -11.7904 C   0  0  0  1  0  0  0  0  0  0  0  0
   23.8919   -4.8300  -11.0817 H   0  0  0  1  0  0  0  0  0  0  0  0
   23.4162   -4.9436  -13.0412 C   0  0  0  1  0  0  0  0  0  0  0  0
   24.4741   -5.9377  -13.4232 C   0  0  0  1  0  0  0  0  0  0  0  0
   25.0439   -6.2033  -12.5574 H   0  0  0  1  0  0  0  0  0  0  0  0
   25.1216   -5.5049  -14.1569 H   0  0  0  1  0  0  0  0  0  0  0  0
   24.0110   -6.8134  -13.8276 H   0  0  0  1  0  0  0  0  0  0  0  0
   22.6228   -4.3928  -14.1958 C   0  0  0  1  0  0  0  0  0  0  0  0
   21.6363   -4.8056  -14.1589 H   0  0  0  1  0  0  0  0  0  0  0  0
   23.0992   -4.6870  -15.1076 H   0  0  0  1  0  0  0  0  0  0  0  0
   22.5140   -2.8769  -14.1742 C   0  0  0  1  0  0  0  0  0  0  0  0
   23.4768   -2.4632  -14.3907 H   0  0  0  1  0  0  0  0  0  0  0  0
   22.2058   -2.5715  -13.1961 H   0  0  0  1  0  0  0  0  0  0  0  0
   21.5326   -2.3456  -15.1701 C   0  0  0  1  0  0  0  0  0  0  0  0
   21.7492   -2.4502  -16.1819 H   0  0  0  1  0  0  0  0  0  0  0  0
   20.3977   -1.7465  -14.8257 C   0  0  0  1  0  0  0  0  0  0  0  0
   19.5455   -0.9655  -15.7816 C   0  0  0  1  0  0  0  0  0  0  0  0
   18.5522   -0.8862  -15.3919 H   0  0  0  1  0  0  0  0  0  0  0  0
   19.5187   -1.4668  -16.7266 H   0  0  0  1  0  0  0  0  0  0  0  0
   19.9578    0.0137  -15.9084 H   0  0  0  1  0  0  0  0  0  0  0  0
   19.8709   -1.8084  -13.4196 C   0  0  0  1  0  0  0  0  0  0  0  0
   20.5562   -2.3743  -12.8238 H   0  0  0  1  0  0  0  0  0  0  0  0
   18.9201   -2.2989  -13.4334 H   0  0  0  1  0  0  0  0  0  0  0  0
   19.6983   -0.4340  -12.7861 C   0  0  0  1  0  0  0  0  0  0  0  0
   19.0174    0.1418  -13.3774 H   0  0  0  1  0  0  0  0  0  0  0  0
   20.6475    0.0587  -12.7531 H   0  0  0  1  0  0  0  0  0  0  0  0
   19.1597   -0.5547  -11.3959 C   0  0  0  1  0  0  0  0  0  0  0  0
   18.8220   -1.4958  -11.1096 H   0  0  0  1  0  0  0  0  0  0  0  0
   19.0659    0.4100  -10.4871 C   0  0  0  1  0  0  0  0  0  0  0  0
   19.1939    1.8751  -10.8080 C   0  0  0  1  0  0  0  0  0  0  0  0
   18.5384    2.1040  -11.6222 H   0  0  0  1  0  0  0  0  0  0  0  0
   20.2049    2.0735  -11.0967 H   0  0  0  1  0  0  0  0  0  0  0  0
   18.8192    0.1028   -9.0368 C   0  0  0  1  0  0  0  0  0  0  0  0
   19.2269    0.8854   -8.4316 H   0  0  0  1  0  0  0  0  0  0  0  0
   19.2888   -0.8248   -8.7840 H   0  0  0  1  0  0  0  0  0  0  0  0
   17.7661    0.0292   -8.8622 H   0  0  0  1  0  0  0  0  0  0  0  0
   18.8405    2.7747   -9.6348 C   0  0  0  1  0  0  0  0  0  0  0  0
   19.4862    2.5358   -8.8158 H   0  0  0  1  0  0  0  0  0  0  0  0
   17.8248    2.5868   -9.3555 H   0  0  0  1  0  0  0  0  0  0  0  0
   18.9865    4.2279   -9.9471 C   0  0  0  1  0  0  0  0  0  0  0  0
   19.9440    4.6107  -10.0826 H   0  0  0  1  0  0  0  0  0  0  0  0
   17.9491    5.0593  -10.0609 C   0  0  0  1  0  0  0  0  0  0  0  0
   16.5475    4.5387  -10.2091 C   0  0  0  1  0  0  0  0  0  0  0  0
   16.6002    3.4700  -10.1994 H   0  0  0  1  0  0  0  0  0  0  0  0
   16.1818    4.8696  -11.1586 H   0  0  0  1  0  0  0  0  0  0  0  0
   18.1404    6.5477  -10.0454 C   0  0  0  1  0  0  0  0  0  0  0  0
   17.1991    7.0304  -10.2063 H   0  0  0  1  0  0  0  0  0  0  0  0
   18.8218    6.8276  -10.8214 H   0  0  0  1  0  0  0  0  0  0  0  0
   18.5365    6.8463   -9.0973 H   0  0  0  1  0  0  0  0  0  0  0  0
   15.5290    4.9533   -9.1598 C   0  0  0  1  0  0  0  0  0  0  0  0
   14.6201    4.4232   -9.3544 H   0  0  0  1  0  0  0  0  0  0  0  0
   15.3584    6.0046   -9.2626 H   0  0  0  1  0  0  0  0  0  0  0  0
   15.9241    4.6865   -7.7420 C   0  0  0  1  0  0  0  0  0  0  0  0
   16.2974    3.7425   -7.5160 H   0  0  0  1  0  0  0  0  0  0  0  0
   15.8336    5.5691   -6.7460 C   0  0  0  1  0  0  0  0  0  0  0  0
   15.6280    7.0295   -7.0413 C   0  0  0  1  0  0  0  0  0  0  0  0
   16.3864    7.3368   -7.7307 H   0  0  0  1  0  0  0  0  0  0  0  0
   15.7382    7.5703   -6.1246 H   0  0  0  1  0  0  0  0  0  0  0  0
   16.0280    5.1564   -5.3396 C   0  0  0  1  0  0  0  0  0  0  0  0
   17.0545    5.2874   -5.0676 H   0  0  0  1  0  0  0  0  0  0  0  0
   15.7588    4.1266   -5.2299 H   0  0  0  1  0  0  0  0  0  0  0  0
   15.4113    5.7565   -4.7035 H   0  0  0  1  0  0  0  0  0  0  0  0
   14.2775    7.3896   -7.6387 C   0  0  0  1  0  0  0  0  0  0  0  0
   13.5234    7.3390   -6.8812 H   0  0  0  1  0  0  0  0  0  0  0  0
   14.0385    6.7065   -8.4268 H   0  0  0  1  0  0  0  0  0  0  0  0
   14.3520    8.7807   -8.1831 C   0  0  0  1  0  0  0  0  0  0  0  0
   15.2464    9.2975   -8.0621 H   0  0  0  1  0  0  0  0  0  0  0  0
   13.3608    9.4055   -8.8097 C   0  0  0  1  0  0  0  0  0  0  0  0
   12.1400    8.7070   -9.3460 C   0  0  0  1  0  0  0  0  0  0  0  0
   11.2708    9.2251   -8.9981 H   0  0  0  1  0  0  0  0  0  0  0  0
   12.1306    7.7038   -8.9740 H   0  0  0  1  0  0  0  0  0  0  0  0
   13.3854   10.8890   -9.0346 C   0  0  0  1  0  0  0  0  0  0  0  0
   14.3736   11.2604   -8.8602 H   0  0  0  1  0  0  0  0  0  0  0  0
   12.7025   11.3630   -8.3609 H   0  0  0  1  0  0  0  0  0  0  0  0
   13.0976   11.1014  -10.0430 H   0  0  0  1  0  0  0  0  0  0  0  0
   12.0997    8.6602  -10.8648 C   0  0  0  1  0  0  0  0  0  0  0  0
   12.4311    9.6045  -11.2434 H   0  0  0  1  0  0  0  0  0  0  0  0
   11.0902    8.4860  -11.1735 H   0  0  0  1  0  0  0  0  0  0  0  0
   12.9661    7.5856  -11.4410 C   0  0  0  1  0  0  0  0  0  0  0  0
   13.9491    7.5517  -11.1032 H   0  0  0  1  0  0  0  0  0  0  0  0
   12.6128    6.6616  -12.3455 C   0  0  0  1  0  0  0  0  0  0  0  0
   11.2033    6.5218  -12.8551 C   0  0  0  1  0  0  0  0  0  0  0  0
   10.5457    7.0310  -12.1819 H   0  0  0  1  0  0  0  0  0  0  0  0
   10.9523    5.4820  -12.8815 H   0  0  0  1  0  0  0  0  0  0  0  0
   13.6649    5.7272  -12.8731 C   0  0  0  1  0  0  0  0  0  0  0  0
   14.6291    6.1790  -12.7681 H   0  0  0  1  0  0  0  0  0  0  0  0
   13.4765    5.5254  -13.9069 H   0  0  0  1  0  0  0  0  0  0  0  0
   13.6382    4.8116  -12.3199 H   0  0  0  1  0  0  0  0  0  0  0  0
   11.0133    7.1008  -14.2476 C   0  0  0  1  0  0  0  0  0  0  0  0
   10.0124    6.8985  -14.5670 H   0  0  0  1  0  0  0  0  0  0  0  0
   11.7035    6.6238  -14.9118 H   0  0  0  1  0  0  0  0  0  0  0  0
   11.2432    8.5874  -14.3045 C   0  0  0  1  0  0  0  0  0  0  0  0
   11.4495    9.0770  -13.4105 H   0  0  0  1  0  0  0  0  0  0  0  0
   11.2021    9.3207  -15.4118 C   0  0  0  1  0  0  0  0  0  0  0  0
   10.6290    8.8345  -16.7129 C   0  0  0  1  0  0  0  0  0  0  0  0
    9.5865    9.0729  -16.7479 H   0  0  0  1  0  0  0  0  0  0  0  0
   10.7552    7.7739  -16.7773 H   0  0  0  1  0  0  0  0  0  0  0  0
   11.7376   10.7221  -15.4459 C   0  0  0  1  0  0  0  0  0  0  0  0
   11.7589   11.1206  -14.4531 H   0  0  0  1  0  0  0  0  0  0  0  0
   11.1068   11.3299  -16.0604 H   0  0  0  1  0  0  0  0  0  0  0  0
   12.7290   10.7151  -15.8484 H   0  0  0  1  0  0  0  0  0  0  0  0
   11.3305    9.4923  -17.8900 C   0  0  0  1  0  0  0  0  0  0  0  0
   11.2746   10.5541  -17.7697 H   0  0  0  1  0  0  0  0  0  0  0  0
   10.8259    9.2077  -18.7896 H   0  0  0  1  0  0  0  0  0  0  0  0
   12.7650    9.1028  -18.0070 C   0  0  0  1  0  0  0  0  0  0  0  0
   13.3882    9.4787  -17.2640 H   0  0  0  1  0  0  0  0  0  0  0  0
   13.3652    8.3465  -18.9199 C   0  0  0  1  0  0  0  0  0  0  0  0
   14.8368    8.0361  -18.9099 C   0  0  0  1  0  0  0  0  0  0  0  0
   15.2694    8.4651  -18.0303 H   0  0  0  1  0  0  0  0  0  0  0  0
   15.2832    8.4745  -19.7778 H   0  0  0  1  0  0  0  0  0  0  0  0
   12.6011    7.7314  -20.0556 C   0  0  0  1  0  0  0  0  0  0  0  0
   12.4823    6.7004  -19.7951 H   0  0  0  1  0  0  0  0  0  0  0  0
   13.1498    7.8252  -20.9694 H   0  0  0  1  0  0  0  0  0  0  0  0
   11.6463    8.2024  -20.1623 H   0  0  0  1  0  0  0  0  0  0  0  0
   15.1307    6.5448  -18.9155 C   0  0  0  1  0  0  0  0  0  0  0  0
   14.5461    6.0853  -19.6849 H   0  0  0  1  0  0  0  0  0  0  0  0
   14.8526    6.1392  -17.9652 H   0  0  0  1  0  0  0  0  0  0  0  0
   16.5818    6.2307  -19.1643 C   0  0  0  1  0  0  0  0  0  0  0  0
   16.9722    6.4680  -20.0986 H   0  0  0  1  0  0  0  0  0  0  0  0
   17.4018    5.6725  -18.2783 C   0  0  0  1  0  0  0  0  0  0  0  0
   18.8468    5.4791  -18.6359 C   0  0  0  1  0  0  0  0  0  0  0  0
   19.1732    6.2890  -19.2543 H   0  0  0  1  0  0  0  0  0  0  0  0
   18.9625    4.5569  -19.1660 H   0  0  0  1  0  0  0  0  0  0  0  0
   19.4348    5.4537  -17.7423 H   0  0  0  1  0  0  0  0  0  0  0  0
   17.0155    5.1980  -16.9057 C   0  0  0  1  0  0  0  0  0  0  0  0
   16.3610    4.3607  -17.0296 H   0  0  0  1  0  0  0  0  0  0  0  0
   16.5125    5.9802  -16.3765 H   0  0  0  1  0  0  0  0  0  0  0  0
   17.8883    4.9027  -16.3617 H   0  0  0  1  0  0  0  0  0  0  0  0
   16.3195   -5.1631   -1.8147 C   0  0  0  1  0  0  0  0  0  0  0  0
   16.7190   -5.6756   -0.9646 H   0  0  0  1  0  0  0  0  0  0  0  0
   15.0157   -5.8339   -2.2379 C   0  0  0  1  0  0  0  0  0  0  0  0
   15.2196   -6.8325   -2.5636 H   0  0  0  1  0  0  0  0  0  0  0  0
   16.0930   -3.8010   -1.4755 O   0  0  0  1  0  0  0  0  0  0  0  0
   14.3769   -5.0485   -3.3812 C   0  0  0  1  0  0  0  0  0  0  0  0
   13.4051   -5.4499   -3.5798 H   0  0  0  1  0  0  0  0  0  0  0  0
   15.5897   -3.0196   -2.5705 C   0  0  0  1  0  0  0  0  0  0  0  0
   16.2858   -3.0560   -3.3823 H   0  0  0  1  0  0  0  0  0  0  0  0
   14.2427   -3.5807   -3.0307 C   0  0  0  1  0  0  0  0  0  0  0  0
   13.9116   -3.0408   -3.8932 H   0  0  0  1  0  0  0  0  0  0  0  0
   17.2378   -5.2283   -2.8755 O   0  0  0  1  0  0  0  0  0  0  0  0
   14.1181   -5.8685   -1.1268 O   0  0  0  1  0  0  0  0  0  0  0  0
   13.9070   -4.9716   -0.8573 H   0  0  0  1  0  0  0  0  0  0  0  0
   15.1881   -5.1754   -4.5399 O   0  0  0  1  0  0  0  0  0  0  0  0
   14.9210   -4.5226   -5.1912 H   0  0  0  1  0  0  0  0  0  0  0  0
   15.4104   -1.5887   -2.1242 C   0  0  0  1  0  0  0  0  0  0  0  0
   15.1416   -1.5685   -1.0887 H   0  0  0  1  0  0  0  0  0  0  0  0
   14.6361   -1.1294   -2.7025 H   0  0  0  1  0  0  0  0  0  0  0  0
   16.3264   -1.0540   -2.2652 H   0  0  0  1  0  0  0  0  0  0  0  0
   19.5288   -5.9225   -4.5362 C   0  0  0  1  0  0  0  0  0  0  0  0
   19.6209   -5.0666   -3.9007 H   0  0  0  1  0  0  0  0  0  0  0  0
   18.0837   -6.1214   -4.9041 C   0  0  0  1  0  0  0  0  0  0  0  0
   17.9992   -6.9502   -5.5756 H   0  0  0  1  0  0  0  0  0  0  0  0
   20.0014   -7.0689   -3.8555 O   0  0  0  1  0  0  0  0  0  0  0  0
   17.2770   -6.3971   -3.6686 C   0  0  0  1  0  0  0  0  0  0  0  0
   16.2823   -6.6673   -3.9560 H   0  0  0  1  0  0  0  0  0  0  0  0
   19.3405   -7.2361   -2.5885 C   0  0  0  1  0  0  0  0  0  0  0  0
   19.7781   -8.0548   -2.0564 H   0  0  0  1  0  0  0  0  0  0  0  0
   17.8756   -7.5216   -2.8561 C   0  0  0  1  0  0  0  0  0  0  0  0
   17.3539   -7.6046   -1.9256 H   0  0  0  1  0  0  0  0  0  0  0  0
   17.5803   -4.9188   -5.5509 N   0  0  0  1  0  0  0  0  0  0  0  0
   17.1871   -4.2129   -4.9965 H   0  0  0  1  0  0  0  0  0  0  0  0
   17.7561   -8.7426   -3.5786 O   0  0  0  1  0  0  0  0  0  0  0  0
   16.9796   -9.1883   -3.2322 H   0  0  0  1  0  0  0  0  0  0  0  0
   19.4740   -5.9809   -1.7752 C   0  0  0  1  0  0  0  0  0  0  0  0
   18.8518   -6.0514   -0.9076 H   0  0  0  1  0  0  0  0  0  0  0  0
   19.1708   -5.1411   -2.3649 H   0  0  0  1  0  0  0  0  0  0  0  0
   20.8272   -5.8124   -1.3737 O   0  0  0  1  0  0  0  0  0  0  0  0
   20.8966   -4.9849   -0.8920 H   0  0  0  1  0  0  0  0  0  0  0  0
   17.6357   -4.7438   -6.8743 C   0  0  0  1  0  0  0  0  0  0  0  0
   18.2155   -5.5211   -7.6280 O   0  0  0  1  0  0  0  0  0  0  0  0
   16.9310   -3.5108   -7.4057 C   0  0  0  1  0  0  0  0  0  0  0  0
   17.5894   -2.7027   -7.1639 H   0  0  0  1  0  0  0  0  0  0  0  0
   15.9823   -3.3818   -6.9281 H   0  0  0  1  0  0  0  0  0  0  0  0
   16.7914   -3.5814   -8.4642 H   0  0  0  1  0  0  0  0  0  0  0  0
  1  2  1  0  0  0  0
  1  3  1  0  0  0  0
  1  4  1  0  0  0  0
  1 44  1  0  0  0  0
  3 20  1  0  0  0  0
  4  5  1  0  0  0  0
  4  6  1  0  0  0  0
  4  8  1  0  0  0  0
  6  7  1  0  0  0  0
  8  9  1  0  0  0  0
  8 10  1  0  0  0  0
  8 20  1  0  0  0  0
 10 11  1  0  0  0  0
 12 13  1  0  0  0  0
 12 14  1  0  0  0  0
 12 15  1  0  0  0  0
 12 17  1  0  0  0  0
 15 16  1  0  0  0  0
 17 18  1  0  0  0  0
 17 19  1  0  0  0  0
 17 20  1  0  0  0  0
 19 22  1  0  0  0  0
 20 21  1  0  0  0  0
 22 23  1  0  0  0  0
 22 24  1  0  0  0  0
 22 25  1  0  0  0  0
 24 42  1  0  0  0  0
 25 26  1  0  0  0  0
 25 27  1  0  0  0  0
 25 29  1  0  0  0  0
 27 28  1  0  0  0  0
 29 30  1  0  0  0  0
 29 31  1  0  0  0  0
 29 42  1  0  0  0  0
 31 32  1  0  0  0  0
 33 34  1  0  0  0  0
 33 35  1  0  0  0  0
 33 36  1  0  0  0  0
 33 38  1  0  0  0  0
 36 37  1  0  0  0  0
 38 39  1  0  0  0  0
 38 40  1  0  0  0  0
 38 42  1  0  0  0  0
 40 41  1  0  0  0  0
 42 43  1  0  0  0  0
 44194  1  0  0  0  0
 45 46  1  0  0  0  0
 45 54  1  0  0  0  0
 46 47  1  0  0  0  0
 46 48  1  0  0  0  0
 46 49  2  0  0  0  0
 47 50  1  0  0  0  0
 50 51  1  0  0  0  0
 50 52  1  0  0  0  0
 50 53  2  0  0  0  0
 51205  1  0  0  0  0
 54 55  1  0  0  0  0
 54 56  1  0  0  0  0
 54 57  1  0  0  0  0
 57 58  1  0  0  0  0
 57 59  2  0  0  0  0
 59 60  1  0  0  0  0
 59 64  1  0  0  0  0
 60 61  1  0  0  0  0
 60 62  1  0  0  0  0
 60 63  1  0  0  0  0
 64 65  1  0  0  0  0
 64 66  1  0  0  0  0
 64 67  1  0  0  0  0
 67 68  1  0  0  0  0
 67 69  1  0  0  0  0
 67 70  1  0  0  0  0
 70 71  1  0  0  0  0
 70 72  2  0  0  0  0
 72 73  1  0  0  0  0
 72 77  1  0  0  0  0
 73 74  1  0  0  0  0
 73 75  1  0  0  0  0
 73 76  1  0  0  0  0
 77 78  1  0  0  0  0
 77 79  1  0  0  0  0
 77 80  1  0  0  0  0
 80 81  1  0  0  0  0
 80 82  1  0  0  0  0
 80 83  1  0  0  0  0
 83 84  1  0  0  0  0
 83 85  2  0  0  0  0
 85 86  1  0  0  0  0
 85 89  1  0  0  0  0
 86 87  1  0  0  0  0
 86 88  1  0  0  0  0
 86 93  1  0  0  0  0
 89 90  1  0  0  0  0
 89 91  1  0  0  0  0
 89 92  1  0  0  0  0
 93 94  1  0  0  0  0
 93 95  1  0  0  0  0
 93 96  1  0  0  0  0
 96 97  1  0  0  0  0
 96 98  2  0  0  0  0
 98 99  1  0  0  0  0
 98102  1  0  0  0  0
 99100  1  0  0  0  0
 99101  1  0  0  0  0
 99106  1  0  0  0  0
102103  1  0  0  0  0
102104  1  0  0  0  0
102105  1  0  0  0  0
106107  1  0  0  0  0
106108  1  0  0  0  0
106109  1  0  0  0  0
109110  1  0  0  0  0
109111  2  0  0  0  0
111112  1  0  0  0  0
111115  1  0  0  0  0
112113  1  0  0  0  0
112114  1  0  0  0  0
112119  1  0  0  0  0
115116  1  0  0  0  0
115117  1  0  0  0  0
115118  1  0  0  0  0
119120  1  0  0  0  0
119121  1  0  0  0  0
119122  1  0  0  0  0
122123  1  0  0  0  0
122124  2  0  0  0  0
124125  1  0  0  0  0
124128  1  0  0  0  0
125126  1  0  0  0  0
125127  1  0  0  0  0
125132  1  0  0  0  0
128129  1  0  0  0  0
128130  1  0  0  0  0
128131  1  0  0  0  0
132133  1  0  0  0  0
132134  1  0  0  0  0
132135  1  0  0  0  0
135136  1  0  0  0  0
135137  2  0  0  0  0
137138  1  0  0  0  0
137141  1  0  0  0  0
138139  1  0  0  0  0
138140  1  0  0  0  0
138145  1  0  0  0  0
141142  1  0  0  0  0
141143  1  0  0  0  0
141144  1  0  0  0  0
145146  1  0  0  0  0
145147  1  0  0  0  0
145148  1  0  0  0  0
148149  1  0  0  0  0
148150  2  0  0  0  0
150151  1  0  0  0  0
150154  1  0  0  0  0
151152  1  0  0  0  0
151153  1  0  0  0  0
151158  1  0  0  0  0
154155  1  0  0  0  0
154156  1  0  0  0  0
154157  1  0  0  0  0
158159  1  0  0  0  0
158160  1  0  0  0  0
158161  1  0  0  0  0
161162  1  0  0  0  0
161163  2  0  0  0  0
163164  1  0  0  0  0
163167  1  0  0  0  0
164165  1  0  0  0  0
164166  1  0  0  0  0
164171  1  0  0  0  0
167168  1  0  0  0  0
167169  1  0  0  0  0
167170  1  0  0  0  0
171172  1  0  0  0  0
171173  1  0  0  0  0
171174  1  0  0  0  0
174175  1  0  0  0  0
174176  2  0  0  0  0
176177  1  0  0  0  0
176181  1  0  0  0  0
177178  1  0  0  0  0
177179  1  0  0  0  0
177180  1  0  0  0  0
181182  1  0  0  0  0
181183  1  0  0  0  0
181184  1  0  0  0  0
185186  1  0  0  0  0
185187  1  0  0  0  0
185189  1  0  0  0  0
185196  1  0  0  0  0
187188  1  0  0  0  0
187190  1  0  0  0  0
187197  1  0  0  0  0
189192  1  0  0  0  0
190191  1  0  0  0  0
190194  1  0  0  0  0
190199  1  0  0  0  0
192193  1  0  0  0  0
192194  1  0  0  0  0
192201  1  0  0  0  0
194195  1  0  0  0  0
196210  1  0  0  0  0
197198  1  0  0  0  0
199200  1  0  0  0  0
201202  1  0  0  0  0
201203  1  0  0  0  0
201204  1  0  0  0  0
205206  1  0  0  0  0
205207  1  0  0  0  0
205209  1  0  0  0  0
207208  1  0  0  0  0
207210  1  0  0  0  0
207216  1  0  0  0  0
209212  1  0  0  0  0
210211  1  0  0  0  0
210214  1  0  0  0  0
212213  1  0  0  0  0
212214  1  0  0  0  0
212220  1  0  0  0  0
214215  1  0  0  0  0
214218  1  0  0  0  0
216217  1  0  0  0  0
216225  1  0  0  0  0
218219  1  0  0  0  0
220221  1  0  0  0  0
220222  1  0  0  0  0
220223  1  0  0  0  0
223224  1  0  0  0  0
225226  2  0  0  0  0
225227  1  0  0  0  0
227228  1  0  0  0  0
227229  1  0  0  0  0
227230  1  0  0  0  0
M  BCL ATM C_TeTeTeTe H_S O_Te2Te2TeTe C_TeTeTeTe H_S O_Te2Te2TeTe H_S C_TeTeTeTe H_S O_Te2Te2TeTe H_S C_TeTeTeTe H_S H_S O_Te2Te2TeTe H_S C_TeTeTeTe H_S O_Te2Te2TeTe C_TeTeTeTe H_S C_TeTeTeTe H_S O_Te2Te2TeTe C_TeTeTeTe H_S O_Te2Te2TeTe H_S C_TeTeTeTe H_S O_Te2Te2TeTe H_S C_TeTeTeTe H_S H_S O_Te2Te2TeTe H_S C_TeTeTeTe H_S O_Te2Te2TeTe H_S C_TeTeTeTe H_S O_Te2Te2TeTe O_Tr2TrTrPi2 P_TeTeTeTePi O_Tr2TrTrPi2 O_Te2Te2TeTe O_Tr2Tr2TrPi P_TeTeTeTePi O_Tr2TrTrPi2 O_Te2Te2TeTe O_Tr2Tr2TrPi C_TeTeTeTe H_S H_S C_TrTrTrPi H_S C_TrTrTrPi C_TeTeTeTe H_S H_S H_S C_TeTeTeTe H_S H_S C_TeTeTeTe H_S H_S C_TrTrTrPi H_S C_TrTrTrPi C_TeTeTeTe H_S H_S H_S C_TeTeTeTe H_S H_S C_TeTeTeTe H_S H_S C_TrTrTrPi H_S C_TrTrTrPi C_TeTeTeTe H_S H_S C_TeTeTeTe H_S H_S H_S C_TeTeTeTe H_S H_S C_TrTrTrPi H_S C_TrTrTrPi C_TeTeTeTe H_S H_S C_TeTeTeTe H_S H_S H_S C_TeTeTeTe H_S H_S C_TrTrTrPi H_S C_TrTrTrPi C_TeTeTeTe H_S H_S C_TeTeTeTe H_S H_S H_S C_TeTeTeTe H_S H_S C_TrTrTrPi H_S C_TrTrTrPi C_TeTeTeTe H_S H_S C_TeTeTeTe H_S H_S H_S C_TeTeTeTe H_S H_S C_TrTrTrPi H_S C_TrTrTrPi C_TeTeTeTe H_S H_S C_TeTeTeTe H_S H_S H_S C_TeTeTeTe H_S H_S C_TrTrTrPi H_S C_TrTrTrPi C_TeTeTeTe H_S H_S C_TeTeTeTe H_S H_S H_S C_TeTeTeTe H_S H_S C_TrTrTrPi H_S C_TrTrTrPi C_TeTeTeTe H_S H_S C_TeTeTeTe H_S H_S H_S C_TeTeTeTe H_S H_S C_TrTrTrPi H_S C_TrTrTrPi C_TeTeTeTe H_S H_S H_S C_TeTeTeTe H_S H_S H_S C_TeTeTeTe H_S C_TeTeTeTe H_S O_Te2Te2TeTe C_TeTeTeTe H_S C_TeTeTeTe H_S C_TeTeTeTe H_S O_Te2Te2TeTe O_Te2Te2TeTe H_S O_Te2Te2TeTe H_S C_TeTeTeTe H_S H_S H_S C_TeTeTeTe H_S C_TeTeTeTe H_S O_Te2Te2TeTe C_TeTeTeTe H_S C_TeTeTeTe H_S C_TeTeTeTe H_S N_TrTrTrPi2 H_S O_Te2Te2TeTe H_S C_TeTeTeTe H_S H_S O_Te2Te2TeTe H_S C_TrTrTrPi O_Tr2Tr2TrPi C_TeTeTeTe H_S H_S H_S
M  BCL BND NonConjugatedSingleBond NonConjugatedSingleBondInRing NonConjugatedSingleBondInRing NonConjugatedSingleBond NonConjugatedSingleBondInRing NonConjugatedSingleBond NonConjugatedSingleBond NonConjugatedSingleBondInRing NonConjugatedSingleBond NonConjugatedSingleBond NonConjugatedSingleBond NonConjugatedSingleBondInRing NonConjugatedSingleBond NonConjugatedSingleBond NonConjugatedSingleBond NonConjugatedSingleBond NonConjugatedSingleBond NonConjugatedSingleBond NonConjugatedSingleBond NonConjugatedSingleBond NonConjugatedSingleBond NonConjugatedSingleBond NonConjugatedSingleBond NonConjugatedSingleBond NonConjugatedSingleBondInRing NonConjugatedSingleBondInRing NonConjugatedSingleBondInRing NonConjugatedSingleBond NonConjugatedSingleBond NonConjugatedSingleBondInRing NonConjugatedSingleBond NonConjugatedSingleBond NonConjugatedSingleBond NonConjugatedSingleBondInRing NonConjugatedSingleBond NonConjugatedSingleBond NonConjugatedSingleBond NonConjugatedSingleBond NonConjugatedSingleBond NonConjugatedSingleBond NonConjugatedSingleBond NonConjugatedSingleBond NonConjugatedSingleBond NonConjugatedSingleBond NonConjugatedSingleBond NonConjugatedSingleBond ConjugatedSingleBond NonConjugatedSingleBond ConjugatedSingleBond ConjugatedSingleBond ConjugatedDoubleBond ConjugatedSingleBond ConjugatedSingleBond ConjugatedSingleBond ConjugatedDoubleBond NonConjugatedSingleBond NonConjugatedSingleBond NonConjugatedSingleBond NonConjugatedSingleBond NonConjugatedSingleBond ConjugatedDoubleBond NonConjugatedSingleBond NonConjugatedSingleBond NonConjugatedSingleBond NonConjugatedSingleBond NonConjugatedSingleBond NonConjugatedSingleBond NonConjugatedSingleBond NonConjugatedSingleBond NonConjugatedSingleBond NonConjugatedSingleBond NonConjugatedSingleBond NonConjugatedSingleBond ConjugatedDoubleBond NonConjugatedSingleBond NonConjugatedSingleBond NonConjugatedSingleBond NonConjugatedSingleBond NonConjugatedSingleBond NonConjugatedSingleBond NonConjugatedSingleBond NonConjugatedSingleBond NonConjugatedSingleBond NonConjugatedSingleBond NonConjugatedSingleBond NonConjugatedSingleBond ConjugatedDoubleBond NonConjugatedSingleBond NonConjugatedSingleBond NonConjugatedSingleBond NonConjugatedSingleBond NonConjugatedSingleBond NonConjugatedSingleBond NonConjugatedSingleBond NonConjugatedSingleBond NonConjugatedSingleBond NonConjugatedSingleBond NonConjugatedSingleBond NonConjugatedSingleBond ConjugatedDoubleBond NonConjugatedSingleBond NonConjugatedSingleBond NonConjugatedSingleBond NonConjugatedSingleBond NonConjugatedSingleBond NonConjugatedSingleBond NonConjugatedSingleBond NonConjugatedSingleBond NonConjugatedSingleBond NonConjugatedSingleBond NonConjugatedSingleBond NonConjugatedSingleBond ConjugatedDoubleBond NonConjugatedSingleBond NonConjugatedSingleBond NonConjugatedSingleBond NonConjugatedSingleBond NonConjugatedSingleBond NonConjugatedSingleBond NonConjugatedSingleBond NonConjugatedSingleBond NonConjugatedSingleBond NonConjugatedSingleBond NonConjugatedSingleBond NonConjugatedSingleBond ConjugatedDoubleBond NonConjugatedSingleBond NonConjugatedSingleBond NonConjugatedSingleBond NonConjugatedSingleBond NonConjugatedSingleBond NonConjugatedSingleBond NonConjugatedSingleBond NonConjugatedSingleBond NonConjugatedSingleBond NonConjugatedSingleBond NonConjugatedSingleBond NonConjugatedSingleBond ConjugatedDoubleBond NonConjugatedSingleBond NonConjugatedSingleBond NonConjugatedSingleBond NonConjugatedSingleBond NonConjugatedSingleBond NonConjugatedSingleBond NonConjugatedSingleBond NonConjugatedSingleBond NonConjugatedSingleBond NonConjugatedSingleBond NonConjugatedSingleBond NonConjugatedSingleBond ConjugatedDoubleBond NonConjugatedSingleBond NonConjugatedSingleBond NonConjugatedSingleBond NonConjugatedSingleBond NonConjugatedSingleBond NonConjugatedSingleBond NonConjugatedSingleBond NonConjugatedSingleBond NonConjugatedSingleBond NonConjugatedSingleBond NonConjugatedSingleBond NonConjugatedSingleBond ConjugatedDoubleBond NonConjugatedSingleBond NonConjugatedSingleBond NonConjugatedSingleBond NonConjugatedSingleBond NonConjugatedSingleBond NonConjugatedSingleBond NonConjugatedSingleBond NonConjugatedSingleBond NonConjugatedSingleBond NonConjugatedSingleBond NonConjugatedSingleBond NonConjugatedSingleBond ConjugatedDoubleBond NonConjugatedSingleBond NonConjugatedSingleBond NonConjugatedSingleBond NonConjugatedSingleBond NonConjugatedSingleBond NonConjugatedSingleBond NonConjugatedSingleBond NonConjugatedSingleBond NonConjugatedSingleBond NonConjugatedSingleBondInRing NonConjugatedSingleBondInRing NonConjugatedSingleBond NonConjugatedSingleBond NonConjugatedSingleBondInRing NonConjugatedSingleBond NonConjugatedSingleBondInRing NonConjugatedSingleBond NonConjugatedSingleBondInRing NonConjugatedSingleBond NonConjugatedSingleBond NonConjugatedSingleBondInRing NonConjugatedSingleBond NonConjugatedSingleBond NonConjugatedSingleBond NonConjugatedSingleBond NonConjugatedSingleBond NonConjugatedSingleBond NonConjugatedSingleBond NonConjugatedSingleBond NonConjugatedSingleBond NonConjugatedSingleBondInRing NonConjugatedSingleBondInRing NonConjugatedSingleBond NonConjugatedSingleBondInRing NonConjugatedSingleBond NonConjugatedSingleBondInRing NonConjugatedSingleBond NonConjugatedSingleBondInRing NonConjugatedSingleBond NonConjugatedSingleBondInRing NonConjugatedSingleBond NonConjugatedSingleBond NonConjugatedSingleBond NonConjugatedSingleBond AmideSingleBond NonConjugatedSingleBond NonConjugatedSingleBond NonConjugatedSingleBond NonConjugatedSingleBond NonConjugatedSingleBond ConjugatedDoubleBond NonConjugatedSingleBond NonConjugatedSingleBond NonConjugatedSingleBond NonConjugatedSingleBond
M  BCL CHI   1   R   4   R   8   R  17   S  20   R  22   S  25   R  29   S  38   S  42   R  46   R  50   S 185   R 187   S 190   S 192   R 194   R 205   R 207   S 210   R 212   S 214   S
M  BCL DBI - - E E E E E E E E Z - -
M  END
> <ConfClashScore>
0.00235573 

> <ConfOneFourInteractionScore>
-0.960845 

> <ConfScore>
0.3776 

> <ConfScorePBest>
0.0136565 

> <ConfTolerance>
2.71913 

$$$$
L05.****
  PyMOL2.5          3D                             0

230233  0  0  0  0  0  0  0  0999 V2000
   12.0829   -2.7644   -2.9424 C   0  0  0  1  0  0  0  0  0  0  0  0
   11.5997   -3.6320   -3.3405 H   0  0  0  1  0  0  0  0  0  0  0  0
   12.3895   -1.8302   -3.9937 O   0  0  0  1  0  0  0  0  0  0  0  0
   11.1543   -2.0208   -2.0118 C   0  0  0  1  0  0  0  0  0  0  0  0
   11.2276   -2.3942   -1.0117 H   0  0  0  1  0  0  0  0  0  0  0  0
    9.8128   -2.1071   -2.4507 O   0  0  0  1  0  0  0  0  0  0  0  0
    9.5229   -1.2480   -2.7661 H   0  0  0  1  0  0  0  0  0  0  0  0
   11.6699   -0.6059   -2.1058 C   0  0  0  1  0  0  0  0  0  0  0  0
   10.8956    0.0990   -1.8853 H   0  0  0  1  0  0  0  0  0  0  0  0
   12.7680   -0.4020   -1.2154 O   0  0  0  1  0  0  0  0  0  0  0  0
   13.3475    0.2758   -1.5712 H   0  0  0  1  0  0  0  0  0  0  0  0
   10.0449   -0.9080   -4.9492 C   0  0  0  1  0  0  0  0  0  0  0  0
   10.3982   -1.8924   -4.7230 H   0  0  0  1  0  0  0  0  0  0  0  0
    9.0731   -0.7706   -4.5229 H   0  0  0  1  0  0  0  0  0  0  0  0
    9.9871   -0.7250   -6.3577 O   0  0  0  1  0  0  0  0  0  0  0  0
    9.7167    0.1751   -6.5530 H   0  0  0  1  0  0  0  0  0  0  0  0
   11.0075    0.1298   -4.3928 C   0  0  0  1  0  0  0  0  0  0  0  0
   10.4556    0.8133   -3.7819 H   0  0  0  1  0  0  0  0  0  0  0  0
   11.5627    0.8171   -5.5081 O   0  0  0  1  0  0  0  0  0  0  0  0
   12.1137   -0.4892   -3.5488 C   0  0  0  1  0  0  0  0  0  0  0  0
   12.9953    0.1132   -3.6180 H   0  0  0  1  0  0  0  0  0  0  0  0
   12.1006    2.0892   -5.2520 C   0  0  0  1  0  0  0  0  0  0  0  0
   11.3398    2.7240   -4.8482 H   0  0  0  1  0  0  0  0  0  0  0  0
   13.1758    1.9808   -4.3315 O   0  0  0  1  0  0  0  0  0  0  0  0
   12.6074    2.6497   -6.4560 C   0  0  0  1  0  0  0  0  0  0  0  0
   12.1065    3.5716   -6.6664 H   0  0  0  1  0  0  0  0  0  0  0  0
   12.4046    1.7392   -7.5377 O   0  0  0  1  0  0  0  0  0  0  0  0
   12.2537    2.2321   -8.3475 H   0  0  0  1  0  0  0  0  0  0  0  0
   13.9965    2.8856   -6.2785 C   0  0  0  1  0  0  0  0  0  0  0  0
   14.2059    3.9280   -6.3990 H   0  0  0  1  0  0  0  0  0  0  0  0
   14.7399    2.1373   -7.2361 O   0  0  0  1  0  0  0  0  0  0  0  0
   14.5602    1.2013   -7.1210 H   0  0  0  1  0  0  0  0  0  0  0  0
   16.0534    4.4368   -4.8698 C   0  0  0  1  0  0  0  0  0  0  0  0
   16.9917    4.1194   -4.4651 H   0  0  0  1  0  0  0  0  0  0  0  0
   16.0294    4.2315   -5.9196 H   0  0  0  1  0  0  0  0  0  0  0  0
   15.8958    5.8324   -4.6579 O   0  0  0  1  0  0  0  0  0  0  0  0
   16.1139    6.3055   -5.4642 H   0  0  0  1  0  0  0  0  0  0  0  0
   14.9102    3.6736   -4.1723 C   0  0  0  1  0  0  0  0  0  0  0  0
   14.1081    4.3619   -4.0054 H   0  0  0  1  0  0  0  0  0  0  0  0
   15.4037    3.2057   -2.9156 O   0  0  0  1  0  0  0  0  0  0  0  0
   14.8000    2.5504   -2.5581 H   0  0  0  1  0  0  0  0  0  0  0  0
   14.3477    2.4726   -4.9670 C   0  0  0  1  0  0  0  0  0  0  0  0
   15.0856    1.6993   -5.0157 H   0  0  0  1  0  0  0  0  0  0  0  0
   13.2695   -3.1531   -2.2582 O   0  0  0  1  0  0  0  0  0  0  0  0
   20.2579   -7.4015   -7.3193 O   0  0  0  1  0  0  0  0  0  0  0  0
   21.3313   -6.3474   -7.4179 P   0  0  0  1  0  0  0  0  0  0  0  0
   21.8214   -5.9122   -5.9511 O   0  0  0  1  0  0  0  0  0  0  0  0
   20.7887   -5.0349   -8.0656 O   0  0  0  0  0  0  0  0  0  0  0  0
   22.5710   -6.7868   -8.1416 O   0  0  0  1  0  0  0  0  0  0  0  0
   22.0947   -6.7452   -4.6103 P   0  0  0  1  0  0  0  0  0  0  0  0
   20.5902   -7.1201   -4.3419 O   0  0  0  1  0  0  0  0  0  0  0  0
   22.5851   -5.8733   -3.5270 O   0  0  0  0  0  0  0  0  0  0  0  0
   22.8492   -7.9676   -4.9432 O   0  0  0  1  0  0  0  0  0  0  0  0
   20.4282   -8.6308   -6.5965 C   0  0  0  1  0  0  0  0  0  0  0  0
   19.6710   -8.7263   -5.8465 H   0  0  0  1  0  0  0  0  0  0  0  0
   21.3932   -8.6574   -6.1351 H   0  0  0  1  0  0  0  0  0  0  0  0
   20.3040   -9.7376   -7.6018 C   0  0  0  1  0  0  0  0  0  0  0  0
   19.3393  -10.0580   -7.8217 H   0  0  0  1  0  0  0  0  0  0  0  0
   21.2928  -10.3528   -8.2416 C   0  0  0  1  0  0  0  0  0  0  0  0
   21.1274  -11.6488   -8.9808 C   0  0  0  1  0  0  0  0  0  0  0  0
   20.1401  -11.7032   -9.3898 H   0  0  0  1  0  0  0  0  0  0  0  0
   21.2794  -12.4656   -8.3066 H   0  0  0  1  0  0  0  0  0  0  0  0
   21.8447  -11.7013   -9.7730 H   0  0  0  1  0  0  0  0  0  0  0  0
   22.6832   -9.7834   -8.2735 C   0  0  0  1  0  0  0  0  0  0  0  0
   22.6242   -8.7305   -8.0925 H   0  0  0  1  0  0  0  0  0  0  0  0
   23.0998   -9.9563   -9.2437 H   0  0  0  1  0  0  0  0  0  0  0  0
   23.6039  -10.4021   -7.2343 C   0  0  0  1  0  0  0  0  0  0  0  0
   23.1175  -10.3395   -6.2833 H   0  0  0  1  0  0  0  0  0  0  0  0
   24.5077   -9.8298   -7.2115 H   0  0  0  1  0  0  0  0  0  0  0  0
   23.9696  -11.8328   -7.4722 C   0  0  0  1  0  0  0  0  0  0  0  0
   23.1950  -12.5054   -7.6431 H   0  0  0  1  0  0  0  0  0  0  0  0
   25.2092  -12.3080   -7.4816 C   0  0  0  1  0  0  0  0  0  0  0  0
   25.4858  -13.7625   -7.7294 C   0  0  0  1  0  0  0  0  0  0  0  0
   25.4543  -14.2951   -6.8019 H   0  0  0  1  0  0  0  0  0  0  0  0
   26.4548  -13.8710   -8.1700 H   0  0  0  1  0  0  0  0  0  0  0  0
   24.7454  -14.1581   -8.3929 H   0  0  0  1  0  0  0  0  0  0  0  0
   26.4303  -11.4670   -7.2523 C   0  0  0  1  0  0  0  0  0  0  0  0
   26.2938  -10.9071   -6.3507 H   0  0  0  1  0  0  0  0  0  0  0  0
   26.5404  -10.7945   -8.0771 H   0  0  0  1  0  0  0  0  0  0  0  0
   27.7031  -12.2879   -7.1240 C   0  0  0  1  0  0  0  0  0  0  0  0
   27.8505  -12.8321   -8.0334 H   0  0  0  1  0  0  0  0  0  0  0  0
   27.5851  -12.9745   -6.3119 H   0  0  0  1  0  0  0  0  0  0  0  0
   28.9146  -11.4527   -6.8681 C   0  0  0  1  0  0  0  0  0  0  0  0
   29.1950  -10.7551   -7.5867 H   0  0  0  1  0  0  0  0  0  0  0  0
   29.6518  -11.5570   -5.7676 C   0  0  0  1  0  0  0  0  0  0  0  0
   29.1985  -12.2712   -4.5241 C   0  0  0  1  0  0  0  0  0  0  0  0
   30.0041  -12.8782   -4.1671 H   0  0  0  1  0  0  0  0  0  0  0  0
   28.3653  -12.8944   -4.7738 H   0  0  0  1  0  0  0  0  0  0  0  0
   31.0241  -10.9556   -5.6817 C   0  0  0  1  0  0  0  0  0  0  0  0
   31.7393  -11.7253   -5.4794 H   0  0  0  1  0  0  0  0  0  0  0  0
   31.0472  -10.2316   -4.8942 H   0  0  0  1  0  0  0  0  0  0  0  0
   31.2640  -10.4812   -6.6102 H   0  0  0  1  0  0  0  0  0  0  0  0
   28.7777  -11.3233   -3.4129 C   0  0  0  1  0  0  0  0  0  0  0  0
   29.5334  -10.5770   -3.2835 H   0  0  0  1  0  0  0  0  0  0  0  0
   28.6630  -11.8768   -2.5043 H   0  0  0  1  0  0  0  0  0  0  0  0
   27.4744  -10.6523   -3.7494 C   0  0  0  1  0  0  0  0  0  0  0  0
   26.6159  -11.2393   -3.7458 H   0  0  0  1  0  0  0  0  0  0  0  0
   27.3379   -9.3642   -4.0512 C   0  0  0  1  0  0  0  0  0  0  0  0
   28.5555   -8.4792   -4.0677 C   0  0  0  1  0  0  0  0  0  0  0  0
   28.2820   -7.5314   -4.4822 H   0  0  0  1  0  0  0  0  0  0  0  0
   29.3009   -8.9369   -4.6841 H   0  0  0  1  0  0  0  0  0  0  0  0
   26.0474   -8.6779   -4.3893 C   0  0  0  1  0  0  0  0  0  0  0  0
   25.4093   -8.6738   -3.5304 H   0  0  0  1  0  0  0  0  0  0  0  0
   25.5650   -9.1998   -5.1892 H   0  0  0  1  0  0  0  0  0  0  0  0
   26.2474   -7.6705   -4.6895 H   0  0  0  1  0  0  0  0  0  0  0  0
   29.1444   -8.2509   -2.6852 C   0  0  0  1  0  0  0  0  0  0  0  0
   29.9986   -7.6134   -2.7799 H   0  0  0  1  0  0  0  0  0  0  0  0
   29.4465   -9.1954   -2.2834 H   0  0  0  1  0  0  0  0  0  0  0  0
   28.1839   -7.6188   -1.7392 C   0  0  0  1  0  0  0  0  0  0  0  0
   27.2977   -8.1110   -1.5071 H   0  0  0  1  0  0  0  0  0  0  0  0
   28.4378   -6.4377   -1.1860 C   0  0  0  1  0  0  0  0  0  0  0  0
   29.8054   -5.8224   -1.2523 C   0  0  0  1  0  0  0  0  0  0  0  0
   30.5146   -6.5731   -1.5321 H   0  0  0  1  0  0  0  0  0  0  0  0
   30.0609   -5.4306   -0.2899 H   0  0  0  1  0  0  0  0  0  0  0  0
   27.4145   -5.6167   -0.4572 C   0  0  0  1  0  0  0  0  0  0  0  0
   27.4341   -4.6124   -0.8256 H   0  0  0  1  0  0  0  0  0  0  0  0
   27.6371   -5.6169    0.5894 H   0  0  0  1  0  0  0  0  0  0  0  0
   26.4428   -6.0357   -0.6157 H   0  0  0  1  0  0  0  0  0  0  0  0
   29.8413   -4.6974   -2.2739 C   0  0  0  1  0  0  0  0  0  0  0  0
   28.9544   -4.1115   -2.1509 H   0  0  0  1  0  0  0  0  0  0  0  0
   29.8463   -5.1373   -3.2492 H   0  0  0  1  0  0  0  0  0  0  0  0
   31.0181   -3.7795   -2.1756 C   0  0  0  1  0  0  0  0  0  0  0  0
   31.0435   -3.1812   -1.3253 H   0  0  0  1  0  0  0  0  0  0  0  0
   32.0359   -3.6151   -3.0138 C   0  0  0  1  0  0  0  0  0  0  0  0
   32.0415   -4.1225   -4.4281 C   0  0  0  1  0  0  0  0  0  0  0  0
   31.1346   -4.6709   -4.5750 H   0  0  0  1  0  0  0  0  0  0  0  0
   32.8780   -4.7820   -4.5283 H   0  0  0  1  0  0  0  0  0  0  0  0
   33.2851   -2.8935   -2.6003 C   0  0  0  1  0  0  0  0  0  0  0  0
   33.2332   -1.8752   -2.9246 H   0  0  0  1  0  0  0  0  0  0  0  0
   34.1345   -3.3669   -3.0468 H   0  0  0  1  0  0  0  0  0  0  0  0
   33.3782   -2.9240   -1.5348 H   0  0  0  1  0  0  0  0  0  0  0  0
   32.1369   -3.0942   -5.5434 C   0  0  0  1  0  0  0  0  0  0  0  0
   33.1656   -2.8324   -5.6781 H   0  0  0  1  0  0  0  0  0  0  0  0
   31.5823   -2.2259   -5.2544 H   0  0  0  1  0  0  0  0  0  0  0  0
   31.5941   -3.5948   -6.8551 C   0  0  0  1  0  0  0  0  0  0  0  0
   31.9904   -4.4884   -7.2100 H   0  0  0  1  0  0  0  0  0  0  0  0
   30.6555   -3.0140   -7.6151 C   0  0  0  1  0  0  0  0  0  0  0  0
   30.2909   -1.5787   -7.3449 C   0  0  0  1  0  0  0  0  0  0  0  0
   30.3570   -1.0224   -8.2565 H   0  0  0  1  0  0  0  0  0  0  0  0
   30.9736   -1.1723   -6.6281 H   0  0  0  1  0  0  0  0  0  0  0  0
   29.9611   -3.7278   -8.7118 C   0  0  0  1  0  0  0  0  0  0  0  0
   30.2725   -4.7514   -8.7252 H   0  0  0  1  0  0  0  0  0  0  0  0
   30.2055   -3.2687   -9.6469 H   0  0  0  1  0  0  0  0  0  0  0  0
   28.9037   -3.6790   -8.5555 H   0  0  0  1  0  0  0  0  0  0  0  0
   28.8759   -1.4756   -6.7995 C   0  0  0  1  0  0  0  0  0  0  0  0
   28.2047   -1.9121   -7.5094 H   0  0  0  1  0  0  0  0  0  0  0  0
   28.6354   -0.4410   -6.6700 H   0  0  0  1  0  0  0  0  0  0  0  0
   28.7039   -2.1617   -5.5088 C   0  0  0  1  0  0  0  0  0  0  0  0
   29.5015   -2.6544   -5.0584 H   0  0  0  1  0  0  0  0  0  0  0  0
   27.5082   -2.1379   -4.9321 C   0  0  0  1  0  0  0  0  0  0  0  0
   26.4352   -1.1884   -5.3938 C   0  0  0  1  0  0  0  0  0  0  0  0
   25.5014   -1.5271   -4.9963 H   0  0  0  1  0  0  0  0  0  0  0  0
   26.4018   -1.2226   -6.4628 H   0  0  0  1  0  0  0  0  0  0  0  0
   27.1100   -3.0292   -3.7911 C   0  0  0  1  0  0  0  0  0  0  0  0
   26.8475   -2.4299   -2.9445 H   0  0  0  1  0  0  0  0  0  0  0  0
   27.9292   -3.6682   -3.5353 H   0  0  0  1  0  0  0  0  0  0  0  0
   26.2694   -3.6247   -4.0806 H   0  0  0  1  0  0  0  0  0  0  0  0
   26.6243    0.2610   -4.9768 C   0  0  0  1  0  0  0  0  0  0  0  0
   26.6759    0.3042   -3.9090 H   0  0  0  1  0  0  0  0  0  0  0  0
   25.7816    0.8259   -5.3168 H   0  0  0  1  0  0  0  0  0  0  0  0
   27.8750    0.8789   -5.5424 C   0  0  0  1  0  0  0  0  0  0  0  0
   28.7715    0.4049   -5.3117 H   0  0  0  1  0  0  0  0  0  0  0  0
   27.9578    1.9635   -6.3037 C   0  0  0  1  0  0  0  0  0  0  0  0
   29.2810    2.4698   -6.7999 C   0  0  0  1  0  0  0  0  0  0  0  0
   29.5307    1.9459   -7.6988 H   0  0  0  1  0  0  0  0  0  0  0  0
   30.0225    2.2728   -6.0540 H   0  0  0  1  0  0  0  0  0  0  0  0
   26.7707    2.7766   -6.7374 C   0  0  0  1  0  0  0  0  0  0  0  0
   26.9664    3.0486   -7.7536 H   0  0  0  1  0  0  0  0  0  0  0  0
   26.6739    3.6510   -6.1284 H   0  0  0  1  0  0  0  0  0  0  0  0
   25.8751    2.1947   -6.6720 H   0  0  0  1  0  0  0  0  0  0  0  0
   29.2755    3.9609   -7.0946 C   0  0  0  1  0  0  0  0  0  0  0  0
   29.0134    4.4841   -6.1988 H   0  0  0  1  0  0  0  0  0  0  0  0
   28.5429    4.1561   -7.8496 H   0  0  0  1  0  0  0  0  0  0  0  0
   30.6072    4.4719   -7.5756 C   0  0  0  1  0  0  0  0  0  0  0  0
   31.0244    3.9815   -8.3924 H   0  0  0  1  0  0  0  0  0  0  0  0
   31.3069    5.4807   -7.0704 C   0  0  0  1  0  0  0  0  0  0  0  0
   30.7752    6.3094   -5.9374 C   0  0  0  1  0  0  0  0  0  0  0  0
   31.0534    5.8618   -5.0062 H   0  0  0  1  0  0  0  0  0  0  0  0
   29.7084    6.3609   -6.0035 H   0  0  0  1  0  0  0  0  0  0  0  0
   31.1846    7.2963   -5.9949 H   0  0  0  1  0  0  0  0  0  0  0  0
   32.6723    5.8909   -7.5663 C   0  0  0  1  0  0  0  0  0  0  0  0
   32.9927    6.7200   -6.9707 H   0  0  0  1  0  0  0  0  0  0  0  0
   32.6163    6.1796   -8.5951 H   0  0  0  1  0  0  0  0  0  0  0  0
   33.3594    5.0775   -7.4605 H   0  0  0  1  0  0  0  0  0  0  0  0
   16.0776   -5.1175   -1.7518 C   0  0  0  1  0  0  0  0  0  0  0  0
   16.3349   -5.6905   -0.8855 H   0  0  0  1  0  0  0  0  0  0  0  0
   14.8145   -5.6766   -2.3518 C   0  0  0  1  0  0  0  0  0  0  0  0
   14.9919   -6.6809   -2.6753 H   0  0  0  1  0  0  0  0  0  0  0  0
   15.9131   -3.7587   -1.3750 O   0  0  0  1  0  0  0  0  0  0  0  0
   14.3828   -4.8426   -3.5319 C   0  0  0  1  0  0  0  0  0  0  0  0
   13.4048   -5.1485   -3.8398 H   0  0  0  1  0  0  0  0  0  0  0  0
   15.6448   -2.9310   -2.5041 C   0  0  0  1  0  0  0  0  0  0  0  0
   16.4493   -3.0119   -3.2048 H   0  0  0  1  0  0  0  0  0  0  0  0
   14.3519   -3.3785   -3.1639 C   0  0  0  1  0  0  0  0  0  0  0  0
   14.2001   -2.8021   -4.0525 H   0  0  0  1  0  0  0  0  0  0  0  0
   17.1254   -5.2088   -2.7101 O   0  0  0  1  0  0  0  0  0  0  0  0
   13.7807   -5.6687   -1.3657 O   0  0  0  1  0  0  0  0  0  0  0  0
   14.1095   -6.0610   -0.5535 H   0  0  0  1  0  0  0  0  0  0  0  0
   15.3076   -5.0382   -4.6111 O   0  0  0  1  0  0  0  0  0  0  0  0
   15.2530   -5.9457   -4.9194 H   0  0  0  1  0  0  0  0  0  0  0  0
   15.5090   -1.4861   -2.0521 C   0  0  0  1  0  0  0  0  0  0  0  0
   14.4781   -1.2638   -1.8712 H   0  0  0  1  0  0  0  0  0  0  0  0
   15.8850   -0.8371   -2.8152 H   0  0  0  1  0  0  0  0  0  0  0  0
   16.0684   -1.3403   -1.1517 H   0  0  0  1  0  0  0  0  0  0  0  0
   19.6111   -6.0939   -4.0352 C   0  0  0  1  0  0  0  0  0  0  0  0
   18.6941   -6.3125   -4.5414 H   0  0  0  1  0  0  0  0  0  0  0  0
   19.3607   -6.0733   -2.5299 C   0  0  0  1  0  0  0  0  0  0  0  0
   20.2899   -5.9374   -2.0172 H   0  0  0  1  0  0  0  0  0  0  0  0
   20.1003   -4.8341   -4.4772 O   0  0  0  1  0  0  0  0  0  0  0  0
   18.4154   -4.9266   -2.1782 C   0  0  0  1  0  0  0  0  0  0  0  0
   18.3519   -4.8411   -1.1135 H   0  0  0  1  0  0  0  0  0  0  0  0
   19.1790   -3.7560   -4.2497 C   0  0  0  1  0  0  0  0  0  0  0  0
   19.5987   -2.8454   -4.6232 H   0  0  0  1  0  0  0  0  0  0  0  0
   18.9090   -3.6135   -2.7504 C   0  0  0  1  0  0  0  0  0  0  0  0
   18.1657   -2.8596   -2.5958 H   0  0  0  1  0  0  0  0  0  0  0  0
   18.7613   -7.3354   -2.1228 N   0  0  0  1  0  0  0  0  0  0  0  0
   18.4543   -7.9581   -2.8145 H   0  0  0  1  0  0  0  0  0  0  0  0
   20.1166   -3.2353   -2.0881 O   0  0  0  1  0  0  0  0  0  0  0  0
   20.2602   -3.8830   -1.3942 H   0  0  0  1  0  0  0  0  0  0  0  0
   17.8875   -4.0438   -4.9645 C   0  0  0  1  0  0  0  0  0  0  0  0
   17.1685   -3.2912   -4.7166 H   0  0  0  1  0  0  0  0  0  0  0  0
   17.5198   -5.0022   -4.6626 H   0  0  0  1  0  0  0  0  0  0  0  0
   18.1076   -4.0431   -6.3717 O   0  0  0  1  0  0  0  0  0  0  0  0
   18.2351   -4.9510   -6.6562 H   0  0  0  1  0  0  0  0  0  0  0  0
   18.6137   -7.6775   -0.8280 C   0  0  0  1  0  0  0  0  0  0  0  0
   18.9846   -6.9921    0.1240 O   0  0  0  1  0  0  0  0  0  0  0  0
   17.9277   -9.0264   -0.6240 C   0  0  0  1  0  0  0  0  0  0  0  0
   17.4317   -8.9329    0.3195 H   0  0  0  1  0  0  0  0  0  0  0  0
   18.6482   -9.8169   -0.5961 H   0  0  0  1  0  0  0  0  0  0  0  0
   17.2217   -9.2140   -1.4058 H   0  0  0  1  0  0  0  0  0  0  0  0
  1  2  1  0  0  0  0
  1  3  1  0  0  0  0
  1  4  1  0  0  0  0
  1 44  1  0  0  0  0
  3 20  1  0  0  0  0
  4  5  1  0  0  0  0
  4  6  1  0  0  0  0
  4  8  1  0  0  0  0
  6  7  1  0  0  0  0
  8  9  1  0  0  0  0
  8 10  1  0  0  0  0
  8 20  1  0  0  0  0
 10 11  1  0  0  0  0
 12 13  1  0  0  0  0
 12 14  1  0  0  0  0
 12 15  1  0  0  0  0
 12 17  1  0  0  0  0
 15 16  1  0  0  0  0
 17 18  1  0  0  0  0
 17 19  1  0  0  0  0
 17 20  1  0  0  0  0
 19 22  1  0  0  0  0
 20 21  1  0  0  0  0
 22 23  1  0  0  0  0
 22 24  1  0  0  0  0
 22 25  1  0  0  0  0
 24 42  1  0  0  0  0
 25 26  1  0  0  0  0
 25 27  1  0  0  0  0
 25 29  1  0  0  0  0
 27 28  1  0  0  0  0
 29 30  1  0  0  0  0
 29 31  1  0  0  0  0
 29 42  1  0  0  0  0
 31 32  1  0  0  0  0
 33 34  1  0  0  0  0
 33 35  1  0  0  0  0
 33 36  1  0  0  0  0
 33 38  1  0  0  0  0
 36 37  1  0  0  0  0
 38 39  1  0  0  0  0
 38 40  1  0  0  0  0
 38 42  1  0  0  0  0
 40 41  1  0  0  0  0
 42 43  1  0  0  0  0
 44194  1  0  0  0  0
 45 46  1  0  0  0  0
 45 54  1  0  0  0  0
 46 47  1  0  0  0  0
 46 48  1  0  0  0  0
 46 49  2  0  0  0  0
 47 50  1  0  0  0  0
 50 51  1  0  0  0  0
 50 52  1  0  0  0  0
 50 53  2  0  0  0  0
 51205  1  0  0  0  0
 54 55  1  0  0  0  0
 54 56  1  0  0  0  0
 54 57  1  0  0  0  0
 57 58  1  0  0  0  0
 57 59  2  0  0  0  0
 59 60  1  0  0  0  0
 59 64  1  0  0  0  0
 60 61  1  0  0  0  0
 60 62  1  0  0  0  0
 60 63  1  0  0  0  0
 64 65  1  0  0  0  0
 64 66  1  0  0  0  0
 64 67  1  0  0  0  0
 67 68  1  0  0  0  0
 67 69  1  0  0  0  0
 67 70  1  0  0  0  0
 70 71  1  0  0  0  0
 70 72  2  0  0  0  0
 72 73  1  0  0  0  0
 72 77  1  0  0  0  0
 73 74  1  0  0  0  0
 73 75  1  0  0  0  0
 73 76  1  0  0  0  0
 77 78  1  0  0  0  0
 77 79  1  0  0  0  0
 77 80  1  0  0  0  0
 80 81  1  0  0  0  0
 80 82  1  0  0  0  0
 80 83  1  0  0  0  0
 83 84  1  0  0  0  0
 83 85  2  0  0  0  0
 85 86  1  0  0  0  0
 85 89  1  0  0  0  0
 86 87  1  0  0  0  0
 86 88  1  0  0  0  0
 86 93  1  0  0  0  0
 89 90  1  0  0  0  0
 89 91  1  0  0  0  0
 89 92  1  0  0  0  0
 93 94  1  0  0  0  0
 93 95  1  0  0  0  0
 93 96  1  0  0  0  0
 96 97  1  0  0  0  0
 96 98  2  0  0  0  0
 98 99  1  0  0  0  0
 98102  1  0  0  0  0
 99100  1  0  0  0  0
 99101  1  0  0  0  0
 99106  1  0  0  0  0
102103  1  0  0  0  0
102104  1  0  0  0  0
102105  1  0  0  0  0
106107  1  0  0  0  0
106108  1  0  0  0  0
106109  1  0  0  0  0
109110  1  0  0  0  0
109111  2  0  0  0  0
111112  1  0  0  0  0
111115  1  0  0  0  0
112113  1  0  0  0  0
112114  1  0  0  0  0
112119  1  0  0  0  0
115116  1  0  0  0  0
115117  1  0  0  0  0
115118  1  0  0  0  0
119120  1  0  0  0  0
119121  1  0  0  0  0
119122  1  0  0  0  0
122123  1  0  0  0  0
122124  2  0  0  0  0
124125  1  0  0  0  0
124128  1  0  0  0  0
125126  1  0  0  0  0
125127  1  0  0  0  0
125132  1  0  0  0  0
128129  1  0  0  0  0
128130  1  0  0  0  0
128131  1  0  0  0  0
132133  1  0  0  0  0
132134  1  0  0  0  0
132135  1  0  0  0  0
135136  1  0  0  0  0
135137  2  0  0  0  0
137138  1  0  0  0  0
137141  1  0  0  0  0
138139  1  0  0  0  0
138140  1  0  0  0  0
138145  1  0  0  0  0
141142  1  0  0  0  0
141143  1  0  0  0  0
141144  1  0  0  0  0
145146  1  0  0  0  0
145147  1  0  0  0  0
145148  1  0  0  0  0
148149  1  0  0  0  0
148150  2  0  0  0  0
150151  1  0  0  0  0
150154  1  0  0  0  0
151152  1  0  0  0  0
151153  1  0  0  0  0
151158  1  0  0  0  0
154155  1  0  0  0  0
154156  1  0  0  0  0
154157  1  0  0  0  0
158159  1  0  0  0  0
158160  1  0  0  0  0
158161  1  0  0  0  0
161162  1  0  0  0  0
161163  2  0  0  0  0
163164  1  0  0  0  0
163167  1  0  0  0  0
164165  1  0  0  0  0
164166  1  0  0  0  0
164171  1  0  0  0  0
167168  1  0  0  0  0
167169  1  0  0  0  0
167170  1  0  0  0  0
171172  1  0  0  0  0
171173  1  0  0  0  0
171174  1  0  0  0  0
174175  1  0  0  0  0
174176  2  0  0  0  0
176177  1  0  0  0  0
176181  1  0  0  0  0
177178  1  0  0  0  0
177179  1  0  0  0  0
177180  1  0  0  0  0
181182  1  0  0  0  0
181183  1  0  0  0  0
181184  1  0  0  0  0
185186  1  0  0  0  0
185187  1  0  0  0  0
185189  1  0  0  0  0
185196  1  0  0  0  0
187188  1  0  0  0  0
187190  1  0  0  0  0
187197  1  0  0  0  0
189192  1  0  0  0  0
190191  1  0  0  0  0
190194  1  0  0  0  0
190199  1  0  0  0  0
192193  1  0  0  0  0
192194  1  0  0  0  0
192201  1  0  0  0  0
194195  1  0  0  0  0
196210  1  0  0  0  0
197198  1  0  0  0  0
199200  1  0  0  0  0
201202  1  0  0  0  0
201203  1  0  0  0  0
201204  1  0  0  0  0
205206  1  0  0  0  0
205207  1  0  0  0  0
205209  1  0  0  0  0
207208  1  0  0  0  0
207210  1  0  0  0  0
207216  1  0  0  0  0
209212  1  0  0  0  0
210211  1  0  0  0  0
210214  1  0  0  0  0
212213  1  0  0  0  0
212214  1  0  0  0  0
212220  1  0  0  0  0
214215  1  0  0  0  0
214218  1  0  0  0  0
216217  1  0  0  0  0
216225  1  0  0  0  0
218219  1  0  0  0  0
220221  1  0  0  0  0
220222  1  0  0  0  0
220223  1  0  0  0  0
223224  1  0  0  0  0
225226  2  0  0  0  0
225227  1  0  0  0  0
227228  1  0  0  0  0
227229  1  0  0  0  0
227230  1  0  0  0  0
M  BCL ATM C_TeTeTeTe H_S O_Te2Te2TeTe C_TeTeTeTe H_S O_Te2Te2TeTe H_S C_TeTeTeTe H_S O_Te2Te2TeTe H_S C_TeTeTeTe H_S H_S O_Te2Te2TeTe H_S C_TeTeTeTe H_S O_Te2Te2TeTe C_TeTeTeTe H_S C_TeTeTeTe H_S O_Te2Te2TeTe C_TeTeTeTe H_S O_Te2Te2TeTe H_S C_TeTeTeTe H_S O_Te2Te2TeTe H_S C_TeTeTeTe H_S H_S O_Te2Te2TeTe H_S C_TeTeTeTe H_S O_Te2Te2TeTe H_S C_TeTeTeTe H_S O_Te2Te2TeTe O_Tr2TrTrPi2 P_TeTeTeTePi O_Tr2TrTrPi2 O_Te2Te2TeTe O_Tr2Tr2TrPi P_TeTeTeTePi O_Tr2TrTrPi2 O_Te2Te2TeTe O_Tr2Tr2TrPi C_TeTeTeTe H_S H_S C_TrTrTrPi H_S C_TrTrTrPi C_TeTeTeTe H_S H_S H_S C_TeTeTeTe H_S H_S C_TeTeTeTe H_S H_S C_TrTrTrPi H_S C_TrTrTrPi C_TeTeTeTe H_S H_S H_S C_TeTeTeTe H_S H_S C_TeTeTeTe H_S H_S C_TrTrTrPi H_S C_TrTrTrPi C_TeTeTeTe H_S H_S C_TeTeTeTe H_S H_S H_S C_TeTeTeTe H_S H_S C_TrTrTrPi H_S C_TrTrTrPi C_TeTeTeTe H_S H_S C_TeTeTeTe H_S H_S H_S C_TeTeTeTe H_S H_S C_TrTrTrPi H_S C_TrTrTrPi C_TeTeTeTe H_S H_S C_TeTeTeTe H_S H_S H_S C_TeTeTeTe H_S H_S C_TrTrTrPi H_S C_TrTrTrPi C_TeTeTeTe H_S H_S C_TeTeTeTe H_S H_S H_S C_TeTeTeTe H_S H_S C_TrTrTrPi H_S C_TrTrTrPi C_TeTeTeTe H_S H_S C_TeTeTeTe H_S H_S H_S C_TeTeTeTe H_S H_S C_TrTrTrPi H_S C_TrTrTrPi C_TeTeTeTe H_S H_S C_TeTeTeTe H_S H_S H_S C_TeTeTeTe H_S H_S C_TrTrTrPi H_S C_TrTrTrPi C_TeTeTeTe H_S H_S C_TeTeTeTe H_S H_S H_S C_TeTeTeTe H_S H_S C_TrTrTrPi H_S C_TrTrTrPi C_TeTeTeTe H_S H_S H_S C_TeTeTeTe H_S H_S H_S C_TeTeTeTe H_S C_TeTeTeTe H_S O_Te2Te2TeTe C_TeTeTeTe H_S C_TeTeTeTe H_S C_TeTeTeTe H_S O_Te2Te2TeTe O_Te2Te2TeTe H_S O_Te2Te2TeTe H_S C_TeTeTeTe H_S H_S H_S C_TeTeTeTe H_S C_TeTeTeTe H_S O_Te2Te2TeTe C_TeTeTeTe H_S C_TeTeTeTe H_S C_TeTeTeTe H_S N_TrTrTrPi2 H_S O_Te2Te2TeTe H_S C_TeTeTeTe H_S H_S O_Te2Te2TeTe H_S C_TrTrTrPi O_Tr2Tr2TrPi C_TeTeTeTe H_S H_S H_S
M  BCL BND NonConjugatedSingleBond NonConjugatedSingleBondInRing NonConjugatedSingleBondInRing NonConjugatedSingleBond NonConjugatedSingleBondInRing NonConjugatedSingleBond NonConjugatedSingleBond NonConjugatedSingleBondInRing NonConjugatedSingleBond NonConjugatedSingleBond NonConjugatedSingleBond NonConjugatedSingleBondInRing NonConjugatedSingleBond NonConjugatedSingleBond NonConjugatedSingleBond NonConjugatedSingleBond NonConjugatedSingleBond NonConjugatedSingleBond NonConjugatedSingleBond NonConjugatedSingleBond NonConjugatedSingleBond NonConjugatedSingleBond NonConjugatedSingleBond NonConjugatedSingleBond NonConjugatedSingleBondInRing NonConjugatedSingleBondInRing NonConjugatedSingleBondInRing NonConjugatedSingleBond NonConjugatedSingleBond NonConjugatedSingleBondInRing NonConjugatedSingleBond NonConjugatedSingleBond NonConjugatedSingleBond NonConjugatedSingleBondInRing NonConjugatedSingleBond NonConjugatedSingleBond NonConjugatedSingleBond NonConjugatedSingleBond NonConjugatedSingleBond NonConjugatedSingleBond NonConjugatedSingleBond NonConjugatedSingleBond NonConjugatedSingleBond NonConjugatedSingleBond NonConjugatedSingleBond NonConjugatedSingleBond ConjugatedSingleBond NonConjugatedSingleBond ConjugatedSingleBond ConjugatedSingleBond ConjugatedDoubleBond ConjugatedSingleBond ConjugatedSingleBond ConjugatedSingleBond ConjugatedDoubleBond NonConjugatedSingleBond NonConjugatedSingleBond NonConjugatedSingleBond NonConjugatedSingleBond NonConjugatedSingleBond ConjugatedDoubleBond NonConjugatedSingleBond NonConjugatedSingleBond NonConjugatedSingleBond NonConjugatedSingleBond NonConjugatedSingleBond NonConjugatedSingleBond NonConjugatedSingleBond NonConjugatedSingleBond NonConjugatedSingleBond NonConjugatedSingleBond NonConjugatedSingleBond NonConjugatedSingleBond ConjugatedDoubleBond NonConjugatedSingleBond NonConjugatedSingleBond NonConjugatedSingleBond NonConjugatedSingleBond NonConjugatedSingleBond NonConjugatedSingleBond NonConjugatedSingleBond NonConjugatedSingleBond NonConjugatedSingleBond NonConjugatedSingleBond NonConjugatedSingleBond NonConjugatedSingleBond ConjugatedDoubleBond NonConjugatedSingleBond NonConjugatedSingleBond NonConjugatedSingleBond NonConjugatedSingleBond NonConjugatedSingleBond NonConjugatedSingleBond NonConjugatedSingleBond NonConjugatedSingleBond NonConjugatedSingleBond NonConjugatedSingleBond NonConjugatedSingleBond NonConjugatedSingleBond ConjugatedDoubleBond NonConjugatedSingleBond NonConjugatedSingleBond NonConjugatedSingleBond NonConjugatedSingleBond NonConjugatedSingleBond NonConjugatedSingleBond NonConjugatedSingleBond NonConjugatedSingleBond NonConjugatedSingleBond NonConjugatedSingleBond NonConjugatedSingleBond NonConjugatedSingleBond ConjugatedDoubleBond NonConjugatedSingleBond NonConjugatedSingleBond NonConjugatedSingleBond NonConjugatedSingleBond NonConjugatedSingleBond NonConjugatedSingleBond NonConjugatedSingleBond NonConjugatedSingleBond NonConjugatedSingleBond NonConjugatedSingleBond NonConjugatedSingleBond NonConjugatedSingleBond ConjugatedDoubleBond NonConjugatedSingleBond NonConjugatedSingleBond NonConjugatedSingleBond NonConjugatedSingleBond NonConjugatedSingleBond NonConjugatedSingleBond NonConjugatedSingleBond NonConjugatedSingleBond NonConjugatedSingleBond NonConjugatedSingleBond NonConjugatedSingleBond NonConjugatedSingleBond ConjugatedDoubleBond NonConjugatedSingleBond NonConjugatedSingleBond NonConjugatedSingleBond NonConjugatedSingleBond NonConjugatedSingleBond NonConjugatedSingleBond NonConjugatedSingleBond NonConjugatedSingleBond NonConjugatedSingleBond NonConjugatedSingleBond NonConjugatedSingleBond NonConjugatedSingleBond ConjugatedDoubleBond NonConjugatedSingleBond NonConjugatedSingleBond NonConjugatedSingleBond NonConjugatedSingleBond NonConjugatedSingleBond NonConjugatedSingleBond NonConjugatedSingleBond NonConjugatedSingleBond NonConjugatedSingleBond NonConjugatedSingleBond NonConjugatedSingleBond NonConjugatedSingleBond ConjugatedDoubleBond NonConjugatedSingleBond NonConjugatedSingleBond NonConjugatedSingleBond NonConjugatedSingleBond NonConjugatedSingleBond NonConjugatedSingleBond NonConjugatedSingleBond NonConjugatedSingleBond NonConjugatedSingleBond NonConjugatedSingleBond NonConjugatedSingleBond NonConjugatedSingleBond ConjugatedDoubleBond NonConjugatedSingleBond NonConjugatedSingleBond NonConjugatedSingleBond NonConjugatedSingleBond NonConjugatedSingleBond NonConjugatedSingleBond NonConjugatedSingleBond NonConjugatedSingleBond NonConjugatedSingleBond NonConjugatedSingleBondInRing NonConjugatedSingleBondInRing NonConjugatedSingleBond NonConjugatedSingleBond NonConjugatedSingleBondInRing NonConjugatedSingleBond NonConjugatedSingleBondInRing NonConjugatedSingleBond NonConjugatedSingleBondInRing NonConjugatedSingleBond NonConjugatedSingleBond NonConjugatedSingleBondInRing NonConjugatedSingleBond NonConjugatedSingleBond NonConjugatedSingleBond NonConjugatedSingleBond NonConjugatedSingleBond NonConjugatedSingleBond NonConjugatedSingleBond NonConjugatedSingleBond NonConjugatedSingleBond NonConjugatedSingleBondInRing NonConjugatedSingleBondInRing NonConjugatedSingleBond NonConjugatedSingleBondInRing NonConjugatedSingleBond NonConjugatedSingleBondInRing NonConjugatedSingleBond NonConjugatedSingleBondInRing NonConjugatedSingleBond NonConjugatedSingleBondInRing NonConjugatedSingleBond NonConjugatedSingleBond NonConjugatedSingleBond NonConjugatedSingleBond AmideSingleBond NonConjugatedSingleBond NonConjugatedSingleBond NonConjugatedSingleBond NonConjugatedSingleBond NonConjugatedSingleBond ConjugatedDoubleBond NonConjugatedSingleBond NonConjugatedSingleBond NonConjugatedSingleBond NonConjugatedSingleBond
M  BCL CHI   1   R   4   R   8   R  17   S  20   R  22   S  25   R  29   S  38   S  42   R  46   R  50   S 185   R 187   S 190   S 192   R 194   R 205   R 207   S 210   R 212   S 214   S
M  BCL DBI - - E E E E E E E E Z - -
M  END
> <ConfClashScore>
0.00228941 

> <ConfOneFourInteractionScore>
-0.966763 

> <ConfScore>
0.385422 

> <ConfScorePBest>
0.0135535 

> <ConfTolerance>
0.25 

$$$$
L05.****
  PyMOL2.5          3D                             0

230233  0  0  0  0  0  0  0  0999 V2000
   12.5366   -2.0944   -2.2062 C   0  0  0  1  0  0  0  0  0  0  0  0
   12.4359   -1.9196   -3.2570 H   0  0  0  1  0  0  0  0  0  0  0  0
   13.1448   -0.9979   -1.5869 O   0  0  0  1  0  0  0  0  0  0  0  0
   11.1525   -2.2331   -1.5525 C   0  0  0  1  0  0  0  0  0  0  0  0
   11.2045   -2.8195   -0.6591 H   0  0  0  1  0  0  0  0  0  0  0  0
   10.2131   -2.8202   -2.4543 O   0  0  0  1  0  0  0  0  0  0  0  0
   10.1367   -2.2724   -3.2389 H   0  0  0  1  0  0  0  0  0  0  0  0
   10.7869   -0.7923   -1.2418 C   0  0  0  1  0  0  0  0  0  0  0  0
   10.2948   -0.3318   -2.0728 H   0  0  0  1  0  0  0  0  0  0  0  0
    9.9496   -0.7117   -0.0874 O   0  0  0  1  0  0  0  0  0  0  0  0
    9.3817   -1.4848   -0.0487 H   0  0  0  1  0  0  0  0  0  0  0  0
   11.6088    1.2753   -2.9997 C   0  0  0  1  0  0  0  0  0  0  0  0
   12.0306    0.4880   -3.5890 H   0  0  0  1  0  0  0  0  0  0  0  0
   10.5498    1.1398   -2.9282 H   0  0  0  1  0  0  0  0  0  0  0  0
   11.8851    2.5288   -3.6170 O   0  0  0  1  0  0  0  0  0  0  0  0
   11.4831    3.2340   -3.1044 H   0  0  0  1  0  0  0  0  0  0  0  0
   12.2192    1.2453   -1.6025 C   0  0  0  1  0  0  0  0  0  0  0  0
   11.6724    1.9217   -0.9792 H   0  0  0  1  0  0  0  0  0  0  0  0
   13.5878    1.6448   -1.6646 O   0  0  0  1  0  0  0  0  0  0  0  0
   12.1655   -0.1380   -0.9775 C   0  0  0  1  0  0  0  0  0  0  0  0
   12.3435   -0.0617    0.0748 H   0  0  0  1  0  0  0  0  0  0  0  0
   14.0875    1.9848   -0.3966 C   0  0  0  1  0  0  0  0  0  0  0  0
   13.4889    2.7645    0.0260 H   0  0  0  1  0  0  0  0  0  0  0  0
   14.0946    0.8546    0.4500 O   0  0  0  1  0  0  0  0  0  0  0  0
   15.5367    2.4250   -0.4985 C   0  0  0  1  0  0  0  0  0  0  0  0
   15.6098    3.4765   -0.6828 H   0  0  0  1  0  0  0  0  0  0  0  0
   16.2224    1.7116   -1.5286 O   0  0  0  1  0  0  0  0  0  0  0  0
   16.6130    2.3353   -2.1450 H   0  0  0  1  0  0  0  0  0  0  0  0
   16.0775    2.0710    0.8628 C   0  0  0  1  0  0  0  0  0  0  0  0
   15.8173    2.8108    1.5908 H   0  0  0  1  0  0  0  0  0  0  0  0
   17.4822    1.9106    0.8342 O   0  0  0  1  0  0  0  0  0  0  0  0
   17.7441    1.2619    1.4917 H   0  0  0  1  0  0  0  0  0  0  0  0
   14.2037   -0.5848    2.9172 C   0  0  0  1  0  0  0  0  0  0  0  0
   13.2704   -0.3913    2.4310 H   0  0  0  1  0  0  0  0  0  0  0  0
   14.6198   -1.4963    2.5418 H   0  0  0  1  0  0  0  0  0  0  0  0
   13.9695   -0.7307    4.3145 O   0  0  0  1  0  0  0  0  0  0  0  0
   14.6045   -0.2017    4.8029 H   0  0  0  1  0  0  0  0  0  0  0  0
   15.1621    0.5542    2.6047 C   0  0  0  1  0  0  0  0  0  0  0  0
   16.1066    0.3382    3.0586 H   0  0  0  1  0  0  0  0  0  0  0  0
   14.6059    1.7321    3.1828 O   0  0  0  1  0  0  0  0  0  0  0  0
   13.8205    1.5026    3.6849 H   0  0  0  1  0  0  0  0  0  0  0  0
   15.3703    0.7448    1.1381 C   0  0  0  1  0  0  0  0  0  0  0  0
   15.9392   -0.0736    0.7489 H   0  0  0  1  0  0  0  0  0  0  0  0
   13.3056   -3.2734   -1.9921 O   0  0  0  1  0  0  0  0  0  0  0  0
   22.1395  -10.1706    0.3537 O   0  0  0  1  0  0  0  0  0  0  0  0
   21.9412   -8.6261   -0.1213 P   0  0  0  1  0  0  0  0  0  0  0  0
   21.3810   -9.0724   -1.5601 O   0  0  0  1  0  0  0  0  0  0  0  0
   23.2625   -7.9666   -0.2685 O   0  0  0  0  0  0  0  0  0  0  0  0
   20.8804   -7.9677    0.6620 O   0  0  0  1  0  0  0  0  0  0  0  0
   20.8018   -8.1249   -2.7385 P   0  0  0  1  0  0  0  0  0  0  0  0
   21.2150   -6.6659   -2.3179 O   0  0  0  1  0  0  0  0  0  0  0  0
   19.3224   -8.3133   -2.6808 O   0  0  0  0  0  0  0  0  0  0  0  0
   21.4889   -8.3591   -4.0365 O   0  0  0  1  0  0  0  0  0  0  0  0
   22.2556  -10.6120    1.7158 C   0  0  0  1  0  0  0  0  0  0  0  0
   21.4798  -11.3159    1.9339 H   0  0  0  1  0  0  0  0  0  0  0  0
   22.1724   -9.7731    2.3748 H   0  0  0  1  0  0  0  0  0  0  0  0
   23.5941  -11.2639    1.8945 C   0  0  0  1  0  0  0  0  0  0  0  0
   23.8680  -11.9964    1.2089 H   0  0  0  1  0  0  0  0  0  0  0  0
   24.4599  -10.9744    2.8676 C   0  0  0  1  0  0  0  0  0  0  0  0
   25.6153  -11.8820    3.1755 C   0  0  0  1  0  0  0  0  0  0  0  0
   25.5528  -12.7591    2.5657 H   0  0  0  1  0  0  0  0  0  0  0  0
   25.5831  -12.1624    4.2076 H   0  0  0  1  0  0  0  0  0  0  0  0
   26.5335  -11.3715    2.9725 H   0  0  0  1  0  0  0  0  0  0  0  0
   24.3134   -9.7282    3.6946 C   0  0  0  1  0  0  0  0  0  0  0  0
   23.4403   -9.2031    3.3676 H   0  0  0  1  0  0  0  0  0  0  0  0
   25.1769   -9.1150    3.5425 H   0  0  0  1  0  0  0  0  0  0  0  0
   24.1781  -10.0128    5.1816 C   0  0  0  1  0  0  0  0  0  0  0  0
   23.5579  -10.8739    5.3189 H   0  0  0  1  0  0  0  0  0  0  0  0
   23.7282   -9.1685    5.6609 H   0  0  0  1  0  0  0  0  0  0  0  0
   25.5172  -10.2698    5.7964 C   0  0  0  1  0  0  0  0  0  0  0  0
   26.0904  -11.0401    5.3967 H   0  0  0  1  0  0  0  0  0  0  0  0
   26.0291   -9.5873    6.8150 C   0  0  0  1  0  0  0  0  0  0  0  0
   27.4772   -9.6375    7.2075 C   0  0  0  1  0  0  0  0  0  0  0  0
   27.7277   -8.7575    7.7621 H   0  0  0  1  0  0  0  0  0  0  0  0
   28.0834   -9.6887    6.3273 H   0  0  0  1  0  0  0  0  0  0  0  0
   27.6526  -10.5023    7.8127 H   0  0  0  1  0  0  0  0  0  0  0  0
   25.1708   -8.6874    7.6757 C   0  0  0  1  0  0  0  0  0  0  0  0
   24.1585   -8.7351    7.3324 H   0  0  0  1  0  0  0  0  0  0  0  0
   25.5278   -7.6818    7.5967 H   0  0  0  1  0  0  0  0  0  0  0  0
   25.2246   -9.1225    9.1311 C   0  0  0  1  0  0  0  0  0  0  0  0
   26.2268   -9.0019    9.4859 H   0  0  0  1  0  0  0  0  0  0  0  0
   24.9471  -10.1543    9.1886 H   0  0  0  1  0  0  0  0  0  0  0  0
   24.3034   -8.3285   10.0183 C   0  0  0  1  0  0  0  0  0  0  0  0
   24.6440   -7.4093   10.3657 H   0  0  0  1  0  0  0  0  0  0  0  0
   23.0887   -8.7142   10.3904 C   0  0  0  1  0  0  0  0  0  0  0  0
   22.5133  -10.0249    9.9385 C   0  0  0  1  0  0  0  0  0  0  0  0
   22.2375  -10.5821   10.8093 H   0  0  0  1  0  0  0  0  0  0  0  0
   23.2747  -10.5526    9.4031 H   0  0  0  1  0  0  0  0  0  0  0  0
   22.1863   -7.9037   11.2777 C   0  0  0  1  0  0  0  0  0  0  0  0
   22.4294   -8.0927   12.3024 H   0  0  0  1  0  0  0  0  0  0  0  0
   21.1681   -8.1781   11.0964 H   0  0  0  1  0  0  0  0  0  0  0  0
   22.3190   -6.8633   11.0659 H   0  0  0  1  0  0  0  0  0  0  0  0
   21.2917   -9.9248    9.0395 C   0  0  0  1  0  0  0  0  0  0  0  0
   21.5387   -9.3146    8.1960 H   0  0  0  1  0  0  0  0  0  0  0  0
   20.4987   -9.4659    9.5923 H   0  0  0  1  0  0  0  0  0  0  0  0
   20.8158  -11.2628    8.5401 C   0  0  0  1  0  0  0  0  0  0  0  0
   21.5274  -11.8656    8.0798 H   0  0  0  1  0  0  0  0  0  0  0  0
   19.5853  -11.7571    8.6237 C   0  0  0  1  0  0  0  0  0  0  0  0
   18.4344  -11.0263    9.2552 C   0  0  0  1  0  0  0  0  0  0  0  0
   18.6699   -9.9827    9.2384 H   0  0  0  1  0  0  0  0  0  0  0  0
   18.3612  -11.3597   10.2693 H   0  0  0  1  0  0  0  0  0  0  0  0
   19.2457  -13.1143    8.0807 C   0  0  0  1  0  0  0  0  0  0  0  0
   18.4668  -13.0231    7.3527 H   0  0  0  1  0  0  0  0  0  0  0  0
   18.9152  -13.7452    8.8792 H   0  0  0  1  0  0  0  0  0  0  0  0
   20.1130  -13.5422    7.6229 H   0  0  0  1  0  0  0  0  0  0  0  0
   17.0629  -11.1933    8.6214 C   0  0  0  1  0  0  0  0  0  0  0  0
   16.3689  -10.5663    9.1412 H   0  0  0  1  0  0  0  0  0  0  0  0
   16.7641  -12.2159    8.7207 H   0  0  0  1  0  0  0  0  0  0  0  0
   17.0394  -10.8269    7.1616 C   0  0  0  1  0  0  0  0  0  0  0  0
   17.1994   -9.8297    6.9131 H   0  0  0  1  0  0  0  0  0  0  0  0
   16.8292  -11.6836    6.1653 C   0  0  0  1  0  0  0  0  0  0  0  0
   16.2858  -13.0798    6.3704 C   0  0  0  1  0  0  0  0  0  0  0  0
   15.2649  -13.0163    6.6844 H   0  0  0  1  0  0  0  0  0  0  0  0
   16.8616  -13.5729    7.1255 H   0  0  0  1  0  0  0  0  0  0  0  0
   17.2328  -11.3197    4.7642 C   0  0  0  1  0  0  0  0  0  0  0  0
   16.3746  -10.9827    4.2214 H   0  0  0  1  0  0  0  0  0  0  0  0
   17.6474  -12.1782    4.2784 H   0  0  0  1  0  0  0  0  0  0  0  0
   17.9640  -10.5391    4.7953 H   0  0  0  1  0  0  0  0  0  0  0  0
   16.3619  -13.8824    5.0819 C   0  0  0  1  0  0  0  0  0  0  0  0
   17.3885  -14.1275    4.9058 H   0  0  0  1  0  0  0  0  0  0  0  0
   16.0007  -13.2647    4.2864 H   0  0  0  1  0  0  0  0  0  0  0  0
   15.5705  -15.1628    5.0715 C   0  0  0  1  0  0  0  0  0  0  0  0
   15.7266  -15.8108    5.8699 H   0  0  0  1  0  0  0  0  0  0  0  0
   14.6988  -15.5528    4.1582 C   0  0  0  1  0  0  0  0  0  0  0  0
   14.0997  -14.6318    3.1149 C   0  0  0  1  0  0  0  0  0  0  0  0
   14.0085  -15.1523    2.1845 H   0  0  0  1  0  0  0  0  0  0  0  0
   14.7290  -13.7763    2.9854 H   0  0  0  1  0  0  0  0  0  0  0  0
   14.3056  -16.9958    4.0358 C   0  0  0  1  0  0  0  0  0  0  0  0
   13.7339  -17.1357    3.1422 H   0  0  0  1  0  0  0  0  0  0  0  0
   13.7168  -17.2779    4.8834 H   0  0  0  1  0  0  0  0  0  0  0  0
   15.1858  -17.6028    3.9944 H   0  0  0  1  0  0  0  0  0  0  0  0
   12.7255  -14.1892    3.5905 C   0  0  0  1  0  0  0  0  0  0  0  0
   12.2385  -15.0242    4.0492 H   0  0  0  1  0  0  0  0  0  0  0  0
   12.1589  -13.8671    2.7419 H   0  0  0  1  0  0  0  0  0  0  0  0
   12.7808  -13.0682    4.5793 C   0  0  0  1  0  0  0  0  0  0  0  0
   13.6226  -12.4587    4.5426 H   0  0  0  1  0  0  0  0  0  0  0  0
   11.8709  -12.7667    5.4995 C   0  0  0  1  0  0  0  0  0  0  0  0
   10.6942  -13.6402    5.8249 C   0  0  0  1  0  0  0  0  0  0  0  0
   10.8645  -14.6105    5.4073 H   0  0  0  1  0  0  0  0  0  0  0  0
    9.8189  -13.2104    5.3843 H   0  0  0  1  0  0  0  0  0  0  0  0
   11.9541  -11.4988    6.3019 C   0  0  0  1  0  0  0  0  0  0  0  0
   12.1416  -11.7371    7.3280 H   0  0  0  1  0  0  0  0  0  0  0  0
   11.0297  -10.9657    6.2229 H   0  0  0  1  0  0  0  0  0  0  0  0
   12.7503  -10.8907    5.9260 H   0  0  0  1  0  0  0  0  0  0  0  0
   10.4596  -13.7908    7.3191 C   0  0  0  1  0  0  0  0  0  0  0  0
    9.5077  -14.2558    7.4692 H   0  0  0  1  0  0  0  0  0  0  0  0
   10.4555  -12.8173    7.7630 H   0  0  0  1  0  0  0  0  0  0  0  0
   11.5125  -14.6236    8.0002 C   0  0  0  1  0  0  0  0  0  0  0  0
   11.6572  -15.5836    7.6274 H   0  0  0  1  0  0  0  0  0  0  0  0
   12.2778  -14.2647    9.0271 C   0  0  0  1  0  0  0  0  0  0  0  0
   11.9088  -13.0486    9.8286 C   0  0  0  1  0  0  0  0  0  0  0  0
   12.0569  -13.2884   10.8608 H   0  0  0  1  0  0  0  0  0  0  0  0
   10.8718  -12.8519    9.6529 H   0  0  0  1  0  0  0  0  0  0  0  0
   13.5176  -14.9763    9.4839 C   0  0  0  1  0  0  0  0  0  0  0  0
   13.3567  -15.3829   10.4605 H   0  0  0  1  0  0  0  0  0  0  0  0
   14.3339  -14.2853    9.5156 H   0  0  0  1  0  0  0  0  0  0  0  0
   13.7461  -15.7680    8.8014 H   0  0  0  1  0  0  0  0  0  0  0  0
   12.6696  -11.7633    9.5465 C   0  0  0  1  0  0  0  0  0  0  0  0
   13.0107  -11.7617    8.5323 H   0  0  0  1  0  0  0  0  0  0  0  0
   13.5092  -11.6895   10.2058 H   0  0  0  1  0  0  0  0  0  0  0  0
   11.7440  -10.5978    9.7719 C   0  0  0  1  0  0  0  0  0  0  0  0
   10.9910  -10.4390    9.0724 H   0  0  0  1  0  0  0  0  0  0  0  0
   11.8173   -9.7575   10.7972 C   0  0  0  1  0  0  0  0  0  0  0  0
   10.6818   -8.8347   11.1329 C   0  0  0  1  0  0  0  0  0  0  0  0
   11.0370   -7.8265   11.0859 H   0  0  0  1  0  0  0  0  0  0  0  0
   10.3500   -9.0506   12.1269 H   0  0  0  1  0  0  0  0  0  0  0  0
   13.0096   -9.6434   11.7048 C   0  0  0  1  0  0  0  0  0  0  0  0
   12.9419   -8.6704   12.1449 H   0  0  0  1  0  0  0  0  0  0  0  0
   13.9163   -9.7379   11.1445 H   0  0  0  1  0  0  0  0  0  0  0  0
   12.9770  -10.3991   12.4616 H   0  0  0  1  0  0  0  0  0  0  0  0
    9.5003   -8.9759   10.1871 C   0  0  0  1  0  0  0  0  0  0  0  0
    9.0994   -9.9610   10.3045 H   0  0  0  1  0  0  0  0  0  0  0  0
    9.8614   -8.8541    9.1873 H   0  0  0  1  0  0  0  0  0  0  0  0
    8.3891   -7.9973   10.3988 C   0  0  0  1  0  0  0  0  0  0  0  0
    7.5227   -8.3677   10.8389 H   0  0  0  1  0  0  0  0  0  0  0  0
    8.3888   -6.7061   10.0854 C   0  0  0  1  0  0  0  0  0  0  0  0
    9.4723   -6.0429    9.2856 C   0  0  0  1  0  0  0  0  0  0  0  0
    9.1624   -5.9591    8.2649 H   0  0  0  1  0  0  0  0  0  0  0  0
   10.3654   -6.6297    9.3399 H   0  0  0  1  0  0  0  0  0  0  0  0
    9.6614   -5.0671    9.6818 H   0  0  0  1  0  0  0  0  0  0  0  0
    7.2727   -5.7879   10.5206 C   0  0  0  1  0  0  0  0  0  0  0  0
    6.6706   -6.3270   11.2219 H   0  0  0  1  0  0  0  0  0  0  0  0
    6.6825   -5.5032    9.6747 H   0  0  0  1  0  0  0  0  0  0  0  0
    7.6785   -4.9128   10.9838 H   0  0  0  1  0  0  0  0  0  0  0  0
   16.2837   -5.0855   -1.7637 C   0  0  0  1  0  0  0  0  0  0  0  0
   16.6699   -5.5753   -0.8943 H   0  0  0  1  0  0  0  0  0  0  0  0
   14.9899   -5.7388   -2.1783 C   0  0  0  1  0  0  0  0  0  0  0  0
   15.1869   -6.7453   -2.4834 H   0  0  0  1  0  0  0  0  0  0  0  0
   16.0384   -3.7124   -1.4688 O   0  0  0  1  0  0  0  0  0  0  0  0
   14.3502   -4.9820   -3.3357 C   0  0  0  1  0  0  0  0  0  0  0  0
   13.3673   -5.3701   -3.5040 H   0  0  0  1  0  0  0  0  0  0  0  0
   15.6015   -2.9483   -2.6081 C   0  0  0  1  0  0  0  0  0  0  0  0
   16.3046   -3.0538   -3.4077 H   0  0  0  1  0  0  0  0  0  0  0  0
   14.2491   -3.4834   -3.0374 C   0  0  0  1  0  0  0  0  0  0  0  0
   13.9273   -2.9678   -3.9180 H   0  0  0  1  0  0  0  0  0  0  0  0
   17.2282   -5.1839   -2.8233 O   0  0  0  1  0  0  0  0  0  0  0  0
   14.0907   -5.7443   -1.0680 O   0  0  0  1  0  0  0  0  0  0  0  0
   13.8305   -6.6471   -0.8709 H   0  0  0  1  0  0  0  0  0  0  0  0
   15.1414   -5.1688   -4.5043 O   0  0  0  1  0  0  0  0  0  0  0  0
   14.9531   -4.4692   -5.1341 H   0  0  0  1  0  0  0  0  0  0  0  0
   15.4798   -1.4812   -2.2298 C   0  0  0  1  0  0  0  0  0  0  0  0
   15.0792   -1.3993   -1.2410 H   0  0  0  1  0  0  0  0  0  0  0  0
   14.8280   -0.9879   -2.9203 H   0  0  0  1  0  0  0  0  0  0  0  0
   16.4464   -1.0235   -2.2617 H   0  0  0  1  0  0  0  0  0  0  0  0
   20.9637   -5.5390   -3.1969 C   0  0  0  1  0  0  0  0  0  0  0  0
   21.5732   -5.6258   -4.0721 H   0  0  0  1  0  0  0  0  0  0  0  0
   19.4886   -5.4744   -3.5761 C   0  0  0  1  0  0  0  0  0  0  0  0
   19.2146   -6.3994   -4.0388 H   0  0  0  1  0  0  0  0  0  0  0  0
   21.2309   -4.2917   -2.5132 O   0  0  0  1  0  0  0  0  0  0  0  0
   18.5806   -5.2428   -2.3827 C   0  0  0  1  0  0  0  0  0  0  0  0
   18.6953   -6.0487   -1.6883 H   0  0  0  1  0  0  0  0  0  0  0  0
   20.4650   -3.8399   -1.3744 C   0  0  0  1  0  0  0  0  0  0  0  0
   20.6858   -4.4578   -0.5292 H   0  0  0  1  0  0  0  0  0  0  0  0
   18.9469   -3.9291   -1.6977 C   0  0  0  1  0  0  0  0  0  0  0  0
   18.6841   -3.1182   -2.3445 H   0  0  0  1  0  0  0  0  0  0  0  0
   19.3001   -4.3848   -4.5204 N   0  0  0  1  0  0  0  0  0  0  0  0
   18.5430   -3.7753   -4.3943 H   0  0  0  1  0  0  0  0  0  0  0  0
   18.2092   -3.8247   -0.4773 O   0  0  0  1  0  0  0  0  0  0  0  0
   18.2994   -2.9156   -0.1822 H   0  0  0  1  0  0  0  0  0  0  0  0
   20.8270   -2.4140   -1.0620 C   0  0  0  1  0  0  0  0  0  0  0  0
   21.8895   -2.3068   -1.1294 H   0  0  0  1  0  0  0  0  0  0  0  0
   20.5078   -2.1891   -0.0657 H   0  0  0  1  0  0  0  0  0  0  0  0
   20.2179   -1.4911   -1.9552 O   0  0  0  1  0  0  0  0  0  0  0  0
   20.1045   -1.9250   -2.8040 H   0  0  0  1  0  0  0  0  0  0  0  0
   20.1307   -4.1837   -5.5636 C   0  0  0  1  0  0  0  0  0  0  0  0
   21.1707   -4.8175   -5.7221 O   0  0  0  1  0  0  0  0  0  0  0  0
   19.7038   -3.1130   -6.5487 C   0  0  0  1  0  0  0  0  0  0  0  0
   18.6620   -2.9695   -6.3512 H   0  0  0  1  0  0  0  0  0  0  0  0
   19.8563   -3.4424   -7.5553 H   0  0  0  1  0  0  0  0  0  0  0  0
   20.2487   -2.2072   -6.3829 H   0  0  0  1  0  0  0  0  0  0  0  0
  1  2  1  0  0  0  0
  1  3  1  0  0  0  0
  1  4  1  0  0  0  0
  1 44  1  0  0  0  0
  3 20  1  0  0  0  0
  4  5  1  0  0  0  0
  4  6  1  0  0  0  0
  4  8  1  0  0  0  0
  6  7  1  0  0  0  0
  8  9  1  0  0  0  0
  8 10  1  0  0  0  0
  8 20  1  0  0  0  0
 10 11  1  0  0  0  0
 12 13  1  0  0  0  0
 12 14  1  0  0  0  0
 12 15  1  0  0  0  0
 12 17  1  0  0  0  0
 15 16  1  0  0  0  0
 17 18  1  0  0  0  0
 17 19  1  0  0  0  0
 17 20  1  0  0  0  0
 19 22  1  0  0  0  0
 20 21  1  0  0  0  0
 22 23  1  0  0  0  0
 22 24  1  0  0  0  0
 22 25  1  0  0  0  0
 24 42  1  0  0  0  0
 25 26  1  0  0  0  0
 25 27  1  0  0  0  0
 25 29  1  0  0  0  0
 27 28  1  0  0  0  0
 29 30  1  0  0  0  0
 29 31  1  0  0  0  0
 29 42  1  0  0  0  0
 31 32  1  0  0  0  0
 33 34  1  0  0  0  0
 33 35  1  0  0  0  0
 33 36  1  0  0  0  0
 33 38  1  0  0  0  0
 36 37  1  0  0  0  0
 38 39  1  0  0  0  0
 38 40  1  0  0  0  0
 38 42  1  0  0  0  0
 40 41  1  0  0  0  0
 42 43  1  0  0  0  0
 44194  1  0  0  0  0
 45 46  1  0  0  0  0
 45 54  1  0  0  0  0
 46 47  1  0  0  0  0
 46 48  1  0  0  0  0
 46 49  2  0  0  0  0
 47 50  1  0  0  0  0
 50 51  1  0  0  0  0
 50 52  1  0  0  0  0
 50 53  2  0  0  0  0
 51205  1  0  0  0  0
 54 55  1  0  0  0  0
 54 56  1  0  0  0  0
 54 57  1  0  0  0  0
 57 58  1  0  0  0  0
 57 59  2  0  0  0  0
 59 60  1  0  0  0  0
 59 64  1  0  0  0  0
 60 61  1  0  0  0  0
 60 62  1  0  0  0  0
 60 63  1  0  0  0  0
 64 65  1  0  0  0  0
 64 66  1  0  0  0  0
 64 67  1  0  0  0  0
 67 68  1  0  0  0  0
 67 69  1  0  0  0  0
 67 70  1  0  0  0  0
 70 71  1  0  0  0  0
 70 72  2  0  0  0  0
 72 73  1  0  0  0  0
 72 77  1  0  0  0  0
 73 74  1  0  0  0  0
 73 75  1  0  0  0  0
 73 76  1  0  0  0  0
 77 78  1  0  0  0  0
 77 79  1  0  0  0  0
 77 80  1  0  0  0  0
 80 81  1  0  0  0  0
 80 82  1  0  0  0  0
 80 83  1  0  0  0  0
 83 84  1  0  0  0  0
 83 85  2  0  0  0  0
 85 86  1  0  0  0  0
 85 89  1  0  0  0  0
 86 87  1  0  0  0  0
 86 88  1  0  0  0  0
 86 93  1  0  0  0  0
 89 90  1  0  0  0  0
 89 91  1  0  0  0  0
 89 92  1  0  0  0  0
 93 94  1  0  0  0  0
 93 95  1  0  0  0  0
 93 96  1  0  0  0  0
 96 97  1  0  0  0  0
 96 98  2  0  0  0  0
 98 99  1  0  0  0  0
 98102  1  0  0  0  0
 99100  1  0  0  0  0
 99101  1  0  0  0  0
 99106  1  0  0  0  0
102103  1  0  0  0  0
102104  1  0  0  0  0
102105  1  0  0  0  0
106107  1  0  0  0  0
106108  1  0  0  0  0
106109  1  0  0  0  0
109110  1  0  0  0  0
109111  2  0  0  0  0
111112  1  0  0  0  0
111115  1  0  0  0  0
112113  1  0  0  0  0
112114  1  0  0  0  0
112119  1  0  0  0  0
115116  1  0  0  0  0
115117  1  0  0  0  0
115118  1  0  0  0  0
119120  1  0  0  0  0
119121  1  0  0  0  0
119122  1  0  0  0  0
122123  1  0  0  0  0
122124  2  0  0  0  0
124125  1  0  0  0  0
124128  1  0  0  0  0
125126  1  0  0  0  0
125127  1  0  0  0  0
125132  1  0  0  0  0
128129  1  0  0  0  0
128130  1  0  0  0  0
128131  1  0  0  0  0
132133  1  0  0  0  0
132134  1  0  0  0  0
132135  1  0  0  0  0
135136  1  0  0  0  0
135137  2  0  0  0  0
137138  1  0  0  0  0
137141  1  0  0  0  0
138139  1  0  0  0  0
138140  1  0  0  0  0
138145  1  0  0  0  0
141142  1  0  0  0  0
141143  1  0  0  0  0
141144  1  0  0  0  0
145146  1  0  0  0  0
145147  1  0  0  0  0
145148  1  0  0  0  0
148149  1  0  0  0  0
148150  2  0  0  0  0
150151  1  0  0  0  0
150154  1  0  0  0  0
151152  1  0  0  0  0
151153  1  0  0  0  0
151158  1  0  0  0  0
154155  1  0  0  0  0
154156  1  0  0  0  0
154157  1  0  0  0  0
158159  1  0  0  0  0
158160  1  0  0  0  0
158161  1  0  0  0  0
161162  1  0  0  0  0
161163  2  0  0  0  0
163164  1  0  0  0  0
163167  1  0  0  0  0
164165  1  0  0  0  0
164166  1  0  0  0  0
164171  1  0  0  0  0
167168  1  0  0  0  0
167169  1  0  0  0  0
167170  1  0  0  0  0
171172  1  0  0  0  0
171173  1  0  0  0  0
171174  1  0  0  0  0
174175  1  0  0  0  0
174176  2  0  0  0  0
176177  1  0  0  0  0
176181  1  0  0  0  0
177178  1  0  0  0  0
177179  1  0  0  0  0
177180  1  0  0  0  0
181182  1  0  0  0  0
181183  1  0  0  0  0
181184  1  0  0  0  0
185186  1  0  0  0  0
185187  1  0  0  0  0
185189  1  0  0  0  0
185196  1  0  0  0  0
187188  1  0  0  0  0
187190  1  0  0  0  0
187197  1  0  0  0  0
189192  1  0  0  0  0
190191  1  0  0  0  0
190194  1  0  0  0  0
190199  1  0  0  0  0
192193  1  0  0  0  0
192194  1  0  0  0  0
192201  1  0  0  0  0
194195  1  0  0  0  0
196210  1  0  0  0  0
197198  1  0  0  0  0
199200  1  0  0  0  0
201202  1  0  0  0  0
201203  1  0  0  0  0
201204  1  0  0  0  0
205206  1  0  0  0  0
205207  1  0  0  0  0
205209  1  0  0  0  0
207208  1  0  0  0  0
207210  1  0  0  0  0
207216  1  0  0  0  0
209212  1  0  0  0  0
210211  1  0  0  0  0
210214  1  0  0  0  0
212213  1  0  0  0  0
212214  1  0  0  0  0
212220  1  0  0  0  0
214215  1  0  0  0  0
214218  1  0  0  0  0
216217  1  0  0  0  0
216225  1  0  0  0  0
218219  1  0  0  0  0
220221  1  0  0  0  0
220222  1  0  0  0  0
220223  1  0  0  0  0
223224  1  0  0  0  0
225226  2  0  0  0  0
225227  1  0  0  0  0
227228  1  0  0  0  0
227229  1  0  0  0  0
227230  1  0  0  0  0
M  BCL ATM C_TeTeTeTe H_S O_Te2Te2TeTe C_TeTeTeTe H_S O_Te2Te2TeTe H_S C_TeTeTeTe H_S O_Te2Te2TeTe H_S C_TeTeTeTe H_S H_S O_Te2Te2TeTe H_S C_TeTeTeTe H_S O_Te2Te2TeTe C_TeTeTeTe H_S C_TeTeTeTe H_S O_Te2Te2TeTe C_TeTeTeTe H_S O_Te2Te2TeTe H_S C_TeTeTeTe H_S O_Te2Te2TeTe H_S C_TeTeTeTe H_S H_S O_Te2Te2TeTe H_S C_TeTeTeTe H_S O_Te2Te2TeTe H_S C_TeTeTeTe H_S O_Te2Te2TeTe O_Tr2TrTrPi2 P_TeTeTeTePi O_Tr2TrTrPi2 O_Te2Te2TeTe O_Tr2Tr2TrPi P_TeTeTeTePi O_Tr2TrTrPi2 O_Te2Te2TeTe O_Tr2Tr2TrPi C_TeTeTeTe H_S H_S C_TrTrTrPi H_S C_TrTrTrPi C_TeTeTeTe H_S H_S H_S C_TeTeTeTe H_S H_S C_TeTeTeTe H_S H_S C_TrTrTrPi H_S C_TrTrTrPi C_TeTeTeTe H_S H_S H_S C_TeTeTeTe H_S H_S C_TeTeTeTe H_S H_S C_TrTrTrPi H_S C_TrTrTrPi C_TeTeTeTe H_S H_S C_TeTeTeTe H_S H_S H_S C_TeTeTeTe H_S H_S C_TrTrTrPi H_S C_TrTrTrPi C_TeTeTeTe H_S H_S C_TeTeTeTe H_S H_S H_S C_TeTeTeTe H_S H_S C_TrTrTrPi H_S C_TrTrTrPi C_TeTeTeTe H_S H_S C_TeTeTeTe H_S H_S H_S C_TeTeTeTe H_S H_S C_TrTrTrPi H_S C_TrTrTrPi C_TeTeTeTe H_S H_S C_TeTeTeTe H_S H_S H_S C_TeTeTeTe H_S H_S C_TrTrTrPi H_S C_TrTrTrPi C_TeTeTeTe H_S H_S C_TeTeTeTe H_S H_S H_S C_TeTeTeTe H_S H_S C_TrTrTrPi H_S C_TrTrTrPi C_TeTeTeTe H_S H_S C_TeTeTeTe H_S H_S H_S C_TeTeTeTe H_S H_S C_TrTrTrPi H_S C_TrTrTrPi C_TeTeTeTe H_S H_S C_TeTeTeTe H_S H_S H_S C_TeTeTeTe H_S H_S C_TrTrTrPi H_S C_TrTrTrPi C_TeTeTeTe H_S H_S H_S C_TeTeTeTe H_S H_S H_S C_TeTeTeTe H_S C_TeTeTeTe H_S O_Te2Te2TeTe C_TeTeTeTe H_S C_TeTeTeTe H_S C_TeTeTeTe H_S O_Te2Te2TeTe O_Te2Te2TeTe H_S O_Te2Te2TeTe H_S C_TeTeTeTe H_S H_S H_S C_TeTeTeTe H_S C_TeTeTeTe H_S O_Te2Te2TeTe C_TeTeTeTe H_S C_TeTeTeTe H_S C_TeTeTeTe H_S N_TrTrTrPi2 H_S O_Te2Te2TeTe H_S C_TeTeTeTe H_S H_S O_Te2Te2TeTe H_S C_TrTrTrPi O_Tr2Tr2TrPi C_TeTeTeTe H_S H_S H_S
M  BCL BND NonConjugatedSingleBond NonConjugatedSingleBondInRing NonConjugatedSingleBondInRing NonConjugatedSingleBond NonConjugatedSingleBondInRing NonConjugatedSingleBond NonConjugatedSingleBond NonConjugatedSingleBondInRing NonConjugatedSingleBond NonConjugatedSingleBond NonConjugatedSingleBond NonConjugatedSingleBondInRing NonConjugatedSingleBond NonConjugatedSingleBond NonConjugatedSingleBond NonConjugatedSingleBond NonConjugatedSingleBond NonConjugatedSingleBond NonConjugatedSingleBond NonConjugatedSingleBond NonConjugatedSingleBond NonConjugatedSingleBond NonConjugatedSingleBond NonConjugatedSingleBond NonConjugatedSingleBondInRing NonConjugatedSingleBondInRing NonConjugatedSingleBondInRing NonConjugatedSingleBond NonConjugatedSingleBond NonConjugatedSingleBondInRing NonConjugatedSingleBond NonConjugatedSingleBond NonConjugatedSingleBond NonConjugatedSingleBondInRing NonConjugatedSingleBond NonConjugatedSingleBond NonConjugatedSingleBond NonConjugatedSingleBond NonConjugatedSingleBond NonConjugatedSingleBond NonConjugatedSingleBond NonConjugatedSingleBond NonConjugatedSingleBond NonConjugatedSingleBond NonConjugatedSingleBond NonConjugatedSingleBond ConjugatedSingleBond NonConjugatedSingleBond ConjugatedSingleBond ConjugatedSingleBond ConjugatedDoubleBond ConjugatedSingleBond ConjugatedSingleBond ConjugatedSingleBond ConjugatedDoubleBond NonConjugatedSingleBond NonConjugatedSingleBond NonConjugatedSingleBond NonConjugatedSingleBond NonConjugatedSingleBond ConjugatedDoubleBond NonConjugatedSingleBond NonConjugatedSingleBond NonConjugatedSingleBond NonConjugatedSingleBond NonConjugatedSingleBond NonConjugatedSingleBond NonConjugatedSingleBond NonConjugatedSingleBond NonConjugatedSingleBond NonConjugatedSingleBond NonConjugatedSingleBond NonConjugatedSingleBond ConjugatedDoubleBond NonConjugatedSingleBond NonConjugatedSingleBond NonConjugatedSingleBond NonConjugatedSingleBond NonConjugatedSingleBond NonConjugatedSingleBond NonConjugatedSingleBond NonConjugatedSingleBond NonConjugatedSingleBond NonConjugatedSingleBond NonConjugatedSingleBond NonConjugatedSingleBond ConjugatedDoubleBond NonConjugatedSingleBond NonConjugatedSingleBond NonConjugatedSingleBond NonConjugatedSingleBond NonConjugatedSingleBond NonConjugatedSingleBond NonConjugatedSingleBond NonConjugatedSingleBond NonConjugatedSingleBond NonConjugatedSingleBond NonConjugatedSingleBond NonConjugatedSingleBond ConjugatedDoubleBond NonConjugatedSingleBond NonConjugatedSingleBond NonConjugatedSingleBond NonConjugatedSingleBond NonConjugatedSingleBond NonConjugatedSingleBond NonConjugatedSingleBond NonConjugatedSingleBond NonConjugatedSingleBond NonConjugatedSingleBond NonConjugatedSingleBond NonConjugatedSingleBond ConjugatedDoubleBond NonConjugatedSingleBond NonConjugatedSingleBond NonConjugatedSingleBond NonConjugatedSingleBond NonConjugatedSingleBond NonConjugatedSingleBond NonConjugatedSingleBond NonConjugatedSingleBond NonConjugatedSingleBond NonConjugatedSingleBond NonConjugatedSingleBond NonConjugatedSingleBond ConjugatedDoubleBond NonConjugatedSingleBond NonConjugatedSingleBond NonConjugatedSingleBond NonConjugatedSingleBond NonConjugatedSingleBond NonConjugatedSingleBond NonConjugatedSingleBond NonConjugatedSingleBond NonConjugatedSingleBond NonConjugatedSingleBond NonConjugatedSingleBond NonConjugatedSingleBond ConjugatedDoubleBond NonConjugatedSingleBond NonConjugatedSingleBond NonConjugatedSingleBond NonConjugatedSingleBond NonConjugatedSingleBond NonConjugatedSingleBond NonConjugatedSingleBond NonConjugatedSingleBond NonConjugatedSingleBond NonConjugatedSingleBond NonConjugatedSingleBond NonConjugatedSingleBond ConjugatedDoubleBond NonConjugatedSingleBond NonConjugatedSingleBond NonConjugatedSingleBond NonConjugatedSingleBond NonConjugatedSingleBond NonConjugatedSingleBond NonConjugatedSingleBond NonConjugatedSingleBond NonConjugatedSingleBond NonConjugatedSingleBond NonConjugatedSingleBond NonConjugatedSingleBond ConjugatedDoubleBond NonConjugatedSingleBond NonConjugatedSingleBond NonConjugatedSingleBond NonConjugatedSingleBond NonConjugatedSingleBond NonConjugatedSingleBond NonConjugatedSingleBond NonConjugatedSingleBond NonConjugatedSingleBond NonConjugatedSingleBond NonConjugatedSingleBond NonConjugatedSingleBond ConjugatedDoubleBond NonConjugatedSingleBond NonConjugatedSingleBond NonConjugatedSingleBond NonConjugatedSingleBond NonConjugatedSingleBond NonConjugatedSingleBond NonConjugatedSingleBond NonConjugatedSingleBond NonConjugatedSingleBond NonConjugatedSingleBondInRing NonConjugatedSingleBondInRing NonConjugatedSingleBond NonConjugatedSingleBond NonConjugatedSingleBondInRing NonConjugatedSingleBond NonConjugatedSingleBondInRing NonConjugatedSingleBond NonConjugatedSingleBondInRing NonConjugatedSingleBond NonConjugatedSingleBond NonConjugatedSingleBondInRing NonConjugatedSingleBond NonConjugatedSingleBond NonConjugatedSingleBond NonConjugatedSingleBond NonConjugatedSingleBond NonConjugatedSingleBond NonConjugatedSingleBond NonConjugatedSingleBond NonConjugatedSingleBond NonConjugatedSingleBondInRing NonConjugatedSingleBondInRing NonConjugatedSingleBond NonConjugatedSingleBondInRing NonConjugatedSingleBond NonConjugatedSingleBondInRing NonConjugatedSingleBond NonConjugatedSingleBondInRing NonConjugatedSingleBond NonConjugatedSingleBondInRing NonConjugatedSingleBond NonConjugatedSingleBond NonConjugatedSingleBond NonConjugatedSingleBond AmideSingleBond NonConjugatedSingleBond NonConjugatedSingleBond NonConjugatedSingleBond NonConjugatedSingleBond NonConjugatedSingleBond ConjugatedDoubleBond NonConjugatedSingleBond NonConjugatedSingleBond NonConjugatedSingleBond NonConjugatedSingleBond
M  BCL CHI   1   R   4   R   8   R  17   S  20   R  22   S  25   R  29   S  38   S  42   R  46   R  50   S 185   R 187   S 190   S 192   R 194   R 205   R 207   S 210   R 212   S 214   S
M  BCL DBI - - E E E E E E E E Z - -
M  END
> <ConfClashScore>
0.00188726 

> <ConfOneFourInteractionScore>
-0.967694 

> <ConfScore>
0.396279 

> <ConfScorePBest>
0.0134505 

> <ConfTolerance>
3.50541 

$$$$
L05.****
  PyMOL2.5          3D                             0

230233  0  0  0  0  0  0  0  0999 V2000
   12.1742   -2.4405   -2.3782 C   0  0  0  1  0  0  0  0  0  0  0  0
   11.6896   -2.9298   -3.1972 H   0  0  0  1  0  0  0  0  0  0  0  0
   12.5435   -1.1344   -2.7283 O   0  0  0  1  0  0  0  0  0  0  0  0
   11.2035   -2.2573   -1.2026 C   0  0  0  1  0  0  0  0  0  0  0  0
   11.2100   -3.1129   -0.5601 H   0  0  0  1  0  0  0  0  0  0  0  0
    9.8734   -2.0187   -1.6655 O   0  0  0  1  0  0  0  0  0  0  0  0
    9.3560   -2.8231   -1.5824 H   0  0  0  1  0  0  0  0  0  0  0  0
   11.7594   -1.0465   -0.5002 C   0  0  0  1  0  0  0  0  0  0  0  0
   10.9903   -0.5219    0.0272 H   0  0  0  1  0  0  0  0  0  0  0  0
   12.7968   -1.4137    0.4105 O   0  0  0  1  0  0  0  0  0  0  0  0
   13.6289   -1.0348    0.1180 H   0  0  0  1  0  0  0  0  0  0  0  0
   11.8426    1.6348   -3.2543 C   0  0  0  1  0  0  0  0  0  0  0  0
   12.7570    2.1165   -2.9774 H   0  0  0  1  0  0  0  0  0  0  0  0
   12.0249    0.9624   -4.0665 H   0  0  0  1  0  0  0  0  0  0  0  0
   10.8950    2.6152   -3.6562 O   0  0  0  1  0  0  0  0  0  0  0  0
   10.3211    2.2479   -4.3325 H   0  0  0  1  0  0  0  0  0  0  0  0
   11.3025    0.8581   -2.0682 C   0  0  0  1  0  0  0  0  0  0  0  0
   10.3971    0.3694   -2.3620 H   0  0  0  1  0  0  0  0  0  0  0  0
   11.0354    1.7917   -1.0281 O   0  0  0  1  0  0  0  0  0  0  0  0
   12.3125   -0.1996   -1.6503 C   0  0  0  1  0  0  0  0  0  0  0  0
   13.2273    0.2743   -1.3616 H   0  0  0  1  0  0  0  0  0  0  0  0
    9.9118    1.4614   -0.2428 C   0  0  0  1  0  0  0  0  0  0  0  0
    9.3725    0.6634   -0.7089 H   0  0  0  1  0  0  0  0  0  0  0  0
   10.3244    1.0722    1.0369 O   0  0  0  1  0  0  0  0  0  0  0  0
    9.0003    2.6898   -0.0937 C   0  0  0  1  0  0  0  0  0  0  0  0
    7.9702    2.4208   -0.2009 H   0  0  0  1  0  0  0  0  0  0  0  0
    9.3324    3.6964   -1.0511 O   0  0  0  1  0  0  0  0  0  0  0  0
    8.7930    3.5817   -1.8369 H   0  0  0  1  0  0  0  0  0  0  0  0
    9.3024    3.1636    1.3343 C   0  0  0  1  0  0  0  0  0  0  0  0
    8.4402    3.6168    1.7772 H   0  0  0  1  0  0  0  0  0  0  0  0
   10.3849    4.0898    1.3450 O   0  0  0  1  0  0  0  0  0  0  0  0
   10.3989    4.5759    0.5173 H   0  0  0  1  0  0  0  0  0  0  0  0
    8.0609   -0.0124    1.7460 C   0  0  0  1  0  0  0  0  0  0  0  0
    8.9167   -0.6430    1.6252 H   0  0  0  1  0  0  0  0  0  0  0  0
    7.2803   -0.5589    2.2328 H   0  0  0  1  0  0  0  0  0  0  0  0
    7.6096    0.4203    0.4706 O   0  0  0  1  0  0  0  0  0  0  0  0
    7.9684   -0.1555   -0.2086 H   0  0  0  1  0  0  0  0  0  0  0  0
    8.4377    1.1957    2.5937 C   0  0  0  1  0  0  0  0  0  0  0  0
    8.6287    0.8698    3.5948 H   0  0  0  1  0  0  0  0  0  0  0  0
    7.3530    2.1251    2.5769 O   0  0  0  1  0  0  0  0  0  0  0  0
    7.0623    2.2946    3.4760 H   0  0  0  1  0  0  0  0  0  0  0  0
    9.6745    1.8896    2.0575 C   0  0  0  1  0  0  0  0  0  0  0  0
   10.3472    2.0943    2.8640 H   0  0  0  1  0  0  0  0  0  0  0  0
   13.3119   -3.1963   -1.9794 O   0  0  0  1  0  0  0  0  0  0  0  0
   19.6117   -5.1123  -10.2014 O   0  0  0  1  0  0  0  0  0  0  0  0
   18.8978   -4.1010   -9.2356 P   0  0  0  1  0  0  0  0  0  0  0  0
   18.5950   -5.0462   -7.9715 O   0  0  0  1  0  0  0  0  0  0  0  0
   17.6728   -3.5067   -9.8842 O   0  0  0  0  0  0  0  0  0  0  0  0
   19.9590   -3.1583   -8.8385 O   0  0  0  1  0  0  0  0  0  0  0  0
   18.1595   -6.5814   -7.9786 P   0  0  0  1  0  0  0  0  0  0  0  0
   18.6746   -6.9717   -6.5518 O   0  0  0  1  0  0  0  0  0  0  0  0
   18.8966   -7.3428   -9.0165 O   0  0  0  0  0  0  0  0  0  0  0  0
   16.7318   -6.6157   -7.8787 O   0  0  0  1  0  0  0  0  0  0  0  0
   20.7760   -4.7744  -10.9716 C   0  0  0  1  0  0  0  0  0  0  0  0
   21.6419   -4.7944  -10.3434 H   0  0  0  1  0  0  0  0  0  0  0  0
   20.6603   -3.7962  -11.3893 H   0  0  0  1  0  0  0  0  0  0  0  0
   20.9284   -5.7812  -12.0756 C   0  0  0  1  0  0  0  0  0  0  0  0
   21.4913   -6.6278  -11.8564 H   0  0  0  1  0  0  0  0  0  0  0  0
   20.4226   -5.7076  -13.3009 C   0  0  0  1  0  0  0  0  0  0  0  0
   20.3669   -6.9114  -14.1960 C   0  0  0  1  0  0  0  0  0  0  0  0
   20.9595   -7.6969  -13.7756 H   0  0  0  1  0  0  0  0  0  0  0  0
   20.7485   -6.6551  -15.1622 H   0  0  0  1  0  0  0  0  0  0  0  0
   19.3529   -7.2403  -14.2882 H   0  0  0  1  0  0  0  0  0  0  0  0
   19.8680   -4.4484  -13.9053 C   0  0  0  1  0  0  0  0  0  0  0  0
   19.8755   -3.6893  -13.1512 H   0  0  0  1  0  0  0  0  0  0  0  0
   18.8599   -4.6430  -14.2063 H   0  0  0  1  0  0  0  0  0  0  0  0
   20.6237   -3.9175  -15.1125 C   0  0  0  1  0  0  0  0  0  0  0  0
   20.6410   -4.6780  -15.8650 H   0  0  0  1  0  0  0  0  0  0  0  0
   21.6251   -3.6880  -14.8136 H   0  0  0  1  0  0  0  0  0  0  0  0
   20.0026   -2.6777  -15.6985 C   0  0  0  1  0  0  0  0  0  0  0  0
   19.9280   -1.8410  -15.0854 H   0  0  0  1  0  0  0  0  0  0  0  0
   19.5430   -2.5729  -16.9397 C   0  0  0  1  0  0  0  0  0  0  0  0
   18.6507   -1.4354  -17.3489 C   0  0  0  1  0  0  0  0  0  0  0  0
   19.1856   -0.7796  -18.0037 H   0  0  0  1  0  0  0  0  0  0  0  0
   18.3402   -0.8952  -16.4791 H   0  0  0  1  0  0  0  0  0  0  0  0
   17.7909   -1.8214  -17.8555 H   0  0  0  1  0  0  0  0  0  0  0  0
   19.8571   -3.5525  -18.0367 C   0  0  0  1  0  0  0  0  0  0  0  0
   20.4581   -4.3335  -17.6199 H   0  0  0  1  0  0  0  0  0  0  0  0
   20.4144   -3.0366  -18.7905 H   0  0  0  1  0  0  0  0  0  0  0  0
   18.6505   -4.1941  -18.7024 C   0  0  0  1  0  0  0  0  0  0  0  0
   18.0866   -3.4202  -19.1799 H   0  0  0  1  0  0  0  0  0  0  0  0
   18.0558   -4.6500  -17.9386 H   0  0  0  1  0  0  0  0  0  0  0  0
   18.9652   -5.2437  -19.7345 C   0  0  0  1  0  0  0  0  0  0  0  0
   19.5238   -6.0592  -19.4111 H   0  0  0  1  0  0  0  0  0  0  0  0
   18.6069   -5.2413  -21.0129 C   0  0  0  1  0  0  0  0  0  0  0  0
   17.5394   -4.3135  -21.5243 C   0  0  0  1  0  0  0  0  0  0  0  0
   17.9406   -3.7766  -22.3584 H   0  0  0  1  0  0  0  0  0  0  0  0
   17.2962   -3.6265  -20.7409 H   0  0  0  1  0  0  0  0  0  0  0  0
   19.2119   -6.1391  -22.0553 C   0  0  0  1  0  0  0  0  0  0  0  0
   18.7031   -5.9991  -22.9861 H   0  0  0  1  0  0  0  0  0  0  0  0
   19.1159   -7.1590  -21.7464 H   0  0  0  1  0  0  0  0  0  0  0  0
   20.2475   -5.8982  -22.1755 H   0  0  0  1  0  0  0  0  0  0  0  0
   16.2527   -4.9859  -21.9745 C   0  0  0  1  0  0  0  0  0  0  0  0
   15.9364   -5.6631  -21.2088 H   0  0  0  1  0  0  0  0  0  0  0  0
   16.4499   -5.5307  -22.8741 H   0  0  0  1  0  0  0  0  0  0  0  0
   15.1474   -4.0167  -22.2382 C   0  0  0  1  0  0  0  0  0  0  0  0
   15.2966   -3.2803  -22.9572 H   0  0  0  1  0  0  0  0  0  0  0  0
   13.9724   -4.0494  -21.5939 C   0  0  0  1  0  0  0  0  0  0  0  0
   13.5214   -5.2380  -20.7879 C   0  0  0  1  0  0  0  0  0  0  0  0
   14.1479   -6.0710  -21.0297 H   0  0  0  1  0  0  0  0  0  0  0  0
   12.5093   -5.4640  -21.0515 H   0  0  0  1  0  0  0  0  0  0  0  0
   13.0623   -2.8446  -21.6791 C   0  0  0  1  0  0  0  0  0  0  0  0
   13.6458   -1.9695  -21.8759 H   0  0  0  1  0  0  0  0  0  0  0  0
   12.5418   -2.7249  -20.7519 H   0  0  0  1  0  0  0  0  0  0  0  0
   12.3556   -2.9870  -22.4697 H   0  0  0  1  0  0  0  0  0  0  0  0
   13.5892   -5.0008  -19.2881 C   0  0  0  1  0  0  0  0  0  0  0  0
   13.3117   -3.9886  -19.0801 H   0  0  0  1  0  0  0  0  0  0  0  0
   14.5898   -5.1734  -18.9505 H   0  0  0  1  0  0  0  0  0  0  0  0
   12.6552   -5.9287  -18.5582 C   0  0  0  1  0  0  0  0  0  0  0  0
   12.8551   -6.9482  -18.6058 H   0  0  0  1  0  0  0  0  0  0  0  0
   11.5899   -5.5406  -17.8546 C   0  0  0  1  0  0  0  0  0  0  0  0
   11.1010   -4.1222  -17.9032 C   0  0  0  1  0  0  0  0  0  0  0  0
   11.7681   -3.5528  -18.5161 H   0  0  0  1  0  0  0  0  0  0  0  0
   11.1038   -3.7267  -16.9090 H   0  0  0  1  0  0  0  0  0  0  0  0
   10.8378   -6.5064  -16.9865 C   0  0  0  1  0  0  0  0  0  0  0  0
   11.4482   -7.3638  -16.7941 H   0  0  0  1  0  0  0  0  0  0  0  0
    9.9420   -6.8115  -17.4859 H   0  0  0  1  0  0  0  0  0  0  0  0
   10.5868   -6.0325  -16.0606 H   0  0  0  1  0  0  0  0  0  0  0  0
    9.6963   -3.9957  -18.4702 C   0  0  0  1  0  0  0  0  0  0  0  0
    9.2666   -3.0730  -18.1402 H   0  0  0  1  0  0  0  0  0  0  0  0
    9.1013   -4.8126  -18.1188 H   0  0  0  1  0  0  0  0  0  0  0  0
    9.7241   -4.0167  -19.9655 C   0  0  0  1  0  0  0  0  0  0  0  0
   10.6451   -4.2070  -20.4095 H   0  0  0  1  0  0  0  0  0  0  0  0
    8.6960   -3.8180  -20.7912 C   0  0  0  1  0  0  0  0  0  0  0  0
    7.4229   -3.2142  -20.2696 C   0  0  0  1  0  0  0  0  0  0  0  0
    7.3733   -3.3830  -19.2142 H   0  0  0  1  0  0  0  0  0  0  0  0
    6.5962   -3.6968  -20.7477 H   0  0  0  1  0  0  0  0  0  0  0  0
    8.7674   -4.0734  -22.2821 C   0  0  0  1  0  0  0  0  0  0  0  0
    9.2102   -3.2293  -22.7682 H   0  0  0  1  0  0  0  0  0  0  0  0
    7.7803   -4.2279  -22.6649 H   0  0  0  1  0  0  0  0  0  0  0  0
    9.3623   -4.9435  -22.4665 H   0  0  0  1  0  0  0  0  0  0  0  0
    7.3243   -1.7191  -20.5256 C   0  0  0  1  0  0  0  0  0  0  0  0
    7.4837   -1.5302  -21.5667 H   0  0  0  1  0  0  0  0  0  0  0  0
    8.0739   -1.2149  -19.9522 H   0  0  0  1  0  0  0  0  0  0  0  0
    5.9766   -1.2017  -20.1340 C   0  0  0  1  0  0  0  0  0  0  0  0
    5.1449   -1.6423  -20.5763 H   0  0  0  1  0  0  0  0  0  0  0  0
    5.7631   -0.2220  -19.2638 C   0  0  0  1  0  0  0  0  0  0  0  0
    6.8760    0.6918  -18.8253 C   0  0  0  1  0  0  0  0  0  0  0  0
    6.4923    1.6885  -18.7593 H   0  0  0  1  0  0  0  0  0  0  0  0
    7.6545    0.6566  -19.5584 H   0  0  0  1  0  0  0  0  0  0  0  0
    4.4268    0.0711  -18.6418 C   0  0  0  1  0  0  0  0  0  0  0  0
    4.5419    0.8165  -17.8829 H   0  0  0  1  0  0  0  0  0  0  0  0
    4.0326   -0.8232  -18.2062 H   0  0  0  1  0  0  0  0  0  0  0  0
    3.7545    0.4286  -19.3935 H   0  0  0  1  0  0  0  0  0  0  0  0
    7.4638    0.3095  -17.4767 C   0  0  0  1  0  0  0  0  0  0  0  0
    7.7167   -0.7300  -17.4977 H   0  0  0  1  0  0  0  0  0  0  0  0
    6.7253    0.4822  -16.7219 H   0  0  0  1  0  0  0  0  0  0  0  0
    8.6855    1.0875  -17.1312 C   0  0  0  1  0  0  0  0  0  0  0  0
    9.3463    1.2045  -17.9257 H   0  0  0  1  0  0  0  0  0  0  0  0
    9.0952    1.6608  -16.0060 C   0  0  0  1  0  0  0  0  0  0  0  0
    8.2711    1.5964  -14.7512 C   0  0  0  1  0  0  0  0  0  0  0  0
    8.1836    0.5724  -14.4535 H   0  0  0  1  0  0  0  0  0  0  0  0
    7.2992    1.9916  -14.9614 H   0  0  0  1  0  0  0  0  0  0  0  0
   10.3870    2.4124  -15.8708 C   0  0  0  1  0  0  0  0  0  0  0  0
   11.1846    1.7223  -15.6909 H   0  0  0  1  0  0  0  0  0  0  0  0
   10.3168    3.0975  -15.0519 H   0  0  0  1  0  0  0  0  0  0  0  0
   10.5807    2.9534  -16.7734 H   0  0  0  1  0  0  0  0  0  0  0  0
    8.8755    2.3847  -13.6008 C   0  0  0  1  0  0  0  0  0  0  0  0
    9.0650    3.3835  -13.9347 H   0  0  0  1  0  0  0  0  0  0  0  0
    9.7978    1.9217  -13.3180 H   0  0  0  1  0  0  0  0  0  0  0  0
    7.9894    2.4447  -12.4057 C   0  0  0  1  0  0  0  0  0  0  0  0
    7.0090    2.7745  -12.5135 H   0  0  0  1  0  0  0  0  0  0  0  0
    8.4277    2.0848  -11.2041 C   0  0  0  1  0  0  0  0  0  0  0  0
    7.5724    1.8943   -9.9801 C   0  0  0  1  0  0  0  0  0  0  0  0
    8.0442    2.4028   -9.1654 H   0  0  0  1  0  0  0  0  0  0  0  0
    7.5271    0.8464   -9.7689 H   0  0  0  1  0  0  0  0  0  0  0  0
    9.8956    1.8351  -11.0005 C   0  0  0  1  0  0  0  0  0  0  0  0
   10.0086    0.7711  -11.0094 H   0  0  0  1  0  0  0  0  0  0  0  0
   10.2165    2.2373  -10.0624 H   0  0  0  1  0  0  0  0  0  0  0  0
   10.4633    2.2779  -11.7920 H   0  0  0  1  0  0  0  0  0  0  0  0
    6.1477    2.4117  -10.0939 C   0  0  0  1  0  0  0  0  0  0  0  0
    5.6755    1.9294  -10.9241 H   0  0  0  1  0  0  0  0  0  0  0  0
    6.1814    3.4673  -10.2660 H   0  0  0  1  0  0  0  0  0  0  0  0
    5.3315    2.1553   -8.8670 C   0  0  0  1  0  0  0  0  0  0  0  0
    5.6707    1.4266   -8.2069 H   0  0  0  1  0  0  0  0  0  0  0  0
    4.2054    2.7890   -8.5574 C   0  0  0  1  0  0  0  0  0  0  0  0
    3.3966    2.5015   -7.3156 C   0  0  0  1  0  0  0  0  0  0  0  0
    3.8978    2.9062   -6.4613 H   0  0  0  1  0  0  0  0  0  0  0  0
    3.2888    1.4435   -7.1975 H   0  0  0  1  0  0  0  0  0  0  0  0
    2.4299    2.9509   -7.4078 H   0  0  0  1  0  0  0  0  0  0  0  0
    3.6404    3.8632   -9.4405 C   0  0  0  1  0  0  0  0  0  0  0  0
    3.3696    4.6847   -8.8107 H   0  0  0  1  0  0  0  0  0  0  0  0
    2.7769    3.4969   -9.9553 H   0  0  0  1  0  0  0  0  0  0  0  0
    4.3754    4.1752  -10.1528 H   0  0  0  1  0  0  0  0  0  0  0  0
   16.2954   -5.1059   -1.9101 C   0  0  0  1  0  0  0  0  0  0  0  0
   16.7536   -5.6493   -1.1103 H   0  0  0  1  0  0  0  0  0  0  0  0
   14.9441   -5.7279   -2.2377 C   0  0  0  1  0  0  0  0  0  0  0  0
   15.0814   -6.7367   -2.5668 H   0  0  0  1  0  0  0  0  0  0  0  0
   16.1099   -3.7443   -1.5161 O   0  0  0  1  0  0  0  0  0  0  0  0
   14.2883   -4.9057   -3.3515 C   0  0  0  1  0  0  0  0  0  0  0  0
   13.2861   -5.2537   -3.4907 H   0  0  0  1  0  0  0  0  0  0  0  0
   15.6190   -2.9275   -2.5904 C   0  0  0  1  0  0  0  0  0  0  0  0
   16.2974   -2.9817   -3.4161 H   0  0  0  1  0  0  0  0  0  0  0  0
   14.2488   -3.4218   -3.0298 C   0  0  0  1  0  0  0  0  0  0  0  0
   13.9443   -2.8818   -3.9019 H   0  0  0  1  0  0  0  0  0  0  0  0
   17.1322   -5.1571   -3.0598 O   0  0  0  1  0  0  0  0  0  0  0  0
   14.1113   -5.7143   -1.0733 O   0  0  0  1  0  0  0  0  0  0  0  0
   13.2043   -5.9019   -1.3258 H   0  0  0  1  0  0  0  0  0  0  0  0
   15.0258   -5.0926   -4.5507 O   0  0  0  1  0  0  0  0  0  0  0  0
   15.7440   -5.7096   -4.3923 H   0  0  0  1  0  0  0  0  0  0  0  0
   15.5080   -1.4869   -2.1186 C   0  0  0  1  0  0  0  0  0  0  0  0
   15.2374   -1.4699   -1.0835 H   0  0  0  1  0  0  0  0  0  0  0  0
   14.7589   -0.9810   -2.6912 H   0  0  0  1  0  0  0  0  0  0  0  0
   16.4496   -0.9956   -2.2489 H   0  0  0  1  0  0  0  0  0  0  0  0
   18.6069   -6.1296   -5.3807 C   0  0  0  1  0  0  0  0  0  0  0  0
   17.8883   -5.3531   -5.5401 H   0  0  0  1  0  0  0  0  0  0  0  0
   18.1981   -6.9554   -4.1916 C   0  0  0  1  0  0  0  0  0  0  0  0
   18.8933   -7.7582   -4.0611 H   0  0  0  1  0  0  0  0  0  0  0  0
   19.8767   -5.5551   -5.1385 O   0  0  0  1  0  0  0  0  0  0  0  0
   18.1871   -6.1007   -2.9575 C   0  0  0  1  0  0  0  0  0  0  0  0
   18.0263   -6.7251   -2.1037 H   0  0  0  1  0  0  0  0  0  0  0  0
   19.8255   -4.6063   -4.0580 C   0  0  0  1  0  0  0  0  0  0  0  0
   20.7742   -4.1222   -3.9552 H   0  0  0  1  0  0  0  0  0  0  0  0
   19.4929   -5.3603   -2.7853 C   0  0  0  1  0  0  0  0  0  0  0  0
   19.4044   -4.6676   -1.9746 H   0  0  0  1  0  0  0  0  0  0  0  0
   16.8704   -7.4959   -4.4145 N   0  0  0  1  0  0  0  0  0  0  0  0
   16.1700   -7.2743   -3.7659 H   0  0  0  1  0  0  0  0  0  0  0  0
   20.5346   -6.2954   -2.5018 O   0  0  0  1  0  0  0  0  0  0  0  0
   20.6110   -6.3355   -1.5456 H   0  0  0  1  0  0  0  0  0  0  0  0
   18.7655   -3.5788   -4.3327 C   0  0  0  1  0  0  0  0  0  0  0  0
   18.1372   -3.4773   -3.4725 H   0  0  0  1  0  0  0  0  0  0  0  0
   18.1768   -3.8903   -5.1702 H   0  0  0  1  0  0  0  0  0  0  0  0
   19.3751   -2.3279   -4.6227 O   0  0  0  1  0  0  0  0  0  0  0  0
   20.0120   -2.4608   -5.3286 H   0  0  0  1  0  0  0  0  0  0  0  0
   16.5424   -8.2748   -5.4458 C   0  0  0  1  0  0  0  0  0  0  0  0
   17.3777   -8.8330   -6.1559 O   0  0  0  1  0  0  0  0  0  0  0  0
   15.0568   -8.4388   -5.7011 C   0  0  0  1  0  0  0  0  0  0  0  0
   14.9945   -9.2426   -6.4046 H   0  0  0  1  0  0  0  0  0  0  0  0
   14.6423   -7.5424   -6.1130 H   0  0  0  1  0  0  0  0  0  0  0  0
   14.5425   -8.6872   -4.7962 H   0  0  0  1  0  0  0  0  0  0  0  0
  1  2  1  0  0  0  0
  1  3  1  0  0  0  0
  1  4  1  0  0  0  0
  1 44  1  0  0  0  0
  3 20  1  0  0  0  0
  4  5  1  0  0  0  0
  4  6  1  0  0  0  0
  4  8  1  0  0  0  0
  6  7  1  0  0  0  0
  8  9  1  0  0  0  0
  8 10  1  0  0  0  0
  8 20  1  0  0  0  0
 10 11  1  0  0  0  0
 12 13  1  0  0  0  0
 12 14  1  0  0  0  0
 12 15  1  0  0  0  0
 12 17  1  0  0  0  0
 15 16  1  0  0  0  0
 17 18  1  0  0  0  0
 17 19  1  0  0  0  0
 17 20  1  0  0  0  0
 19 22  1  0  0  0  0
 20 21  1  0  0  0  0
 22 23  1  0  0  0  0
 22 24  1  0  0  0  0
 22 25  1  0  0  0  0
 24 42  1  0  0  0  0
 25 26  1  0  0  0  0
 25 27  1  0  0  0  0
 25 29  1  0  0  0  0
 27 28  1  0  0  0  0
 29 30  1  0  0  0  0
 29 31  1  0  0  0  0
 29 42  1  0  0  0  0
 31 32  1  0  0  0  0
 33 34  1  0  0  0  0
 33 35  1  0  0  0  0
 33 36  1  0  0  0  0
 33 38  1  0  0  0  0
 36 37  1  0  0  0  0
 38 39  1  0  0  0  0
 38 40  1  0  0  0  0
 38 42  1  0  0  0  0
 40 41  1  0  0  0  0
 42 43  1  0  0  0  0
 44194  1  0  0  0  0
 45 46  1  0  0  0  0
 45 54  1  0  0  0  0
 46 47  1  0  0  0  0
 46 48  1  0  0  0  0
 46 49  2  0  0  0  0
 47 50  1  0  0  0  0
 50 51  1  0  0  0  0
 50 52  1  0  0  0  0
 50 53  2  0  0  0  0
 51205  1  0  0  0  0
 54 55  1  0  0  0  0
 54 56  1  0  0  0  0
 54 57  1  0  0  0  0
 57 58  1  0  0  0  0
 57 59  2  0  0  0  0
 59 60  1  0  0  0  0
 59 64  1  0  0  0  0
 60 61  1  0  0  0  0
 60 62  1  0  0  0  0
 60 63  1  0  0  0  0
 64 65  1  0  0  0  0
 64 66  1  0  0  0  0
 64 67  1  0  0  0  0
 67 68  1  0  0  0  0
 67 69  1  0  0  0  0
 67 70  1  0  0  0  0
 70 71  1  0  0  0  0
 70 72  2  0  0  0  0
 72 73  1  0  0  0  0
 72 77  1  0  0  0  0
 73 74  1  0  0  0  0
 73 75  1  0  0  0  0
 73 76  1  0  0  0  0
 77 78  1  0  0  0  0
 77 79  1  0  0  0  0
 77 80  1  0  0  0  0
 80 81  1  0  0  0  0
 80 82  1  0  0  0  0
 80 83  1  0  0  0  0
 83 84  1  0  0  0  0
 83 85  2  0  0  0  0
 85 86  1  0  0  0  0
 85 89  1  0  0  0  0
 86 87  1  0  0  0  0
 86 88  1  0  0  0  0
 86 93  1  0  0  0  0
 89 90  1  0  0  0  0
 89 91  1  0  0  0  0
 89 92  1  0  0  0  0
 93 94  1  0  0  0  0
 93 95  1  0  0  0  0
 93 96  1  0  0  0  0
 96 97  1  0  0  0  0
 96 98  2  0  0  0  0
 98 99  1  0  0  0  0
 98102  1  0  0  0  0
 99100  1  0  0  0  0
 99101  1  0  0  0  0
 99106  1  0  0  0  0
102103  1  0  0  0  0
102104  1  0  0  0  0
102105  1  0  0  0  0
106107  1  0  0  0  0
106108  1  0  0  0  0
106109  1  0  0  0  0
109110  1  0  0  0  0
109111  2  0  0  0  0
111112  1  0  0  0  0
111115  1  0  0  0  0
112113  1  0  0  0  0
112114  1  0  0  0  0
112119  1  0  0  0  0
115116  1  0  0  0  0
115117  1  0  0  0  0
115118  1  0  0  0  0
119120  1  0  0  0  0
119121  1  0  0  0  0
119122  1  0  0  0  0
122123  1  0  0  0  0
122124  2  0  0  0  0
124125  1  0  0  0  0
124128  1  0  0  0  0
125126  1  0  0  0  0
125127  1  0  0  0  0
125132  1  0  0  0  0
128129  1  0  0  0  0
128130  1  0  0  0  0
128131  1  0  0  0  0
132133  1  0  0  0  0
132134  1  0  0  0  0
132135  1  0  0  0  0
135136  1  0  0  0  0
135137  2  0  0  0  0
137138  1  0  0  0  0
137141  1  0  0  0  0
138139  1  0  0  0  0
138140  1  0  0  0  0
138145  1  0  0  0  0
141142  1  0  0  0  0
141143  1  0  0  0  0
141144  1  0  0  0  0
145146  1  0  0  0  0
145147  1  0  0  0  0
145148  1  0  0  0  0
148149  1  0  0  0  0
148150  2  0  0  0  0
150151  1  0  0  0  0
150154  1  0  0  0  0
151152  1  0  0  0  0
151153  1  0  0  0  0
151158  1  0  0  0  0
154155  1  0  0  0  0
154156  1  0  0  0  0
154157  1  0  0  0  0
158159  1  0  0  0  0
158160  1  0  0  0  0
158161  1  0  0  0  0
161162  1  0  0  0  0
161163  2  0  0  0  0
163164  1  0  0  0  0
163167  1  0  0  0  0
164165  1  0  0  0  0
164166  1  0  0  0  0
164171  1  0  0  0  0
167168  1  0  0  0  0
167169  1  0  0  0  0
167170  1  0  0  0  0
171172  1  0  0  0  0
171173  1  0  0  0  0
171174  1  0  0  0  0
174175  1  0  0  0  0
174176  2  0  0  0  0
176177  1  0  0  0  0
176181  1  0  0  0  0
177178  1  0  0  0  0
177179  1  0  0  0  0
177180  1  0  0  0  0
181182  1  0  0  0  0
181183  1  0  0  0  0
181184  1  0  0  0  0
185186  1  0  0  0  0
185187  1  0  0  0  0
185189  1  0  0  0  0
185196  1  0  0  0  0
187188  1  0  0  0  0
187190  1  0  0  0  0
187197  1  0  0  0  0
189192  1  0  0  0  0
190191  1  0  0  0  0
190194  1  0  0  0  0
190199  1  0  0  0  0
192193  1  0  0  0  0
192194  1  0  0  0  0
192201  1  0  0  0  0
194195  1  0  0  0  0
196210  1  0  0  0  0
197198  1  0  0  0  0
199200  1  0  0  0  0
201202  1  0  0  0  0
201203  1  0  0  0  0
201204  1  0  0  0  0
205206  1  0  0  0  0
205207  1  0  0  0  0
205209  1  0  0  0  0
207208  1  0  0  0  0
207210  1  0  0  0  0
207216  1  0  0  0  0
209212  1  0  0  0  0
210211  1  0  0  0  0
210214  1  0  0  0  0
212213  1  0  0  0  0
212214  1  0  0  0  0
212220  1  0  0  0  0
214215  1  0  0  0  0
214218  1  0  0  0  0
216217  1  0  0  0  0
216225  1  0  0  0  0
218219  1  0  0  0  0
220221  1  0  0  0  0
220222  1  0  0  0  0
220223  1  0  0  0  0
223224  1  0  0  0  0
225226  2  0  0  0  0
225227  1  0  0  0  0
227228  1  0  0  0  0
227229  1  0  0  0  0
227230  1  0  0  0  0
M  BCL ATM C_TeTeTeTe H_S O_Te2Te2TeTe C_TeTeTeTe H_S O_Te2Te2TeTe H_S C_TeTeTeTe H_S O_Te2Te2TeTe H_S C_TeTeTeTe H_S H_S O_Te2Te2TeTe H_S C_TeTeTeTe H_S O_Te2Te2TeTe C_TeTeTeTe H_S C_TeTeTeTe H_S O_Te2Te2TeTe C_TeTeTeTe H_S O_Te2Te2TeTe H_S C_TeTeTeTe H_S O_Te2Te2TeTe H_S C_TeTeTeTe H_S H_S O_Te2Te2TeTe H_S C_TeTeTeTe H_S O_Te2Te2TeTe H_S C_TeTeTeTe H_S O_Te2Te2TeTe O_Tr2TrTrPi2 P_TeTeTeTePi O_Tr2TrTrPi2 O_Te2Te2TeTe O_Tr2Tr2TrPi P_TeTeTeTePi O_Tr2TrTrPi2 O_Te2Te2TeTe O_Tr2Tr2TrPi C_TeTeTeTe H_S H_S C_TrTrTrPi H_S C_TrTrTrPi C_TeTeTeTe H_S H_S H_S C_TeTeTeTe H_S H_S C_TeTeTeTe H_S H_S C_TrTrTrPi H_S C_TrTrTrPi C_TeTeTeTe H_S H_S H_S C_TeTeTeTe H_S H_S C_TeTeTeTe H_S H_S C_TrTrTrPi H_S C_TrTrTrPi C_TeTeTeTe H_S H_S C_TeTeTeTe H_S H_S H_S C_TeTeTeTe H_S H_S C_TrTrTrPi H_S C_TrTrTrPi C_TeTeTeTe H_S H_S C_TeTeTeTe H_S H_S H_S C_TeTeTeTe H_S H_S C_TrTrTrPi H_S C_TrTrTrPi C_TeTeTeTe H_S H_S C_TeTeTeTe H_S H_S H_S C_TeTeTeTe H_S H_S C_TrTrTrPi H_S C_TrTrTrPi C_TeTeTeTe H_S H_S C_TeTeTeTe H_S H_S H_S C_TeTeTeTe H_S H_S C_TrTrTrPi H_S C_TrTrTrPi C_TeTeTeTe H_S H_S C_TeTeTeTe H_S H_S H_S C_TeTeTeTe H_S H_S C_TrTrTrPi H_S C_TrTrTrPi C_TeTeTeTe H_S H_S C_TeTeTeTe H_S H_S H_S C_TeTeTeTe H_S H_S C_TrTrTrPi H_S C_TrTrTrPi C_TeTeTeTe H_S H_S C_TeTeTeTe H_S H_S H_S C_TeTeTeTe H_S H_S C_TrTrTrPi H_S C_TrTrTrPi C_TeTeTeTe H_S H_S H_S C_TeTeTeTe H_S H_S H_S C_TeTeTeTe H_S C_TeTeTeTe H_S O_Te2Te2TeTe C_TeTeTeTe H_S C_TeTeTeTe H_S C_TeTeTeTe H_S O_Te2Te2TeTe O_Te2Te2TeTe H_S O_Te2Te2TeTe H_S C_TeTeTeTe H_S H_S H_S C_TeTeTeTe H_S C_TeTeTeTe H_S O_Te2Te2TeTe C_TeTeTeTe H_S C_TeTeTeTe H_S C_TeTeTeTe H_S N_TrTrTrPi2 H_S O_Te2Te2TeTe H_S C_TeTeTeTe H_S H_S O_Te2Te2TeTe H_S C_TrTrTrPi O_Tr2Tr2TrPi C_TeTeTeTe H_S H_S H_S
M  BCL BND NonConjugatedSingleBond NonConjugatedSingleBondInRing NonConjugatedSingleBondInRing NonConjugatedSingleBond NonConjugatedSingleBondInRing NonConjugatedSingleBond NonConjugatedSingleBond NonConjugatedSingleBondInRing NonConjugatedSingleBond NonConjugatedSingleBond NonConjugatedSingleBond NonConjugatedSingleBondInRing NonConjugatedSingleBond NonConjugatedSingleBond NonConjugatedSingleBond NonConjugatedSingleBond NonConjugatedSingleBond NonConjugatedSingleBond NonConjugatedSingleBond NonConjugatedSingleBond NonConjugatedSingleBond NonConjugatedSingleBond NonConjugatedSingleBond NonConjugatedSingleBond NonConjugatedSingleBondInRing NonConjugatedSingleBondInRing NonConjugatedSingleBondInRing NonConjugatedSingleBond NonConjugatedSingleBond NonConjugatedSingleBondInRing NonConjugatedSingleBond NonConjugatedSingleBond NonConjugatedSingleBond NonConjugatedSingleBondInRing NonConjugatedSingleBond NonConjugatedSingleBond NonConjugatedSingleBond NonConjugatedSingleBond NonConjugatedSingleBond NonConjugatedSingleBond NonConjugatedSingleBond NonConjugatedSingleBond NonConjugatedSingleBond NonConjugatedSingleBond NonConjugatedSingleBond NonConjugatedSingleBond ConjugatedSingleBond NonConjugatedSingleBond ConjugatedSingleBond ConjugatedSingleBond ConjugatedDoubleBond ConjugatedSingleBond ConjugatedSingleBond ConjugatedSingleBond ConjugatedDoubleBond NonConjugatedSingleBond NonConjugatedSingleBond NonConjugatedSingleBond NonConjugatedSingleBond NonConjugatedSingleBond ConjugatedDoubleBond NonConjugatedSingleBond NonConjugatedSingleBond NonConjugatedSingleBond NonConjugatedSingleBond NonConjugatedSingleBond NonConjugatedSingleBond NonConjugatedSingleBond NonConjugatedSingleBond NonConjugatedSingleBond NonConjugatedSingleBond NonConjugatedSingleBond NonConjugatedSingleBond ConjugatedDoubleBond NonConjugatedSingleBond NonConjugatedSingleBond NonConjugatedSingleBond NonConjugatedSingleBond NonConjugatedSingleBond NonConjugatedSingleBond NonConjugatedSingleBond NonConjugatedSingleBond NonConjugatedSingleBond NonConjugatedSingleBond NonConjugatedSingleBond NonConjugatedSingleBond ConjugatedDoubleBond NonConjugatedSingleBond NonConjugatedSingleBond NonConjugatedSingleBond NonConjugatedSingleBond NonConjugatedSingleBond NonConjugatedSingleBond NonConjugatedSingleBond NonConjugatedSingleBond NonConjugatedSingleBond NonConjugatedSingleBond NonConjugatedSingleBond NonConjugatedSingleBond ConjugatedDoubleBond NonConjugatedSingleBond NonConjugatedSingleBond NonConjugatedSingleBond NonConjugatedSingleBond NonConjugatedSingleBond NonConjugatedSingleBond NonConjugatedSingleBond NonConjugatedSingleBond NonConjugatedSingleBond NonConjugatedSingleBond NonConjugatedSingleBond NonConjugatedSingleBond ConjugatedDoubleBond NonConjugatedSingleBond NonConjugatedSingleBond NonConjugatedSingleBond NonConjugatedSingleBond NonConjugatedSingleBond NonConjugatedSingleBond NonConjugatedSingleBond NonConjugatedSingleBond NonConjugatedSingleBond NonConjugatedSingleBond NonConjugatedSingleBond NonConjugatedSingleBond ConjugatedDoubleBond NonConjugatedSingleBond NonConjugatedSingleBond NonConjugatedSingleBond NonConjugatedSingleBond NonConjugatedSingleBond NonConjugatedSingleBond NonConjugatedSingleBond NonConjugatedSingleBond NonConjugatedSingleBond NonConjugatedSingleBond NonConjugatedSingleBond NonConjugatedSingleBond ConjugatedDoubleBond NonConjugatedSingleBond NonConjugatedSingleBond NonConjugatedSingleBond NonConjugatedSingleBond NonConjugatedSingleBond NonConjugatedSingleBond NonConjugatedSingleBond NonConjugatedSingleBond NonConjugatedSingleBond NonConjugatedSingleBond NonConjugatedSingleBond NonConjugatedSingleBond ConjugatedDoubleBond NonConjugatedSingleBond NonConjugatedSingleBond NonConjugatedSingleBond NonConjugatedSingleBond NonConjugatedSingleBond NonConjugatedSingleBond NonConjugatedSingleBond NonConjugatedSingleBond NonConjugatedSingleBond NonConjugatedSingleBond NonConjugatedSingleBond NonConjugatedSingleBond ConjugatedDoubleBond NonConjugatedSingleBond NonConjugatedSingleBond NonConjugatedSingleBond NonConjugatedSingleBond NonConjugatedSingleBond NonConjugatedSingleBond NonConjugatedSingleBond NonConjugatedSingleBond NonConjugatedSingleBond NonConjugatedSingleBond NonConjugatedSingleBond NonConjugatedSingleBond ConjugatedDoubleBond NonConjugatedSingleBond NonConjugatedSingleBond NonConjugatedSingleBond NonConjugatedSingleBond NonConjugatedSingleBond NonConjugatedSingleBond NonConjugatedSingleBond NonConjugatedSingleBond NonConjugatedSingleBond NonConjugatedSingleBondInRing NonConjugatedSingleBondInRing NonConjugatedSingleBond NonConjugatedSingleBond NonConjugatedSingleBondInRing NonConjugatedSingleBond NonConjugatedSingleBondInRing NonConjugatedSingleBond NonConjugatedSingleBondInRing NonConjugatedSingleBond NonConjugatedSingleBond NonConjugatedSingleBondInRing NonConjugatedSingleBond NonConjugatedSingleBond NonConjugatedSingleBond NonConjugatedSingleBond NonConjugatedSingleBond NonConjugatedSingleBond NonConjugatedSingleBond NonConjugatedSingleBond NonConjugatedSingleBond NonConjugatedSingleBondInRing NonConjugatedSingleBondInRing NonConjugatedSingleBond NonConjugatedSingleBondInRing NonConjugatedSingleBond NonConjugatedSingleBondInRing NonConjugatedSingleBond NonConjugatedSingleBondInRing NonConjugatedSingleBond NonConjugatedSingleBondInRing NonConjugatedSingleBond NonConjugatedSingleBond NonConjugatedSingleBond NonConjugatedSingleBond AmideSingleBond NonConjugatedSingleBond NonConjugatedSingleBond NonConjugatedSingleBond NonConjugatedSingleBond NonConjugatedSingleBond ConjugatedDoubleBond NonConjugatedSingleBond NonConjugatedSingleBond NonConjugatedSingleBond NonConjugatedSingleBond
M  BCL CHI   1   R   4   R   8   R  17   S  20   R  22   S  25   R  29   S  38   S  42   R  46   R  50   S 185   R 187   S 190   S 192   R 194   R 205   R 207   S 210   R 212   S 214   S
M  BCL DBI - - E E E E E E E E Z - -
M  END
> <ConfClashScore>
0.00137422 

> <ConfOneFourInteractionScore>
-0.966792 

> <ConfScore>
0.398273 

> <ConfScorePBest>
0.0133475 

> <ConfTolerance>
1.2172 

$$$$
L05.****
  PyMOL2.5          3D                             0

230233  0  0  0  0  0  0  0  0999 V2000
   11.9711   -3.6489   -2.5905 C   0  0  0  1  0  0  0  0  0  0  0  0
   11.9954   -4.7078   -2.7420 H   0  0  0  1  0  0  0  0  0  0  0  0
   11.5958   -2.9888   -3.7811 O   0  0  0  1  0  0  0  0  0  0  0  0
   10.9075   -3.2835   -1.5709 C   0  0  0  1  0  0  0  0  0  0  0  0
   11.3021   -3.3014   -0.5765 H   0  0  0  1  0  0  0  0  0  0  0  0
    9.7865   -4.1648   -1.6550 O   0  0  0  1  0  0  0  0  0  0  0  0
    9.0180   -3.6775   -1.9608 H   0  0  0  1  0  0  0  0  0  0  0  0
   10.5327   -1.8835   -1.9838 C   0  0  0  1  0  0  0  0  0  0  0  0
    9.5545   -1.6229   -1.6372 H   0  0  0  1  0  0  0  0  0  0  0  0
   11.4797   -0.9269   -1.5033 O   0  0  0  1  0  0  0  0  0  0  0  0
   12.3696   -1.2374   -1.6857 H   0  0  0  1  0  0  0  0  0  0  0  0
    9.0609   -2.3387   -5.5558 C   0  0  0  1  0  0  0  0  0  0  0  0
    9.1173   -1.3143   -5.8596 H   0  0  0  1  0  0  0  0  0  0  0  0
    9.8273   -2.9000   -6.0483 H   0  0  0  1  0  0  0  0  0  0  0  0
    7.7839   -2.8718   -5.8811 O   0  0  0  1  0  0  0  0  0  0  0  0
    7.8535   -3.8222   -5.9971 H   0  0  0  1  0  0  0  0  0  0  0  0
    9.2288   -2.4431   -4.0478 C   0  0  0  1  0  0  0  0  0  0  0  0
    9.1043   -3.4713   -3.7791 H   0  0  0  1  0  0  0  0  0  0  0  0
    8.1709   -1.6888   -3.4676 O   0  0  0  1  0  0  0  0  0  0  0  0
   10.5738   -1.9920   -3.5075 C   0  0  0  1  0  0  0  0  0  0  0  0
   10.8375   -1.0520   -3.9452 H   0  0  0  1  0  0  0  0  0  0  0  0
    6.9860   -2.4129   -3.3052 C   0  0  0  1  0  0  0  0  0  0  0  0
    6.8884   -3.1213   -4.1012 H   0  0  0  1  0  0  0  0  0  0  0  0
    6.9735   -3.0812   -2.0304 O   0  0  0  1  0  0  0  0  0  0  0  0
    5.7966   -1.4826   -3.2751 C   0  0  0  1  0  0  0  0  0  0  0  0
    5.4261   -1.2955   -4.2613 H   0  0  0  1  0  0  0  0  0  0  0  0
    6.1254   -0.2430   -2.6461 O   0  0  0  1  0  0  0  0  0  0  0  0
    5.3212    0.2516   -2.4725 H   0  0  0  1  0  0  0  0  0  0  0  0
    4.7985   -2.2630   -2.4556 C   0  0  0  1  0  0  0  0  0  0  0  0
    4.2631   -2.9597   -3.0663 H   0  0  0  1  0  0  0  0  0  0  0  0
    3.8763   -1.3904   -1.8094 O   0  0  0  1  0  0  0  0  0  0  0  0
    4.3551   -0.7797   -1.2443 H   0  0  0  1  0  0  0  0  0  0  0  0
    3.6026   -4.3448   -0.9297 C   0  0  0  1  0  0  0  0  0  0  0  0
    3.4027   -3.9916    0.0603 H   0  0  0  1  0  0  0  0  0  0  0  0
    3.1375   -3.6952   -1.6414 H   0  0  0  1  0  0  0  0  0  0  0  0
    3.0806   -5.6575   -1.0771 O   0  0  0  1  0  0  0  0  0  0  0  0
    3.1301   -6.1183   -0.2363 H   0  0  0  1  0  0  0  0  0  0  0  0
    5.1089   -4.3616   -1.1674 C   0  0  0  1  0  0  0  0  0  0  0  0
    5.3111   -4.9860   -2.0125 H   0  0  0  1  0  0  0  0  0  0  0  0
    5.7739   -4.8788   -0.0156 O   0  0  0  1  0  0  0  0  0  0  0  0
    5.2818   -4.6392    0.7731 H   0  0  0  1  0  0  0  0  0  0  0  0
    5.6631   -2.9836   -1.4427 C   0  0  0  1  0  0  0  0  0  0  0  0
    5.7066   -2.4273   -0.5297 H   0  0  0  1  0  0  0  0  0  0  0  0
   13.2502   -3.2017   -2.1563 O   0  0  0  1  0  0  0  0  0  0  0  0
   21.7449   -9.1995   -6.3122 O   0  0  0  1  0  0  0  0  0  0  0  0
   21.8054   -9.4355   -4.7576 P   0  0  0  1  0  0  0  0  0  0  0  0
   22.3885   -8.0466   -4.1974 O   0  0  0  1  0  0  0  0  0  0  0  0
   22.8802  -10.4419   -4.5612 O   0  0  0  0  0  0  0  0  0  0  0  0
   20.4522   -9.6947   -4.2057 O   0  0  0  1  0  0  0  0  0  0  0  0
   22.0929   -7.3541   -2.7784 P   0  0  0  1  0  0  0  0  0  0  0  0
   20.5424   -7.5050   -2.5815 O   0  0  0  1  0  0  0  0  0  0  0  0
   22.3103   -5.8944   -2.8454 O   0  0  0  0  0  0  0  0  0  0  0  0
   22.8243   -8.1708   -1.7937 O   0  0  0  1  0  0  0  0  0  0  0  0
   22.8478   -8.5984   -7.0094 C   0  0  0  1  0  0  0  0  0  0  0  0
   23.7086   -9.2294   -6.9343 H   0  0  0  1  0  0  0  0  0  0  0  0
   23.0670   -7.6427   -6.5811 H   0  0  0  1  0  0  0  0  0  0  0  0
   22.4704   -8.4321   -8.4423 C   0  0  0  1  0  0  0  0  0  0  0  0
   22.1159   -9.2617   -8.9597 H   0  0  0  1  0  0  0  0  0  0  0  0
   22.5647   -7.2762   -9.0907 C   0  0  0  1  0  0  0  0  0  0  0  0
   22.5027   -7.1522  -10.5842 C   0  0  0  1  0  0  0  0  0  0  0  0
   22.6691   -6.1333  -10.8653 H   0  0  0  1  0  0  0  0  0  0  0  0
   21.5385   -7.4638  -10.9280 H   0  0  0  1  0  0  0  0  0  0  0  0
   23.2561   -7.7711  -11.0248 H   0  0  0  1  0  0  0  0  0  0  0  0
   22.7445   -5.9784   -8.3597 C   0  0  0  1  0  0  0  0  0  0  0  0
   22.7030   -5.1718   -9.0615 H   0  0  0  1  0  0  0  0  0  0  0  0
   23.6971   -5.9792   -7.8725 H   0  0  0  1  0  0  0  0  0  0  0  0
   21.6527   -5.7902   -7.3191 C   0  0  0  1  0  0  0  0  0  0  0  0
   21.7240   -6.5825   -6.6035 H   0  0  0  1  0  0  0  0  0  0  0  0
   20.7029   -5.8365   -7.8098 H   0  0  0  1  0  0  0  0  0  0  0  0
   21.7511   -4.4908   -6.5989 C   0  0  0  1  0  0  0  0  0  0  0  0
   22.2588   -4.4471   -5.6923 H   0  0  0  1  0  0  0  0  0  0  0  0
   21.2002   -3.3812   -7.0947 C   0  0  0  1  0  0  0  0  0  0  0  0
   21.0052   -2.1606   -6.2405 C   0  0  0  1  0  0  0  0  0  0  0  0
   19.9612   -1.9372   -6.1698 H   0  0  0  1  0  0  0  0  0  0  0  0
   21.5182   -1.3315   -6.6813 H   0  0  0  1  0  0  0  0  0  0  0  0
   21.3975   -2.3440   -5.2620 H   0  0  0  1  0  0  0  0  0  0  0  0
   20.7532   -3.3078   -8.5250 C   0  0  0  1  0  0  0  0  0  0  0  0
   19.8673   -2.7109   -8.5855 H   0  0  0  1  0  0  0  0  0  0  0  0
   20.5431   -4.2958   -8.8781 H   0  0  0  1  0  0  0  0  0  0  0  0
   21.8331   -2.6866   -9.3959 C   0  0  0  1  0  0  0  0  0  0  0  0
   22.6772   -3.3439   -9.4125 H   0  0  0  1  0  0  0  0  0  0  0  0
   22.1189   -1.7489   -8.9670 H   0  0  0  1  0  0  0  0  0  0  0  0
   21.3863   -2.4498  -10.8036 C   0  0  0  1  0  0  0  0  0  0  0  0
   21.0203   -3.2756  -11.3189 H   0  0  0  1  0  0  0  0  0  0  0  0
   21.4064   -1.2997  -11.4665 C   0  0  0  1  0  0  0  0  0  0  0  0
   21.9333   -0.0400  -10.8328 C   0  0  0  1  0  0  0  0  0  0  0  0
   22.1725   -0.2472   -9.8107 H   0  0  0  1  0  0  0  0  0  0  0  0
   21.1696    0.7083  -10.8763 H   0  0  0  1  0  0  0  0  0  0  0  0
   20.9202   -1.1372  -12.8769 C   0  0  0  1  0  0  0  0  0  0  0  0
   21.1076   -2.0368  -13.4252 H   0  0  0  1  0  0  0  0  0  0  0  0
   21.4371   -0.3231  -13.3405 H   0  0  0  1  0  0  0  0  0  0  0  0
   19.8693   -0.9359  -12.8707 H   0  0  0  1  0  0  0  0  0  0  0  0
   23.1771    0.4977  -11.5214 C   0  0  0  1  0  0  0  0  0  0  0  0
   22.9612    0.6284  -12.5612 H   0  0  0  1  0  0  0  0  0  0  0  0
   23.9653   -0.2170  -11.4074 H   0  0  0  1  0  0  0  0  0  0  0  0
   23.6393    1.8139  -10.9593 C   0  0  0  1  0  0  0  0  0  0  0  0
   24.5471    1.8283  -10.4520 H   0  0  0  1  0  0  0  0  0  0  0  0
   22.9744    2.9596  -11.0625 C   0  0  0  1  0  0  0  0  0  0  0  0
   21.6293    3.0878  -11.7260 C   0  0  0  1  0  0  0  0  0  0  0  0
   21.4275    2.2103  -12.3040 H   0  0  0  1  0  0  0  0  0  0  0  0
   21.6231    3.9458  -12.3653 H   0  0  0  1  0  0  0  0  0  0  0  0
   23.5279    4.2409  -10.5122 C   0  0  0  1  0  0  0  0  0  0  0  0
   22.8030    4.6968   -9.8708 H   0  0  0  1  0  0  0  0  0  0  0  0
   23.7580    4.9052  -11.3189 H   0  0  0  1  0  0  0  0  0  0  0  0
   24.4175    4.0344   -9.9547 H   0  0  0  1  0  0  0  0  0  0  0  0
   20.5696    3.2454  -10.6477 C   0  0  0  1  0  0  0  0  0  0  0  0
   20.8885    4.0052   -9.9651 H   0  0  0  1  0  0  0  0  0  0  0  0
   20.4725    2.3156  -10.1272 H   0  0  0  1  0  0  0  0  0  0  0  0
   19.2304    3.6275  -11.1936 C   0  0  0  1  0  0  0  0  0  0  0  0
   19.1719    3.8604  -12.2055 H   0  0  0  1  0  0  0  0  0  0  0  0
   18.1090    3.6916  -10.4814 C   0  0  0  1  0  0  0  0  0  0  0  0
   18.0640    3.0506   -9.1202 C   0  0  0  1  0  0  0  0  0  0  0  0
   19.0659    2.9477   -8.7589 H   0  0  0  1  0  0  0  0  0  0  0  0
   17.6169    2.0830   -9.2139 H   0  0  0  1  0  0  0  0  0  0  0  0
   16.8355    4.3631  -10.9125 C   0  0  0  1  0  0  0  0  0  0  0  0
   16.9699    5.4246  -10.9012 H   0  0  0  1  0  0  0  0  0  0  0  0
   16.0468    4.0965  -10.2404 H   0  0  0  1  0  0  0  0  0  0  0  0
   16.5831    4.0463  -11.9029 H   0  0  0  1  0  0  0  0  0  0  0  0
   17.2654    3.8565   -8.1086 C   0  0  0  1  0  0  0  0  0  0  0  0
   16.3440    4.1559   -8.5629 H   0  0  0  1  0  0  0  0  0  0  0  0
   17.8310    4.7248   -7.8422 H   0  0  0  1  0  0  0  0  0  0  0  0
   16.9548    3.0898   -6.8625 C   0  0  0  1  0  0  0  0  0  0  0  0
   16.3784    2.2294   -6.9580 H   0  0  0  1  0  0  0  0  0  0  0  0
   17.3638    3.4288   -5.6322 C   0  0  0  1  0  0  0  0  0  0  0  0
   18.4608    4.4497   -5.4894 C   0  0  0  1  0  0  0  0  0  0  0  0
   18.0520    5.3274   -5.0340 H   0  0  0  1  0  0  0  0  0  0  0  0
   18.8296    4.6919   -6.4642 H   0  0  0  1  0  0  0  0  0  0  0  0
   16.7796    2.8390   -4.4052 C   0  0  0  1  0  0  0  0  0  0  0  0
   17.1927    3.3227   -3.5448 H   0  0  0  1  0  0  0  0  0  0  0  0
   17.0059    1.7938   -4.3696 H   0  0  0  1  0  0  0  0  0  0  0  0
   15.7183    2.9746   -4.4151 H   0  0  0  1  0  0  0  0  0  0  0  0
   19.6226    3.9605   -4.6403 C   0  0  0  1  0  0  0  0  0  0  0  0
   20.0137    3.0601   -5.0661 H   0  0  0  1  0  0  0  0  0  0  0  0
   19.2737    3.7641   -3.6480 H   0  0  0  1  0  0  0  0  0  0  0  0
   20.7140    4.9937   -4.5837 C   0  0  0  1  0  0  0  0  0  0  0  0
   21.0196    5.3956   -5.4930 H   0  0  0  1  0  0  0  0  0  0  0  0
   21.3297    5.4485   -3.4989 C   0  0  0  1  0  0  0  0  0  0  0  0
   21.2255    4.7320   -2.1840 C   0  0  0  1  0  0  0  0  0  0  0  0
   20.5233    3.9313   -2.2872 H   0  0  0  1  0  0  0  0  0  0  0  0
   20.8736    5.4229   -1.4466 H   0  0  0  1  0  0  0  0  0  0  0  0
   22.1722    6.6927   -3.4720 C   0  0  0  1  0  0  0  0  0  0  0  0
   22.6013    6.8545   -4.4387 H   0  0  0  1  0  0  0  0  0  0  0  0
   22.9534    6.5787   -2.7498 H   0  0  0  1  0  0  0  0  0  0  0  0
   21.5616    7.5309   -3.2083 H   0  0  0  1  0  0  0  0  0  0  0  0
   22.5509    4.1555   -1.7134 C   0  0  0  1  0  0  0  0  0  0  0  0
   22.3674    3.6402   -0.7937 H   0  0  0  1  0  0  0  0  0  0  0  0
   23.2127    4.9774   -1.5363 H   0  0  0  1  0  0  0  0  0  0  0  0
   23.2590    3.1971   -2.6332 C   0  0  0  1  0  0  0  0  0  0  0  0
   22.7461    2.3399   -2.9225 H   0  0  0  1  0  0  0  0  0  0  0  0
   24.4918    3.3648   -3.1035 C   0  0  0  1  0  0  0  0  0  0  0  0
   25.5040    4.3418   -2.5758 C   0  0  0  1  0  0  0  0  0  0  0  0
   24.9840    5.1764   -2.1539 H   0  0  0  1  0  0  0  0  0  0  0  0
   26.1127    4.6749   -3.3903 H   0  0  0  1  0  0  0  0  0  0  0  0
   24.9573    2.5291   -4.2598 C   0  0  0  1  0  0  0  0  0  0  0  0
   25.9307    2.8520   -4.5649 H   0  0  0  1  0  0  0  0  0  0  0  0
   24.2737    2.6375   -5.0758 H   0  0  0  1  0  0  0  0  0  0  0  0
   24.9993    1.5019   -3.9631 H   0  0  0  1  0  0  0  0  0  0  0  0
   26.4075    3.7453   -1.5089 C   0  0  0  1  0  0  0  0  0  0  0  0
   26.5020    4.4502   -0.7095 H   0  0  0  1  0  0  0  0  0  0  0  0
   27.3697    3.5634   -1.9403 H   0  0  0  1  0  0  0  0  0  0  0  0
   25.8819    2.4514   -0.9472 C   0  0  0  1  0  0  0  0  0  0  0  0
   25.7200    1.6685   -1.6123 H   0  0  0  1  0  0  0  0  0  0  0  0
   25.6095    2.2349    0.3352 C   0  0  0  1  0  0  0  0  0  0  0  0
   24.7966    1.0738    0.8295 C   0  0  0  1  0  0  0  0  0  0  0  0
   25.4421    0.4098    1.3656 H   0  0  0  1  0  0  0  0  0  0  0  0
   24.3818    0.5643   -0.0151 H   0  0  0  1  0  0  0  0  0  0  0  0
   26.1058    3.1569    1.4097 C   0  0  0  1  0  0  0  0  0  0  0  0
   27.0451    2.7515    1.7229 H   0  0  0  1  0  0  0  0  0  0  0  0
   25.4175    3.1812    2.2286 H   0  0  0  1  0  0  0  0  0  0  0  0
   26.2358    4.1460    1.0229 H   0  0  0  1  0  0  0  0  0  0  0  0
   23.6602    1.4909    1.7488 C   0  0  0  1  0  0  0  0  0  0  0  0
   23.0762    2.2368    1.2515 H   0  0  0  1  0  0  0  0  0  0  0  0
   24.0793    1.9028    2.6430 H   0  0  0  1  0  0  0  0  0  0  0  0
   22.7575    0.3484    2.1254 C   0  0  0  1  0  0  0  0  0  0  0  0
   22.2531   -0.1395    1.3579 H   0  0  0  1  0  0  0  0  0  0  0  0
   22.5546   -0.0877    3.3762 C   0  0  0  1  0  0  0  0  0  0  0  0
   23.1625    0.6867    4.5244 C   0  0  0  1  0  0  0  0  0  0  0  0
   24.0464    0.1879    4.8633 H   0  0  0  1  0  0  0  0  0  0  0  0
   22.4572    0.7466    5.3268 H   0  0  0  1  0  0  0  0  0  0  0  0
   23.4139    1.6733    4.1953 H   0  0  0  1  0  0  0  0  0  0  0  0
   21.7581   -1.2991    3.6806 C   0  0  0  1  0  0  0  0  0  0  0  0
   20.8540   -0.9765    4.1532 H   0  0  0  1  0  0  0  0  0  0  0  0
   22.3057   -1.9412    4.3385 H   0  0  0  1  0  0  0  0  0  0  0  0
   21.5309   -1.8242    2.7764 H   0  0  0  1  0  0  0  0  0  0  0  0
   16.1905   -5.1646   -1.8813 C   0  0  0  1  0  0  0  0  0  0  0  0
   16.5898   -5.7572   -1.0849 H   0  0  0  1  0  0  0  0  0  0  0  0
   14.8740   -5.7658   -2.3564 C   0  0  0  1  0  0  0  0  0  0  0  0
   15.0404   -6.7590   -2.7181 H   0  0  0  1  0  0  0  0  0  0  0  0
   15.9483   -3.8397   -1.4174 O   0  0  0  1  0  0  0  0  0  0  0  0
   14.3248   -4.8966   -3.4774 C   0  0  0  1  0  0  0  0  0  0  0  0
   13.3296   -5.2180   -3.7037 H   0  0  0  1  0  0  0  0  0  0  0  0
   15.6193   -2.9690   -2.5074 C   0  0  0  1  0  0  0  0  0  0  0  0
   16.3860   -3.0191   -3.2521 H   0  0  0  1  0  0  0  0  0  0  0  0
   14.2882   -3.4184   -3.1088 C   0  0  0  1  0  0  0  0  0  0  0  0
   14.0907   -2.8435   -3.9894 H   0  0  0  1  0  0  0  0  0  0  0  0
   17.0929   -5.1324   -2.9307 O   0  0  0  1  0  0  0  0  0  0  0  0
   13.9422   -5.8023   -1.2739 O   0  0  0  1  0  0  0  0  0  0  0  0
   14.0826   -5.0422   -0.7045 H   0  0  0  1  0  0  0  0  0  0  0  0
   15.1477   -5.0592   -4.6234 O   0  0  0  1  0  0  0  0  0  0  0  0
   15.2587   -5.9947   -4.8081 H   0  0  0  1  0  0  0  0  0  0  0  0
   15.4957   -1.5409   -2.0017 C   0  0  0  1  0  0  0  0  0  0  0  0
   14.7012   -1.4824   -1.2874 H   0  0  0  1  0  0  0  0  0  0  0  0
   15.2848   -0.8888   -2.8235 H   0  0  0  1  0  0  0  0  0  0  0  0
   16.4140   -1.2461   -1.5384 H   0  0  0  1  0  0  0  0  0  0  0  0
   19.6026   -6.6138   -3.1427 C   0  0  0  1  0  0  0  0  0  0  0  0
   18.6949   -7.1389   -3.3550 H   0  0  0  1  0  0  0  0  0  0  0  0
   19.3230   -5.5011   -2.1698 C   0  0  0  1  0  0  0  0  0  0  0  0
   20.2391   -5.0058   -1.9240 H   0  0  0  1  0  0  0  0  0  0  0  0
   20.1243   -6.0699   -4.3399 O   0  0  0  1  0  0  0  0  0  0  0  0
   18.3727   -4.5145   -2.7838 C   0  0  0  1  0  0  0  0  0  0  0  0
   18.2874   -3.6657   -2.1379 H   0  0  0  1  0  0  0  0  0  0  0  0
   19.1487   -5.2556   -5.0147 C   0  0  0  1  0  0  0  0  0  0  0  0
   19.5367   -4.9316   -5.9577 H   0  0  0  1  0  0  0  0  0  0  0  0
   18.8535   -4.0530   -4.1398 C   0  0  0  1  0  0  0  0  0  0  0  0
   18.0954   -3.4553   -4.6012 H   0  0  0  1  0  0  0  0  0  0  0  0
   18.7309   -6.0537   -0.9621 N   0  0  0  1  0  0  0  0  0  0  0  0
   17.7671   -6.2304   -0.9460 H   0  0  0  1  0  0  0  0  0  0  0  0
   20.0386   -3.2798   -3.9833 O   0  0  0  1  0  0  0  0  0  0  0  0
   20.5338   -3.6834   -3.2667 H   0  0  0  1  0  0  0  0  0  0  0  0
   17.8907   -6.0460   -5.2350 C   0  0  0  1  0  0  0  0  0  0  0  0
   17.4990   -6.3782   -4.2963 H   0  0  0  1  0  0  0  0  0  0  0  0
   18.0953   -6.8926   -5.8564 H   0  0  0  1  0  0  0  0  0  0  0  0
   16.9547   -5.1889   -5.8753 O   0  0  0  1  0  0  0  0  0  0  0  0
   17.3037   -4.9546   -6.7383 H   0  0  0  1  0  0  0  0  0  0  0  0
   19.4622   -6.3317    0.1371 C   0  0  0  1  0  0  0  0  0  0  0  0
   20.6797   -6.1550    0.1517 O   0  0  0  1  0  0  0  0  0  0  0  0
   18.7397   -6.8693    1.3569 C   0  0  0  1  0  0  0  0  0  0  0  0
   19.5089   -6.9887    2.0910 H   0  0  0  1  0  0  0  0  0  0  0  0
   18.2758   -7.8084    1.1386 H   0  0  0  1  0  0  0  0  0  0  0  0
   17.9989   -6.1749    1.6945 H   0  0  0  1  0  0  0  0  0  0  0  0
  1  2  1  0  0  0  0
  1  3  1  0  0  0  0
  1  4  1  0  0  0  0
  1 44  1  0  0  0  0
  3 20  1  0  0  0  0
  4  5  1  0  0  0  0
  4  6  1  0  0  0  0
  4  8  1  0  0  0  0
  6  7  1  0  0  0  0
  8  9  1  0  0  0  0
  8 10  1  0  0  0  0
  8 20  1  0  0  0  0
 10 11  1  0  0  0  0
 12 13  1  0  0  0  0
 12 14  1  0  0  0  0
 12 15  1  0  0  0  0
 12 17  1  0  0  0  0
 15 16  1  0  0  0  0
 17 18  1  0  0  0  0
 17 19  1  0  0  0  0
 17 20  1  0  0  0  0
 19 22  1  0  0  0  0
 20 21  1  0  0  0  0
 22 23  1  0  0  0  0
 22 24  1  0  0  0  0
 22 25  1  0  0  0  0
 24 42  1  0  0  0  0
 25 26  1  0  0  0  0
 25 27  1  0  0  0  0
 25 29  1  0  0  0  0
 27 28  1  0  0  0  0
 29 30  1  0  0  0  0
 29 31  1  0  0  0  0
 29 42  1  0  0  0  0
 31 32  1  0  0  0  0
 33 34  1  0  0  0  0
 33 35  1  0  0  0  0
 33 36  1  0  0  0  0
 33 38  1  0  0  0  0
 36 37  1  0  0  0  0
 38 39  1  0  0  0  0
 38 40  1  0  0  0  0
 38 42  1  0  0  0  0
 40 41  1  0  0  0  0
 42 43  1  0  0  0  0
 44194  1  0  0  0  0
 45 46  1  0  0  0  0
 45 54  1  0  0  0  0
 46 47  1  0  0  0  0
 46 48  1  0  0  0  0
 46 49  2  0  0  0  0
 47 50  1  0  0  0  0
 50 51  1  0  0  0  0
 50 52  1  0  0  0  0
 50 53  2  0  0  0  0
 51205  1  0  0  0  0
 54 55  1  0  0  0  0
 54 56  1  0  0  0  0
 54 57  1  0  0  0  0
 57 58  1  0  0  0  0
 57 59  2  0  0  0  0
 59 60  1  0  0  0  0
 59 64  1  0  0  0  0
 60 61  1  0  0  0  0
 60 62  1  0  0  0  0
 60 63  1  0  0  0  0
 64 65  1  0  0  0  0
 64 66  1  0  0  0  0
 64 67  1  0  0  0  0
 67 68  1  0  0  0  0
 67 69  1  0  0  0  0
 67 70  1  0  0  0  0
 70 71  1  0  0  0  0
 70 72  2  0  0  0  0
 72 73  1  0  0  0  0
 72 77  1  0  0  0  0
 73 74  1  0  0  0  0
 73 75  1  0  0  0  0
 73 76  1  0  0  0  0
 77 78  1  0  0  0  0
 77 79  1  0  0  0  0
 77 80  1  0  0  0  0
 80 81  1  0  0  0  0
 80 82  1  0  0  0  0
 80 83  1  0  0  0  0
 83 84  1  0  0  0  0
 83 85  2  0  0  0  0
 85 86  1  0  0  0  0
 85 89  1  0  0  0  0
 86 87  1  0  0  0  0
 86 88  1  0  0  0  0
 86 93  1  0  0  0  0
 89 90  1  0  0  0  0
 89 91  1  0  0  0  0
 89 92  1  0  0  0  0
 93 94  1  0  0  0  0
 93 95  1  0  0  0  0
 93 96  1  0  0  0  0
 96 97  1  0  0  0  0
 96 98  2  0  0  0  0
 98 99  1  0  0  0  0
 98102  1  0  0  0  0
 99100  1  0  0  0  0
 99101  1  0  0  0  0
 99106  1  0  0  0  0
102103  1  0  0  0  0
102104  1  0  0  0  0
102105  1  0  0  0  0
106107  1  0  0  0  0
106108  1  0  0  0  0
106109  1  0  0  0  0
109110  1  0  0  0  0
109111  2  0  0  0  0
111112  1  0  0  0  0
111115  1  0  0  0  0
112113  1  0  0  0  0
112114  1  0  0  0  0
112119  1  0  0  0  0
115116  1  0  0  0  0
115117  1  0  0  0  0
115118  1  0  0  0  0
119120  1  0  0  0  0
119121  1  0  0  0  0
119122  1  0  0  0  0
122123  1  0  0  0  0
122124  2  0  0  0  0
124125  1  0  0  0  0
124128  1  0  0  0  0
125126  1  0  0  0  0
125127  1  0  0  0  0
125132  1  0  0  0  0
128129  1  0  0  0  0
128130  1  0  0  0  0
128131  1  0  0  0  0
132133  1  0  0  0  0
132134  1  0  0  0  0
132135  1  0  0  0  0
135136  1  0  0  0  0
135137  2  0  0  0  0
137138  1  0  0  0  0
137141  1  0  0  0  0
138139  1  0  0  0  0
138140  1  0  0  0  0
138145  1  0  0  0  0
141142  1  0  0  0  0
141143  1  0  0  0  0
141144  1  0  0  0  0
145146  1  0  0  0  0
145147  1  0  0  0  0
145148  1  0  0  0  0
148149  1  0  0  0  0
148150  2  0  0  0  0
150151  1  0  0  0  0
150154  1  0  0  0  0
151152  1  0  0  0  0
151153  1  0  0  0  0
151158  1  0  0  0  0
154155  1  0  0  0  0
154156  1  0  0  0  0
154157  1  0  0  0  0
158159  1  0  0  0  0
158160  1  0  0  0  0
158161  1  0  0  0  0
161162  1  0  0  0  0
161163  2  0  0  0  0
163164  1  0  0  0  0
163167  1  0  0  0  0
164165  1  0  0  0  0
164166  1  0  0  0  0
164171  1  0  0  0  0
167168  1  0  0  0  0
167169  1  0  0  0  0
167170  1  0  0  0  0
171172  1  0  0  0  0
171173  1  0  0  0  0
171174  1  0  0  0  0
174175  1  0  0  0  0
174176  2  0  0  0  0
176177  1  0  0  0  0
176181  1  0  0  0  0
177178  1  0  0  0  0
177179  1  0  0  0  0
177180  1  0  0  0  0
181182  1  0  0  0  0
181183  1  0  0  0  0
181184  1  0  0  0  0
185186  1  0  0  0  0
185187  1  0  0  0  0
185189  1  0  0  0  0
185196  1  0  0  0  0
187188  1  0  0  0  0
187190  1  0  0  0  0
187197  1  0  0  0  0
189192  1  0  0  0  0
190191  1  0  0  0  0
190194  1  0  0  0  0
190199  1  0  0  0  0
192193  1  0  0  0  0
192194  1  0  0  0  0
192201  1  0  0  0  0
194195  1  0  0  0  0
196210  1  0  0  0  0
197198  1  0  0  0  0
199200  1  0  0  0  0
201202  1  0  0  0  0
201203  1  0  0  0  0
201204  1  0  0  0  0
205206  1  0  0  0  0
205207  1  0  0  0  0
205209  1  0  0  0  0
207208  1  0  0  0  0
207210  1  0  0  0  0
207216  1  0  0  0  0
209212  1  0  0  0  0
210211  1  0  0  0  0
210214  1  0  0  0  0
212213  1  0  0  0  0
212214  1  0  0  0  0
212220  1  0  0  0  0
214215  1  0  0  0  0
214218  1  0  0  0  0
216217  1  0  0  0  0
216225  1  0  0  0  0
218219  1  0  0  0  0
220221  1  0  0  0  0
220222  1  0  0  0  0
220223  1  0  0  0  0
223224  1  0  0  0  0
225226  2  0  0  0  0
225227  1  0  0  0  0
227228  1  0  0  0  0
227229  1  0  0  0  0
227230  1  0  0  0  0
M  BCL ATM C_TeTeTeTe H_S O_Te2Te2TeTe C_TeTeTeTe H_S O_Te2Te2TeTe H_S C_TeTeTeTe H_S O_Te2Te2TeTe H_S C_TeTeTeTe H_S H_S O_Te2Te2TeTe H_S C_TeTeTeTe H_S O_Te2Te2TeTe C_TeTeTeTe H_S C_TeTeTeTe H_S O_Te2Te2TeTe C_TeTeTeTe H_S O_Te2Te2TeTe H_S C_TeTeTeTe H_S O_Te2Te2TeTe H_S C_TeTeTeTe H_S H_S O_Te2Te2TeTe H_S C_TeTeTeTe H_S O_Te2Te2TeTe H_S C_TeTeTeTe H_S O_Te2Te2TeTe O_Tr2TrTrPi2 P_TeTeTeTePi O_Tr2TrTrPi2 O_Te2Te2TeTe O_Tr2Tr2TrPi P_TeTeTeTePi O_Tr2TrTrPi2 O_Te2Te2TeTe O_Tr2Tr2TrPi C_TeTeTeTe H_S H_S C_TrTrTrPi H_S C_TrTrTrPi C_TeTeTeTe H_S H_S H_S C_TeTeTeTe H_S H_S C_TeTeTeTe H_S H_S C_TrTrTrPi H_S C_TrTrTrPi C_TeTeTeTe H_S H_S H_S C_TeTeTeTe H_S H_S C_TeTeTeTe H_S H_S C_TrTrTrPi H_S C_TrTrTrPi C_TeTeTeTe H_S H_S C_TeTeTeTe H_S H_S H_S C_TeTeTeTe H_S H_S C_TrTrTrPi H_S C_TrTrTrPi C_TeTeTeTe H_S H_S C_TeTeTeTe H_S H_S H_S C_TeTeTeTe H_S H_S C_TrTrTrPi H_S C_TrTrTrPi C_TeTeTeTe H_S H_S C_TeTeTeTe H_S H_S H_S C_TeTeTeTe H_S H_S C_TrTrTrPi H_S C_TrTrTrPi C_TeTeTeTe H_S H_S C_TeTeTeTe H_S H_S H_S C_TeTeTeTe H_S H_S C_TrTrTrPi H_S C_TrTrTrPi C_TeTeTeTe H_S H_S C_TeTeTeTe H_S H_S H_S C_TeTeTeTe H_S H_S C_TrTrTrPi H_S C_TrTrTrPi C_TeTeTeTe H_S H_S C_TeTeTeTe H_S H_S H_S C_TeTeTeTe H_S H_S C_TrTrTrPi H_S C_TrTrTrPi C_TeTeTeTe H_S H_S C_TeTeTeTe H_S H_S H_S C_TeTeTeTe H_S H_S C_TrTrTrPi H_S C_TrTrTrPi C_TeTeTeTe H_S H_S H_S C_TeTeTeTe H_S H_S H_S C_TeTeTeTe H_S C_TeTeTeTe H_S O_Te2Te2TeTe C_TeTeTeTe H_S C_TeTeTeTe H_S C_TeTeTeTe H_S O_Te2Te2TeTe O_Te2Te2TeTe H_S O_Te2Te2TeTe H_S C_TeTeTeTe H_S H_S H_S C_TeTeTeTe H_S C_TeTeTeTe H_S O_Te2Te2TeTe C_TeTeTeTe H_S C_TeTeTeTe H_S C_TeTeTeTe H_S N_TrTrTrPi2 H_S O_Te2Te2TeTe H_S C_TeTeTeTe H_S H_S O_Te2Te2TeTe H_S C_TrTrTrPi O_Tr2Tr2TrPi C_TeTeTeTe H_S H_S H_S
M  BCL BND NonConjugatedSingleBond NonConjugatedSingleBondInRing NonConjugatedSingleBondInRing NonConjugatedSingleBond NonConjugatedSingleBondInRing NonConjugatedSingleBond NonConjugatedSingleBond NonConjugatedSingleBondInRing NonConjugatedSingleBond NonConjugatedSingleBond NonConjugatedSingleBond NonConjugatedSingleBondInRing NonConjugatedSingleBond NonConjugatedSingleBond NonConjugatedSingleBond NonConjugatedSingleBond NonConjugatedSingleBond NonConjugatedSingleBond NonConjugatedSingleBond NonConjugatedSingleBond NonConjugatedSingleBond NonConjugatedSingleBond NonConjugatedSingleBond NonConjugatedSingleBond NonConjugatedSingleBondInRing NonConjugatedSingleBondInRing NonConjugatedSingleBondInRing NonConjugatedSingleBond NonConjugatedSingleBond NonConjugatedSingleBondInRing NonConjugatedSingleBond NonConjugatedSingleBond NonConjugatedSingleBond NonConjugatedSingleBondInRing NonConjugatedSingleBond NonConjugatedSingleBond NonConjugatedSingleBond NonConjugatedSingleBond NonConjugatedSingleBond NonConjugatedSingleBond NonConjugatedSingleBond NonConjugatedSingleBond NonConjugatedSingleBond NonConjugatedSingleBond NonConjugatedSingleBond NonConjugatedSingleBond ConjugatedSingleBond NonConjugatedSingleBond ConjugatedSingleBond ConjugatedSingleBond ConjugatedDoubleBond ConjugatedSingleBond ConjugatedSingleBond ConjugatedSingleBond ConjugatedDoubleBond NonConjugatedSingleBond NonConjugatedSingleBond NonConjugatedSingleBond NonConjugatedSingleBond NonConjugatedSingleBond ConjugatedDoubleBond NonConjugatedSingleBond NonConjugatedSingleBond NonConjugatedSingleBond NonConjugatedSingleBond NonConjugatedSingleBond NonConjugatedSingleBond NonConjugatedSingleBond NonConjugatedSingleBond NonConjugatedSingleBond NonConjugatedSingleBond NonConjugatedSingleBond NonConjugatedSingleBond ConjugatedDoubleBond NonConjugatedSingleBond NonConjugatedSingleBond NonConjugatedSingleBond NonConjugatedSingleBond NonConjugatedSingleBond NonConjugatedSingleBond NonConjugatedSingleBond NonConjugatedSingleBond NonConjugatedSingleBond NonConjugatedSingleBond NonConjugatedSingleBond NonConjugatedSingleBond ConjugatedDoubleBond NonConjugatedSingleBond NonConjugatedSingleBond NonConjugatedSingleBond NonConjugatedSingleBond NonConjugatedSingleBond NonConjugatedSingleBond NonConjugatedSingleBond NonConjugatedSingleBond NonConjugatedSingleBond NonConjugatedSingleBond NonConjugatedSingleBond NonConjugatedSingleBond ConjugatedDoubleBond NonConjugatedSingleBond NonConjugatedSingleBond NonConjugatedSingleBond NonConjugatedSingleBond NonConjugatedSingleBond NonConjugatedSingleBond NonConjugatedSingleBond NonConjugatedSingleBond NonConjugatedSingleBond NonConjugatedSingleBond NonConjugatedSingleBond NonConjugatedSingleBond ConjugatedDoubleBond NonConjugatedSingleBond NonConjugatedSingleBond NonConjugatedSingleBond NonConjugatedSingleBond NonConjugatedSingleBond NonConjugatedSingleBond NonConjugatedSingleBond NonConjugatedSingleBond NonConjugatedSingleBond NonConjugatedSingleBond NonConjugatedSingleBond NonConjugatedSingleBond ConjugatedDoubleBond NonConjugatedSingleBond NonConjugatedSingleBond NonConjugatedSingleBond NonConjugatedSingleBond NonConjugatedSingleBond NonConjugatedSingleBond NonConjugatedSingleBond NonConjugatedSingleBond NonConjugatedSingleBond NonConjugatedSingleBond NonConjugatedSingleBond NonConjugatedSingleBond ConjugatedDoubleBond NonConjugatedSingleBond NonConjugatedSingleBond NonConjugatedSingleBond NonConjugatedSingleBond NonConjugatedSingleBond NonConjugatedSingleBond NonConjugatedSingleBond NonConjugatedSingleBond NonConjugatedSingleBond NonConjugatedSingleBond NonConjugatedSingleBond NonConjugatedSingleBond ConjugatedDoubleBond NonConjugatedSingleBond NonConjugatedSingleBond NonConjugatedSingleBond NonConjugatedSingleBond NonConjugatedSingleBond NonConjugatedSingleBond NonConjugatedSingleBond NonConjugatedSingleBond NonConjugatedSingleBond NonConjugatedSingleBond NonConjugatedSingleBond NonConjugatedSingleBond ConjugatedDoubleBond NonConjugatedSingleBond NonConjugatedSingleBond NonConjugatedSingleBond NonConjugatedSingleBond NonConjugatedSingleBond NonConjugatedSingleBond NonConjugatedSingleBond NonConjugatedSingleBond NonConjugatedSingleBond NonConjugatedSingleBond NonConjugatedSingleBond NonConjugatedSingleBond ConjugatedDoubleBond NonConjugatedSingleBond NonConjugatedSingleBond NonConjugatedSingleBond NonConjugatedSingleBond NonConjugatedSingleBond NonConjugatedSingleBond NonConjugatedSingleBond NonConjugatedSingleBond NonConjugatedSingleBond NonConjugatedSingleBondInRing NonConjugatedSingleBondInRing NonConjugatedSingleBond NonConjugatedSingleBond NonConjugatedSingleBondInRing NonConjugatedSingleBond NonConjugatedSingleBondInRing NonConjugatedSingleBond NonConjugatedSingleBondInRing NonConjugatedSingleBond NonConjugatedSingleBond NonConjugatedSingleBondInRing NonConjugatedSingleBond NonConjugatedSingleBond NonConjugatedSingleBond NonConjugatedSingleBond NonConjugatedSingleBond NonConjugatedSingleBond NonConjugatedSingleBond NonConjugatedSingleBond NonConjugatedSingleBond NonConjugatedSingleBondInRing NonConjugatedSingleBondInRing NonConjugatedSingleBond NonConjugatedSingleBondInRing NonConjugatedSingleBond NonConjugatedSingleBondInRing NonConjugatedSingleBond NonConjugatedSingleBondInRing NonConjugatedSingleBond NonConjugatedSingleBondInRing NonConjugatedSingleBond NonConjugatedSingleBond NonConjugatedSingleBond NonConjugatedSingleBond AmideSingleBond NonConjugatedSingleBond NonConjugatedSingleBond NonConjugatedSingleBond NonConjugatedSingleBond NonConjugatedSingleBond ConjugatedDoubleBond NonConjugatedSingleBond NonConjugatedSingleBond NonConjugatedSingleBond NonConjugatedSingleBond
M  BCL CHI   1   R   4   R   8   R  17   S  20   R  22   S  25   R  29   S  38   S  42   R  46   R  50   S 185   R 187   S 190   S 192   R 194   R 205   R 207   S 210   R 212   S 214   S
M  BCL DBI - - E E E E E E E E Z - -
M  END
> <ConfClashScore>
0.00338448 

> <ConfOneFourInteractionScore>
-0.96201 

> <ConfScore>
0.417125 

> <ConfScorePBest>
0.0132445 

> <ConfTolerance>
3.61853 

$$$$
L05.****
  PyMOL2.5          3D                             0

230233  0  0  0  0  0  0  0  0999 V2000
   11.9829   -3.5263   -2.7164 C   0  0  0  1  0  0  0  0  0  0  0  0
   11.9821   -4.5699   -2.9526 H   0  0  0  1  0  0  0  0  0  0  0  0
   11.6530   -2.7716   -3.8466 O   0  0  0  1  0  0  0  0  0  0  0  0
   10.9005   -3.2142   -1.6709 C   0  0  0  1  0  0  0  0  0  0  0  0
   11.1488   -2.3390   -1.1076 H   0  0  0  1  0  0  0  0  0  0  0  0
   10.7101   -4.3156   -0.7815 O   0  0  0  1  0  0  0  0  0  0  0  0
   10.0681   -4.9229   -1.1563 H   0  0  0  1  0  0  0  0  0  0  0  0
    9.6686   -2.9829   -2.5281 C   0  0  0  1  0  0  0  0  0  0  0  0
    9.1528   -3.9011   -2.7172 H   0  0  0  1  0  0  0  0  0  0  0  0
    8.7776   -2.0544   -1.9082 O   0  0  0  1  0  0  0  0  0  0  0  0
    9.0682   -1.8825   -1.0095 H   0  0  0  1  0  0  0  0  0  0  0  0
   10.2373   -2.6534   -6.3598 C   0  0  0  1  0  0  0  0  0  0  0  0
   10.3084   -1.5899   -6.4541 H   0  0  0  1  0  0  0  0  0  0  0  0
   11.2197   -3.0774   -6.3488 H   0  0  0  1  0  0  0  0  0  0  0  0
    9.5323   -3.1647   -7.4833 O   0  0  0  1  0  0  0  0  0  0  0  0
    9.6810   -2.5949   -8.2414 H   0  0  0  1  0  0  0  0  0  0  0  0
    9.5498   -2.9815   -5.0447 C   0  0  0  1  0  0  0  0  0  0  0  0
    9.5529   -4.0461   -4.9374 H   0  0  0  1  0  0  0  0  0  0  0  0
    8.2023   -2.5249   -5.0276 O   0  0  0  1  0  0  0  0  0  0  0  0
   10.2636   -2.3985   -3.8331 C   0  0  0  1  0  0  0  0  0  0  0  0
   10.1663   -1.3330   -3.8396 H   0  0  0  1  0  0  0  0  0  0  0  0
    7.2008   -3.4002   -4.5879 C   0  0  0  1  0  0  0  0  0  0  0  0
    6.5725   -3.6670   -5.4120 H   0  0  0  1  0  0  0  0  0  0  0  0
    7.7733   -4.5545   -4.0104 O   0  0  0  1  0  0  0  0  0  0  0  0
    6.3819   -2.7569   -3.4835 C   0  0  0  1  0  0  0  0  0  0  0  0
    5.5603   -2.2009   -3.8845 H   0  0  0  1  0  0  0  0  0  0  0  0
    7.1884   -1.8993   -2.6746 O   0  0  0  1  0  0  0  0  0  0  0  0
    6.6273   -1.2676   -2.2189 H   0  0  0  1  0  0  0  0  0  0  0  0
    5.9015   -3.9517   -2.7008 C   0  0  0  1  0  0  0  0  0  0  0  0
    5.0584   -4.4131   -3.1709 H   0  0  0  1  0  0  0  0  0  0  0  0
    5.5643   -3.5955   -1.3632 O   0  0  0  1  0  0  0  0  0  0  0  0
    5.5732   -2.6396   -1.2742 H   0  0  0  1  0  0  0  0  0  0  0  0
    5.7358   -6.6095   -1.5678 C   0  0  0  1  0  0  0  0  0  0  0  0
    6.2371   -6.5698   -0.6234 H   0  0  0  1  0  0  0  0  0  0  0  0
    4.9401   -5.8942   -1.5803 H   0  0  0  1  0  0  0  0  0  0  0  0
    5.2185   -7.9140   -1.7877 O   0  0  0  1  0  0  0  0  0  0  0  0
    5.8585   -8.4338   -2.2795 H   0  0  0  1  0  0  0  0  0  0  0  0
    6.7194   -6.3123   -2.6912 C   0  0  0  1  0  0  0  0  0  0  0  0
    6.2788   -6.5871   -3.6268 H   0  0  0  1  0  0  0  0  0  0  0  0
    7.9375   -7.0468   -2.4764 O   0  0  0  1  0  0  0  0  0  0  0  0
    8.2318   -6.9215   -1.5712 H   0  0  0  1  0  0  0  0  0  0  0  0
    7.1298   -4.8597   -2.7432 C   0  0  0  1  0  0  0  0  0  0  0  0
    7.7859   -4.6445   -1.9258 H   0  0  0  1  0  0  0  0  0  0  0  0
   13.2656   -3.1509   -2.2279 O   0  0  0  1  0  0  0  0  0  0  0  0
   23.8590   -7.1245   -6.7226 O   0  0  0  1  0  0  0  0  0  0  0  0
   23.4584   -5.8580   -6.0027 P   0  0  0  1  0  0  0  0  0  0  0  0
   22.3605   -6.2515   -4.8969 O   0  0  0  1  0  0  0  0  0  0  0  0
   22.6621   -4.9215   -6.8978 O   0  0  0  0  0  0  0  0  0  0  0  0
   24.5793   -5.1759   -5.2592 O   0  0  0  1  0  0  0  0  0  0  0  0
   22.5543   -6.3541   -3.3288 P   0  0  0  1  0  0  0  0  0  0  0  0
   21.1272   -6.5982   -2.7211 O   0  0  0  1  0  0  0  0  0  0  0  0
   23.2582   -5.1330   -2.8861 O   0  0  0  0  0  0  0  0  0  0  0  0
   23.3246   -7.5710   -2.9785 O   0  0  0  1  0  0  0  0  0  0  0  0
   25.0091   -7.2112   -7.5785 C   0  0  0  1  0  0  0  0  0  0  0  0
   25.5386   -6.2815   -7.5660 H   0  0  0  1  0  0  0  0  0  0  0  0
   24.6985   -7.4321   -8.5783 H   0  0  0  1  0  0  0  0  0  0  0  0
   25.9002   -8.3072   -7.0724 C   0  0  0  1  0  0  0  0  0  0  0  0
   25.4478   -9.0411   -6.4908 H   0  0  0  1  0  0  0  0  0  0  0  0
   27.2046   -8.4417   -7.2867 C   0  0  0  1  0  0  0  0  0  0  0  0
   28.0870   -9.3665   -6.4996 C   0  0  0  1  0  0  0  0  0  0  0  0
   28.1159   -9.0494   -5.4781 H   0  0  0  1  0  0  0  0  0  0  0  0
   29.0763   -9.3476   -6.9068 H   0  0  0  1  0  0  0  0  0  0  0  0
   27.6978  -10.3618   -6.5530 H   0  0  0  1  0  0  0  0  0  0  0  0
   27.9091   -7.6606   -8.3566 C   0  0  0  1  0  0  0  0  0  0  0  0
   28.8864   -8.0744   -8.4926 H   0  0  0  1  0  0  0  0  0  0  0  0
   27.9934   -6.6433   -8.0360 H   0  0  0  1  0  0  0  0  0  0  0  0
   27.1818   -7.6887   -9.6909 C   0  0  0  1  0  0  0  0  0  0  0  0
   26.1576   -7.4265   -9.5261 H   0  0  0  1  0  0  0  0  0  0  0  0
   27.2370   -8.6808  -10.0880 H   0  0  0  1  0  0  0  0  0  0  0  0
   27.7640   -6.7355  -10.7000 C   0  0  0  1  0  0  0  0  0  0  0  0
   28.4412   -6.0340  -10.3382 H   0  0  0  1  0  0  0  0  0  0  0  0
   27.5064   -6.6932  -12.0042 C   0  0  0  1  0  0  0  0  0  0  0  0
   27.8458   -5.5566  -12.9265 C   0  0  0  1  0  0  0  0  0  0  0  0
   26.9621   -4.9912  -13.1369 H   0  0  0  1  0  0  0  0  0  0  0  0
   28.2458   -5.9457  -13.8395 H   0  0  0  1  0  0  0  0  0  0  0  0
   28.5713   -4.9235  -12.4599 H   0  0  0  1  0  0  0  0  0  0  0  0
   26.8191   -7.8573  -12.6557 C   0  0  0  1  0  0  0  0  0  0  0  0
   26.5783   -8.5766  -11.9010 H   0  0  0  1  0  0  0  0  0  0  0  0
   27.4896   -8.2950  -13.3654 H   0  0  0  1  0  0  0  0  0  0  0  0
   25.5369   -7.4650  -13.3781 C   0  0  0  1  0  0  0  0  0  0  0  0
   25.7840   -6.7825  -14.1643 H   0  0  0  1  0  0  0  0  0  0  0  0
   24.8856   -6.9837  -12.6789 H   0  0  0  1  0  0  0  0  0  0  0  0
   24.8207   -8.6292  -13.9689 C   0  0  0  1  0  0  0  0  0  0  0  0
   25.3841   -9.1587  -14.6645 H   0  0  0  1  0  0  0  0  0  0  0  0
   23.6017   -9.1231  -13.7801 C   0  0  0  1  0  0  0  0  0  0  0  0
   22.4949   -8.3735  -13.0879 C   0  0  0  1  0  0  0  0  0  0  0  0
   22.8577   -7.3957  -12.8488 H   0  0  0  1  0  0  0  0  0  0  0  0
   22.2562   -8.8965  -12.1854 H   0  0  0  1  0  0  0  0  0  0  0  0
   23.2285  -10.4992  -14.2548 C   0  0  0  1  0  0  0  0  0  0  0  0
   22.7250  -11.0235  -13.4697 H   0  0  0  1  0  0  0  0  0  0  0  0
   24.1137  -11.0337  -14.5297 H   0  0  0  1  0  0  0  0  0  0  0  0
   22.5810  -10.4202  -15.1030 H   0  0  0  1  0  0  0  0  0  0  0  0
   21.2140   -8.2151  -13.8908 C   0  0  0  1  0  0  0  0  0  0  0  0
   20.7031   -9.1551  -13.9060 H   0  0  0  1  0  0  0  0  0  0  0  0
   21.4712   -7.9321  -14.8901 H   0  0  0  1  0  0  0  0  0  0  0  0
   20.2965   -7.1860  -13.3281 C   0  0  0  1  0  0  0  0  0  0  0  0
   19.3006   -7.4843  -13.2979 H   0  0  0  1  0  0  0  0  0  0  0  0
   20.5047   -5.9500  -12.8531 C   0  0  0  1  0  0  0  0  0  0  0  0
   21.7818   -5.1931  -13.0939 C   0  0  0  1  0  0  0  0  0  0  0  0
   22.4915   -5.8705  -13.5209 H   0  0  0  1  0  0  0  0  0  0  0  0
   22.1432   -4.8463  -12.1484 H   0  0  0  1  0  0  0  0  0  0  0  0
   19.4101   -5.2872  -12.0405 C   0  0  0  1  0  0  0  0  0  0  0  0
   19.2654   -5.8275  -11.1284 H   0  0  0  1  0  0  0  0  0  0  0  0
   18.4996   -5.2865  -12.6026 H   0  0  0  1  0  0  0  0  0  0  0  0
   19.6926   -4.2797  -11.8170 H   0  0  0  1  0  0  0  0  0  0  0  0
   21.6634   -3.9932  -14.0194 C   0  0  0  1  0  0  0  0  0  0  0  0
   20.8821   -3.3700  -13.6372 H   0  0  0  1  0  0  0  0  0  0  0  0
   21.3871   -4.3602  -14.9857 H   0  0  0  1  0  0  0  0  0  0  0  0
   22.8731   -3.1353  -14.1963 C   0  0  0  1  0  0  0  0  0  0  0  0
   23.7002   -3.5405  -14.6794 H   0  0  0  1  0  0  0  0  0  0  0  0
   22.9450   -1.8746  -13.7650 C   0  0  0  1  0  0  0  0  0  0  0  0
   21.9099   -1.3110  -12.8286 C   0  0  0  1  0  0  0  0  0  0  0  0
   22.4237   -0.9554  -11.9600 H   0  0  0  1  0  0  0  0  0  0  0  0
   21.2563   -2.1124  -12.5540 H   0  0  0  1  0  0  0  0  0  0  0  0
   24.0621   -0.9667  -14.1966 C   0  0  0  1  0  0  0  0  0  0  0  0
   24.8881   -1.0723  -13.5246 H   0  0  0  1  0  0  0  0  0  0  0  0
   23.7214    0.0475  -14.1860 H   0  0  0  1  0  0  0  0  0  0  0  0
   24.3723   -1.2290  -15.1865 H   0  0  0  1  0  0  0  0  0  0  0  0
   21.0431   -0.1728  -13.3420 C   0  0  0  1  0  0  0  0  0  0  0  0
   20.5881   -0.4669  -14.2647 H   0  0  0  1  0  0  0  0  0  0  0  0
   21.6560    0.6891  -13.5047 H   0  0  0  1  0  0  0  0  0  0  0  0
   19.9728    0.1661  -12.3536 C   0  0  0  1  0  0  0  0  0  0  0  0
   19.2807   -0.5744  -12.1209 H   0  0  0  1  0  0  0  0  0  0  0  0
   19.8399    1.3477  -11.7481 C   0  0  0  1  0  0  0  0  0  0  0  0
   20.5660    2.5657  -12.2494 C   0  0  0  1  0  0  0  0  0  0  0  0
   21.1187    2.2963  -13.1251 H   0  0  0  1  0  0  0  0  0  0  0  0
   21.2414    2.8968  -11.4885 H   0  0  0  1  0  0  0  0  0  0  0  0
   18.9595    1.5092  -10.5409 C   0  0  0  1  0  0  0  0  0  0  0  0
   18.2223    2.2603  -10.7344 H   0  0  0  1  0  0  0  0  0  0  0  0
   19.5553    1.8023   -9.7019 H   0  0  0  1  0  0  0  0  0  0  0  0
   18.4739    0.5800  -10.3271 H   0  0  0  1  0  0  0  0  0  0  0  0
   19.6326    3.7129  -12.6004 C   0  0  0  1  0  0  0  0  0  0  0  0
   19.5286    4.3310  -11.7331 H   0  0  0  1  0  0  0  0  0  0  0  0
   18.6812    3.2971  -12.8588 H   0  0  0  1  0  0  0  0  0  0  0  0
   20.0790    4.5773  -13.7304 C   0  0  0  1  0  0  0  0  0  0  0  0
   20.1697    4.0955  -14.6476 H   0  0  0  1  0  0  0  0  0  0  0  0
   20.3781    5.8719  -13.7391 C   0  0  0  1  0  0  0  0  0  0  0  0
   20.6272    6.6769  -12.4982 C   0  0  0  1  0  0  0  0  0  0  0  0
   20.1256    6.2148  -11.6737 H   0  0  0  1  0  0  0  0  0  0  0  0
   20.2454    7.6664  -12.6394 H   0  0  0  1  0  0  0  0  0  0  0  0
   20.4917    6.6441  -15.0233 C   0  0  0  1  0  0  0  0  0  0  0  0
   20.0345    6.0890  -15.8155 H   0  0  0  1  0  0  0  0  0  0  0  0
   21.5244    6.8063  -15.2515 H   0  0  0  1  0  0  0  0  0  0  0  0
   19.9971    7.5870  -14.9171 H   0  0  0  1  0  0  0  0  0  0  0  0
   22.1148    6.7551  -12.1961 C   0  0  0  1  0  0  0  0  0  0  0  0
   22.4662    5.7620  -12.0086 H   0  0  0  1  0  0  0  0  0  0  0  0
   22.2421    7.3510  -11.3165 H   0  0  0  1  0  0  0  0  0  0  0  0
   22.9589    7.3463  -13.2801 C   0  0  0  1  0  0  0  0  0  0  0  0
   22.9850    6.8676  -14.2030 H   0  0  0  1  0  0  0  0  0  0  0  0
   23.6779    8.4540  -13.1219 C   0  0  0  1  0  0  0  0  0  0  0  0
   23.4063    9.3449  -11.9393 C   0  0  0  1  0  0  0  0  0  0  0  0
   22.3941    9.1853  -11.6314 H   0  0  0  1  0  0  0  0  0  0  0  0
   23.5275   10.3598  -12.2560 H   0  0  0  1  0  0  0  0  0  0  0  0
   24.7723    8.9236  -14.0350 C   0  0  0  1  0  0  0  0  0  0  0  0
   24.4601    9.8153  -14.5375 H   0  0  0  1  0  0  0  0  0  0  0  0
   24.9847    8.1633  -14.7573 H   0  0  0  1  0  0  0  0  0  0  0  0
   25.6523    9.1272  -13.4614 H   0  0  0  1  0  0  0  0  0  0  0  0
   24.3043    9.1195  -10.7338 C   0  0  0  1  0  0  0  0  0  0  0  0
   24.3782   10.0367  -10.1879 H   0  0  0  1  0  0  0  0  0  0  0  0
   25.2745    8.8313  -11.0810 H   0  0  0  1  0  0  0  0  0  0  0  0
   23.7933    8.0572   -9.8131 C   0  0  0  1  0  0  0  0  0  0  0  0
   23.1442    8.3182   -9.0435 H   0  0  0  1  0  0  0  0  0  0  0  0
   24.1527    6.7876   -9.9597 C   0  0  0  1  0  0  0  0  0  0  0  0
   23.5500    5.6609   -9.1665 C   0  0  0  1  0  0  0  0  0  0  0  0
   24.3213    5.1735   -8.6075 H   0  0  0  1  0  0  0  0  0  0  0  0
   23.0990    4.9608   -9.8383 H   0  0  0  1  0  0  0  0  0  0  0  0
   25.2825    6.4297  -10.8803 C   0  0  0  1  0  0  0  0  0  0  0  0
   25.7982    5.6243  -10.4003 H   0  0  0  1  0  0  0  0  0  0  0  0
   25.9363    7.2663  -11.0125 H   0  0  0  1  0  0  0  0  0  0  0  0
   24.9050    6.1176  -11.8316 H   0  0  0  1  0  0  0  0  0  0  0  0
   22.4929    6.1825   -8.2068 C   0  0  0  1  0  0  0  0  0  0  0  0
   21.7626    6.7273   -8.7680 H   0  0  0  1  0  0  0  0  0  0  0  0
   22.9644    6.8371   -7.5039 H   0  0  0  1  0  0  0  0  0  0  0  0
   21.7984    5.0939   -7.4520 C   0  0  0  1  0  0  0  0  0  0  0  0
   21.9328    4.1355   -7.8328 H   0  0  0  1  0  0  0  0  0  0  0  0
   21.0351    5.1699   -6.3671 C   0  0  0  1  0  0  0  0  0  0  0  0
   20.7153    6.4572   -5.6613 C   0  0  0  1  0  0  0  0  0  0  0  0
   20.0665    7.0484   -6.2732 H   0  0  0  1  0  0  0  0  0  0  0  0
   21.6206    6.9968   -5.4765 H   0  0  0  1  0  0  0  0  0  0  0  0
   20.2310    6.2431   -4.7314 H   0  0  0  1  0  0  0  0  0  0  0  0
   20.4177    3.9395   -5.7479 C   0  0  0  1  0  0  0  0  0  0  0  0
   20.7479    3.8936   -4.7312 H   0  0  0  1  0  0  0  0  0  0  0  0
   20.7365    3.0651   -6.2759 H   0  0  0  1  0  0  0  0  0  0  0  0
   19.3505    4.0087   -5.7830 H   0  0  0  1  0  0  0  0  0  0  0  0
   16.1995   -5.0981   -1.7709 C   0  0  0  1  0  0  0  0  0  0  0  0
   16.5663   -5.6453   -0.9278 H   0  0  0  1  0  0  0  0  0  0  0  0
   14.9064   -5.7246   -2.2523 C   0  0  0  1  0  0  0  0  0  0  0  0
   15.0899   -6.7307   -2.5670 H   0  0  0  1  0  0  0  0  0  0  0  0
   15.9708   -3.7439   -1.3916 O   0  0  0  1  0  0  0  0  0  0  0  0
   14.3734   -4.9131   -3.4220 C   0  0  0  1  0  0  0  0  0  0  0  0
   13.3812   -5.2465   -3.6438 H   0  0  0  1  0  0  0  0  0  0  0  0
   15.6362   -2.9284   -2.5352 C   0  0  0  1  0  0  0  0  0  0  0  0
   16.4164   -2.9982   -3.2641 H   0  0  0  1  0  0  0  0  0  0  0  0
   14.3306   -3.4203   -3.1407 C   0  0  0  1  0  0  0  0  0  0  0  0
   14.1550   -2.8988   -4.0583 H   0  0  0  1  0  0  0  0  0  0  0  0
   17.1616   -5.1384   -2.8184 O   0  0  0  1  0  0  0  0  0  0  0  0
   13.9488   -5.7237   -1.1919 O   0  0  0  1  0  0  0  0  0  0  0  0
   14.2615   -6.2834   -0.4773 H   0  0  0  1  0  0  0  0  0  0  0  0
   15.2113   -5.1372   -4.5466 O   0  0  0  1  0  0  0  0  0  0  0  0
   14.6701   -5.3224   -5.3176 H   0  0  0  1  0  0  0  0  0  0  0  0
   15.4795   -1.4891   -2.0998 C   0  0  0  1  0  0  0  0  0  0  0  0
   14.6399   -1.4042   -1.4421 H   0  0  0  1  0  0  0  0  0  0  0  0
   15.3226   -0.8717   -2.9596 H   0  0  0  1  0  0  0  0  0  0  0  0
   16.3653   -1.1726   -1.5898 H   0  0  0  1  0  0  0  0  0  0  0  0
   19.9373   -5.9433   -3.2118 C   0  0  0  1  0  0  0  0  0  0  0  0
   19.1784   -6.6742   -3.3981 H   0  0  0  1  0  0  0  0  0  0  0  0
   19.4458   -4.9600   -2.1849 C   0  0  0  1  0  0  0  0  0  0  0  0
   20.2222   -4.2567   -1.9668 H   0  0  0  1  0  0  0  0  0  0  0  0
   20.2369   -5.2575   -4.4122 O   0  0  0  1  0  0  0  0  0  0  0  0
   18.2458   -4.2290   -2.7132 C   0  0  0  1  0  0  0  0  0  0  0  0
   17.9891   -3.4445   -2.0323 H   0  0  0  1  0  0  0  0  0  0  0  0
   19.0519   -4.6982   -5.0063 C   0  0  0  1  0  0  0  0  0  0  0  0
   19.2917   -4.2647   -5.9547 H   0  0  0  1  0  0  0  0  0  0  0  0
   18.5173   -3.6294   -4.0732 C   0  0  0  1  0  0  0  0  0  0  0  0
   17.6088   -3.2302   -4.4734 H   0  0  0  1  0  0  0  0  0  0  0  0
   19.0807   -5.6728   -0.9698 N   0  0  0  1  0  0  0  0  0  0  0  0
   18.1394   -5.9008   -0.8200 H   0  0  0  1  0  0  0  0  0  0  0  0
   19.4825   -2.5840   -3.9467 O   0  0  0  1  0  0  0  0  0  0  0  0
   20.2493   -2.9725   -3.5193 H   0  0  0  1  0  0  0  0  0  0  0  0
   18.0186   -5.7748   -5.1933 C   0  0  0  1  0  0  0  0  0  0  0  0
   17.0905   -5.3166   -5.4648 H   0  0  0  1  0  0  0  0  0  0  0  0
   17.9002   -6.3013   -4.2693 H   0  0  0  1  0  0  0  0  0  0  0  0
   18.3817   -6.7071   -6.2072 O   0  0  0  1  0  0  0  0  0  0  0  0
   19.0980   -6.3275   -6.7214 H   0  0  0  1  0  0  0  0  0  0  0  0
   19.9840   -6.0273   -0.0515 C   0  0  0  1  0  0  0  0  0  0  0  0
   21.1969   -5.9180   -0.2229 O   0  0  0  1  0  0  0  0  0  0  0  0
   19.4491   -6.6879    1.2253 C   0  0  0  1  0  0  0  0  0  0  0  0
   20.0976   -7.5240    1.3844 H   0  0  0  1  0  0  0  0  0  0  0  0
   18.4390   -7.0132    1.0885 H   0  0  0  1  0  0  0  0  0  0  0  0
   19.4971   -6.0093    2.0512 H   0  0  0  1  0  0  0  0  0  0  0  0
  1  2  1  0  0  0  0
  1  3  1  0  0  0  0
  1  4  1  0  0  0  0
  1 44  1  0  0  0  0
  3 20  1  0  0  0  0
  4  5  1  0  0  0  0
  4  6  1  0  0  0  0
  4  8  1  0  0  0  0
  6  7  1  0  0  0  0
  8  9  1  0  0  0  0
  8 10  1  0  0  0  0
  8 20  1  0  0  0  0
 10 11  1  0  0  0  0
 12 13  1  0  0  0  0
 12 14  1  0  0  0  0
 12 15  1  0  0  0  0
 12 17  1  0  0  0  0
 15 16  1  0  0  0  0
 17 18  1  0  0  0  0
 17 19  1  0  0  0  0
 17 20  1  0  0  0  0
 19 22  1  0  0  0  0
 20 21  1  0  0  0  0
 22 23  1  0  0  0  0
 22 24  1  0  0  0  0
 22 25  1  0  0  0  0
 24 42  1  0  0  0  0
 25 26  1  0  0  0  0
 25 27  1  0  0  0  0
 25 29  1  0  0  0  0
 27 28  1  0  0  0  0
 29 30  1  0  0  0  0
 29 31  1  0  0  0  0
 29 42  1  0  0  0  0
 31 32  1  0  0  0  0
 33 34  1  0  0  0  0
 33 35  1  0  0  0  0
 33 36  1  0  0  0  0
 33 38  1  0  0  0  0
 36 37  1  0  0  0  0
 38 39  1  0  0  0  0
 38 40  1  0  0  0  0
 38 42  1  0  0  0  0
 40 41  1  0  0  0  0
 42 43  1  0  0  0  0
 44194  1  0  0  0  0
 45 46  1  0  0  0  0
 45 54  1  0  0  0  0
 46 47  1  0  0  0  0
 46 48  1  0  0  0  0
 46 49  2  0  0  0  0
 47 50  1  0  0  0  0
 50 51  1  0  0  0  0
 50 52  1  0  0  0  0
 50 53  2  0  0  0  0
 51205  1  0  0  0  0
 54 55  1  0  0  0  0
 54 56  1  0  0  0  0
 54 57  1  0  0  0  0
 57 58  1  0  0  0  0
 57 59  2  0  0  0  0
 59 60  1  0  0  0  0
 59 64  1  0  0  0  0
 60 61  1  0  0  0  0
 60 62  1  0  0  0  0
 60 63  1  0  0  0  0
 64 65  1  0  0  0  0
 64 66  1  0  0  0  0
 64 67  1  0  0  0  0
 67 68  1  0  0  0  0
 67 69  1  0  0  0  0
 67 70  1  0  0  0  0
 70 71  1  0  0  0  0
 70 72  2  0  0  0  0
 72 73  1  0  0  0  0
 72 77  1  0  0  0  0
 73 74  1  0  0  0  0
 73 75  1  0  0  0  0
 73 76  1  0  0  0  0
 77 78  1  0  0  0  0
 77 79  1  0  0  0  0
 77 80  1  0  0  0  0
 80 81  1  0  0  0  0
 80 82  1  0  0  0  0
 80 83  1  0  0  0  0
 83 84  1  0  0  0  0
 83 85  2  0  0  0  0
 85 86  1  0  0  0  0
 85 89  1  0  0  0  0
 86 87  1  0  0  0  0
 86 88  1  0  0  0  0
 86 93  1  0  0  0  0
 89 90  1  0  0  0  0
 89 91  1  0  0  0  0
 89 92  1  0  0  0  0
 93 94  1  0  0  0  0
 93 95  1  0  0  0  0
 93 96  1  0  0  0  0
 96 97  1  0  0  0  0
 96 98  2  0  0  0  0
 98 99  1  0  0  0  0
 98102  1  0  0  0  0
 99100  1  0  0  0  0
 99101  1  0  0  0  0
 99106  1  0  0  0  0
102103  1  0  0  0  0
102104  1  0  0  0  0
102105  1  0  0  0  0
106107  1  0  0  0  0
106108  1  0  0  0  0
106109  1  0  0  0  0
109110  1  0  0  0  0
109111  2  0  0  0  0
111112  1  0  0  0  0
111115  1  0  0  0  0
112113  1  0  0  0  0
112114  1  0  0  0  0
112119  1  0  0  0  0
115116  1  0  0  0  0
115117  1  0  0  0  0
115118  1  0  0  0  0
119120  1  0  0  0  0
119121  1  0  0  0  0
119122  1  0  0  0  0
122123  1  0  0  0  0
122124  2  0  0  0  0
124125  1  0  0  0  0
124128  1  0  0  0  0
125126  1  0  0  0  0
125127  1  0  0  0  0
125132  1  0  0  0  0
128129  1  0  0  0  0
128130  1  0  0  0  0
128131  1  0  0  0  0
132133  1  0  0  0  0
132134  1  0  0  0  0
132135  1  0  0  0  0
135136  1  0  0  0  0
135137  2  0  0  0  0
137138  1  0  0  0  0
137141  1  0  0  0  0
138139  1  0  0  0  0
138140  1  0  0  0  0
138145  1  0  0  0  0
141142  1  0  0  0  0
141143  1  0  0  0  0
141144  1  0  0  0  0
145146  1  0  0  0  0
145147  1  0  0  0  0
145148  1  0  0  0  0
148149  1  0  0  0  0
148150  2  0  0  0  0
150151  1  0  0  0  0
150154  1  0  0  0  0
151152  1  0  0  0  0
151153  1  0  0  0  0
151158  1  0  0  0  0
154155  1  0  0  0  0
154156  1  0  0  0  0
154157  1  0  0  0  0
158159  1  0  0  0  0
158160  1  0  0  0  0
158161  1  0  0  0  0
161162  1  0  0  0  0
161163  2  0  0  0  0
163164  1  0  0  0  0
163167  1  0  0  0  0
164165  1  0  0  0  0
164166  1  0  0  0  0
164171  1  0  0  0  0
167168  1  0  0  0  0
167169  1  0  0  0  0
167170  1  0  0  0  0
171172  1  0  0  0  0
171173  1  0  0  0  0
171174  1  0  0  0  0
174175  1  0  0  0  0
174176  2  0  0  0  0
176177  1  0  0  0  0
176181  1  0  0  0  0
177178  1  0  0  0  0
177179  1  0  0  0  0
177180  1  0  0  0  0
181182  1  0  0  0  0
181183  1  0  0  0  0
181184  1  0  0  0  0
185186  1  0  0  0  0
185187  1  0  0  0  0
185189  1  0  0  0  0
185196  1  0  0  0  0
187188  1  0  0  0  0
187190  1  0  0  0  0
187197  1  0  0  0  0
189192  1  0  0  0  0
190191  1  0  0  0  0
190194  1  0  0  0  0
190199  1  0  0  0  0
192193  1  0  0  0  0
192194  1  0  0  0  0
192201  1  0  0  0  0
194195  1  0  0  0  0
196210  1  0  0  0  0
197198  1  0  0  0  0
199200  1  0  0  0  0
201202  1  0  0  0  0
201203  1  0  0  0  0
201204  1  0  0  0  0
205206  1  0  0  0  0
205207  1  0  0  0  0
205209  1  0  0  0  0
207208  1  0  0  0  0
207210  1  0  0  0  0
207216  1  0  0  0  0
209212  1  0  0  0  0
210211  1  0  0  0  0
210214  1  0  0  0  0
212213  1  0  0  0  0
212214  1  0  0  0  0
212220  1  0  0  0  0
214215  1  0  0  0  0
214218  1  0  0  0  0
216217  1  0  0  0  0
216225  1  0  0  0  0
218219  1  0  0  0  0
220221  1  0  0  0  0
220222  1  0  0  0  0
220223  1  0  0  0  0
223224  1  0  0  0  0
225226  2  0  0  0  0
225227  1  0  0  0  0
227228  1  0  0  0  0
227229  1  0  0  0  0
227230  1  0  0  0  0
M  BCL ATM C_TeTeTeTe H_S O_Te2Te2TeTe C_TeTeTeTe H_S O_Te2Te2TeTe H_S C_TeTeTeTe H_S O_Te2Te2TeTe H_S C_TeTeTeTe H_S H_S O_Te2Te2TeTe H_S C_TeTeTeTe H_S O_Te2Te2TeTe C_TeTeTeTe H_S C_TeTeTeTe H_S O_Te2Te2TeTe C_TeTeTeTe H_S O_Te2Te2TeTe H_S C_TeTeTeTe H_S O_Te2Te2TeTe H_S C_TeTeTeTe H_S H_S O_Te2Te2TeTe H_S C_TeTeTeTe H_S O_Te2Te2TeTe H_S C_TeTeTeTe H_S O_Te2Te2TeTe O_Tr2TrTrPi2 P_TeTeTeTePi O_Tr2TrTrPi2 O_Te2Te2TeTe O_Tr2Tr2TrPi P_TeTeTeTePi O_Tr2TrTrPi2 O_Te2Te2TeTe O_Tr2Tr2TrPi C_TeTeTeTe H_S H_S C_TrTrTrPi H_S C_TrTrTrPi C_TeTeTeTe H_S H_S H_S C_TeTeTeTe H_S H_S C_TeTeTeTe H_S H_S C_TrTrTrPi H_S C_TrTrTrPi C_TeTeTeTe H_S H_S H_S C_TeTeTeTe H_S H_S C_TeTeTeTe H_S H_S C_TrTrTrPi H_S C_TrTrTrPi C_TeTeTeTe H_S H_S C_TeTeTeTe H_S H_S H_S C_TeTeTeTe H_S H_S C_TrTrTrPi H_S C_TrTrTrPi C_TeTeTeTe H_S H_S C_TeTeTeTe H_S H_S H_S C_TeTeTeTe H_S H_S C_TrTrTrPi H_S C_TrTrTrPi C_TeTeTeTe H_S H_S C_TeTeTeTe H_S H_S H_S C_TeTeTeTe H_S H_S C_TrTrTrPi H_S C_TrTrTrPi C_TeTeTeTe H_S H_S C_TeTeTeTe H_S H_S H_S C_TeTeTeTe H_S H_S C_TrTrTrPi H_S C_TrTrTrPi C_TeTeTeTe H_S H_S C_TeTeTeTe H_S H_S H_S C_TeTeTeTe H_S H_S C_TrTrTrPi H_S C_TrTrTrPi C_TeTeTeTe H_S H_S C_TeTeTeTe H_S H_S H_S C_TeTeTeTe H_S H_S C_TrTrTrPi H_S C_TrTrTrPi C_TeTeTeTe H_S H_S C_TeTeTeTe H_S H_S H_S C_TeTeTeTe H_S H_S C_TrTrTrPi H_S C_TrTrTrPi C_TeTeTeTe H_S H_S H_S C_TeTeTeTe H_S H_S H_S C_TeTeTeTe H_S C_TeTeTeTe H_S O_Te2Te2TeTe C_TeTeTeTe H_S C_TeTeTeTe H_S C_TeTeTeTe H_S O_Te2Te2TeTe O_Te2Te2TeTe H_S O_Te2Te2TeTe H_S C_TeTeTeTe H_S H_S H_S C_TeTeTeTe H_S C_TeTeTeTe H_S O_Te2Te2TeTe C_TeTeTeTe H_S C_TeTeTeTe H_S C_TeTeTeTe H_S N_TrTrTrPi2 H_S O_Te2Te2TeTe H_S C_TeTeTeTe H_S H_S O_Te2Te2TeTe H_S C_TrTrTrPi O_Tr2Tr2TrPi C_TeTeTeTe H_S H_S H_S
M  BCL BND NonConjugatedSingleBond NonConjugatedSingleBondInRing NonConjugatedSingleBondInRing NonConjugatedSingleBond NonConjugatedSingleBondInRing NonConjugatedSingleBond NonConjugatedSingleBond NonConjugatedSingleBondInRing NonConjugatedSingleBond NonConjugatedSingleBond NonConjugatedSingleBond NonConjugatedSingleBondInRing NonConjugatedSingleBond NonConjugatedSingleBond NonConjugatedSingleBond NonConjugatedSingleBond NonConjugatedSingleBond NonConjugatedSingleBond NonConjugatedSingleBond NonConjugatedSingleBond NonConjugatedSingleBond NonConjugatedSingleBond NonConjugatedSingleBond NonConjugatedSingleBond NonConjugatedSingleBondInRing NonConjugatedSingleBondInRing NonConjugatedSingleBondInRing NonConjugatedSingleBond NonConjugatedSingleBond NonConjugatedSingleBondInRing NonConjugatedSingleBond NonConjugatedSingleBond NonConjugatedSingleBond NonConjugatedSingleBondInRing NonConjugatedSingleBond NonConjugatedSingleBond NonConjugatedSingleBond NonConjugatedSingleBond NonConjugatedSingleBond NonConjugatedSingleBond NonConjugatedSingleBond NonConjugatedSingleBond NonConjugatedSingleBond NonConjugatedSingleBond NonConjugatedSingleBond NonConjugatedSingleBond ConjugatedSingleBond NonConjugatedSingleBond ConjugatedSingleBond ConjugatedSingleBond ConjugatedDoubleBond ConjugatedSingleBond ConjugatedSingleBond ConjugatedSingleBond ConjugatedDoubleBond NonConjugatedSingleBond NonConjugatedSingleBond NonConjugatedSingleBond NonConjugatedSingleBond NonConjugatedSingleBond ConjugatedDoubleBond NonConjugatedSingleBond NonConjugatedSingleBond NonConjugatedSingleBond NonConjugatedSingleBond NonConjugatedSingleBond NonConjugatedSingleBond NonConjugatedSingleBond NonConjugatedSingleBond NonConjugatedSingleBond NonConjugatedSingleBond NonConjugatedSingleBond NonConjugatedSingleBond ConjugatedDoubleBond NonConjugatedSingleBond NonConjugatedSingleBond NonConjugatedSingleBond NonConjugatedSingleBond NonConjugatedSingleBond NonConjugatedSingleBond NonConjugatedSingleBond NonConjugatedSingleBond NonConjugatedSingleBond NonConjugatedSingleBond NonConjugatedSingleBond NonConjugatedSingleBond ConjugatedDoubleBond NonConjugatedSingleBond NonConjugatedSingleBond NonConjugatedSingleBond NonConjugatedSingleBond NonConjugatedSingleBond NonConjugatedSingleBond NonConjugatedSingleBond NonConjugatedSingleBond NonConjugatedSingleBond NonConjugatedSingleBond NonConjugatedSingleBond NonConjugatedSingleBond ConjugatedDoubleBond NonConjugatedSingleBond NonConjugatedSingleBond NonConjugatedSingleBond NonConjugatedSingleBond NonConjugatedSingleBond NonConjugatedSingleBond NonConjugatedSingleBond NonConjugatedSingleBond NonConjugatedSingleBond NonConjugatedSingleBond NonConjugatedSingleBond NonConjugatedSingleBond ConjugatedDoubleBond NonConjugatedSingleBond NonConjugatedSingleBond NonConjugatedSingleBond NonConjugatedSingleBond NonConjugatedSingleBond NonConjugatedSingleBond NonConjugatedSingleBond NonConjugatedSingleBond NonConjugatedSingleBond NonConjugatedSingleBond NonConjugatedSingleBond NonConjugatedSingleBond ConjugatedDoubleBond NonConjugatedSingleBond NonConjugatedSingleBond NonConjugatedSingleBond NonConjugatedSingleBond NonConjugatedSingleBond NonConjugatedSingleBond NonConjugatedSingleBond NonConjugatedSingleBond NonConjugatedSingleBond NonConjugatedSingleBond NonConjugatedSingleBond NonConjugatedSingleBond ConjugatedDoubleBond NonConjugatedSingleBond NonConjugatedSingleBond NonConjugatedSingleBond NonConjugatedSingleBond NonConjugatedSingleBond NonConjugatedSingleBond NonConjugatedSingleBond NonConjugatedSingleBond NonConjugatedSingleBond NonConjugatedSingleBond NonConjugatedSingleBond NonConjugatedSingleBond ConjugatedDoubleBond NonConjugatedSingleBond NonConjugatedSingleBond NonConjugatedSingleBond NonConjugatedSingleBond NonConjugatedSingleBond NonConjugatedSingleBond NonConjugatedSingleBond NonConjugatedSingleBond NonConjugatedSingleBond NonConjugatedSingleBond NonConjugatedSingleBond NonConjugatedSingleBond ConjugatedDoubleBond NonConjugatedSingleBond NonConjugatedSingleBond NonConjugatedSingleBond NonConjugatedSingleBond NonConjugatedSingleBond NonConjugatedSingleBond NonConjugatedSingleBond NonConjugatedSingleBond NonConjugatedSingleBond NonConjugatedSingleBond NonConjugatedSingleBond NonConjugatedSingleBond ConjugatedDoubleBond NonConjugatedSingleBond NonConjugatedSingleBond NonConjugatedSingleBond NonConjugatedSingleBond NonConjugatedSingleBond NonConjugatedSingleBond NonConjugatedSingleBond NonConjugatedSingleBond NonConjugatedSingleBond NonConjugatedSingleBondInRing NonConjugatedSingleBondInRing NonConjugatedSingleBond NonConjugatedSingleBond NonConjugatedSingleBondInRing NonConjugatedSingleBond NonConjugatedSingleBondInRing NonConjugatedSingleBond NonConjugatedSingleBondInRing NonConjugatedSingleBond NonConjugatedSingleBond NonConjugatedSingleBondInRing NonConjugatedSingleBond NonConjugatedSingleBond NonConjugatedSingleBond NonConjugatedSingleBond NonConjugatedSingleBond NonConjugatedSingleBond NonConjugatedSingleBond NonConjugatedSingleBond NonConjugatedSingleBond NonConjugatedSingleBondInRing NonConjugatedSingleBondInRing NonConjugatedSingleBond NonConjugatedSingleBondInRing NonConjugatedSingleBond NonConjugatedSingleBondInRing NonConjugatedSingleBond NonConjugatedSingleBondInRing NonConjugatedSingleBond NonConjugatedSingleBondInRing NonConjugatedSingleBond NonConjugatedSingleBond NonConjugatedSingleBond NonConjugatedSingleBond AmideSingleBond NonConjugatedSingleBond NonConjugatedSingleBond NonConjugatedSingleBond NonConjugatedSingleBond NonConjugatedSingleBond ConjugatedDoubleBond NonConjugatedSingleBond NonConjugatedSingleBond NonConjugatedSingleBond NonConjugatedSingleBond
M  BCL CHI   1   R   4   R   8   R  17   S  20   R  22   S  25   R  29   S  38   S  42   R  46   R  50   S 185   R 187   S 190   S 192   R 194   R 205   R 207   S 210   R 212   S 214   S
M  BCL DBI - - E E E E E E E E Z - -
M  END
> <ConfClashScore>
0.0033541 

> <ConfOneFourInteractionScore>
-0.965831 

> <ConfScore>
0.427265 

> <ConfScorePBest>
0.0131415 

> <ConfTolerance>
3.1386 

$$$$
L05.****
  PyMOL2.5          3D                             0

230233  0  0  0  0  0  0  0  0999 V2000
   12.1321   -2.7384   -3.3408 C   0  0  0  1  0  0  0  0  0  0  0  0
   11.2774   -2.6134   -2.7093 H   0  0  0  1  0  0  0  0  0  0  0  0
   11.8084   -3.5816   -4.4880 O   0  0  0  1  0  0  0  0  0  0  0  0
   12.5438   -1.4187   -3.9519 C   0  0  0  1  0  0  0  0  0  0  0  0
   13.5843   -1.4210   -4.2016 H   0  0  0  1  0  0  0  0  0  0  0  0
   12.2697   -0.3362   -3.0612 O   0  0  0  1  0  0  0  0  0  0  0  0
   11.8486    0.3781   -3.5450 H   0  0  0  1  0  0  0  0  0  0  0  0
   11.6771   -1.3227   -5.2146 C   0  0  0  1  0  0  0  0  0  0  0  0
   10.7428   -0.8449   -5.0056 H   0  0  0  1  0  0  0  0  0  0  0  0
   12.3552   -0.6112   -6.2516 O   0  0  0  1  0  0  0  0  0  0  0  0
   12.0118    0.2838   -6.3036 H   0  0  0  1  0  0  0  0  0  0  0  0
    9.0471   -2.7252   -4.8455 C   0  0  0  1  0  0  0  0  0  0  0  0
    8.1114   -3.1996   -5.0558 H   0  0  0  1  0  0  0  0  0  0  0  0
    9.4481   -3.1150   -3.9333 H   0  0  0  1  0  0  0  0  0  0  0  0
    8.8273   -1.3399   -4.6882 O   0  0  0  1  0  0  0  0  0  0  0  0
    8.5550   -0.9613   -5.5273 H   0  0  0  1  0  0  0  0  0  0  0  0
   10.0161   -3.0348   -5.9761 C   0  0  0  1  0  0  0  0  0  0  0  0
    9.7770   -2.4052   -6.8076 H   0  0  0  1  0  0  0  0  0  0  0  0
    9.9206   -4.4002   -6.3650 O   0  0  0  1  0  0  0  0  0  0  0  0
   11.4719   -2.7970   -5.5973 C   0  0  0  1  0  0  0  0  0  0  0  0
   12.1019   -3.0486   -6.4247 H   0  0  0  1  0  0  0  0  0  0  0  0
    8.8642   -4.6632   -7.2525 C   0  0  0  1  0  0  0  0  0  0  0  0
    8.5875   -5.6945   -7.1828 H   0  0  0  1  0  0  0  0  0  0  0  0
    7.7388   -3.8298   -6.9384 O   0  0  0  1  0  0  0  0  0  0  0  0
    9.2763   -4.3377   -8.6487 C   0  0  0  1  0  0  0  0  0  0  0  0
    9.3764   -5.2320   -9.2276 H   0  0  0  1  0  0  0  0  0  0  0  0
   10.5153   -3.6268   -8.6512 O   0  0  0  1  0  0  0  0  0  0  0  0
   11.0507   -3.9137   -7.9078 H   0  0  0  1  0  0  0  0  0  0  0  0
    8.1976   -3.4939   -9.1872 C   0  0  0  1  0  0  0  0  0  0  0  0
    7.4702   -4.0893   -9.6984 H   0  0  0  1  0  0  0  0  0  0  0  0
    8.7212   -2.5137  -10.0787 O   0  0  0  1  0  0  0  0  0  0  0  0
    9.2621   -1.8906   -9.5880 H   0  0  0  1  0  0  0  0  0  0  0  0
    5.4086   -2.2119   -6.9164 C   0  0  0  1  0  0  0  0  0  0  0  0
    5.3858   -3.0903   -6.3057 H   0  0  0  1  0  0  0  0  0  0  0  0
    5.9240   -1.4302   -6.3986 H   0  0  0  1  0  0  0  0  0  0  0  0
    4.0794   -1.7966   -7.1958 O   0  0  0  1  0  0  0  0  0  0  0  0
    4.0663   -0.8502   -7.3561 H   0  0  0  1  0  0  0  0  0  0  0  0
    6.1328   -2.5195   -8.2167 C   0  0  0  1  0  0  0  0  0  0  0  0
    6.0631   -1.6714   -8.8653 H   0  0  0  1  0  0  0  0  0  0  0  0
    5.5866   -3.6745   -8.8480 O   0  0  0  1  0  0  0  0  0  0  0  0
    4.7618   -3.9143   -8.4192 H   0  0  0  1  0  0  0  0  0  0  0  0
    7.5977   -2.8454   -7.9799 C   0  0  0  1  0  0  0  0  0  0  0  0
    8.1267   -1.9499   -7.7288 H   0  0  0  1  0  0  0  0  0  0  0  0
   13.2008   -3.3004   -2.5880 O   0  0  0  1  0  0  0  0  0  0  0  0
   22.5035   -9.4704   -0.2446 O   0  0  0  1  0  0  0  0  0  0  0  0
   22.7779   -9.9246   -1.7851 P   0  0  0  1  0  0  0  0  0  0  0  0
   21.2669  -10.2580   -2.2058 O   0  0  0  1  0  0  0  0  0  0  0  0
   23.6142  -11.1523   -1.7868 O   0  0  0  0  0  0  0  0  0  0  0  0
   23.1967   -8.7321   -2.5632 O   0  0  0  1  0  0  0  0  0  0  0  0
   20.2662   -9.4549   -3.0731 P   0  0  0  1  0  0  0  0  0  0  0  0
   20.3436   -8.0372   -2.4027 O   0  0  0  1  0  0  0  0  0  0  0  0
   18.8645  -10.0247   -2.7428 O   0  0  0  0  0  0  0  0  0  0  0  0
   20.6585   -9.4524   -4.4858 O   0  0  0  1  0  0  0  0  0  0  0  0
   23.6315   -9.5262    0.6403 C   0  0  0  1  0  0  0  0  0  0  0  0
   23.8324   -8.5456    1.0184 H   0  0  0  1  0  0  0  0  0  0  0  0
   24.4848   -9.8833    0.1025 H   0  0  0  1  0  0  0  0  0  0  0  0
   23.3474  -10.4499    1.7870 C   0  0  0  1  0  0  0  0  0  0  0  0
   24.0952  -10.5782    2.4982 H   0  0  0  1  0  0  0  0  0  0  0  0
   22.2124  -11.1161    1.9619 C   0  0  0  1  0  0  0  0  0  0  0  0
   21.8756  -11.7521    3.2792 C   0  0  0  1  0  0  0  0  0  0  0  0
   22.6448  -11.5313    3.9895 H   0  0  0  1  0  0  0  0  0  0  0  0
   21.7995  -12.8121    3.1542 H   0  0  0  1  0  0  0  0  0  0  0  0
   20.9424  -11.3663    3.6330 H   0  0  0  1  0  0  0  0  0  0  0  0
   21.1738  -11.2995    0.8912 C   0  0  0  1  0  0  0  0  0  0  0  0
   21.6595  -11.2764   -0.0619 H   0  0  0  1  0  0  0  0  0  0  0  0
   20.4732  -10.4933    0.9548 H   0  0  0  1  0  0  0  0  0  0  0  0
   20.4152  -12.6107    1.0160 C   0  0  0  1  0  0  0  0  0  0  0  0
   19.9179  -12.6277    1.9633 H   0  0  0  1  0  0  0  0  0  0  0  0
   21.1175  -13.4165    0.9668 H   0  0  0  1  0  0  0  0  0  0  0  0
   19.3980  -12.8014   -0.0575 C   0  0  0  1  0  0  0  0  0  0  0  0
   18.4462  -12.4472    0.1662 H   0  0  0  1  0  0  0  0  0  0  0  0
   19.5282  -13.3593   -1.2626 C   0  0  0  1  0  0  0  0  0  0  0  0
   18.3250  -13.7557   -2.0705 C   0  0  0  1  0  0  0  0  0  0  0  0
   18.1100  -14.7910   -1.9066 H   0  0  0  1  0  0  0  0  0  0  0  0
   18.5237  -13.5930   -3.1092 H   0  0  0  1  0  0  0  0  0  0  0  0
   17.4843  -13.1654   -1.7709 H   0  0  0  1  0  0  0  0  0  0  0  0
   20.8811  -13.6132   -1.8594 C   0  0  0  1  0  0  0  0  0  0  0  0
   21.2291  -14.5668   -1.5211 H   0  0  0  1  0  0  0  0  0  0  0  0
   21.5504  -12.8489   -1.5235 H   0  0  0  1  0  0  0  0  0  0  0  0
   20.8708  -13.6134   -3.3794 C   0  0  0  1  0  0  0  0  0  0  0  0
   20.4193  -12.6967   -3.6966 H   0  0  0  1  0  0  0  0  0  0  0  0
   20.2660  -14.4375   -3.6954 H   0  0  0  1  0  0  0  0  0  0  0  0
   22.1950  -13.7305   -4.0841 C   0  0  0  1  0  0  0  0  0  0  0  0
   22.7363  -12.8562   -4.2396 H   0  0  0  1  0  0  0  0  0  0  0  0
   22.7174  -14.8530   -4.5171 C   0  0  0  1  0  0  0  0  0  0  0  0
   21.9965  -16.1564   -4.3301 C   0  0  0  1  0  0  0  0  0  0  0  0
   22.0885  -16.7174   -5.2366 H   0  0  0  1  0  0  0  0  0  0  0  0
   20.9648  -15.9396   -4.1474 H   0  0  0  1  0  0  0  0  0  0  0  0
   24.0839  -14.9549   -5.1343 C   0  0  0  1  0  0  0  0  0  0  0  0
   23.9888  -15.1342   -6.1849 H   0  0  0  1  0  0  0  0  0  0  0  0
   24.6199  -15.7630   -4.6819 H   0  0  0  1  0  0  0  0  0  0  0  0
   24.6158  -14.0402   -4.9755 H   0  0  0  1  0  0  0  0  0  0  0  0
   22.5029  -17.0231   -3.1888 C   0  0  0  1  0  0  0  0  0  0  0  0
   21.8373  -17.8500   -3.0542 H   0  0  0  1  0  0  0  0  0  0  0  0
   22.5336  -16.4398   -2.2923 H   0  0  0  1  0  0  0  0  0  0  0  0
   23.8704  -17.5393   -3.4833 C   0  0  0  1  0  0  0  0  0  0  0  0
   24.5135  -17.5809   -2.6671 H   0  0  0  1  0  0  0  0  0  0  0  0
   24.3891  -17.9539   -4.6342 C   0  0  0  1  0  0  0  0  0  0  0  0
   23.6102  -18.0417   -5.9161 C   0  0  0  1  0  0  0  0  0  0  0  0
   24.2720  -18.3562   -6.6959 H   0  0  0  1  0  0  0  0  0  0  0  0
   23.2226  -17.0713   -6.1463 H   0  0  0  1  0  0  0  0  0  0  0  0
   25.8250  -18.3752   -4.7417 C   0  0  0  1  0  0  0  0  0  0  0  0
   26.2419  -18.4764   -3.7615 H   0  0  0  1  0  0  0  0  0  0  0  0
   26.3733  -17.6361   -5.2877 H   0  0  0  1  0  0  0  0  0  0  0  0
   25.8839  -19.3134   -5.2527 H   0  0  0  1  0  0  0  0  0  0  0  0
   22.4500  -19.0210   -5.8420 C   0  0  0  1  0  0  0  0  0  0  0  0
   21.7372  -18.6515   -5.1347 H   0  0  0  1  0  0  0  0  0  0  0  0
   22.8238  -19.9674   -5.5113 H   0  0  0  1  0  0  0  0  0  0  0  0
   21.7568  -19.2150   -7.1641 C   0  0  0  1  0  0  0  0  0  0  0  0
   22.3413  -19.4954   -7.9773 H   0  0  0  1  0  0  0  0  0  0  0  0
   20.4549  -19.0550   -7.3693 C   0  0  0  1  0  0  0  0  0  0  0  0
   19.4876  -18.9796   -6.2239 C   0  0  0  1  0  0  0  0  0  0  0  0
   20.0051  -19.1960   -5.3128 H   0  0  0  1  0  0  0  0  0  0  0  0
   18.7105  -19.6999   -6.3730 H   0  0  0  1  0  0  0  0  0  0  0  0
   19.8287  -18.9357   -8.7302 C   0  0  0  1  0  0  0  0  0  0  0  0
   18.8681  -19.4072   -8.7239 H   0  0  0  1  0  0  0  0  0  0  0  0
   20.4554  -19.4134   -9.4540 H   0  0  0  1  0  0  0  0  0  0  0  0
   19.7166  -17.9017   -8.9816 H   0  0  0  1  0  0  0  0  0  0  0  0
   18.8709  -17.5935   -6.1297 C   0  0  0  1  0  0  0  0  0  0  0  0
   18.0964  -17.5147   -6.8637 H   0  0  0  1  0  0  0  0  0  0  0  0
   19.6308  -16.8681   -6.3329 H   0  0  0  1  0  0  0  0  0  0  0  0
   18.2837  -17.3037   -4.7849 C   0  0  0  1  0  0  0  0  0  0  0  0
   18.8872  -17.4597   -3.9524 H   0  0  0  1  0  0  0  0  0  0  0  0
   17.0493  -16.8621   -4.5748 C   0  0  0  1  0  0  0  0  0  0  0  0
   16.0067  -16.9188   -5.6516 C   0  0  0  1  0  0  0  0  0  0  0  0
   16.4474  -17.3411   -6.5304 H   0  0  0  1  0  0  0  0  0  0  0  0
   15.6782  -15.9221   -5.8604 H   0  0  0  1  0  0  0  0  0  0  0  0
   16.5791  -16.2763   -3.2756 C   0  0  0  1  0  0  0  0  0  0  0  0
   16.3083  -15.2517   -3.4231 H   0  0  0  1  0  0  0  0  0  0  0  0
   17.3651  -16.3367   -2.5522 H   0  0  0  1  0  0  0  0  0  0  0  0
   15.7285  -16.8228   -2.9254 H   0  0  0  1  0  0  0  0  0  0  0  0
   14.7978  -17.7559   -5.2665 C   0  0  0  1  0  0  0  0  0  0  0  0
   14.1294  -17.7930   -6.1012 H   0  0  0  1  0  0  0  0  0  0  0  0
   14.3090  -17.2872   -4.4380 H   0  0  0  1  0  0  0  0  0  0  0  0
   15.1540  -19.1560   -4.8791 C   0  0  0  1  0  0  0  0  0  0  0  0
   15.5803  -19.7633   -5.6078 H   0  0  0  1  0  0  0  0  0  0  0  0
   14.9665  -19.6817   -3.6733 C   0  0  0  1  0  0  0  0  0  0  0  0
   14.0876  -19.0659   -2.6237 C   0  0  0  1  0  0  0  0  0  0  0  0
   14.3735  -18.0408   -2.5136 H   0  0  0  1  0  0  0  0  0  0  0  0
   14.2585  -19.5852   -1.7038 H   0  0  0  1  0  0  0  0  0  0  0  0
   15.6363  -20.9622   -3.2608 C   0  0  0  1  0  0  0  0  0  0  0  0
   16.5946  -20.7439   -2.8378 H   0  0  0  1  0  0  0  0  0  0  0  0
   15.7598  -21.5918   -4.1172 H   0  0  0  1  0  0  0  0  0  0  0  0
   15.0315  -21.4627   -2.5338 H   0  0  0  1  0  0  0  0  0  0  0  0
   12.5965  -19.1081   -2.9158 C   0  0  0  1  0  0  0  0  0  0  0  0
   12.2575  -20.1217   -2.8646 H   0  0  0  1  0  0  0  0  0  0  0  0
   12.4204  -18.7217   -3.8979 H   0  0  0  1  0  0  0  0  0  0  0  0
   11.8380  -18.2866   -1.9223 C   0  0  0  1  0  0  0  0  0  0  0  0
   11.9169  -18.5744   -0.9260 H   0  0  0  1  0  0  0  0  0  0  0  0
   11.0749  -17.2297   -2.1743 C   0  0  0  1  0  0  0  0  0  0  0  0
   10.6140  -16.9135   -3.5690 C   0  0  0  1  0  0  0  0  0  0  0  0
    9.7307  -17.4782   -3.7830 H   0  0  0  1  0  0  0  0  0  0  0  0
   11.3847  -17.1796   -4.2619 H   0  0  0  1  0  0  0  0  0  0  0  0
   10.6050  -16.2662   -1.1241 C   0  0  0  1  0  0  0  0  0  0  0  0
   10.9129  -16.6115   -0.1592 H   0  0  0  1  0  0  0  0  0  0  0  0
    9.5376  -16.1985   -1.1545 H   0  0  0  1  0  0  0  0  0  0  0  0
   11.0296  -15.3017   -1.3097 H   0  0  0  1  0  0  0  0  0  0  0  0
   10.3052  -15.4321   -3.7116 C   0  0  0  1  0  0  0  0  0  0  0  0
   10.2918  -15.1857   -4.7528 H   0  0  0  1  0  0  0  0  0  0  0  0
   11.0767  -14.8747   -3.2226 H   0  0  0  1  0  0  0  0  0  0  0  0
    8.9803  -15.0453   -3.1107 C   0  0  0  1  0  0  0  0  0  0  0  0
    8.1569  -15.6103   -3.4011 H   0  0  0  1  0  0  0  0  0  0  0  0
    8.7488  -14.0604   -2.2494 C   0  0  0  1  0  0  0  0  0  0  0  0
    7.3801  -13.6885   -1.7577 C   0  0  0  1  0  0  0  0  0  0  0  0
    7.4044  -13.6810   -0.6880 H   0  0  0  1  0  0  0  0  0  0  0  0
    6.6938  -14.4372   -2.0941 H   0  0  0  1  0  0  0  0  0  0  0  0
    9.8665  -13.2258   -1.6901 C   0  0  0  1  0  0  0  0  0  0  0  0
   10.2918  -13.8095   -0.9006 H   0  0  0  1  0  0  0  0  0  0  0  0
    9.4875  -12.3007   -1.3087 H   0  0  0  1  0  0  0  0  0  0  0  0
   10.5988  -13.0278   -2.4448 H   0  0  0  1  0  0  0  0  0  0  0  0
    6.8652  -12.3367   -2.2245 C   0  0  0  1  0  0  0  0  0  0  0  0
    7.2588  -12.1407   -3.2000 H   0  0  0  1  0  0  0  0  0  0  0  0
    7.2099  -11.5871   -1.5431 H   0  0  0  1  0  0  0  0  0  0  0  0
    5.3642  -12.2691   -2.2914 C   0  0  0  1  0  0  0  0  0  0  0  0
    4.8913  -12.8089   -3.0441 H   0  0  0  1  0  0  0  0  0  0  0  0
    4.5906  -11.5650   -1.4532 C   0  0  0  1  0  0  0  0  0  0  0  0
    5.1484  -10.6937   -0.3927 C   0  0  0  1  0  0  0  0  0  0  0  0
    4.4859   -9.8712   -0.2211 H   0  0  0  1  0  0  0  0  0  0  0  0
    6.1037  -10.3235   -0.7014 H   0  0  0  1  0  0  0  0  0  0  0  0
    5.2583  -11.2571    0.5102 H   0  0  0  1  0  0  0  0  0  0  0  0
    3.0910  -11.6626   -1.5942 C   0  0  0  1  0  0  0  0  0  0  0  0
    2.7420  -10.7183   -1.9565 H   0  0  0  1  0  0  0  0  0  0  0  0
    2.6475  -11.8764   -0.6442 H   0  0  0  1  0  0  0  0  0  0  0  0
    2.8385  -12.4367   -2.2885 H   0  0  0  1  0  0  0  0  0  0  0  0
   16.0047   -5.2277   -1.5906 C   0  0  0  1  0  0  0  0  0  0  0  0
   16.1872   -5.7704   -0.6867 H   0  0  0  1  0  0  0  0  0  0  0  0
   14.8185   -5.8432   -2.3215 C   0  0  0  1  0  0  0  0  0  0  0  0
   15.0447   -6.8542   -2.5893 H   0  0  0  1  0  0  0  0  0  0  0  0
   15.7151   -3.8634   -1.2770 O   0  0  0  1  0  0  0  0  0  0  0  0
   14.5479   -5.0219   -3.5861 C   0  0  0  1  0  0  0  0  0  0  0  0
   13.6366   -5.3647   -4.0297 H   0  0  0  1  0  0  0  0  0  0  0  0
   15.5888   -3.0483   -2.4526 C   0  0  0  1  0  0  0  0  0  0  0  0
   16.4903   -3.1099   -3.0257 H   0  0  0  1  0  0  0  0  0  0  0  0
   14.4203   -3.5364   -3.2959 C   0  0  0  1  0  0  0  0  0  0  0  0
   14.4064   -2.9984   -4.2206 H   0  0  0  1  0  0  0  0  0  0  0  0
   17.1265   -5.2870   -2.3998 O   0  0  0  1  0  0  0  0  0  0  0  0
   13.6666   -5.8200   -1.4761 O   0  0  0  1  0  0  0  0  0  0  0  0
   13.5445   -4.9348   -1.1252 H   0  0  0  1  0  0  0  0  0  0  0  0
   15.6210   -5.2182   -4.4953 O   0  0  0  1  0  0  0  0  0  0  0  0
   16.1110   -4.3986   -4.5945 H   0  0  0  1  0  0  0  0  0  0  0  0
   15.3479   -1.6150   -2.0448 C   0  0  0  1  0  0  0  0  0  0  0  0
   14.8242   -1.1046   -2.8259 H   0  0  0  1  0  0  0  0  0  0  0  0
   16.2863   -1.1317   -1.8698 H   0  0  0  1  0  0  0  0  0  0  0  0
   14.7623   -1.5928   -1.1495 H   0  0  0  1  0  0  0  0  0  0  0  0
   19.5381   -6.8950   -2.7691 C   0  0  0  1  0  0  0  0  0  0  0  0
   18.6391   -7.2294   -3.2433 H   0  0  0  1  0  0  0  0  0  0  0  0
   19.1917   -6.1083   -1.5346 C   0  0  0  1  0  0  0  0  0  0  0  0
   20.0921   -5.8134   -1.0373 H   0  0  0  1  0  0  0  0  0  0  0  0
   20.2644   -6.0719   -3.6613 O   0  0  0  1  0  0  0  0  0  0  0  0
   18.4083   -4.8851   -1.9133 C   0  0  0  1  0  0  0  0  0  0  0  0
   18.2847   -4.2695   -1.0469 H   0  0  0  1  0  0  0  0  0  0  0  0
   19.4538   -4.9905   -4.1549 C   0  0  0  1  0  0  0  0  0  0  0  0
   19.9964   -4.4383   -4.8935 H   0  0  0  1  0  0  0  0  0  0  0  0
   19.1123   -4.0871   -2.9860 C   0  0  0  1  0  0  0  0  0  0  0  0
   18.4708   -3.2991   -3.3214 H   0  0  0  1  0  0  0  0  0  0  0  0
   18.3931   -6.9361   -0.6429 N   0  0  0  1  0  0  0  0  0  0  0  0
   17.4199   -6.9515   -0.7569 H   0  0  0  1  0  0  0  0  0  0  0  0
   20.3147   -3.5285   -2.4504 O   0  0  0  1  0  0  0  0  0  0  0  0
   20.9924   -3.6505   -3.1193 H   0  0  0  1  0  0  0  0  0  0  0  0
   18.2033   -5.5310   -4.7573 C   0  0  0  1  0  0  0  0  0  0  0  0
   17.6191   -4.7067   -5.1095 H   0  0  0  1  0  0  0  0  0  0  0  0
   17.6631   -6.0514   -3.9942 H   0  0  0  1  0  0  0  0  0  0  0  0
   18.4071   -6.4187   -5.8355 O   0  0  0  1  0  0  0  0  0  0  0  0
   17.6926   -6.2958   -6.4648 H   0  0  0  1  0  0  0  0  0  0  0  0
   18.9407   -7.6757    0.3257 C   0  0  0  1  0  0  0  0  0  0  0  0
   20.1560   -7.7777    0.4844 O   0  0  0  1  0  0  0  0  0  0  0  0
   17.9650   -8.3960    1.2359 C   0  0  0  1  0  0  0  0  0  0  0  0
   17.3282   -7.6216    1.6098 H   0  0  0  1  0  0  0  0  0  0  0  0
   18.4823   -8.8806    2.0374 H   0  0  0  1  0  0  0  0  0  0  0  0
   17.3990   -9.1194    0.6871 H   0  0  0  1  0  0  0  0  0  0  0  0
  1  2  1  0  0  0  0
  1  3  1  0  0  0  0
  1  4  1  0  0  0  0
  1 44  1  0  0  0  0
  3 20  1  0  0  0  0
  4  5  1  0  0  0  0
  4  6  1  0  0  0  0
  4  8  1  0  0  0  0
  6  7  1  0  0  0  0
  8  9  1  0  0  0  0
  8 10  1  0  0  0  0
  8 20  1  0  0  0  0
 10 11  1  0  0  0  0
 12 13  1  0  0  0  0
 12 14  1  0  0  0  0
 12 15  1  0  0  0  0
 12 17  1  0  0  0  0
 15 16  1  0  0  0  0
 17 18  1  0  0  0  0
 17 19  1  0  0  0  0
 17 20  1  0  0  0  0
 19 22  1  0  0  0  0
 20 21  1  0  0  0  0
 22 23  1  0  0  0  0
 22 24  1  0  0  0  0
 22 25  1  0  0  0  0
 24 42  1  0  0  0  0
 25 26  1  0  0  0  0
 25 27  1  0  0  0  0
 25 29  1  0  0  0  0
 27 28  1  0  0  0  0
 29 30  1  0  0  0  0
 29 31  1  0  0  0  0
 29 42  1  0  0  0  0
 31 32  1  0  0  0  0
 33 34  1  0  0  0  0
 33 35  1  0  0  0  0
 33 36  1  0  0  0  0
 33 38  1  0  0  0  0
 36 37  1  0  0  0  0
 38 39  1  0  0  0  0
 38 40  1  0  0  0  0
 38 42  1  0  0  0  0
 40 41  1  0  0  0  0
 42 43  1  0  0  0  0
 44194  1  0  0  0  0
 45 46  1  0  0  0  0
 45 54  1  0  0  0  0
 46 47  1  0  0  0  0
 46 48  1  0  0  0  0
 46 49  2  0  0  0  0
 47 50  1  0  0  0  0
 50 51  1  0  0  0  0
 50 52  1  0  0  0  0
 50 53  2  0  0  0  0
 51205  1  0  0  0  0
 54 55  1  0  0  0  0
 54 56  1  0  0  0  0
 54 57  1  0  0  0  0
 57 58  1  0  0  0  0
 57 59  2  0  0  0  0
 59 60  1  0  0  0  0
 59 64  1  0  0  0  0
 60 61  1  0  0  0  0
 60 62  1  0  0  0  0
 60 63  1  0  0  0  0
 64 65  1  0  0  0  0
 64 66  1  0  0  0  0
 64 67  1  0  0  0  0
 67 68  1  0  0  0  0
 67 69  1  0  0  0  0
 67 70  1  0  0  0  0
 70 71  1  0  0  0  0
 70 72  2  0  0  0  0
 72 73  1  0  0  0  0
 72 77  1  0  0  0  0
 73 74  1  0  0  0  0
 73 75  1  0  0  0  0
 73 76  1  0  0  0  0
 77 78  1  0  0  0  0
 77 79  1  0  0  0  0
 77 80  1  0  0  0  0
 80 81  1  0  0  0  0
 80 82  1  0  0  0  0
 80 83  1  0  0  0  0
 83 84  1  0  0  0  0
 83 85  2  0  0  0  0
 85 86  1  0  0  0  0
 85 89  1  0  0  0  0
 86 87  1  0  0  0  0
 86 88  1  0  0  0  0
 86 93  1  0  0  0  0
 89 90  1  0  0  0  0
 89 91  1  0  0  0  0
 89 92  1  0  0  0  0
 93 94  1  0  0  0  0
 93 95  1  0  0  0  0
 93 96  1  0  0  0  0
 96 97  1  0  0  0  0
 96 98  2  0  0  0  0
 98 99  1  0  0  0  0
 98102  1  0  0  0  0
 99100  1  0  0  0  0
 99101  1  0  0  0  0
 99106  1  0  0  0  0
102103  1  0  0  0  0
102104  1  0  0  0  0
102105  1  0  0  0  0
106107  1  0  0  0  0
106108  1  0  0  0  0
106109  1  0  0  0  0
109110  1  0  0  0  0
109111  2  0  0  0  0
111112  1  0  0  0  0
111115  1  0  0  0  0
112113  1  0  0  0  0
112114  1  0  0  0  0
112119  1  0  0  0  0
115116  1  0  0  0  0
115117  1  0  0  0  0
115118  1  0  0  0  0
119120  1  0  0  0  0
119121  1  0  0  0  0
119122  1  0  0  0  0
122123  1  0  0  0  0
122124  2  0  0  0  0
124125  1  0  0  0  0
124128  1  0  0  0  0
125126  1  0  0  0  0
125127  1  0  0  0  0
125132  1  0  0  0  0
128129  1  0  0  0  0
128130  1  0  0  0  0
128131  1  0  0  0  0
132133  1  0  0  0  0
132134  1  0  0  0  0
132135  1  0  0  0  0
135136  1  0  0  0  0
135137  2  0  0  0  0
137138  1  0  0  0  0
137141  1  0  0  0  0
138139  1  0  0  0  0
138140  1  0  0  0  0
138145  1  0  0  0  0
141142  1  0  0  0  0
141143  1  0  0  0  0
141144  1  0  0  0  0
145146  1  0  0  0  0
145147  1  0  0  0  0
145148  1  0  0  0  0
148149  1  0  0  0  0
148150  2  0  0  0  0
150151  1  0  0  0  0
150154  1  0  0  0  0
151152  1  0  0  0  0
151153  1  0  0  0  0
151158  1  0  0  0  0
154155  1  0  0  0  0
154156  1  0  0  0  0
154157  1  0  0  0  0
158159  1  0  0  0  0
158160  1  0  0  0  0
158161  1  0  0  0  0
161162  1  0  0  0  0
161163  2  0  0  0  0
163164  1  0  0  0  0
163167  1  0  0  0  0
164165  1  0  0  0  0
164166  1  0  0  0  0
164171  1  0  0  0  0
167168  1  0  0  0  0
167169  1  0  0  0  0
167170  1  0  0  0  0
171172  1  0  0  0  0
171173  1  0  0  0  0
171174  1  0  0  0  0
174175  1  0  0  0  0
174176  2  0  0  0  0
176177  1  0  0  0  0
176181  1  0  0  0  0
177178  1  0  0  0  0
177179  1  0  0  0  0
177180  1  0  0  0  0
181182  1  0  0  0  0
181183  1  0  0  0  0
181184  1  0  0  0  0
185186  1  0  0  0  0
185187  1  0  0  0  0
185189  1  0  0  0  0
185196  1  0  0  0  0
187188  1  0  0  0  0
187190  1  0  0  0  0
187197  1  0  0  0  0
189192  1  0  0  0  0
190191  1  0  0  0  0
190194  1  0  0  0  0
190199  1  0  0  0  0
192193  1  0  0  0  0
192194  1  0  0  0  0
192201  1  0  0  0  0
194195  1  0  0  0  0
196210  1  0  0  0  0
197198  1  0  0  0  0
199200  1  0  0  0  0
201202  1  0  0  0  0
201203  1  0  0  0  0
201204  1  0  0  0  0
205206  1  0  0  0  0
205207  1  0  0  0  0
205209  1  0  0  0  0
207208  1  0  0  0  0
207210  1  0  0  0  0
207216  1  0  0  0  0
209212  1  0  0  0  0
210211  1  0  0  0  0
210214  1  0  0  0  0
212213  1  0  0  0  0
212214  1  0  0  0  0
212220  1  0  0  0  0
214215  1  0  0  0  0
214218  1  0  0  0  0
216217  1  0  0  0  0
216225  1  0  0  0  0
218219  1  0  0  0  0
220221  1  0  0  0  0
220222  1  0  0  0  0
220223  1  0  0  0  0
223224  1  0  0  0  0
225226  2  0  0  0  0
225227  1  0  0  0  0
227228  1  0  0  0  0
227229  1  0  0  0  0
227230  1  0  0  0  0
M  BCL ATM C_TeTeTeTe H_S O_Te2Te2TeTe C_TeTeTeTe H_S O_Te2Te2TeTe H_S C_TeTeTeTe H_S O_Te2Te2TeTe H_S C_TeTeTeTe H_S H_S O_Te2Te2TeTe H_S C_TeTeTeTe H_S O_Te2Te2TeTe C_TeTeTeTe H_S C_TeTeTeTe H_S O_Te2Te2TeTe C_TeTeTeTe H_S O_Te2Te2TeTe H_S C_TeTeTeTe H_S O_Te2Te2TeTe H_S C_TeTeTeTe H_S H_S O_Te2Te2TeTe H_S C_TeTeTeTe H_S O_Te2Te2TeTe H_S C_TeTeTeTe H_S O_Te2Te2TeTe O_Tr2TrTrPi2 P_TeTeTeTePi O_Tr2TrTrPi2 O_Te2Te2TeTe O_Tr2Tr2TrPi P_TeTeTeTePi O_Tr2TrTrPi2 O_Te2Te2TeTe O_Tr2Tr2TrPi C_TeTeTeTe H_S H_S C_TrTrTrPi H_S C_TrTrTrPi C_TeTeTeTe H_S H_S H_S C_TeTeTeTe H_S H_S C_TeTeTeTe H_S H_S C_TrTrTrPi H_S C_TrTrTrPi C_TeTeTeTe H_S H_S H_S C_TeTeTeTe H_S H_S C_TeTeTeTe H_S H_S C_TrTrTrPi H_S C_TrTrTrPi C_TeTeTeTe H_S H_S C_TeTeTeTe H_S H_S H_S C_TeTeTeTe H_S H_S C_TrTrTrPi H_S C_TrTrTrPi C_TeTeTeTe H_S H_S C_TeTeTeTe H_S H_S H_S C_TeTeTeTe H_S H_S C_TrTrTrPi H_S C_TrTrTrPi C_TeTeTeTe H_S H_S C_TeTeTeTe H_S H_S H_S C_TeTeTeTe H_S H_S C_TrTrTrPi H_S C_TrTrTrPi C_TeTeTeTe H_S H_S C_TeTeTeTe H_S H_S H_S C_TeTeTeTe H_S H_S C_TrTrTrPi H_S C_TrTrTrPi C_TeTeTeTe H_S H_S C_TeTeTeTe H_S H_S H_S C_TeTeTeTe H_S H_S C_TrTrTrPi H_S C_TrTrTrPi C_TeTeTeTe H_S H_S C_TeTeTeTe H_S H_S H_S C_TeTeTeTe H_S H_S C_TrTrTrPi H_S C_TrTrTrPi C_TeTeTeTe H_S H_S C_TeTeTeTe H_S H_S H_S C_TeTeTeTe H_S H_S C_TrTrTrPi H_S C_TrTrTrPi C_TeTeTeTe H_S H_S H_S C_TeTeTeTe H_S H_S H_S C_TeTeTeTe H_S C_TeTeTeTe H_S O_Te2Te2TeTe C_TeTeTeTe H_S C_TeTeTeTe H_S C_TeTeTeTe H_S O_Te2Te2TeTe O_Te2Te2TeTe H_S O_Te2Te2TeTe H_S C_TeTeTeTe H_S H_S H_S C_TeTeTeTe H_S C_TeTeTeTe H_S O_Te2Te2TeTe C_TeTeTeTe H_S C_TeTeTeTe H_S C_TeTeTeTe H_S N_TrTrTrPi2 H_S O_Te2Te2TeTe H_S C_TeTeTeTe H_S H_S O_Te2Te2TeTe H_S C_TrTrTrPi O_Tr2Tr2TrPi C_TeTeTeTe H_S H_S H_S
M  BCL BND NonConjugatedSingleBond NonConjugatedSingleBondInRing NonConjugatedSingleBondInRing NonConjugatedSingleBond NonConjugatedSingleBondInRing NonConjugatedSingleBond NonConjugatedSingleBond NonConjugatedSingleBondInRing NonConjugatedSingleBond NonConjugatedSingleBond NonConjugatedSingleBond NonConjugatedSingleBondInRing NonConjugatedSingleBond NonConjugatedSingleBond NonConjugatedSingleBond NonConjugatedSingleBond NonConjugatedSingleBond NonConjugatedSingleBond NonConjugatedSingleBond NonConjugatedSingleBond NonConjugatedSingleBond NonConjugatedSingleBond NonConjugatedSingleBond NonConjugatedSingleBond NonConjugatedSingleBondInRing NonConjugatedSingleBondInRing NonConjugatedSingleBondInRing NonConjugatedSingleBond NonConjugatedSingleBond NonConjugatedSingleBondInRing NonConjugatedSingleBond NonConjugatedSingleBond NonConjugatedSingleBond NonConjugatedSingleBondInRing NonConjugatedSingleBond NonConjugatedSingleBond NonConjugatedSingleBond NonConjugatedSingleBond NonConjugatedSingleBond NonConjugatedSingleBond NonConjugatedSingleBond NonConjugatedSingleBond NonConjugatedSingleBond NonConjugatedSingleBond NonConjugatedSingleBond NonConjugatedSingleBond ConjugatedSingleBond NonConjugatedSingleBond ConjugatedSingleBond ConjugatedSingleBond ConjugatedDoubleBond ConjugatedSingleBond ConjugatedSingleBond ConjugatedSingleBond ConjugatedDoubleBond NonConjugatedSingleBond NonConjugatedSingleBond NonConjugatedSingleBond NonConjugatedSingleBond NonConjugatedSingleBond ConjugatedDoubleBond NonConjugatedSingleBond NonConjugatedSingleBond NonConjugatedSingleBond NonConjugatedSingleBond NonConjugatedSingleBond NonConjugatedSingleBond NonConjugatedSingleBond NonConjugatedSingleBond NonConjugatedSingleBond NonConjugatedSingleBond NonConjugatedSingleBond NonConjugatedSingleBond ConjugatedDoubleBond NonConjugatedSingleBond NonConjugatedSingleBond NonConjugatedSingleBond NonConjugatedSingleBond NonConjugatedSingleBond NonConjugatedSingleBond NonConjugatedSingleBond NonConjugatedSingleBond NonConjugatedSingleBond NonConjugatedSingleBond NonConjugatedSingleBond NonConjugatedSingleBond ConjugatedDoubleBond NonConjugatedSingleBond NonConjugatedSingleBond NonConjugatedSingleBond NonConjugatedSingleBond NonConjugatedSingleBond NonConjugatedSingleBond NonConjugatedSingleBond NonConjugatedSingleBond NonConjugatedSingleBond NonConjugatedSingleBond NonConjugatedSingleBond NonConjugatedSingleBond ConjugatedDoubleBond NonConjugatedSingleBond NonConjugatedSingleBond NonConjugatedSingleBond NonConjugatedSingleBond NonConjugatedSingleBond NonConjugatedSingleBond NonConjugatedSingleBond NonConjugatedSingleBond NonConjugatedSingleBond NonConjugatedSingleBond NonConjugatedSingleBond NonConjugatedSingleBond ConjugatedDoubleBond NonConjugatedSingleBond NonConjugatedSingleBond NonConjugatedSingleBond NonConjugatedSingleBond NonConjugatedSingleBond NonConjugatedSingleBond NonConjugatedSingleBond NonConjugatedSingleBond NonConjugatedSingleBond NonConjugatedSingleBond NonConjugatedSingleBond NonConjugatedSingleBond ConjugatedDoubleBond NonConjugatedSingleBond NonConjugatedSingleBond NonConjugatedSingleBond NonConjugatedSingleBond NonConjugatedSingleBond NonConjugatedSingleBond NonConjugatedSingleBond NonConjugatedSingleBond NonConjugatedSingleBond NonConjugatedSingleBond NonConjugatedSingleBond NonConjugatedSingleBond ConjugatedDoubleBond NonConjugatedSingleBond NonConjugatedSingleBond NonConjugatedSingleBond NonConjugatedSingleBond NonConjugatedSingleBond NonConjugatedSingleBond NonConjugatedSingleBond NonConjugatedSingleBond NonConjugatedSingleBond NonConjugatedSingleBond NonConjugatedSingleBond NonConjugatedSingleBond ConjugatedDoubleBond NonConjugatedSingleBond NonConjugatedSingleBond NonConjugatedSingleBond NonConjugatedSingleBond NonConjugatedSingleBond NonConjugatedSingleBond NonConjugatedSingleBond NonConjugatedSingleBond NonConjugatedSingleBond NonConjugatedSingleBond NonConjugatedSingleBond NonConjugatedSingleBond ConjugatedDoubleBond NonConjugatedSingleBond NonConjugatedSingleBond NonConjugatedSingleBond NonConjugatedSingleBond NonConjugatedSingleBond NonConjugatedSingleBond NonConjugatedSingleBond NonConjugatedSingleBond NonConjugatedSingleBond NonConjugatedSingleBond NonConjugatedSingleBond NonConjugatedSingleBond ConjugatedDoubleBond NonConjugatedSingleBond NonConjugatedSingleBond NonConjugatedSingleBond NonConjugatedSingleBond NonConjugatedSingleBond NonConjugatedSingleBond NonConjugatedSingleBond NonConjugatedSingleBond NonConjugatedSingleBond NonConjugatedSingleBondInRing NonConjugatedSingleBondInRing NonConjugatedSingleBond NonConjugatedSingleBond NonConjugatedSingleBondInRing NonConjugatedSingleBond NonConjugatedSingleBondInRing NonConjugatedSingleBond NonConjugatedSingleBondInRing NonConjugatedSingleBond NonConjugatedSingleBond NonConjugatedSingleBondInRing NonConjugatedSingleBond NonConjugatedSingleBond NonConjugatedSingleBond NonConjugatedSingleBond NonConjugatedSingleBond NonConjugatedSingleBond NonConjugatedSingleBond NonConjugatedSingleBond NonConjugatedSingleBond NonConjugatedSingleBondInRing NonConjugatedSingleBondInRing NonConjugatedSingleBond NonConjugatedSingleBondInRing NonConjugatedSingleBond NonConjugatedSingleBondInRing NonConjugatedSingleBond NonConjugatedSingleBondInRing NonConjugatedSingleBond NonConjugatedSingleBondInRing NonConjugatedSingleBond NonConjugatedSingleBond NonConjugatedSingleBond NonConjugatedSingleBond AmideSingleBond NonConjugatedSingleBond NonConjugatedSingleBond NonConjugatedSingleBond NonConjugatedSingleBond NonConjugatedSingleBond ConjugatedDoubleBond NonConjugatedSingleBond NonConjugatedSingleBond NonConjugatedSingleBond NonConjugatedSingleBond
M  BCL CHI   1   R   4   R   8   R  17   S  20   R  22   S  25   R  29   S  38   S  42   R  46   R  50   S 185   R 187   S 190   S 192   R 194   R 205   R 207   S 210   R 212   S 214   S
M  BCL DBI - - E E E E E E E E Z - -
M  END
> <ConfClashScore>
0.00311005 

> <ConfOneFourInteractionScore>
-0.966358 

> <ConfScore>
0.431096 

> <ConfScorePBest>
0.0130385 

> <ConfTolerance>
1.43552 

$$$$
L05.****
  PyMOL2.5          3D                             0

230233  0  0  0  0  0  0  0  0999 V2000
   12.0184   -2.7938   -2.7998 C   0  0  0  1  0  0  0  0  0  0  0  0
   11.6257   -3.5784   -3.4122 H   0  0  0  1  0  0  0  0  0  0  0  0
   12.1883   -1.5758   -3.5749 O   0  0  0  1  0  0  0  0  0  0  0  0
   11.0250   -2.4210   -1.7002 C   0  0  0  1  0  0  0  0  0  0  0  0
   11.1953   -2.9907   -0.8106 H   0  0  0  1  0  0  0  0  0  0  0  0
    9.6894   -2.6023   -2.1282 O   0  0  0  1  0  0  0  0  0  0  0  0
    9.0999   -2.1014   -1.5596 H   0  0  0  1  0  0  0  0  0  0  0  0
   11.3415   -0.9629   -1.4885 C   0  0  0  1  0  0  0  0  0  0  0  0
   10.5130   -0.4465   -1.0507 H   0  0  0  1  0  0  0  0  0  0  0  0
   12.4956   -0.7991   -0.6630 O   0  0  0  1  0  0  0  0  0  0  0  0
   12.3581   -0.0630   -0.0623 H   0  0  0  1  0  0  0  0  0  0  0  0
    9.4384    0.6970   -2.5949 C   0  0  0  1  0  0  0  0  0  0  0  0
   10.0534    1.2087   -1.8844 H   0  0  0  1  0  0  0  0  0  0  0  0
    8.8368    1.4067   -3.1233 H   0  0  0  1  0  0  0  0  0  0  0  0
    8.6064   -0.2433   -1.9282 O   0  0  0  1  0  0  0  0  0  0  0  0
    8.3420   -0.9305   -2.5441 H   0  0  0  1  0  0  0  0  0  0  0  0
   10.3094   -0.0769   -3.5738 C   0  0  0  1  0  0  0  0  0  0  0  0
   10.5309    0.5506   -4.4118 H   0  0  0  1  0  0  0  0  0  0  0  0
    9.6637   -1.2686   -4.0072 O   0  0  0  1  0  0  0  0  0  0  0  0
   11.6049   -0.4793   -2.9030 C   0  0  0  1  0  0  0  0  0  0  0  0
   12.2763    0.3538   -2.8942 H   0  0  0  1  0  0  0  0  0  0  0  0
    8.5889   -1.0437   -4.8803 C   0  0  0  1  0  0  0  0  0  0  0  0
    7.7084   -0.8234   -4.3136 H   0  0  0  1  0  0  0  0  0  0  0  0
    8.8849    0.0172   -5.7639 O   0  0  0  1  0  0  0  0  0  0  0  0
    8.3610   -2.2567   -5.7639 C   0  0  0  1  0  0  0  0  0  0  0  0
    7.6913   -2.9518   -5.3021 H   0  0  0  1  0  0  0  0  0  0  0  0
    9.5927   -2.9123   -6.0695 O   0  0  0  1  0  0  0  0  0  0  0  0
    9.5973   -3.1709   -6.9941 H   0  0  0  1  0  0  0  0  0  0  0  0
    7.7475   -1.6461   -6.9976 C   0  0  0  1  0  0  0  0  0  0  0  0
    6.7053   -1.4481   -6.8583 H   0  0  0  1  0  0  0  0  0  0  0  0
    7.9244   -2.4847   -8.1356 O   0  0  0  1  0  0  0  0  0  0  0  0
    8.3206   -1.9782   -8.8484 H   0  0  0  1  0  0  0  0  0  0  0  0
    7.2161    0.3359   -9.1678 C   0  0  0  1  0  0  0  0  0  0  0  0
    6.5207    1.0739   -9.5094 H   0  0  0  1  0  0  0  0  0  0  0  0
    8.0533    0.2989   -9.8332 H   0  0  0  1  0  0  0  0  0  0  0  0
    6.5744   -0.9313   -9.1720 O   0  0  0  1  0  0  0  0  0  0  0  0
    6.3574   -1.1776  -10.0741 H   0  0  0  1  0  0  0  0  0  0  0  0
    7.7090    0.7328   -7.7848 C   0  0  0  1  0  0  0  0  0  0  0  0
    6.8599    0.9290   -7.1638 H   0  0  0  1  0  0  0  0  0  0  0  0
    8.4769    1.9248   -7.9458 O   0  0  0  1  0  0  0  0  0  0  0  0
    9.0946    2.0092   -7.2158 H   0  0  0  1  0  0  0  0  0  0  0  0
    8.5483   -0.3513   -7.1292 C   0  0  0  1  0  0  0  0  0  0  0  0
    9.4353   -0.5137   -7.7053 H   0  0  0  1  0  0  0  0  0  0  0  0
   13.2582   -3.2062   -2.2363 O   0  0  0  1  0  0  0  0  0  0  0  0
   19.5790  -11.8995   -5.4367 O   0  0  0  1  0  0  0  0  0  0  0  0
   20.2126  -10.6456   -6.0885 P   0  0  0  1  0  0  0  0  0  0  0  0
   20.2681   -9.6359   -4.8440 O   0  0  0  1  0  0  0  0  0  0  0  0
   19.1461  -10.0881   -7.0634 O   0  0  0  0  0  0  0  0  0  0  0  0
   21.5315  -10.9416   -6.6564 O   0  0  0  1  0  0  0  0  0  0  0  0
   19.6229   -9.7552   -3.3761 P   0  0  0  1  0  0  0  0  0  0  0  0
   19.9992   -8.3780   -2.7320 O   0  0  0  1  0  0  0  0  0  0  0  0
   20.3461  -10.8441   -2.6953 O   0  0  0  0  0  0  0  0  0  0  0  0
   18.1540   -9.7280   -3.4472 O   0  0  0  1  0  0  0  0  0  0  0  0
   20.3549  -12.9800   -4.8945 C   0  0  0  1  0  0  0  0  0  0  0  0
   20.9382  -12.6267   -4.0701 H   0  0  0  1  0  0  0  0  0  0  0  0
   21.0040  -13.3719   -5.6494 H   0  0  0  1  0  0  0  0  0  0  0  0
   19.4175  -14.0542   -4.4267 C   0  0  0  1  0  0  0  0  0  0  0  0
   19.8532  -14.8934   -3.9937 H   0  0  0  1  0  0  0  0  0  0  0  0
   18.0922  -14.0495   -4.5057 C   0  0  0  1  0  0  0  0  0  0  0  0
   17.2946  -15.3045   -4.3087 C   0  0  0  1  0  0  0  0  0  0  0  0
   17.5738  -15.7636   -3.3834 H   0  0  0  1  0  0  0  0  0  0  0  0
   17.4891  -15.9806   -5.1150 H   0  0  0  1  0  0  0  0  0  0  0  0
   16.2521  -15.0646   -4.2873 H   0  0  0  1  0  0  0  0  0  0  0  0
   17.2746  -12.8246   -4.7920 C   0  0  0  1  0  0  0  0  0  0  0  0
   17.1038  -12.7680   -5.8468 H   0  0  0  1  0  0  0  0  0  0  0  0
   17.8260  -11.9649   -4.4728 H   0  0  0  1  0  0  0  0  0  0  0  0
   15.9298  -12.8273   -4.0835 C   0  0  0  1  0  0  0  0  0  0  0  0
   15.7415  -13.8137   -3.7142 H   0  0  0  1  0  0  0  0  0  0  0  0
   15.1721  -12.5597   -4.7901 H   0  0  0  1  0  0  0  0  0  0  0  0
   15.8712  -11.8857   -2.9550 C   0  0  0  1  0  0  0  0  0  0  0  0
   16.2002  -10.9336   -3.2138 H   0  0  0  1  0  0  0  0  0  0  0  0
   15.4970  -11.9655   -1.6837 C   0  0  0  1  0  0  0  0  0  0  0  0
   15.5955  -10.7811   -0.7643 C   0  0  0  1  0  0  0  0  0  0  0  0
   14.9423  -10.9224    0.0714 H   0  0  0  1  0  0  0  0  0  0  0  0
   15.3116   -9.8951   -1.2928 H   0  0  0  1  0  0  0  0  0  0  0  0
   16.6026  -10.6825   -0.4168 H   0  0  0  1  0  0  0  0  0  0  0  0
   14.9504  -13.2132   -1.0462 C   0  0  0  1  0  0  0  0  0  0  0  0
   14.4717  -12.9235   -0.1341 H   0  0  0  1  0  0  0  0  0  0  0  0
   15.7812  -13.8509   -0.8266 H   0  0  0  1  0  0  0  0  0  0  0  0
   13.9488  -14.0304   -1.8459 C   0  0  0  1  0  0  0  0  0  0  0  0
   13.9122  -15.0128   -1.4235 H   0  0  0  1  0  0  0  0  0  0  0  0
   14.3006  -14.0882   -2.8547 H   0  0  0  1  0  0  0  0  0  0  0  0
   12.5552  -13.4878   -1.8734 C   0  0  0  1  0  0  0  0  0  0  0  0
   12.1378  -13.3568   -0.9299 H   0  0  0  1  0  0  0  0  0  0  0  0
   11.7475  -13.1409   -2.8684 C   0  0  0  1  0  0  0  0  0  0  0  0
   12.0996  -13.4364   -4.3018 C   0  0  0  1  0  0  0  0  0  0  0  0
   13.0643  -13.8985   -4.3272 H   0  0  0  1  0  0  0  0  0  0  0  0
   12.1313  -12.5134   -4.8420 H   0  0  0  1  0  0  0  0  0  0  0  0
   10.4356  -12.4376   -2.6761 C   0  0  0  1  0  0  0  0  0  0  0  0
   10.5395  -11.6882   -1.9195 H   0  0  0  1  0  0  0  0  0  0  0  0
    9.6919  -13.1461   -2.3762 H   0  0  0  1  0  0  0  0  0  0  0  0
   10.1399  -11.9771   -3.5956 H   0  0  0  1  0  0  0  0  0  0  0  0
   11.1025  -14.3607   -4.9814 C   0  0  0  1  0  0  0  0  0  0  0  0
   10.1841  -13.8291   -5.1187 H   0  0  0  1  0  0  0  0  0  0  0  0
   10.9345  -15.2059   -4.3472 H   0  0  0  1  0  0  0  0  0  0  0  0
   11.5723  -14.8513   -6.3140 C   0  0  0  1  0  0  0  0  0  0  0  0
   11.8170  -14.0896   -6.9784 H   0  0  0  1  0  0  0  0  0  0  0  0
   11.7379  -16.0713   -6.8138 C   0  0  0  1  0  0  0  0  0  0  0  0
   11.1622  -17.3121   -6.1921 C   0  0  0  1  0  0  0  0  0  0  0  0
   10.1266  -17.3751   -6.4536 H   0  0  0  1  0  0  0  0  0  0  0  0
   11.2582  -17.2365   -5.1291 H   0  0  0  1  0  0  0  0  0  0  0  0
   12.5320  -16.3063   -8.0678 C   0  0  0  1  0  0  0  0  0  0  0  0
   12.7630  -15.3672   -8.5255 H   0  0  0  1  0  0  0  0  0  0  0  0
   11.9582  -16.9021   -8.7466 H   0  0  0  1  0  0  0  0  0  0  0  0
   13.4401  -16.8171   -7.8242 H   0  0  0  1  0  0  0  0  0  0  0  0
   11.8553  -18.5847   -6.6510 C   0  0  0  1  0  0  0  0  0  0  0  0
   12.8146  -18.6267   -6.1790 H   0  0  0  1  0  0  0  0  0  0  0  0
   11.9815  -18.5275   -7.7120 H   0  0  0  1  0  0  0  0  0  0  0  0
   11.1281  -19.8635   -6.3385 C   0  0  0  1  0  0  0  0  0  0  0  0
   10.8323  -19.9992   -5.3508 H   0  0  0  1  0  0  0  0  0  0  0  0
   10.8213  -20.8426   -7.1909 C   0  0  0  1  0  0  0  0  0  0  0  0
   11.4803  -20.9083   -8.5427 C   0  0  0  1  0  0  0  0  0  0  0  0
   11.3218  -21.8842   -8.9518 H   0  0  0  1  0  0  0  0  0  0  0  0
   12.5295  -20.7391   -8.4187 H   0  0  0  1  0  0  0  0  0  0  0  0
    9.7641  -21.8269   -6.8752 C   0  0  0  1  0  0  0  0  0  0  0  0
   10.0375  -22.3758   -5.9983 H   0  0  0  1  0  0  0  0  0  0  0  0
    9.6490  -22.5023   -7.6970 H   0  0  0  1  0  0  0  0  0  0  0  0
    8.8407  -21.3149   -6.7016 H   0  0  0  1  0  0  0  0  0  0  0  0
   10.9366  -19.8795   -9.5207 C   0  0  0  1  0  0  0  0  0  0  0  0
   11.2933  -18.9130   -9.2317 H   0  0  0  1  0  0  0  0  0  0  0  0
    9.8679  -19.8950   -9.4722 H   0  0  0  1  0  0  0  0  0  0  0  0
   11.3529  -20.1375  -10.9341 C   0  0  0  1  0  0  0  0  0  0  0  0
   12.1741  -20.7612  -11.0690 H   0  0  0  1  0  0  0  0  0  0  0  0
   10.7872  -19.6563  -12.0359 C   0  0  0  1  0  0  0  0  0  0  0  0
    9.8164  -18.5058  -12.0422 C   0  0  0  1  0  0  0  0  0  0  0  0
    9.4587  -18.3565  -11.0449 H   0  0  0  1  0  0  0  0  0  0  0  0
    8.9962  -18.7558  -12.6822 H   0  0  0  1  0  0  0  0  0  0  0  0
   11.0828  -20.2411  -13.3956 C   0  0  0  1  0  0  0  0  0  0  0  0
   11.6731  -21.1264  -13.2830 H   0  0  0  1  0  0  0  0  0  0  0  0
   11.6211  -19.5259  -13.9818 H   0  0  0  1  0  0  0  0  0  0  0  0
   10.1637  -20.4855  -13.8860 H   0  0  0  1  0  0  0  0  0  0  0  0
   10.4352  -17.2073  -12.5337 C   0  0  0  1  0  0  0  0  0  0  0  0
   10.9207  -17.3939  -13.4687 H   0  0  0  1  0  0  0  0  0  0  0  0
   11.1576  -16.8809  -11.8150 H   0  0  0  1  0  0  0  0  0  0  0  0
    9.4242  -16.1094  -12.7294 C   0  0  0  1  0  0  0  0  0  0  0  0
    8.8316  -15.8730  -11.9080 H   0  0  0  1  0  0  0  0  0  0  0  0
    9.2067  -15.4095  -13.8377 C   0  0  0  1  0  0  0  0  0  0  0  0
    9.7209  -15.8115  -15.1933 C   0  0  0  1  0  0  0  0  0  0  0  0
   10.1176  -16.8022  -15.1154 H   0  0  0  1  0  0  0  0  0  0  0  0
   10.5034  -15.1338  -15.4639 H   0  0  0  1  0  0  0  0  0  0  0  0
    8.4122  -14.1340  -13.8191 C   0  0  0  1  0  0  0  0  0  0  0  0
    8.7951  -13.4638  -14.5602 H   0  0  0  1  0  0  0  0  0  0  0  0
    8.4900  -13.6796  -12.8535 H   0  0  0  1  0  0  0  0  0  0  0  0
    7.3859  -14.3503  -14.0305 H   0  0  0  1  0  0  0  0  0  0  0  0
    8.6890  -15.8061  -16.3094 C   0  0  0  1  0  0  0  0  0  0  0  0
    8.2149  -14.8471  -16.3303 H   0  0  0  1  0  0  0  0  0  0  0  0
    7.9593  -16.5608  -16.1023 H   0  0  0  1  0  0  0  0  0  0  0  0
    9.2807  -16.0732  -17.6545 C   0  0  0  1  0  0  0  0  0  0  0  0
    9.8063  -16.9594  -17.7963 H   0  0  0  1  0  0  0  0  0  0  0  0
    9.1684  -15.2337  -18.6800 C   0  0  0  1  0  0  0  0  0  0  0  0
    8.2031  -14.0819  -18.7682 C   0  0  0  1  0  0  0  0  0  0  0  0
    7.2783  -14.3775  -18.3184 H   0  0  0  1  0  0  0  0  0  0  0  0
    8.0408  -13.8518  -19.8004 H   0  0  0  1  0  0  0  0  0  0  0  0
   10.0683  -15.4115  -19.8869 C   0  0  0  1  0  0  0  0  0  0  0  0
    9.4712  -15.6196  -20.7501 H   0  0  0  1  0  0  0  0  0  0  0  0
   10.7402  -16.2259  -19.7136 H   0  0  0  1  0  0  0  0  0  0  0  0
   10.6286  -14.5145  -20.0489 H   0  0  0  1  0  0  0  0  0  0  0  0
    8.7041  -12.8302  -18.0664 C   0  0  0  1  0  0  0  0  0  0  0  0
    9.6163  -12.5206  -18.5322 H   0  0  0  1  0  0  0  0  0  0  0  0
    8.8897  -13.0666  -17.0395 H   0  0  0  1  0  0  0  0  0  0  0  0
    7.7249  -11.6894  -18.1257 C   0  0  0  1  0  0  0  0  0  0  0  0
    7.3415  -11.4322  -19.0577 H   0  0  0  1  0  0  0  0  0  0  0  0
    7.3138  -10.9865  -17.0771 C   0  0  0  1  0  0  0  0  0  0  0  0
    6.6043   -9.6713  -17.2466 C   0  0  0  1  0  0  0  0  0  0  0  0
    6.5015   -9.4721  -18.2929 H   0  0  0  1  0  0  0  0  0  0  0  0
    7.1965   -8.9039  -16.7935 H   0  0  0  1  0  0  0  0  0  0  0  0
    7.5075  -11.4164  -15.6524 C   0  0  0  1  0  0  0  0  0  0  0  0
    8.2105  -10.7244  -15.2379 H   0  0  0  1  0  0  0  0  0  0  0  0
    7.8956  -12.4128  -15.6121 H   0  0  0  1  0  0  0  0  0  0  0  0
    6.5807  -11.3723  -15.1194 H   0  0  0  1  0  0  0  0  0  0  0  0
    5.2229   -9.6540  -16.6128 C   0  0  0  1  0  0  0  0  0  0  0  0
    5.3303   -9.7971  -15.5579 H   0  0  0  1  0  0  0  0  0  0  0  0
    4.6487  -10.4570  -17.0255 H   0  0  0  1  0  0  0  0  0  0  0  0
    4.4821   -8.3648  -16.8483 C   0  0  0  1  0  0  0  0  0  0  0  0
    4.3807   -8.0627  -17.8383 H   0  0  0  1  0  0  0  0  0  0  0  0
    3.9442   -7.5718  -15.9294 C   0  0  0  1  0  0  0  0  0  0  0  0
    4.0245   -7.9046  -14.4664 C   0  0  0  1  0  0  0  0  0  0  0  0
    3.8929   -8.9579  -14.3320 H   0  0  0  1  0  0  0  0  0  0  0  0
    3.2561   -7.3792  -13.9387 H   0  0  0  1  0  0  0  0  0  0  0  0
    4.9816   -7.6136  -14.0866 H   0  0  0  1  0  0  0  0  0  0  0  0
    3.2200   -6.2958  -16.2443 C   0  0  0  1  0  0  0  0  0  0  0  0
    2.2351   -6.3779  -15.8341 H   0  0  0  1  0  0  0  0  0  0  0  0
    3.1645   -6.1587  -17.3040 H   0  0  0  1  0  0  0  0  0  0  0  0
    3.7319   -5.4662  -15.8031 H   0  0  0  1  0  0  0  0  0  0  0  0
   16.1269   -5.1191   -1.6522 C   0  0  0  1  0  0  0  0  0  0  0  0
   16.3804   -5.6308   -0.7473 H   0  0  0  1  0  0  0  0  0  0  0  0
   14.8787   -5.7248   -2.2420 C   0  0  0  1  0  0  0  0  0  0  0  0
   15.0823   -6.7339   -2.5338 H   0  0  0  1  0  0  0  0  0  0  0  0
   15.8883   -3.7420   -1.3713 O   0  0  0  1  0  0  0  0  0  0  0  0
   14.4201   -4.9348   -3.4614 C   0  0  0  1  0  0  0  0  0  0  0  0
   13.4561   -5.2884   -3.7624 H   0  0  0  1  0  0  0  0  0  0  0  0
   15.6285   -2.9516   -2.5462 C   0  0  0  1  0  0  0  0  0  0  0  0
   16.4266   -3.0716   -3.2487 H   0  0  0  1  0  0  0  0  0  0  0  0
   14.3279   -3.4370   -3.1564 C   0  0  0  1  0  0  0  0  0  0  0  0
   14.1405   -2.9015   -4.0636 H   0  0  0  1  0  0  0  0  0  0  0  0
   17.1985   -5.2373   -2.5809 O   0  0  0  1  0  0  0  0  0  0  0  0
   13.8422   -5.7126   -1.2587 O   0  0  0  1  0  0  0  0  0  0  0  0
   14.1101   -6.2420   -0.5041 H   0  0  0  1  0  0  0  0  0  0  0  0
   15.3491   -5.1346   -4.5169 O   0  0  0  1  0  0  0  0  0  0  0  0
   14.9042   -5.0246   -5.3604 H   0  0  0  1  0  0  0  0  0  0  0  0
   15.5052   -1.4952   -2.1676 C   0  0  0  1  0  0  0  0  0  0  0  0
   16.0835   -1.3047   -1.2877 H   0  0  0  1  0  0  0  0  0  0  0  0
   14.4785   -1.2623   -1.9765 H   0  0  0  1  0  0  0  0  0  0  0  0
   15.8662   -0.8865   -2.9701 H   0  0  0  1  0  0  0  0  0  0  0  0
   19.3575   -7.1495   -2.9998 C   0  0  0  1  0  0  0  0  0  0  0  0
   18.4302   -7.3327   -3.5012 H   0  0  0  1  0  0  0  0  0  0  0  0
   19.0895   -6.4229   -1.6905 C   0  0  0  1  0  0  0  0  0  0  0  0
   20.0074   -6.2970   -1.1553 H   0  0  0  1  0  0  0  0  0  0  0  0
   20.1922   -6.3513   -3.8274 O   0  0  0  1  0  0  0  0  0  0  0  0
   18.4849   -5.0566   -1.9984 C   0  0  0  1  0  0  0  0  0  0  0  0
   18.3901   -4.5026   -1.0880 H   0  0  0  1  0  0  0  0  0  0  0  0
   19.5745   -5.1133   -4.2234 C   0  0  0  1  0  0  0  0  0  0  0  0
   20.2129   -4.5876   -4.9023 H   0  0  0  1  0  0  0  0  0  0  0  0
   19.3595   -4.2819   -2.9605 C   0  0  0  1  0  0  0  0  0  0  0  0
   18.8807   -3.3598   -3.2163 H   0  0  0  1  0  0  0  0  0  0  0  0
   18.1590   -7.1980   -0.8834 N   0  0  0  1  0  0  0  0  0  0  0  0
   17.1977   -7.1056   -1.0501 H   0  0  0  1  0  0  0  0  0  0  0  0
   20.6163   -4.0111   -2.3490 O   0  0  0  1  0  0  0  0  0  0  0  0
   20.4581   -3.9862   -1.4024 H   0  0  0  1  0  0  0  0  0  0  0  0
   18.2555   -5.3881   -4.8866 C   0  0  0  1  0  0  0  0  0  0  0  0
   17.6925   -4.4803   -4.9483 H   0  0  0  1  0  0  0  0  0  0  0  0
   17.7112   -6.1075   -4.3112 H   0  0  0  1  0  0  0  0  0  0  0  0
   18.4748   -5.8980   -6.1953 O   0  0  0  1  0  0  0  0  0  0  0  0
   19.3136   -6.3648   -6.1990 H   0  0  0  1  0  0  0  0  0  0  0  0
   18.5738   -8.0395    0.0862 C   0  0  0  1  0  0  0  0  0  0  0  0
   19.7705   -8.1864    0.3311 O   0  0  0  1  0  0  0  0  0  0  0  0
   17.5209   -8.8010    0.8676 C   0  0  0  1  0  0  0  0  0  0  0  0
   16.7277   -8.0957    1.0031 H   0  0  0  1  0  0  0  0  0  0  0  0
   17.9083   -9.1208    1.8124 H   0  0  0  1  0  0  0  0  0  0  0  0
   17.1807   -9.6515    0.3147 H   0  0  0  1  0  0  0  0  0  0  0  0
  1  2  1  0  0  0  0
  1  3  1  0  0  0  0
  1  4  1  0  0  0  0
  1 44  1  0  0  0  0
  3 20  1  0  0  0  0
  4  5  1  0  0  0  0
  4  6  1  0  0  0  0
  4  8  1  0  0  0  0
  6  7  1  0  0  0  0
  8  9  1  0  0  0  0
  8 10  1  0  0  0  0
  8 20  1  0  0  0  0
 10 11  1  0  0  0  0
 12 13  1  0  0  0  0
 12 14  1  0  0  0  0
 12 15  1  0  0  0  0
 12 17  1  0  0  0  0
 15 16  1  0  0  0  0
 17 18  1  0  0  0  0
 17 19  1  0  0  0  0
 17 20  1  0  0  0  0
 19 22  1  0  0  0  0
 20 21  1  0  0  0  0
 22 23  1  0  0  0  0
 22 24  1  0  0  0  0
 22 25  1  0  0  0  0
 24 42  1  0  0  0  0
 25 26  1  0  0  0  0
 25 27  1  0  0  0  0
 25 29  1  0  0  0  0
 27 28  1  0  0  0  0
 29 30  1  0  0  0  0
 29 31  1  0  0  0  0
 29 42  1  0  0  0  0
 31 32  1  0  0  0  0
 33 34  1  0  0  0  0
 33 35  1  0  0  0  0
 33 36  1  0  0  0  0
 33 38  1  0  0  0  0
 36 37  1  0  0  0  0
 38 39  1  0  0  0  0
 38 40  1  0  0  0  0
 38 42  1  0  0  0  0
 40 41  1  0  0  0  0
 42 43  1  0  0  0  0
 44194  1  0  0  0  0
 45 46  1  0  0  0  0
 45 54  1  0  0  0  0
 46 47  1  0  0  0  0
 46 48  1  0  0  0  0
 46 49  2  0  0  0  0
 47 50  1  0  0  0  0
 50 51  1  0  0  0  0
 50 52  1  0  0  0  0
 50 53  2  0  0  0  0
 51205  1  0  0  0  0
 54 55  1  0  0  0  0
 54 56  1  0  0  0  0
 54 57  1  0  0  0  0
 57 58  1  0  0  0  0
 57 59  2  0  0  0  0
 59 60  1  0  0  0  0
 59 64  1  0  0  0  0
 60 61  1  0  0  0  0
 60 62  1  0  0  0  0
 60 63  1  0  0  0  0
 64 65  1  0  0  0  0
 64 66  1  0  0  0  0
 64 67  1  0  0  0  0
 67 68  1  0  0  0  0
 67 69  1  0  0  0  0
 67 70  1  0  0  0  0
 70 71  1  0  0  0  0
 70 72  2  0  0  0  0
 72 73  1  0  0  0  0
 72 77  1  0  0  0  0
 73 74  1  0  0  0  0
 73 75  1  0  0  0  0
 73 76  1  0  0  0  0
 77 78  1  0  0  0  0
 77 79  1  0  0  0  0
 77 80  1  0  0  0  0
 80 81  1  0  0  0  0
 80 82  1  0  0  0  0
 80 83  1  0  0  0  0
 83 84  1  0  0  0  0
 83 85  2  0  0  0  0
 85 86  1  0  0  0  0
 85 89  1  0  0  0  0
 86 87  1  0  0  0  0
 86 88  1  0  0  0  0
 86 93  1  0  0  0  0
 89 90  1  0  0  0  0
 89 91  1  0  0  0  0
 89 92  1  0  0  0  0
 93 94  1  0  0  0  0
 93 95  1  0  0  0  0
 93 96  1  0  0  0  0
 96 97  1  0  0  0  0
 96 98  2  0  0  0  0
 98 99  1  0  0  0  0
 98102  1  0  0  0  0
 99100  1  0  0  0  0
 99101  1  0  0  0  0
 99106  1  0  0  0  0
102103  1  0  0  0  0
102104  1  0  0  0  0
102105  1  0  0  0  0
106107  1  0  0  0  0
106108  1  0  0  0  0
106109  1  0  0  0  0
109110  1  0  0  0  0
109111  2  0  0  0  0
111112  1  0  0  0  0
111115  1  0  0  0  0
112113  1  0  0  0  0
112114  1  0  0  0  0
112119  1  0  0  0  0
115116  1  0  0  0  0
115117  1  0  0  0  0
115118  1  0  0  0  0
119120  1  0  0  0  0
119121  1  0  0  0  0
119122  1  0  0  0  0
122123  1  0  0  0  0
122124  2  0  0  0  0
124125  1  0  0  0  0
124128  1  0  0  0  0
125126  1  0  0  0  0
125127  1  0  0  0  0
125132  1  0  0  0  0
128129  1  0  0  0  0
128130  1  0  0  0  0
128131  1  0  0  0  0
132133  1  0  0  0  0
132134  1  0  0  0  0
132135  1  0  0  0  0
135136  1  0  0  0  0
135137  2  0  0  0  0
137138  1  0  0  0  0
137141  1  0  0  0  0
138139  1  0  0  0  0
138140  1  0  0  0  0
138145  1  0  0  0  0
141142  1  0  0  0  0
141143  1  0  0  0  0
141144  1  0  0  0  0
145146  1  0  0  0  0
145147  1  0  0  0  0
145148  1  0  0  0  0
148149  1  0  0  0  0
148150  2  0  0  0  0
150151  1  0  0  0  0
150154  1  0  0  0  0
151152  1  0  0  0  0
151153  1  0  0  0  0
151158  1  0  0  0  0
154155  1  0  0  0  0
154156  1  0  0  0  0
154157  1  0  0  0  0
158159  1  0  0  0  0
158160  1  0  0  0  0
158161  1  0  0  0  0
161162  1  0  0  0  0
161163  2  0  0  0  0
163164  1  0  0  0  0
163167  1  0  0  0  0
164165  1  0  0  0  0
164166  1  0  0  0  0
164171  1  0  0  0  0
167168  1  0  0  0  0
167169  1  0  0  0  0
167170  1  0  0  0  0
171172  1  0  0  0  0
171173  1  0  0  0  0
171174  1  0  0  0  0
174175  1  0  0  0  0
174176  2  0  0  0  0
176177  1  0  0  0  0
176181  1  0  0  0  0
177178  1  0  0  0  0
177179  1  0  0  0  0
177180  1  0  0  0  0
181182  1  0  0  0  0
181183  1  0  0  0  0
181184  1  0  0  0  0
185186  1  0  0  0  0
185187  1  0  0  0  0
185189  1  0  0  0  0
185196  1  0  0  0  0
187188  1  0  0  0  0
187190  1  0  0  0  0
187197  1  0  0  0  0
189192  1  0  0  0  0
190191  1  0  0  0  0
190194  1  0  0  0  0
190199  1  0  0  0  0
192193  1  0  0  0  0
192194  1  0  0  0  0
192201  1  0  0  0  0
194195  1  0  0  0  0
196210  1  0  0  0  0
197198  1  0  0  0  0
199200  1  0  0  0  0
201202  1  0  0  0  0
201203  1  0  0  0  0
201204  1  0  0  0  0
205206  1  0  0  0  0
205207  1  0  0  0  0
205209  1  0  0  0  0
207208  1  0  0  0  0
207210  1  0  0  0  0
207216  1  0  0  0  0
209212  1  0  0  0  0
210211  1  0  0  0  0
210214  1  0  0  0  0
212213  1  0  0  0  0
212214  1  0  0  0  0
212220  1  0  0  0  0
214215  1  0  0  0  0
214218  1  0  0  0  0
216217  1  0  0  0  0
216225  1  0  0  0  0
218219  1  0  0  0  0
220221  1  0  0  0  0
220222  1  0  0  0  0
220223  1  0  0  0  0
223224  1  0  0  0  0
225226  2  0  0  0  0
225227  1  0  0  0  0
227228  1  0  0  0  0
227229  1  0  0  0  0
227230  1  0  0  0  0
M  BCL ATM C_TeTeTeTe H_S O_Te2Te2TeTe C_TeTeTeTe H_S O_Te2Te2TeTe H_S C_TeTeTeTe H_S O_Te2Te2TeTe H_S C_TeTeTeTe H_S H_S O_Te2Te2TeTe H_S C_TeTeTeTe H_S O_Te2Te2TeTe C_TeTeTeTe H_S C_TeTeTeTe H_S O_Te2Te2TeTe C_TeTeTeTe H_S O_Te2Te2TeTe H_S C_TeTeTeTe H_S O_Te2Te2TeTe H_S C_TeTeTeTe H_S H_S O_Te2Te2TeTe H_S C_TeTeTeTe H_S O_Te2Te2TeTe H_S C_TeTeTeTe H_S O_Te2Te2TeTe O_Tr2TrTrPi2 P_TeTeTeTePi O_Tr2TrTrPi2 O_Te2Te2TeTe O_Tr2Tr2TrPi P_TeTeTeTePi O_Tr2TrTrPi2 O_Te2Te2TeTe O_Tr2Tr2TrPi C_TeTeTeTe H_S H_S C_TrTrTrPi H_S C_TrTrTrPi C_TeTeTeTe H_S H_S H_S C_TeTeTeTe H_S H_S C_TeTeTeTe H_S H_S C_TrTrTrPi H_S C_TrTrTrPi C_TeTeTeTe H_S H_S H_S C_TeTeTeTe H_S H_S C_TeTeTeTe H_S H_S C_TrTrTrPi H_S C_TrTrTrPi C_TeTeTeTe H_S H_S C_TeTeTeTe H_S H_S H_S C_TeTeTeTe H_S H_S C_TrTrTrPi H_S C_TrTrTrPi C_TeTeTeTe H_S H_S C_TeTeTeTe H_S H_S H_S C_TeTeTeTe H_S H_S C_TrTrTrPi H_S C_TrTrTrPi C_TeTeTeTe H_S H_S C_TeTeTeTe H_S H_S H_S C_TeTeTeTe H_S H_S C_TrTrTrPi H_S C_TrTrTrPi C_TeTeTeTe H_S H_S C_TeTeTeTe H_S H_S H_S C_TeTeTeTe H_S H_S C_TrTrTrPi H_S C_TrTrTrPi C_TeTeTeTe H_S H_S C_TeTeTeTe H_S H_S H_S C_TeTeTeTe H_S H_S C_TrTrTrPi H_S C_TrTrTrPi C_TeTeTeTe H_S H_S C_TeTeTeTe H_S H_S H_S C_TeTeTeTe H_S H_S C_TrTrTrPi H_S C_TrTrTrPi C_TeTeTeTe H_S H_S C_TeTeTeTe H_S H_S H_S C_TeTeTeTe H_S H_S C_TrTrTrPi H_S C_TrTrTrPi C_TeTeTeTe H_S H_S H_S C_TeTeTeTe H_S H_S H_S C_TeTeTeTe H_S C_TeTeTeTe H_S O_Te2Te2TeTe C_TeTeTeTe H_S C_TeTeTeTe H_S C_TeTeTeTe H_S O_Te2Te2TeTe O_Te2Te2TeTe H_S O_Te2Te2TeTe H_S C_TeTeTeTe H_S H_S H_S C_TeTeTeTe H_S C_TeTeTeTe H_S O_Te2Te2TeTe C_TeTeTeTe H_S C_TeTeTeTe H_S C_TeTeTeTe H_S N_TrTrTrPi2 H_S O_Te2Te2TeTe H_S C_TeTeTeTe H_S H_S O_Te2Te2TeTe H_S C_TrTrTrPi O_Tr2Tr2TrPi C_TeTeTeTe H_S H_S H_S
M  BCL BND NonConjugatedSingleBond NonConjugatedSingleBondInRing NonConjugatedSingleBondInRing NonConjugatedSingleBond NonConjugatedSingleBondInRing NonConjugatedSingleBond NonConjugatedSingleBond NonConjugatedSingleBondInRing NonConjugatedSingleBond NonConjugatedSingleBond NonConjugatedSingleBond NonConjugatedSingleBondInRing NonConjugatedSingleBond NonConjugatedSingleBond NonConjugatedSingleBond NonConjugatedSingleBond NonConjugatedSingleBond NonConjugatedSingleBond NonConjugatedSingleBond NonConjugatedSingleBond NonConjugatedSingleBond NonConjugatedSingleBond NonConjugatedSingleBond NonConjugatedSingleBond NonConjugatedSingleBondInRing NonConjugatedSingleBondInRing NonConjugatedSingleBondInRing NonConjugatedSingleBond NonConjugatedSingleBond NonConjugatedSingleBondInRing NonConjugatedSingleBond NonConjugatedSingleBond NonConjugatedSingleBond NonConjugatedSingleBondInRing NonConjugatedSingleBond NonConjugatedSingleBond NonConjugatedSingleBond NonConjugatedSingleBond NonConjugatedSingleBond NonConjugatedSingleBond NonConjugatedSingleBond NonConjugatedSingleBond NonConjugatedSingleBond NonConjugatedSingleBond NonConjugatedSingleBond NonConjugatedSingleBond ConjugatedSingleBond NonConjugatedSingleBond ConjugatedSingleBond ConjugatedSingleBond ConjugatedDoubleBond ConjugatedSingleBond ConjugatedSingleBond ConjugatedSingleBond ConjugatedDoubleBond NonConjugatedSingleBond NonConjugatedSingleBond NonConjugatedSingleBond NonConjugatedSingleBond NonConjugatedSingleBond ConjugatedDoubleBond NonConjugatedSingleBond NonConjugatedSingleBond NonConjugatedSingleBond NonConjugatedSingleBond NonConjugatedSingleBond NonConjugatedSingleBond NonConjugatedSingleBond NonConjugatedSingleBond NonConjugatedSingleBond NonConjugatedSingleBond NonConjugatedSingleBond NonConjugatedSingleBond ConjugatedDoubleBond NonConjugatedSingleBond NonConjugatedSingleBond NonConjugatedSingleBond NonConjugatedSingleBond NonConjugatedSingleBond NonConjugatedSingleBond NonConjugatedSingleBond NonConjugatedSingleBond NonConjugatedSingleBond NonConjugatedSingleBond NonConjugatedSingleBond NonConjugatedSingleBond ConjugatedDoubleBond NonConjugatedSingleBond NonConjugatedSingleBond NonConjugatedSingleBond NonConjugatedSingleBond NonConjugatedSingleBond NonConjugatedSingleBond NonConjugatedSingleBond NonConjugatedSingleBond NonConjugatedSingleBond NonConjugatedSingleBond NonConjugatedSingleBond NonConjugatedSingleBond ConjugatedDoubleBond NonConjugatedSingleBond NonConjugatedSingleBond NonConjugatedSingleBond NonConjugatedSingleBond NonConjugatedSingleBond NonConjugatedSingleBond NonConjugatedSingleBond NonConjugatedSingleBond NonConjugatedSingleBond NonConjugatedSingleBond NonConjugatedSingleBond NonConjugatedSingleBond ConjugatedDoubleBond NonConjugatedSingleBond NonConjugatedSingleBond NonConjugatedSingleBond NonConjugatedSingleBond NonConjugatedSingleBond NonConjugatedSingleBond NonConjugatedSingleBond NonConjugatedSingleBond NonConjugatedSingleBond NonConjugatedSingleBond NonConjugatedSingleBond NonConjugatedSingleBond ConjugatedDoubleBond NonConjugatedSingleBond NonConjugatedSingleBond NonConjugatedSingleBond NonConjugatedSingleBond NonConjugatedSingleBond NonConjugatedSingleBond NonConjugatedSingleBond NonConjugatedSingleBond NonConjugatedSingleBond NonConjugatedSingleBond NonConjugatedSingleBond NonConjugatedSingleBond ConjugatedDoubleBond NonConjugatedSingleBond NonConjugatedSingleBond NonConjugatedSingleBond NonConjugatedSingleBond NonConjugatedSingleBond NonConjugatedSingleBond NonConjugatedSingleBond NonConjugatedSingleBond NonConjugatedSingleBond NonConjugatedSingleBond NonConjugatedSingleBond NonConjugatedSingleBond ConjugatedDoubleBond NonConjugatedSingleBond NonConjugatedSingleBond NonConjugatedSingleBond NonConjugatedSingleBond NonConjugatedSingleBond NonConjugatedSingleBond NonConjugatedSingleBond NonConjugatedSingleBond NonConjugatedSingleBond NonConjugatedSingleBond NonConjugatedSingleBond NonConjugatedSingleBond ConjugatedDoubleBond NonConjugatedSingleBond NonConjugatedSingleBond NonConjugatedSingleBond NonConjugatedSingleBond NonConjugatedSingleBond NonConjugatedSingleBond NonConjugatedSingleBond NonConjugatedSingleBond NonConjugatedSingleBond NonConjugatedSingleBond NonConjugatedSingleBond NonConjugatedSingleBond ConjugatedDoubleBond NonConjugatedSingleBond NonConjugatedSingleBond NonConjugatedSingleBond NonConjugatedSingleBond NonConjugatedSingleBond NonConjugatedSingleBond NonConjugatedSingleBond NonConjugatedSingleBond NonConjugatedSingleBond NonConjugatedSingleBondInRing NonConjugatedSingleBondInRing NonConjugatedSingleBond NonConjugatedSingleBond NonConjugatedSingleBondInRing NonConjugatedSingleBond NonConjugatedSingleBondInRing NonConjugatedSingleBond NonConjugatedSingleBondInRing NonConjugatedSingleBond NonConjugatedSingleBond NonConjugatedSingleBondInRing NonConjugatedSingleBond NonConjugatedSingleBond NonConjugatedSingleBond NonConjugatedSingleBond NonConjugatedSingleBond NonConjugatedSingleBond NonConjugatedSingleBond NonConjugatedSingleBond NonConjugatedSingleBond NonConjugatedSingleBondInRing NonConjugatedSingleBondInRing NonConjugatedSingleBond NonConjugatedSingleBondInRing NonConjugatedSingleBond NonConjugatedSingleBondInRing NonConjugatedSingleBond NonConjugatedSingleBondInRing NonConjugatedSingleBond NonConjugatedSingleBondInRing NonConjugatedSingleBond NonConjugatedSingleBond NonConjugatedSingleBond NonConjugatedSingleBond AmideSingleBond NonConjugatedSingleBond NonConjugatedSingleBond NonConjugatedSingleBond NonConjugatedSingleBond NonConjugatedSingleBond ConjugatedDoubleBond NonConjugatedSingleBond NonConjugatedSingleBond NonConjugatedSingleBond NonConjugatedSingleBond
M  BCL CHI   1   R   4   R   8   R  17   S  20   R  22   S  25   R  29   S  38   S  42   R  46   R  50   S 185   R 187   S 190   S 192   R 194   R 205   R 207   S 210   R 212   S 214   S
M  BCL DBI - - E E E E E E E E Z - -
M  END
> <ConfClashScore>
0.00362178 

> <ConfOneFourInteractionScore>
-0.965693 

> <ConfScore>
0.444861 

> <ConfScorePBest>
0.0129355 

> <ConfTolerance>
3.54768 

$$$$
L05.****
  PyMOL2.5          3D                             0

230233  0  0  0  0  0  0  0  0999 V2000
   12.1577   -2.5822   -2.9844 C   0  0  0  1  0  0  0  0  0  0  0  0
   11.3988   -2.3668   -2.2615 H   0  0  0  1  0  0  0  0  0  0  0  0
   11.6410   -3.3832   -4.0078 O   0  0  0  1  0  0  0  0  0  0  0  0
   12.6329   -1.2873   -3.6624 C   0  0  0  1  0  0  0  0  0  0  0  0
   13.6323   -1.3888   -4.0308 H   0  0  0  1  0  0  0  0  0  0  0  0
   12.5665   -0.1800   -2.7625 O   0  0  0  1  0  0  0  0  0  0  0  0
   11.6930    0.2158   -2.8053 H   0  0  0  1  0  0  0  0  0  0  0  0
   11.6423   -1.1272   -4.8022 C   0  0  0  1  0  0  0  0  0  0  0  0
   10.7751   -0.5861   -4.4858 H   0  0  0  1  0  0  0  0  0  0  0  0
   12.2412   -0.4600   -5.9142 O   0  0  0  1  0  0  0  0  0  0  0  0
   12.5338   -1.1093   -6.5579 H   0  0  0  1  0  0  0  0  0  0  0  0
    9.3248   -4.1275   -5.7855 C   0  0  0  1  0  0  0  0  0  0  0  0
    9.8857   -4.4836   -6.6243 H   0  0  0  1  0  0  0  0  0  0  0  0
    9.5011   -4.7623   -4.9425 H   0  0  0  1  0  0  0  0  0  0  0  0
    7.9387   -4.1729   -6.1101 O   0  0  0  1  0  0  0  0  0  0  0  0
    7.5378   -4.9410   -5.6966 H   0  0  0  1  0  0  0  0  0  0  0  0
    9.7970   -2.7185   -5.4441 C   0  0  0  1  0  0  0  0  0  0  0  0
    9.2633   -2.3921   -4.5760 H   0  0  0  1  0  0  0  0  0  0  0  0
    9.4670   -1.8741   -6.5408 O   0  0  0  1  0  0  0  0  0  0  0  0
   11.2871   -2.5924   -5.1563 C   0  0  0  1  0  0  0  0  0  0  0  0
   11.8444   -2.9120   -6.0119 H   0  0  0  1  0  0  0  0  0  0  0  0
    9.9829   -2.2478   -7.7927 C   0  0  0  1  0  0  0  0  0  0  0  0
   11.0386   -2.4029   -7.7121 H   0  0  0  1  0  0  0  0  0  0  0  0
    9.3465   -3.4190   -8.2588 O   0  0  0  1  0  0  0  0  0  0  0  0
    9.6815   -1.1814   -8.8301 C   0  0  0  1  0  0  0  0  0  0  0  0
   10.4540   -0.4416   -8.8606 H   0  0  0  1  0  0  0  0  0  0  0  0
    8.4426   -0.5579   -8.5758 O   0  0  0  1  0  0  0  0  0  0  0  0
    8.5118   -0.0181   -7.7850 H   0  0  0  1  0  0  0  0  0  0  0  0
    9.6388   -1.9782  -10.1084 C   0  0  0  1  0  0  0  0  0  0  0  0
   10.6232   -2.1770  -10.4777 H   0  0  0  1  0  0  0  0  0  0  0  0
    8.8782   -1.3084  -11.1150 O   0  0  0  1  0  0  0  0  0  0  0  0
    8.0017   -1.6966  -11.1658 H   0  0  0  1  0  0  0  0  0  0  0  0
    8.9776   -4.3612  -11.9339 C   0  0  0  1  0  0  0  0  0  0  0  0
    9.4165   -5.1611  -12.4928 H   0  0  0  1  0  0  0  0  0  0  0  0
    7.9114   -4.4205  -12.0025 H   0  0  0  1  0  0  0  0  0  0  0  0
    9.4272   -3.1124  -12.4398 O   0  0  0  1  0  0  0  0  0  0  0  0
    8.6703   -2.5646  -12.6601 H   0  0  0  1  0  0  0  0  0  0  0  0
    9.4101   -4.4467  -10.4768 C   0  0  0  1  0  0  0  0  0  0  0  0
   10.4795   -4.4734  -10.4495 H   0  0  0  1  0  0  0  0  0  0  0  0
    8.8946   -5.6734   -9.9663 O   0  0  0  1  0  0  0  0  0  0  0  0
    9.0781   -5.7314   -9.0258 H   0  0  0  1  0  0  0  0  0  0  0  0
    8.9468   -3.2602   -9.6474 C   0  0  0  1  0  0  0  0  0  0  0  0
    7.8840   -3.1636   -9.7249 H   0  0  0  1  0  0  0  0  0  0  0  0
   13.2489   -3.2363   -2.3472 O   0  0  0  1  0  0  0  0  0  0  0  0
   22.0462   -1.9767   -3.0102 O   0  0  0  1  0  0  0  0  0  0  0  0
   22.9336   -3.0825   -3.7731 P   0  0  0  1  0  0  0  0  0  0  0  0
   22.0516   -4.3671   -3.4555 O   0  0  0  1  0  0  0  0  0  0  0  0
   24.1907   -3.1457   -2.9882 O   0  0  0  0  0  0  0  0  0  0  0  0
   22.9759   -2.8115   -5.2284 O   0  0  0  1  0  0  0  0  0  0  0  0
   22.2517   -5.8195   -3.1041 P   0  0  0  1  0  0  0  0  0  0  0  0
   20.9880   -6.6678   -3.5360 O   0  0  0  1  0  0  0  0  0  0  0  0
   22.3655   -6.0261   -1.5611 O   0  0  0  0  0  0  0  0  0  0  0  0
   23.4225   -6.4690   -3.7832 O   0  0  0  1  0  0  0  0  0  0  0  0
   20.7910   -1.5133   -3.5719 C   0  0  0  1  0  0  0  0  0  0  0  0
   20.1266   -2.3385   -3.7223 H   0  0  0  1  0  0  0  0  0  0  0  0
   20.9639   -1.0193   -4.5052 H   0  0  0  1  0  0  0  0  0  0  0  0
   20.2074   -0.5529   -2.5778 C   0  0  0  1  0  0  0  0  0  0  0  0
   19.8670   -0.9609   -1.6838 H   0  0  0  1  0  0  0  0  0  0  0  0
   20.0791    0.7553   -2.7150 C   0  0  0  1  0  0  0  0  0  0  0  0
   19.3071    1.5664   -1.6983 C   0  0  0  1  0  0  0  0  0  0  0  0
   18.2651    1.5442   -1.9405 H   0  0  0  1  0  0  0  0  0  0  0  0
   19.6546    2.5784   -1.7116 H   0  0  0  1  0  0  0  0  0  0  0  0
   19.4555    1.1506   -0.7237 H   0  0  0  1  0  0  0  0  0  0  0  0
   20.5873    1.5256   -3.9042 C   0  0  0  1  0  0  0  0  0  0  0  0
   20.4279    2.5668   -3.7158 H   0  0  0  1  0  0  0  0  0  0  0  0
   20.0181    1.2261   -4.7593 H   0  0  0  1  0  0  0  0  0  0  0  0
   22.0592    1.3278   -4.2280 C   0  0  0  1  0  0  0  0  0  0  0  0
   22.2855    0.2842   -4.1604 H   0  0  0  1  0  0  0  0  0  0  0  0
   22.6413    1.8668   -3.5100 H   0  0  0  1  0  0  0  0  0  0  0  0
   22.4301    1.8102   -5.6049 C   0  0  0  1  0  0  0  0  0  0  0  0
   22.2648    2.8177   -5.8033 H   0  0  0  1  0  0  0  0  0  0  0  0
   22.9457    1.0885   -6.5942 C   0  0  0  1  0  0  0  0  0  0  0  0
   23.5833    1.6843   -7.8143 C   0  0  0  1  0  0  0  0  0  0  0  0
   23.6188    2.7491   -7.7149 H   0  0  0  1  0  0  0  0  0  0  0  0
   23.0085    1.4260   -8.6790 H   0  0  0  1  0  0  0  0  0  0  0  0
   24.5775    1.3028   -7.9192 H   0  0  0  1  0  0  0  0  0  0  0  0
   22.9281   -0.4113   -6.5637 C   0  0  0  1  0  0  0  0  0  0  0  0
   22.2193   -0.7287   -5.8276 H   0  0  0  1  0  0  0  0  0  0  0  0
   23.9035   -0.7580   -6.2931 H   0  0  0  1  0  0  0  0  0  0  0  0
   22.5482   -1.0296   -7.8993 C   0  0  0  1  0  0  0  0  0  0  0  0
   23.2930   -0.7659   -8.6208 H   0  0  0  1  0  0  0  0  0  0  0  0
   21.6017   -0.6325   -8.2015 H   0  0  0  1  0  0  0  0  0  0  0  0
   22.4431   -2.5303   -7.8458 C   0  0  0  1  0  0  0  0  0  0  0  0
   23.3171   -3.0486   -7.6243 H   0  0  0  1  0  0  0  0  0  0  0  0
   21.3549   -3.2646   -8.0509 C   0  0  0  1  0  0  0  0  0  0  0  0
   20.0058   -2.6843   -8.3815 C   0  0  0  1  0  0  0  0  0  0  0  0
   20.1108   -1.6264   -8.5035 H   0  0  0  1  0  0  0  0  0  0  0  0
   19.3399   -2.8857   -7.5686 H   0  0  0  1  0  0  0  0  0  0  0  0
   21.3907   -4.7646   -7.9659 C   0  0  0  1  0  0  0  0  0  0  0  0
   20.8516   -5.0863   -7.0995 H   0  0  0  1  0  0  0  0  0  0  0  0
   22.4066   -5.0934   -7.8960 H   0  0  0  1  0  0  0  0  0  0  0  0
   20.9397   -5.1820   -8.8418 H   0  0  0  1  0  0  0  0  0  0  0  0
   19.4051   -3.2608   -9.6532 C   0  0  0  1  0  0  0  0  0  0  0  0
   19.0994   -4.2654   -9.4479 H   0  0  0  1  0  0  0  0  0  0  0  0
   20.1664   -3.2657  -10.4051 H   0  0  0  1  0  0  0  0  0  0  0  0
   18.2178   -2.5170  -10.2000 C   0  0  0  1  0  0  0  0  0  0  0  0
   18.3263   -1.4888  -10.3124 H   0  0  0  1  0  0  0  0  0  0  0  0
   17.0451   -3.0311  -10.5551 C   0  0  0  1  0  0  0  0  0  0  0  0
   16.7123   -4.4962  -10.4605 C   0  0  0  1  0  0  0  0  0  0  0  0
   15.8138   -4.6052   -9.8899 H   0  0  0  1  0  0  0  0  0  0  0  0
   17.5156   -4.9963   -9.9610 H   0  0  0  1  0  0  0  0  0  0  0  0
   15.9305   -2.1623  -11.0936 C   0  0  0  1  0  0  0  0  0  0  0  0
   15.4613   -2.6545  -11.9196 H   0  0  0  1  0  0  0  0  0  0  0  0
   16.3339   -1.2261  -11.4189 H   0  0  0  1  0  0  0  0  0  0  0  0
   15.2079   -1.9914  -10.3232 H   0  0  0  1  0  0  0  0  0  0  0  0
   16.5057   -5.1486  -11.8177 C   0  0  0  1  0  0  0  0  0  0  0  0
   15.8422   -4.5292  -12.3842 H   0  0  0  1  0  0  0  0  0  0  0  0
   16.0531   -6.1050  -11.6587 H   0  0  0  1  0  0  0  0  0  0  0  0
   17.7418   -5.3535  -12.6222 C   0  0  0  1  0  0  0  0  0  0  0  0
   18.5784   -5.7779  -12.1730 H   0  0  0  1  0  0  0  0  0  0  0  0
   17.7961   -5.0047  -13.9020 C   0  0  0  1  0  0  0  0  0  0  0  0
   16.7886   -4.1045  -14.5659 C   0  0  0  1  0  0  0  0  0  0  0  0
   17.3239   -3.3680  -15.1279 H   0  0  0  1  0  0  0  0  0  0  0  0
   16.2192   -3.6237  -13.7981 H   0  0  0  1  0  0  0  0  0  0  0  0
   18.8919   -5.4935  -14.8034 C   0  0  0  1  0  0  0  0  0  0  0  0
   19.2979   -6.4026  -14.4114 H   0  0  0  1  0  0  0  0  0  0  0  0
   19.6631   -4.7540  -14.8603 H   0  0  0  1  0  0  0  0  0  0  0  0
   18.4958   -5.6726  -15.7811 H   0  0  0  1  0  0  0  0  0  0  0  0
   15.8163   -4.7971  -15.5068 C   0  0  0  1  0  0  0  0  0  0  0  0
   15.3574   -5.6102  -14.9842 H   0  0  0  1  0  0  0  0  0  0  0  0
   16.3639   -5.1748  -16.3449 H   0  0  0  1  0  0  0  0  0  0  0  0
   14.7425   -3.8893  -16.0105 C   0  0  0  1  0  0  0  0  0  0  0  0
   14.7894   -2.8812  -15.7594 H   0  0  0  1  0  0  0  0  0  0  0  0
   13.7312   -4.3060  -16.7630 C   0  0  0  1  0  0  0  0  0  0  0  0
   13.4103   -5.7734  -16.9033 C   0  0  0  1  0  0  0  0  0  0  0  0
   14.1149   -6.3231  -16.3149 H   0  0  0  1  0  0  0  0  0  0  0  0
   13.5217   -6.0385  -17.9340 H   0  0  0  1  0  0  0  0  0  0  0  0
   12.8260   -3.3891  -17.5316 C   0  0  0  1  0  0  0  0  0  0  0  0
   12.2998   -3.9486  -18.2766 H   0  0  0  1  0  0  0  0  0  0  0  0
   13.4090   -2.6265  -18.0042 H   0  0  0  1  0  0  0  0  0  0  0  0
   12.1235   -2.9383  -16.8621 H   0  0  0  1  0  0  0  0  0  0  0  0
   12.0134   -6.1799  -16.4630 C   0  0  0  1  0  0  0  0  0  0  0  0
   11.3118   -5.4806  -16.8675 H   0  0  0  1  0  0  0  0  0  0  0  0
   11.9712   -6.1505  -15.3942 H   0  0  0  1  0  0  0  0  0  0  0  0
   11.6324   -7.5532  -16.9169 C   0  0  0  1  0  0  0  0  0  0  0  0
   11.6416   -7.7419  -17.9396 H   0  0  0  1  0  0  0  0  0  0  0  0
   11.2833   -8.5493  -16.1115 C   0  0  0  1  0  0  0  0  0  0  0  0
   10.9205   -8.3021  -14.6761 C   0  0  0  1  0  0  0  0  0  0  0  0
   10.3423   -9.1386  -14.3434 H   0  0  0  1  0  0  0  0  0  0  0  0
   10.3191   -7.4175  -14.6457 H   0  0  0  1  0  0  0  0  0  0  0  0
   11.2158   -9.9951  -16.5401 C   0  0  0  1  0  0  0  0  0  0  0  0
   11.5474  -10.0831  -17.5535 H   0  0  0  1  0  0  0  0  0  0  0  0
   10.2067  -10.3426  -16.4638 H   0  0  0  1  0  0  0  0  0  0  0  0
   11.8454  -10.5843  -15.9066 H   0  0  0  1  0  0  0  0  0  0  0  0
   12.0581   -8.1128  -13.6860 C   0  0  0  1  0  0  0  0  0  0  0  0
   12.5240   -7.1661  -13.8637 H   0  0  0  1  0  0  0  0  0  0  0  0
   12.7754   -8.8950  -13.8222 H   0  0  0  1  0  0  0  0  0  0  0  0
   11.5464   -8.1533  -12.2709 C   0  0  0  1  0  0  0  0  0  0  0  0
   11.2297   -7.2575  -11.8479 H   0  0  0  1  0  0  0  0  0  0  0  0
   11.4692   -9.2472  -11.5226 C   0  0  0  1  0  0  0  0  0  0  0  0
   11.9041  -10.5873  -12.0491 C   0  0  0  1  0  0  0  0  0  0  0  0
   12.9732  -10.6223  -12.0197 H   0  0  0  1  0  0  0  0  0  0  0  0
   11.5719  -10.6672  -13.0630 H   0  0  0  1  0  0  0  0  0  0  0  0
   10.9549   -9.2632  -10.1129 C   0  0  0  1  0  0  0  0  0  0  0  0
   10.4422   -8.3464   -9.9093 H   0  0  0  1  0  0  0  0  0  0  0  0
   11.7759   -9.3705   -9.4352 H   0  0  0  1  0  0  0  0  0  0  0  0
   10.2799  -10.0842   -9.9891 H   0  0  0  1  0  0  0  0  0  0  0  0
   11.3777  -11.7829  -11.2905 C   0  0  0  1  0  0  0  0  0  0  0  0
   11.7400  -11.7099  -10.2864 H   0  0  0  1  0  0  0  0  0  0  0  0
   11.7818  -12.6589  -11.7533 H   0  0  0  1  0  0  0  0  0  0  0  0
    9.8940  -11.9583  -11.2193 C   0  0  0  1  0  0  0  0  0  0  0  0
    9.3764  -11.8999  -12.1195 H   0  0  0  1  0  0  0  0  0  0  0  0
    9.1660  -12.1805  -10.1314 C   0  0  0  1  0  0  0  0  0  0  0  0
    7.6744  -12.0117  -10.1424 C   0  0  0  1  0  0  0  0  0  0  0  0
    7.2149  -12.9330   -9.8507 H   0  0  0  1  0  0  0  0  0  0  0  0
    7.3580  -11.7521  -11.1310 H   0  0  0  1  0  0  0  0  0  0  0  0
    9.7403  -12.6121   -8.8114 C   0  0  0  1  0  0  0  0  0  0  0  0
    9.9283  -13.6607   -8.9106 H   0  0  0  1  0  0  0  0  0  0  0  0
    9.0408  -12.4307   -8.0223 H   0  0  0  1  0  0  0  0  0  0  0  0
   10.6503  -12.0865   -8.6100 H   0  0  0  1  0  0  0  0  0  0  0  0
    7.2490  -10.9156   -9.1790 C   0  0  0  1  0  0  0  0  0  0  0  0
    7.7548  -10.0081   -9.4347 H   0  0  0  1  0  0  0  0  0  0  0  0
    7.5123  -11.2028   -8.1825 H   0  0  0  1  0  0  0  0  0  0  0  0
    5.7741  -10.6911   -9.2503 C   0  0  0  1  0  0  0  0  0  0  0  0
    5.3593  -10.4170  -10.1638 H   0  0  0  1  0  0  0  0  0  0  0  0
    4.9665  -10.8242   -8.2050 C   0  0  0  1  0  0  0  0  0  0  0  0
    3.4833  -10.6333   -8.3352 C   0  0  0  1  0  0  0  0  0  0  0  0
    3.1807   -9.7833   -7.7600 H   0  0  0  1  0  0  0  0  0  0  0  0
    2.9788  -11.5054   -7.9749 H   0  0  0  1  0  0  0  0  0  0  0  0
    3.2332  -10.4752   -9.3634 H   0  0  0  1  0  0  0  0  0  0  0  0
    5.4389  -11.1714   -6.8141 C   0  0  0  1  0  0  0  0  0  0  0  0
    4.9400  -10.5134   -6.1337 H   0  0  0  1  0  0  0  0  0  0  0  0
    6.4980  -11.0364   -6.7432 H   0  0  0  1  0  0  0  0  0  0  0  0
    5.1925  -12.1877   -6.5872 H   0  0  0  1  0  0  0  0  0  0  0  0
   16.0150   -5.0926   -1.5211 C   0  0  0  1  0  0  0  0  0  0  0  0
   16.1404   -5.5826   -0.5783 H   0  0  0  1  0  0  0  0  0  0  0  0
   14.8430   -5.7206   -2.2514 C   0  0  0  1  0  0  0  0  0  0  0  0
   15.1080   -6.7188   -2.5312 H   0  0  0  1  0  0  0  0  0  0  0  0
   15.8045   -3.7125   -1.2976 O   0  0  0  1  0  0  0  0  0  0  0  0
   14.4579   -4.9496   -3.5028 C   0  0  0  1  0  0  0  0  0  0  0  0
   13.5121   -5.3031   -3.8569 H   0  0  0  1  0  0  0  0  0  0  0  0
   15.6262   -2.9729   -2.5193 C   0  0  0  1  0  0  0  0  0  0  0  0
   16.4659   -3.1320   -3.1631 H   0  0  0  1  0  0  0  0  0  0  0  0
   14.3555   -3.4642   -3.2016 C   0  0  0  1  0  0  0  0  0  0  0  0
   14.2166   -2.9275   -4.1168 H   0  0  0  1  0  0  0  0  0  0  0  0
   17.1914   -5.2603   -2.3038 O   0  0  0  1  0  0  0  0  0  0  0  0
   13.7190   -5.7548   -1.3701 O   0  0  0  1  0  0  0  0  0  0  0  0
   12.9790   -6.1786   -1.8109 H   0  0  0  1  0  0  0  0  0  0  0  0
   15.4457   -5.1568   -4.5018 O   0  0  0  1  0  0  0  0  0  0  0  0
   16.3083   -4.9197   -4.1536 H   0  0  0  1  0  0  0  0  0  0  0  0
   15.5008   -1.5005   -2.2092 C   0  0  0  1  0  0  0  0  0  0  0  0
   16.4736   -1.0554   -2.1901 H   0  0  0  1  0  0  0  0  0  0  0  0
   15.0329   -1.3758   -1.2551 H   0  0  0  1  0  0  0  0  0  0  0  0
   14.9069   -1.0269   -2.9629 H   0  0  0  1  0  0  0  0  0  0  0  0
   19.7737   -6.5223   -2.7862 C   0  0  0  1  0  0  0  0  0  0  0  0
   19.7714   -5.5740   -2.2905 H   0  0  0  1  0  0  0  0  0  0  0  0
   18.5837   -6.6021   -3.7305 C   0  0  0  1  0  0  0  0  0  0  0  0
   18.6198   -7.5216   -4.2766 H   0  0  0  1  0  0  0  0  0  0  0  0
   19.6879   -7.5604   -1.8201 O   0  0  0  1  0  0  0  0  0  0  0  0
   17.2981   -6.5434   -2.9113 C   0  0  0  1  0  0  0  0  0  0  0  0
   16.4622   -6.7020   -3.5601 H   0  0  0  1  0  0  0  0  0  0  0  0
   18.5394   -7.4376   -0.9617 C   0  0  0  1  0  0  0  0  0  0  0  0
   18.5630   -8.1979   -0.2092 H   0  0  0  1  0  0  0  0  0  0  0  0
   17.2952   -7.6041   -1.8317 C   0  0  0  1  0  0  0  0  0  0  0  0
   16.4188   -7.4969   -1.2271 H   0  0  0  1  0  0  0  0  0  0  0  0
   18.6221   -5.4806   -4.6622 N   0  0  0  1  0  0  0  0  0  0  0  0
   18.3313   -4.6056   -4.3303 H   0  0  0  1  0  0  0  0  0  0  0  0
   17.3033   -8.9020   -2.4356 O   0  0  0  1  0  0  0  0  0  0  0  0
   18.2230   -9.1726   -2.4856 H   0  0  0  1  0  0  0  0  0  0  0  0
   18.5304   -6.0857   -0.3082 C   0  0  0  1  0  0  0  0  0  0  0  0
   18.6268   -5.3279   -1.0575 H   0  0  0  1  0  0  0  0  0  0  0  0
   19.3492   -6.0165    0.3771 H   0  0  0  1  0  0  0  0  0  0  0  0
   17.3064   -5.9017    0.3965 O   0  0  0  1  0  0  0  0  0  0  0  0
   17.3500   -5.0620    0.8598 H   0  0  0  1  0  0  0  0  0  0  0  0
   19.0278   -5.5570   -5.9467 C   0  0  0  1  0  0  0  0  0  0  0  0
   18.9462   -4.5861   -6.6978 O   0  0  0  1  0  0  0  0  0  0  0  0
   19.5887   -6.8767   -6.4398 C   0  0  0  1  0  0  0  0  0  0  0  0
   19.8948   -6.6769   -7.4454 H   0  0  0  1  0  0  0  0  0  0  0  0
   18.8383   -7.6390   -6.4170 H   0  0  0  1  0  0  0  0  0  0  0  0
   20.4237   -7.1795   -5.8431 H   0  0  0  1  0  0  0  0  0  0  0  0
  1  2  1  0  0  0  0
  1  3  1  0  0  0  0
  1  4  1  0  0  0  0
  1 44  1  0  0  0  0
  3 20  1  0  0  0  0
  4  5  1  0  0  0  0
  4  6  1  0  0  0  0
  4  8  1  0  0  0  0
  6  7  1  0  0  0  0
  8  9  1  0  0  0  0
  8 10  1  0  0  0  0
  8 20  1  0  0  0  0
 10 11  1  0  0  0  0
 12 13  1  0  0  0  0
 12 14  1  0  0  0  0
 12 15  1  0  0  0  0
 12 17  1  0  0  0  0
 15 16  1  0  0  0  0
 17 18  1  0  0  0  0
 17 19  1  0  0  0  0
 17 20  1  0  0  0  0
 19 22  1  0  0  0  0
 20 21  1  0  0  0  0
 22 23  1  0  0  0  0
 22 24  1  0  0  0  0
 22 25  1  0  0  0  0
 24 42  1  0  0  0  0
 25 26  1  0  0  0  0
 25 27  1  0  0  0  0
 25 29  1  0  0  0  0
 27 28  1  0  0  0  0
 29 30  1  0  0  0  0
 29 31  1  0  0  0  0
 29 42  1  0  0  0  0
 31 32  1  0  0  0  0
 33 34  1  0  0  0  0
 33 35  1  0  0  0  0
 33 36  1  0  0  0  0
 33 38  1  0  0  0  0
 36 37  1  0  0  0  0
 38 39  1  0  0  0  0
 38 40  1  0  0  0  0
 38 42  1  0  0  0  0
 40 41  1  0  0  0  0
 42 43  1  0  0  0  0
 44194  1  0  0  0  0
 45 46  1  0  0  0  0
 45 54  1  0  0  0  0
 46 47  1  0  0  0  0
 46 48  1  0  0  0  0
 46 49  2  0  0  0  0
 47 50  1  0  0  0  0
 50 51  1  0  0  0  0
 50 52  1  0  0  0  0
 50 53  2  0  0  0  0
 51205  1  0  0  0  0
 54 55  1  0  0  0  0
 54 56  1  0  0  0  0
 54 57  1  0  0  0  0
 57 58  1  0  0  0  0
 57 59  2  0  0  0  0
 59 60  1  0  0  0  0
 59 64  1  0  0  0  0
 60 61  1  0  0  0  0
 60 62  1  0  0  0  0
 60 63  1  0  0  0  0
 64 65  1  0  0  0  0
 64 66  1  0  0  0  0
 64 67  1  0  0  0  0
 67 68  1  0  0  0  0
 67 69  1  0  0  0  0
 67 70  1  0  0  0  0
 70 71  1  0  0  0  0
 70 72  2  0  0  0  0
 72 73  1  0  0  0  0
 72 77  1  0  0  0  0
 73 74  1  0  0  0  0
 73 75  1  0  0  0  0
 73 76  1  0  0  0  0
 77 78  1  0  0  0  0
 77 79  1  0  0  0  0
 77 80  1  0  0  0  0
 80 81  1  0  0  0  0
 80 82  1  0  0  0  0
 80 83  1  0  0  0  0
 83 84  1  0  0  0  0
 83 85  2  0  0  0  0
 85 86  1  0  0  0  0
 85 89  1  0  0  0  0
 86 87  1  0  0  0  0
 86 88  1  0  0  0  0
 86 93  1  0  0  0  0
 89 90  1  0  0  0  0
 89 91  1  0  0  0  0
 89 92  1  0  0  0  0
 93 94  1  0  0  0  0
 93 95  1  0  0  0  0
 93 96  1  0  0  0  0
 96 97  1  0  0  0  0
 96 98  2  0  0  0  0
 98 99  1  0  0  0  0
 98102  1  0  0  0  0
 99100  1  0  0  0  0
 99101  1  0  0  0  0
 99106  1  0  0  0  0
102103  1  0  0  0  0
102104  1  0  0  0  0
102105  1  0  0  0  0
106107  1  0  0  0  0
106108  1  0  0  0  0
106109  1  0  0  0  0
109110  1  0  0  0  0
109111  2  0  0  0  0
111112  1  0  0  0  0
111115  1  0  0  0  0
112113  1  0  0  0  0
112114  1  0  0  0  0
112119  1  0  0  0  0
115116  1  0  0  0  0
115117  1  0  0  0  0
115118  1  0  0  0  0
119120  1  0  0  0  0
119121  1  0  0  0  0
119122  1  0  0  0  0
122123  1  0  0  0  0
122124  2  0  0  0  0
124125  1  0  0  0  0
124128  1  0  0  0  0
125126  1  0  0  0  0
125127  1  0  0  0  0
125132  1  0  0  0  0
128129  1  0  0  0  0
128130  1  0  0  0  0
128131  1  0  0  0  0
132133  1  0  0  0  0
132134  1  0  0  0  0
132135  1  0  0  0  0
135136  1  0  0  0  0
135137  2  0  0  0  0
137138  1  0  0  0  0
137141  1  0  0  0  0
138139  1  0  0  0  0
138140  1  0  0  0  0
138145  1  0  0  0  0
141142  1  0  0  0  0
141143  1  0  0  0  0
141144  1  0  0  0  0
145146  1  0  0  0  0
145147  1  0  0  0  0
145148  1  0  0  0  0
148149  1  0  0  0  0
148150  2  0  0  0  0
150151  1  0  0  0  0
150154  1  0  0  0  0
151152  1  0  0  0  0
151153  1  0  0  0  0
151158  1  0  0  0  0
154155  1  0  0  0  0
154156  1  0  0  0  0
154157  1  0  0  0  0
158159  1  0  0  0  0
158160  1  0  0  0  0
158161  1  0  0  0  0
161162  1  0  0  0  0
161163  2  0  0  0  0
163164  1  0  0  0  0
163167  1  0  0  0  0
164165  1  0  0  0  0
164166  1  0  0  0  0
164171  1  0  0  0  0
167168  1  0  0  0  0
167169  1  0  0  0  0
167170  1  0  0  0  0
171172  1  0  0  0  0
171173  1  0  0  0  0
171174  1  0  0  0  0
174175  1  0  0  0  0
174176  2  0  0  0  0
176177  1  0  0  0  0
176181  1  0  0  0  0
177178  1  0  0  0  0
177179  1  0  0  0  0
177180  1  0  0  0  0
181182  1  0  0  0  0
181183  1  0  0  0  0
181184  1  0  0  0  0
185186  1  0  0  0  0
185187  1  0  0  0  0
185189  1  0  0  0  0
185196  1  0  0  0  0
187188  1  0  0  0  0
187190  1  0  0  0  0
187197  1  0  0  0  0
189192  1  0  0  0  0
190191  1  0  0  0  0
190194  1  0  0  0  0
190199  1  0  0  0  0
192193  1  0  0  0  0
192194  1  0  0  0  0
192201  1  0  0  0  0
194195  1  0  0  0  0
196210  1  0  0  0  0
197198  1  0  0  0  0
199200  1  0  0  0  0
201202  1  0  0  0  0
201203  1  0  0  0  0
201204  1  0  0  0  0
205206  1  0  0  0  0
205207  1  0  0  0  0
205209  1  0  0  0  0
207208  1  0  0  0  0
207210  1  0  0  0  0
207216  1  0  0  0  0
209212  1  0  0  0  0
210211  1  0  0  0  0
210214  1  0  0  0  0
212213  1  0  0  0  0
212214  1  0  0  0  0
212220  1  0  0  0  0
214215  1  0  0  0  0
214218  1  0  0  0  0
216217  1  0  0  0  0
216225  1  0  0  0  0
218219  1  0  0  0  0
220221  1  0  0  0  0
220222  1  0  0  0  0
220223  1  0  0  0  0
223224  1  0  0  0  0
225226  2  0  0  0  0
225227  1  0  0  0  0
227228  1  0  0  0  0
227229  1  0  0  0  0
227230  1  0  0  0  0
M  BCL ATM C_TeTeTeTe H_S O_Te2Te2TeTe C_TeTeTeTe H_S O_Te2Te2TeTe H_S C_TeTeTeTe H_S O_Te2Te2TeTe H_S C_TeTeTeTe H_S H_S O_Te2Te2TeTe H_S C_TeTeTeTe H_S O_Te2Te2TeTe C_TeTeTeTe H_S C_TeTeTeTe H_S O_Te2Te2TeTe C_TeTeTeTe H_S O_Te2Te2TeTe H_S C_TeTeTeTe H_S O_Te2Te2TeTe H_S C_TeTeTeTe H_S H_S O_Te2Te2TeTe H_S C_TeTeTeTe H_S O_Te2Te2TeTe H_S C_TeTeTeTe H_S O_Te2Te2TeTe O_Tr2TrTrPi2 P_TeTeTeTePi O_Tr2TrTrPi2 O_Te2Te2TeTe O_Tr2Tr2TrPi P_TeTeTeTePi O_Tr2TrTrPi2 O_Te2Te2TeTe O_Tr2Tr2TrPi C_TeTeTeTe H_S H_S C_TrTrTrPi H_S C_TrTrTrPi C_TeTeTeTe H_S H_S H_S C_TeTeTeTe H_S H_S C_TeTeTeTe H_S H_S C_TrTrTrPi H_S C_TrTrTrPi C_TeTeTeTe H_S H_S H_S C_TeTeTeTe H_S H_S C_TeTeTeTe H_S H_S C_TrTrTrPi H_S C_TrTrTrPi C_TeTeTeTe H_S H_S C_TeTeTeTe H_S H_S H_S C_TeTeTeTe H_S H_S C_TrTrTrPi H_S C_TrTrTrPi C_TeTeTeTe H_S H_S C_TeTeTeTe H_S H_S H_S C_TeTeTeTe H_S H_S C_TrTrTrPi H_S C_TrTrTrPi C_TeTeTeTe H_S H_S C_TeTeTeTe H_S H_S H_S C_TeTeTeTe H_S H_S C_TrTrTrPi H_S C_TrTrTrPi C_TeTeTeTe H_S H_S C_TeTeTeTe H_S H_S H_S C_TeTeTeTe H_S H_S C_TrTrTrPi H_S C_TrTrTrPi C_TeTeTeTe H_S H_S C_TeTeTeTe H_S H_S H_S C_TeTeTeTe H_S H_S C_TrTrTrPi H_S C_TrTrTrPi C_TeTeTeTe H_S H_S C_TeTeTeTe H_S H_S H_S C_TeTeTeTe H_S H_S C_TrTrTrPi H_S C_TrTrTrPi C_TeTeTeTe H_S H_S C_TeTeTeTe H_S H_S H_S C_TeTeTeTe H_S H_S C_TrTrTrPi H_S C_TrTrTrPi C_TeTeTeTe H_S H_S H_S C_TeTeTeTe H_S H_S H_S C_TeTeTeTe H_S C_TeTeTeTe H_S O_Te2Te2TeTe C_TeTeTeTe H_S C_TeTeTeTe H_S C_TeTeTeTe H_S O_Te2Te2TeTe O_Te2Te2TeTe H_S O_Te2Te2TeTe H_S C_TeTeTeTe H_S H_S H_S C_TeTeTeTe H_S C_TeTeTeTe H_S O_Te2Te2TeTe C_TeTeTeTe H_S C_TeTeTeTe H_S C_TeTeTeTe H_S N_TrTrTrPi2 H_S O_Te2Te2TeTe H_S C_TeTeTeTe H_S H_S O_Te2Te2TeTe H_S C_TrTrTrPi O_Tr2Tr2TrPi C_TeTeTeTe H_S H_S H_S
M  BCL BND NonConjugatedSingleBond NonConjugatedSingleBondInRing NonConjugatedSingleBondInRing NonConjugatedSingleBond NonConjugatedSingleBondInRing NonConjugatedSingleBond NonConjugatedSingleBond NonConjugatedSingleBondInRing NonConjugatedSingleBond NonConjugatedSingleBond NonConjugatedSingleBond NonConjugatedSingleBondInRing NonConjugatedSingleBond NonConjugatedSingleBond NonConjugatedSingleBond NonConjugatedSingleBond NonConjugatedSingleBond NonConjugatedSingleBond NonConjugatedSingleBond NonConjugatedSingleBond NonConjugatedSingleBond NonConjugatedSingleBond NonConjugatedSingleBond NonConjugatedSingleBond NonConjugatedSingleBondInRing NonConjugatedSingleBondInRing NonConjugatedSingleBondInRing NonConjugatedSingleBond NonConjugatedSingleBond NonConjugatedSingleBondInRing NonConjugatedSingleBond NonConjugatedSingleBond NonConjugatedSingleBond NonConjugatedSingleBondInRing NonConjugatedSingleBond NonConjugatedSingleBond NonConjugatedSingleBond NonConjugatedSingleBond NonConjugatedSingleBond NonConjugatedSingleBond NonConjugatedSingleBond NonConjugatedSingleBond NonConjugatedSingleBond NonConjugatedSingleBond NonConjugatedSingleBond NonConjugatedSingleBond ConjugatedSingleBond NonConjugatedSingleBond ConjugatedSingleBond ConjugatedSingleBond ConjugatedDoubleBond ConjugatedSingleBond ConjugatedSingleBond ConjugatedSingleBond ConjugatedDoubleBond NonConjugatedSingleBond NonConjugatedSingleBond NonConjugatedSingleBond NonConjugatedSingleBond NonConjugatedSingleBond ConjugatedDoubleBond NonConjugatedSingleBond NonConjugatedSingleBond NonConjugatedSingleBond NonConjugatedSingleBond NonConjugatedSingleBond NonConjugatedSingleBond NonConjugatedSingleBond NonConjugatedSingleBond NonConjugatedSingleBond NonConjugatedSingleBond NonConjugatedSingleBond NonConjugatedSingleBond ConjugatedDoubleBond NonConjugatedSingleBond NonConjugatedSingleBond NonConjugatedSingleBond NonConjugatedSingleBond NonConjugatedSingleBond NonConjugatedSingleBond NonConjugatedSingleBond NonConjugatedSingleBond NonConjugatedSingleBond NonConjugatedSingleBond NonConjugatedSingleBond NonConjugatedSingleBond ConjugatedDoubleBond NonConjugatedSingleBond NonConjugatedSingleBond NonConjugatedSingleBond NonConjugatedSingleBond NonConjugatedSingleBond NonConjugatedSingleBond NonConjugatedSingleBond NonConjugatedSingleBond NonConjugatedSingleBond NonConjugatedSingleBond NonConjugatedSingleBond NonConjugatedSingleBond ConjugatedDoubleBond NonConjugatedSingleBond NonConjugatedSingleBond NonConjugatedSingleBond NonConjugatedSingleBond NonConjugatedSingleBond NonConjugatedSingleBond NonConjugatedSingleBond NonConjugatedSingleBond NonConjugatedSingleBond NonConjugatedSingleBond NonConjugatedSingleBond NonConjugatedSingleBond ConjugatedDoubleBond NonConjugatedSingleBond NonConjugatedSingleBond NonConjugatedSingleBond NonConjugatedSingleBond NonConjugatedSingleBond NonConjugatedSingleBond NonConjugatedSingleBond NonConjugatedSingleBond NonConjugatedSingleBond NonConjugatedSingleBond NonConjugatedSingleBond NonConjugatedSingleBond ConjugatedDoubleBond NonConjugatedSingleBond NonConjugatedSingleBond NonConjugatedSingleBond NonConjugatedSingleBond NonConjugatedSingleBond NonConjugatedSingleBond NonConjugatedSingleBond NonConjugatedSingleBond NonConjugatedSingleBond NonConjugatedSingleBond NonConjugatedSingleBond NonConjugatedSingleBond ConjugatedDoubleBond NonConjugatedSingleBond NonConjugatedSingleBond NonConjugatedSingleBond NonConjugatedSingleBond NonConjugatedSingleBond NonConjugatedSingleBond NonConjugatedSingleBond NonConjugatedSingleBond NonConjugatedSingleBond NonConjugatedSingleBond NonConjugatedSingleBond NonConjugatedSingleBond ConjugatedDoubleBond NonConjugatedSingleBond NonConjugatedSingleBond NonConjugatedSingleBond NonConjugatedSingleBond NonConjugatedSingleBond NonConjugatedSingleBond NonConjugatedSingleBond NonConjugatedSingleBond NonConjugatedSingleBond NonConjugatedSingleBond NonConjugatedSingleBond NonConjugatedSingleBond ConjugatedDoubleBond NonConjugatedSingleBond NonConjugatedSingleBond NonConjugatedSingleBond NonConjugatedSingleBond NonConjugatedSingleBond NonConjugatedSingleBond NonConjugatedSingleBond NonConjugatedSingleBond NonConjugatedSingleBond NonConjugatedSingleBond NonConjugatedSingleBond NonConjugatedSingleBond ConjugatedDoubleBond NonConjugatedSingleBond NonConjugatedSingleBond NonConjugatedSingleBond NonConjugatedSingleBond NonConjugatedSingleBond NonConjugatedSingleBond NonConjugatedSingleBond NonConjugatedSingleBond NonConjugatedSingleBond NonConjugatedSingleBondInRing NonConjugatedSingleBondInRing NonConjugatedSingleBond NonConjugatedSingleBond NonConjugatedSingleBondInRing NonConjugatedSingleBond NonConjugatedSingleBondInRing NonConjugatedSingleBond NonConjugatedSingleBondInRing NonConjugatedSingleBond NonConjugatedSingleBond NonConjugatedSingleBondInRing NonConjugatedSingleBond NonConjugatedSingleBond NonConjugatedSingleBond NonConjugatedSingleBond NonConjugatedSingleBond NonConjugatedSingleBond NonConjugatedSingleBond NonConjugatedSingleBond NonConjugatedSingleBond NonConjugatedSingleBondInRing NonConjugatedSingleBondInRing NonConjugatedSingleBond NonConjugatedSingleBondInRing NonConjugatedSingleBond NonConjugatedSingleBondInRing NonConjugatedSingleBond NonConjugatedSingleBondInRing NonConjugatedSingleBond NonConjugatedSingleBondInRing NonConjugatedSingleBond NonConjugatedSingleBond NonConjugatedSingleBond NonConjugatedSingleBond AmideSingleBond NonConjugatedSingleBond NonConjugatedSingleBond NonConjugatedSingleBond NonConjugatedSingleBond NonConjugatedSingleBond ConjugatedDoubleBond NonConjugatedSingleBond NonConjugatedSingleBond NonConjugatedSingleBond NonConjugatedSingleBond
M  BCL CHI   1   R   4   R   8   R  17   S  20   R  22   S  25   R  29   S  38   S  42   R  46   R  50   S 185   R 187   S 190   S 192   R 194   R 205   R 207   S 210   R 212   S 214   S
M  BCL DBI - - E E E E E E E E Z - -
M  END
> <ConfClashScore>
0.00390326 

> <ConfOneFourInteractionScore>
-0.965836 

> <ConfScore>
0.456202 

> <ConfScorePBest>
0.0128325 

> <ConfTolerance>
2.47623 

$$$$
L05.****
  PyMOL2.5          3D                             0

230233  0  0  0  0  0  0  0  0999 V2000
   11.9715   -3.0543   -2.4463 C   0  0  0  1  0  0  0  0  0  0  0  0
   12.0011   -2.0220   -2.7261 H   0  0  0  1  0  0  0  0  0  0  0  0
   10.9907   -3.2752   -1.3875 O   0  0  0  1  0  0  0  0  0  0  0  0
   11.4800   -3.9062   -3.5941 C   0  0  0  1  0  0  0  0  0  0  0  0
   11.8455   -4.9083   -3.5104 H   0  0  0  1  0  0  0  0  0  0  0  0
   11.8838   -3.3547   -4.8484 O   0  0  0  1  0  0  0  0  0  0  0  0
   11.4517   -3.8303   -5.5616 H   0  0  0  1  0  0  0  0  0  0  0  0
    9.9535   -3.8648   -3.4429 C   0  0  0  1  0  0  0  0  0  0  0  0
    9.5351   -3.0390   -3.9795 H   0  0  0  1  0  0  0  0  0  0  0  0
    9.3580   -5.0805   -3.8986 O   0  0  0  1  0  0  0  0  0  0  0  0
    9.0494   -4.9677   -4.8007 H   0  0  0  1  0  0  0  0  0  0  0  0
    9.0075   -1.5317   -2.6201 C   0  0  0  1  0  0  0  0  0  0  0  0
   10.0659   -1.4940   -2.7727 H   0  0  0  1  0  0  0  0  0  0  0  0
    8.5198   -1.7397   -3.5495 H   0  0  0  1  0  0  0  0  0  0  0  0
    8.5692   -0.2644   -2.1486 O   0  0  0  1  0  0  0  0  0  0  0  0
    7.7102   -0.0616   -2.5262 H   0  0  0  1  0  0  0  0  0  0  0  0
    8.6986   -2.6422   -1.6540 C   0  0  0  1  0  0  0  0  0  0  0  0
    7.7074   -3.0210   -1.7919 H   0  0  0  1  0  0  0  0  0  0  0  0
    8.9515   -2.2232   -0.3179 O   0  0  0  1  0  0  0  0  0  0  0  0
    9.7680   -3.6914   -1.9271 C   0  0  0  1  0  0  0  0  0  0  0  0
    9.4754   -4.6223   -1.4882 H   0  0  0  1  0  0  0  0  0  0  0  0
    7.8608   -1.6655    0.3803 C   0  0  0  1  0  0  0  0  0  0  0  0
    8.2236   -1.0249    1.1567 H   0  0  0  1  0  0  0  0  0  0  0  0
    7.0259   -0.9462   -0.5027 O   0  0  0  1  0  0  0  0  0  0  0  0
    6.9874   -2.7621    0.9625 C   0  0  0  1  0  0  0  0  0  0  0  0
    7.3205   -3.0447    1.9392 H   0  0  0  1  0  0  0  0  0  0  0  0
    6.9669   -3.9114    0.1145 O   0  0  0  1  0  0  0  0  0  0  0  0
    7.8640   -4.1348   -0.1442 H   0  0  0  1  0  0  0  0  0  0  0  0
    5.6343   -2.1011    1.0178 C   0  0  0  1  0  0  0  0  0  0  0  0
    5.5462   -1.4628    1.8721 H   0  0  0  1  0  0  0  0  0  0  0  0
    4.5852   -3.0648    1.0341 O   0  0  0  1  0  0  0  0  0  0  0  0
    3.8814   -2.7627    1.6130 H   0  0  0  1  0  0  0  0  0  0  0  0
    3.2974   -0.2506   -0.4245 C   0  0  0  1  0  0  0  0  0  0  0  0
    2.9254   -1.0846    0.1331 H   0  0  0  1  0  0  0  0  0  0  0  0
    2.7528    0.6303   -0.1557 H   0  0  0  1  0  0  0  0  0  0  0  0
    3.1615   -0.4987   -1.8165 O   0  0  0  1  0  0  0  0  0  0  0  0
    3.9427   -0.9543   -2.1385 H   0  0  0  1  0  0  0  0  0  0  0  0
    4.7868   -0.0523   -0.1364 C   0  0  0  1  0  0  0  0  0  0  0  0
    4.8768    0.2826    0.8759 H   0  0  0  1  0  0  0  0  0  0  0  0
    5.3310    0.9537   -1.0037 O   0  0  0  1  0  0  0  0  0  0  0  0
    4.6390    1.5711   -1.2520 H   0  0  0  1  0  0  0  0  0  0  0  0
    5.6327   -1.2970   -0.2816 C   0  0  0  1  0  0  0  0  0  0  0  0
    5.2602   -1.8895   -1.0909 H   0  0  0  1  0  0  0  0  0  0  0  0
   13.2665   -3.4704   -2.0284 O   0  0  0  1  0  0  0  0  0  0  0  0
   21.5081   -6.8827   -8.4987 O   0  0  0  1  0  0  0  0  0  0  0  0
   20.4050   -7.7218   -7.7609 P   0  0  0  1  0  0  0  0  0  0  0  0
   20.4206   -7.2721   -6.2261 O   0  0  0  1  0  0  0  0  0  0  0  0
   20.8390   -9.1504   -7.8636 O   0  0  0  0  0  0  0  0  0  0  0  0
   19.0554   -7.4319   -8.2796 O   0  0  0  1  0  0  0  0  0  0  0  0
   21.2134   -7.7413   -4.9102 P   0  0  0  1  0  0  0  0  0  0  0  0
   21.1053   -6.4605   -4.0151 O   0  0  0  1  0  0  0  0  0  0  0  0
   22.6195   -8.0197   -5.2783 O   0  0  0  0  0  0  0  0  0  0  0  0
   20.4410   -8.7918   -4.2374 O   0  0  0  1  0  0  0  0  0  0  0  0
   22.7130   -7.4603   -9.0261 C   0  0  0  1  0  0  0  0  0  0  0  0
   23.3781   -6.6829   -9.3397 H   0  0  0  1  0  0  0  0  0  0  0  0
   22.4771   -8.0867   -9.8609 H   0  0  0  1  0  0  0  0  0  0  0  0
   23.3585   -8.2718   -7.9562 C   0  0  0  1  0  0  0  0  0  0  0  0
   22.8165   -9.0673   -7.5624 H   0  0  0  1  0  0  0  0  0  0  0  0
   24.5751   -8.0551   -7.4677 C   0  0  0  1  0  0  0  0  0  0  0  0
   25.0806   -8.6628   -6.1916 C   0  0  0  1  0  0  0  0  0  0  0  0
   25.4684   -9.6400   -6.3903 H   0  0  0  1  0  0  0  0  0  0  0  0
   24.2774   -8.7343   -5.4882 H   0  0  0  1  0  0  0  0  0  0  0  0
   25.8564   -8.0471   -5.7865 H   0  0  0  1  0  0  0  0  0  0  0  0
   25.5586   -7.1645   -8.1733 C   0  0  0  1  0  0  0  0  0  0  0  0
   25.2331   -7.0308   -9.1837 H   0  0  0  1  0  0  0  0  0  0  0  0
   26.5161   -7.6420   -8.1667 H   0  0  0  1  0  0  0  0  0  0  0  0
   25.6957   -5.7969   -7.5241 C   0  0  0  1  0  0  0  0  0  0  0  0
   24.7497   -5.3018   -7.5947 H   0  0  0  1  0  0  0  0  0  0  0  0
   26.4301   -5.2438   -8.0715 H   0  0  0  1  0  0  0  0  0  0  0  0
   26.1069   -5.8083   -6.0761 C   0  0  0  1  0  0  0  0  0  0  0  0
   27.0477   -6.1872   -5.8460 H   0  0  0  1  0  0  0  0  0  0  0  0
   25.3575   -5.3703   -5.0700 C   0  0  0  1  0  0  0  0  0  0  0  0
   25.6377   -5.6775   -3.6276 C   0  0  0  1  0  0  0  0  0  0  0  0
   25.2022   -4.9200   -3.0100 H   0  0  0  1  0  0  0  0  0  0  0  0
   26.6954   -5.7032   -3.4676 H   0  0  0  1  0  0  0  0  0  0  0  0
   25.2153   -6.6281   -3.3771 H   0  0  0  1  0  0  0  0  0  0  0  0
   24.1471   -4.5161   -5.3066 C   0  0  0  1  0  0  0  0  0  0  0  0
   23.8055   -4.1577   -4.3581 H   0  0  0  1  0  0  0  0  0  0  0  0
   23.3912   -5.1303   -5.7497 H   0  0  0  1  0  0  0  0  0  0  0  0
   24.3645   -3.3142   -6.2114 C   0  0  0  1  0  0  0  0  0  0  0  0
   24.7496   -3.6586   -7.1484 H   0  0  0  1  0  0  0  0  0  0  0  0
   25.0781   -2.6646   -5.7490 H   0  0  0  1  0  0  0  0  0  0  0  0
   23.1031   -2.5343   -6.4692 C   0  0  0  1  0  0  0  0  0  0  0  0
   22.3068   -3.0630   -6.8791 H   0  0  0  1  0  0  0  0  0  0  0  0
   22.8968   -1.2448   -6.2300 C   0  0  0  1  0  0  0  0  0  0  0  0
   24.0491   -0.3002   -5.9554 C   0  0  0  1  0  0  0  0  0  0  0  0
   24.4976   -0.5429   -5.0147 H   0  0  0  1  0  0  0  0  0  0  0  0
   23.6908    0.7077   -5.9308 H   0  0  0  1  0  0  0  0  0  0  0  0
   21.5382   -0.6028   -6.2067 C   0  0  0  1  0  0  0  0  0  0  0  0
   20.7993   -1.3197   -6.4982 H   0  0  0  1  0  0  0  0  0  0  0  0
   21.5222    0.2224   -6.8877 H   0  0  0  1  0  0  0  0  0  0  0  0
   21.3257   -0.2539   -5.2178 H   0  0  0  1  0  0  0  0  0  0  0  0
   25.0756   -0.4516   -7.0661 C   0  0  0  1  0  0  0  0  0  0  0  0
   24.6304   -0.1364   -7.9866 H   0  0  0  1  0  0  0  0  0  0  0  0
   25.3508   -1.4831   -7.1372 H   0  0  0  1  0  0  0  0  0  0  0  0
   26.3209    0.3615   -6.8330 C   0  0  0  1  0  0  0  0  0  0  0  0
   26.2963    1.0288   -6.0357 H   0  0  0  1  0  0  0  0  0  0  0  0
   27.4527    0.3188   -7.5383 C   0  0  0  1  0  0  0  0  0  0  0  0
   27.6036   -0.6071   -8.7119 C   0  0  0  1  0  0  0  0  0  0  0  0
   26.7475   -1.2483   -8.7387 H   0  0  0  1  0  0  0  0  0  0  0  0
   28.4849   -1.1941   -8.5581 H   0  0  0  1  0  0  0  0  0  0  0  0
   28.6205    1.1938   -7.1878 C   0  0  0  1  0  0  0  0  0  0  0  0
   29.4787    0.5843   -6.9962 H   0  0  0  1  0  0  0  0  0  0  0  0
   28.3875    1.7661   -6.3143 H   0  0  0  1  0  0  0  0  0  0  0  0
   28.8278    1.8550   -8.0032 H   0  0  0  1  0  0  0  0  0  0  0  0
   27.7232    0.0721  -10.0665 C   0  0  0  1  0  0  0  0  0  0  0  0
   26.9357    0.7908  -10.1578 H   0  0  0  1  0  0  0  0  0  0  0  0
   27.6194   -0.6703  -10.8301 H   0  0  0  1  0  0  0  0  0  0  0  0
   29.0395    0.7765  -10.2588 C   0  0  0  1  0  0  0  0  0  0  0  0
   29.8900    0.1779  -10.2591 H   0  0  0  1  0  0  0  0  0  0  0  0
   29.2327    2.0802  -10.4282 C   0  0  0  1  0  0  0  0  0  0  0  0
   28.1194    3.0931  -10.4547 C   0  0  0  1  0  0  0  0  0  0  0  0
   27.1859    2.5720  -10.4976 H   0  0  0  1  0  0  0  0  0  0  0  0
   28.2309    3.6989  -11.3296 H   0  0  0  1  0  0  0  0  0  0  0  0
   30.6097    2.6540  -10.6103 C   0  0  0  1  0  0  0  0  0  0  0  0
   30.7719    3.4288   -9.8904 H   0  0  0  1  0  0  0  0  0  0  0  0
   30.6994    3.0593  -11.5965 H   0  0  0  1  0  0  0  0  0  0  0  0
   31.3383    1.8823  -10.4736 H   0  0  0  1  0  0  0  0  0  0  0  0
   28.1112    4.0008   -9.2355 C   0  0  0  1  0  0  0  0  0  0  0  0
   29.0501    4.5115   -9.1848 H   0  0  0  1  0  0  0  0  0  0  0  0
   27.9858    3.3962   -8.3616 H   0  0  0  1  0  0  0  0  0  0  0  0
   27.0104    5.0250   -9.2710 C   0  0  0  1  0  0  0  0  0  0  0  0
   26.9717    5.6349  -10.1125 H   0  0  0  1  0  0  0  0  0  0  0  0
   26.0821    5.2351   -8.3439 C   0  0  0  1  0  0  0  0  0  0  0  0
   25.7773    4.2680   -7.2351 C   0  0  0  1  0  0  0  0  0  0  0  0
   26.5872    4.2852   -6.5360 H   0  0  0  1  0  0  0  0  0  0  0  0
   25.6875    3.2874   -7.6536 H   0  0  0  1  0  0  0  0  0  0  0  0
   25.2493    6.4835   -8.3352 C   0  0  0  1  0  0  0  0  0  0  0  0
   24.2972    6.2808   -8.7793 H   0  0  0  1  0  0  0  0  0  0  0  0
   25.7476    7.2482   -8.8937 H   0  0  0  1  0  0  0  0  0  0  0  0
   25.1095    6.8116   -7.3264 H   0  0  0  1  0  0  0  0  0  0  0  0
   24.4917    4.5976   -6.4942 C   0  0  0  1  0  0  0  0  0  0  0  0
   23.6694    4.4743   -7.1677 H   0  0  0  1  0  0  0  0  0  0  0  0
   24.5374    5.6159   -6.1690 H   0  0  0  1  0  0  0  0  0  0  0  0
   24.2623    3.7206   -5.2924 C   0  0  0  1  0  0  0  0  0  0  0  0
   24.9351    2.9450   -5.1272 H   0  0  0  1  0  0  0  0  0  0  0  0
   23.2697    3.8630   -4.4315 C   0  0  0  1  0  0  0  0  0  0  0  0
   22.0544    4.7044   -4.6931 C   0  0  0  1  0  0  0  0  0  0  0  0
   21.1992    4.2014   -4.2924 H   0  0  0  1  0  0  0  0  0  0  0  0
   21.9394    4.8170   -5.7509 H   0  0  0  1  0  0  0  0  0  0  0  0
   23.2839    3.1769   -3.0945 C   0  0  0  1  0  0  0  0  0  0  0  0
   23.3636    2.1193   -3.2366 H   0  0  0  1  0  0  0  0  0  0  0  0
   22.3779    3.3988   -2.5703 H   0  0  0  1  0  0  0  0  0  0  0  0
   24.1204    3.5239   -2.5246 H   0  0  0  1  0  0  0  0  0  0  0  0
   22.1407    6.0863   -4.0660 C   0  0  0  1  0  0  0  0  0  0  0  0
   22.6203    5.9877   -3.1146 H   0  0  0  1  0  0  0  0  0  0  0  0
   21.1436    6.4488   -3.9275 H   0  0  0  1  0  0  0  0  0  0  0  0
   22.8999    7.1102   -4.8643 C   0  0  0  1  0  0  0  0  0  0  0  0
   23.3583    6.7727   -5.7347 H   0  0  0  1  0  0  0  0  0  0  0  0
   23.0482    8.3982   -4.5785 C   0  0  0  1  0  0  0  0  0  0  0  0
   22.4321    9.0015   -3.3480 C   0  0  0  1  0  0  0  0  0  0  0  0
   21.6856    8.3307   -2.9770 H   0  0  0  1  0  0  0  0  0  0  0  0
   21.9754    9.9311   -3.6165 H   0  0  0  1  0  0  0  0  0  0  0  0
   23.8241    9.3610   -5.4288 C   0  0  0  1  0  0  0  0  0  0  0  0
   23.6325   10.3615   -5.1012 H   0  0  0  1  0  0  0  0  0  0  0  0
   23.5234    9.2567   -6.4504 H   0  0  0  1  0  0  0  0  0  0  0  0
   24.8697    9.1514   -5.3411 H   0  0  0  1  0  0  0  0  0  0  0  0
   23.4424    9.2605   -2.2422 C   0  0  0  1  0  0  0  0  0  0  0  0
   24.3624    9.5756   -2.6884 H   0  0  0  1  0  0  0  0  0  0  0  0
   23.5999    8.3489   -1.7045 H   0  0  0  1  0  0  0  0  0  0  0  0
   22.9942   10.3188   -1.2700 C   0  0  0  1  0  0  0  0  0  0  0  0
   22.6401   11.2143   -1.6630 H   0  0  0  1  0  0  0  0  0  0  0  0
   23.0171   10.1941    0.0526 C   0  0  0  1  0  0  0  0  0  0  0  0
   22.5631   11.2678    0.9984 C   0  0  0  1  0  0  0  0  0  0  0  0
   22.0167   12.0082    0.4524 H   0  0  0  1  0  0  0  0  0  0  0  0
   23.4196   11.7195    1.4537 H   0  0  0  1  0  0  0  0  0  0  0  0
   23.5110    8.9393    0.7158 C   0  0  0  1  0  0  0  0  0  0  0  0
   23.7424    8.2658   -0.0828 H   0  0  0  1  0  0  0  0  0  0  0  0
   22.7514    8.5254    1.3455 H   0  0  0  1  0  0  0  0  0  0  0  0
   24.3854    9.1434    1.2978 H   0  0  0  1  0  0  0  0  0  0  0  0
   21.6697   10.6882    2.0830 C   0  0  0  1  0  0  0  0  0  0  0  0
   22.1934    9.9024    2.5861 H   0  0  0  1  0  0  0  0  0  0  0  0
   20.7820   10.2949    1.6332 H   0  0  0  1  0  0  0  0  0  0  0  0
   21.2912   11.7401    3.0767 C   0  0  0  1  0  0  0  0  0  0  0  0
   20.5724   12.4354    2.7913 H   0  0  0  1  0  0  0  0  0  0  0  0
   21.8046   11.8524    4.2959 C   0  0  0  1  0  0  0  0  0  0  0  0
   22.8950   10.9368    4.7712 C   0  0  0  1  0  0  0  0  0  0  0  0
   22.7850   10.7654    5.8216 H   0  0  0  1  0  0  0  0  0  0  0  0
   23.8467   11.3875    4.5813 H   0  0  0  1  0  0  0  0  0  0  0  0
   22.8307   10.0049    4.2493 H   0  0  0  1  0  0  0  0  0  0  0  0
   21.3600   12.8824    5.3057 C   0  0  0  1  0  0  0  0  0  0  0  0
   21.4565   13.8435    4.8453 H   0  0  0  1  0  0  0  0  0  0  0  0
   21.9783   12.8307    6.1774 H   0  0  0  1  0  0  0  0  0  0  0  0
   20.3404   12.7092    5.5802 H   0  0  0  1  0  0  0  0  0  0  0  0
   16.2493   -5.1517   -1.7084 C   0  0  0  1  0  0  0  0  0  0  0  0
   16.5441   -5.6671   -0.8183 H   0  0  0  1  0  0  0  0  0  0  0  0
   15.0271   -5.8349   -2.2921 C   0  0  0  1  0  0  0  0  0  0  0  0
   15.3138   -6.7997   -2.6552 H   0  0  0  1  0  0  0  0  0  0  0  0
   15.9827   -3.8002   -1.3902 O   0  0  0  1  0  0  0  0  0  0  0  0
   14.4119   -5.0466   -3.4361 C   0  0  0  1  0  0  0  0  0  0  0  0
   13.4499   -5.4541   -3.6672 H   0  0  0  1  0  0  0  0  0  0  0  0
   15.5781   -3.0292   -2.5362 C   0  0  0  1  0  0  0  0  0  0  0  0
   16.3229   -3.1020   -3.3011 H   0  0  0  1  0  0  0  0  0  0  0  0
   14.2564   -3.5852   -3.0516 C   0  0  0  1  0  0  0  0  0  0  0  0
   13.9492   -3.0254   -3.9102 H   0  0  0  1  0  0  0  0  0  0  0  0
   17.3071   -5.2033   -2.6599 O   0  0  0  1  0  0  0  0  0  0  0  0
   14.0495   -5.9846   -1.2609 O   0  0  0  1  0  0  0  0  0  0  0  0
   13.7614   -5.1182   -0.9643 H   0  0  0  1  0  0  0  0  0  0  0  0
   15.2538   -5.1429   -4.5758 O   0  0  0  1  0  0  0  0  0  0  0  0
   15.1490   -4.3583   -5.1188 H   0  0  0  1  0  0  0  0  0  0  0  0
   15.4009   -1.5731   -2.1376 C   0  0  0  1  0  0  0  0  0  0  0  0
   14.3703   -1.3853   -1.9199 H   0  0  0  1  0  0  0  0  0  0  0  0
   15.7159   -0.9424   -2.9425 H   0  0  0  1  0  0  0  0  0  0  0  0
   15.9918   -1.3667   -1.2698 H   0  0  0  1  0  0  0  0  0  0  0  0
   19.9294   -5.6732   -3.8416 C   0  0  0  1  0  0  0  0  0  0  0  0
   19.0930   -6.1798   -4.2761 H   0  0  0  1  0  0  0  0  0  0  0  0
   19.6768   -5.4619   -2.3565 C   0  0  0  1  0  0  0  0  0  0  0  0
   20.5384   -5.0154   -1.9057 H   0  0  0  1  0  0  0  0  0  0  0  0
   20.1041   -4.4162   -4.4805 O   0  0  0  1  0  0  0  0  0  0  0  0
   18.4739   -4.5393   -2.1863 C   0  0  0  1  0  0  0  0  0  0  0  0
   18.3557   -4.3060   -1.1487 H   0  0  0  1  0  0  0  0  0  0  0  0
   18.9266   -3.5904   -4.4303 C   0  0  0  1  0  0  0  0  0  0  0  0
   19.0875   -2.6911   -4.9874 H   0  0  0  1  0  0  0  0  0  0  0  0
   18.6625   -3.2546   -2.9640 C   0  0  0  1  0  0  0  0  0  0  0  0
   17.7784   -2.6568   -2.8874 H   0  0  0  1  0  0  0  0  0  0  0  0
   19.4037   -6.7448   -1.7191 N   0  0  0  1  0  0  0  0  0  0  0  0
   18.5141   -6.9049   -1.3405 H   0  0  0  1  0  0  0  0  0  0  0  0
   19.7739   -2.5326   -2.4315 O   0  0  0  1  0  0  0  0  0  0  0  0
   20.3473   -3.1824   -2.0186 H   0  0  0  1  0  0  0  0  0  0  0  0
   17.7549   -4.3333   -5.0049 C   0  0  0  1  0  0  0  0  0  0  0  0
   16.8516   -3.8116   -4.7667 H   0  0  0  1  0  0  0  0  0  0  0  0
   17.7192   -5.3181   -4.5881 H   0  0  0  1  0  0  0  0  0  0  0  0
   17.8906   -4.4225   -6.4171 O   0  0  0  1  0  0  0  0  0  0  0  0
   17.1635   -4.9499   -6.7558 H   0  0  0  1  0  0  0  0  0  0  0  0
   20.3331   -7.7189   -1.6326 C   0  0  0  1  0  0  0  0  0  0  0  0
   21.4696   -7.5540   -2.0739 O   0  0  0  1  0  0  0  0  0  0  0  0
   19.9366   -9.0261   -0.9743 C   0  0  0  1  0  0  0  0  0  0  0  0
   18.8672   -9.0296   -1.0119 H   0  0  0  1  0  0  0  0  0  0  0  0
   20.2798   -9.0592    0.0386 H   0  0  0  1  0  0  0  0  0  0  0  0
   20.3369   -9.8585   -1.5145 H   0  0  0  1  0  0  0  0  0  0  0  0
  1  2  1  0  0  0  0
  1  3  1  0  0  0  0
  1  4  1  0  0  0  0
  1 44  1  0  0  0  0
  3 20  1  0  0  0  0
  4  5  1  0  0  0  0
  4  6  1  0  0  0  0
  4  8  1  0  0  0  0
  6  7  1  0  0  0  0
  8  9  1  0  0  0  0
  8 10  1  0  0  0  0
  8 20  1  0  0  0  0
 10 11  1  0  0  0  0
 12 13  1  0  0  0  0
 12 14  1  0  0  0  0
 12 15  1  0  0  0  0
 12 17  1  0  0  0  0
 15 16  1  0  0  0  0
 17 18  1  0  0  0  0
 17 19  1  0  0  0  0
 17 20  1  0  0  0  0
 19 22  1  0  0  0  0
 20 21  1  0  0  0  0
 22 23  1  0  0  0  0
 22 24  1  0  0  0  0
 22 25  1  0  0  0  0
 24 42  1  0  0  0  0
 25 26  1  0  0  0  0
 25 27  1  0  0  0  0
 25 29  1  0  0  0  0
 27 28  1  0  0  0  0
 29 30  1  0  0  0  0
 29 31  1  0  0  0  0
 29 42  1  0  0  0  0
 31 32  1  0  0  0  0
 33 34  1  0  0  0  0
 33 35  1  0  0  0  0
 33 36  1  0  0  0  0
 33 38  1  0  0  0  0
 36 37  1  0  0  0  0
 38 39  1  0  0  0  0
 38 40  1  0  0  0  0
 38 42  1  0  0  0  0
 40 41  1  0  0  0  0
 42 43  1  0  0  0  0
 44194  1  0  0  0  0
 45 46  1  0  0  0  0
 45 54  1  0  0  0  0
 46 47  1  0  0  0  0
 46 48  1  0  0  0  0
 46 49  2  0  0  0  0
 47 50  1  0  0  0  0
 50 51  1  0  0  0  0
 50 52  1  0  0  0  0
 50 53  2  0  0  0  0
 51205  1  0  0  0  0
 54 55  1  0  0  0  0
 54 56  1  0  0  0  0
 54 57  1  0  0  0  0
 57 58  1  0  0  0  0
 57 59  2  0  0  0  0
 59 60  1  0  0  0  0
 59 64  1  0  0  0  0
 60 61  1  0  0  0  0
 60 62  1  0  0  0  0
 60 63  1  0  0  0  0
 64 65  1  0  0  0  0
 64 66  1  0  0  0  0
 64 67  1  0  0  0  0
 67 68  1  0  0  0  0
 67 69  1  0  0  0  0
 67 70  1  0  0  0  0
 70 71  1  0  0  0  0
 70 72  2  0  0  0  0
 72 73  1  0  0  0  0
 72 77  1  0  0  0  0
 73 74  1  0  0  0  0
 73 75  1  0  0  0  0
 73 76  1  0  0  0  0
 77 78  1  0  0  0  0
 77 79  1  0  0  0  0
 77 80  1  0  0  0  0
 80 81  1  0  0  0  0
 80 82  1  0  0  0  0
 80 83  1  0  0  0  0
 83 84  1  0  0  0  0
 83 85  2  0  0  0  0
 85 86  1  0  0  0  0
 85 89  1  0  0  0  0
 86 87  1  0  0  0  0
 86 88  1  0  0  0  0
 86 93  1  0  0  0  0
 89 90  1  0  0  0  0
 89 91  1  0  0  0  0
 89 92  1  0  0  0  0
 93 94  1  0  0  0  0
 93 95  1  0  0  0  0
 93 96  1  0  0  0  0
 96 97  1  0  0  0  0
 96 98  2  0  0  0  0
 98 99  1  0  0  0  0
 98102  1  0  0  0  0
 99100  1  0  0  0  0
 99101  1  0  0  0  0
 99106  1  0  0  0  0
102103  1  0  0  0  0
102104  1  0  0  0  0
102105  1  0  0  0  0
106107  1  0  0  0  0
106108  1  0  0  0  0
106109  1  0  0  0  0
109110  1  0  0  0  0
109111  2  0  0  0  0
111112  1  0  0  0  0
111115  1  0  0  0  0
112113  1  0  0  0  0
112114  1  0  0  0  0
112119  1  0  0  0  0
115116  1  0  0  0  0
115117  1  0  0  0  0
115118  1  0  0  0  0
119120  1  0  0  0  0
119121  1  0  0  0  0
119122  1  0  0  0  0
122123  1  0  0  0  0
122124  2  0  0  0  0
124125  1  0  0  0  0
124128  1  0  0  0  0
125126  1  0  0  0  0
125127  1  0  0  0  0
125132  1  0  0  0  0
128129  1  0  0  0  0
128130  1  0  0  0  0
128131  1  0  0  0  0
132133  1  0  0  0  0
132134  1  0  0  0  0
132135  1  0  0  0  0
135136  1  0  0  0  0
135137  2  0  0  0  0
137138  1  0  0  0  0
137141  1  0  0  0  0
138139  1  0  0  0  0
138140  1  0  0  0  0
138145  1  0  0  0  0
141142  1  0  0  0  0
141143  1  0  0  0  0
141144  1  0  0  0  0
145146  1  0  0  0  0
145147  1  0  0  0  0
145148  1  0  0  0  0
148149  1  0  0  0  0
148150  2  0  0  0  0
150151  1  0  0  0  0
150154  1  0  0  0  0
151152  1  0  0  0  0
151153  1  0  0  0  0
151158  1  0  0  0  0
154155  1  0  0  0  0
154156  1  0  0  0  0
154157  1  0  0  0  0
158159  1  0  0  0  0
158160  1  0  0  0  0
158161  1  0  0  0  0
161162  1  0  0  0  0
161163  2  0  0  0  0
163164  1  0  0  0  0
163167  1  0  0  0  0
164165  1  0  0  0  0
164166  1  0  0  0  0
164171  1  0  0  0  0
167168  1  0  0  0  0
167169  1  0  0  0  0
167170  1  0  0  0  0
171172  1  0  0  0  0
171173  1  0  0  0  0
171174  1  0  0  0  0
174175  1  0  0  0  0
174176  2  0  0  0  0
176177  1  0  0  0  0
176181  1  0  0  0  0
177178  1  0  0  0  0
177179  1  0  0  0  0
177180  1  0  0  0  0
181182  1  0  0  0  0
181183  1  0  0  0  0
181184  1  0  0  0  0
185186  1  0  0  0  0
185187  1  0  0  0  0
185189  1  0  0  0  0
185196  1  0  0  0  0
187188  1  0  0  0  0
187190  1  0  0  0  0
187197  1  0  0  0  0
189192  1  0  0  0  0
190191  1  0  0  0  0
190194  1  0  0  0  0
190199  1  0  0  0  0
192193  1  0  0  0  0
192194  1  0  0  0  0
192201  1  0  0  0  0
194195  1  0  0  0  0
196210  1  0  0  0  0
197198  1  0  0  0  0
199200  1  0  0  0  0
201202  1  0  0  0  0
201203  1  0  0  0  0
201204  1  0  0  0  0
205206  1  0  0  0  0
205207  1  0  0  0  0
205209  1  0  0  0  0
207208  1  0  0  0  0
207210  1  0  0  0  0
207216  1  0  0  0  0
209212  1  0  0  0  0
210211  1  0  0  0  0
210214  1  0  0  0  0
212213  1  0  0  0  0
212214  1  0  0  0  0
212220  1  0  0  0  0
214215  1  0  0  0  0
214218  1  0  0  0  0
216217  1  0  0  0  0
216225  1  0  0  0  0
218219  1  0  0  0  0
220221  1  0  0  0  0
220222  1  0  0  0  0
220223  1  0  0  0  0
223224  1  0  0  0  0
225226  2  0  0  0  0
225227  1  0  0  0  0
227228  1  0  0  0  0
227229  1  0  0  0  0
227230  1  0  0  0  0
M  BCL ATM C_TeTeTeTe H_S O_Te2Te2TeTe C_TeTeTeTe H_S O_Te2Te2TeTe H_S C_TeTeTeTe H_S O_Te2Te2TeTe H_S C_TeTeTeTe H_S H_S O_Te2Te2TeTe H_S C_TeTeTeTe H_S O_Te2Te2TeTe C_TeTeTeTe H_S C_TeTeTeTe H_S O_Te2Te2TeTe C_TeTeTeTe H_S O_Te2Te2TeTe H_S C_TeTeTeTe H_S O_Te2Te2TeTe H_S C_TeTeTeTe H_S H_S O_Te2Te2TeTe H_S C_TeTeTeTe H_S O_Te2Te2TeTe H_S C_TeTeTeTe H_S O_Te2Te2TeTe O_Tr2TrTrPi2 P_TeTeTeTePi O_Tr2TrTrPi2 O_Te2Te2TeTe O_Tr2Tr2TrPi P_TeTeTeTePi O_Tr2TrTrPi2 O_Te2Te2TeTe O_Tr2Tr2TrPi C_TeTeTeTe H_S H_S C_TrTrTrPi H_S C_TrTrTrPi C_TeTeTeTe H_S H_S H_S C_TeTeTeTe H_S H_S C_TeTeTeTe H_S H_S C_TrTrTrPi H_S C_TrTrTrPi C_TeTeTeTe H_S H_S H_S C_TeTeTeTe H_S H_S C_TeTeTeTe H_S H_S C_TrTrTrPi H_S C_TrTrTrPi C_TeTeTeTe H_S H_S C_TeTeTeTe H_S H_S H_S C_TeTeTeTe H_S H_S C_TrTrTrPi H_S C_TrTrTrPi C_TeTeTeTe H_S H_S C_TeTeTeTe H_S H_S H_S C_TeTeTeTe H_S H_S C_TrTrTrPi H_S C_TrTrTrPi C_TeTeTeTe H_S H_S C_TeTeTeTe H_S H_S H_S C_TeTeTeTe H_S H_S C_TrTrTrPi H_S C_TrTrTrPi C_TeTeTeTe H_S H_S C_TeTeTeTe H_S H_S H_S C_TeTeTeTe H_S H_S C_TrTrTrPi H_S C_TrTrTrPi C_TeTeTeTe H_S H_S C_TeTeTeTe H_S H_S H_S C_TeTeTeTe H_S H_S C_TrTrTrPi H_S C_TrTrTrPi C_TeTeTeTe H_S H_S C_TeTeTeTe H_S H_S H_S C_TeTeTeTe H_S H_S C_TrTrTrPi H_S C_TrTrTrPi C_TeTeTeTe H_S H_S C_TeTeTeTe H_S H_S H_S C_TeTeTeTe H_S H_S C_TrTrTrPi H_S C_TrTrTrPi C_TeTeTeTe H_S H_S H_S C_TeTeTeTe H_S H_S H_S C_TeTeTeTe H_S C_TeTeTeTe H_S O_Te2Te2TeTe C_TeTeTeTe H_S C_TeTeTeTe H_S C_TeTeTeTe H_S O_Te2Te2TeTe O_Te2Te2TeTe H_S O_Te2Te2TeTe H_S C_TeTeTeTe H_S H_S H_S C_TeTeTeTe H_S C_TeTeTeTe H_S O_Te2Te2TeTe C_TeTeTeTe H_S C_TeTeTeTe H_S C_TeTeTeTe H_S N_TrTrTrPi2 H_S O_Te2Te2TeTe H_S C_TeTeTeTe H_S H_S O_Te2Te2TeTe H_S C_TrTrTrPi O_Tr2Tr2TrPi C_TeTeTeTe H_S H_S H_S
M  BCL BND NonConjugatedSingleBond NonConjugatedSingleBondInRing NonConjugatedSingleBondInRing NonConjugatedSingleBond NonConjugatedSingleBondInRing NonConjugatedSingleBond NonConjugatedSingleBond NonConjugatedSingleBondInRing NonConjugatedSingleBond NonConjugatedSingleBond NonConjugatedSingleBond NonConjugatedSingleBondInRing NonConjugatedSingleBond NonConjugatedSingleBond NonConjugatedSingleBond NonConjugatedSingleBond NonConjugatedSingleBond NonConjugatedSingleBond NonConjugatedSingleBond NonConjugatedSingleBond NonConjugatedSingleBond NonConjugatedSingleBond NonConjugatedSingleBond NonConjugatedSingleBond NonConjugatedSingleBondInRing NonConjugatedSingleBondInRing NonConjugatedSingleBondInRing NonConjugatedSingleBond NonConjugatedSingleBond NonConjugatedSingleBondInRing NonConjugatedSingleBond NonConjugatedSingleBond NonConjugatedSingleBond NonConjugatedSingleBondInRing NonConjugatedSingleBond NonConjugatedSingleBond NonConjugatedSingleBond NonConjugatedSingleBond NonConjugatedSingleBond NonConjugatedSingleBond NonConjugatedSingleBond NonConjugatedSingleBond NonConjugatedSingleBond NonConjugatedSingleBond NonConjugatedSingleBond NonConjugatedSingleBond ConjugatedSingleBond NonConjugatedSingleBond ConjugatedSingleBond ConjugatedSingleBond ConjugatedDoubleBond ConjugatedSingleBond ConjugatedSingleBond ConjugatedSingleBond ConjugatedDoubleBond NonConjugatedSingleBond NonConjugatedSingleBond NonConjugatedSingleBond NonConjugatedSingleBond NonConjugatedSingleBond ConjugatedDoubleBond NonConjugatedSingleBond NonConjugatedSingleBond NonConjugatedSingleBond NonConjugatedSingleBond NonConjugatedSingleBond NonConjugatedSingleBond NonConjugatedSingleBond NonConjugatedSingleBond NonConjugatedSingleBond NonConjugatedSingleBond NonConjugatedSingleBond NonConjugatedSingleBond ConjugatedDoubleBond NonConjugatedSingleBond NonConjugatedSingleBond NonConjugatedSingleBond NonConjugatedSingleBond NonConjugatedSingleBond NonConjugatedSingleBond NonConjugatedSingleBond NonConjugatedSingleBond NonConjugatedSingleBond NonConjugatedSingleBond NonConjugatedSingleBond NonConjugatedSingleBond ConjugatedDoubleBond NonConjugatedSingleBond NonConjugatedSingleBond NonConjugatedSingleBond NonConjugatedSingleBond NonConjugatedSingleBond NonConjugatedSingleBond NonConjugatedSingleBond NonConjugatedSingleBond NonConjugatedSingleBond NonConjugatedSingleBond NonConjugatedSingleBond NonConjugatedSingleBond ConjugatedDoubleBond NonConjugatedSingleBond NonConjugatedSingleBond NonConjugatedSingleBond NonConjugatedSingleBond NonConjugatedSingleBond NonConjugatedSingleBond NonConjugatedSingleBond NonConjugatedSingleBond NonConjugatedSingleBond NonConjugatedSingleBond NonConjugatedSingleBond NonConjugatedSingleBond ConjugatedDoubleBond NonConjugatedSingleBond NonConjugatedSingleBond NonConjugatedSingleBond NonConjugatedSingleBond NonConjugatedSingleBond NonConjugatedSingleBond NonConjugatedSingleBond NonConjugatedSingleBond NonConjugatedSingleBond NonConjugatedSingleBond NonConjugatedSingleBond NonConjugatedSingleBond ConjugatedDoubleBond NonConjugatedSingleBond NonConjugatedSingleBond NonConjugatedSingleBond NonConjugatedSingleBond NonConjugatedSingleBond NonConjugatedSingleBond NonConjugatedSingleBond NonConjugatedSingleBond NonConjugatedSingleBond NonConjugatedSingleBond NonConjugatedSingleBond NonConjugatedSingleBond ConjugatedDoubleBond NonConjugatedSingleBond NonConjugatedSingleBond NonConjugatedSingleBond NonConjugatedSingleBond NonConjugatedSingleBond NonConjugatedSingleBond NonConjugatedSingleBond NonConjugatedSingleBond NonConjugatedSingleBond NonConjugatedSingleBond NonConjugatedSingleBond NonConjugatedSingleBond ConjugatedDoubleBond NonConjugatedSingleBond NonConjugatedSingleBond NonConjugatedSingleBond NonConjugatedSingleBond NonConjugatedSingleBond NonConjugatedSingleBond NonConjugatedSingleBond NonConjugatedSingleBond NonConjugatedSingleBond NonConjugatedSingleBond NonConjugatedSingleBond NonConjugatedSingleBond ConjugatedDoubleBond NonConjugatedSingleBond NonConjugatedSingleBond NonConjugatedSingleBond NonConjugatedSingleBond NonConjugatedSingleBond NonConjugatedSingleBond NonConjugatedSingleBond NonConjugatedSingleBond NonConjugatedSingleBond NonConjugatedSingleBond NonConjugatedSingleBond NonConjugatedSingleBond ConjugatedDoubleBond NonConjugatedSingleBond NonConjugatedSingleBond NonConjugatedSingleBond NonConjugatedSingleBond NonConjugatedSingleBond NonConjugatedSingleBond NonConjugatedSingleBond NonConjugatedSingleBond NonConjugatedSingleBond NonConjugatedSingleBondInRing NonConjugatedSingleBondInRing NonConjugatedSingleBond NonConjugatedSingleBond NonConjugatedSingleBondInRing NonConjugatedSingleBond NonConjugatedSingleBondInRing NonConjugatedSingleBond NonConjugatedSingleBondInRing NonConjugatedSingleBond NonConjugatedSingleBond NonConjugatedSingleBondInRing NonConjugatedSingleBond NonConjugatedSingleBond NonConjugatedSingleBond NonConjugatedSingleBond NonConjugatedSingleBond NonConjugatedSingleBond NonConjugatedSingleBond NonConjugatedSingleBond NonConjugatedSingleBond NonConjugatedSingleBondInRing NonConjugatedSingleBondInRing NonConjugatedSingleBond NonConjugatedSingleBondInRing NonConjugatedSingleBond NonConjugatedSingleBondInRing NonConjugatedSingleBond NonConjugatedSingleBondInRing NonConjugatedSingleBond NonConjugatedSingleBondInRing NonConjugatedSingleBond NonConjugatedSingleBond NonConjugatedSingleBond NonConjugatedSingleBond AmideSingleBond NonConjugatedSingleBond NonConjugatedSingleBond NonConjugatedSingleBond NonConjugatedSingleBond NonConjugatedSingleBond ConjugatedDoubleBond NonConjugatedSingleBond NonConjugatedSingleBond NonConjugatedSingleBond NonConjugatedSingleBond
M  BCL CHI   1   R   4   R   8   R  17   S  20   R  22   S  25   R  29   S  38   S  42   R  46   R  50   S 185   R 187   S 190   S 192   R 194   R 205   R 207   S 210   R 212   S 214   S
M  BCL DBI - - E E E E E E E E Z - -
M  END
> <ConfClashScore>
0.00306024 

> <ConfOneFourInteractionScore>
-0.967331 

> <ConfScore>
0.483738 

> <ConfScorePBest>
0.0127295 

> <ConfTolerance>
2.67659 

$$$$
L05.****
  PyMOL2.5          3D                             0

230233  0  0  0  0  0  0  0  0999 V2000
   12.0128   -2.8901   -2.8424 C   0  0  0  1  0  0  0  0  0  0  0  0
   11.5786   -3.8548   -3.0031 H   0  0  0  1  0  0  0  0  0  0  0  0
   12.1731   -2.2312   -4.0670 O   0  0  0  1  0  0  0  0  0  0  0  0
   11.0818   -2.0387   -1.9647 C   0  0  0  1  0  0  0  0  0  0  0  0
   11.6361   -1.4970   -1.2270 H   0  0  0  1  0  0  0  0  0  0  0  0
   10.0974   -2.8495   -1.3211 O   0  0  0  1  0  0  0  0  0  0  0  0
    9.8685   -2.4627   -0.4728 H   0  0  0  1  0  0  0  0  0  0  0  0
   10.4361   -1.0870   -2.9806 C   0  0  0  1  0  0  0  0  0  0  0  0
    9.5419   -1.5111   -3.3872 H   0  0  0  1  0  0  0  0  0  0  0  0
   10.1355    0.1738   -2.3795 O   0  0  0  1  0  0  0  0  0  0  0  0
    9.1875    0.2481   -2.2477 H   0  0  0  1  0  0  0  0  0  0  0  0
   11.8710   -0.4901   -6.5327 C   0  0  0  1  0  0  0  0  0  0  0  0
   12.5723   -1.2979   -6.5119 H   0  0  0  1  0  0  0  0  0  0  0  0
   11.3585   -0.4862   -7.4720 H   0  0  0  1  0  0  0  0  0  0  0  0
   12.5481    0.7454   -6.3443 O   0  0  0  1  0  0  0  0  0  0  0  0
   12.0057    1.4627   -6.6803 H   0  0  0  1  0  0  0  0  0  0  0  0
   10.8667   -0.6417   -5.3913 C   0  0  0  1  0  0  0  0  0  0  0  0
   10.2611   -1.4898   -5.6340 H   0  0  0  1  0  0  0  0  0  0  0  0
   10.0105    0.4942   -5.3304 O   0  0  0  1  0  0  0  0  0  0  0  0
   11.4965   -0.9376   -4.0474 C   0  0  0  1  0  0  0  0  0  0  0  0
   12.1814   -0.1555   -3.7940 H   0  0  0  1  0  0  0  0  0  0  0  0
   10.3456    1.5334   -4.4834 C   0  0  0  1  0  0  0  0  0  0  0  0
    9.9056    1.3670   -3.5224 H   0  0  0  1  0  0  0  0  0  0  0  0
   11.7764    1.6392   -4.3654 O   0  0  0  1  0  0  0  0  0  0  0  0
    9.8705    2.8518   -5.0569 C   0  0  0  1  0  0  0  0  0  0  0  0
    8.9350    3.1417   -4.6259 H   0  0  0  1  0  0  0  0  0  0  0  0
    9.7372    2.7729   -6.4769 O   0  0  0  1  0  0  0  0  0  0  0  0
    9.8606    3.6447   -6.8593 H   0  0  0  1  0  0  0  0  0  0  0  0
   10.9648    3.8160   -4.6703 C   0  0  0  1  0  0  0  0  0  0  0  0
   10.8244    4.1824   -3.6748 H   0  0  0  1  0  0  0  0  0  0  0  0
   11.0290    4.9136   -5.5763 O   0  0  0  1  0  0  0  0  0  0  0  0
   11.7122    4.7496   -6.2305 H   0  0  0  1  0  0  0  0  0  0  0  0
   13.9171    4.7874   -4.2632 C   0  0  0  1  0  0  0  0  0  0  0  0
   14.3759    4.6685   -5.2225 H   0  0  0  1  0  0  0  0  0  0  0  0
   13.1636    5.5450   -4.3191 H   0  0  0  1  0  0  0  0  0  0  0  0
   14.9014    5.1699   -3.3133 O   0  0  0  1  0  0  0  0  0  0  0  0
   15.6051    4.5170   -3.3005 H   0  0  0  1  0  0  0  0  0  0  0  0
   13.2796    3.4689   -3.8393 C   0  0  0  1  0  0  0  0  0  0  0  0
   12.8445    3.6075   -2.8717 H   0  0  0  1  0  0  0  0  0  0  0  0
   14.3226    2.4886   -3.7517 O   0  0  0  1  0  0  0  0  0  0  0  0
   14.7090    2.3533   -4.6201 H   0  0  0  1  0  0  0  0  0  0  0  0
   12.2017    2.9545   -4.7664 C   0  0  0  1  0  0  0  0  0  0  0  0
   12.5714    2.9395   -5.7704 H   0  0  0  1  0  0  0  0  0  0  0  0
   13.2768   -3.0382   -2.2042 O   0  0  0  1  0  0  0  0  0  0  0  0
   20.7584   -9.9769   -8.7759 O   0  0  0  1  0  0  0  0  0  0  0  0
   19.2239   -9.5877   -8.9552 P   0  0  0  1  0  0  0  0  0  0  0  0
   19.0572   -8.8990   -7.5126 O   0  0  0  1  0  0  0  0  0  0  0  0
   18.3705  -10.7881   -9.0287 O   0  0  0  0  0  0  0  0  0  0  0  0
   19.1027   -8.5528  -10.0084 O   0  0  0  1  0  0  0  0  0  0  0  0
   19.1022   -7.3574   -7.1620 P   0  0  0  1  0  0  0  0  0  0  0  0
   19.4261   -7.3465   -5.6135 O   0  0  0  1  0  0  0  0  0  0  0  0
   17.6986   -6.8165   -7.3827 O   0  0  0  0  0  0  0  0  0  0  0  0
   20.2047   -6.6649   -7.8935 O   0  0  0  1  0  0  0  0  0  0  0  0
   21.1750  -10.8655   -7.7274 C   0  0  0  1  0  0  0  0  0  0  0  0
   20.4822  -11.6788   -7.6676 H   0  0  0  1  0  0  0  0  0  0  0  0
   21.1780  -10.3301   -6.8010 H   0  0  0  1  0  0  0  0  0  0  0  0
   22.5489  -11.4157   -7.9741 C   0  0  0  1  0  0  0  0  0  0  0  0
   22.5994  -12.3515   -8.4252 H   0  0  0  1  0  0  0  0  0  0  0  0
   23.7080  -10.8371   -7.6789 C   0  0  0  1  0  0  0  0  0  0  0  0
   25.0194  -11.5648   -7.6559 C   0  0  0  1  0  0  0  0  0  0  0  0
   24.8546  -12.5900   -7.3973 H   0  0  0  1  0  0  0  0  0  0  0  0
   25.6646  -11.1138   -6.9312 H   0  0  0  1  0  0  0  0  0  0  0  0
   25.4746  -11.5098   -8.6227 H   0  0  0  1  0  0  0  0  0  0  0  0
   23.7931   -9.3784   -7.3386 C   0  0  0  1  0  0  0  0  0  0  0  0
   22.8339   -8.9338   -7.5032 H   0  0  0  1  0  0  0  0  0  0  0  0
   24.5145   -8.9201   -7.9823 H   0  0  0  1  0  0  0  0  0  0  0  0
   24.2021   -9.1264   -5.8965 C   0  0  0  1  0  0  0  0  0  0  0  0
   23.3945   -8.6229   -5.4075 H   0  0  0  1  0  0  0  0  0  0  0  0
   25.0652   -8.4939   -5.9039 H   0  0  0  1  0  0  0  0  0  0  0  0
   24.5348  -10.3557   -5.0964 C   0  0  0  1  0  0  0  0  0  0  0  0
   24.1381  -11.2615   -5.4187 H   0  0  0  1  0  0  0  0  0  0  0  0
   25.2985  -10.3709   -4.0075 C   0  0  0  1  0  0  0  0  0  0  0  0
   25.8999  -11.5941   -3.3789 C   0  0  0  1  0  0  0  0  0  0  0  0
   25.8236  -12.4183   -4.0569 H   0  0  0  1  0  0  0  0  0  0  0  0
   25.3747  -11.8256   -2.4758 H   0  0  0  1  0  0  0  0  0  0  0  0
   26.9301  -11.4103   -3.1558 H   0  0  0  1  0  0  0  0  0  0  0  0
   25.6145   -9.0745   -3.3107 C   0  0  0  1  0  0  0  0  0  0  0  0
   24.9837   -8.3035   -3.7012 H   0  0  0  1  0  0  0  0  0  0  0  0
   26.6390   -8.8216   -3.4880 H   0  0  0  1  0  0  0  0  0  0  0  0
   25.3833   -9.1971   -1.8134 C   0  0  0  1  0  0  0  0  0  0  0  0
   26.0841   -9.9019   -1.4172 H   0  0  0  1  0  0  0  0  0  0  0  0
   24.3876   -9.5534   -1.6507 H   0  0  0  1  0  0  0  0  0  0  0  0
   25.5508   -7.8921   -1.0821 C   0  0  0  1  0  0  0  0  0  0  0  0
   24.9361   -7.1093   -1.3839 H   0  0  0  1  0  0  0  0  0  0  0  0
   26.3980   -7.6320   -0.0936 C   0  0  0  1  0  0  0  0  0  0  0  0
   27.0951   -8.7387    0.6515 C   0  0  0  1  0  0  0  0  0  0  0  0
   28.1414   -8.7059    0.4300 H   0  0  0  1  0  0  0  0  0  0  0  0
   26.6931   -9.6797    0.3387 H   0  0  0  1  0  0  0  0  0  0  0  0
   26.7413   -6.2476    0.3729 C   0  0  0  1  0  0  0  0  0  0  0  0
   27.2959   -6.3057    1.2861 H   0  0  0  1  0  0  0  0  0  0  0  0
   25.8409   -5.6934    0.5374 H   0  0  0  1  0  0  0  0  0  0  0  0
   27.3318   -5.7566   -0.3721 H   0  0  0  1  0  0  0  0  0  0  0  0
   26.8982   -8.5862    2.1510 C   0  0  0  1  0  0  0  0  0  0  0  0
   25.8708   -8.7883    2.3712 H   0  0  0  1  0  0  0  0  0  0  0  0
   27.1272   -7.5744    2.4128 H   0  0  0  1  0  0  0  0  0  0  0  0
   27.7426   -9.4895    3.0072 C   0  0  0  1  0  0  0  0  0  0  0  0
   28.5768   -9.9126    2.5525 H   0  0  0  1  0  0  0  0  0  0  0  0
   27.5374   -9.8071    4.2876 C   0  0  0  1  0  0  0  0  0  0  0  0
   26.2154   -9.5397    4.9561 C   0  0  0  1  0  0  0  0  0  0  0  0
   25.5778   -9.0353    4.2604 H   0  0  0  1  0  0  0  0  0  0  0  0
   26.3843   -8.9119    5.8059 H   0  0  0  1  0  0  0  0  0  0  0  0
   28.6124  -10.5433    5.0786 C   0  0  0  1  0  0  0  0  0  0  0  0
   29.5116   -9.9634    5.0847 H   0  0  0  1  0  0  0  0  0  0  0  0
   28.8034  -11.4922    4.6226 H   0  0  0  1  0  0  0  0  0  0  0  0
   28.2768  -10.6912    6.0838 H   0  0  0  1  0  0  0  0  0  0  0  0
   25.5154  -10.8093    5.4228 C   0  0  0  1  0  0  0  0  0  0  0  0
   26.1282  -11.3011    6.1491 H   0  0  0  1  0  0  0  0  0  0  0  0
   25.3666  -11.4566    4.5838 H   0  0  0  1  0  0  0  0  0  0  0  0
   24.2113  -10.4942    6.0260 C   0  0  0  1  0  0  0  0  0  0  0  0
   24.2088  -10.6231    7.0580 H   0  0  0  1  0  0  0  0  0  0  0  0
   23.0368  -10.0837    5.5627 C   0  0  0  1  0  0  0  0  0  0  0  0
   22.8396   -9.7623    4.1083 C   0  0  0  1  0  0  0  0  0  0  0  0
   23.8050   -9.6873    3.6530 H   0  0  0  1  0  0  0  0  0  0  0  0
   22.3399   -8.8184    4.0436 H   0  0  0  1  0  0  0  0  0  0  0  0
   21.8164   -9.9022    6.4170 C   0  0  0  1  0  0  0  0  0  0  0  0
   21.1439  -10.7191    6.2573 H   0  0  0  1  0  0  0  0  0  0  0  0
   21.3314   -8.9850    6.1554 H   0  0  0  1  0  0  0  0  0  0  0  0
   22.1036   -9.8732    7.4473 H   0  0  0  1  0  0  0  0  0  0  0  0
   22.0275  -10.7777    3.3210 C   0  0  0  1  0  0  0  0  0  0  0  0
   21.0494  -10.8384    3.7506 H   0  0  0  1  0  0  0  0  0  0  0  0
   22.5096  -11.7301    3.3944 H   0  0  0  1  0  0  0  0  0  0  0  0
   21.8907  -10.4236    1.8742 C   0  0  0  1  0  0  0  0  0  0  0  0
   22.7737  -10.3489    1.3297 H   0  0  0  1  0  0  0  0  0  0  0  0
   20.7588  -10.1931    1.2063 C   0  0  0  1  0  0  0  0  0  0  0  0
   19.4253  -10.5861    1.7764 C   0  0  0  1  0  0  0  0  0  0  0  0
   19.5896  -11.1315    2.6822 H   0  0  0  1  0  0  0  0  0  0  0  0
   18.9235  -11.2122    1.0686 H   0  0  0  1  0  0  0  0  0  0  0  0
   20.7719   -9.5322   -0.1409 C   0  0  0  1  0  0  0  0  0  0  0  0
   20.0980   -8.7011   -0.1376 H   0  0  0  1  0  0  0  0  0  0  0  0
   20.4659  -10.2362   -0.8863 H   0  0  0  1  0  0  0  0  0  0  0  0
   21.7612   -9.1880   -0.3594 H   0  0  0  1  0  0  0  0  0  0  0  0
   18.5347   -9.3936    2.0845 C   0  0  0  1  0  0  0  0  0  0  0  0
   18.5945   -8.6933    1.2776 H   0  0  0  1  0  0  0  0  0  0  0  0
   18.8715   -8.9280    2.9871 H   0  0  0  1  0  0  0  0  0  0  0  0
   17.1125   -9.8240    2.2558 C   0  0  0  1  0  0  0  0  0  0  0  0
   16.7023  -10.4337    1.5199 H   0  0  0  1  0  0  0  0  0  0  0  0
   16.3147   -9.4771    3.3037 C   0  0  0  1  0  0  0  0  0  0  0  0
   16.8691   -8.6503    4.5083 C   0  0  0  1  0  0  0  0  0  0  0  0
   17.9376   -8.6418    4.4524 H   0  0  0  1  0  0  0  0  0  0  0  0
   16.5627   -9.1250    5.4169 H   0  0  0  1  0  0  0  0  0  0  0  0
   14.8333   -9.8493    3.4099 C   0  0  0  1  0  0  0  0  0  0  0  0
   14.2329   -9.0087    3.1308 H   0  0  0  1  0  0  0  0  0  0  0  0
   14.6076  -10.1297    4.4175 H   0  0  0  1  0  0  0  0  0  0  0  0
   14.6241  -10.6696    2.7555 H   0  0  0  1  0  0  0  0  0  0  0  0
   16.3739   -7.2133    4.5223 C   0  0  0  1  0  0  0  0  0  0  0  0
   15.3058   -7.2328    4.5816 H   0  0  0  1  0  0  0  0  0  0  0  0
   16.6722   -6.7524    3.6038 H   0  0  0  1  0  0  0  0  0  0  0  0
   16.8866   -6.3652    5.6553 C   0  0  0  1  0  0  0  0  0  0  0  0
   17.9068   -6.1631    5.6584 H   0  0  0  1  0  0  0  0  0  0  0  0
   16.1771   -5.8467    6.6520 C   0  0  0  1  0  0  0  0  0  0  0  0
   14.6945   -6.0358    6.8063 C   0  0  0  1  0  0  0  0  0  0  0  0
   14.3366   -6.6119    5.9787 H   0  0  0  1  0  0  0  0  0  0  0  0
   14.2261   -5.0738    6.8010 H   0  0  0  1  0  0  0  0  0  0  0  0
   16.8190   -5.0141    7.7228 C   0  0  0  1  0  0  0  0  0  0  0  0
   16.3897   -4.0340    7.7187 H   0  0  0  1  0  0  0  0  0  0  0  0
   17.8704   -4.9435    7.5371 H   0  0  0  1  0  0  0  0  0  0  0  0
   16.6546   -5.4712    8.6762 H   0  0  0  1  0  0  0  0  0  0  0  0
   14.3162   -6.7509    8.0932 C   0  0  0  1  0  0  0  0  0  0  0  0
   13.2757   -6.9971    8.0528 H   0  0  0  1  0  0  0  0  0  0  0  0
   14.4952   -6.0899    8.9154 H   0  0  0  1  0  0  0  0  0  0  0  0
   15.0998   -8.0166    8.3166 C   0  0  0  1  0  0  0  0  0  0  0  0
   15.1945   -8.6535    7.4999 H   0  0  0  1  0  0  0  0  0  0  0  0
   15.6836   -8.4084    9.4441 C   0  0  0  1  0  0  0  0  0  0  0  0
   16.4520   -9.6953    9.5834 C   0  0  0  1  0  0  0  0  0  0  0  0
   16.0669  -10.2326   10.4248 H   0  0  0  1  0  0  0  0  0  0  0  0
   17.4824   -9.4603    9.7508 H   0  0  0  1  0  0  0  0  0  0  0  0
   15.6185   -7.5774   10.6920 C   0  0  0  1  0  0  0  0  0  0  0  0
   15.2806   -6.6127   10.3758 H   0  0  0  1  0  0  0  0  0  0  0  0
   16.5858   -7.5051   11.1437 H   0  0  0  1  0  0  0  0  0  0  0  0
   14.9293   -8.0046   11.3901 H   0  0  0  1  0  0  0  0  0  0  0  0
   16.3521  -10.5844    8.3546 C   0  0  0  1  0  0  0  0  0  0  0  0
   16.7593  -10.0562    7.5179 H   0  0  0  1  0  0  0  0  0  0  0  0
   15.3198  -10.7997    8.1730 H   0  0  0  1  0  0  0  0  0  0  0  0
   17.0876  -11.8756    8.5053 C   0  0  0  1  0  0  0  0  0  0  0  0
   16.8373  -12.4972    9.3006 H   0  0  0  1  0  0  0  0  0  0  0  0
   18.0460  -12.2691    7.6733 C   0  0  0  1  0  0  0  0  0  0  0  0
   18.4493  -11.5046    6.4461 C   0  0  0  1  0  0  0  0  0  0  0  0
   19.4530  -11.1515    6.5591 H   0  0  0  1  0  0  0  0  0  0  0  0
   17.7912  -10.6714    6.3130 H   0  0  0  1  0  0  0  0  0  0  0  0
   18.3911  -12.1458    5.5916 H   0  0  0  1  0  0  0  0  0  0  0  0
   18.8189  -13.5446    7.9056 C   0  0  0  1  0  0  0  0  0  0  0  0
   18.1067  -14.3383    7.9931 H   0  0  0  1  0  0  0  0  0  0  0  0
   19.3917  -13.4663    8.8060 H   0  0  0  1  0  0  0  0  0  0  0  0
   19.4742  -13.7306    7.0804 H   0  0  0  1  0  0  0  0  0  0  0  0
   16.1418   -5.1035   -1.8371 C   0  0  0  1  0  0  0  0  0  0  0  0
   16.5048   -5.6764   -1.0095 H   0  0  0  1  0  0  0  0  0  0  0  0
   14.8153   -5.6728   -2.2986 C   0  0  0  1  0  0  0  0  0  0  0  0
   14.9528   -6.6807   -2.6306 H   0  0  0  1  0  0  0  0  0  0  0  0
   15.9742   -3.7470   -1.4350 O   0  0  0  1  0  0  0  0  0  0  0  0
   14.2897   -4.8248   -3.4456 C   0  0  0  1  0  0  0  0  0  0  0  0
   13.2808   -5.1164   -3.6502 H   0  0  0  1  0  0  0  0  0  0  0  0
   15.6473   -2.9031   -2.5601 C   0  0  0  1  0  0  0  0  0  0  0  0
   16.4086   -2.9927   -3.3066 H   0  0  0  1  0  0  0  0  0  0  0  0
   14.3110   -3.3356   -3.1435 C   0  0  0  1  0  0  0  0  0  0  0  0
   14.1365   -2.7948   -4.0501 H   0  0  0  1  0  0  0  0  0  0  0  0
   17.0792   -5.1662   -2.9058 O   0  0  0  1  0  0  0  0  0  0  0  0
   13.8812   -5.6499   -1.2178 O   0  0  0  1  0  0  0  0  0  0  0  0
   13.9471   -6.4680   -0.7199 H   0  0  0  1  0  0  0  0  0  0  0  0
   15.0942   -5.0652   -4.5910 O   0  0  0  1  0  0  0  0  0  0  0  0
   15.4499   -5.9560   -4.5515 H   0  0  0  1  0  0  0  0  0  0  0  0
   15.5563   -1.4670   -2.1029 C   0  0  0  1  0  0  0  0  0  0  0  0
   15.5244   -1.4338   -1.0339 H   0  0  0  1  0  0  0  0  0  0  0  0
   14.6677   -1.0222   -2.4999 H   0  0  0  1  0  0  0  0  0  0  0  0
   16.4121   -0.9272   -2.4509 H   0  0  0  1  0  0  0  0  0  0  0  0
   18.9726   -6.2639   -4.8375 C   0  0  0  1  0  0  0  0  0  0  0  0
   18.0234   -5.9340   -5.2049 H   0  0  0  1  0  0  0  0  0  0  0  0
   18.8328   -6.6976   -3.4039 C   0  0  0  1  0  0  0  0  0  0  0  0
   19.7726   -7.0692   -3.0522 H   0  0  0  1  0  0  0  0  0  0  0  0
   19.9045   -5.2026   -4.9178 O   0  0  0  1  0  0  0  0  0  0  0  0
   18.4104   -5.5316   -2.5580 C   0  0  0  1  0  0  0  0  0  0  0  0
   18.4443   -5.8191   -1.5279 H   0  0  0  1  0  0  0  0  0  0  0  0
   19.4194   -4.0269   -4.2451 C   0  0  0  1  0  0  0  0  0  0  0  0
   20.0998   -3.2152   -4.3973 H   0  0  0  1  0  0  0  0  0  0  0  0
   19.3164   -4.3404   -2.7652 C   0  0  0  1  0  0  0  0  0  0  0  0
   18.9137   -3.4936   -2.2497 H   0  0  0  1  0  0  0  0  0  0  0  0
   17.8301   -7.7484   -3.3130 N   0  0  0  1  0  0  0  0  0  0  0  0
   17.0327   -7.6914   -3.8797 H   0  0  0  1  0  0  0  0  0  0  0  0
   20.6115   -4.6365   -2.2533 O   0  0  0  1  0  0  0  0  0  0  0  0
   21.2163   -4.0182   -2.6700 H   0  0  0  1  0  0  0  0  0  0  0  0
   18.0651   -3.6543   -4.7826 C   0  0  0  1  0  0  0  0  0  0  0  0
   17.9841   -2.5875   -4.7996 H   0  0  0  1  0  0  0  0  0  0  0  0
   17.3155   -4.0592   -4.1352 H   0  0  0  1  0  0  0  0  0  0  0  0
   17.8476   -4.1502   -6.1000 O   0  0  0  1  0  0  0  0  0  0  0  0
   17.7964   -3.4010   -6.6982 H   0  0  0  1  0  0  0  0  0  0  0  0
   17.9590   -8.7880   -2.4837 C   0  0  0  1  0  0  0  0  0  0  0  0
   18.9341   -8.9425   -1.7497 O   0  0  0  1  0  0  0  0  0  0  0  0
   16.8174   -9.7859   -2.4961 C   0  0  0  1  0  0  0  0  0  0  0  0
   16.0209   -9.2732   -2.9938 H   0  0  0  1  0  0  0  0  0  0  0  0
   16.5334  -10.0485   -1.4985 H   0  0  0  1  0  0  0  0  0  0  0  0
   17.0928  -10.6693   -3.0334 H   0  0  0  1  0  0  0  0  0  0  0  0
  1  2  1  0  0  0  0
  1  3  1  0  0  0  0
  1  4  1  0  0  0  0
  1 44  1  0  0  0  0
  3 20  1  0  0  0  0
  4  5  1  0  0  0  0
  4  6  1  0  0  0  0
  4  8  1  0  0  0  0
  6  7  1  0  0  0  0
  8  9  1  0  0  0  0
  8 10  1  0  0  0  0
  8 20  1  0  0  0  0
 10 11  1  0  0  0  0
 12 13  1  0  0  0  0
 12 14  1  0  0  0  0
 12 15  1  0  0  0  0
 12 17  1  0  0  0  0
 15 16  1  0  0  0  0
 17 18  1  0  0  0  0
 17 19  1  0  0  0  0
 17 20  1  0  0  0  0
 19 22  1  0  0  0  0
 20 21  1  0  0  0  0
 22 23  1  0  0  0  0
 22 24  1  0  0  0  0
 22 25  1  0  0  0  0
 24 42  1  0  0  0  0
 25 26  1  0  0  0  0
 25 27  1  0  0  0  0
 25 29  1  0  0  0  0
 27 28  1  0  0  0  0
 29 30  1  0  0  0  0
 29 31  1  0  0  0  0
 29 42  1  0  0  0  0
 31 32  1  0  0  0  0
 33 34  1  0  0  0  0
 33 35  1  0  0  0  0
 33 36  1  0  0  0  0
 33 38  1  0  0  0  0
 36 37  1  0  0  0  0
 38 39  1  0  0  0  0
 38 40  1  0  0  0  0
 38 42  1  0  0  0  0
 40 41  1  0  0  0  0
 42 43  1  0  0  0  0
 44194  1  0  0  0  0
 45 46  1  0  0  0  0
 45 54  1  0  0  0  0
 46 47  1  0  0  0  0
 46 48  1  0  0  0  0
 46 49  2  0  0  0  0
 47 50  1  0  0  0  0
 50 51  1  0  0  0  0
 50 52  1  0  0  0  0
 50 53  2  0  0  0  0
 51205  1  0  0  0  0
 54 55  1  0  0  0  0
 54 56  1  0  0  0  0
 54 57  1  0  0  0  0
 57 58  1  0  0  0  0
 57 59  2  0  0  0  0
 59 60  1  0  0  0  0
 59 64  1  0  0  0  0
 60 61  1  0  0  0  0
 60 62  1  0  0  0  0
 60 63  1  0  0  0  0
 64 65  1  0  0  0  0
 64 66  1  0  0  0  0
 64 67  1  0  0  0  0
 67 68  1  0  0  0  0
 67 69  1  0  0  0  0
 67 70  1  0  0  0  0
 70 71  1  0  0  0  0
 70 72  2  0  0  0  0
 72 73  1  0  0  0  0
 72 77  1  0  0  0  0
 73 74  1  0  0  0  0
 73 75  1  0  0  0  0
 73 76  1  0  0  0  0
 77 78  1  0  0  0  0
 77 79  1  0  0  0  0
 77 80  1  0  0  0  0
 80 81  1  0  0  0  0
 80 82  1  0  0  0  0
 80 83  1  0  0  0  0
 83 84  1  0  0  0  0
 83 85  2  0  0  0  0
 85 86  1  0  0  0  0
 85 89  1  0  0  0  0
 86 87  1  0  0  0  0
 86 88  1  0  0  0  0
 86 93  1  0  0  0  0
 89 90  1  0  0  0  0
 89 91  1  0  0  0  0
 89 92  1  0  0  0  0
 93 94  1  0  0  0  0
 93 95  1  0  0  0  0
 93 96  1  0  0  0  0
 96 97  1  0  0  0  0
 96 98  2  0  0  0  0
 98 99  1  0  0  0  0
 98102  1  0  0  0  0
 99100  1  0  0  0  0
 99101  1  0  0  0  0
 99106  1  0  0  0  0
102103  1  0  0  0  0
102104  1  0  0  0  0
102105  1  0  0  0  0
106107  1  0  0  0  0
106108  1  0  0  0  0
106109  1  0  0  0  0
109110  1  0  0  0  0
109111  2  0  0  0  0
111112  1  0  0  0  0
111115  1  0  0  0  0
112113  1  0  0  0  0
112114  1  0  0  0  0
112119  1  0  0  0  0
115116  1  0  0  0  0
115117  1  0  0  0  0
115118  1  0  0  0  0
119120  1  0  0  0  0
119121  1  0  0  0  0
119122  1  0  0  0  0
122123  1  0  0  0  0
122124  2  0  0  0  0
124125  1  0  0  0  0
124128  1  0  0  0  0
125126  1  0  0  0  0
125127  1  0  0  0  0
125132  1  0  0  0  0
128129  1  0  0  0  0
128130  1  0  0  0  0
128131  1  0  0  0  0
132133  1  0  0  0  0
132134  1  0  0  0  0
132135  1  0  0  0  0
135136  1  0  0  0  0
135137  2  0  0  0  0
137138  1  0  0  0  0
137141  1  0  0  0  0
138139  1  0  0  0  0
138140  1  0  0  0  0
138145  1  0  0  0  0
141142  1  0  0  0  0
141143  1  0  0  0  0
141144  1  0  0  0  0
145146  1  0  0  0  0
145147  1  0  0  0  0
145148  1  0  0  0  0
148149  1  0  0  0  0
148150  2  0  0  0  0
150151  1  0  0  0  0
150154  1  0  0  0  0
151152  1  0  0  0  0
151153  1  0  0  0  0
151158  1  0  0  0  0
154155  1  0  0  0  0
154156  1  0  0  0  0
154157  1  0  0  0  0
158159  1  0  0  0  0
158160  1  0  0  0  0
158161  1  0  0  0  0
161162  1  0  0  0  0
161163  2  0  0  0  0
163164  1  0  0  0  0
163167  1  0  0  0  0
164165  1  0  0  0  0
164166  1  0  0  0  0
164171  1  0  0  0  0
167168  1  0  0  0  0
167169  1  0  0  0  0
167170  1  0  0  0  0
171172  1  0  0  0  0
171173  1  0  0  0  0
171174  1  0  0  0  0
174175  1  0  0  0  0
174176  2  0  0  0  0
176177  1  0  0  0  0
176181  1  0  0  0  0
177178  1  0  0  0  0
177179  1  0  0  0  0
177180  1  0  0  0  0
181182  1  0  0  0  0
181183  1  0  0  0  0
181184  1  0  0  0  0
185186  1  0  0  0  0
185187  1  0  0  0  0
185189  1  0  0  0  0
185196  1  0  0  0  0
187188  1  0  0  0  0
187190  1  0  0  0  0
187197  1  0  0  0  0
189192  1  0  0  0  0
190191  1  0  0  0  0
190194  1  0  0  0  0
190199  1  0  0  0  0
192193  1  0  0  0  0
192194  1  0  0  0  0
192201  1  0  0  0  0
194195  1  0  0  0  0
196210  1  0  0  0  0
197198  1  0  0  0  0
199200  1  0  0  0  0
201202  1  0  0  0  0
201203  1  0  0  0  0
201204  1  0  0  0  0
205206  1  0  0  0  0
205207  1  0  0  0  0
205209  1  0  0  0  0
207208  1  0  0  0  0
207210  1  0  0  0  0
207216  1  0  0  0  0
209212  1  0  0  0  0
210211  1  0  0  0  0
210214  1  0  0  0  0
212213  1  0  0  0  0
212214  1  0  0  0  0
212220  1  0  0  0  0
214215  1  0  0  0  0
214218  1  0  0  0  0
216217  1  0  0  0  0
216225  1  0  0  0  0
218219  1  0  0  0  0
220221  1  0  0  0  0
220222  1  0  0  0  0
220223  1  0  0  0  0
223224  1  0  0  0  0
225226  2  0  0  0  0
225227  1  0  0  0  0
227228  1  0  0  0  0
227229  1  0  0  0  0
227230  1  0  0  0  0
M  BCL ATM C_TeTeTeTe H_S O_Te2Te2TeTe C_TeTeTeTe H_S O_Te2Te2TeTe H_S C_TeTeTeTe H_S O_Te2Te2TeTe H_S C_TeTeTeTe H_S H_S O_Te2Te2TeTe H_S C_TeTeTeTe H_S O_Te2Te2TeTe C_TeTeTeTe H_S C_TeTeTeTe H_S O_Te2Te2TeTe C_TeTeTeTe H_S O_Te2Te2TeTe H_S C_TeTeTeTe H_S O_Te2Te2TeTe H_S C_TeTeTeTe H_S H_S O_Te2Te2TeTe H_S C_TeTeTeTe H_S O_Te2Te2TeTe H_S C_TeTeTeTe H_S O_Te2Te2TeTe O_Tr2TrTrPi2 P_TeTeTeTePi O_Tr2TrTrPi2 O_Te2Te2TeTe O_Tr2Tr2TrPi P_TeTeTeTePi O_Tr2TrTrPi2 O_Te2Te2TeTe O_Tr2Tr2TrPi C_TeTeTeTe H_S H_S C_TrTrTrPi H_S C_TrTrTrPi C_TeTeTeTe H_S H_S H_S C_TeTeTeTe H_S H_S C_TeTeTeTe H_S H_S C_TrTrTrPi H_S C_TrTrTrPi C_TeTeTeTe H_S H_S H_S C_TeTeTeTe H_S H_S C_TeTeTeTe H_S H_S C_TrTrTrPi H_S C_TrTrTrPi C_TeTeTeTe H_S H_S C_TeTeTeTe H_S H_S H_S C_TeTeTeTe H_S H_S C_TrTrTrPi H_S C_TrTrTrPi C_TeTeTeTe H_S H_S C_TeTeTeTe H_S H_S H_S C_TeTeTeTe H_S H_S C_TrTrTrPi H_S C_TrTrTrPi C_TeTeTeTe H_S H_S C_TeTeTeTe H_S H_S H_S C_TeTeTeTe H_S H_S C_TrTrTrPi H_S C_TrTrTrPi C_TeTeTeTe H_S H_S C_TeTeTeTe H_S H_S H_S C_TeTeTeTe H_S H_S C_TrTrTrPi H_S C_TrTrTrPi C_TeTeTeTe H_S H_S C_TeTeTeTe H_S H_S H_S C_TeTeTeTe H_S H_S C_TrTrTrPi H_S C_TrTrTrPi C_TeTeTeTe H_S H_S C_TeTeTeTe H_S H_S H_S C_TeTeTeTe H_S H_S C_TrTrTrPi H_S C_TrTrTrPi C_TeTeTeTe H_S H_S C_TeTeTeTe H_S H_S H_S C_TeTeTeTe H_S H_S C_TrTrTrPi H_S C_TrTrTrPi C_TeTeTeTe H_S H_S H_S C_TeTeTeTe H_S H_S H_S C_TeTeTeTe H_S C_TeTeTeTe H_S O_Te2Te2TeTe C_TeTeTeTe H_S C_TeTeTeTe H_S C_TeTeTeTe H_S O_Te2Te2TeTe O_Te2Te2TeTe H_S O_Te2Te2TeTe H_S C_TeTeTeTe H_S H_S H_S C_TeTeTeTe H_S C_TeTeTeTe H_S O_Te2Te2TeTe C_TeTeTeTe H_S C_TeTeTeTe H_S C_TeTeTeTe H_S N_TrTrTrPi2 H_S O_Te2Te2TeTe H_S C_TeTeTeTe H_S H_S O_Te2Te2TeTe H_S C_TrTrTrPi O_Tr2Tr2TrPi C_TeTeTeTe H_S H_S H_S
M  BCL BND NonConjugatedSingleBond NonConjugatedSingleBondInRing NonConjugatedSingleBondInRing NonConjugatedSingleBond NonConjugatedSingleBondInRing NonConjugatedSingleBond NonConjugatedSingleBond NonConjugatedSingleBondInRing NonConjugatedSingleBond NonConjugatedSingleBond NonConjugatedSingleBond NonConjugatedSingleBondInRing NonConjugatedSingleBond NonConjugatedSingleBond NonConjugatedSingleBond NonConjugatedSingleBond NonConjugatedSingleBond NonConjugatedSingleBond NonConjugatedSingleBond NonConjugatedSingleBond NonConjugatedSingleBond NonConjugatedSingleBond NonConjugatedSingleBond NonConjugatedSingleBond NonConjugatedSingleBondInRing NonConjugatedSingleBondInRing NonConjugatedSingleBondInRing NonConjugatedSingleBond NonConjugatedSingleBond NonConjugatedSingleBondInRing NonConjugatedSingleBond NonConjugatedSingleBond NonConjugatedSingleBond NonConjugatedSingleBondInRing NonConjugatedSingleBond NonConjugatedSingleBond NonConjugatedSingleBond NonConjugatedSingleBond NonConjugatedSingleBond NonConjugatedSingleBond NonConjugatedSingleBond NonConjugatedSingleBond NonConjugatedSingleBond NonConjugatedSingleBond NonConjugatedSingleBond NonConjugatedSingleBond ConjugatedSingleBond NonConjugatedSingleBond ConjugatedSingleBond ConjugatedSingleBond ConjugatedDoubleBond ConjugatedSingleBond ConjugatedSingleBond ConjugatedSingleBond ConjugatedDoubleBond NonConjugatedSingleBond NonConjugatedSingleBond NonConjugatedSingleBond NonConjugatedSingleBond NonConjugatedSingleBond ConjugatedDoubleBond NonConjugatedSingleBond NonConjugatedSingleBond NonConjugatedSingleBond NonConjugatedSingleBond NonConjugatedSingleBond NonConjugatedSingleBond NonConjugatedSingleBond NonConjugatedSingleBond NonConjugatedSingleBond NonConjugatedSingleBond NonConjugatedSingleBond NonConjugatedSingleBond ConjugatedDoubleBond NonConjugatedSingleBond NonConjugatedSingleBond NonConjugatedSingleBond NonConjugatedSingleBond NonConjugatedSingleBond NonConjugatedSingleBond NonConjugatedSingleBond NonConjugatedSingleBond NonConjugatedSingleBond NonConjugatedSingleBond NonConjugatedSingleBond NonConjugatedSingleBond ConjugatedDoubleBond NonConjugatedSingleBond NonConjugatedSingleBond NonConjugatedSingleBond NonConjugatedSingleBond NonConjugatedSingleBond NonConjugatedSingleBond NonConjugatedSingleBond NonConjugatedSingleBond NonConjugatedSingleBond NonConjugatedSingleBond NonConjugatedSingleBond NonConjugatedSingleBond ConjugatedDoubleBond NonConjugatedSingleBond NonConjugatedSingleBond NonConjugatedSingleBond NonConjugatedSingleBond NonConjugatedSingleBond NonConjugatedSingleBond NonConjugatedSingleBond NonConjugatedSingleBond NonConjugatedSingleBond NonConjugatedSingleBond NonConjugatedSingleBond NonConjugatedSingleBond ConjugatedDoubleBond NonConjugatedSingleBond NonConjugatedSingleBond NonConjugatedSingleBond NonConjugatedSingleBond NonConjugatedSingleBond NonConjugatedSingleBond NonConjugatedSingleBond NonConjugatedSingleBond NonConjugatedSingleBond NonConjugatedSingleBond NonConjugatedSingleBond NonConjugatedSingleBond ConjugatedDoubleBond NonConjugatedSingleBond NonConjugatedSingleBond NonConjugatedSingleBond NonConjugatedSingleBond NonConjugatedSingleBond NonConjugatedSingleBond NonConjugatedSingleBond NonConjugatedSingleBond NonConjugatedSingleBond NonConjugatedSingleBond NonConjugatedSingleBond NonConjugatedSingleBond ConjugatedDoubleBond NonConjugatedSingleBond NonConjugatedSingleBond NonConjugatedSingleBond NonConjugatedSingleBond NonConjugatedSingleBond NonConjugatedSingleBond NonConjugatedSingleBond NonConjugatedSingleBond NonConjugatedSingleBond NonConjugatedSingleBond NonConjugatedSingleBond NonConjugatedSingleBond ConjugatedDoubleBond NonConjugatedSingleBond NonConjugatedSingleBond NonConjugatedSingleBond NonConjugatedSingleBond NonConjugatedSingleBond NonConjugatedSingleBond NonConjugatedSingleBond NonConjugatedSingleBond NonConjugatedSingleBond NonConjugatedSingleBond NonConjugatedSingleBond NonConjugatedSingleBond ConjugatedDoubleBond NonConjugatedSingleBond NonConjugatedSingleBond NonConjugatedSingleBond NonConjugatedSingleBond NonConjugatedSingleBond NonConjugatedSingleBond NonConjugatedSingleBond NonConjugatedSingleBond NonConjugatedSingleBond NonConjugatedSingleBond NonConjugatedSingleBond NonConjugatedSingleBond ConjugatedDoubleBond NonConjugatedSingleBond NonConjugatedSingleBond NonConjugatedSingleBond NonConjugatedSingleBond NonConjugatedSingleBond NonConjugatedSingleBond NonConjugatedSingleBond NonConjugatedSingleBond NonConjugatedSingleBond NonConjugatedSingleBondInRing NonConjugatedSingleBondInRing NonConjugatedSingleBond NonConjugatedSingleBond NonConjugatedSingleBondInRing NonConjugatedSingleBond NonConjugatedSingleBondInRing NonConjugatedSingleBond NonConjugatedSingleBondInRing NonConjugatedSingleBond NonConjugatedSingleBond NonConjugatedSingleBondInRing NonConjugatedSingleBond NonConjugatedSingleBond NonConjugatedSingleBond NonConjugatedSingleBond NonConjugatedSingleBond NonConjugatedSingleBond NonConjugatedSingleBond NonConjugatedSingleBond NonConjugatedSingleBond NonConjugatedSingleBondInRing NonConjugatedSingleBondInRing NonConjugatedSingleBond NonConjugatedSingleBondInRing NonConjugatedSingleBond NonConjugatedSingleBondInRing NonConjugatedSingleBond NonConjugatedSingleBondInRing NonConjugatedSingleBond NonConjugatedSingleBondInRing NonConjugatedSingleBond NonConjugatedSingleBond NonConjugatedSingleBond NonConjugatedSingleBond AmideSingleBond NonConjugatedSingleBond NonConjugatedSingleBond NonConjugatedSingleBond NonConjugatedSingleBond NonConjugatedSingleBond ConjugatedDoubleBond NonConjugatedSingleBond NonConjugatedSingleBond NonConjugatedSingleBond NonConjugatedSingleBond
M  BCL CHI   1   R   4   R   8   R  17   S  20   R  22   S  25   R  29   S  38   S  42   R  46   R  50   S 185   R 187   S 190   S 192   R 194   R 205   R 207   S 210   R 212   S 214   S
M  BCL DBI - - E E E E E E E E Z - -
M  END
> <ConfClashScore>
0.00400387 

> <ConfOneFourInteractionScore>
-0.968268 

> <ConfScore>
0.492233 

> <ConfScorePBest>
0.0126265 

> <ConfTolerance>
3.00769 

$$$$
L05.****
  PyMOL2.5          3D                             0

230233  0  0  0  0  0  0  0  0999 V2000
   11.9310   -3.7852   -2.5295 C   0  0  0  1  0  0  0  0  0  0  0  0
   11.2031   -3.3474   -1.8788 H   0  0  0  1  0  0  0  0  0  0  0  0
   11.8750   -5.1805   -2.4531 O   0  0  0  1  0  0  0  0  0  0  0  0
   11.6219   -3.4307   -3.9927 C   0  0  0  1  0  0  0  0  0  0  0  0
   12.5080   -3.4574   -4.5919 H   0  0  0  1  0  0  0  0  0  0  0  0
   11.0167   -2.1409   -4.0937 O   0  0  0  1  0  0  0  0  0  0  0  0
   11.6673   -1.5048   -4.3999 H   0  0  0  1  0  0  0  0  0  0  0  0
   10.6512   -4.5249   -4.4008 C   0  0  0  1  0  0  0  0  0  0  0  0
    9.6427   -4.2504   -4.1718 H   0  0  0  1  0  0  0  0  0  0  0  0
   10.7612   -4.8164   -5.7952 O   0  0  0  1  0  0  0  0  0  0  0  0
   11.4595   -5.4604   -5.9338 H   0  0  0  1  0  0  0  0  0  0  0  0
    9.1384   -5.7002   -1.9513 C   0  0  0  1  0  0  0  0  0  0  0  0
    9.7542   -5.5540   -1.0885 H   0  0  0  1  0  0  0  0  0  0  0  0
    8.8439   -4.7499   -2.3451 H   0  0  0  1  0  0  0  0  0  0  0  0
    7.9878   -6.4589   -1.6033 O   0  0  0  1  0  0  0  0  0  0  0  0
    7.7508   -7.0350   -2.3337 H   0  0  0  1  0  0  0  0  0  0  0  0
    9.9020   -6.4862   -3.0075 C   0  0  0  1  0  0  0  0  0  0  0  0
    9.2372   -6.6551   -3.8287 H   0  0  0  1  0  0  0  0  0  0  0  0
   10.2877   -7.7433   -2.4614 O   0  0  0  1  0  0  0  0  0  0  0  0
   11.1103   -5.7287   -3.5415 C   0  0  0  1  0  0  0  0  0  0  0  0
   11.7172   -6.3896   -4.1244 H   0  0  0  1  0  0  0  0  0  0  0  0
    9.7038   -8.8447   -3.1087 C   0  0  0  1  0  0  0  0  0  0  0  0
    9.8404   -9.7229   -2.5127 H   0  0  0  1  0  0  0  0  0  0  0  0
    8.3421   -8.6147   -3.3492 O   0  0  0  1  0  0  0  0  0  0  0  0
   10.3081   -9.0370   -4.5072 C   0  0  0  1  0  0  0  0  0  0  0  0
   11.1811   -9.6545   -4.4686 H   0  0  0  1  0  0  0  0  0  0  0  0
   10.6383   -7.7813   -5.1026 O   0  0  0  1  0  0  0  0  0  0  0  0
   10.4292   -7.8059   -6.0392 H   0  0  0  1  0  0  0  0  0  0  0  0
    9.1941   -9.7179   -5.2581 C   0  0  0  1  0  0  0  0  0  0  0  0
    9.2162  -10.7761   -5.1011 H   0  0  0  1  0  0  0  0  0  0  0  0
    9.2758   -9.4415   -6.6580 O   0  0  0  1  0  0  0  0  0  0  0  0
    8.4267   -9.6182   -7.0696 H   0  0  0  1  0  0  0  0  0  0  0  0
    5.9631  -10.2485   -5.7435 C   0  0  0  1  0  0  0  0  0  0  0  0
    6.5725  -10.5300   -6.5767 H   0  0  0  1  0  0  0  0  0  0  0  0
    5.2235  -11.0023   -5.5711 H   0  0  0  1  0  0  0  0  0  0  0  0
    5.3061   -9.0274   -6.0514 O   0  0  0  1  0  0  0  0  0  0  0  0
    5.0139   -8.6071   -5.2392 H   0  0  0  1  0  0  0  0  0  0  0  0
    6.8448  -10.1384   -4.5092 C   0  0  0  1  0  0  0  0  0  0  0  0
    7.3046  -11.0893   -4.3377 H   0  0  0  1  0  0  0  0  0  0  0  0
    6.0760   -9.7656   -3.3686 O   0  0  0  1  0  0  0  0  0  0  0  0
    5.4920   -9.0394   -3.5993 H   0  0  0  1  0  0  0  0  0  0  0  0
    7.9331   -9.0983   -4.6485 C   0  0  0  1  0  0  0  0  0  0  0  0
    7.5801   -8.2910   -5.2556 H   0  0  0  1  0  0  0  0  0  0  0  0
   13.2279   -3.3217   -2.1715 O   0  0  0  1  0  0  0  0  0  0  0  0
   17.6137  -11.5058   -0.4512 O   0  0  0  1  0  0  0  0  0  0  0  0
   18.5043  -10.4131    0.2082 P   0  0  0  1  0  0  0  0  0  0  0  0
   19.7272  -10.0890   -0.7770 O   0  0  0  1  0  0  0  0  0  0  0  0
   19.1605  -10.9753    1.4728 O   0  0  0  0  0  0  0  0  0  0  0  0
   17.6539   -9.2382    0.4586 O   0  0  0  1  0  0  0  0  0  0  0  0
   19.7297   -9.5986   -2.3082 P   0  0  0  1  0  0  0  0  0  0  0  0
   20.1585   -8.0926   -2.0819 O   0  0  0  1  0  0  0  0  0  0  0  0
   18.3055   -9.6461   -2.7073 O   0  0  0  0  0  0  0  0  0  0  0  0
   20.7444  -10.3273   -3.0904 O   0  0  0  1  0  0  0  0  0  0  0  0
   17.8944  -12.9143   -0.4557 C   0  0  0  1  0  0  0  0  0  0  0  0
   17.9309  -13.2938    0.5441 H   0  0  0  1  0  0  0  0  0  0  0  0
   18.8247  -13.1110   -0.9465 H   0  0  0  1  0  0  0  0  0  0  0  0
   16.7568  -13.5326   -1.2137 C   0  0  0  1  0  0  0  0  0  0  0  0
   16.2367  -12.9420   -1.8936 H   0  0  0  1  0  0  0  0  0  0  0  0
   16.3832  -14.7907   -1.0600 C   0  0  0  1  0  0  0  0  0  0  0  0
   15.0752  -15.3364   -1.5512 C   0  0  0  1  0  0  0  0  0  0  0  0
   14.5277  -15.7466   -0.7285 H   0  0  0  1  0  0  0  0  0  0  0  0
   15.2581  -16.1029   -2.2751 H   0  0  0  1  0  0  0  0  0  0  0  0
   14.5067  -14.5491   -2.0005 H   0  0  0  1  0  0  0  0  0  0  0  0
   17.2601  -15.7910   -0.3662 C   0  0  0  1  0  0  0  0  0  0  0  0
   18.1974  -15.3254   -0.1432 H   0  0  0  1  0  0  0  0  0  0  0  0
   17.4203  -16.6185   -1.0252 H   0  0  0  1  0  0  0  0  0  0  0  0
   16.6590  -16.3129    0.9287 C   0  0  0  1  0  0  0  0  0  0  0  0
   17.3238  -17.0416    1.3434 H   0  0  0  1  0  0  0  0  0  0  0  0
   15.7187  -16.7728    0.7066 H   0  0  0  1  0  0  0  0  0  0  0  0
   16.4391  -15.2569    1.9287 C   0  0  0  1  0  0  0  0  0  0  0  0
   15.8568  -14.4770    1.5622 H   0  0  0  1  0  0  0  0  0  0  0  0
   16.8095  -15.0652    3.1903 C   0  0  0  1  0  0  0  0  0  0  0  0
   16.7149  -13.7428    3.8944 C   0  0  0  1  0  0  0  0  0  0  0  0
   15.8295  -13.7204    4.4948 H   0  0  0  1  0  0  0  0  0  0  0  0
   16.6747  -12.9557    3.1706 H   0  0  0  1  0  0  0  0  0  0  0  0
   17.5730  -13.6096    4.5195 H   0  0  0  1  0  0  0  0  0  0  0  0
   17.3631  -16.1826    4.0244 C   0  0  0  1  0  0  0  0  0  0  0  0
   17.9880  -15.7725    4.7900 H   0  0  0  1  0  0  0  0  0  0  0  0
   17.9413  -16.8324    3.4012 H   0  0  0  1  0  0  0  0  0  0  0  0
   16.2414  -16.9796    4.6703 C   0  0  0  1  0  0  0  0  0  0  0  0
   16.6592  -17.8617    5.1088 H   0  0  0  1  0  0  0  0  0  0  0  0
   15.5394  -17.2560    3.9116 H   0  0  0  1  0  0  0  0  0  0  0  0
   15.5175  -16.2164    5.7336 C   0  0  0  1  0  0  0  0  0  0  0  0
   16.1075  -15.9840    6.5579 H   0  0  0  1  0  0  0  0  0  0  0  0
   14.2669  -15.7777    5.8297 C   0  0  0  1  0  0  0  0  0  0  0  0
   13.3210  -15.6966    4.6669 C   0  0  0  1  0  0  0  0  0  0  0  0
   13.8780  -15.7671    3.7560 H   0  0  0  1  0  0  0  0  0  0  0  0
   12.8054  -14.7596    4.6988 H   0  0  0  1  0  0  0  0  0  0  0  0
   13.6929  -15.3192    7.1407 C   0  0  0  1  0  0  0  0  0  0  0  0
   13.9903  -14.3083    7.3268 H   0  0  0  1  0  0  0  0  0  0  0  0
   14.0548  -15.9476    7.9275 H   0  0  0  1  0  0  0  0  0  0  0  0
   12.6251  -15.3751    7.1013 H   0  0  0  1  0  0  0  0  0  0  0  0
   12.3054  -16.8263    4.7186 C   0  0  0  1  0  0  0  0  0  0  0  0
   12.8215  -17.7575    4.8258 H   0  0  0  1  0  0  0  0  0  0  0  0
   11.7416  -16.8331    3.8092 H   0  0  0  1  0  0  0  0  0  0  0  0
   11.3557  -16.6444    5.8928 C   0  0  0  1  0  0  0  0  0  0  0  0
   10.7270  -15.8161    5.8795 H   0  0  0  1  0  0  0  0  0  0  0  0
   11.2695  -17.4643    6.9335 C   0  0  0  1  0  0  0  0  0  0  0  0
   11.8771  -18.8381    6.8983 C   0  0  0  1  0  0  0  0  0  0  0  0
   12.6449  -18.8786    7.6424 H   0  0  0  1  0  0  0  0  0  0  0  0
   12.3096  -18.9830    5.9305 H   0  0  0  1  0  0  0  0  0  0  0  0
   10.5765  -17.1169    8.2185 C   0  0  0  1  0  0  0  0  0  0  0  0
    9.7039  -16.5347    8.0076 H   0  0  0  1  0  0  0  0  0  0  0  0
   11.2400  -16.5526    8.8400 H   0  0  0  1  0  0  0  0  0  0  0  0
   10.2915  -18.0159    8.7240 H   0  0  0  1  0  0  0  0  0  0  0  0
   10.9124  -19.9839    7.1571 C   0  0  0  1  0  0  0  0  0  0  0  0
   10.1847  -20.0002    6.3729 H   0  0  0  1  0  0  0  0  0  0  0  0
   10.4243  -19.8132    8.0939 H   0  0  0  1  0  0  0  0  0  0  0  0
   11.5842  -21.3117    7.2079 C   0  0  0  1  0  0  0  0  0  0  0  0
   11.8356  -21.7215    8.1301 H   0  0  0  1  0  0  0  0  0  0  0  0
   11.8687  -21.9830    6.0970 C   0  0  0  1  0  0  0  0  0  0  0  0
   11.5257  -21.4329    4.7431 C   0  0  0  1  0  0  0  0  0  0  0  0
   11.8539  -20.4151    4.7075 H   0  0  0  1  0  0  0  0  0  0  0  0
   10.4622  -21.4693    4.6317 H   0  0  0  1  0  0  0  0  0  0  0  0
   12.5442  -23.3253    6.0777 C   0  0  0  1  0  0  0  0  0  0  0  0
   11.8392  -24.0758    5.7871 H   0  0  0  1  0  0  0  0  0  0  0  0
   12.9207  -23.5489    7.0540 H   0  0  0  1  0  0  0  0  0  0  0  0
   13.3538  -23.3068    5.3783 H   0  0  0  1  0  0  0  0  0  0  0  0
   12.1459  -22.1669    3.5654 C   0  0  0  1  0  0  0  0  0  0  0  0
   11.6802  -23.1264    3.4786 H   0  0  0  1  0  0  0  0  0  0  0  0
   13.1914  -22.2932    3.7551 H   0  0  0  1  0  0  0  0  0  0  0  0
   11.9818  -21.4390    2.2690 C   0  0  0  1  0  0  0  0  0  0  0  0
   11.0194  -21.3514    1.8848 H   0  0  0  1  0  0  0  0  0  0  0  0
   12.9732  -20.8965    1.5723 C   0  0  0  1  0  0  0  0  0  0  0  0
   14.3696  -20.8290    2.1228 C   0  0  0  1  0  0  0  0  0  0  0  0
   14.3687  -21.2506    3.1063 H   0  0  0  1  0  0  0  0  0  0  0  0
   14.6660  -19.8022    2.1746 H   0  0  0  1  0  0  0  0  0  0  0  0
   12.8100  -20.3098    0.2007 C   0  0  0  1  0  0  0  0  0  0  0  0
   11.7998  -19.9820    0.0703 H   0  0  0  1  0  0  0  0  0  0  0  0
   13.0415  -21.0521   -0.5343 H   0  0  0  1  0  0  0  0  0  0  0  0
   13.4723  -19.4770    0.0882 H   0  0  0  1  0  0  0  0  0  0  0  0
   15.3811  -21.5824    1.2745 C   0  0  0  1  0  0  0  0  0  0  0  0
   14.8711  -22.0673    0.4684 H   0  0  0  1  0  0  0  0  0  0  0  0
   15.8701  -22.3161    1.8806 H   0  0  0  1  0  0  0  0  0  0  0  0
   16.4114  -20.6415    0.7115 C   0  0  0  1  0  0  0  0  0  0  0  0
   16.9191  -19.9580    1.3087 H   0  0  0  1  0  0  0  0  0  0  0  0
   16.6352  -20.7376   -0.6076 C   0  0  0  1  0  0  0  0  0  0  0  0
   15.9976  -21.7723   -1.4958 C   0  0  0  1  0  0  0  0  0  0  0  0
   14.9352  -21.7075   -1.3858 H   0  0  0  1  0  0  0  0  0  0  0  0
   16.3305  -22.7403   -1.1844 H   0  0  0  1  0  0  0  0  0  0  0  0
   17.5505  -19.8271   -1.3726 C   0  0  0  1  0  0  0  0  0  0  0  0
   16.9775  -19.2388   -2.0585 H   0  0  0  1  0  0  0  0  0  0  0  0
   18.2640  -20.4122   -1.9145 H   0  0  0  1  0  0  0  0  0  0  0  0
   18.0627  -19.1813   -0.6904 H   0  0  0  1  0  0  0  0  0  0  0  0
   16.3438  -21.5909   -2.9647 C   0  0  0  1  0  0  0  0  0  0  0  0
   17.3781  -21.3273   -3.0408 H   0  0  0  1  0  0  0  0  0  0  0  0
   15.7433  -20.7989   -3.3609 H   0  0  0  1  0  0  0  0  0  0  0  0
   16.1052  -22.8224   -3.7793 C   0  0  0  1  0  0  0  0  0  0  0  0
   16.5999  -23.6916   -3.4939 H   0  0  0  1  0  0  0  0  0  0  0  0
   15.3071  -22.8890   -4.8420 C   0  0  0  1  0  0  0  0  0  0  0  0
   14.2927  -21.8335   -5.1804 C   0  0  0  1  0  0  0  0  0  0  0  0
   13.6574  -22.2079   -5.9557 H   0  0  0  1  0  0  0  0  0  0  0  0
   14.8093  -20.9644   -5.5305 H   0  0  0  1  0  0  0  0  0  0  0  0
   15.3206  -24.1098   -5.7146 C   0  0  0  1  0  0  0  0  0  0  0  0
   15.6704  -23.8471   -6.6911 H   0  0  0  1  0  0  0  0  0  0  0  0
   14.3299  -24.5077   -5.7861 H   0  0  0  1  0  0  0  0  0  0  0  0
   15.9709  -24.8451   -5.2888 H   0  0  0  1  0  0  0  0  0  0  0  0
   13.4275  -21.4374   -3.9951 C   0  0  0  1  0  0  0  0  0  0  0  0
   14.0396  -20.8924   -3.3072 H   0  0  0  1  0  0  0  0  0  0  0  0
   13.0768  -22.3340   -3.5282 H   0  0  0  1  0  0  0  0  0  0  0  0
   12.2302  -20.5871   -4.3257 C   0  0  0  1  0  0  0  0  0  0  0  0
   12.2866  -19.9847   -5.1717 H   0  0  0  1  0  0  0  0  0  0  0  0
   11.1067  -20.5487   -3.6174 C   0  0  0  1  0  0  0  0  0  0  0  0
    9.8207  -19.9554   -4.1238 C   0  0  0  1  0  0  0  0  0  0  0  0
   10.0617  -19.0814   -4.6921 H   0  0  0  1  0  0  0  0  0  0  0  0
    9.2287  -19.6787   -3.2766 H   0  0  0  1  0  0  0  0  0  0  0  0
   11.0358  -21.1076   -2.2265 C   0  0  0  1  0  0  0  0  0  0  0  0
   11.6747  -21.9659   -2.2303 H   0  0  0  1  0  0  0  0  0  0  0  0
   10.0317  -21.3901   -1.9879 H   0  0  0  1  0  0  0  0  0  0  0  0
   11.3824  -20.3867   -1.5158 H   0  0  0  1  0  0  0  0  0  0  0  0
    8.9830  -20.8699   -5.0027 C   0  0  0  1  0  0  0  0  0  0  0  0
    8.9756  -21.8474   -4.5676 H   0  0  0  1  0  0  0  0  0  0  0  0
    9.4316  -20.9143   -5.9731 H   0  0  0  1  0  0  0  0  0  0  0  0
    7.5603  -20.4017   -5.1535 C   0  0  0  1  0  0  0  0  0  0  0  0
    6.9120  -20.5680   -4.3575 H   0  0  0  1  0  0  0  0  0  0  0  0
    7.0693  -19.7897   -6.2317 C   0  0  0  1  0  0  0  0  0  0  0  0
    5.6251  -19.3765   -6.2653 C   0  0  0  1  0  0  0  0  0  0  0  0
    5.0037  -20.2403   -6.1529 H   0  0  0  1  0  0  0  0  0  0  0  0
    5.4115  -18.9031   -7.2008 H   0  0  0  1  0  0  0  0  0  0  0  0
    5.4316  -18.6918   -5.4662 H   0  0  0  1  0  0  0  0  0  0  0  0
    7.9191  -19.3826   -7.4108 C   0  0  0  1  0  0  0  0  0  0  0  0
    7.3248  -18.7398   -8.0261 H   0  0  0  1  0  0  0  0  0  0  0  0
    8.2146  -20.2488   -7.9651 H   0  0  0  1  0  0  0  0  0  0  0  0
    8.7899  -18.8614   -7.0715 H   0  0  0  1  0  0  0  0  0  0  0  0
   16.1886   -5.2273   -1.8502 C   0  0  0  1  0  0  0  0  0  0  0  0
   16.5709   -5.7859   -1.0214 H   0  0  0  1  0  0  0  0  0  0  0  0
   14.8762   -5.8443   -2.3159 C   0  0  0  1  0  0  0  0  0  0  0  0
   15.0470   -6.8462   -2.6503 H   0  0  0  1  0  0  0  0  0  0  0  0
   15.9628   -3.8739   -1.4490 O   0  0  0  1  0  0  0  0  0  0  0  0
   14.3259   -5.0010   -3.4705 C   0  0  0  1  0  0  0  0  0  0  0  0
   13.3424   -5.3474   -3.7104 H   0  0  0  1  0  0  0  0  0  0  0  0
   15.5730   -3.0368   -2.5488 C   0  0  0  1  0  0  0  0  0  0  0  0
   16.3265   -3.0739   -3.3076 H   0  0  0  1  0  0  0  0  0  0  0  0
   14.2519   -3.5238   -3.1251 C   0  0  0  1  0  0  0  0  0  0  0  0
   14.0294   -2.9671   -4.0114 H   0  0  0  1  0  0  0  0  0  0  0  0
   17.1304   -5.2550   -2.9165 O   0  0  0  1  0  0  0  0  0  0  0  0
   13.9390   -5.8546   -1.2375 O   0  0  0  1  0  0  0  0  0  0  0  0
   13.9948   -5.0256   -0.7566 H   0  0  0  1  0  0  0  0  0  0  0  0
   15.1758   -5.1639   -4.6006 O   0  0  0  1  0  0  0  0  0  0  0  0
   15.8466   -4.4772   -4.5986 H   0  0  0  1  0  0  0  0  0  0  0  0
   15.4137   -1.6058   -2.0615 C   0  0  0  1  0  0  0  0  0  0  0  0
   14.4667   -1.4974   -1.5753 H   0  0  0  1  0  0  0  0  0  0  0  0
   15.4647   -0.9375   -2.8956 H   0  0  0  1  0  0  0  0  0  0  0  0
   16.1975   -1.3752   -1.3706 H   0  0  0  1  0  0  0  0  0  0  0  0
   19.4268   -7.0516   -2.7733 C   0  0  0  1  0  0  0  0  0  0  0  0
   18.5072   -7.4500   -3.1481 H   0  0  0  1  0  0  0  0  0  0  0  0
   19.1344   -5.9255   -1.8196 C   0  0  0  1  0  0  0  0  0  0  0  0
   20.0528   -5.5584   -1.4116 H   0  0  0  1  0  0  0  0  0  0  0  0
   20.2038   -6.5642   -3.8503 O   0  0  0  1  0  0  0  0  0  0  0  0
   18.4318   -4.8142   -2.5440 C   0  0  0  1  0  0  0  0  0  0  0  0
   18.3498   -3.9707   -1.8907 H   0  0  0  1  0  0  0  0  0  0  0  0
   19.4646   -5.6195   -4.6448 C   0  0  0  1  0  0  0  0  0  0  0  0
   20.0408   -5.3360   -5.5006 H   0  0  0  1  0  0  0  0  0  0  0  0
   19.1845   -4.4009   -3.7872 C   0  0  0  1  0  0  0  0  0  0  0  0
   18.5952   -3.7024   -4.3437 H   0  0  0  1  0  0  0  0  0  0  0  0
   18.2832   -6.4139   -0.7409 N   0  0  0  1  0  0  0  0  0  0  0  0
   17.7207   -7.2040   -0.8814 H   0  0  0  1  0  0  0  0  0  0  0  0
   20.4162   -3.7922   -3.4138 O   0  0  0  1  0  0  0  0  0  0  0  0
   21.0162   -3.9178   -4.1526 H   0  0  0  1  0  0  0  0  0  0  0  0
   18.1682   -6.2354   -5.0941 C   0  0  0  1  0  0  0  0  0  0  0  0
   17.6722   -6.6514   -4.2421 H   0  0  0  1  0  0  0  0  0  0  0  0
   18.3829   -7.0128   -5.7973 H   0  0  0  1  0  0  0  0  0  0  0  0
   17.3033   -5.2911   -5.7087 O   0  0  0  1  0  0  0  0  0  0  0  0
   16.9169   -5.6998   -6.4867 H   0  0  0  1  0  0  0  0  0  0  0  0
   18.2686   -5.7803    0.4502 C   0  0  0  1  0  0  0  0  0  0  0  0
   18.8640   -4.7232    0.6540 O   0  0  0  1  0  0  0  0  0  0  0  0
   17.4637   -6.4538    1.5447 C   0  0  0  1  0  0  0  0  0  0  0  0
   18.1853   -6.6916    2.2980 H   0  0  0  1  0  0  0  0  0  0  0  0
   16.9938   -7.3419    1.1769 H   0  0  0  1  0  0  0  0  0  0  0  0
   16.7191   -5.7892    1.9303 H   0  0  0  1  0  0  0  0  0  0  0  0
  1  2  1  0  0  0  0
  1  3  1  0  0  0  0
  1  4  1  0  0  0  0
  1 44  1  0  0  0  0
  3 20  1  0  0  0  0
  4  5  1  0  0  0  0
  4  6  1  0  0  0  0
  4  8  1  0  0  0  0
  6  7  1  0  0  0  0
  8  9  1  0  0  0  0
  8 10  1  0  0  0  0
  8 20  1  0  0  0  0
 10 11  1  0  0  0  0
 12 13  1  0  0  0  0
 12 14  1  0  0  0  0
 12 15  1  0  0  0  0
 12 17  1  0  0  0  0
 15 16  1  0  0  0  0
 17 18  1  0  0  0  0
 17 19  1  0  0  0  0
 17 20  1  0  0  0  0
 19 22  1  0  0  0  0
 20 21  1  0  0  0  0
 22 23  1  0  0  0  0
 22 24  1  0  0  0  0
 22 25  1  0  0  0  0
 24 42  1  0  0  0  0
 25 26  1  0  0  0  0
 25 27  1  0  0  0  0
 25 29  1  0  0  0  0
 27 28  1  0  0  0  0
 29 30  1  0  0  0  0
 29 31  1  0  0  0  0
 29 42  1  0  0  0  0
 31 32  1  0  0  0  0
 33 34  1  0  0  0  0
 33 35  1  0  0  0  0
 33 36  1  0  0  0  0
 33 38  1  0  0  0  0
 36 37  1  0  0  0  0
 38 39  1  0  0  0  0
 38 40  1  0  0  0  0
 38 42  1  0  0  0  0
 40 41  1  0  0  0  0
 42 43  1  0  0  0  0
 44194  1  0  0  0  0
 45 46  1  0  0  0  0
 45 54  1  0  0  0  0
 46 47  1  0  0  0  0
 46 48  1  0  0  0  0
 46 49  2  0  0  0  0
 47 50  1  0  0  0  0
 50 51  1  0  0  0  0
 50 52  1  0  0  0  0
 50 53  2  0  0  0  0
 51205  1  0  0  0  0
 54 55  1  0  0  0  0
 54 56  1  0  0  0  0
 54 57  1  0  0  0  0
 57 58  1  0  0  0  0
 57 59  2  0  0  0  0
 59 60  1  0  0  0  0
 59 64  1  0  0  0  0
 60 61  1  0  0  0  0
 60 62  1  0  0  0  0
 60 63  1  0  0  0  0
 64 65  1  0  0  0  0
 64 66  1  0  0  0  0
 64 67  1  0  0  0  0
 67 68  1  0  0  0  0
 67 69  1  0  0  0  0
 67 70  1  0  0  0  0
 70 71  1  0  0  0  0
 70 72  2  0  0  0  0
 72 73  1  0  0  0  0
 72 77  1  0  0  0  0
 73 74  1  0  0  0  0
 73 75  1  0  0  0  0
 73 76  1  0  0  0  0
 77 78  1  0  0  0  0
 77 79  1  0  0  0  0
 77 80  1  0  0  0  0
 80 81  1  0  0  0  0
 80 82  1  0  0  0  0
 80 83  1  0  0  0  0
 83 84  1  0  0  0  0
 83 85  2  0  0  0  0
 85 86  1  0  0  0  0
 85 89  1  0  0  0  0
 86 87  1  0  0  0  0
 86 88  1  0  0  0  0
 86 93  1  0  0  0  0
 89 90  1  0  0  0  0
 89 91  1  0  0  0  0
 89 92  1  0  0  0  0
 93 94  1  0  0  0  0
 93 95  1  0  0  0  0
 93 96  1  0  0  0  0
 96 97  1  0  0  0  0
 96 98  2  0  0  0  0
 98 99  1  0  0  0  0
 98102  1  0  0  0  0
 99100  1  0  0  0  0
 99101  1  0  0  0  0
 99106  1  0  0  0  0
102103  1  0  0  0  0
102104  1  0  0  0  0
102105  1  0  0  0  0
106107  1  0  0  0  0
106108  1  0  0  0  0
106109  1  0  0  0  0
109110  1  0  0  0  0
109111  2  0  0  0  0
111112  1  0  0  0  0
111115  1  0  0  0  0
112113  1  0  0  0  0
112114  1  0  0  0  0
112119  1  0  0  0  0
115116  1  0  0  0  0
115117  1  0  0  0  0
115118  1  0  0  0  0
119120  1  0  0  0  0
119121  1  0  0  0  0
119122  1  0  0  0  0
122123  1  0  0  0  0
122124  2  0  0  0  0
124125  1  0  0  0  0
124128  1  0  0  0  0
125126  1  0  0  0  0
125127  1  0  0  0  0
125132  1  0  0  0  0
128129  1  0  0  0  0
128130  1  0  0  0  0
128131  1  0  0  0  0
132133  1  0  0  0  0
132134  1  0  0  0  0
132135  1  0  0  0  0
135136  1  0  0  0  0
135137  2  0  0  0  0
137138  1  0  0  0  0
137141  1  0  0  0  0
138139  1  0  0  0  0
138140  1  0  0  0  0
138145  1  0  0  0  0
141142  1  0  0  0  0
141143  1  0  0  0  0
141144  1  0  0  0  0
145146  1  0  0  0  0
145147  1  0  0  0  0
145148  1  0  0  0  0
148149  1  0  0  0  0
148150  2  0  0  0  0
150151  1  0  0  0  0
150154  1  0  0  0  0
151152  1  0  0  0  0
151153  1  0  0  0  0
151158  1  0  0  0  0
154155  1  0  0  0  0
154156  1  0  0  0  0
154157  1  0  0  0  0
158159  1  0  0  0  0
158160  1  0  0  0  0
158161  1  0  0  0  0
161162  1  0  0  0  0
161163  2  0  0  0  0
163164  1  0  0  0  0
163167  1  0  0  0  0
164165  1  0  0  0  0
164166  1  0  0  0  0
164171  1  0  0  0  0
167168  1  0  0  0  0
167169  1  0  0  0  0
167170  1  0  0  0  0
171172  1  0  0  0  0
171173  1  0  0  0  0
171174  1  0  0  0  0
174175  1  0  0  0  0
174176  2  0  0  0  0
176177  1  0  0  0  0
176181  1  0  0  0  0
177178  1  0  0  0  0
177179  1  0  0  0  0
177180  1  0  0  0  0
181182  1  0  0  0  0
181183  1  0  0  0  0
181184  1  0  0  0  0
185186  1  0  0  0  0
185187  1  0  0  0  0
185189  1  0  0  0  0
185196  1  0  0  0  0
187188  1  0  0  0  0
187190  1  0  0  0  0
187197  1  0  0  0  0
189192  1  0  0  0  0
190191  1  0  0  0  0
190194  1  0  0  0  0
190199  1  0  0  0  0
192193  1  0  0  0  0
192194  1  0  0  0  0
192201  1  0  0  0  0
194195  1  0  0  0  0
196210  1  0  0  0  0
197198  1  0  0  0  0
199200  1  0  0  0  0
201202  1  0  0  0  0
201203  1  0  0  0  0
201204  1  0  0  0  0
205206  1  0  0  0  0
205207  1  0  0  0  0
205209  1  0  0  0  0
207208  1  0  0  0  0
207210  1  0  0  0  0
207216  1  0  0  0  0
209212  1  0  0  0  0
210211  1  0  0  0  0
210214  1  0  0  0  0
212213  1  0  0  0  0
212214  1  0  0  0  0
212220  1  0  0  0  0
214215  1  0  0  0  0
214218  1  0  0  0  0
216217  1  0  0  0  0
216225  1  0  0  0  0
218219  1  0  0  0  0
220221  1  0  0  0  0
220222  1  0  0  0  0
220223  1  0  0  0  0
223224  1  0  0  0  0
225226  2  0  0  0  0
225227  1  0  0  0  0
227228  1  0  0  0  0
227229  1  0  0  0  0
227230  1  0  0  0  0
M  BCL ATM C_TeTeTeTe H_S O_Te2Te2TeTe C_TeTeTeTe H_S O_Te2Te2TeTe H_S C_TeTeTeTe H_S O_Te2Te2TeTe H_S C_TeTeTeTe H_S H_S O_Te2Te2TeTe H_S C_TeTeTeTe H_S O_Te2Te2TeTe C_TeTeTeTe H_S C_TeTeTeTe H_S O_Te2Te2TeTe C_TeTeTeTe H_S O_Te2Te2TeTe H_S C_TeTeTeTe H_S O_Te2Te2TeTe H_S C_TeTeTeTe H_S H_S O_Te2Te2TeTe H_S C_TeTeTeTe H_S O_Te2Te2TeTe H_S C_TeTeTeTe H_S O_Te2Te2TeTe O_Tr2TrTrPi2 P_TeTeTeTePi O_Tr2TrTrPi2 O_Te2Te2TeTe O_Tr2Tr2TrPi P_TeTeTeTePi O_Tr2TrTrPi2 O_Te2Te2TeTe O_Tr2Tr2TrPi C_TeTeTeTe H_S H_S C_TrTrTrPi H_S C_TrTrTrPi C_TeTeTeTe H_S H_S H_S C_TeTeTeTe H_S H_S C_TeTeTeTe H_S H_S C_TrTrTrPi H_S C_TrTrTrPi C_TeTeTeTe H_S H_S H_S C_TeTeTeTe H_S H_S C_TeTeTeTe H_S H_S C_TrTrTrPi H_S C_TrTrTrPi C_TeTeTeTe H_S H_S C_TeTeTeTe H_S H_S H_S C_TeTeTeTe H_S H_S C_TrTrTrPi H_S C_TrTrTrPi C_TeTeTeTe H_S H_S C_TeTeTeTe H_S H_S H_S C_TeTeTeTe H_S H_S C_TrTrTrPi H_S C_TrTrTrPi C_TeTeTeTe H_S H_S C_TeTeTeTe H_S H_S H_S C_TeTeTeTe H_S H_S C_TrTrTrPi H_S C_TrTrTrPi C_TeTeTeTe H_S H_S C_TeTeTeTe H_S H_S H_S C_TeTeTeTe H_S H_S C_TrTrTrPi H_S C_TrTrTrPi C_TeTeTeTe H_S H_S C_TeTeTeTe H_S H_S H_S C_TeTeTeTe H_S H_S C_TrTrTrPi H_S C_TrTrTrPi C_TeTeTeTe H_S H_S C_TeTeTeTe H_S H_S H_S C_TeTeTeTe H_S H_S C_TrTrTrPi H_S C_TrTrTrPi C_TeTeTeTe H_S H_S C_TeTeTeTe H_S H_S H_S C_TeTeTeTe H_S H_S C_TrTrTrPi H_S C_TrTrTrPi C_TeTeTeTe H_S H_S H_S C_TeTeTeTe H_S H_S H_S C_TeTeTeTe H_S C_TeTeTeTe H_S O_Te2Te2TeTe C_TeTeTeTe H_S C_TeTeTeTe H_S C_TeTeTeTe H_S O_Te2Te2TeTe O_Te2Te2TeTe H_S O_Te2Te2TeTe H_S C_TeTeTeTe H_S H_S H_S C_TeTeTeTe H_S C_TeTeTeTe H_S O_Te2Te2TeTe C_TeTeTeTe H_S C_TeTeTeTe H_S C_TeTeTeTe H_S N_TrTrTrPi2 H_S O_Te2Te2TeTe H_S C_TeTeTeTe H_S H_S O_Te2Te2TeTe H_S C_TrTrTrPi O_Tr2Tr2TrPi C_TeTeTeTe H_S H_S H_S
M  BCL BND NonConjugatedSingleBond NonConjugatedSingleBondInRing NonConjugatedSingleBondInRing NonConjugatedSingleBond NonConjugatedSingleBondInRing NonConjugatedSingleBond NonConjugatedSingleBond NonConjugatedSingleBondInRing NonConjugatedSingleBond NonConjugatedSingleBond NonConjugatedSingleBond NonConjugatedSingleBondInRing NonConjugatedSingleBond NonConjugatedSingleBond NonConjugatedSingleBond NonConjugatedSingleBond NonConjugatedSingleBond NonConjugatedSingleBond NonConjugatedSingleBond NonConjugatedSingleBond NonConjugatedSingleBond NonConjugatedSingleBond NonConjugatedSingleBond NonConjugatedSingleBond NonConjugatedSingleBondInRing NonConjugatedSingleBondInRing NonConjugatedSingleBondInRing NonConjugatedSingleBond NonConjugatedSingleBond NonConjugatedSingleBondInRing NonConjugatedSingleBond NonConjugatedSingleBond NonConjugatedSingleBond NonConjugatedSingleBondInRing NonConjugatedSingleBond NonConjugatedSingleBond NonConjugatedSingleBond NonConjugatedSingleBond NonConjugatedSingleBond NonConjugatedSingleBond NonConjugatedSingleBond NonConjugatedSingleBond NonConjugatedSingleBond NonConjugatedSingleBond NonConjugatedSingleBond NonConjugatedSingleBond ConjugatedSingleBond NonConjugatedSingleBond ConjugatedSingleBond ConjugatedSingleBond ConjugatedDoubleBond ConjugatedSingleBond ConjugatedSingleBond ConjugatedSingleBond ConjugatedDoubleBond NonConjugatedSingleBond NonConjugatedSingleBond NonConjugatedSingleBond NonConjugatedSingleBond NonConjugatedSingleBond ConjugatedDoubleBond NonConjugatedSingleBond NonConjugatedSingleBond NonConjugatedSingleBond NonConjugatedSingleBond NonConjugatedSingleBond NonConjugatedSingleBond NonConjugatedSingleBond NonConjugatedSingleBond NonConjugatedSingleBond NonConjugatedSingleBond NonConjugatedSingleBond NonConjugatedSingleBond ConjugatedDoubleBond NonConjugatedSingleBond NonConjugatedSingleBond NonConjugatedSingleBond NonConjugatedSingleBond NonConjugatedSingleBond NonConjugatedSingleBond NonConjugatedSingleBond NonConjugatedSingleBond NonConjugatedSingleBond NonConjugatedSingleBond NonConjugatedSingleBond NonConjugatedSingleBond ConjugatedDoubleBond NonConjugatedSingleBond NonConjugatedSingleBond NonConjugatedSingleBond NonConjugatedSingleBond NonConjugatedSingleBond NonConjugatedSingleBond NonConjugatedSingleBond NonConjugatedSingleBond NonConjugatedSingleBond NonConjugatedSingleBond NonConjugatedSingleBond NonConjugatedSingleBond ConjugatedDoubleBond NonConjugatedSingleBond NonConjugatedSingleBond NonConjugatedSingleBond NonConjugatedSingleBond NonConjugatedSingleBond NonConjugatedSingleBond NonConjugatedSingleBond NonConjugatedSingleBond NonConjugatedSingleBond NonConjugatedSingleBond NonConjugatedSingleBond NonConjugatedSingleBond ConjugatedDoubleBond NonConjugatedSingleBond NonConjugatedSingleBond NonConjugatedSingleBond NonConjugatedSingleBond NonConjugatedSingleBond NonConjugatedSingleBond NonConjugatedSingleBond NonConjugatedSingleBond NonConjugatedSingleBond NonConjugatedSingleBond NonConjugatedSingleBond NonConjugatedSingleBond ConjugatedDoubleBond NonConjugatedSingleBond NonConjugatedSingleBond NonConjugatedSingleBond NonConjugatedSingleBond NonConjugatedSingleBond NonConjugatedSingleBond NonConjugatedSingleBond NonConjugatedSingleBond NonConjugatedSingleBond NonConjugatedSingleBond NonConjugatedSingleBond NonConjugatedSingleBond ConjugatedDoubleBond NonConjugatedSingleBond NonConjugatedSingleBond NonConjugatedSingleBond NonConjugatedSingleBond NonConjugatedSingleBond NonConjugatedSingleBond NonConjugatedSingleBond NonConjugatedSingleBond NonConjugatedSingleBond NonConjugatedSingleBond NonConjugatedSingleBond NonConjugatedSingleBond ConjugatedDoubleBond NonConjugatedSingleBond NonConjugatedSingleBond NonConjugatedSingleBond NonConjugatedSingleBond NonConjugatedSingleBond NonConjugatedSingleBond NonConjugatedSingleBond NonConjugatedSingleBond NonConjugatedSingleBond NonConjugatedSingleBond NonConjugatedSingleBond NonConjugatedSingleBond ConjugatedDoubleBond NonConjugatedSingleBond NonConjugatedSingleBond NonConjugatedSingleBond NonConjugatedSingleBond NonConjugatedSingleBond NonConjugatedSingleBond NonConjugatedSingleBond NonConjugatedSingleBond NonConjugatedSingleBond NonConjugatedSingleBond NonConjugatedSingleBond NonConjugatedSingleBond ConjugatedDoubleBond NonConjugatedSingleBond NonConjugatedSingleBond NonConjugatedSingleBond NonConjugatedSingleBond NonConjugatedSingleBond NonConjugatedSingleBond NonConjugatedSingleBond NonConjugatedSingleBond NonConjugatedSingleBond NonConjugatedSingleBondInRing NonConjugatedSingleBondInRing NonConjugatedSingleBond NonConjugatedSingleBond NonConjugatedSingleBondInRing NonConjugatedSingleBond NonConjugatedSingleBondInRing NonConjugatedSingleBond NonConjugatedSingleBondInRing NonConjugatedSingleBond NonConjugatedSingleBond NonConjugatedSingleBondInRing NonConjugatedSingleBond NonConjugatedSingleBond NonConjugatedSingleBond NonConjugatedSingleBond NonConjugatedSingleBond NonConjugatedSingleBond NonConjugatedSingleBond NonConjugatedSingleBond NonConjugatedSingleBond NonConjugatedSingleBondInRing NonConjugatedSingleBondInRing NonConjugatedSingleBond NonConjugatedSingleBondInRing NonConjugatedSingleBond NonConjugatedSingleBondInRing NonConjugatedSingleBond NonConjugatedSingleBondInRing NonConjugatedSingleBond NonConjugatedSingleBondInRing NonConjugatedSingleBond NonConjugatedSingleBond NonConjugatedSingleBond NonConjugatedSingleBond AmideSingleBond NonConjugatedSingleBond NonConjugatedSingleBond NonConjugatedSingleBond NonConjugatedSingleBond NonConjugatedSingleBond ConjugatedDoubleBond NonConjugatedSingleBond NonConjugatedSingleBond NonConjugatedSingleBond NonConjugatedSingleBond
M  BCL CHI   1   R   4   R   8   R  17   S  20   R  22   S  25   R  29   S  38   S  42   R  46   R  50   S 185   R 187   S 190   S 192   R 194   R 205   R 207   S 210   R 212   S 214   S
M  BCL DBI - - E E E E E E E E Z - -
M  END
> <ConfClashScore>
0.00343621 

> <ConfOneFourInteractionScore>
-0.968041 

> <ConfScore>
0.492894 

> <ConfScorePBest>
0.0125235 

> <ConfTolerance>
2.73845 

$$$$
L05.****
  PyMOL2.5          3D                             0

230233  0  0  0  0  0  0  0  0999 V2000
   12.2778   -2.5233   -3.3727 C   0  0  0  1  0  0  0  0  0  0  0  0
   11.9798   -3.1422   -4.1931 H   0  0  0  1  0  0  0  0  0  0  0  0
   12.8094   -1.3027   -3.8433 O   0  0  0  1  0  0  0  0  0  0  0  0
   11.0735   -2.1440   -2.5300 C   0  0  0  1  0  0  0  0  0  0  0  0
   10.8908   -2.8709   -1.7664 H   0  0  0  1  0  0  0  0  0  0  0  0
    9.9042   -1.9957   -3.3369 O   0  0  0  1  0  0  0  0  0  0  0  0
    9.3447   -2.7692   -3.2355 H   0  0  0  1  0  0  0  0  0  0  0  0
   11.4977   -0.8251   -1.9371 C   0  0  0  1  0  0  0  0  0  0  0  0
   10.6520   -0.2395   -1.6422 H   0  0  0  1  0  0  0  0  0  0  0  0
   12.3627   -1.0118   -0.8158 O   0  0  0  1  0  0  0  0  0  0  0  0
   13.2427   -0.6963   -1.0340 H   0  0  0  1  0  0  0  0  0  0  0  0
   11.9052    1.0465   -5.3002 C   0  0  0  1  0  0  0  0  0  0  0  0
   12.6787    0.3604   -5.5756 H   0  0  0  1  0  0  0  0  0  0  0  0
   11.1598    1.0711   -6.0674 H   0  0  0  1  0  0  0  0  0  0  0  0
   12.4607    2.3450   -5.1394 O   0  0  0  1  0  0  0  0  0  0  0  0
   12.2434    2.6807   -4.2666 H   0  0  0  1  0  0  0  0  0  0  0  0
   11.2706    0.5950   -3.9926 C   0  0  0  1  0  0  0  0  0  0  0  0
   10.4571   -0.0562   -4.2356 H   0  0  0  1  0  0  0  0  0  0  0  0
   10.7603    1.7331   -3.3078 O   0  0  0  1  0  0  0  0  0  0  0  0
   12.2371   -0.1849   -3.1112 C   0  0  0  1  0  0  0  0  0  0  0  0
   13.0074    0.4694   -2.7598 H   0  0  0  1  0  0  0  0  0  0  0  0
    9.3785    1.9398   -3.5002 C   0  0  0  1  0  0  0  0  0  0  0  0
    9.1787    2.0706   -4.5433 H   0  0  0  1  0  0  0  0  0  0  0  0
    8.6409    0.8492   -2.9898 O   0  0  0  1  0  0  0  0  0  0  0  0
    8.9092    3.1509   -2.7146 C   0  0  0  1  0  0  0  0  0  0  0  0
    9.0069    4.0475   -3.2903 H   0  0  0  1  0  0  0  0  0  0  0  0
    9.6357    3.2875   -1.4924 O   0  0  0  1  0  0  0  0  0  0  0  0
    9.4954    4.1664   -1.1327 H   0  0  0  1  0  0  0  0  0  0  0  0
    7.4610    2.8250   -2.4547 C   0  0  0  1  0  0  0  0  0  0  0  0
    6.8531    3.0397   -3.3087 H   0  0  0  1  0  0  0  0  0  0  0  0
    6.9627    3.5363   -1.3253 O   0  0  0  1  0  0  0  0  0  0  0  0
    7.6762    4.0344   -0.9200 H   0  0  0  1  0  0  0  0  0  0  0  0
    5.9042   -0.5688   -1.7415 C   0  0  0  1  0  0  0  0  0  0  0  0
    5.0085   -1.0139   -2.1216 H   0  0  0  1  0  0  0  0  0  0  0  0
    6.7120   -1.2657   -1.8232 H   0  0  0  1  0  0  0  0  0  0  0  0
    5.7058   -0.2801   -0.3650 O   0  0  0  1  0  0  0  0  0  0  0  0
    6.5359    0.0018    0.0262 H   0  0  0  1  0  0  0  0  0  0  0  0
    6.2340    0.6430   -2.6013 C   0  0  0  1  0  0  0  0  0  0  0  0
    5.4418    1.3518   -2.4791 H   0  0  0  1  0  0  0  0  0  0  0  0
    6.2863    0.2421   -3.9679 O   0  0  0  1  0  0  0  0  0  0  0  0
    6.8132    0.8710   -4.4663 H   0  0  0  1  0  0  0  0  0  0  0  0
    7.5291    1.3230   -2.1820 C   0  0  0  1  0  0  0  0  0  0  0  0
    7.7108    1.1363   -1.1442 H   0  0  0  1  0  0  0  0  0  0  0  0
   13.2398   -3.2126   -2.5827 O   0  0  0  1  0  0  0  0  0  0  0  0
   20.2173    1.8429    1.4118 O   0  0  0  1  0  0  0  0  0  0  0  0
   20.6430    1.0904    0.0448 P   0  0  0  1  0  0  0  0  0  0  0  0
   20.1167   -0.4023    0.2935 O   0  0  0  1  0  0  0  0  0  0  0  0
   22.1383    1.1952   -0.0706 O   0  0  0  0  0  0  0  0  0  0  0  0
   19.9301    1.7244   -1.0477 O   0  0  0  1  0  0  0  0  0  0  0  0
   20.9271   -1.7561    0.1478 P   0  0  0  1  0  0  0  0  0  0  0  0
   19.8035   -2.8443    0.0669 O   0  0  0  1  0  0  0  0  0  0  0  0
   21.7056   -1.9395    1.3928 O   0  0  0  0  0  0  0  0  0  0  0  0
   21.6322   -1.8056   -1.1512 O   0  0  0  1  0  0  0  0  0  0  0  0
   18.8322    2.1627    1.6187 C   0  0  0  1  0  0  0  0  0  0  0  0
   18.2478    1.2667    1.5941 H   0  0  0  1  0  0  0  0  0  0  0  0
   18.4975    2.8287    0.8510 H   0  0  0  1  0  0  0  0  0  0  0  0
   18.6888    2.8230    2.9584 C   0  0  0  1  0  0  0  0  0  0  0  0
   19.3183    3.6233    3.1703 H   0  0  0  1  0  0  0  0  0  0  0  0
   17.8175    2.4616    3.8942 C   0  0  0  1  0  0  0  0  0  0  0  0
   17.4659    3.3140    5.0787 C   0  0  0  1  0  0  0  0  0  0  0  0
   18.1323    3.0951    5.8867 H   0  0  0  1  0  0  0  0  0  0  0  0
   16.4602    3.1077    5.3803 H   0  0  0  1  0  0  0  0  0  0  0  0
   17.5545    4.3468    4.8134 H   0  0  0  1  0  0  0  0  0  0  0  0
   17.1017    1.1401    3.8348 C   0  0  0  1  0  0  0  0  0  0  0  0
   17.6996    0.4539    3.2722 H   0  0  0  1  0  0  0  0  0  0  0  0
   16.1629    1.2832    3.3419 H   0  0  0  1  0  0  0  0  0  0  0  0
   16.8412    0.5419    5.2076 C   0  0  0  1  0  0  0  0  0  0  0  0
   16.2938    1.2528    5.7906 H   0  0  0  1  0  0  0  0  0  0  0  0
   17.7821    0.3439    5.6770 H   0  0  0  1  0  0  0  0  0  0  0  0
   16.0548   -0.7389    5.1525 C   0  0  0  1  0  0  0  0  0  0  0  0
   15.1554   -0.7087    4.6311 H   0  0  0  1  0  0  0  0  0  0  0  0
   16.3847   -1.9061    5.6984 C   0  0  0  1  0  0  0  0  0  0  0  0
   15.5724   -3.1679    5.6229 C   0  0  0  1  0  0  0  0  0  0  0  0
   14.9628   -3.1481    4.7437 H   0  0  0  1  0  0  0  0  0  0  0  0
   14.9476   -3.2419    6.4883 H   0  0  0  1  0  0  0  0  0  0  0  0
   16.2285   -4.0122    5.5828 H   0  0  0  1  0  0  0  0  0  0  0  0
   17.6690   -2.0216    6.4653 C   0  0  0  1  0  0  0  0  0  0  0  0
   17.9314   -1.0536    6.8380 H   0  0  0  1  0  0  0  0  0  0  0  0
   18.4327   -2.3674    5.8004 H   0  0  0  1  0  0  0  0  0  0  0  0
   17.5773   -2.9833    7.6388 C   0  0  0  1  0  0  0  0  0  0  0  0
   17.2760   -3.9378    7.2606 H   0  0  0  1  0  0  0  0  0  0  0  0
   16.8313   -2.6138    8.3109 H   0  0  0  1  0  0  0  0  0  0  0  0
   18.8372   -3.1716    8.4096 C   0  0  0  1  0  0  0  0  0  0  0  0
   19.6340   -3.6751    7.9699 H   0  0  0  1  0  0  0  0  0  0  0  0
   18.9633   -2.7065    9.6539 C   0  0  0  1  0  0  0  0  0  0  0  0
   17.8416   -1.9737   10.3307 C   0  0  0  1  0  0  0  0  0  0  0  0
   17.2536   -1.4847    9.5823 H   0  0  0  1  0  0  0  0  0  0  0  0
   18.2611   -1.2424   10.9896 H   0  0  0  1  0  0  0  0  0  0  0  0
   20.2051   -2.8621   10.4858 C   0  0  0  1  0  0  0  0  0  0  0  0
   20.2788   -3.8718   10.8321 H   0  0  0  1  0  0  0  0  0  0  0  0
   20.1572   -2.2000   11.3250 H   0  0  0  1  0  0  0  0  0  0  0  0
   21.0636   -2.6253    9.8925 H   0  0  0  1  0  0  0  0  0  0  0  0
   16.9344   -2.8881   11.1377 C   0  0  0  1  0  0  0  0  0  0  0  0
   17.4884   -3.2696   11.9698 H   0  0  0  1  0  0  0  0  0  0  0  0
   16.6252   -3.6994   10.5123 H   0  0  0  1  0  0  0  0  0  0  0  0
   15.7067   -2.1902   11.6590 C   0  0  0  1  0  0  0  0  0  0  0  0
   15.7650   -1.7533   12.6009 H   0  0  0  1  0  0  0  0  0  0  0  0
   14.5500   -2.0905   11.0031 C   0  0  0  1  0  0  0  0  0  0  0  0
   14.4075   -2.7052    9.6327 C   0  0  0  1  0  0  0  0  0  0  0  0
   15.2951   -2.4977    9.0724 H   0  0  0  1  0  0  0  0  0  0  0  0
   13.5653   -2.2598    9.1456 H   0  0  0  1  0  0  0  0  0  0  0  0
   13.3053   -1.4725   11.6047 C   0  0  0  1  0  0  0  0  0  0  0  0
   12.9656   -0.6731   10.9798 H   0  0  0  1  0  0  0  0  0  0  0  0
   13.5315   -1.0920   12.5788 H   0  0  0  1  0  0  0  0  0  0  0  0
   12.5393   -2.2158   11.6805 H   0  0  0  1  0  0  0  0  0  0  0  0
   14.2021   -4.2107    9.6739 C   0  0  0  1  0  0  0  0  0  0  0  0
   13.3181   -4.4077   10.2436 H   0  0  0  1  0  0  0  0  0  0  0  0
   15.0476   -4.6459   10.1645 H   0  0  0  1  0  0  0  0  0  0  0  0
   14.0488   -4.8779    8.3333 C   0  0  0  1  0  0  0  0  0  0  0  0
   14.8576   -4.8042    7.6836 H   0  0  0  1  0  0  0  0  0  0  0  0
   12.9923   -5.5507    7.8899 C   0  0  0  1  0  0  0  0  0  0  0  0
   11.8814   -6.0349    8.7757 C   0  0  0  1  0  0  0  0  0  0  0  0
   10.9526   -5.8994    8.2621 H   0  0  0  1  0  0  0  0  0  0  0  0
   11.8820   -5.4513    9.6726 H   0  0  0  1  0  0  0  0  0  0  0  0
   12.8271   -5.8849    6.4340 C   0  0  0  1  0  0  0  0  0  0  0  0
   13.2946   -5.1287    5.8387 H   0  0  0  1  0  0  0  0  0  0  0  0
   11.7852   -5.9329    6.1954 H   0  0  0  1  0  0  0  0  0  0  0  0
   13.2839   -6.8311    6.2315 H   0  0  0  1  0  0  0  0  0  0  0  0
   12.0164   -7.5012    9.1526 C   0  0  0  1  0  0  0  0  0  0  0  0
   13.0227   -7.6676    9.4761 H   0  0  0  1  0  0  0  0  0  0  0  0
   11.8211   -8.0861    8.2781 H   0  0  0  1  0  0  0  0  0  0  0  0
   11.0937   -7.9747   10.2436 C   0  0  0  1  0  0  0  0  0  0  0  0
   11.2030   -7.5205   11.1728 H   0  0  0  1  0  0  0  0  0  0  0  0
   10.1546   -8.9099   10.1483 C   0  0  0  1  0  0  0  0  0  0  0  0
   10.0633   -9.8866    9.0102 C   0  0  0  1  0  0  0  0  0  0  0  0
   10.3585   -9.3892    8.1100 H   0  0  0  1  0  0  0  0  0  0  0  0
    9.0480  -10.2125    8.9217 H   0  0  0  1  0  0  0  0  0  0  0  0
    9.0888   -9.0639   11.1965 C   0  0  0  1  0  0  0  0  0  0  0  0
    9.5409   -9.3300   12.1291 H   0  0  0  1  0  0  0  0  0  0  0  0
    8.4054   -9.8319   10.8998 H   0  0  0  1  0  0  0  0  0  0  0  0
    8.5614   -8.1395   11.3070 H   0  0  0  1  0  0  0  0  0  0  0  0
   10.9484  -11.1076    9.2009 C   0  0  0  1  0  0  0  0  0  0  0  0
   10.8250  -11.7301    8.3395 H   0  0  0  1  0  0  0  0  0  0  0  0
   10.5970  -11.6252   10.0689 H   0  0  0  1  0  0  0  0  0  0  0  0
   12.4154  -10.8773    9.3804 C   0  0  0  1  0  0  0  0  0  0  0  0
   12.7231  -10.1708   10.0788 H   0  0  0  1  0  0  0  0  0  0  0  0
   13.3486  -11.5336    8.6885 C   0  0  0  1  0  0  0  0  0  0  0  0
   13.0140  -12.7782    7.9188 C   0  0  0  1  0  0  0  0  0  0  0  0
   13.3808  -12.6695    6.9195 H   0  0  0  1  0  0  0  0  0  0  0  0
   11.9501  -12.8904    7.8986 H   0  0  0  1  0  0  0  0  0  0  0  0
   14.7698  -11.0542    8.6519 C   0  0  0  1  0  0  0  0  0  0  0  0
   14.8036  -10.0168    8.9120 H   0  0  0  1  0  0  0  0  0  0  0  0
   15.1658  -11.1877    7.6669 H   0  0  0  1  0  0  0  0  0  0  0  0
   15.3536  -11.6160    9.3508 H   0  0  0  1  0  0  0  0  0  0  0  0
   13.6216  -14.0335    8.5233 C   0  0  0  1  0  0  0  0  0  0  0  0
   13.5204  -13.9825    9.5873 H   0  0  0  1  0  0  0  0  0  0  0  0
   14.6592  -14.0684    8.2645 H   0  0  0  1  0  0  0  0  0  0  0  0
   12.9649  -15.2974    8.0402 C   0  0  0  1  0  0  0  0  0  0  0  0
   13.0490  -16.1292    8.6587 H   0  0  0  1  0  0  0  0  0  0  0  0
   12.2880  -15.4666    6.9071 C   0  0  0  1  0  0  0  0  0  0  0  0
   12.3383  -14.4953    5.7619 C   0  0  0  1  0  0  0  0  0  0  0  0
   11.8308  -13.5959    6.0421 H   0  0  0  1  0  0  0  0  0  0  0  0
   11.8536  -14.9291    4.9124 H   0  0  0  1  0  0  0  0  0  0  0  0
   11.3386  -16.6203    6.7660 C   0  0  0  1  0  0  0  0  0  0  0  0
   11.4530  -17.2810    7.5999 H   0  0  0  1  0  0  0  0  0  0  0  0
   11.5521  -17.1489    5.8606 H   0  0  0  1  0  0  0  0  0  0  0  0
   10.3338  -16.2535    6.7371 H   0  0  0  1  0  0  0  0  0  0  0  0
   13.7822  -14.1623    5.3981 C   0  0  0  1  0  0  0  0  0  0  0  0
   14.2955  -15.0737    5.1728 H   0  0  0  1  0  0  0  0  0  0  0  0
   14.2452  -13.6901    6.2392 H   0  0  0  1  0  0  0  0  0  0  0  0
   13.8932  -13.2520    4.2223 C   0  0  0  1  0  0  0  0  0  0  0  0
   13.4413  -12.3225    4.3375 H   0  0  0  1  0  0  0  0  0  0  0  0
   14.4840  -13.4526    3.0492 C   0  0  0  1  0  0  0  0  0  0  0  0
   14.2527  -12.5886    1.8393 C   0  0  0  1  0  0  0  0  0  0  0  0
   13.4003  -11.9713    2.0327 H   0  0  0  1  0  0  0  0  0  0  0  0
   14.0472  -13.2314    1.0090 H   0  0  0  1  0  0  0  0  0  0  0  0
   15.4488  -14.5827    2.8388 C   0  0  0  1  0  0  0  0  0  0  0  0
   15.3394  -15.2151    3.6950 H   0  0  0  1  0  0  0  0  0  0  0  0
   16.4503  -14.2119    2.7734 H   0  0  0  1  0  0  0  0  0  0  0  0
   15.2073  -15.1188    1.9448 H   0  0  0  1  0  0  0  0  0  0  0  0
   15.4106  -11.6820    1.4551 C   0  0  0  1  0  0  0  0  0  0  0  0
   15.2473  -11.3640    0.4466 H   0  0  0  1  0  0  0  0  0  0  0  0
   16.3053  -12.2669    1.5048 H   0  0  0  1  0  0  0  0  0  0  0  0
   15.6331  -10.4480    2.2856 C   0  0  0  1  0  0  0  0  0  0  0  0
   14.7851   -9.9043    2.5444 H   0  0  0  1  0  0  0  0  0  0  0  0
   16.7945   -9.9775    2.7242 C   0  0  0  1  0  0  0  0  0  0  0  0
   16.8693   -8.7193    3.5394 C   0  0  0  1  0  0  0  0  0  0  0  0
   17.8199   -8.2519    3.3885 H   0  0  0  1  0  0  0  0  0  0  0  0
   16.7501   -8.9584    4.5756 H   0  0  0  1  0  0  0  0  0  0  0  0
   16.0911   -8.0508    3.2353 H   0  0  0  1  0  0  0  0  0  0  0  0
   18.1256  -10.6377    2.4581 C   0  0  0  1  0  0  0  0  0  0  0  0
   17.9293  -11.5598    1.9522 H   0  0  0  1  0  0  0  0  0  0  0  0
   18.6307  -10.8278    3.3820 H   0  0  0  1  0  0  0  0  0  0  0  0
   18.7313  -10.0050    1.8435 H   0  0  0  1  0  0  0  0  0  0  0  0
   16.0528   -5.0742   -1.5077 C   0  0  0  1  0  0  0  0  0  0  0  0
   16.2819   -5.5709   -0.5881 H   0  0  0  1  0  0  0  0  0  0  0  0
   14.8584   -5.7486   -2.1701 C   0  0  0  1  0  0  0  0  0  0  0  0
   15.0926   -6.7710   -2.3817 H   0  0  0  1  0  0  0  0  0  0  0  0
   15.7242   -3.7126   -1.2475 O   0  0  0  1  0  0  0  0  0  0  0  0
   14.5486   -5.0143   -3.4657 C   0  0  0  1  0  0  0  0  0  0  0  0
   13.6191   -5.3777   -3.8516 H   0  0  0  1  0  0  0  0  0  0  0  0
   15.6238   -2.9691   -2.4689 C   0  0  0  1  0  0  0  0  0  0  0  0
   16.5251   -3.0825   -3.0344 H   0  0  0  1  0  0  0  0  0  0  0  0
   14.4410   -3.5064   -3.2736 C   0  0  0  1  0  0  0  0  0  0  0  0
   14.4265   -3.0321   -4.2326 H   0  0  0  1  0  0  0  0  0  0  0  0
   17.1791   -5.1370   -2.3749 O   0  0  0  1  0  0  0  0  0  0  0  0
   13.7270   -5.6888   -1.2997 O   0  0  0  1  0  0  0  0  0  0  0  0
   13.1418   -6.4273   -1.4835 H   0  0  0  1  0  0  0  0  0  0  0  0
   15.5941   -5.2830   -4.4060 O   0  0  0  1  0  0  0  0  0  0  0  0
   15.8184   -4.4760   -4.8751 H   0  0  0  1  0  0  0  0  0  0  0  0
   15.4032   -1.4983   -2.1554 C   0  0  0  1  0  0  0  0  0  0  0  0
   14.9437   -1.0192   -2.9946 H   0  0  0  1  0  0  0  0  0  0  0  0
   16.3444   -1.0324   -1.9503 H   0  0  0  1  0  0  0  0  0  0  0  0
   14.7661   -1.4077   -1.3005 H   0  0  0  1  0  0  0  0  0  0  0  0
   20.0222   -4.2494   -0.1166 C   0  0  0  1  0  0  0  0  0  0  0  0
   20.3464   -4.6839    0.8059 H   0  0  0  1  0  0  0  0  0  0  0  0
   18.7166   -4.9131   -0.5594 C   0  0  0  1  0  0  0  0  0  0  0  0
   17.9505   -4.6965    0.1554 H   0  0  0  1  0  0  0  0  0  0  0  0
   21.0323   -4.4478   -1.1181 O   0  0  0  1  0  0  0  0  0  0  0  0
   18.2954   -4.3899   -1.9174 C   0  0  0  1  0  0  0  0  0  0  0  0
   18.0219   -3.3596   -1.8247 H   0  0  0  1  0  0  0  0  0  0  0  0
   20.6967   -3.8755   -2.3757 C   0  0  0  1  0  0  0  0  0  0  0  0
   20.5362   -2.8248   -2.2525 H   0  0  0  1  0  0  0  0  0  0  0  0
   19.4283   -4.5147   -2.9339 C   0  0  0  1  0  0  0  0  0  0  0  0
   19.6114   -5.5493   -3.1361 H   0  0  0  1  0  0  0  0  0  0  0  0
   18.9133   -6.3528   -0.6396 N   0  0  0  1  0  0  0  0  0  0  0  0
   19.7238   -6.6962   -1.0703 H   0  0  0  1  0  0  0  0  0  0  0  0
   19.0552   -3.8505   -4.1440 O   0  0  0  1  0  0  0  0  0  0  0  0
   18.4665   -3.1356   -3.8911 H   0  0  0  1  0  0  0  0  0  0  0  0
   21.8274   -4.1005   -3.3379 C   0  0  0  1  0  0  0  0  0  0  0  0
   22.7587   -3.9419   -2.8356 H   0  0  0  1  0  0  0  0  0  0  0  0
   21.7409   -3.4148   -4.1548 H   0  0  0  1  0  0  0  0  0  0  0  0
   21.7776   -5.4351   -3.8329 O   0  0  0  1  0  0  0  0  0  0  0  0
   21.0047   -5.5179   -4.3962 H   0  0  0  1  0  0  0  0  0  0  0  0
   18.0272   -7.2227   -0.1465 C   0  0  0  1  0  0  0  0  0  0  0  0
   17.1400   -6.9006    0.6394 O   0  0  0  1  0  0  0  0  0  0  0  0
   18.1785   -8.6559   -0.6180 C   0  0  0  1  0  0  0  0  0  0  0  0
   17.5504   -8.7197   -1.4819 H   0  0  0  1  0  0  0  0  0  0  0  0
   17.8528   -9.3394    0.1381 H   0  0  0  1  0  0  0  0  0  0  0  0
   19.1963   -8.8646   -0.8738 H   0  0  0  1  0  0  0  0  0  0  0  0
  1  2  1  0  0  0  0
  1  3  1  0  0  0  0
  1  4  1  0  0  0  0
  1 44  1  0  0  0  0
  3 20  1  0  0  0  0
  4  5  1  0  0  0  0
  4  6  1  0  0  0  0
  4  8  1  0  0  0  0
  6  7  1  0  0  0  0
  8  9  1  0  0  0  0
  8 10  1  0  0  0  0
  8 20  1  0  0  0  0
 10 11  1  0  0  0  0
 12 13  1  0  0  0  0
 12 14  1  0  0  0  0
 12 15  1  0  0  0  0
 12 17  1  0  0  0  0
 15 16  1  0  0  0  0
 17 18  1  0  0  0  0
 17 19  1  0  0  0  0
 17 20  1  0  0  0  0
 19 22  1  0  0  0  0
 20 21  1  0  0  0  0
 22 23  1  0  0  0  0
 22 24  1  0  0  0  0
 22 25  1  0  0  0  0
 24 42  1  0  0  0  0
 25 26  1  0  0  0  0
 25 27  1  0  0  0  0
 25 29  1  0  0  0  0
 27 28  1  0  0  0  0
 29 30  1  0  0  0  0
 29 31  1  0  0  0  0
 29 42  1  0  0  0  0
 31 32  1  0  0  0  0
 33 34  1  0  0  0  0
 33 35  1  0  0  0  0
 33 36  1  0  0  0  0
 33 38  1  0  0  0  0
 36 37  1  0  0  0  0
 38 39  1  0  0  0  0
 38 40  1  0  0  0  0
 38 42  1  0  0  0  0
 40 41  1  0  0  0  0
 42 43  1  0  0  0  0
 44194  1  0  0  0  0
 45 46  1  0  0  0  0
 45 54  1  0  0  0  0
 46 47  1  0  0  0  0
 46 48  1  0  0  0  0
 46 49  2  0  0  0  0
 47 50  1  0  0  0  0
 50 51  1  0  0  0  0
 50 52  1  0  0  0  0
 50 53  2  0  0  0  0
 51205  1  0  0  0  0
 54 55  1  0  0  0  0
 54 56  1  0  0  0  0
 54 57  1  0  0  0  0
 57 58  1  0  0  0  0
 57 59  2  0  0  0  0
 59 60  1  0  0  0  0
 59 64  1  0  0  0  0
 60 61  1  0  0  0  0
 60 62  1  0  0  0  0
 60 63  1  0  0  0  0
 64 65  1  0  0  0  0
 64 66  1  0  0  0  0
 64 67  1  0  0  0  0
 67 68  1  0  0  0  0
 67 69  1  0  0  0  0
 67 70  1  0  0  0  0
 70 71  1  0  0  0  0
 70 72  2  0  0  0  0
 72 73  1  0  0  0  0
 72 77  1  0  0  0  0
 73 74  1  0  0  0  0
 73 75  1  0  0  0  0
 73 76  1  0  0  0  0
 77 78  1  0  0  0  0
 77 79  1  0  0  0  0
 77 80  1  0  0  0  0
 80 81  1  0  0  0  0
 80 82  1  0  0  0  0
 80 83  1  0  0  0  0
 83 84  1  0  0  0  0
 83 85  2  0  0  0  0
 85 86  1  0  0  0  0
 85 89  1  0  0  0  0
 86 87  1  0  0  0  0
 86 88  1  0  0  0  0
 86 93  1  0  0  0  0
 89 90  1  0  0  0  0
 89 91  1  0  0  0  0
 89 92  1  0  0  0  0
 93 94  1  0  0  0  0
 93 95  1  0  0  0  0
 93 96  1  0  0  0  0
 96 97  1  0  0  0  0
 96 98  2  0  0  0  0
 98 99  1  0  0  0  0
 98102  1  0  0  0  0
 99100  1  0  0  0  0
 99101  1  0  0  0  0
 99106  1  0  0  0  0
102103  1  0  0  0  0
102104  1  0  0  0  0
102105  1  0  0  0  0
106107  1  0  0  0  0
106108  1  0  0  0  0
106109  1  0  0  0  0
109110  1  0  0  0  0
109111  2  0  0  0  0
111112  1  0  0  0  0
111115  1  0  0  0  0
112113  1  0  0  0  0
112114  1  0  0  0  0
112119  1  0  0  0  0
115116  1  0  0  0  0
115117  1  0  0  0  0
115118  1  0  0  0  0
119120  1  0  0  0  0
119121  1  0  0  0  0
119122  1  0  0  0  0
122123  1  0  0  0  0
122124  2  0  0  0  0
124125  1  0  0  0  0
124128  1  0  0  0  0
125126  1  0  0  0  0
125127  1  0  0  0  0
125132  1  0  0  0  0
128129  1  0  0  0  0
128130  1  0  0  0  0
128131  1  0  0  0  0
132133  1  0  0  0  0
132134  1  0  0  0  0
132135  1  0  0  0  0
135136  1  0  0  0  0
135137  2  0  0  0  0
137138  1  0  0  0  0
137141  1  0  0  0  0
138139  1  0  0  0  0
138140  1  0  0  0  0
138145  1  0  0  0  0
141142  1  0  0  0  0
141143  1  0  0  0  0
141144  1  0  0  0  0
145146  1  0  0  0  0
145147  1  0  0  0  0
145148  1  0  0  0  0
148149  1  0  0  0  0
148150  2  0  0  0  0
150151  1  0  0  0  0
150154  1  0  0  0  0
151152  1  0  0  0  0
151153  1  0  0  0  0
151158  1  0  0  0  0
154155  1  0  0  0  0
154156  1  0  0  0  0
154157  1  0  0  0  0
158159  1  0  0  0  0
158160  1  0  0  0  0
158161  1  0  0  0  0
161162  1  0  0  0  0
161163  2  0  0  0  0
163164  1  0  0  0  0
163167  1  0  0  0  0
164165  1  0  0  0  0
164166  1  0  0  0  0
164171  1  0  0  0  0
167168  1  0  0  0  0
167169  1  0  0  0  0
167170  1  0  0  0  0
171172  1  0  0  0  0
171173  1  0  0  0  0
171174  1  0  0  0  0
174175  1  0  0  0  0
174176  2  0  0  0  0
176177  1  0  0  0  0
176181  1  0  0  0  0
177178  1  0  0  0  0
177179  1  0  0  0  0
177180  1  0  0  0  0
181182  1  0  0  0  0
181183  1  0  0  0  0
181184  1  0  0  0  0
185186  1  0  0  0  0
185187  1  0  0  0  0
185189  1  0  0  0  0
185196  1  0  0  0  0
187188  1  0  0  0  0
187190  1  0  0  0  0
187197  1  0  0  0  0
189192  1  0  0  0  0
190191  1  0  0  0  0
190194  1  0  0  0  0
190199  1  0  0  0  0
192193  1  0  0  0  0
192194  1  0  0  0  0
192201  1  0  0  0  0
194195  1  0  0  0  0
196210  1  0  0  0  0
197198  1  0  0  0  0
199200  1  0  0  0  0
201202  1  0  0  0  0
201203  1  0  0  0  0
201204  1  0  0  0  0
205206  1  0  0  0  0
205207  1  0  0  0  0
205209  1  0  0  0  0
207208  1  0  0  0  0
207210  1  0  0  0  0
207216  1  0  0  0  0
209212  1  0  0  0  0
210211  1  0  0  0  0
210214  1  0  0  0  0
212213  1  0  0  0  0
212214  1  0  0  0  0
212220  1  0  0  0  0
214215  1  0  0  0  0
214218  1  0  0  0  0
216217  1  0  0  0  0
216225  1  0  0  0  0
218219  1  0  0  0  0
220221  1  0  0  0  0
220222  1  0  0  0  0
220223  1  0  0  0  0
223224  1  0  0  0  0
225226  2  0  0  0  0
225227  1  0  0  0  0
227228  1  0  0  0  0
227229  1  0  0  0  0
227230  1  0  0  0  0
M  BCL ATM C_TeTeTeTe H_S O_Te2Te2TeTe C_TeTeTeTe H_S O_Te2Te2TeTe H_S C_TeTeTeTe H_S O_Te2Te2TeTe H_S C_TeTeTeTe H_S H_S O_Te2Te2TeTe H_S C_TeTeTeTe H_S O_Te2Te2TeTe C_TeTeTeTe H_S C_TeTeTeTe H_S O_Te2Te2TeTe C_TeTeTeTe H_S O_Te2Te2TeTe H_S C_TeTeTeTe H_S O_Te2Te2TeTe H_S C_TeTeTeTe H_S H_S O_Te2Te2TeTe H_S C_TeTeTeTe H_S O_Te2Te2TeTe H_S C_TeTeTeTe H_S O_Te2Te2TeTe O_Tr2TrTrPi2 P_TeTeTeTePi O_Tr2TrTrPi2 O_Te2Te2TeTe O_Tr2Tr2TrPi P_TeTeTeTePi O_Tr2TrTrPi2 O_Te2Te2TeTe O_Tr2Tr2TrPi C_TeTeTeTe H_S H_S C_TrTrTrPi H_S C_TrTrTrPi C_TeTeTeTe H_S H_S H_S C_TeTeTeTe H_S H_S C_TeTeTeTe H_S H_S C_TrTrTrPi H_S C_TrTrTrPi C_TeTeTeTe H_S H_S H_S C_TeTeTeTe H_S H_S C_TeTeTeTe H_S H_S C_TrTrTrPi H_S C_TrTrTrPi C_TeTeTeTe H_S H_S C_TeTeTeTe H_S H_S H_S C_TeTeTeTe H_S H_S C_TrTrTrPi H_S C_TrTrTrPi C_TeTeTeTe H_S H_S C_TeTeTeTe H_S H_S H_S C_TeTeTeTe H_S H_S C_TrTrTrPi H_S C_TrTrTrPi C_TeTeTeTe H_S H_S C_TeTeTeTe H_S H_S H_S C_TeTeTeTe H_S H_S C_TrTrTrPi H_S C_TrTrTrPi C_TeTeTeTe H_S H_S C_TeTeTeTe H_S H_S H_S C_TeTeTeTe H_S H_S C_TrTrTrPi H_S C_TrTrTrPi C_TeTeTeTe H_S H_S C_TeTeTeTe H_S H_S H_S C_TeTeTeTe H_S H_S C_TrTrTrPi H_S C_TrTrTrPi C_TeTeTeTe H_S H_S C_TeTeTeTe H_S H_S H_S C_TeTeTeTe H_S H_S C_TrTrTrPi H_S C_TrTrTrPi C_TeTeTeTe H_S H_S C_TeTeTeTe H_S H_S H_S C_TeTeTeTe H_S H_S C_TrTrTrPi H_S C_TrTrTrPi C_TeTeTeTe H_S H_S H_S C_TeTeTeTe H_S H_S H_S C_TeTeTeTe H_S C_TeTeTeTe H_S O_Te2Te2TeTe C_TeTeTeTe H_S C_TeTeTeTe H_S C_TeTeTeTe H_S O_Te2Te2TeTe O_Te2Te2TeTe H_S O_Te2Te2TeTe H_S C_TeTeTeTe H_S H_S H_S C_TeTeTeTe H_S C_TeTeTeTe H_S O_Te2Te2TeTe C_TeTeTeTe H_S C_TeTeTeTe H_S C_TeTeTeTe H_S N_TrTrTrPi2 H_S O_Te2Te2TeTe H_S C_TeTeTeTe H_S H_S O_Te2Te2TeTe H_S C_TrTrTrPi O_Tr2Tr2TrPi C_TeTeTeTe H_S H_S H_S
M  BCL BND NonConjugatedSingleBond NonConjugatedSingleBondInRing NonConjugatedSingleBondInRing NonConjugatedSingleBond NonConjugatedSingleBondInRing NonConjugatedSingleBond NonConjugatedSingleBond NonConjugatedSingleBondInRing NonConjugatedSingleBond NonConjugatedSingleBond NonConjugatedSingleBond NonConjugatedSingleBondInRing NonConjugatedSingleBond NonConjugatedSingleBond NonConjugatedSingleBond NonConjugatedSingleBond NonConjugatedSingleBond NonConjugatedSingleBond NonConjugatedSingleBond NonConjugatedSingleBond NonConjugatedSingleBond NonConjugatedSingleBond NonConjugatedSingleBond NonConjugatedSingleBond NonConjugatedSingleBondInRing NonConjugatedSingleBondInRing NonConjugatedSingleBondInRing NonConjugatedSingleBond NonConjugatedSingleBond NonConjugatedSingleBondInRing NonConjugatedSingleBond NonConjugatedSingleBond NonConjugatedSingleBond NonConjugatedSingleBondInRing NonConjugatedSingleBond NonConjugatedSingleBond NonConjugatedSingleBond NonConjugatedSingleBond NonConjugatedSingleBond NonConjugatedSingleBond NonConjugatedSingleBond NonConjugatedSingleBond NonConjugatedSingleBond NonConjugatedSingleBond NonConjugatedSingleBond NonConjugatedSingleBond ConjugatedSingleBond NonConjugatedSingleBond ConjugatedSingleBond ConjugatedSingleBond ConjugatedDoubleBond ConjugatedSingleBond ConjugatedSingleBond ConjugatedSingleBond ConjugatedDoubleBond NonConjugatedSingleBond NonConjugatedSingleBond NonConjugatedSingleBond NonConjugatedSingleBond NonConjugatedSingleBond ConjugatedDoubleBond NonConjugatedSingleBond NonConjugatedSingleBond NonConjugatedSingleBond NonConjugatedSingleBond NonConjugatedSingleBond NonConjugatedSingleBond NonConjugatedSingleBond NonConjugatedSingleBond NonConjugatedSingleBond NonConjugatedSingleBond NonConjugatedSingleBond NonConjugatedSingleBond ConjugatedDoubleBond NonConjugatedSingleBond NonConjugatedSingleBond NonConjugatedSingleBond NonConjugatedSingleBond NonConjugatedSingleBond NonConjugatedSingleBond NonConjugatedSingleBond NonConjugatedSingleBond NonConjugatedSingleBond NonConjugatedSingleBond NonConjugatedSingleBond NonConjugatedSingleBond ConjugatedDoubleBond NonConjugatedSingleBond NonConjugatedSingleBond NonConjugatedSingleBond NonConjugatedSingleBond NonConjugatedSingleBond NonConjugatedSingleBond NonConjugatedSingleBond NonConjugatedSingleBond NonConjugatedSingleBond NonConjugatedSingleBond NonConjugatedSingleBond NonConjugatedSingleBond ConjugatedDoubleBond NonConjugatedSingleBond NonConjugatedSingleBond NonConjugatedSingleBond NonConjugatedSingleBond NonConjugatedSingleBond NonConjugatedSingleBond NonConjugatedSingleBond NonConjugatedSingleBond NonConjugatedSingleBond NonConjugatedSingleBond NonConjugatedSingleBond NonConjugatedSingleBond ConjugatedDoubleBond NonConjugatedSingleBond NonConjugatedSingleBond NonConjugatedSingleBond NonConjugatedSingleBond NonConjugatedSingleBond NonConjugatedSingleBond NonConjugatedSingleBond NonConjugatedSingleBond NonConjugatedSingleBond NonConjugatedSingleBond NonConjugatedSingleBond NonConjugatedSingleBond ConjugatedDoubleBond NonConjugatedSingleBond NonConjugatedSingleBond NonConjugatedSingleBond NonConjugatedSingleBond NonConjugatedSingleBond NonConjugatedSingleBond NonConjugatedSingleBond NonConjugatedSingleBond NonConjugatedSingleBond NonConjugatedSingleBond NonConjugatedSingleBond NonConjugatedSingleBond ConjugatedDoubleBond NonConjugatedSingleBond NonConjugatedSingleBond NonConjugatedSingleBond NonConjugatedSingleBond NonConjugatedSingleBond NonConjugatedSingleBond NonConjugatedSingleBond NonConjugatedSingleBond NonConjugatedSingleBond NonConjugatedSingleBond NonConjugatedSingleBond NonConjugatedSingleBond ConjugatedDoubleBond NonConjugatedSingleBond NonConjugatedSingleBond NonConjugatedSingleBond NonConjugatedSingleBond NonConjugatedSingleBond NonConjugatedSingleBond NonConjugatedSingleBond NonConjugatedSingleBond NonConjugatedSingleBond NonConjugatedSingleBond NonConjugatedSingleBond NonConjugatedSingleBond ConjugatedDoubleBond NonConjugatedSingleBond NonConjugatedSingleBond NonConjugatedSingleBond NonConjugatedSingleBond NonConjugatedSingleBond NonConjugatedSingleBond NonConjugatedSingleBond NonConjugatedSingleBond NonConjugatedSingleBond NonConjugatedSingleBond NonConjugatedSingleBond NonConjugatedSingleBond ConjugatedDoubleBond NonConjugatedSingleBond NonConjugatedSingleBond NonConjugatedSingleBond NonConjugatedSingleBond NonConjugatedSingleBond NonConjugatedSingleBond NonConjugatedSingleBond NonConjugatedSingleBond NonConjugatedSingleBond NonConjugatedSingleBondInRing NonConjugatedSingleBondInRing NonConjugatedSingleBond NonConjugatedSingleBond NonConjugatedSingleBondInRing NonConjugatedSingleBond NonConjugatedSingleBondInRing NonConjugatedSingleBond NonConjugatedSingleBondInRing NonConjugatedSingleBond NonConjugatedSingleBond NonConjugatedSingleBondInRing NonConjugatedSingleBond NonConjugatedSingleBond NonConjugatedSingleBond NonConjugatedSingleBond NonConjugatedSingleBond NonConjugatedSingleBond NonConjugatedSingleBond NonConjugatedSingleBond NonConjugatedSingleBond NonConjugatedSingleBondInRing NonConjugatedSingleBondInRing NonConjugatedSingleBond NonConjugatedSingleBondInRing NonConjugatedSingleBond NonConjugatedSingleBondInRing NonConjugatedSingleBond NonConjugatedSingleBondInRing NonConjugatedSingleBond NonConjugatedSingleBondInRing NonConjugatedSingleBond NonConjugatedSingleBond NonConjugatedSingleBond NonConjugatedSingleBond AmideSingleBond NonConjugatedSingleBond NonConjugatedSingleBond NonConjugatedSingleBond NonConjugatedSingleBond NonConjugatedSingleBond ConjugatedDoubleBond NonConjugatedSingleBond NonConjugatedSingleBond NonConjugatedSingleBond NonConjugatedSingleBond
M  BCL CHI   1   R   4   R   8   R  17   S  20   R  22   S  25   R  29   S  38   S  42   R  46   R  50   S 185   R 187   S 190   S 192   R 194   R 205   R 207   S 210   R 212   S 214   S
M  BCL DBI - - E E E E E E E E Z - -
M  END
> <ConfClashScore>
0.00203752 

> <ConfOneFourInteractionScore>
-0.969791 

> <ConfScore>
0.495665 

> <ConfScorePBest>
0.0124205 

> <ConfTolerance>
4.18165 

$$$$
L05.****
  PyMOL2.5          3D                             0

230233  0  0  0  0  0  0  0  0999 V2000
   11.9440   -3.1571   -2.4295 C   0  0  0  1  0  0  0  0  0  0  0  0
   11.7645   -3.8143   -3.2546 H   0  0  0  1  0  0  0  0  0  0  0  0
   11.6933   -1.8183   -2.8017 O   0  0  0  1  0  0  0  0  0  0  0  0
   10.9772   -3.4518   -1.2970 C   0  0  0  1  0  0  0  0  0  0  0  0
   11.3682   -4.1993   -0.6387 H   0  0  0  1  0  0  0  0  0  0  0  0
    9.7079   -3.8743   -1.7978 O   0  0  0  1  0  0  0  0  0  0  0  0
    9.2339   -4.3482   -1.1106 H   0  0  0  1  0  0  0  0  0  0  0  0
   10.8738   -2.1167   -0.6059 C   0  0  0  1  0  0  0  0  0  0  0  0
    9.9659   -2.0364   -0.0453 H   0  0  0  1  0  0  0  0  0  0  0  0
   11.9888   -1.8888    0.2573 O   0  0  0  1  0  0  0  0  0  0  0  0
   11.6753   -1.5870    1.1130 H   0  0  0  1  0  0  0  0  0  0  0  0
    9.3747   -0.1474   -3.5919 C   0  0  0  1  0  0  0  0  0  0  0  0
    8.4225   -0.3384   -4.0411 H   0  0  0  1  0  0  0  0  0  0  0  0
    9.4611    0.8952   -3.3676 H   0  0  0  1  0  0  0  0  0  0  0  0
   10.3945   -0.5011   -4.5168 O   0  0  0  1  0  0  0  0  0  0  0  0
   10.6383    0.2693   -5.0351 H   0  0  0  1  0  0  0  0  0  0  0  0
    9.4678   -0.9264   -2.3087 C   0  0  0  1  0  0  0  0  0  0  0  0
    9.0659   -1.8963   -2.5154 H   0  0  0  1  0  0  0  0  0  0  0  0
    8.5922   -0.2823   -1.3905 O   0  0  0  1  0  0  0  0  0  0  0  0
   10.8825   -1.1553   -1.7936 C   0  0  0  1  0  0  0  0  0  0  0  0
   11.3178   -0.2180   -1.5166 H   0  0  0  1  0  0  0  0  0  0  0  0
    7.2449   -0.6786   -1.5167 C   0  0  0  1  0  0  0  0  0  0  0  0
    6.6084    0.0947   -1.1401 H   0  0  0  1  0  0  0  0  0  0  0  0
    6.9360   -0.9692   -2.8528 O   0  0  0  1  0  0  0  0  0  0  0  0
    6.9945   -1.9991   -0.7742 C   0  0  0  1  0  0  0  0  0  0  0  0
    6.7385   -1.8234    0.2497 H   0  0  0  1  0  0  0  0  0  0  0  0
    8.1385   -2.8519   -0.8402 O   0  0  0  1  0  0  0  0  0  0  0  0
    8.0595   -3.5456   -0.1812 H   0  0  0  1  0  0  0  0  0  0  0  0
    5.8333   -2.5889   -1.5308 C   0  0  0  1  0  0  0  0  0  0  0  0
    4.9033   -2.2055   -1.1662 H   0  0  0  1  0  0  0  0  0  0  0  0
    5.8312   -4.0105   -1.4367 O   0  0  0  1  0  0  0  0  0  0  0  0
    6.0440   -4.3886   -2.2931 H   0  0  0  1  0  0  0  0  0  0  0  0
    4.0575   -0.5726   -3.0537 C   0  0  0  1  0  0  0  0  0  0  0  0
    3.8627   -0.7688   -2.0200 H   0  0  0  1  0  0  0  0  0  0  0  0
    4.6865    0.2885   -3.1415 H   0  0  0  1  0  0  0  0  0  0  0  0
    2.8215   -0.3044   -3.7088 O   0  0  0  1  0  0  0  0  0  0  0  0
    2.9930    0.0329   -4.5911 H   0  0  0  1  0  0  0  0  0  0  0  0
    4.7871   -1.7766   -3.6528 C   0  0  0  1  0  0  0  0  0  0  0  0
    5.0120   -1.5408   -4.6720 H   0  0  0  1  0  0  0  0  0  0  0  0
    3.9471   -2.9274   -3.6229 O   0  0  0  1  0  0  0  0  0  0  0  0
    4.4080   -3.6493   -3.1892 H   0  0  0  1  0  0  0  0  0  0  0  0
    6.0883   -2.1340   -2.9708 C   0  0  0  1  0  0  0  0  0  0  0  0
    6.5828   -2.9037   -3.5258 H   0  0  0  1  0  0  0  0  0  0  0  0
   13.2881   -3.3065   -1.9869 O   0  0  0  1  0  0  0  0  0  0  0  0
   22.4447   -5.7011   -6.5188 O   0  0  0  1  0  0  0  0  0  0  0  0
   22.4785   -7.1734   -7.2160 P   0  0  0  1  0  0  0  0  0  0  0  0
   20.9648   -7.6154   -6.9090 O   0  0  0  1  0  0  0  0  0  0  0  0
   23.4433   -8.0340   -6.4845 O   0  0  0  0  0  0  0  0  0  0  0  0
   22.5949   -6.9992   -8.6854 O   0  0  0  1  0  0  0  0  0  0  0  0
   20.1891   -8.3076   -5.7508 P   0  0  0  1  0  0  0  0  0  0  0  0
   20.3725   -7.4555   -4.4495 O   0  0  0  1  0  0  0  0  0  0  0  0
   20.8382   -9.6570   -5.4284 O   0  0  0  0  0  0  0  0  0  0  0  0
   18.7707   -8.4159   -6.1645 O   0  0  0  1  0  0  0  0  0  0  0  0
   21.3857   -4.7840   -6.8855 C   0  0  0  1  0  0  0  0  0  0  0  0
   20.4279   -5.2113   -6.6737 H   0  0  0  1  0  0  0  0  0  0  0  0
   21.4448   -4.5373   -7.9250 H   0  0  0  1  0  0  0  0  0  0  0  0
   21.6190   -3.5666   -6.0401 C   0  0  0  1  0  0  0  0  0  0  0  0
   21.8172   -3.7327   -5.0328 H   0  0  0  1  0  0  0  0  0  0  0  0
   21.5997   -2.3003   -6.4386 C   0  0  0  1  0  0  0  0  0  0  0  0
   22.1659   -1.2041   -5.5834 C   0  0  0  1  0  0  0  0  0  0  0  0
   23.0452   -0.8077   -6.0468 H   0  0  0  1  0  0  0  0  0  0  0  0
   22.4169   -1.5970   -4.6203 H   0  0  0  1  0  0  0  0  0  0  0  0
   21.4394   -0.4264   -5.4737 H   0  0  0  1  0  0  0  0  0  0  0  0
   21.0259   -1.8421   -7.7498 C   0  0  0  1  0  0  0  0  0  0  0  0
   21.7670   -1.9732   -8.5103 H   0  0  0  1  0  0  0  0  0  0  0  0
   20.7771   -0.8046   -7.6687 H   0  0  0  1  0  0  0  0  0  0  0  0
   19.7772   -2.6089   -8.1537 C   0  0  0  1  0  0  0  0  0  0  0  0
   19.0073   -2.4069   -7.4386 H   0  0  0  1  0  0  0  0  0  0  0  0
   20.0034   -3.6547   -8.1493 H   0  0  0  1  0  0  0  0  0  0  0  0
   19.2714   -2.2339   -9.5210 C   0  0  0  1  0  0  0  0  0  0  0  0
   19.7504   -1.4533  -10.0139 H   0  0  0  1  0  0  0  0  0  0  0  0
   18.2587   -2.8258  -10.1452 C   0  0  0  1  0  0  0  0  0  0  0  0
   17.5659   -2.2459  -11.3458 C   0  0  0  1  0  0  0  0  0  0  0  0
   17.8950   -1.2389  -11.4963 H   0  0  0  1  0  0  0  0  0  0  0  0
   16.5080   -2.2550  -11.1857 H   0  0  0  1  0  0  0  0  0  0  0  0
   17.8014   -2.8308  -12.2102 H   0  0  0  1  0  0  0  0  0  0  0  0
   17.7191   -4.1484   -9.6866 C   0  0  0  1  0  0  0  0  0  0  0  0
   17.1835   -3.9992   -8.7724 H   0  0  0  1  0  0  0  0  0  0  0  0
   18.5417   -4.8107   -9.5147 H   0  0  0  1  0  0  0  0  0  0  0  0
   16.7828   -4.7919  -10.6964 C   0  0  0  1  0  0  0  0  0  0  0  0
   17.2345   -4.7342  -11.6647 H   0  0  0  1  0  0  0  0  0  0  0  0
   15.8605   -4.2494  -10.6997 H   0  0  0  1  0  0  0  0  0  0  0  0
   16.4881   -6.2361  -10.3905 C   0  0  0  1  0  0  0  0  0  0  0  0
   17.2637   -6.9197  -10.5029 H   0  0  0  1  0  0  0  0  0  0  0  0
   15.3110   -6.7024   -9.9876 C   0  0  0  1  0  0  0  0  0  0  0  0
   14.0966   -5.8375   -9.7798 C   0  0  0  1  0  0  0  0  0  0  0  0
   14.1893   -4.9668  -10.3949 H   0  0  0  1  0  0  0  0  0  0  0  0
   14.0583   -5.5456   -8.7511 H   0  0  0  1  0  0  0  0  0  0  0  0
   15.0994   -8.1627   -9.7025 C   0  0  0  1  0  0  0  0  0  0  0  0
   15.4149   -8.3810   -8.7037 H   0  0  0  1  0  0  0  0  0  0  0  0
   15.6714   -8.7471  -10.3927 H   0  0  0  1  0  0  0  0  0  0  0  0
   14.0614   -8.3998   -9.8083 H   0  0  0  1  0  0  0  0  0  0  0  0
   12.7965   -6.5420  -10.1315 C   0  0  0  1  0  0  0  0  0  0  0  0
   12.7925   -7.4923   -9.6397 H   0  0  0  1  0  0  0  0  0  0  0  0
   12.7766   -6.6883  -11.1913 H   0  0  0  1  0  0  0  0  0  0  0  0
   11.5401   -5.8112   -9.7399 C   0  0  0  1  0  0  0  0  0  0  0  0
   11.3098   -5.7587   -8.7271 H   0  0  0  1  0  0  0  0  0  0  0  0
   10.7041   -5.2287  -10.5910 C   0  0  0  1  0  0  0  0  0  0  0  0
   10.9541   -5.2529  -12.0698 C   0  0  0  1  0  0  0  0  0  0  0  0
   11.9705   -5.5526  -12.2178 H   0  0  0  1  0  0  0  0  0  0  0  0
   10.8192   -4.2557  -12.4336 H   0  0  0  1  0  0  0  0  0  0  0  0
    9.4566   -4.5054  -10.1770 C   0  0  0  1  0  0  0  0  0  0  0  0
    8.6006   -5.0249  -10.5542 H   0  0  0  1  0  0  0  0  0  0  0  0
    9.4731   -3.5113  -10.5725 H   0  0  0  1  0  0  0  0  0  0  0  0
    9.4064   -4.4641   -9.1090 H   0  0  0  1  0  0  0  0  0  0  0  0
   10.0826   -6.1673  -12.9153 C   0  0  0  1  0  0  0  0  0  0  0  0
   10.3741   -6.0642  -13.9396 H   0  0  0  1  0  0  0  0  0  0  0  0
    9.0623   -5.8655  -12.8022 H   0  0  0  1  0  0  0  0  0  0  0  0
   10.1983   -7.6058  -12.5305 C   0  0  0  1  0  0  0  0  0  0  0  0
   11.1294   -8.0634  -12.6023 H   0  0  0  1  0  0  0  0  0  0  0  0
    9.1662   -8.3325  -12.0994 C   0  0  0  1  0  0  0  0  0  0  0  0
    7.8000   -7.7152  -11.9788 C   0  0  0  1  0  0  0  0  0  0  0  0
    7.6826   -7.0145  -12.7789 H   0  0  0  1  0  0  0  0  0  0  0  0
    7.7523   -7.1996  -11.0425 H   0  0  0  1  0  0  0  0  0  0  0  0
    9.3518   -9.7253  -11.6393 C   0  0  0  1  0  0  0  0  0  0  0  0
    8.3978  -10.1631  -11.4317 H   0  0  0  1  0  0  0  0  0  0  0  0
    9.9474   -9.7306  -10.7503 H   0  0  0  1  0  0  0  0  0  0  0  0
    9.8447  -10.2902  -12.4027 H   0  0  0  1  0  0  0  0  0  0  0  0
    6.6365   -8.6916  -12.0362 C   0  0  0  1  0  0  0  0  0  0  0  0
    5.7265   -8.1332  -12.1065 H   0  0  0  1  0  0  0  0  0  0  0  0
    6.6322   -9.2696  -11.1358 H   0  0  0  1  0  0  0  0  0  0  0  0
    6.7133   -9.6322  -13.2090 C   0  0  0  1  0  0  0  0  0  0  0  0
    7.0686   -9.2511  -14.1090 H   0  0  0  1  0  0  0  0  0  0  0  0
    6.3610  -10.9130  -13.1800 C   0  0  0  1  0  0  0  0  0  0  0  0
    6.1414  -11.6880  -11.9133 C   0  0  0  1  0  0  0  0  0  0  0  0
    5.1843  -12.1619  -11.9780 H   0  0  0  1  0  0  0  0  0  0  0  0
    6.1424  -10.9950  -11.0980 H   0  0  0  1  0  0  0  0  0  0  0  0
    6.1516  -11.6986  -14.4414 C   0  0  0  1  0  0  0  0  0  0  0  0
    6.0280  -11.0263  -15.2645 H   0  0  0  1  0  0  0  0  0  0  0  0
    5.2758  -12.3053  -14.3421 H   0  0  0  1  0  0  0  0  0  0  0  0
    7.0016  -12.3244  -14.6168 H   0  0  0  1  0  0  0  0  0  0  0  0
    7.1768  -12.7609  -11.6180 C   0  0  0  1  0  0  0  0  0  0  0  0
    8.1020  -12.2733  -11.3916 H   0  0  0  1  0  0  0  0  0  0  0  0
    7.2938  -13.3579  -12.4983 H   0  0  0  1  0  0  0  0  0  0  0  0
    6.8466  -13.6750  -10.4811 C   0  0  0  1  0  0  0  0  0  0  0  0
    5.9021  -14.1101  -10.4953 H   0  0  0  1  0  0  0  0  0  0  0  0
    7.6325  -13.9928   -9.4506 C   0  0  0  1  0  0  0  0  0  0  0  0
    9.0498  -13.5043   -9.3744 C   0  0  0  1  0  0  0  0  0  0  0  0
    9.3168  -13.0845  -10.3217 H   0  0  0  1  0  0  0  0  0  0  0  0
    9.6862  -14.3375   -9.1608 H   0  0  0  1  0  0  0  0  0  0  0  0
    7.1304  -14.8524   -8.3248 C   0  0  0  1  0  0  0  0  0  0  0  0
    6.9958  -14.2519   -7.4495 H   0  0  0  1  0  0  0  0  0  0  0  0
    7.8424  -15.6247   -8.1212 H   0  0  0  1  0  0  0  0  0  0  0  0
    6.1954  -15.2927   -8.6022 H   0  0  0  1  0  0  0  0  0  0  0  0
    9.2588  -12.4483   -8.3012 C   0  0  0  1  0  0  0  0  0  0  0  0
   10.3045  -12.4069   -8.0780 H   0  0  0  1  0  0  0  0  0  0  0  0
    8.7192  -12.7530   -7.4289 H   0  0  0  1  0  0  0  0  0  0  0  0
    8.8065  -11.0596   -8.6656 C   0  0  0  1  0  0  0  0  0  0  0  0
    9.1109  -10.7014   -9.5933 H   0  0  0  1  0  0  0  0  0  0  0  0
    8.0610  -10.2425   -7.9312 C   0  0  0  1  0  0  0  0  0  0  0  0
    7.5615  -10.6488   -6.5737 C   0  0  0  1  0  0  0  0  0  0  0  0
    7.8229  -11.6748   -6.4192 H   0  0  0  1  0  0  0  0  0  0  0  0
    6.4964  -10.5471   -6.5698 H   0  0  0  1  0  0  0  0  0  0  0  0
    7.6495   -8.8663   -8.3657 C   0  0  0  1  0  0  0  0  0  0  0  0
    7.6090   -8.8263   -9.4342 H   0  0  0  1  0  0  0  0  0  0  0  0
    8.3619   -8.1521   -8.0090 H   0  0  0  1  0  0  0  0  0  0  0  0
    6.6842   -8.6393   -7.9637 H   0  0  0  1  0  0  0  0  0  0  0  0
    8.1137   -9.8438   -5.4085 C   0  0  0  1  0  0  0  0  0  0  0  0
    7.7113   -8.8536   -5.4577 H   0  0  0  1  0  0  0  0  0  0  0  0
    9.1791   -9.8013   -5.4985 H   0  0  0  1  0  0  0  0  0  0  0  0
    7.7716  -10.4312   -4.0762 C   0  0  0  1  0  0  0  0  0  0  0  0
    8.1022  -11.4011   -3.8984 H   0  0  0  1  0  0  0  0  0  0  0  0
    7.0915   -9.8487   -3.0959 C   0  0  0  1  0  0  0  0  0  0  0  0
    6.8202  -10.5618   -1.8031 C   0  0  0  1  0  0  0  0  0  0  0  0
    6.9135  -11.6148   -1.9690 H   0  0  0  1  0  0  0  0  0  0  0  0
    5.8213  -10.3362   -1.4929 H   0  0  0  1  0  0  0  0  0  0  0  0
    6.5369   -8.4541   -3.1732 C   0  0  0  1  0  0  0  0  0  0  0  0
    7.0610   -7.8962   -2.4255 H   0  0  0  1  0  0  0  0  0  0  0  0
    5.4866   -8.4577   -2.9692 H   0  0  0  1  0  0  0  0  0  0  0  0
    6.7112   -8.0357   -4.1424 H   0  0  0  1  0  0  0  0  0  0  0  0
    7.7747  -10.1609   -0.6902 C   0  0  0  1  0  0  0  0  0  0  0  0
    7.8294   -9.0934   -0.6426 H   0  0  0  1  0  0  0  0  0  0  0  0
    8.7453  -10.5593   -0.9001 H   0  0  0  1  0  0  0  0  0  0  0  0
    7.3031  -10.6871    0.6281 C   0  0  0  1  0  0  0  0  0  0  0  0
    6.5477  -10.1491    1.0987 H   0  0  0  1  0  0  0  0  0  0  0  0
    7.7451  -11.7685    1.2639 C   0  0  0  1  0  0  0  0  0  0  0  0
    8.8227  -12.6017    0.6329 C   0  0  0  1  0  0  0  0  0  0  0  0
    9.5113  -11.9647    0.1182 H   0  0  0  1  0  0  0  0  0  0  0  0
    8.3829  -13.2864   -0.0618 H   0  0  0  1  0  0  0  0  0  0  0  0
    9.3418  -13.1477    1.3926 H   0  0  0  1  0  0  0  0  0  0  0  0
    7.2562  -12.2618    2.6040 C   0  0  0  1  0  0  0  0  0  0  0  0
    6.2334  -12.5522    2.4838 H   0  0  0  1  0  0  0  0  0  0  0  0
    7.3314  -11.4803    3.3311 H   0  0  0  1  0  0  0  0  0  0  0  0
    7.8399  -13.1010    2.9200 H   0  0  0  1  0  0  0  0  0  0  0  0
   16.1563   -5.1846   -1.8259 C   0  0  0  1  0  0  0  0  0  0  0  0
   16.4481   -5.7489   -0.9649 H   0  0  0  1  0  0  0  0  0  0  0  0
   14.8722   -5.7671   -2.3853 C   0  0  0  1  0  0  0  0  0  0  0  0
   15.0822   -6.7349   -2.7904 H   0  0  0  1  0  0  0  0  0  0  0  0
   15.9900   -3.8308   -1.4536 O   0  0  0  1  0  0  0  0  0  0  0  0
   14.2697   -4.9012   -3.4789 C   0  0  0  1  0  0  0  0  0  0  0  0
   13.2756   -5.2378   -3.6869 H   0  0  0  1  0  0  0  0  0  0  0  0
   15.5964   -2.9956   -2.5577 C   0  0  0  1  0  0  0  0  0  0  0  0
   16.3073   -3.0891   -3.3520 H   0  0  0  1  0  0  0  0  0  0  0  0
   14.2238   -3.4473   -3.0411 C   0  0  0  1  0  0  0  0  0  0  0  0
   13.9236   -2.8391   -3.8687 H   0  0  0  1  0  0  0  0  0  0  0  0
   17.1735   -5.2703   -2.8171 O   0  0  0  1  0  0  0  0  0  0  0  0
   13.9238   -5.8900   -1.3234 O   0  0  0  1  0  0  0  0  0  0  0  0
   13.8505   -5.0521   -0.8606 H   0  0  0  1  0  0  0  0  0  0  0  0
   15.0708   -5.0122   -4.6639 O   0  0  0  1  0  0  0  0  0  0  0  0
   15.8316   -5.5698   -4.4854 H   0  0  0  1  0  0  0  0  0  0  0  0
   15.5289   -1.5461   -2.1051 C   0  0  0  1  0  0  0  0  0  0  0  0
   15.6832   -1.4946   -1.0476 H   0  0  0  1  0  0  0  0  0  0  0  0
   14.5677   -1.1422   -2.3452 H   0  0  0  1  0  0  0  0  0  0  0  0
   16.2885   -0.9813   -2.6040 H   0  0  0  1  0  0  0  0  0  0  0  0
   19.5185   -6.3589   -4.1728 C   0  0  0  1  0  0  0  0  0  0  0  0
   18.5620   -6.5291   -4.6212 H   0  0  0  1  0  0  0  0  0  0  0  0
   19.3562   -6.2122   -2.6844 C   0  0  0  1  0  0  0  0  0  0  0  0
   20.3182   -6.0872   -2.2331 H   0  0  0  1  0  0  0  0  0  0  0  0
   20.0839   -5.1751   -4.7019 O   0  0  0  1  0  0  0  0  0  0  0  0
   18.5042   -5.0141   -2.3807 C   0  0  0  1  0  0  0  0  0  0  0  0
   18.5072   -4.8443   -1.3243 H   0  0  0  1  0  0  0  0  0  0  0  0
   19.1894   -4.0573   -4.5587 C   0  0  0  1  0  0  0  0  0  0  0  0
   19.6016   -3.1983   -5.0455 H   0  0  0  1  0  0  0  0  0  0  0  0
   19.0198   -3.7770   -3.0783 C   0  0  0  1  0  0  0  0  0  0  0  0
   18.3216   -2.9772   -2.9457 H   0  0  0  1  0  0  0  0  0  0  0  0
   18.7180   -7.4084   -2.1471 N   0  0  0  1  0  0  0  0  0  0  0  0
   17.7576   -7.3856   -1.9534 H   0  0  0  1  0  0  0  0  0  0  0  0
   20.2820   -3.4068   -2.5174 O   0  0  0  1  0  0  0  0  0  0  0  0
   20.1499   -2.5588   -2.0874 H   0  0  0  1  0  0  0  0  0  0  0  0
   17.8583   -4.3891   -5.1696 C   0  0  0  1  0  0  0  0  0  0  0  0
   17.4394   -3.5083   -5.6094 H   0  0  0  1  0  0  0  0  0  0  0  0
   17.2003   -4.7568   -4.4102 H   0  0  0  1  0  0  0  0  0  0  0  0
   18.0260   -5.3835   -6.1714 O   0  0  0  1  0  0  0  0  0  0  0  0
   17.1822   -5.8217   -6.3037 H   0  0  0  1  0  0  0  0  0  0  0  0
   19.3961   -8.5324   -1.9102 C   0  0  0  1  0  0  0  0  0  0  0  0
   20.5984   -8.6510   -2.1425 O   0  0  0  1  0  0  0  0  0  0  0  0
   18.5926   -9.6742   -1.3300 C   0  0  0  1  0  0  0  0  0  0  0  0
   19.3286  -10.3798   -1.0053 H   0  0  0  1  0  0  0  0  0  0  0  0
   17.9568  -10.1061   -2.0744 H   0  0  0  1  0  0  0  0  0  0  0  0
   17.9998   -9.3389   -0.5048 H   0  0  0  1  0  0  0  0  0  0  0  0
  1  2  1  0  0  0  0
  1  3  1  0  0  0  0
  1  4  1  0  0  0  0
  1 44  1  0  0  0  0
  3 20  1  0  0  0  0
  4  5  1  0  0  0  0
  4  6  1  0  0  0  0
  4  8  1  0  0  0  0
  6  7  1  0  0  0  0
  8  9  1  0  0  0  0
  8 10  1  0  0  0  0
  8 20  1  0  0  0  0
 10 11  1  0  0  0  0
 12 13  1  0  0  0  0
 12 14  1  0  0  0  0
 12 15  1  0  0  0  0
 12 17  1  0  0  0  0
 15 16  1  0  0  0  0
 17 18  1  0  0  0  0
 17 19  1  0  0  0  0
 17 20  1  0  0  0  0
 19 22  1  0  0  0  0
 20 21  1  0  0  0  0
 22 23  1  0  0  0  0
 22 24  1  0  0  0  0
 22 25  1  0  0  0  0
 24 42  1  0  0  0  0
 25 26  1  0  0  0  0
 25 27  1  0  0  0  0
 25 29  1  0  0  0  0
 27 28  1  0  0  0  0
 29 30  1  0  0  0  0
 29 31  1  0  0  0  0
 29 42  1  0  0  0  0
 31 32  1  0  0  0  0
 33 34  1  0  0  0  0
 33 35  1  0  0  0  0
 33 36  1  0  0  0  0
 33 38  1  0  0  0  0
 36 37  1  0  0  0  0
 38 39  1  0  0  0  0
 38 40  1  0  0  0  0
 38 42  1  0  0  0  0
 40 41  1  0  0  0  0
 42 43  1  0  0  0  0
 44194  1  0  0  0  0
 45 46  1  0  0  0  0
 45 54  1  0  0  0  0
 46 47  1  0  0  0  0
 46 48  1  0  0  0  0
 46 49  2  0  0  0  0
 47 50  1  0  0  0  0
 50 51  1  0  0  0  0
 50 52  1  0  0  0  0
 50 53  2  0  0  0  0
 51205  1  0  0  0  0
 54 55  1  0  0  0  0
 54 56  1  0  0  0  0
 54 57  1  0  0  0  0
 57 58  1  0  0  0  0
 57 59  2  0  0  0  0
 59 60  1  0  0  0  0
 59 64  1  0  0  0  0
 60 61  1  0  0  0  0
 60 62  1  0  0  0  0
 60 63  1  0  0  0  0
 64 65  1  0  0  0  0
 64 66  1  0  0  0  0
 64 67  1  0  0  0  0
 67 68  1  0  0  0  0
 67 69  1  0  0  0  0
 67 70  1  0  0  0  0
 70 71  1  0  0  0  0
 70 72  2  0  0  0  0
 72 73  1  0  0  0  0
 72 77  1  0  0  0  0
 73 74  1  0  0  0  0
 73 75  1  0  0  0  0
 73 76  1  0  0  0  0
 77 78  1  0  0  0  0
 77 79  1  0  0  0  0
 77 80  1  0  0  0  0
 80 81  1  0  0  0  0
 80 82  1  0  0  0  0
 80 83  1  0  0  0  0
 83 84  1  0  0  0  0
 83 85  2  0  0  0  0
 85 86  1  0  0  0  0
 85 89  1  0  0  0  0
 86 87  1  0  0  0  0
 86 88  1  0  0  0  0
 86 93  1  0  0  0  0
 89 90  1  0  0  0  0
 89 91  1  0  0  0  0
 89 92  1  0  0  0  0
 93 94  1  0  0  0  0
 93 95  1  0  0  0  0
 93 96  1  0  0  0  0
 96 97  1  0  0  0  0
 96 98  2  0  0  0  0
 98 99  1  0  0  0  0
 98102  1  0  0  0  0
 99100  1  0  0  0  0
 99101  1  0  0  0  0
 99106  1  0  0  0  0
102103  1  0  0  0  0
102104  1  0  0  0  0
102105  1  0  0  0  0
106107  1  0  0  0  0
106108  1  0  0  0  0
106109  1  0  0  0  0
109110  1  0  0  0  0
109111  2  0  0  0  0
111112  1  0  0  0  0
111115  1  0  0  0  0
112113  1  0  0  0  0
112114  1  0  0  0  0
112119  1  0  0  0  0
115116  1  0  0  0  0
115117  1  0  0  0  0
115118  1  0  0  0  0
119120  1  0  0  0  0
119121  1  0  0  0  0
119122  1  0  0  0  0
122123  1  0  0  0  0
122124  2  0  0  0  0
124125  1  0  0  0  0
124128  1  0  0  0  0
125126  1  0  0  0  0
125127  1  0  0  0  0
125132  1  0  0  0  0
128129  1  0  0  0  0
128130  1  0  0  0  0
128131  1  0  0  0  0
132133  1  0  0  0  0
132134  1  0  0  0  0
132135  1  0  0  0  0
135136  1  0  0  0  0
135137  2  0  0  0  0
137138  1  0  0  0  0
137141  1  0  0  0  0
138139  1  0  0  0  0
138140  1  0  0  0  0
138145  1  0  0  0  0
141142  1  0  0  0  0
141143  1  0  0  0  0
141144  1  0  0  0  0
145146  1  0  0  0  0
145147  1  0  0  0  0
145148  1  0  0  0  0
148149  1  0  0  0  0
148150  2  0  0  0  0
150151  1  0  0  0  0
150154  1  0  0  0  0
151152  1  0  0  0  0
151153  1  0  0  0  0
151158  1  0  0  0  0
154155  1  0  0  0  0
154156  1  0  0  0  0
154157  1  0  0  0  0
158159  1  0  0  0  0
158160  1  0  0  0  0
158161  1  0  0  0  0
161162  1  0  0  0  0
161163  2  0  0  0  0
163164  1  0  0  0  0
163167  1  0  0  0  0
164165  1  0  0  0  0
164166  1  0  0  0  0
164171  1  0  0  0  0
167168  1  0  0  0  0
167169  1  0  0  0  0
167170  1  0  0  0  0
171172  1  0  0  0  0
171173  1  0  0  0  0
171174  1  0  0  0  0
174175  1  0  0  0  0
174176  2  0  0  0  0
176177  1  0  0  0  0
176181  1  0  0  0  0
177178  1  0  0  0  0
177179  1  0  0  0  0
177180  1  0  0  0  0
181182  1  0  0  0  0
181183  1  0  0  0  0
181184  1  0  0  0  0
185186  1  0  0  0  0
185187  1  0  0  0  0
185189  1  0  0  0  0
185196  1  0  0  0  0
187188  1  0  0  0  0
187190  1  0  0  0  0
187197  1  0  0  0  0
189192  1  0  0  0  0
190191  1  0  0  0  0
190194  1  0  0  0  0
190199  1  0  0  0  0
192193  1  0  0  0  0
192194  1  0  0  0  0
192201  1  0  0  0  0
194195  1  0  0  0  0
196210  1  0  0  0  0
197198  1  0  0  0  0
199200  1  0  0  0  0
201202  1  0  0  0  0
201203  1  0  0  0  0
201204  1  0  0  0  0
205206  1  0  0  0  0
205207  1  0  0  0  0
205209  1  0  0  0  0
207208  1  0  0  0  0
207210  1  0  0  0  0
207216  1  0  0  0  0
209212  1  0  0  0  0
210211  1  0  0  0  0
210214  1  0  0  0  0
212213  1  0  0  0  0
212214  1  0  0  0  0
212220  1  0  0  0  0
214215  1  0  0  0  0
214218  1  0  0  0  0
216217  1  0  0  0  0
216225  1  0  0  0  0
218219  1  0  0  0  0
220221  1  0  0  0  0
220222  1  0  0  0  0
220223  1  0  0  0  0
223224  1  0  0  0  0
225226  2  0  0  0  0
225227  1  0  0  0  0
227228  1  0  0  0  0
227229  1  0  0  0  0
227230  1  0  0  0  0
M  BCL ATM C_TeTeTeTe H_S O_Te2Te2TeTe C_TeTeTeTe H_S O_Te2Te2TeTe H_S C_TeTeTeTe H_S O_Te2Te2TeTe H_S C_TeTeTeTe H_S H_S O_Te2Te2TeTe H_S C_TeTeTeTe H_S O_Te2Te2TeTe C_TeTeTeTe H_S C_TeTeTeTe H_S O_Te2Te2TeTe C_TeTeTeTe H_S O_Te2Te2TeTe H_S C_TeTeTeTe H_S O_Te2Te2TeTe H_S C_TeTeTeTe H_S H_S O_Te2Te2TeTe H_S C_TeTeTeTe H_S O_Te2Te2TeTe H_S C_TeTeTeTe H_S O_Te2Te2TeTe O_Tr2TrTrPi2 P_TeTeTeTePi O_Tr2TrTrPi2 O_Te2Te2TeTe O_Tr2Tr2TrPi P_TeTeTeTePi O_Tr2TrTrPi2 O_Te2Te2TeTe O_Tr2Tr2TrPi C_TeTeTeTe H_S H_S C_TrTrTrPi H_S C_TrTrTrPi C_TeTeTeTe H_S H_S H_S C_TeTeTeTe H_S H_S C_TeTeTeTe H_S H_S C_TrTrTrPi H_S C_TrTrTrPi C_TeTeTeTe H_S H_S H_S C_TeTeTeTe H_S H_S C_TeTeTeTe H_S H_S C_TrTrTrPi H_S C_TrTrTrPi C_TeTeTeTe H_S H_S C_TeTeTeTe H_S H_S H_S C_TeTeTeTe H_S H_S C_TrTrTrPi H_S C_TrTrTrPi C_TeTeTeTe H_S H_S C_TeTeTeTe H_S H_S H_S C_TeTeTeTe H_S H_S C_TrTrTrPi H_S C_TrTrTrPi C_TeTeTeTe H_S H_S C_TeTeTeTe H_S H_S H_S C_TeTeTeTe H_S H_S C_TrTrTrPi H_S C_TrTrTrPi C_TeTeTeTe H_S H_S C_TeTeTeTe H_S H_S H_S C_TeTeTeTe H_S H_S C_TrTrTrPi H_S C_TrTrTrPi C_TeTeTeTe H_S H_S C_TeTeTeTe H_S H_S H_S C_TeTeTeTe H_S H_S C_TrTrTrPi H_S C_TrTrTrPi C_TeTeTeTe H_S H_S C_TeTeTeTe H_S H_S H_S C_TeTeTeTe H_S H_S C_TrTrTrPi H_S C_TrTrTrPi C_TeTeTeTe H_S H_S C_TeTeTeTe H_S H_S H_S C_TeTeTeTe H_S H_S C_TrTrTrPi H_S C_TrTrTrPi C_TeTeTeTe H_S H_S H_S C_TeTeTeTe H_S H_S H_S C_TeTeTeTe H_S C_TeTeTeTe H_S O_Te2Te2TeTe C_TeTeTeTe H_S C_TeTeTeTe H_S C_TeTeTeTe H_S O_Te2Te2TeTe O_Te2Te2TeTe H_S O_Te2Te2TeTe H_S C_TeTeTeTe H_S H_S H_S C_TeTeTeTe H_S C_TeTeTeTe H_S O_Te2Te2TeTe C_TeTeTeTe H_S C_TeTeTeTe H_S C_TeTeTeTe H_S N_TrTrTrPi2 H_S O_Te2Te2TeTe H_S C_TeTeTeTe H_S H_S O_Te2Te2TeTe H_S C_TrTrTrPi O_Tr2Tr2TrPi C_TeTeTeTe H_S H_S H_S
M  BCL BND NonConjugatedSingleBond NonConjugatedSingleBondInRing NonConjugatedSingleBondInRing NonConjugatedSingleBond NonConjugatedSingleBondInRing NonConjugatedSingleBond NonConjugatedSingleBond NonConjugatedSingleBondInRing NonConjugatedSingleBond NonConjugatedSingleBond NonConjugatedSingleBond NonConjugatedSingleBondInRing NonConjugatedSingleBond NonConjugatedSingleBond NonConjugatedSingleBond NonConjugatedSingleBond NonConjugatedSingleBond NonConjugatedSingleBond NonConjugatedSingleBond NonConjugatedSingleBond NonConjugatedSingleBond NonConjugatedSingleBond NonConjugatedSingleBond NonConjugatedSingleBond NonConjugatedSingleBondInRing NonConjugatedSingleBondInRing NonConjugatedSingleBondInRing NonConjugatedSingleBond NonConjugatedSingleBond NonConjugatedSingleBondInRing NonConjugatedSingleBond NonConjugatedSingleBond NonConjugatedSingleBond NonConjugatedSingleBondInRing NonConjugatedSingleBond NonConjugatedSingleBond NonConjugatedSingleBond NonConjugatedSingleBond NonConjugatedSingleBond NonConjugatedSingleBond NonConjugatedSingleBond NonConjugatedSingleBond NonConjugatedSingleBond NonConjugatedSingleBond NonConjugatedSingleBond NonConjugatedSingleBond ConjugatedSingleBond NonConjugatedSingleBond ConjugatedSingleBond ConjugatedSingleBond ConjugatedDoubleBond ConjugatedSingleBond ConjugatedSingleBond ConjugatedSingleBond ConjugatedDoubleBond NonConjugatedSingleBond NonConjugatedSingleBond NonConjugatedSingleBond NonConjugatedSingleBond NonConjugatedSingleBond ConjugatedDoubleBond NonConjugatedSingleBond NonConjugatedSingleBond NonConjugatedSingleBond NonConjugatedSingleBond NonConjugatedSingleBond NonConjugatedSingleBond NonConjugatedSingleBond NonConjugatedSingleBond NonConjugatedSingleBond NonConjugatedSingleBond NonConjugatedSingleBond NonConjugatedSingleBond ConjugatedDoubleBond NonConjugatedSingleBond NonConjugatedSingleBond NonConjugatedSingleBond NonConjugatedSingleBond NonConjugatedSingleBond NonConjugatedSingleBond NonConjugatedSingleBond NonConjugatedSingleBond NonConjugatedSingleBond NonConjugatedSingleBond NonConjugatedSingleBond NonConjugatedSingleBond ConjugatedDoubleBond NonConjugatedSingleBond NonConjugatedSingleBond NonConjugatedSingleBond NonConjugatedSingleBond NonConjugatedSingleBond NonConjugatedSingleBond NonConjugatedSingleBond NonConjugatedSingleBond NonConjugatedSingleBond NonConjugatedSingleBond NonConjugatedSingleBond NonConjugatedSingleBond ConjugatedDoubleBond NonConjugatedSingleBond NonConjugatedSingleBond NonConjugatedSingleBond NonConjugatedSingleBond NonConjugatedSingleBond NonConjugatedSingleBond NonConjugatedSingleBond NonConjugatedSingleBond NonConjugatedSingleBond NonConjugatedSingleBond NonConjugatedSingleBond NonConjugatedSingleBond ConjugatedDoubleBond NonConjugatedSingleBond NonConjugatedSingleBond NonConjugatedSingleBond NonConjugatedSingleBond NonConjugatedSingleBond NonConjugatedSingleBond NonConjugatedSingleBond NonConjugatedSingleBond NonConjugatedSingleBond NonConjugatedSingleBond NonConjugatedSingleBond NonConjugatedSingleBond ConjugatedDoubleBond NonConjugatedSingleBond NonConjugatedSingleBond NonConjugatedSingleBond NonConjugatedSingleBond NonConjugatedSingleBond NonConjugatedSingleBond NonConjugatedSingleBond NonConjugatedSingleBond NonConjugatedSingleBond NonConjugatedSingleBond NonConjugatedSingleBond NonConjugatedSingleBond ConjugatedDoubleBond NonConjugatedSingleBond NonConjugatedSingleBond NonConjugatedSingleBond NonConjugatedSingleBond NonConjugatedSingleBond NonConjugatedSingleBond NonConjugatedSingleBond NonConjugatedSingleBond NonConjugatedSingleBond NonConjugatedSingleBond NonConjugatedSingleBond NonConjugatedSingleBond ConjugatedDoubleBond NonConjugatedSingleBond NonConjugatedSingleBond NonConjugatedSingleBond NonConjugatedSingleBond NonConjugatedSingleBond NonConjugatedSingleBond NonConjugatedSingleBond NonConjugatedSingleBond NonConjugatedSingleBond NonConjugatedSingleBond NonConjugatedSingleBond NonConjugatedSingleBond ConjugatedDoubleBond NonConjugatedSingleBond NonConjugatedSingleBond NonConjugatedSingleBond NonConjugatedSingleBond NonConjugatedSingleBond NonConjugatedSingleBond NonConjugatedSingleBond NonConjugatedSingleBond NonConjugatedSingleBond NonConjugatedSingleBond NonConjugatedSingleBond NonConjugatedSingleBond ConjugatedDoubleBond NonConjugatedSingleBond NonConjugatedSingleBond NonConjugatedSingleBond NonConjugatedSingleBond NonConjugatedSingleBond NonConjugatedSingleBond NonConjugatedSingleBond NonConjugatedSingleBond NonConjugatedSingleBond NonConjugatedSingleBondInRing NonConjugatedSingleBondInRing NonConjugatedSingleBond NonConjugatedSingleBond NonConjugatedSingleBondInRing NonConjugatedSingleBond NonConjugatedSingleBondInRing NonConjugatedSingleBond NonConjugatedSingleBondInRing NonConjugatedSingleBond NonConjugatedSingleBond NonConjugatedSingleBondInRing NonConjugatedSingleBond NonConjugatedSingleBond NonConjugatedSingleBond NonConjugatedSingleBond NonConjugatedSingleBond NonConjugatedSingleBond NonConjugatedSingleBond NonConjugatedSingleBond NonConjugatedSingleBond NonConjugatedSingleBondInRing NonConjugatedSingleBondInRing NonConjugatedSingleBond NonConjugatedSingleBondInRing NonConjugatedSingleBond NonConjugatedSingleBondInRing NonConjugatedSingleBond NonConjugatedSingleBondInRing NonConjugatedSingleBond NonConjugatedSingleBondInRing NonConjugatedSingleBond NonConjugatedSingleBond NonConjugatedSingleBond NonConjugatedSingleBond AmideSingleBond NonConjugatedSingleBond NonConjugatedSingleBond NonConjugatedSingleBond NonConjugatedSingleBond NonConjugatedSingleBond ConjugatedDoubleBond NonConjugatedSingleBond NonConjugatedSingleBond NonConjugatedSingleBond NonConjugatedSingleBond
M  BCL CHI   1   R   4   R   8   R  17   S  20   R  22   S  25   R  29   S  38   S  42   R  46   R  50   S 185   R 187   S 190   S 192   R 194   R 205   R 207   S 210   R 212   S 214   S
M  BCL DBI - - E E E E E E E E Z - -
M  END
> <ConfClashScore>
0.00421466 

> <ConfOneFourInteractionScore>
-0.96218 

> <ConfScore>
0.496105 

> <ConfScorePBest>
0.0123175 

> <ConfTolerance>
3.92146 

$$$$
L05.****
  PyMOL2.5          3D                             0

230233  0  0  0  0  0  0  0  0999 V2000
   12.0994   -3.9617   -2.7164 C   0  0  0  1  0  0  0  0  0  0  0  0
   12.3939   -4.9888   -2.7721 H   0  0  0  1  0  0  0  0  0  0  0  0
   11.5100   -3.5701   -3.9241 O   0  0  0  1  0  0  0  0  0  0  0  0
   11.0595   -3.7770   -1.5999 C   0  0  0  1  0  0  0  0  0  0  0  0
   11.2575   -2.8926   -1.0310 H   0  0  0  1  0  0  0  0  0  0  0  0
   11.0333   -4.9085   -0.7285 O   0  0  0  1  0  0  0  0  0  0  0  0
   10.3615   -5.5264   -1.0258 H   0  0  0  1  0  0  0  0  0  0  0  0
    9.7445   -3.6495   -2.3804 C   0  0  0  1  0  0  0  0  0  0  0  0
    9.2974   -4.6092   -2.5355 H   0  0  0  1  0  0  0  0  0  0  0  0
    8.8239   -2.7999   -1.6942 O   0  0  0  1  0  0  0  0  0  0  0  0
    8.6658   -2.0103   -2.2168 H   0  0  0  1  0  0  0  0  0  0  0  0
    9.0781   -4.9429   -5.0596 C   0  0  0  1  0  0  0  0  0  0  0  0
    8.5059   -5.0799   -5.9533 H   0  0  0  1  0  0  0  0  0  0  0  0
   10.0555   -5.3570   -5.1941 H   0  0  0  1  0  0  0  0  0  0  0  0
    8.4408   -5.6486   -4.0165 O   0  0  0  1  0  0  0  0  0  0  0  0
    7.5147   -5.3984   -3.9793 H   0  0  0  1  0  0  0  0  0  0  0  0
    9.2258   -3.4445   -4.8142 C   0  0  0  1  0  0  0  0  0  0  0  0
    8.2559   -3.0793   -4.5480 H   0  0  0  1  0  0  0  0  0  0  0  0
    9.6046   -2.8217   -6.0361 O   0  0  0  1  0  0  0  0  0  0  0  0
   10.1716   -3.0343   -3.6933 C   0  0  0  1  0  0  0  0  0  0  0  0
   10.1980   -1.9671   -3.6209 H   0  0  0  1  0  0  0  0  0  0  0  0
    9.5537   -1.4128   -5.9956 C   0  0  0  1  0  0  0  0  0  0  0  0
    9.8915   -1.0705   -5.0397 H   0  0  0  1  0  0  0  0  0  0  0  0
   10.3763   -0.8577   -7.0389 O   0  0  0  1  0  0  0  0  0  0  0  0
    8.1373   -0.9351   -6.2495 C   0  0  0  1  0  0  0  0  0  0  0  0
    7.9169   -0.0598   -5.6747 H   0  0  0  1  0  0  0  0  0  0  0  0
    7.1872   -1.9573   -5.9448 O   0  0  0  1  0  0  0  0  0  0  0  0
    6.2988   -1.6204   -6.0824 H   0  0  0  1  0  0  0  0  0  0  0  0
    8.1488   -0.6244   -7.7368 C   0  0  0  1  0  0  0  0  0  0  0  0
    7.4153    0.1135   -7.9865 H   0  0  0  1  0  0  0  0  0  0  0  0
    7.9259   -1.8019   -8.5165 O   0  0  0  1  0  0  0  0  0  0  0  0
    8.7031   -1.9854   -9.0491 H   0  0  0  1  0  0  0  0  0  0  0  0
   11.0264    1.9832   -7.6069 C   0  0  0  1  0  0  0  0  0  0  0  0
   11.6075    1.5430   -6.8236 H   0  0  0  1  0  0  0  0  0  0  0  0
   11.4759    1.7624   -8.5524 H   0  0  0  1  0  0  0  0  0  0  0  0
   11.0119    3.3920   -7.4270 O   0  0  0  1  0  0  0  0  0  0  0  0
   11.7635    3.7807   -7.8804 H   0  0  0  1  0  0  0  0  0  0  0  0
    9.6224    1.3759   -7.5771 C   0  0  0  1  0  0  0  0  0  0  0  0
    9.0286    1.9052   -8.2929 H   0  0  0  1  0  0  0  0  0  0  0  0
    9.0407    1.5411   -6.2866 O   0  0  0  1  0  0  0  0  0  0  0  0
    9.0695    2.4680   -6.0384 H   0  0  0  1  0  0  0  0  0  0  0  0
    9.5585   -0.0912   -7.9301 C   0  0  0  1  0  0  0  0  0  0  0  0
    9.8760   -0.2292   -8.9425 H   0  0  0  1  0  0  0  0  0  0  0  0
   13.2407   -3.1541   -2.4518 O   0  0  0  1  0  0  0  0  0  0  0  0
   22.4474   -4.8263   -7.5137 O   0  0  0  1  0  0  0  0  0  0  0  0
   21.0896   -4.5565   -6.7427 P   0  0  0  1  0  0  0  0  0  0  0  0
   21.5769   -4.0458   -5.2988 O   0  0  0  1  0  0  0  0  0  0  0  0
   20.3966   -5.8595   -6.6004 O   0  0  0  0  0  0  0  0  0  0  0  0
   20.3614   -3.4208   -7.3488 O   0  0  0  1  0  0  0  0  0  0  0  0
   21.9921   -4.9074   -4.0711 P   0  0  0  1  0  0  0  0  0  0  0  0
   21.0126   -6.1345   -3.9666 O   0  0  0  1  0  0  0  0  0  0  0  0
   21.7623   -4.1137   -2.7814 O   0  0  0  0  0  0  0  0  0  0  0  0
   23.3946   -5.3179   -4.2693 O   0  0  0  1  0  0  0  0  0  0  0  0
   23.3534   -3.7513   -7.8075 C   0  0  0  1  0  0  0  0  0  0  0  0
   23.6708   -3.3054   -6.8881 H   0  0  0  1  0  0  0  0  0  0  0  0
   22.8434   -3.0216   -8.4011 H   0  0  0  1  0  0  0  0  0  0  0  0
   24.5527   -4.2248   -8.5522 C   0  0  0  1  0  0  0  0  0  0  0  0
   25.2981   -3.5447   -8.8043 H   0  0  0  1  0  0  0  0  0  0  0  0
   24.6886   -5.5010   -8.9011 C   0  0  0  1  0  0  0  0  0  0  0  0
   25.7211   -5.8762   -9.9241 C   0  0  0  1  0  0  0  0  0  0  0  0
   26.5765   -6.2908   -9.4328 H   0  0  0  1  0  0  0  0  0  0  0  0
   26.0126   -5.0049  -10.4725 H   0  0  0  1  0  0  0  0  0  0  0  0
   25.3103   -6.6004  -10.5962 H   0  0  0  1  0  0  0  0  0  0  0  0
   23.8848   -6.6479   -8.3560 C   0  0  0  1  0  0  0  0  0  0  0  0
   23.6293   -6.4320   -7.3396 H   0  0  0  1  0  0  0  0  0  0  0  0
   24.4853   -7.5327   -8.3932 H   0  0  0  1  0  0  0  0  0  0  0  0
   22.6034   -6.8998   -9.1339 C   0  0  0  1  0  0  0  0  0  0  0  0
   22.8330   -6.8950  -10.1790 H   0  0  0  1  0  0  0  0  0  0  0  0
   21.9125   -6.1122   -8.9164 H   0  0  0  1  0  0  0  0  0  0  0  0
   21.9547   -8.2143   -8.7918 C   0  0  0  1  0  0  0  0  0  0  0  0
   22.1913   -8.6206   -7.8641 H   0  0  0  1  0  0  0  0  0  0  0  0
   21.1132   -8.9114   -9.5459 C   0  0  0  1  0  0  0  0  0  0  0  0
   20.5401  -10.2150   -9.0747 C   0  0  0  1  0  0  0  0  0  0  0  0
   20.9493  -11.0156   -9.6548 H   0  0  0  1  0  0  0  0  0  0  0  0
   19.4764  -10.1991   -9.1897 H   0  0  0  1  0  0  0  0  0  0  0  0
   20.7857  -10.3603   -8.0434 H   0  0  0  1  0  0  0  0  0  0  0  0
   20.6588   -8.4824  -10.9099 C   0  0  0  1  0  0  0  0  0  0  0  0
   21.4638   -7.9822  -11.4066 H   0  0  0  1  0  0  0  0  0  0  0  0
   19.8302   -7.8129  -10.8092 H   0  0  0  1  0  0  0  0  0  0  0  0
   20.2315   -9.6832  -11.7380 C   0  0  0  1  0  0  0  0  0  0  0  0
   19.8589   -9.3334  -12.6781 H   0  0  0  1  0  0  0  0  0  0  0  0
   19.4532  -10.1983  -11.2147 H   0  0  0  1  0  0  0  0  0  0  0  0
   21.3448  -10.6412  -11.9955 C   0  0  0  1  0  0  0  0  0  0  0  0
   22.1625  -10.2445  -12.5011 H   0  0  0  1  0  0  0  0  0  0  0  0
   21.4470  -11.9278  -11.6743 C   0  0  0  1  0  0  0  0  0  0  0  0
   20.4968  -12.5114  -10.6651 C   0  0  0  1  0  0  0  0  0  0  0  0
   19.7530  -11.7737  -10.4468 H   0  0  0  1  0  0  0  0  0  0  0  0
   21.0524  -12.7318   -9.7776 H   0  0  0  1  0  0  0  0  0  0  0  0
   22.4515  -12.8934  -12.2373 C   0  0  0  1  0  0  0  0  0  0  0  0
   21.9679  -13.5464  -12.9334 H   0  0  0  1  0  0  0  0  0  0  0  0
   22.8753  -13.4707  -11.4423 H   0  0  0  1  0  0  0  0  0  0  0  0
   23.2265  -12.3506  -12.7369 H   0  0  0  1  0  0  0  0  0  0  0  0
   19.7840  -13.7816  -11.0997 C   0  0  0  1  0  0  0  0  0  0  0  0
   20.5155  -14.5476  -11.2515 H   0  0  0  1  0  0  0  0  0  0  0  0
   19.2735  -13.5878  -12.0199 H   0  0  0  1  0  0  0  0  0  0  0  0
   18.7811  -14.2703  -10.0891 C   0  0  0  1  0  0  0  0  0  0  0  0
   19.1171  -14.4354   -9.1188 H   0  0  0  1  0  0  0  0  0  0  0  0
   17.4987  -14.5064  -10.3443 C   0  0  0  1  0  0  0  0  0  0  0  0
   16.8658  -14.3139  -11.7001 C   0  0  0  1  0  0  0  0  0  0  0  0
   17.3477  -13.4922  -12.1874 H   0  0  0  1  0  0  0  0  0  0  0  0
   15.8286  -14.0895  -11.5630 H   0  0  0  1  0  0  0  0  0  0  0  0
   16.5625  -14.9937   -9.2774 C   0  0  0  1  0  0  0  0  0  0  0  0
   15.9158  -15.7427   -9.6846 H   0  0  0  1  0  0  0  0  0  0  0  0
   15.9763  -14.1746   -8.9164 H   0  0  0  1  0  0  0  0  0  0  0  0
   17.1279  -15.4113   -8.4707 H   0  0  0  1  0  0  0  0  0  0  0  0
   16.9818  -15.5401  -12.5909 C   0  0  0  1  0  0  0  0  0  0  0  0
   16.5411  -16.3726  -12.0834 H   0  0  0  1  0  0  0  0  0  0  0  0
   18.0188  -15.7368  -12.7662 H   0  0  0  1  0  0  0  0  0  0  0  0
   16.2949  -15.3707  -13.9196 C   0  0  0  1  0  0  0  0  0  0  0  0
   16.6949  -14.6768  -14.5831 H   0  0  0  1  0  0  0  0  0  0  0  0
   15.2158  -16.0417  -14.3081 C   0  0  0  1  0  0  0  0  0  0  0  0
   14.5270  -17.0730  -13.4623 C   0  0  0  1  0  0  0  0  0  0  0  0
   15.2715  -17.6870  -13.0002 H   0  0  0  1  0  0  0  0  0  0  0  0
   13.9096  -17.6755  -14.0953 H   0  0  0  1  0  0  0  0  0  0  0  0
   14.5899  -15.8126  -15.6550 C   0  0  0  1  0  0  0  0  0  0  0  0
   14.4021  -14.7677  -15.7885 H   0  0  0  1  0  0  0  0  0  0  0  0
   13.6673  -16.3511  -15.7155 H   0  0  0  1  0  0  0  0  0  0  0  0
   15.2547  -16.1558  -16.4200 H   0  0  0  1  0  0  0  0  0  0  0  0
   13.6569  -16.4658  -12.3738 C   0  0  0  1  0  0  0  0  0  0  0  0
   12.6657  -16.3446  -12.7582 H   0  0  0  1  0  0  0  0  0  0  0  0
   14.0577  -15.5090  -12.1116 H   0  0  0  1  0  0  0  0  0  0  0  0
   13.5890  -17.3128  -11.1329 C   0  0  0  1  0  0  0  0  0  0  0  0
   14.4581  -17.8195  -10.8693 H   0  0  0  1  0  0  0  0  0  0  0  0
   12.5398  -17.4838  -10.3375 C   0  0  0  1  0  0  0  0  0  0  0  0
   11.3482  -16.5714  -10.4089 C   0  0  0  1  0  0  0  0  0  0  0  0
   10.5025  -17.1405  -10.7344 H   0  0  0  1  0  0  0  0  0  0  0  0
   11.5533  -15.7983  -11.1196 H   0  0  0  1  0  0  0  0  0  0  0  0
   12.4349  -18.5746   -9.3121 C   0  0  0  1  0  0  0  0  0  0  0  0
   12.8541  -18.2369   -8.3874 H   0  0  0  1  0  0  0  0  0  0  0  0
   12.9701  -19.4363   -9.6525 H   0  0  0  1  0  0  0  0  0  0  0  0
   11.4058  -18.8281   -9.1654 H   0  0  0  1  0  0  0  0  0  0  0  0
   11.0120  -15.9254   -9.0747 C   0  0  0  1  0  0  0  0  0  0  0  0
   11.8881  -15.4363   -8.7029 H   0  0  0  1  0  0  0  0  0  0  0  0
   10.7135  -16.6921   -8.3907 H   0  0  0  1  0  0  0  0  0  0  0  0
    9.9100  -14.9188   -9.1722 C   0  0  0  1  0  0  0  0  0  0  0  0
   10.1171  -14.0242   -9.6605 H   0  0  0  1  0  0  0  0  0  0  0  0
    8.6808  -15.0831   -8.6796 C   0  0  0  1  0  0  0  0  0  0  0  0
    8.3795  -16.1696   -7.6885 C   0  0  0  1  0  0  0  0  0  0  0  0
    9.1380  -16.9218   -7.7512 H   0  0  0  1  0  0  0  0  0  0  0  0
    7.4283  -16.6015   -7.9199 H   0  0  0  1  0  0  0  0  0  0  0  0
    7.5504  -14.1884   -9.0962 C   0  0  0  1  0  0  0  0  0  0  0  0
    6.8686  -14.7374   -9.7117 H   0  0  0  1  0  0  0  0  0  0  0  0
    7.9381  -13.3573   -9.6474 H   0  0  0  1  0  0  0  0  0  0  0  0
    7.0383  -13.8327   -8.2267 H   0  0  0  1  0  0  0  0  0  0  0  0
    8.3440  -15.6142   -6.2741 C   0  0  0  1  0  0  0  0  0  0  0  0
    7.6559  -14.7963   -6.2253 H   0  0  0  1  0  0  0  0  0  0  0  0
    9.3203  -15.2769   -5.9948 H   0  0  0  1  0  0  0  0  0  0  0  0
    7.9031  -16.6971   -5.3487 C   0  0  0  1  0  0  0  0  0  0  0  0
    8.6394  -17.3836   -5.0875 H   0  0  0  1  0  0  0  0  0  0  0  0
    6.7039  -16.9157   -4.8059 C   0  0  0  1  0  0  0  0  0  0  0  0
    5.5806  -15.9379   -4.9847 C   0  0  0  1  0  0  0  0  0  0  0  0
    5.9891  -15.0074   -5.3199 H   0  0  0  1  0  0  0  0  0  0  0  0
    5.0985  -15.7966   -4.0400 H   0  0  0  1  0  0  0  0  0  0  0  0
    6.4308  -18.1484   -3.9949 C   0  0  0  1  0  0  0  0  0  0  0  0
    7.3047  -18.7655   -3.9777 H   0  0  0  1  0  0  0  0  0  0  0  0
    5.6198  -18.6912   -4.4337 H   0  0  0  1  0  0  0  0  0  0  0  0
    6.1730  -17.8675   -2.9952 H   0  0  0  1  0  0  0  0  0  0  0  0
    4.5402  -16.4026   -5.9952 C   0  0  0  1  0  0  0  0  0  0  0  0
    4.2501  -17.4029   -5.7498 H   0  0  0  1  0  0  0  0  0  0  0  0
    4.9815  -16.3876   -6.9698 H   0  0  0  1  0  0  0  0  0  0  0  0
    3.3084  -15.5375   -6.0137 C   0  0  0  1  0  0  0  0  0  0  0  0
    2.9483  -15.2238   -5.0898 H   0  0  0  1  0  0  0  0  0  0  0  0
    2.6319  -15.1315   -7.0814 C   0  0  0  1  0  0  0  0  0  0  0  0
    1.3950  -14.2838   -6.9488 C   0  0  0  1  0  0  0  0  0  0  0  0
    0.9060  -14.5540   -6.0362 H   0  0  0  1  0  0  0  0  0  0  0  0
    0.7537  -14.5039   -7.7765 H   0  0  0  1  0  0  0  0  0  0  0  0
    3.0164  -15.4645   -8.4933 C   0  0  0  1  0  0  0  0  0  0  0  0
    4.0777  -15.6001   -8.4761 H   0  0  0  1  0  0  0  0  0  0  0  0
    2.7526  -14.6631   -9.1514 H   0  0  0  1  0  0  0  0  0  0  0  0
    2.5298  -16.3628   -8.8113 H   0  0  0  1  0  0  0  0  0  0  0  0
    1.6333  -12.7827   -6.9264 C   0  0  0  1  0  0  0  0  0  0  0  0
    2.0819  -12.4952   -7.8543 H   0  0  0  1  0  0  0  0  0  0  0  0
    2.3008  -12.5558   -6.1215 H   0  0  0  1  0  0  0  0  0  0  0  0
    0.3689  -11.9877   -6.7388 C   0  0  0  1  0  0  0  0  0  0  0  0
   -0.2004  -12.2136   -5.8983 H   0  0  0  1  0  0  0  0  0  0  0  0
   -0.0984  -11.0294   -7.5301 C   0  0  0  1  0  0  0  0  0  0  0  0
   -1.4531  -10.4232   -7.3057 C   0  0  0  1  0  0  0  0  0  0  0  0
   -1.6205   -9.6473   -8.0232 H   0  0  0  1  0  0  0  0  0  0  0  0
   -1.5007  -10.0124   -6.3188 H   0  0  0  1  0  0  0  0  0  0  0  0
   -2.2038  -11.1778   -7.4150 H   0  0  0  1  0  0  0  0  0  0  0  0
    0.6601  -10.4631   -8.7058 C   0  0  0  1  0  0  0  0  0  0  0  0
    1.5533  -10.0146   -8.3237 H   0  0  0  1  0  0  0  0  0  0  0  0
    0.0653   -9.7263   -9.2042 H   0  0  0  1  0  0  0  0  0  0  0  0
    0.9084  -11.2455   -9.3921 H   0  0  0  1  0  0  0  0  0  0  0  0
   16.0338   -5.1941   -1.6754 C   0  0  0  1  0  0  0  0  0  0  0  0
   16.2563   -5.7600   -0.7950 H   0  0  0  1  0  0  0  0  0  0  0  0
   14.7811   -5.7548   -2.3361 C   0  0  0  1  0  0  0  0  0  0  0  0
   14.9535   -6.7675   -2.6356 H   0  0  0  1  0  0  0  0  0  0  0  0
   15.8135   -3.8271   -1.3200 O   0  0  0  1  0  0  0  0  0  0  0  0
   14.4568   -4.9005   -3.5657 C   0  0  0  1  0  0  0  0  0  0  0  0
   13.5067   -5.2035   -3.9536 H   0  0  0  1  0  0  0  0  0  0  0  0
   15.6388   -2.9856   -2.4706 C   0  0  0  1  0  0  0  0  0  0  0  0
   16.4978   -3.0667   -3.1033 H   0  0  0  1  0  0  0  0  0  0  0  0
   14.4008   -3.4174   -3.2424 C   0  0  0  1  0  0  0  0  0  0  0  0
   14.3449   -2.8615   -4.1549 H   0  0  0  1  0  0  0  0  0  0  0  0
   17.1266   -5.2780   -2.5828 O   0  0  0  1  0  0  0  0  0  0  0  0
   13.6892   -5.7088   -1.4158 O   0  0  0  1  0  0  0  0  0  0  0  0
   13.5191   -4.7977   -1.1656 H   0  0  0  1  0  0  0  0  0  0  0  0
   15.4601   -5.1155   -4.5476 O   0  0  0  1  0  0  0  0  0  0  0  0
   15.8379   -5.9906   -4.4334 H   0  0  0  1  0  0  0  0  0  0  0  0
   15.4775   -1.5684   -2.0280 C   0  0  0  1  0  0  0  0  0  0  0  0
   16.3984   -1.2172   -1.6116 H   0  0  0  1  0  0  0  0  0  0  0  0
   14.7070   -1.5116   -1.2878 H   0  0  0  1  0  0  0  0  0  0  0  0
   15.2115   -0.9609   -2.8677 H   0  0  0  1  0  0  0  0  0  0  0  0
   19.8757   -6.0839   -3.1316 C   0  0  0  1  0  0  0  0  0  0  0  0
   19.7079   -5.0749   -2.8174 H   0  0  0  1  0  0  0  0  0  0  0  0
   18.6613   -6.5829   -3.8999 C   0  0  0  1  0  0  0  0  0  0  0  0
   18.8518   -7.5676   -4.2725 H   0  0  0  1  0  0  0  0  0  0  0  0
   20.0902   -6.9040   -1.9914 O   0  0  0  1  0  0  0  0  0  0  0  0
   17.4605   -6.6147   -2.9595 C   0  0  0  1  0  0  0  0  0  0  0  0
   16.6306   -7.0608   -3.4666 H   0  0  0  1  0  0  0  0  0  0  0  0
   19.0120   -6.8396   -1.0404 C   0  0  0  1  0  0  0  0  0  0  0  0
   19.2568   -7.4143   -0.1716 H   0  0  0  1  0  0  0  0  0  0  0  0
   17.7692   -7.4175   -1.7142 C   0  0  0  1  0  0  0  0  0  0  0  0
   16.9398   -7.3656   -1.0401 H   0  0  0  1  0  0  0  0  0  0  0  0
   18.3860   -5.6871   -5.0134 N   0  0  0  1  0  0  0  0  0  0  0  0
   18.5977   -4.7369   -4.9009 H   0  0  0  1  0  0  0  0  0  0  0  0
   18.0093   -8.7811   -2.0715 O   0  0  0  1  0  0  0  0  0  0  0  0
   18.4944   -9.1720   -1.3411 H   0  0  0  1  0  0  0  0  0  0  0  0
   18.7632   -5.4129   -0.6438 C   0  0  0  1  0  0  0  0  0  0  0  0
   17.8178   -5.3413   -0.1477 H   0  0  0  1  0  0  0  0  0  0  0  0
   18.7550   -4.7968   -1.5186 H   0  0  0  1  0  0  0  0  0  0  0  0
   19.7937   -4.9727    0.2355 O   0  0  0  1  0  0  0  0  0  0  0  0
   20.6151   -4.9346   -0.2599 H   0  0  0  1  0  0  0  0  0  0  0  0
   17.8578   -6.0816   -6.1906 C   0  0  0  1  0  0  0  0  0  0  0  0
   17.6541   -5.2770   -7.0959 O   0  0  0  1  0  0  0  0  0  0  0  0
   17.5220   -7.5499   -6.3649 C   0  0  0  1  0  0  0  0  0  0  0  0
   17.0064   -7.5958   -7.3013 H   0  0  0  1  0  0  0  0  0  0  0  0
   16.8930   -7.8913   -5.5694 H   0  0  0  1  0  0  0  0  0  0  0  0
   18.4134   -8.1411   -6.3942 H   0  0  0  1  0  0  0  0  0  0  0  0
  1  2  1  0  0  0  0
  1  3  1  0  0  0  0
  1  4  1  0  0  0  0
  1 44  1  0  0  0  0
  3 20  1  0  0  0  0
  4  5  1  0  0  0  0
  4  6  1  0  0  0  0
  4  8  1  0  0  0  0
  6  7  1  0  0  0  0
  8  9  1  0  0  0  0
  8 10  1  0  0  0  0
  8 20  1  0  0  0  0
 10 11  1  0  0  0  0
 12 13  1  0  0  0  0
 12 14  1  0  0  0  0
 12 15  1  0  0  0  0
 12 17  1  0  0  0  0
 15 16  1  0  0  0  0
 17 18  1  0  0  0  0
 17 19  1  0  0  0  0
 17 20  1  0  0  0  0
 19 22  1  0  0  0  0
 20 21  1  0  0  0  0
 22 23  1  0  0  0  0
 22 24  1  0  0  0  0
 22 25  1  0  0  0  0
 24 42  1  0  0  0  0
 25 26  1  0  0  0  0
 25 27  1  0  0  0  0
 25 29  1  0  0  0  0
 27 28  1  0  0  0  0
 29 30  1  0  0  0  0
 29 31  1  0  0  0  0
 29 42  1  0  0  0  0
 31 32  1  0  0  0  0
 33 34  1  0  0  0  0
 33 35  1  0  0  0  0
 33 36  1  0  0  0  0
 33 38  1  0  0  0  0
 36 37  1  0  0  0  0
 38 39  1  0  0  0  0
 38 40  1  0  0  0  0
 38 42  1  0  0  0  0
 40 41  1  0  0  0  0
 42 43  1  0  0  0  0
 44194  1  0  0  0  0
 45 46  1  0  0  0  0
 45 54  1  0  0  0  0
 46 47  1  0  0  0  0
 46 48  1  0  0  0  0
 46 49  2  0  0  0  0
 47 50  1  0  0  0  0
 50 51  1  0  0  0  0
 50 52  1  0  0  0  0
 50 53  2  0  0  0  0
 51205  1  0  0  0  0
 54 55  1  0  0  0  0
 54 56  1  0  0  0  0
 54 57  1  0  0  0  0
 57 58  1  0  0  0  0
 57 59  2  0  0  0  0
 59 60  1  0  0  0  0
 59 64  1  0  0  0  0
 60 61  1  0  0  0  0
 60 62  1  0  0  0  0
 60 63  1  0  0  0  0
 64 65  1  0  0  0  0
 64 66  1  0  0  0  0
 64 67  1  0  0  0  0
 67 68  1  0  0  0  0
 67 69  1  0  0  0  0
 67 70  1  0  0  0  0
 70 71  1  0  0  0  0
 70 72  2  0  0  0  0
 72 73  1  0  0  0  0
 72 77  1  0  0  0  0
 73 74  1  0  0  0  0
 73 75  1  0  0  0  0
 73 76  1  0  0  0  0
 77 78  1  0  0  0  0
 77 79  1  0  0  0  0
 77 80  1  0  0  0  0
 80 81  1  0  0  0  0
 80 82  1  0  0  0  0
 80 83  1  0  0  0  0
 83 84  1  0  0  0  0
 83 85  2  0  0  0  0
 85 86  1  0  0  0  0
 85 89  1  0  0  0  0
 86 87  1  0  0  0  0
 86 88  1  0  0  0  0
 86 93  1  0  0  0  0
 89 90  1  0  0  0  0
 89 91  1  0  0  0  0
 89 92  1  0  0  0  0
 93 94  1  0  0  0  0
 93 95  1  0  0  0  0
 93 96  1  0  0  0  0
 96 97  1  0  0  0  0
 96 98  2  0  0  0  0
 98 99  1  0  0  0  0
 98102  1  0  0  0  0
 99100  1  0  0  0  0
 99101  1  0  0  0  0
 99106  1  0  0  0  0
102103  1  0  0  0  0
102104  1  0  0  0  0
102105  1  0  0  0  0
106107  1  0  0  0  0
106108  1  0  0  0  0
106109  1  0  0  0  0
109110  1  0  0  0  0
109111  2  0  0  0  0
111112  1  0  0  0  0
111115  1  0  0  0  0
112113  1  0  0  0  0
112114  1  0  0  0  0
112119  1  0  0  0  0
115116  1  0  0  0  0
115117  1  0  0  0  0
115118  1  0  0  0  0
119120  1  0  0  0  0
119121  1  0  0  0  0
119122  1  0  0  0  0
122123  1  0  0  0  0
122124  2  0  0  0  0
124125  1  0  0  0  0
124128  1  0  0  0  0
125126  1  0  0  0  0
125127  1  0  0  0  0
125132  1  0  0  0  0
128129  1  0  0  0  0
128130  1  0  0  0  0
128131  1  0  0  0  0
132133  1  0  0  0  0
132134  1  0  0  0  0
132135  1  0  0  0  0
135136  1  0  0  0  0
135137  2  0  0  0  0
137138  1  0  0  0  0
137141  1  0  0  0  0
138139  1  0  0  0  0
138140  1  0  0  0  0
138145  1  0  0  0  0
141142  1  0  0  0  0
141143  1  0  0  0  0
141144  1  0  0  0  0
145146  1  0  0  0  0
145147  1  0  0  0  0
145148  1  0  0  0  0
148149  1  0  0  0  0
148150  2  0  0  0  0
150151  1  0  0  0  0
150154  1  0  0  0  0
151152  1  0  0  0  0
151153  1  0  0  0  0
151158  1  0  0  0  0
154155  1  0  0  0  0
154156  1  0  0  0  0
154157  1  0  0  0  0
158159  1  0  0  0  0
158160  1  0  0  0  0
158161  1  0  0  0  0
161162  1  0  0  0  0
161163  2  0  0  0  0
163164  1  0  0  0  0
163167  1  0  0  0  0
164165  1  0  0  0  0
164166  1  0  0  0  0
164171  1  0  0  0  0
167168  1  0  0  0  0
167169  1  0  0  0  0
167170  1  0  0  0  0
171172  1  0  0  0  0
171173  1  0  0  0  0
171174  1  0  0  0  0
174175  1  0  0  0  0
174176  2  0  0  0  0
176177  1  0  0  0  0
176181  1  0  0  0  0
177178  1  0  0  0  0
177179  1  0  0  0  0
177180  1  0  0  0  0
181182  1  0  0  0  0
181183  1  0  0  0  0
181184  1  0  0  0  0
185186  1  0  0  0  0
185187  1  0  0  0  0
185189  1  0  0  0  0
185196  1  0  0  0  0
187188  1  0  0  0  0
187190  1  0  0  0  0
187197  1  0  0  0  0
189192  1  0  0  0  0
190191  1  0  0  0  0
190194  1  0  0  0  0
190199  1  0  0  0  0
192193  1  0  0  0  0
192194  1  0  0  0  0
192201  1  0  0  0  0
194195  1  0  0  0  0
196210  1  0  0  0  0
197198  1  0  0  0  0
199200  1  0  0  0  0
201202  1  0  0  0  0
201203  1  0  0  0  0
201204  1  0  0  0  0
205206  1  0  0  0  0
205207  1  0  0  0  0
205209  1  0  0  0  0
207208  1  0  0  0  0
207210  1  0  0  0  0
207216  1  0  0  0  0
209212  1  0  0  0  0
210211  1  0  0  0  0
210214  1  0  0  0  0
212213  1  0  0  0  0
212214  1  0  0  0  0
212220  1  0  0  0  0
214215  1  0  0  0  0
214218  1  0  0  0  0
216217  1  0  0  0  0
216225  1  0  0  0  0
218219  1  0  0  0  0
220221  1  0  0  0  0
220222  1  0  0  0  0
220223  1  0  0  0  0
223224  1  0  0  0  0
225226  2  0  0  0  0
225227  1  0  0  0  0
227228  1  0  0  0  0
227229  1  0  0  0  0
227230  1  0  0  0  0
M  BCL ATM C_TeTeTeTe H_S O_Te2Te2TeTe C_TeTeTeTe H_S O_Te2Te2TeTe H_S C_TeTeTeTe H_S O_Te2Te2TeTe H_S C_TeTeTeTe H_S H_S O_Te2Te2TeTe H_S C_TeTeTeTe H_S O_Te2Te2TeTe C_TeTeTeTe H_S C_TeTeTeTe H_S O_Te2Te2TeTe C_TeTeTeTe H_S O_Te2Te2TeTe H_S C_TeTeTeTe H_S O_Te2Te2TeTe H_S C_TeTeTeTe H_S H_S O_Te2Te2TeTe H_S C_TeTeTeTe H_S O_Te2Te2TeTe H_S C_TeTeTeTe H_S O_Te2Te2TeTe O_Tr2TrTrPi2 P_TeTeTeTePi O_Tr2TrTrPi2 O_Te2Te2TeTe O_Tr2Tr2TrPi P_TeTeTeTePi O_Tr2TrTrPi2 O_Te2Te2TeTe O_Tr2Tr2TrPi C_TeTeTeTe H_S H_S C_TrTrTrPi H_S C_TrTrTrPi C_TeTeTeTe H_S H_S H_S C_TeTeTeTe H_S H_S C_TeTeTeTe H_S H_S C_TrTrTrPi H_S C_TrTrTrPi C_TeTeTeTe H_S H_S H_S C_TeTeTeTe H_S H_S C_TeTeTeTe H_S H_S C_TrTrTrPi H_S C_TrTrTrPi C_TeTeTeTe H_S H_S C_TeTeTeTe H_S H_S H_S C_TeTeTeTe H_S H_S C_TrTrTrPi H_S C_TrTrTrPi C_TeTeTeTe H_S H_S C_TeTeTeTe H_S H_S H_S C_TeTeTeTe H_S H_S C_TrTrTrPi H_S C_TrTrTrPi C_TeTeTeTe H_S H_S C_TeTeTeTe H_S H_S H_S C_TeTeTeTe H_S H_S C_TrTrTrPi H_S C_TrTrTrPi C_TeTeTeTe H_S H_S C_TeTeTeTe H_S H_S H_S C_TeTeTeTe H_S H_S C_TrTrTrPi H_S C_TrTrTrPi C_TeTeTeTe H_S H_S C_TeTeTeTe H_S H_S H_S C_TeTeTeTe H_S H_S C_TrTrTrPi H_S C_TrTrTrPi C_TeTeTeTe H_S H_S C_TeTeTeTe H_S H_S H_S C_TeTeTeTe H_S H_S C_TrTrTrPi H_S C_TrTrTrPi C_TeTeTeTe H_S H_S C_TeTeTeTe H_S H_S H_S C_TeTeTeTe H_S H_S C_TrTrTrPi H_S C_TrTrTrPi C_TeTeTeTe H_S H_S H_S C_TeTeTeTe H_S H_S H_S C_TeTeTeTe H_S C_TeTeTeTe H_S O_Te2Te2TeTe C_TeTeTeTe H_S C_TeTeTeTe H_S C_TeTeTeTe H_S O_Te2Te2TeTe O_Te2Te2TeTe H_S O_Te2Te2TeTe H_S C_TeTeTeTe H_S H_S H_S C_TeTeTeTe H_S C_TeTeTeTe H_S O_Te2Te2TeTe C_TeTeTeTe H_S C_TeTeTeTe H_S C_TeTeTeTe H_S N_TrTrTrPi2 H_S O_Te2Te2TeTe H_S C_TeTeTeTe H_S H_S O_Te2Te2TeTe H_S C_TrTrTrPi O_Tr2Tr2TrPi C_TeTeTeTe H_S H_S H_S
M  BCL BND NonConjugatedSingleBond NonConjugatedSingleBondInRing NonConjugatedSingleBondInRing NonConjugatedSingleBond NonConjugatedSingleBondInRing NonConjugatedSingleBond NonConjugatedSingleBond NonConjugatedSingleBondInRing NonConjugatedSingleBond NonConjugatedSingleBond NonConjugatedSingleBond NonConjugatedSingleBondInRing NonConjugatedSingleBond NonConjugatedSingleBond NonConjugatedSingleBond NonConjugatedSingleBond NonConjugatedSingleBond NonConjugatedSingleBond NonConjugatedSingleBond NonConjugatedSingleBond NonConjugatedSingleBond NonConjugatedSingleBond NonConjugatedSingleBond NonConjugatedSingleBond NonConjugatedSingleBondInRing NonConjugatedSingleBondInRing NonConjugatedSingleBondInRing NonConjugatedSingleBond NonConjugatedSingleBond NonConjugatedSingleBondInRing NonConjugatedSingleBond NonConjugatedSingleBond NonConjugatedSingleBond NonConjugatedSingleBondInRing NonConjugatedSingleBond NonConjugatedSingleBond NonConjugatedSingleBond NonConjugatedSingleBond NonConjugatedSingleBond NonConjugatedSingleBond NonConjugatedSingleBond NonConjugatedSingleBond NonConjugatedSingleBond NonConjugatedSingleBond NonConjugatedSingleBond NonConjugatedSingleBond ConjugatedSingleBond NonConjugatedSingleBond ConjugatedSingleBond ConjugatedSingleBond ConjugatedDoubleBond ConjugatedSingleBond ConjugatedSingleBond ConjugatedSingleBond ConjugatedDoubleBond NonConjugatedSingleBond NonConjugatedSingleBond NonConjugatedSingleBond NonConjugatedSingleBond NonConjugatedSingleBond ConjugatedDoubleBond NonConjugatedSingleBond NonConjugatedSingleBond NonConjugatedSingleBond NonConjugatedSingleBond NonConjugatedSingleBond NonConjugatedSingleBond NonConjugatedSingleBond NonConjugatedSingleBond NonConjugatedSingleBond NonConjugatedSingleBond NonConjugatedSingleBond NonConjugatedSingleBond ConjugatedDoubleBond NonConjugatedSingleBond NonConjugatedSingleBond NonConjugatedSingleBond NonConjugatedSingleBond NonConjugatedSingleBond NonConjugatedSingleBond NonConjugatedSingleBond NonConjugatedSingleBond NonConjugatedSingleBond NonConjugatedSingleBond NonConjugatedSingleBond NonConjugatedSingleBond ConjugatedDoubleBond NonConjugatedSingleBond NonConjugatedSingleBond NonConjugatedSingleBond NonConjugatedSingleBond NonConjugatedSingleBond NonConjugatedSingleBond NonConjugatedSingleBond NonConjugatedSingleBond NonConjugatedSingleBond NonConjugatedSingleBond NonConjugatedSingleBond NonConjugatedSingleBond ConjugatedDoubleBond NonConjugatedSingleBond NonConjugatedSingleBond NonConjugatedSingleBond NonConjugatedSingleBond NonConjugatedSingleBond NonConjugatedSingleBond NonConjugatedSingleBond NonConjugatedSingleBond NonConjugatedSingleBond NonConjugatedSingleBond NonConjugatedSingleBond NonConjugatedSingleBond ConjugatedDoubleBond NonConjugatedSingleBond NonConjugatedSingleBond NonConjugatedSingleBond NonConjugatedSingleBond NonConjugatedSingleBond NonConjugatedSingleBond NonConjugatedSingleBond NonConjugatedSingleBond NonConjugatedSingleBond NonConjugatedSingleBond NonConjugatedSingleBond NonConjugatedSingleBond ConjugatedDoubleBond NonConjugatedSingleBond NonConjugatedSingleBond NonConjugatedSingleBond NonConjugatedSingleBond NonConjugatedSingleBond NonConjugatedSingleBond NonConjugatedSingleBond NonConjugatedSingleBond NonConjugatedSingleBond NonConjugatedSingleBond NonConjugatedSingleBond NonConjugatedSingleBond ConjugatedDoubleBond NonConjugatedSingleBond NonConjugatedSingleBond NonConjugatedSingleBond NonConjugatedSingleBond NonConjugatedSingleBond NonConjugatedSingleBond NonConjugatedSingleBond NonConjugatedSingleBond NonConjugatedSingleBond NonConjugatedSingleBond NonConjugatedSingleBond NonConjugatedSingleBond ConjugatedDoubleBond NonConjugatedSingleBond NonConjugatedSingleBond NonConjugatedSingleBond NonConjugatedSingleBond NonConjugatedSingleBond NonConjugatedSingleBond NonConjugatedSingleBond NonConjugatedSingleBond NonConjugatedSingleBond NonConjugatedSingleBond NonConjugatedSingleBond NonConjugatedSingleBond ConjugatedDoubleBond NonConjugatedSingleBond NonConjugatedSingleBond NonConjugatedSingleBond NonConjugatedSingleBond NonConjugatedSingleBond NonConjugatedSingleBond NonConjugatedSingleBond NonConjugatedSingleBond NonConjugatedSingleBond NonConjugatedSingleBond NonConjugatedSingleBond NonConjugatedSingleBond ConjugatedDoubleBond NonConjugatedSingleBond NonConjugatedSingleBond NonConjugatedSingleBond NonConjugatedSingleBond NonConjugatedSingleBond NonConjugatedSingleBond NonConjugatedSingleBond NonConjugatedSingleBond NonConjugatedSingleBond NonConjugatedSingleBondInRing NonConjugatedSingleBondInRing NonConjugatedSingleBond NonConjugatedSingleBond NonConjugatedSingleBondInRing NonConjugatedSingleBond NonConjugatedSingleBondInRing NonConjugatedSingleBond NonConjugatedSingleBondInRing NonConjugatedSingleBond NonConjugatedSingleBond NonConjugatedSingleBondInRing NonConjugatedSingleBond NonConjugatedSingleBond NonConjugatedSingleBond NonConjugatedSingleBond NonConjugatedSingleBond NonConjugatedSingleBond NonConjugatedSingleBond NonConjugatedSingleBond NonConjugatedSingleBond NonConjugatedSingleBondInRing NonConjugatedSingleBondInRing NonConjugatedSingleBond NonConjugatedSingleBondInRing NonConjugatedSingleBond NonConjugatedSingleBondInRing NonConjugatedSingleBond NonConjugatedSingleBondInRing NonConjugatedSingleBond NonConjugatedSingleBondInRing NonConjugatedSingleBond NonConjugatedSingleBond NonConjugatedSingleBond NonConjugatedSingleBond AmideSingleBond NonConjugatedSingleBond NonConjugatedSingleBond NonConjugatedSingleBond NonConjugatedSingleBond NonConjugatedSingleBond ConjugatedDoubleBond NonConjugatedSingleBond NonConjugatedSingleBond NonConjugatedSingleBond NonConjugatedSingleBond
M  BCL CHI   1   R   4   R   8   R  17   S  20   R  22   S  25   R  29   S  38   S  42   R  46   R  50   S 185   R 187   S 190   S 192   R 194   R 205   R 207   S 210   R 212   S 214   S
M  BCL DBI - - E E E E E E E E Z - -
M  END
> <ConfClashScore>
0.00437193 

> <ConfOneFourInteractionScore>
-0.974443 

> <ConfScore>
0.509017 

> <ConfScorePBest>
0.0122145 

> <ConfTolerance>
2.70436 

$$$$
L05.****
  PyMOL2.5          3D                             0

230233  0  0  0  0  0  0  0  0999 V2000
   12.2775   -2.3031   -2.3800 C   0  0  0  1  0  0  0  0  0  0  0  0
   12.0112   -2.2716   -3.4159 H   0  0  0  1  0  0  0  0  0  0  0  0
   12.7244   -1.0134   -1.9335 O   0  0  0  1  0  0  0  0  0  0  0  0
   11.0768   -2.6069   -1.5356 C   0  0  0  1  0  0  0  0  0  0  0  0
   10.9207   -3.6623   -1.4543 H   0  0  0  1  0  0  0  0  0  0  0  0
    9.9039   -1.9912   -2.0702 O   0  0  0  1  0  0  0  0  0  0  0  0
   10.1572   -1.2763   -2.6587 H   0  0  0  1  0  0  0  0  0  0  0  0
   11.4440   -2.0060   -0.1947 C   0  0  0  1  0  0  0  0  0  0  0  0
   10.5886   -1.5521    0.2604 H   0  0  0  1  0  0  0  0  0  0  0  0
   11.9721   -3.0078    0.6760 O   0  0  0  1  0  0  0  0  0  0  0  0
   11.3981   -3.7772    0.6645 H   0  0  0  1  0  0  0  0  0  0  0  0
   12.9956    1.5063   -0.4887 C   0  0  0  1  0  0  0  0  0  0  0  0
   12.6679    2.4355   -0.0715 H   0  0  0  1  0  0  0  0  0  0  0  0
   13.9547    1.2531   -0.0875 H   0  0  0  1  0  0  0  0  0  0  0  0
   13.1153    1.6557   -1.8972 O   0  0  0  1  0  0  0  0  0  0  0  0
   12.3180    1.3319   -2.3227 H   0  0  0  1  0  0  0  0  0  0  0  0
   12.0014    0.4191   -0.1014 C   0  0  0  1  0  0  0  0  0  0  0  0
   11.0707    0.6104   -0.5935 H   0  0  0  1  0  0  0  0  0  0  0  0
   11.8257    0.4416    1.3104 O   0  0  0  1  0  0  0  0  0  0  0  0
   12.4970   -0.9631   -0.5053 C   0  0  0  1  0  0  0  0  0  0  0  0
   13.4022   -1.1855    0.0201 H   0  0  0  1  0  0  0  0  0  0  0  0
   10.4575    0.3572    1.6170 C   0  0  0  1  0  0  0  0  0  0  0  0
    9.8812    0.5892    0.7458 H   0  0  0  1  0  0  0  0  0  0  0  0
   10.1214   -0.9715    2.1204 O   0  0  0  1  0  0  0  0  0  0  0  0
   10.1055    1.2876    2.7550 C   0  0  0  1  0  0  0  0  0  0  0  0
    9.0741    1.5693    2.7136 H   0  0  0  1  0  0  0  0  0  0  0  0
   10.9213    2.4598    2.7268 O   0  0  0  1  0  0  0  0  0  0  0  0
   11.7776    2.2637    3.1139 H   0  0  0  1  0  0  0  0  0  0  0  0
   10.3949    0.4482    4.0066 C   0  0  0  1  0  0  0  0  0  0  0  0
    9.7351    0.7098    4.8073 H   0  0  0  1  0  0  0  0  0  0  0  0
   11.7487    0.6089    4.4325 O   0  0  0  1  0  0  0  0  0  0  0  0
   11.7644    0.9046    5.3457 H   0  0  0  1  0  0  0  0  0  0  0  0
    7.7459   -0.3724    4.0595 C   0  0  0  1  0  0  0  0  0  0  0  0
    7.9161    0.2984    3.2435 H   0  0  0  1  0  0  0  0  0  0  0  0
    6.7742   -0.8105    3.9651 H   0  0  0  1  0  0  0  0  0  0  0  0
    7.8239    0.3439    5.2836 O   0  0  0  1  0  0  0  0  0  0  0  0
    6.9993    0.8119    5.4341 H   0  0  0  1  0  0  0  0  0  0  0  0
    8.7991   -1.4695    4.0402 C   0  0  0  1  0  0  0  0  0  0  0  0
    8.4544   -2.2617    3.4089 H   0  0  0  1  0  0  0  0  0  0  0  0
    8.9304   -1.9396    5.3791 O   0  0  0  1  0  0  0  0  0  0  0  0
    8.2310   -2.5695    5.5676 H   0  0  0  1  0  0  0  0  0  0  0  0
   10.1339   -0.9861    3.5201 C   0  0  0  1  0  0  0  0  0  0  0  0
   10.9096   -1.6350    3.8696 H   0  0  0  1  0  0  0  0  0  0  0  0
   13.2637   -3.2549   -2.1852 O   0  0  0  1  0  0  0  0  0  0  0  0
   23.7308  -10.8464   -2.6403 O   0  0  0  1  0  0  0  0  0  0  0  0
   22.4677  -10.9124   -3.4667 P   0  0  0  1  0  0  0  0  0  0  0  0
   21.9569   -9.4099   -3.6964 O   0  0  0  1  0  0  0  0  0  0  0  0
   21.3070  -11.5092   -2.6866 O   0  0  0  0  0  0  0  0  0  0  0  0
   22.6450  -11.5113   -4.8394 O   0  0  0  1  0  0  0  0  0  0  0  0
   20.7147   -8.6214   -3.0482 P   0  0  0  1  0  0  0  0  0  0  0  0
   20.6567   -7.3116   -3.9123 O   0  0  0  1  0  0  0  0  0  0  0  0
   21.0496   -8.3802   -1.6025 O   0  0  0  0  0  0  0  0  0  0  0  0
   19.5280   -9.4326   -3.2422 O   0  0  0  1  0  0  0  0  0  0  0  0
   24.8245  -11.7419   -2.8942 C   0  0  0  1  0  0  0  0  0  0  0  0
   25.1256  -11.6392   -3.9158 H   0  0  0  1  0  0  0  0  0  0  0  0
   24.4981  -12.7455   -2.7173 H   0  0  0  1  0  0  0  0  0  0  0  0
   26.0013  -11.4515   -2.0100 C   0  0  0  1  0  0  0  0  0  0  0  0
   26.8366  -12.0640   -2.1040 H   0  0  0  1  0  0  0  0  0  0  0  0
   26.0559  -10.4710   -1.1165 C   0  0  0  1  0  0  0  0  0  0  0  0
   27.1146  -10.4423   -0.0527 C   0  0  0  1  0  0  0  0  0  0  0  0
   28.0473  -10.1452   -0.4848 H   0  0  0  1  0  0  0  0  0  0  0  0
   27.2151  -11.4173    0.3764 H   0  0  0  1  0  0  0  0  0  0  0  0
   26.8360   -9.7440    0.7087 H   0  0  0  1  0  0  0  0  0  0  0  0
   25.0921   -9.3187   -1.0757 C   0  0  0  1  0  0  0  0  0  0  0  0
   24.3053   -9.5569   -0.3908 H   0  0  0  1  0  0  0  0  0  0  0  0
   24.6837   -9.1814   -2.0552 H   0  0  0  1  0  0  0  0  0  0  0  0
   25.7396   -8.0162   -0.6347 C   0  0  0  1  0  0  0  0  0  0  0  0
   26.6225   -7.8599   -1.2186 H   0  0  0  1  0  0  0  0  0  0  0  0
   26.0051   -8.1005    0.3985 H   0  0  0  1  0  0  0  0  0  0  0  0
   24.8381   -6.8240   -0.8015 C   0  0  0  1  0  0  0  0  0  0  0  0
   23.9025   -7.0049   -1.2181 H   0  0  0  1  0  0  0  0  0  0  0  0
   25.1084   -5.5593   -0.4729 C   0  0  0  1  0  0  0  0  0  0  0  0
   24.1038   -4.4650   -0.6990 C   0  0  0  1  0  0  0  0  0  0  0  0
   24.5472   -3.5195   -0.4660 H   0  0  0  1  0  0  0  0  0  0  0  0
   23.2542   -4.6253   -0.0687 H   0  0  0  1  0  0  0  0  0  0  0  0
   23.7948   -4.4710   -1.7234 H   0  0  0  1  0  0  0  0  0  0  0  0
   26.4260   -5.1790    0.1355 C   0  0  0  1  0  0  0  0  0  0  0  0
   27.0420   -6.0524    0.1871 H   0  0  0  1  0  0  0  0  0  0  0  0
   26.2503   -4.8070    1.1233 H   0  0  0  1  0  0  0  0  0  0  0  0
   27.1631   -4.1132   -0.6588 C   0  0  0  1  0  0  0  0  0  0  0  0
   28.1141   -3.9425   -0.1990 H   0  0  0  1  0  0  0  0  0  0  0  0
   26.5876   -3.2115   -0.6346 H   0  0  0  1  0  0  0  0  0  0  0  0
   27.3885   -4.4994   -2.0962 C   0  0  0  1  0  0  0  0  0  0  0  0
   27.5731   -5.5058   -2.2824 H   0  0  0  1  0  0  0  0  0  0  0  0
   27.3771   -3.6982   -3.1473 C   0  0  0  1  0  0  0  0  0  0  0  0
   27.1200   -2.2279   -2.9876 C   0  0  0  1  0  0  0  0  0  0  0  0
   26.8389   -2.0396   -1.9725 H   0  0  0  1  0  0  0  0  0  0  0  0
   26.3171   -1.9500   -3.6380 H   0  0  0  1  0  0  0  0  0  0  0  0
   27.5189   -4.1777   -4.5645 C   0  0  0  1  0  0  0  0  0  0  0  0
   26.6367   -3.9279   -5.1160 H   0  0  0  1  0  0  0  0  0  0  0  0
   27.6541   -5.2391   -4.5698 H   0  0  0  1  0  0  0  0  0  0  0  0
   28.3670   -3.7073   -5.0166 H   0  0  0  1  0  0  0  0  0  0  0  0
   28.3311   -1.3721   -3.3210 C   0  0  0  1  0  0  0  0  0  0  0  0
   28.6121   -1.5776   -4.3328 H   0  0  0  1  0  0  0  0  0  0  0  0
   29.1268   -1.6562   -2.6645 H   0  0  0  1  0  0  0  0  0  0  0  0
   28.1278    0.1122   -3.1884 C   0  0  0  1  0  0  0  0  0  0  0  0
   27.5765    0.4331   -2.3669 H   0  0  0  1  0  0  0  0  0  0  0  0
   28.5801    1.0664   -4.0140 C   0  0  0  1  0  0  0  0  0  0  0  0
   29.3917    0.7579   -5.2437 C   0  0  0  1  0  0  0  0  0  0  0  0
   29.5041   -0.3034   -5.3202 H   0  0  0  1  0  0  0  0  0  0  0  0
   30.3547    1.2124   -5.1390 H   0  0  0  1  0  0  0  0  0  0  0  0
   28.2631    2.5111   -3.6990 C   0  0  0  1  0  0  0  0  0  0  0  0
   27.2484    2.5904   -3.3688 H   0  0  0  1  0  0  0  0  0  0  0  0
   28.3993    3.1058   -4.5781 H   0  0  0  1  0  0  0  0  0  0  0  0
   28.9173    2.8595   -2.9273 H   0  0  0  1  0  0  0  0  0  0  0  0
   28.7516    1.2701   -6.5236 C   0  0  0  1  0  0  0  0  0  0  0  0
   29.4295    1.1024   -7.3343 H   0  0  0  1  0  0  0  0  0  0  0  0
   28.5730    2.3199   -6.4187 H   0  0  0  1  0  0  0  0  0  0  0  0
   27.4462    0.5916   -6.8426 C   0  0  0  1  0  0  0  0  0  0  0  0
   27.4184   -0.4408   -6.7205 H   0  0  0  1  0  0  0  0  0  0  0  0
   26.3257    1.1687   -7.2631 C   0  0  0  1  0  0  0  0  0  0  0  0
   26.2606    2.5693   -7.7993 C   0  0  0  1  0  0  0  0  0  0  0  0
   26.9800    2.6668   -8.5853 H   0  0  0  1  0  0  0  0  0  0  0  0
   26.5015    3.2483   -7.0082 H   0  0  0  1  0  0  0  0  0  0  0  0
   25.0090    0.4449   -7.2326 C   0  0  0  1  0  0  0  0  0  0  0  0
   24.6267    0.3567   -8.2280 H   0  0  0  1  0  0  0  0  0  0  0  0
   24.3145    0.9937   -6.6314 H   0  0  0  1  0  0  0  0  0  0  0  0
   25.1483   -0.5310   -6.8164 H   0  0  0  1  0  0  0  0  0  0  0  0
   24.8910    2.9333   -8.3490 C   0  0  0  1  0  0  0  0  0  0  0  0
   24.1476    2.6203   -7.6459 H   0  0  0  1  0  0  0  0  0  0  0  0
   24.7472    2.4164   -9.2747 H   0  0  0  1  0  0  0  0  0  0  0  0
   24.7273    4.4095   -8.5941 C   0  0  0  1  0  0  0  0  0  0  0  0
   25.5326    4.9206   -9.0088 H   0  0  0  1  0  0  0  0  0  0  0  0
   23.6262    5.1111   -8.3191 C   0  0  0  1  0  0  0  0  0  0  0  0
   22.3184    4.4274   -8.0367 C   0  0  0  1  0  0  0  0  0  0  0  0
   21.5469    5.1685   -8.0586 H   0  0  0  1  0  0  0  0  0  0  0  0
   22.3745    3.9990   -7.0578 H   0  0  0  1  0  0  0  0  0  0  0  0
   23.6495    6.6111   -8.2807 C   0  0  0  1  0  0  0  0  0  0  0  0
   23.3215    6.9489   -7.3199 H   0  0  0  1  0  0  0  0  0  0  0  0
   22.9973    6.9971   -9.0360 H   0  0  0  1  0  0  0  0  0  0  0  0
   24.6464    6.9567   -8.4588 H   0  0  0  1  0  0  0  0  0  0  0  0
   21.9364    3.3242   -9.0101 C   0  0  0  1  0  0  0  0  0  0  0  0
   21.1273    2.7578   -8.5985 H   0  0  0  1  0  0  0  0  0  0  0  0
   22.7797    2.6835   -9.1627 H   0  0  0  1  0  0  0  0  0  0  0  0
   21.5142    3.8987  -10.3225 C   0  0  0  1  0  0  0  0  0  0  0  0
   21.2261    4.8975  -10.3552 H   0  0  0  1  0  0  0  0  0  0  0  0
   21.4886    3.1972  -11.4494 C   0  0  0  1  0  0  0  0  0  0  0  0
   22.1883    1.8739  -11.5612 C   0  0  0  1  0  0  0  0  0  0  0  0
   22.9910    1.8522  -10.8541 H   0  0  0  1  0  0  0  0  0  0  0  0
   22.5822    1.7795  -12.5516 H   0  0  0  1  0  0  0  0  0  0  0  0
   20.7783    3.6392  -12.6953 C   0  0  0  1  0  0  0  0  0  0  0  0
   21.0192    4.6614  -12.9003 H   0  0  0  1  0  0  0  0  0  0  0  0
   19.7217    3.5430  -12.5563 H   0  0  0  1  0  0  0  0  0  0  0  0
   21.0874    3.0283  -13.5176 H   0  0  0  1  0  0  0  0  0  0  0  0
   21.2726    0.6914  -11.2900 C   0  0  0  1  0  0  0  0  0  0  0  0
   20.4045    0.7840  -11.9087 H   0  0  0  1  0  0  0  0  0  0  0  0
   20.9817    0.7149  -10.2606 H   0  0  0  1  0  0  0  0  0  0  0  0
   21.9237   -0.6359  -11.5737 C   0  0  0  1  0  0  0  0  0  0  0  0
   22.6996   -0.9164  -10.9405 H   0  0  0  1  0  0  0  0  0  0  0  0
   21.6134   -1.4915  -12.5494 C   0  0  0  1  0  0  0  0  0  0  0  0
   20.4832   -1.2118  -13.4992 C   0  0  0  1  0  0  0  0  0  0  0  0
   20.0200   -0.2948  -13.2000 H   0  0  0  1  0  0  0  0  0  0  0  0
   19.7775   -2.0119  -13.4172 H   0  0  0  1  0  0  0  0  0  0  0  0
   22.3806   -2.7674  -12.7375 C   0  0  0  1  0  0  0  0  0  0  0  0
   22.5171   -3.2452  -11.7899 H   0  0  0  1  0  0  0  0  0  0  0  0
   23.3358   -2.5489  -13.1674 H   0  0  0  1  0  0  0  0  0  0  0  0
   21.8360   -3.4180  -13.3895 H   0  0  0  1  0  0  0  0  0  0  0  0
   20.8786   -1.0823  -14.9643 C   0  0  0  1  0  0  0  0  0  0  0  0
   20.2699   -0.3270  -15.4159 H   0  0  0  1  0  0  0  0  0  0  0  0
   20.7024   -2.0200  -15.4488 H   0  0  0  1  0  0  0  0  0  0  0  0
   22.3232   -0.7095  -15.1540 C   0  0  0  1  0  0  0  0  0  0  0  0
   22.7345   -0.0235  -14.4893 H   0  0  0  1  0  0  0  0  0  0  0  0
   23.1127   -1.1909  -16.1068 C   0  0  0  1  0  0  0  0  0  0  0  0
   24.4273   -0.5381  -16.4377 C   0  0  0  1  0  0  0  0  0  0  0  0
   25.1763   -1.2987  -16.5112 H   0  0  0  1  0  0  0  0  0  0  0  0
   24.6805    0.1374  -15.6474 H   0  0  0  1  0  0  0  0  0  0  0  0
   22.7879   -2.4020  -16.9313 C   0  0  0  1  0  0  0  0  0  0  0  0
   23.4913   -3.1499  -16.6303 H   0  0  0  1  0  0  0  0  0  0  0  0
   22.8962   -2.1847  -17.9734 H   0  0  0  1  0  0  0  0  0  0  0  0
   21.7879   -2.7294  -16.7368 H   0  0  0  1  0  0  0  0  0  0  0  0
   24.3948    0.2369  -17.7448 C   0  0  0  1  0  0  0  0  0  0  0  0
   24.1893   -0.4313  -18.5549 H   0  0  0  1  0  0  0  0  0  0  0  0
   25.3397    0.7127  -17.9052 H   0  0  0  1  0  0  0  0  0  0  0  0
   23.3180    1.2715  -17.6597 C   0  0  0  1  0  0  0  0  0  0  0  0
   23.3220    1.9035  -16.8338 H   0  0  0  1  0  0  0  0  0  0  0  0
   22.3566    1.4434  -18.5606 C   0  0  0  1  0  0  0  0  0  0  0  0
   22.2016    0.5906  -19.7863 C   0  0  0  1  0  0  0  0  0  0  0  0
   22.0180   -0.4227  -19.4955 H   0  0  0  1  0  0  0  0  0  0  0  0
   23.0979    0.6375  -20.3688 H   0  0  0  1  0  0  0  0  0  0  0  0
   21.3783    0.9491  -20.3681 H   0  0  0  1  0  0  0  0  0  0  0  0
   21.3286    2.5300  -18.4162 C   0  0  0  1  0  0  0  0  0  0  0  0
   21.4815    3.2229  -19.2170 H   0  0  0  1  0  0  0  0  0  0  0  0
   21.4499    3.0255  -17.4756 H   0  0  0  1  0  0  0  0  0  0  0  0
   20.3449    2.1131  -18.4760 H   0  0  0  1  0  0  0  0  0  0  0  0
   16.0876   -5.1486   -1.6697 C   0  0  0  1  0  0  0  0  0  0  0  0
   16.2760   -5.6950   -0.7692 H   0  0  0  1  0  0  0  0  0  0  0  0
   14.8692   -5.7354   -2.3569 C   0  0  0  1  0  0  0  0  0  0  0  0
   15.1147   -6.7135   -2.7146 H   0  0  0  1  0  0  0  0  0  0  0  0
   15.8927   -3.7857   -1.3483 O   0  0  0  1  0  0  0  0  0  0  0  0
   14.4009   -4.8908   -3.5300 C   0  0  0  1  0  0  0  0  0  0  0  0
   13.4334   -5.2257   -3.8409 H   0  0  0  1  0  0  0  0  0  0  0  0
   15.6329   -2.9733   -2.5076 C   0  0  0  1  0  0  0  0  0  0  0  0
   16.4274   -3.0894   -3.2148 H   0  0  0  1  0  0  0  0  0  0  0  0
   14.3191   -3.4270   -3.1320 C   0  0  0  1  0  0  0  0  0  0  0  0
   14.1191   -2.8359   -4.0012 H   0  0  0  1  0  0  0  0  0  0  0  0
   17.2088   -5.2634   -2.5383 O   0  0  0  1  0  0  0  0  0  0  0  0
   13.8069   -5.8280   -1.4060 O   0  0  0  1  0  0  0  0  0  0  0  0
   14.0005   -5.2644   -0.6533 H   0  0  0  1  0  0  0  0  0  0  0  0
   15.3194   -5.0325   -4.6039 O   0  0  0  1  0  0  0  0  0  0  0  0
   15.1411   -5.8514   -5.0721 H   0  0  0  1  0  0  0  0  0  0  0  0
   15.5280   -1.5135   -2.0974 C   0  0  0  1  0  0  0  0  0  0  0  0
   16.2088   -1.3181   -1.2953 H   0  0  0  1  0  0  0  0  0  0  0  0
   14.5291   -1.3045   -1.7759 H   0  0  0  1  0  0  0  0  0  0  0  0
   15.7723   -0.8903   -2.9321 H   0  0  0  1  0  0  0  0  0  0  0  0
   19.6873   -6.2637   -3.6940 C   0  0  0  1  0  0  0  0  0  0  0  0
   18.7744   -6.5118   -4.1939 H   0  0  0  1  0  0  0  0  0  0  0  0
   19.4244   -6.1208   -2.2025 C   0  0  0  1  0  0  0  0  0  0  0  0
   20.3464   -5.9382   -1.6912 H   0  0  0  1  0  0  0  0  0  0  0  0
   20.1908   -5.0396   -4.2102 O   0  0  0  1  0  0  0  0  0  0  0  0
   18.4741   -4.9486   -1.9785 C   0  0  0  1  0  0  0  0  0  0  0  0
   18.3676   -4.7803   -0.9272 H   0  0  0  1  0  0  0  0  0  0  0  0
   19.2474   -3.9571   -4.1139 C   0  0  0  1  0  0  0  0  0  0  0  0
   19.6470   -3.0818   -4.5820 H   0  0  0  1  0  0  0  0  0  0  0  0
   19.0042   -3.6896   -2.6301 C   0  0  0  1  0  0  0  0  0  0  0  0
   18.2886   -2.9016   -2.5211 H   0  0  0  1  0  0  0  0  0  0  0  0
   18.8205   -7.3432   -1.6937 N   0  0  0  1  0  0  0  0  0  0  0  0
   18.5757   -8.0492   -2.3277 H   0  0  0  1  0  0  0  0  0  0  0  0
   20.2327   -3.3086   -2.0052 O   0  0  0  1  0  0  0  0  0  0  0  0
   20.6063   -2.6083   -2.5452 H   0  0  0  1  0  0  0  0  0  0  0  0
   17.9692   -4.3365   -4.7781 C   0  0  0  1  0  0  0  0  0  0  0  0
   17.2090   -3.6583   -4.4508 H   0  0  0  1  0  0  0  0  0  0  0  0
   17.7166   -5.3304   -4.4727 H   0  0  0  1  0  0  0  0  0  0  0  0
   18.0088   -4.3060   -6.1886 O   0  0  0  1  0  0  0  0  0  0  0  0
   18.1953   -5.1936   -6.5030 H   0  0  0  1  0  0  0  0  0  0  0  0
   18.5882   -7.5364   -0.3922 C   0  0  0  1  0  0  0  0  0  0  0  0
   18.9565   -6.7504    0.4767 O   0  0  0  1  0  0  0  0  0  0  0  0
   17.8314   -8.8019   -0.0389 C   0  0  0  1  0  0  0  0  0  0  0  0
   18.2508   -9.5504   -0.6784 H   0  0  0  1  0  0  0  0  0  0  0  0
   16.7854   -8.6833   -0.2306 H   0  0  0  1  0  0  0  0  0  0  0  0
   17.9794   -9.0567    0.9897 H   0  0  0  1  0  0  0  0  0  0  0  0
  1  2  1  0  0  0  0
  1  3  1  0  0  0  0
  1  4  1  0  0  0  0
  1 44  1  0  0  0  0
  3 20  1  0  0  0  0
  4  5  1  0  0  0  0
  4  6  1  0  0  0  0
  4  8  1  0  0  0  0
  6  7  1  0  0  0  0
  8  9  1  0  0  0  0
  8 10  1  0  0  0  0
  8 20  1  0  0  0  0
 10 11  1  0  0  0  0
 12 13  1  0  0  0  0
 12 14  1  0  0  0  0
 12 15  1  0  0  0  0
 12 17  1  0  0  0  0
 15 16  1  0  0  0  0
 17 18  1  0  0  0  0
 17 19  1  0  0  0  0
 17 20  1  0  0  0  0
 19 22  1  0  0  0  0
 20 21  1  0  0  0  0
 22 23  1  0  0  0  0
 22 24  1  0  0  0  0
 22 25  1  0  0  0  0
 24 42  1  0  0  0  0
 25 26  1  0  0  0  0
 25 27  1  0  0  0  0
 25 29  1  0  0  0  0
 27 28  1  0  0  0  0
 29 30  1  0  0  0  0
 29 31  1  0  0  0  0
 29 42  1  0  0  0  0
 31 32  1  0  0  0  0
 33 34  1  0  0  0  0
 33 35  1  0  0  0  0
 33 36  1  0  0  0  0
 33 38  1  0  0  0  0
 36 37  1  0  0  0  0
 38 39  1  0  0  0  0
 38 40  1  0  0  0  0
 38 42  1  0  0  0  0
 40 41  1  0  0  0  0
 42 43  1  0  0  0  0
 44194  1  0  0  0  0
 45 46  1  0  0  0  0
 45 54  1  0  0  0  0
 46 47  1  0  0  0  0
 46 48  1  0  0  0  0
 46 49  2  0  0  0  0
 47 50  1  0  0  0  0
 50 51  1  0  0  0  0
 50 52  1  0  0  0  0
 50 53  2  0  0  0  0
 51205  1  0  0  0  0
 54 55  1  0  0  0  0
 54 56  1  0  0  0  0
 54 57  1  0  0  0  0
 57 58  1  0  0  0  0
 57 59  2  0  0  0  0
 59 60  1  0  0  0  0
 59 64  1  0  0  0  0
 60 61  1  0  0  0  0
 60 62  1  0  0  0  0
 60 63  1  0  0  0  0
 64 65  1  0  0  0  0
 64 66  1  0  0  0  0
 64 67  1  0  0  0  0
 67 68  1  0  0  0  0
 67 69  1  0  0  0  0
 67 70  1  0  0  0  0
 70 71  1  0  0  0  0
 70 72  2  0  0  0  0
 72 73  1  0  0  0  0
 72 77  1  0  0  0  0
 73 74  1  0  0  0  0
 73 75  1  0  0  0  0
 73 76  1  0  0  0  0
 77 78  1  0  0  0  0
 77 79  1  0  0  0  0
 77 80  1  0  0  0  0
 80 81  1  0  0  0  0
 80 82  1  0  0  0  0
 80 83  1  0  0  0  0
 83 84  1  0  0  0  0
 83 85  2  0  0  0  0
 85 86  1  0  0  0  0
 85 89  1  0  0  0  0
 86 87  1  0  0  0  0
 86 88  1  0  0  0  0
 86 93  1  0  0  0  0
 89 90  1  0  0  0  0
 89 91  1  0  0  0  0
 89 92  1  0  0  0  0
 93 94  1  0  0  0  0
 93 95  1  0  0  0  0
 93 96  1  0  0  0  0
 96 97  1  0  0  0  0
 96 98  2  0  0  0  0
 98 99  1  0  0  0  0
 98102  1  0  0  0  0
 99100  1  0  0  0  0
 99101  1  0  0  0  0
 99106  1  0  0  0  0
102103  1  0  0  0  0
102104  1  0  0  0  0
102105  1  0  0  0  0
106107  1  0  0  0  0
106108  1  0  0  0  0
106109  1  0  0  0  0
109110  1  0  0  0  0
109111  2  0  0  0  0
111112  1  0  0  0  0
111115  1  0  0  0  0
112113  1  0  0  0  0
112114  1  0  0  0  0
112119  1  0  0  0  0
115116  1  0  0  0  0
115117  1  0  0  0  0
115118  1  0  0  0  0
119120  1  0  0  0  0
119121  1  0  0  0  0
119122  1  0  0  0  0
122123  1  0  0  0  0
122124  2  0  0  0  0
124125  1  0  0  0  0
124128  1  0  0  0  0
125126  1  0  0  0  0
125127  1  0  0  0  0
125132  1  0  0  0  0
128129  1  0  0  0  0
128130  1  0  0  0  0
128131  1  0  0  0  0
132133  1  0  0  0  0
132134  1  0  0  0  0
132135  1  0  0  0  0
135136  1  0  0  0  0
135137  2  0  0  0  0
137138  1  0  0  0  0
137141  1  0  0  0  0
138139  1  0  0  0  0
138140  1  0  0  0  0
138145  1  0  0  0  0
141142  1  0  0  0  0
141143  1  0  0  0  0
141144  1  0  0  0  0
145146  1  0  0  0  0
145147  1  0  0  0  0
145148  1  0  0  0  0
148149  1  0  0  0  0
148150  2  0  0  0  0
150151  1  0  0  0  0
150154  1  0  0  0  0
151152  1  0  0  0  0
151153  1  0  0  0  0
151158  1  0  0  0  0
154155  1  0  0  0  0
154156  1  0  0  0  0
154157  1  0  0  0  0
158159  1  0  0  0  0
158160  1  0  0  0  0
158161  1  0  0  0  0
161162  1  0  0  0  0
161163  2  0  0  0  0
163164  1  0  0  0  0
163167  1  0  0  0  0
164165  1  0  0  0  0
164166  1  0  0  0  0
164171  1  0  0  0  0
167168  1  0  0  0  0
167169  1  0  0  0  0
167170  1  0  0  0  0
171172  1  0  0  0  0
171173  1  0  0  0  0
171174  1  0  0  0  0
174175  1  0  0  0  0
174176  2  0  0  0  0
176177  1  0  0  0  0
176181  1  0  0  0  0
177178  1  0  0  0  0
177179  1  0  0  0  0
177180  1  0  0  0  0
181182  1  0  0  0  0
181183  1  0  0  0  0
181184  1  0  0  0  0
185186  1  0  0  0  0
185187  1  0  0  0  0
185189  1  0  0  0  0
185196  1  0  0  0  0
187188  1  0  0  0  0
187190  1  0  0  0  0
187197  1  0  0  0  0
189192  1  0  0  0  0
190191  1  0  0  0  0
190194  1  0  0  0  0
190199  1  0  0  0  0
192193  1  0  0  0  0
192194  1  0  0  0  0
192201  1  0  0  0  0
194195  1  0  0  0  0
196210  1  0  0  0  0
197198  1  0  0  0  0
199200  1  0  0  0  0
201202  1  0  0  0  0
201203  1  0  0  0  0
201204  1  0  0  0  0
205206  1  0  0  0  0
205207  1  0  0  0  0
205209  1  0  0  0  0
207208  1  0  0  0  0
207210  1  0  0  0  0
207216  1  0  0  0  0
209212  1  0  0  0  0
210211  1  0  0  0  0
210214  1  0  0  0  0
212213  1  0  0  0  0
212214  1  0  0  0  0
212220  1  0  0  0  0
214215  1  0  0  0  0
214218  1  0  0  0  0
216217  1  0  0  0  0
216225  1  0  0  0  0
218219  1  0  0  0  0
220221  1  0  0  0  0
220222  1  0  0  0  0
220223  1  0  0  0  0
223224  1  0  0  0  0
225226  2  0  0  0  0
225227  1  0  0  0  0
227228  1  0  0  0  0
227229  1  0  0  0  0
227230  1  0  0  0  0
M  BCL ATM C_TeTeTeTe H_S O_Te2Te2TeTe C_TeTeTeTe H_S O_Te2Te2TeTe H_S C_TeTeTeTe H_S O_Te2Te2TeTe H_S C_TeTeTeTe H_S H_S O_Te2Te2TeTe H_S C_TeTeTeTe H_S O_Te2Te2TeTe C_TeTeTeTe H_S C_TeTeTeTe H_S O_Te2Te2TeTe C_TeTeTeTe H_S O_Te2Te2TeTe H_S C_TeTeTeTe H_S O_Te2Te2TeTe H_S C_TeTeTeTe H_S H_S O_Te2Te2TeTe H_S C_TeTeTeTe H_S O_Te2Te2TeTe H_S C_TeTeTeTe H_S O_Te2Te2TeTe O_Tr2TrTrPi2 P_TeTeTeTePi O_Tr2TrTrPi2 O_Te2Te2TeTe O_Tr2Tr2TrPi P_TeTeTeTePi O_Tr2TrTrPi2 O_Te2Te2TeTe O_Tr2Tr2TrPi C_TeTeTeTe H_S H_S C_TrTrTrPi H_S C_TrTrTrPi C_TeTeTeTe H_S H_S H_S C_TeTeTeTe H_S H_S C_TeTeTeTe H_S H_S C_TrTrTrPi H_S C_TrTrTrPi C_TeTeTeTe H_S H_S H_S C_TeTeTeTe H_S H_S C_TeTeTeTe H_S H_S C_TrTrTrPi H_S C_TrTrTrPi C_TeTeTeTe H_S H_S C_TeTeTeTe H_S H_S H_S C_TeTeTeTe H_S H_S C_TrTrTrPi H_S C_TrTrTrPi C_TeTeTeTe H_S H_S C_TeTeTeTe H_S H_S H_S C_TeTeTeTe H_S H_S C_TrTrTrPi H_S C_TrTrTrPi C_TeTeTeTe H_S H_S C_TeTeTeTe H_S H_S H_S C_TeTeTeTe H_S H_S C_TrTrTrPi H_S C_TrTrTrPi C_TeTeTeTe H_S H_S C_TeTeTeTe H_S H_S H_S C_TeTeTeTe H_S H_S C_TrTrTrPi H_S C_TrTrTrPi C_TeTeTeTe H_S H_S C_TeTeTeTe H_S H_S H_S C_TeTeTeTe H_S H_S C_TrTrTrPi H_S C_TrTrTrPi C_TeTeTeTe H_S H_S C_TeTeTeTe H_S H_S H_S C_TeTeTeTe H_S H_S C_TrTrTrPi H_S C_TrTrTrPi C_TeTeTeTe H_S H_S C_TeTeTeTe H_S H_S H_S C_TeTeTeTe H_S H_S C_TrTrTrPi H_S C_TrTrTrPi C_TeTeTeTe H_S H_S H_S C_TeTeTeTe H_S H_S H_S C_TeTeTeTe H_S C_TeTeTeTe H_S O_Te2Te2TeTe C_TeTeTeTe H_S C_TeTeTeTe H_S C_TeTeTeTe H_S O_Te2Te2TeTe O_Te2Te2TeTe H_S O_Te2Te2TeTe H_S C_TeTeTeTe H_S H_S H_S C_TeTeTeTe H_S C_TeTeTeTe H_S O_Te2Te2TeTe C_TeTeTeTe H_S C_TeTeTeTe H_S C_TeTeTeTe H_S N_TrTrTrPi2 H_S O_Te2Te2TeTe H_S C_TeTeTeTe H_S H_S O_Te2Te2TeTe H_S C_TrTrTrPi O_Tr2Tr2TrPi C_TeTeTeTe H_S H_S H_S
M  BCL BND NonConjugatedSingleBond NonConjugatedSingleBondInRing NonConjugatedSingleBondInRing NonConjugatedSingleBond NonConjugatedSingleBondInRing NonConjugatedSingleBond NonConjugatedSingleBond NonConjugatedSingleBondInRing NonConjugatedSingleBond NonConjugatedSingleBond NonConjugatedSingleBond NonConjugatedSingleBondInRing NonConjugatedSingleBond NonConjugatedSingleBond NonConjugatedSingleBond NonConjugatedSingleBond NonConjugatedSingleBond NonConjugatedSingleBond NonConjugatedSingleBond NonConjugatedSingleBond NonConjugatedSingleBond NonConjugatedSingleBond NonConjugatedSingleBond NonConjugatedSingleBond NonConjugatedSingleBondInRing NonConjugatedSingleBondInRing NonConjugatedSingleBondInRing NonConjugatedSingleBond NonConjugatedSingleBond NonConjugatedSingleBondInRing NonConjugatedSingleBond NonConjugatedSingleBond NonConjugatedSingleBond NonConjugatedSingleBondInRing NonConjugatedSingleBond NonConjugatedSingleBond NonConjugatedSingleBond NonConjugatedSingleBond NonConjugatedSingleBond NonConjugatedSingleBond NonConjugatedSingleBond NonConjugatedSingleBond NonConjugatedSingleBond NonConjugatedSingleBond NonConjugatedSingleBond NonConjugatedSingleBond ConjugatedSingleBond NonConjugatedSingleBond ConjugatedSingleBond ConjugatedSingleBond ConjugatedDoubleBond ConjugatedSingleBond ConjugatedSingleBond ConjugatedSingleBond ConjugatedDoubleBond NonConjugatedSingleBond NonConjugatedSingleBond NonConjugatedSingleBond NonConjugatedSingleBond NonConjugatedSingleBond ConjugatedDoubleBond NonConjugatedSingleBond NonConjugatedSingleBond NonConjugatedSingleBond NonConjugatedSingleBond NonConjugatedSingleBond NonConjugatedSingleBond NonConjugatedSingleBond NonConjugatedSingleBond NonConjugatedSingleBond NonConjugatedSingleBond NonConjugatedSingleBond NonConjugatedSingleBond ConjugatedDoubleBond NonConjugatedSingleBond NonConjugatedSingleBond NonConjugatedSingleBond NonConjugatedSingleBond NonConjugatedSingleBond NonConjugatedSingleBond NonConjugatedSingleBond NonConjugatedSingleBond NonConjugatedSingleBond NonConjugatedSingleBond NonConjugatedSingleBond NonConjugatedSingleBond ConjugatedDoubleBond NonConjugatedSingleBond NonConjugatedSingleBond NonConjugatedSingleBond NonConjugatedSingleBond NonConjugatedSingleBond NonConjugatedSingleBond NonConjugatedSingleBond NonConjugatedSingleBond NonConjugatedSingleBond NonConjugatedSingleBond NonConjugatedSingleBond NonConjugatedSingleBond ConjugatedDoubleBond NonConjugatedSingleBond NonConjugatedSingleBond NonConjugatedSingleBond NonConjugatedSingleBond NonConjugatedSingleBond NonConjugatedSingleBond NonConjugatedSingleBond NonConjugatedSingleBond NonConjugatedSingleBond NonConjugatedSingleBond NonConjugatedSingleBond NonConjugatedSingleBond ConjugatedDoubleBond NonConjugatedSingleBond NonConjugatedSingleBond NonConjugatedSingleBond NonConjugatedSingleBond NonConjugatedSingleBond NonConjugatedSingleBond NonConjugatedSingleBond NonConjugatedSingleBond NonConjugatedSingleBond NonConjugatedSingleBond NonConjugatedSingleBond NonConjugatedSingleBond ConjugatedDoubleBond NonConjugatedSingleBond NonConjugatedSingleBond NonConjugatedSingleBond NonConjugatedSingleBond NonConjugatedSingleBond NonConjugatedSingleBond NonConjugatedSingleBond NonConjugatedSingleBond NonConjugatedSingleBond NonConjugatedSingleBond NonConjugatedSingleBond NonConjugatedSingleBond ConjugatedDoubleBond NonConjugatedSingleBond NonConjugatedSingleBond NonConjugatedSingleBond NonConjugatedSingleBond NonConjugatedSingleBond NonConjugatedSingleBond NonConjugatedSingleBond NonConjugatedSingleBond NonConjugatedSingleBond NonConjugatedSingleBond NonConjugatedSingleBond NonConjugatedSingleBond ConjugatedDoubleBond NonConjugatedSingleBond NonConjugatedSingleBond NonConjugatedSingleBond NonConjugatedSingleBond NonConjugatedSingleBond NonConjugatedSingleBond NonConjugatedSingleBond NonConjugatedSingleBond NonConjugatedSingleBond NonConjugatedSingleBond NonConjugatedSingleBond NonConjugatedSingleBond ConjugatedDoubleBond NonConjugatedSingleBond NonConjugatedSingleBond NonConjugatedSingleBond NonConjugatedSingleBond NonConjugatedSingleBond NonConjugatedSingleBond NonConjugatedSingleBond NonConjugatedSingleBond NonConjugatedSingleBond NonConjugatedSingleBond NonConjugatedSingleBond NonConjugatedSingleBond ConjugatedDoubleBond NonConjugatedSingleBond NonConjugatedSingleBond NonConjugatedSingleBond NonConjugatedSingleBond NonConjugatedSingleBond NonConjugatedSingleBond NonConjugatedSingleBond NonConjugatedSingleBond NonConjugatedSingleBond NonConjugatedSingleBondInRing NonConjugatedSingleBondInRing NonConjugatedSingleBond NonConjugatedSingleBond NonConjugatedSingleBondInRing NonConjugatedSingleBond NonConjugatedSingleBondInRing NonConjugatedSingleBond NonConjugatedSingleBondInRing NonConjugatedSingleBond NonConjugatedSingleBond NonConjugatedSingleBondInRing NonConjugatedSingleBond NonConjugatedSingleBond NonConjugatedSingleBond NonConjugatedSingleBond NonConjugatedSingleBond NonConjugatedSingleBond NonConjugatedSingleBond NonConjugatedSingleBond NonConjugatedSingleBond NonConjugatedSingleBondInRing NonConjugatedSingleBondInRing NonConjugatedSingleBond NonConjugatedSingleBondInRing NonConjugatedSingleBond NonConjugatedSingleBondInRing NonConjugatedSingleBond NonConjugatedSingleBondInRing NonConjugatedSingleBond NonConjugatedSingleBondInRing NonConjugatedSingleBond NonConjugatedSingleBond NonConjugatedSingleBond NonConjugatedSingleBond AmideSingleBond NonConjugatedSingleBond NonConjugatedSingleBond NonConjugatedSingleBond NonConjugatedSingleBond NonConjugatedSingleBond ConjugatedDoubleBond NonConjugatedSingleBond NonConjugatedSingleBond NonConjugatedSingleBond NonConjugatedSingleBond
M  BCL CHI   1   R   4   R   8   R  17   S  20   R  22   S  25   R  29   S  38   S  42   R  46   R  50   S 185   R 187   S 190   S 192   R 194   R 205   R 207   S 210   R 212   S 214   S
M  BCL DBI - - E E E E E E E E Z - -
M  END
> <ConfClashScore>
0.00338438 

> <ConfOneFourInteractionScore>
-0.961754 

> <ConfScore>
0.524556 

> <ConfScorePBest>
0.0121115 

> <ConfTolerance>
3.07927 

$$$$
L05.****
  PyMOL2.5          3D                             0

230233  0  0  0  0  0  0  0  0999 V2000
   11.9493   -2.9863   -2.8821 C   0  0  0  1  0  0  0  0  0  0  0  0
   11.6645   -3.8126   -3.4992 H   0  0  0  1  0  0  0  0  0  0  0  0
   12.0223   -1.8039   -3.6642 O   0  0  0  1  0  0  0  0  0  0  0  0
   10.9740   -2.7831   -1.8681 C   0  0  0  1  0  0  0  0  0  0  0  0
   11.4278   -2.8769   -0.9037 H   0  0  0  1  0  0  0  0  0  0  0  0
    9.9296   -3.7485   -1.9996 O   0  0  0  1  0  0  0  0  0  0  0  0
    9.5049   -3.6468   -2.8545 H   0  0  0  1  0  0  0  0  0  0  0  0
   10.4439   -1.4751   -2.0261 C   0  0  0  1  0  0  0  0  0  0  0  0
    9.3905   -1.5297   -2.2060 H   0  0  0  1  0  0  0  0  0  0  0  0
   10.6869   -0.7080   -0.8460 O   0  0  0  1  0  0  0  0  0  0  0  0
   11.2689    0.0263   -1.0553 H   0  0  0  1  0  0  0  0  0  0  0  0
    9.3562   -1.7222   -4.7765 C   0  0  0  1  0  0  0  0  0  0  0  0
   10.0814   -2.3485   -5.2527 H   0  0  0  1  0  0  0  0  0  0  0  0
    8.8875   -2.2607   -3.9796 H   0  0  0  1  0  0  0  0  0  0  0  0
    8.3649   -1.3653   -5.7308 O   0  0  0  1  0  0  0  0  0  0  0  0
    7.4969   -1.5993   -5.3940 H   0  0  0  1  0  0  0  0  0  0  0  0
   10.0657   -0.5093   -4.1948 C   0  0  0  1  0  0  0  0  0  0  0  0
    9.3316    0.1301   -3.7508 H   0  0  0  1  0  0  0  0  0  0  0  0
   10.7694    0.2005   -5.2088 O   0  0  0  1  0  0  0  0  0  0  0  0
   11.0909   -0.8704   -3.1350 C   0  0  0  1  0  0  0  0  0  0  0  0
   11.6036    0.0136   -2.8181 H   0  0  0  1  0  0  0  0  0  0  0  0
   10.8478    1.5879   -5.0546 C   0  0  0  1  0  0  0  0  0  0  0  0
    9.8608    2.0001   -5.0232 H   0  0  0  1  0  0  0  0  0  0  0  0
   11.5581    1.9120   -3.8448 O   0  0  0  1  0  0  0  0  0  0  0  0
   11.6303    2.1963   -6.2021 C   0  0  0  1  0  0  0  0  0  0  0  0
   11.2370    3.1541   -6.4716 H   0  0  0  1  0  0  0  0  0  0  0  0
   11.6200    1.3379   -7.3442 O   0  0  0  1  0  0  0  0  0  0  0  0
   12.0862    1.7622   -8.0682 H   0  0  0  1  0  0  0  0  0  0  0  0
   13.0301    2.3223   -5.6248 C   0  0  0  1  0  0  0  0  0  0  0  0
   13.5795    3.1066   -6.1023 H   0  0  0  1  0  0  0  0  0  0  0  0
   13.7509    1.0988   -5.7396 O   0  0  0  1  0  0  0  0  0  0  0  0
   14.5671    1.2516   -6.2214 H   0  0  0  1  0  0  0  0  0  0  0  0
   13.6745    5.0354   -4.3514 C   0  0  0  1  0  0  0  0  0  0  0  0
   14.5337    4.7090   -3.8035 H   0  0  0  1  0  0  0  0  0  0  0  0
   13.8755    4.9742   -5.4006 H   0  0  0  1  0  0  0  0  0  0  0  0
   13.3766    6.3815   -4.0051 O   0  0  0  1  0  0  0  0  0  0  0  0
   13.1506    6.4302   -3.0734 H   0  0  0  1  0  0  0  0  0  0  0  0
   12.4866    4.1426   -4.0100 C   0  0  0  1  0  0  0  0  0  0  0  0
   11.6747    4.4127   -4.6525 H   0  0  0  1  0  0  0  0  0  0  0  0
   12.1225    4.4043   -2.6553 O   0  0  0  1  0  0  0  0  0  0  0  0
   11.2062    4.6883   -2.6189 H   0  0  0  1  0  0  0  0  0  0  0  0
   12.7362    2.6574   -4.1721 C   0  0  0  1  0  0  0  0  0  0  0  0
   13.5526    2.3620   -3.5467 H   0  0  0  1  0  0  0  0  0  0  0  0
   13.2150   -3.2510   -2.2882 O   0  0  0  1  0  0  0  0  0  0  0  0
   23.5927   -9.6614   -2.8299 O   0  0  0  1  0  0  0  0  0  0  0  0
   22.0560   -9.1607   -2.8956 P   0  0  0  1  0  0  0  0  0  0  0  0
   21.8130   -8.5879   -1.4085 O   0  0  0  1  0  0  0  0  0  0  0  0
   21.2137  -10.3606   -3.2288 O   0  0  0  0  0  0  0  0  0  0  0  0
   21.9788   -8.1035   -3.8856 O   0  0  0  1  0  0  0  0  0  0  0  0
   22.0349   -7.1083   -0.9801 P   0  0  0  1  0  0  0  0  0  0  0  0
   20.6298   -6.4335   -0.7649 O   0  0  0  1  0  0  0  0  0  0  0  0
   22.6708   -6.3264   -2.1334 O   0  0  0  0  0  0  0  0  0  0  0  0
   22.8544   -7.1180    0.2509 O   0  0  0  1  0  0  0  0  0  0  0  0
   24.1217  -10.5479   -3.8289 C   0  0  0  1  0  0  0  0  0  0  0  0
   23.7945  -11.5476   -3.6333 H   0  0  0  1  0  0  0  0  0  0  0  0
   25.1910  -10.5123   -3.8124 H   0  0  0  1  0  0  0  0  0  0  0  0
   23.6220  -10.1064   -5.1730 C   0  0  0  1  0  0  0  0  0  0  0  0
   22.5951  -10.1292   -5.3359 H   0  0  0  1  0  0  0  0  0  0  0  0
   24.3937   -9.6884   -6.1707 C   0  0  0  1  0  0  0  0  0  0  0  0
   23.8615   -9.1769   -7.4765 C   0  0  0  1  0  0  0  0  0  0  0  0
   22.7924   -9.2206   -7.4681 H   0  0  0  1  0  0  0  0  0  0  0  0
   24.2367   -9.7814   -8.2756 H   0  0  0  1  0  0  0  0  0  0  0  0
   24.1757   -8.1638   -7.6170 H   0  0  0  1  0  0  0  0  0  0  0  0
   25.8901   -9.6974   -6.0627 C   0  0  0  1  0  0  0  0  0  0  0  0
   26.1678   -9.9422   -5.0588 H   0  0  0  1  0  0  0  0  0  0  0  0
   26.2655   -8.7265   -6.3105 H   0  0  0  1  0  0  0  0  0  0  0  0
   26.4927  -10.7216   -7.0103 C   0  0  0  1  0  0  0  0  0  0  0  0
   26.2960  -10.4126   -8.0157 H   0  0  0  1  0  0  0  0  0  0  0  0
   26.0270  -11.6679   -6.8300 H   0  0  0  1  0  0  0  0  0  0  0  0
   27.9800  -10.8793   -6.8399 C   0  0  0  1  0  0  0  0  0  0  0  0
   28.5701  -10.0305   -6.9539 H   0  0  0  1  0  0  0  0  0  0  0  0
   28.6005  -12.0320   -6.5521 C   0  0  0  1  0  0  0  0  0  0  0  0
   30.0415  -12.1012   -6.2150 C   0  0  0  1  0  0  0  0  0  0  0  0
   30.3437  -11.1863   -5.7496 H   0  0  0  1  0  0  0  0  0  0  0  0
   30.6099  -12.2509   -7.1091 H   0  0  0  1  0  0  0  0  0  0  0  0
   30.2116  -12.9162   -5.5429 H   0  0  0  1  0  0  0  0  0  0  0  0
   27.8027  -13.3084   -6.5718 C   0  0  0  1  0  0  0  0  0  0  0  0
   28.3598  -14.0500   -7.1052 H   0  0  0  1  0  0  0  0  0  0  0  0
   26.8779  -13.1241   -7.0774 H   0  0  0  1  0  0  0  0  0  0  0  0
   27.4963  -13.8406   -5.1814 C   0  0  0  1  0  0  0  0  0  0  0  0
   26.9029  -13.1045   -4.6804 H   0  0  0  1  0  0  0  0  0  0  0  0
   28.4291  -13.9558   -4.6700 H   0  0  0  1  0  0  0  0  0  0  0  0
   26.7687  -15.1438   -5.0843 C   0  0  0  1  0  0  0  0  0  0  0  0
   27.3392  -15.9755   -4.8305 H   0  0  0  1  0  0  0  0  0  0  0  0
   25.4736  -15.3540   -5.2871 C   0  0  0  1  0  0  0  0  0  0  0  0
   24.6123  -14.3278   -5.9705 C   0  0  0  1  0  0  0  0  0  0  0  0
   25.0551  -13.3613   -5.8493 H   0  0  0  1  0  0  0  0  0  0  0  0
   23.6395  -14.3334   -5.5250 H   0  0  0  1  0  0  0  0  0  0  0  0
   24.7507  -16.6030   -4.8677 C   0  0  0  1  0  0  0  0  0  0  0  0
   25.3338  -17.4597   -5.1341 H   0  0  0  1  0  0  0  0  0  0  0  0
   23.8029  -16.6492   -5.3621 H   0  0  0  1  0  0  0  0  0  0  0  0
   24.6007  -16.5894   -3.8084 H   0  0  0  1  0  0  0  0  0  0  0  0
   24.4829  -14.6343   -7.4537 C   0  0  0  1  0  0  0  0  0  0  0  0
   24.1004  -15.6286   -7.5531 H   0  0  0  1  0  0  0  0  0  0  0  0
   25.4595  -14.5821   -7.8879 H   0  0  0  1  0  0  0  0  0  0  0  0
   23.5816  -13.7110   -8.2265 C   0  0  0  1  0  0  0  0  0  0  0  0
   22.6070  -13.6144   -7.8767 H   0  0  0  1  0  0  0  0  0  0  0  0
   23.8958  -13.0048   -9.3089 C   0  0  0  1  0  0  0  0  0  0  0  0
   25.2887  -12.7353   -9.8037 C   0  0  0  1  0  0  0  0  0  0  0  0
   25.5439  -13.4821  -10.5262 H   0  0  0  1  0  0  0  0  0  0  0  0
   25.9623  -12.7956   -8.9745 H   0  0  0  1  0  0  0  0  0  0  0  0
   22.7988  -12.4057  -10.1395 C   0  0  0  1  0  0  0  0  0  0  0  0
   23.2260  -11.8443  -10.9440 H   0  0  0  1  0  0  0  0  0  0  0  0
   22.2033  -11.7586   -9.5301 H   0  0  0  1  0  0  0  0  0  0  0  0
   22.1852  -13.1871  -10.5366 H   0  0  0  1  0  0  0  0  0  0  0  0
   25.4370  -11.3671  -10.4490 C   0  0  0  1  0  0  0  0  0  0  0  0
   25.1666  -10.6209   -9.7314 H   0  0  0  1  0  0  0  0  0  0  0  0
   24.7749  -11.3125  -11.2878 H   0  0  0  1  0  0  0  0  0  0  0  0
   26.8376  -11.0885  -10.9253 C   0  0  0  1  0  0  0  0  0  0  0  0
   27.4777  -11.9059  -10.9863 H   0  0  0  1  0  0  0  0  0  0  0  0
   27.3443   -9.9125  -11.2759 C   0  0  0  1  0  0  0  0  0  0  0  0
   26.5169   -8.6608  -11.2293 C   0  0  0  1  0  0  0  0  0  0  0  0
   25.6332   -8.8275  -11.8092 H   0  0  0  1  0  0  0  0  0  0  0  0
   27.0888   -7.8705  -11.6689 H   0  0  0  1  0  0  0  0  0  0  0  0
   28.7588   -9.7142  -11.7432 C   0  0  0  1  0  0  0  0  0  0  0  0
   29.3690   -9.4134  -10.9173 H   0  0  0  1  0  0  0  0  0  0  0  0
   28.7818   -8.9562  -12.4981 H   0  0  0  1  0  0  0  0  0  0  0  0
   29.1326  -10.6318  -12.1471 H   0  0  0  1  0  0  0  0  0  0  0  0
   26.0893   -8.2138   -9.8409 C   0  0  0  1  0  0  0  0  0  0  0  0
   25.4810   -8.9806   -9.4085 H   0  0  0  1  0  0  0  0  0  0  0  0
   25.5175   -7.3142   -9.9338 H   0  0  0  1  0  0  0  0  0  0  0  0
   27.2430   -7.9517   -8.9294 C   0  0  0  1  0  0  0  0  0  0  0  0
   27.5500   -8.7118   -8.2893 H   0  0  0  1  0  0  0  0  0  0  0  0
   27.8992   -6.7908   -8.8958 C   0  0  0  1  0  0  0  0  0  0  0  0
   27.3080   -5.5644   -9.5380 C   0  0  0  1  0  0  0  0  0  0  0  0
   26.5810   -5.8744  -10.2592 H   0  0  0  1  0  0  0  0  0  0  0  0
   28.0914   -5.0259  -10.0292 H   0  0  0  1  0  0  0  0  0  0  0  0
   29.2596   -6.6970   -8.3169 C   0  0  0  1  0  0  0  0  0  0  0  0
   29.2392   -6.0583   -7.4587 H   0  0  0  1  0  0  0  0  0  0  0  0
   29.9302   -6.2928   -9.0462 H   0  0  0  1  0  0  0  0  0  0  0  0
   29.5919   -7.6721   -8.0277 H   0  0  0  1  0  0  0  0  0  0  0  0
   26.6345   -4.6360   -8.5405 C   0  0  0  1  0  0  0  0  0  0  0  0
   27.3877   -4.2031   -7.9159 H   0  0  0  1  0  0  0  0  0  0  0  0
   25.9606   -5.2115   -7.9409 H   0  0  0  1  0  0  0  0  0  0  0  0
   25.8658   -3.5319   -9.1943 C   0  0  0  1  0  0  0  0  0  0  0  0
   25.2182   -3.8080   -9.9598 H   0  0  0  1  0  0  0  0  0  0  0  0
   25.9206   -2.2366   -8.9031 C   0  0  0  1  0  0  0  0  0  0  0  0
   26.5331   -1.6907   -7.6461 C   0  0  0  1  0  0  0  0  0  0  0  0
   26.5879   -2.4784   -6.9240 H   0  0  0  1  0  0  0  0  0  0  0  0
   25.9059   -0.9078   -7.2738 H   0  0  0  1  0  0  0  0  0  0  0  0
   25.3601   -1.1972   -9.8327 C   0  0  0  1  0  0  0  0  0  0  0  0
   24.2944   -1.2868   -9.8677 H   0  0  0  1  0  0  0  0  0  0  0  0
   25.7624   -1.3422  -10.8135 H   0  0  0  1  0  0  0  0  0  0  0  0
   25.6244   -0.2227   -9.4786 H   0  0  0  1  0  0  0  0  0  0  0  0
   27.9304   -1.1314   -7.8588 C   0  0  0  1  0  0  0  0  0  0  0  0
   27.8785   -0.3563   -8.5946 H   0  0  0  1  0  0  0  0  0  0  0  0
   28.5621   -1.9188   -8.2134 H   0  0  0  1  0  0  0  0  0  0  0  0
   28.5345   -0.5609   -6.6036 C   0  0  0  1  0  0  0  0  0  0  0  0
   28.8373   -1.2306   -5.8678 H   0  0  0  1  0  0  0  0  0  0  0  0
   28.7099    0.7346   -6.3657 C   0  0  0  1  0  0  0  0  0  0  0  0
   28.0482    1.8251   -7.1597 C   0  0  0  1  0  0  0  0  0  0  0  0
   27.6782    2.5644   -6.4804 H   0  0  0  1  0  0  0  0  0  0  0  0
   27.2315    1.4012   -7.7058 H   0  0  0  1  0  0  0  0  0  0  0  0
   29.6031    1.2161   -5.2601 C   0  0  0  1  0  0  0  0  0  0  0  0
   29.2379    2.1500   -4.8870 H   0  0  0  1  0  0  0  0  0  0  0  0
   30.5966    1.3462   -5.6355 H   0  0  0  1  0  0  0  0  0  0  0  0
   29.6117    0.4952   -4.4693 H   0  0  0  1  0  0  0  0  0  0  0  0
   28.9896    2.5002   -8.1438 C   0  0  0  1  0  0  0  0  0  0  0  0
   29.8485    2.8486   -7.6091 H   0  0  0  1  0  0  0  0  0  0  0  0
   28.4817    3.3323   -8.5848 H   0  0  0  1  0  0  0  0  0  0  0  0
   29.4500    1.5819   -9.2441 C   0  0  0  1  0  0  0  0  0  0  0  0
   29.8993    0.6921   -8.9476 H   0  0  0  1  0  0  0  0  0  0  0  0
   29.3448    1.7848  -10.5519 C   0  0  0  1  0  0  0  0  0  0  0  0
   29.8520    0.7741  -11.5435 C   0  0  0  1  0  0  0  0  0  0  0  0
   29.1348    0.6811  -12.3321 H   0  0  0  1  0  0  0  0  0  0  0  0
   29.9595   -0.1670  -11.0457 H   0  0  0  1  0  0  0  0  0  0  0  0
   28.7268    3.0083  -11.1628 C   0  0  0  1  0  0  0  0  0  0  0  0
   27.7214    2.7315  -11.4024 H   0  0  0  1  0  0  0  0  0  0  0  0
   29.2572    3.2930  -12.0474 H   0  0  0  1  0  0  0  0  0  0  0  0
   28.7350    3.8193  -10.4649 H   0  0  0  1  0  0  0  0  0  0  0  0
   31.1920    1.1562  -12.1507 C   0  0  0  1  0  0  0  0  0  0  0  0
   31.8809    1.2960  -11.3439 H   0  0  0  1  0  0  0  0  0  0  0  0
   31.0562    2.0823  -12.6690 H   0  0  0  1  0  0  0  0  0  0  0  0
   31.8199    0.1879  -13.1161 C   0  0  0  1  0  0  0  0  0  0  0  0
   32.0488   -0.7633  -12.7633 H   0  0  0  1  0  0  0  0  0  0  0  0
   32.1049    0.4586  -14.3912 C   0  0  0  1  0  0  0  0  0  0  0  0
   32.7149   -0.5780  -15.2876 C   0  0  0  1  0  0  0  0  0  0  0  0
   32.4488   -0.3729  -16.3035 H   0  0  0  1  0  0  0  0  0  0  0  0
   32.3512   -1.5458  -15.0123 H   0  0  0  1  0  0  0  0  0  0  0  0
   33.7799   -0.5545  -15.1864 H   0  0  0  1  0  0  0  0  0  0  0  0
   31.8269    1.8103  -14.9797 C   0  0  0  1  0  0  0  0  0  0  0  0
   30.7836    1.8482  -15.2140 H   0  0  0  1  0  0  0  0  0  0  0  0
   32.4066    1.9486  -15.8683 H   0  0  0  1  0  0  0  0  0  0  0  0
   32.0707    2.5746  -14.2716 H   0  0  0  1  0  0  0  0  0  0  0  0
   16.1075   -5.2361   -1.7786 C   0  0  0  1  0  0  0  0  0  0  0  0
   16.4246   -5.7929   -0.9218 H   0  0  0  1  0  0  0  0  0  0  0  0
   14.8072   -5.8229   -2.3126 C   0  0  0  1  0  0  0  0  0  0  0  0
   14.9684   -6.8340   -2.6234 H   0  0  0  1  0  0  0  0  0  0  0  0
   15.8975   -3.8712   -1.4089 O   0  0  0  1  0  0  0  0  0  0  0  0
   14.3497   -4.9816   -3.5082 C   0  0  0  1  0  0  0  0  0  0  0  0
   13.3722   -5.3038   -3.8010 H   0  0  0  1  0  0  0  0  0  0  0  0
   15.5967   -3.0396   -2.5403 C   0  0  0  1  0  0  0  0  0  0  0  0
   16.3917   -3.1087   -3.2531 H   0  0  0  1  0  0  0  0  0  0  0  0
   14.2980   -3.4979   -3.1868 C   0  0  0  1  0  0  0  0  0  0  0  0
   14.1436   -2.9482   -4.0917 H   0  0  0  1  0  0  0  0  0  0  0  0
   17.1086   -5.3055   -2.7874 O   0  0  0  1  0  0  0  0  0  0  0  0
   13.8089   -5.7914   -1.2910 O   0  0  0  1  0  0  0  0  0  0  0  0
   13.8256   -4.9374   -0.8528 H   0  0  0  1  0  0  0  0  0  0  0  0
   15.2569   -5.1840   -4.5819 O   0  0  0  1  0  0  0  0  0  0  0  0
   16.0771   -4.7192   -4.4004 H   0  0  0  1  0  0  0  0  0  0  0  0
   15.4513   -1.6077   -2.0849 C   0  0  0  1  0  0  0  0  0  0  0  0
   16.0637   -1.4432   -1.2229 H   0  0  0  1  0  0  0  0  0  0  0  0
   14.4284   -1.4145   -1.8375 H   0  0  0  1  0  0  0  0  0  0  0  0
   15.7589   -0.9506   -2.8713 H   0  0  0  1  0  0  0  0  0  0  0  0
   19.7585   -6.0830   -1.8411 C   0  0  0  1  0  0  0  0  0  0  0  0
   19.0340   -6.8578   -1.9811 H   0  0  0  1  0  0  0  0  0  0  0  0
   19.0568   -4.7920   -1.5187 C   0  0  0  1  0  0  0  0  0  0  0  0
   19.7840   -4.0290   -1.3348 H   0  0  0  1  0  0  0  0  0  0  0  0
   20.5135   -5.9230   -3.0267 O   0  0  0  1  0  0  0  0  0  0  0  0
   18.1870   -4.3833   -2.6719 C   0  0  0  1  0  0  0  0  0  0  0  0
   17.8004   -3.4032   -2.4855 H   0  0  0  1  0  0  0  0  0  0  0  0
   19.6619   -5.6972   -4.1642 C   0  0  0  1  0  0  0  0  0  0  0  0
   20.2499   -5.6699   -5.0577 H   0  0  0  1  0  0  0  0  0  0  0  0
   18.9602   -4.3673   -3.9699 C   0  0  0  1  0  0  0  0  0  0  0  0
   18.2857   -4.1991   -4.7834 H   0  0  0  1  0  0  0  0  0  0  0  0
   18.2327   -4.9735   -0.3331 N   0  0  0  1  0  0  0  0  0  0  0  0
   17.5739   -5.6990   -0.3389 H   0  0  0  1  0  0  0  0  0  0  0  0
   19.9276   -3.3234   -3.9312 O   0  0  0  1  0  0  0  0  0  0  0  0
   20.3130   -3.2775   -4.8093 H   0  0  0  1  0  0  0  0  0  0  0  0
   18.6446   -6.8002   -4.2663 C   0  0  0  1  0  0  0  0  0  0  0  0
   18.0147   -6.6093   -5.1099 H   0  0  0  1  0  0  0  0  0  0  0  0
   18.0542   -6.8063   -3.3739 H   0  0  0  1  0  0  0  0  0  0  0  0
   19.2445   -8.0790   -4.4250 O   0  0  0  1  0  0  0  0  0  0  0  0
   19.9220   -8.1785   -3.7521 H   0  0  0  1  0  0  0  0  0  0  0  0
   18.3178   -4.2066    0.7737 C   0  0  0  1  0  0  0  0  0  0  0  0
   19.0878   -3.2512    0.8258 O   0  0  0  1  0  0  0  0  0  0  0  0
   17.4339   -4.5583    1.9544 C   0  0  0  1  0  0  0  0  0  0  0  0
   18.1061   -4.6062    2.7855 H   0  0  0  1  0  0  0  0  0  0  0  0
   16.9547   -5.5025    1.8004 H   0  0  0  1  0  0  0  0  0  0  0  0
   16.6925   -3.8027    2.1104 H   0  0  0  1  0  0  0  0  0  0  0  0
  1  2  1  0  0  0  0
  1  3  1  0  0  0  0
  1  4  1  0  0  0  0
  1 44  1  0  0  0  0
  3 20  1  0  0  0  0
  4  5  1  0  0  0  0
  4  6  1  0  0  0  0
  4  8  1  0  0  0  0
  6  7  1  0  0  0  0
  8  9  1  0  0  0  0
  8 10  1  0  0  0  0
  8 20  1  0  0  0  0
 10 11  1  0  0  0  0
 12 13  1  0  0  0  0
 12 14  1  0  0  0  0
 12 15  1  0  0  0  0
 12 17  1  0  0  0  0
 15 16  1  0  0  0  0
 17 18  1  0  0  0  0
 17 19  1  0  0  0  0
 17 20  1  0  0  0  0
 19 22  1  0  0  0  0
 20 21  1  0  0  0  0
 22 23  1  0  0  0  0
 22 24  1  0  0  0  0
 22 25  1  0  0  0  0
 24 42  1  0  0  0  0
 25 26  1  0  0  0  0
 25 27  1  0  0  0  0
 25 29  1  0  0  0  0
 27 28  1  0  0  0  0
 29 30  1  0  0  0  0
 29 31  1  0  0  0  0
 29 42  1  0  0  0  0
 31 32  1  0  0  0  0
 33 34  1  0  0  0  0
 33 35  1  0  0  0  0
 33 36  1  0  0  0  0
 33 38  1  0  0  0  0
 36 37  1  0  0  0  0
 38 39  1  0  0  0  0
 38 40  1  0  0  0  0
 38 42  1  0  0  0  0
 40 41  1  0  0  0  0
 42 43  1  0  0  0  0
 44194  1  0  0  0  0
 45 46  1  0  0  0  0
 45 54  1  0  0  0  0
 46 47  1  0  0  0  0
 46 48  1  0  0  0  0
 46 49  2  0  0  0  0
 47 50  1  0  0  0  0
 50 51  1  0  0  0  0
 50 52  1  0  0  0  0
 50 53  2  0  0  0  0
 51205  1  0  0  0  0
 54 55  1  0  0  0  0
 54 56  1  0  0  0  0
 54 57  1  0  0  0  0
 57 58  1  0  0  0  0
 57 59  2  0  0  0  0
 59 60  1  0  0  0  0
 59 64  1  0  0  0  0
 60 61  1  0  0  0  0
 60 62  1  0  0  0  0
 60 63  1  0  0  0  0
 64 65  1  0  0  0  0
 64 66  1  0  0  0  0
 64 67  1  0  0  0  0
 67 68  1  0  0  0  0
 67 69  1  0  0  0  0
 67 70  1  0  0  0  0
 70 71  1  0  0  0  0
 70 72  2  0  0  0  0
 72 73  1  0  0  0  0
 72 77  1  0  0  0  0
 73 74  1  0  0  0  0
 73 75  1  0  0  0  0
 73 76  1  0  0  0  0
 77 78  1  0  0  0  0
 77 79  1  0  0  0  0
 77 80  1  0  0  0  0
 80 81  1  0  0  0  0
 80 82  1  0  0  0  0
 80 83  1  0  0  0  0
 83 84  1  0  0  0  0
 83 85  2  0  0  0  0
 85 86  1  0  0  0  0
 85 89  1  0  0  0  0
 86 87  1  0  0  0  0
 86 88  1  0  0  0  0
 86 93  1  0  0  0  0
 89 90  1  0  0  0  0
 89 91  1  0  0  0  0
 89 92  1  0  0  0  0
 93 94  1  0  0  0  0
 93 95  1  0  0  0  0
 93 96  1  0  0  0  0
 96 97  1  0  0  0  0
 96 98  2  0  0  0  0
 98 99  1  0  0  0  0
 98102  1  0  0  0  0
 99100  1  0  0  0  0
 99101  1  0  0  0  0
 99106  1  0  0  0  0
102103  1  0  0  0  0
102104  1  0  0  0  0
102105  1  0  0  0  0
106107  1  0  0  0  0
106108  1  0  0  0  0
106109  1  0  0  0  0
109110  1  0  0  0  0
109111  2  0  0  0  0
111112  1  0  0  0  0
111115  1  0  0  0  0
112113  1  0  0  0  0
112114  1  0  0  0  0
112119  1  0  0  0  0
115116  1  0  0  0  0
115117  1  0  0  0  0
115118  1  0  0  0  0
119120  1  0  0  0  0
119121  1  0  0  0  0
119122  1  0  0  0  0
122123  1  0  0  0  0
122124  2  0  0  0  0
124125  1  0  0  0  0
124128  1  0  0  0  0
125126  1  0  0  0  0
125127  1  0  0  0  0
125132  1  0  0  0  0
128129  1  0  0  0  0
128130  1  0  0  0  0
128131  1  0  0  0  0
132133  1  0  0  0  0
132134  1  0  0  0  0
132135  1  0  0  0  0
135136  1  0  0  0  0
135137  2  0  0  0  0
137138  1  0  0  0  0
137141  1  0  0  0  0
138139  1  0  0  0  0
138140  1  0  0  0  0
138145  1  0  0  0  0
141142  1  0  0  0  0
141143  1  0  0  0  0
141144  1  0  0  0  0
145146  1  0  0  0  0
145147  1  0  0  0  0
145148  1  0  0  0  0
148149  1  0  0  0  0
148150  2  0  0  0  0
150151  1  0  0  0  0
150154  1  0  0  0  0
151152  1  0  0  0  0
151153  1  0  0  0  0
151158  1  0  0  0  0
154155  1  0  0  0  0
154156  1  0  0  0  0
154157  1  0  0  0  0
158159  1  0  0  0  0
158160  1  0  0  0  0
158161  1  0  0  0  0
161162  1  0  0  0  0
161163  2  0  0  0  0
163164  1  0  0  0  0
163167  1  0  0  0  0
164165  1  0  0  0  0
164166  1  0  0  0  0
164171  1  0  0  0  0
167168  1  0  0  0  0
167169  1  0  0  0  0
167170  1  0  0  0  0
171172  1  0  0  0  0
171173  1  0  0  0  0
171174  1  0  0  0  0
174175  1  0  0  0  0
174176  2  0  0  0  0
176177  1  0  0  0  0
176181  1  0  0  0  0
177178  1  0  0  0  0
177179  1  0  0  0  0
177180  1  0  0  0  0
181182  1  0  0  0  0
181183  1  0  0  0  0
181184  1  0  0  0  0
185186  1  0  0  0  0
185187  1  0  0  0  0
185189  1  0  0  0  0
185196  1  0  0  0  0
187188  1  0  0  0  0
187190  1  0  0  0  0
187197  1  0  0  0  0
189192  1  0  0  0  0
190191  1  0  0  0  0
190194  1  0  0  0  0
190199  1  0  0  0  0
192193  1  0  0  0  0
192194  1  0  0  0  0
192201  1  0  0  0  0
194195  1  0  0  0  0
196210  1  0  0  0  0
197198  1  0  0  0  0
199200  1  0  0  0  0
201202  1  0  0  0  0
201203  1  0  0  0  0
201204  1  0  0  0  0
205206  1  0  0  0  0
205207  1  0  0  0  0
205209  1  0  0  0  0
207208  1  0  0  0  0
207210  1  0  0  0  0
207216  1  0  0  0  0
209212  1  0  0  0  0
210211  1  0  0  0  0
210214  1  0  0  0  0
212213  1  0  0  0  0
212214  1  0  0  0  0
212220  1  0  0  0  0
214215  1  0  0  0  0
214218  1  0  0  0  0
216217  1  0  0  0  0
216225  1  0  0  0  0
218219  1  0  0  0  0
220221  1  0  0  0  0
220222  1  0  0  0  0
220223  1  0  0  0  0
223224  1  0  0  0  0
225226  2  0  0  0  0
225227  1  0  0  0  0
227228  1  0  0  0  0
227229  1  0  0  0  0
227230  1  0  0  0  0
M  BCL ATM C_TeTeTeTe H_S O_Te2Te2TeTe C_TeTeTeTe H_S O_Te2Te2TeTe H_S C_TeTeTeTe H_S O_Te2Te2TeTe H_S C_TeTeTeTe H_S H_S O_Te2Te2TeTe H_S C_TeTeTeTe H_S O_Te2Te2TeTe C_TeTeTeTe H_S C_TeTeTeTe H_S O_Te2Te2TeTe C_TeTeTeTe H_S O_Te2Te2TeTe H_S C_TeTeTeTe H_S O_Te2Te2TeTe H_S C_TeTeTeTe H_S H_S O_Te2Te2TeTe H_S C_TeTeTeTe H_S O_Te2Te2TeTe H_S C_TeTeTeTe H_S O_Te2Te2TeTe O_Tr2TrTrPi2 P_TeTeTeTePi O_Tr2TrTrPi2 O_Te2Te2TeTe O_Tr2Tr2TrPi P_TeTeTeTePi O_Tr2TrTrPi2 O_Te2Te2TeTe O_Tr2Tr2TrPi C_TeTeTeTe H_S H_S C_TrTrTrPi H_S C_TrTrTrPi C_TeTeTeTe H_S H_S H_S C_TeTeTeTe H_S H_S C_TeTeTeTe H_S H_S C_TrTrTrPi H_S C_TrTrTrPi C_TeTeTeTe H_S H_S H_S C_TeTeTeTe H_S H_S C_TeTeTeTe H_S H_S C_TrTrTrPi H_S C_TrTrTrPi C_TeTeTeTe H_S H_S C_TeTeTeTe H_S H_S H_S C_TeTeTeTe H_S H_S C_TrTrTrPi H_S C_TrTrTrPi C_TeTeTeTe H_S H_S C_TeTeTeTe H_S H_S H_S C_TeTeTeTe H_S H_S C_TrTrTrPi H_S C_TrTrTrPi C_TeTeTeTe H_S H_S C_TeTeTeTe H_S H_S H_S C_TeTeTeTe H_S H_S C_TrTrTrPi H_S C_TrTrTrPi C_TeTeTeTe H_S H_S C_TeTeTeTe H_S H_S H_S C_TeTeTeTe H_S H_S C_TrTrTrPi H_S C_TrTrTrPi C_TeTeTeTe H_S H_S C_TeTeTeTe H_S H_S H_S C_TeTeTeTe H_S H_S C_TrTrTrPi H_S C_TrTrTrPi C_TeTeTeTe H_S H_S C_TeTeTeTe H_S H_S H_S C_TeTeTeTe H_S H_S C_TrTrTrPi H_S C_TrTrTrPi C_TeTeTeTe H_S H_S C_TeTeTeTe H_S H_S H_S C_TeTeTeTe H_S H_S C_TrTrTrPi H_S C_TrTrTrPi C_TeTeTeTe H_S H_S H_S C_TeTeTeTe H_S H_S H_S C_TeTeTeTe H_S C_TeTeTeTe H_S O_Te2Te2TeTe C_TeTeTeTe H_S C_TeTeTeTe H_S C_TeTeTeTe H_S O_Te2Te2TeTe O_Te2Te2TeTe H_S O_Te2Te2TeTe H_S C_TeTeTeTe H_S H_S H_S C_TeTeTeTe H_S C_TeTeTeTe H_S O_Te2Te2TeTe C_TeTeTeTe H_S C_TeTeTeTe H_S C_TeTeTeTe H_S N_TrTrTrPi2 H_S O_Te2Te2TeTe H_S C_TeTeTeTe H_S H_S O_Te2Te2TeTe H_S C_TrTrTrPi O_Tr2Tr2TrPi C_TeTeTeTe H_S H_S H_S
M  BCL BND NonConjugatedSingleBond NonConjugatedSingleBondInRing NonConjugatedSingleBondInRing NonConjugatedSingleBond NonConjugatedSingleBondInRing NonConjugatedSingleBond NonConjugatedSingleBond NonConjugatedSingleBondInRing NonConjugatedSingleBond NonConjugatedSingleBond NonConjugatedSingleBond NonConjugatedSingleBondInRing NonConjugatedSingleBond NonConjugatedSingleBond NonConjugatedSingleBond NonConjugatedSingleBond NonConjugatedSingleBond NonConjugatedSingleBond NonConjugatedSingleBond NonConjugatedSingleBond NonConjugatedSingleBond NonConjugatedSingleBond NonConjugatedSingleBond NonConjugatedSingleBond NonConjugatedSingleBondInRing NonConjugatedSingleBondInRing NonConjugatedSingleBondInRing NonConjugatedSingleBond NonConjugatedSingleBond NonConjugatedSingleBondInRing NonConjugatedSingleBond NonConjugatedSingleBond NonConjugatedSingleBond NonConjugatedSingleBondInRing NonConjugatedSingleBond NonConjugatedSingleBond NonConjugatedSingleBond NonConjugatedSingleBond NonConjugatedSingleBond NonConjugatedSingleBond NonConjugatedSingleBond NonConjugatedSingleBond NonConjugatedSingleBond NonConjugatedSingleBond NonConjugatedSingleBond NonConjugatedSingleBond ConjugatedSingleBond NonConjugatedSingleBond ConjugatedSingleBond ConjugatedSingleBond ConjugatedDoubleBond ConjugatedSingleBond ConjugatedSingleBond ConjugatedSingleBond ConjugatedDoubleBond NonConjugatedSingleBond NonConjugatedSingleBond NonConjugatedSingleBond NonConjugatedSingleBond NonConjugatedSingleBond ConjugatedDoubleBond NonConjugatedSingleBond NonConjugatedSingleBond NonConjugatedSingleBond NonConjugatedSingleBond NonConjugatedSingleBond NonConjugatedSingleBond NonConjugatedSingleBond NonConjugatedSingleBond NonConjugatedSingleBond NonConjugatedSingleBond NonConjugatedSingleBond NonConjugatedSingleBond ConjugatedDoubleBond NonConjugatedSingleBond NonConjugatedSingleBond NonConjugatedSingleBond NonConjugatedSingleBond NonConjugatedSingleBond NonConjugatedSingleBond NonConjugatedSingleBond NonConjugatedSingleBond NonConjugatedSingleBond NonConjugatedSingleBond NonConjugatedSingleBond NonConjugatedSingleBond ConjugatedDoubleBond NonConjugatedSingleBond NonConjugatedSingleBond NonConjugatedSingleBond NonConjugatedSingleBond NonConjugatedSingleBond NonConjugatedSingleBond NonConjugatedSingleBond NonConjugatedSingleBond NonConjugatedSingleBond NonConjugatedSingleBond NonConjugatedSingleBond NonConjugatedSingleBond ConjugatedDoubleBond NonConjugatedSingleBond NonConjugatedSingleBond NonConjugatedSingleBond NonConjugatedSingleBond NonConjugatedSingleBond NonConjugatedSingleBond NonConjugatedSingleBond NonConjugatedSingleBond NonConjugatedSingleBond NonConjugatedSingleBond NonConjugatedSingleBond NonConjugatedSingleBond ConjugatedDoubleBond NonConjugatedSingleBond NonConjugatedSingleBond NonConjugatedSingleBond NonConjugatedSingleBond NonConjugatedSingleBond NonConjugatedSingleBond NonConjugatedSingleBond NonConjugatedSingleBond NonConjugatedSingleBond NonConjugatedSingleBond NonConjugatedSingleBond NonConjugatedSingleBond ConjugatedDoubleBond NonConjugatedSingleBond NonConjugatedSingleBond NonConjugatedSingleBond NonConjugatedSingleBond NonConjugatedSingleBond NonConjugatedSingleBond NonConjugatedSingleBond NonConjugatedSingleBond NonConjugatedSingleBond NonConjugatedSingleBond NonConjugatedSingleBond NonConjugatedSingleBond ConjugatedDoubleBond NonConjugatedSingleBond NonConjugatedSingleBond NonConjugatedSingleBond NonConjugatedSingleBond NonConjugatedSingleBond NonConjugatedSingleBond NonConjugatedSingleBond NonConjugatedSingleBond NonConjugatedSingleBond NonConjugatedSingleBond NonConjugatedSingleBond NonConjugatedSingleBond ConjugatedDoubleBond NonConjugatedSingleBond NonConjugatedSingleBond NonConjugatedSingleBond NonConjugatedSingleBond NonConjugatedSingleBond NonConjugatedSingleBond NonConjugatedSingleBond NonConjugatedSingleBond NonConjugatedSingleBond NonConjugatedSingleBond NonConjugatedSingleBond NonConjugatedSingleBond ConjugatedDoubleBond NonConjugatedSingleBond NonConjugatedSingleBond NonConjugatedSingleBond NonConjugatedSingleBond NonConjugatedSingleBond NonConjugatedSingleBond NonConjugatedSingleBond NonConjugatedSingleBond NonConjugatedSingleBond NonConjugatedSingleBond NonConjugatedSingleBond NonConjugatedSingleBond ConjugatedDoubleBond NonConjugatedSingleBond NonConjugatedSingleBond NonConjugatedSingleBond NonConjugatedSingleBond NonConjugatedSingleBond NonConjugatedSingleBond NonConjugatedSingleBond NonConjugatedSingleBond NonConjugatedSingleBond NonConjugatedSingleBondInRing NonConjugatedSingleBondInRing NonConjugatedSingleBond NonConjugatedSingleBond NonConjugatedSingleBondInRing NonConjugatedSingleBond NonConjugatedSingleBondInRing NonConjugatedSingleBond NonConjugatedSingleBondInRing NonConjugatedSingleBond NonConjugatedSingleBond NonConjugatedSingleBondInRing NonConjugatedSingleBond NonConjugatedSingleBond NonConjugatedSingleBond NonConjugatedSingleBond NonConjugatedSingleBond NonConjugatedSingleBond NonConjugatedSingleBond NonConjugatedSingleBond NonConjugatedSingleBond NonConjugatedSingleBondInRing NonConjugatedSingleBondInRing NonConjugatedSingleBond NonConjugatedSingleBondInRing NonConjugatedSingleBond NonConjugatedSingleBondInRing NonConjugatedSingleBond NonConjugatedSingleBondInRing NonConjugatedSingleBond NonConjugatedSingleBondInRing NonConjugatedSingleBond NonConjugatedSingleBond NonConjugatedSingleBond NonConjugatedSingleBond AmideSingleBond NonConjugatedSingleBond NonConjugatedSingleBond NonConjugatedSingleBond NonConjugatedSingleBond NonConjugatedSingleBond ConjugatedDoubleBond NonConjugatedSingleBond NonConjugatedSingleBond NonConjugatedSingleBond NonConjugatedSingleBond
M  BCL CHI   1   R   4   R   8   R  17   S  20   R  22   S  25   R  29   S  38   S  42   R  46   R  50   S 185   R 187   S 190   S 192   R 194   R 205   R 207   S 210   R 212   S 214   S
M  BCL DBI - - E E E E E E E E Z - -
M  END
> <ConfClashScore>
0.0047282 

> <ConfOneFourInteractionScore>
-0.96544 

> <ConfScore>
0.53479 

> <ConfScorePBest>
0.0120085 

> <ConfTolerance>
2.3621 

$$$$
L05.****
  PyMOL2.5          3D                             0

230233  0  0  0  0  0  0  0  0999 V2000
   13.6817   -2.5476   -5.6197 C   0  0  0  1  0  0  0  0  0  0  0  0
   13.0648   -1.7292   -5.9272 H   0  0  0  1  0  0  0  0  0  0  0  0
   13.0377   -3.7633   -5.8711 O   0  0  0  1  0  0  0  0  0  0  0  0
   14.9780   -2.5792   -6.4447 C   0  0  0  1  0  0  0  0  0  0  0  0
   15.7670   -3.0609   -5.9058 H   0  0  0  1  0  0  0  0  0  0  0  0
   15.3872   -1.2611   -6.8123 O   0  0  0  1  0  0  0  0  0  0  0  0
   14.6929   -0.6364   -6.5902 H   0  0  0  1  0  0  0  0  0  0  0  0
   14.5747   -3.3881   -7.6649 C   0  0  0  1  0  0  0  0  0  0  0  0
   14.1629   -2.7584   -8.4257 H   0  0  0  1  0  0  0  0  0  0  0  0
   15.6877   -4.1101   -8.1943 O   0  0  0  1  0  0  0  0  0  0  0  0
   15.3888   -4.9580   -8.5309 H   0  0  0  1  0  0  0  0  0  0  0  0
   11.3249   -5.5662   -7.7123 C   0  0  0  1  0  0  0  0  0  0  0  0
   11.7985   -6.5256   -7.6984 H   0  0  0  1  0  0  0  0  0  0  0  0
   10.9212   -5.3532   -6.7445 H   0  0  0  1  0  0  0  0  0  0  0  0
   10.2757   -5.5711   -8.6713 O   0  0  0  1  0  0  0  0  0  0  0  0
    9.8461   -4.7127   -8.6807 H   0  0  0  1  0  0  0  0  0  0  0  0
   12.3545   -4.4962   -8.0806 C   0  0  0  1  0  0  0  0  0  0  0  0
   11.8418   -3.5577   -8.1174 H   0  0  0  1  0  0  0  0  0  0  0  0
   12.9080   -4.7660   -9.3633 O   0  0  0  1  0  0  0  0  0  0  0  0
   13.5031   -4.3521   -7.0986 C   0  0  0  1  0  0  0  0  0  0  0  0
   13.9331   -5.3133   -6.9084 H   0  0  0  1  0  0  0  0  0  0  0  0
   12.0012   -5.3411  -10.2586 C   0  0  0  1  0  0  0  0  0  0  0  0
   11.6032   -6.2399   -9.8358 H   0  0  0  1  0  0  0  0  0  0  0  0
   10.9610   -4.4342  -10.5578 O   0  0  0  1  0  0  0  0  0  0  0  0
   12.6789   -5.6340  -11.5849 C   0  0  0  1  0  0  0  0  0  0  0  0
   13.1221   -6.6079  -11.5864 H   0  0  0  1  0  0  0  0  0  0  0  0
   13.6762   -4.6558  -11.8828 O   0  0  0  1  0  0  0  0  0  0  0  0
   14.0761   -4.3469  -11.0665 H   0  0  0  1  0  0  0  0  0  0  0  0
   11.5306   -5.5559  -12.5577 C   0  0  0  1  0  0  0  0  0  0  0  0
   10.9563   -6.4587  -12.5571 H   0  0  0  1  0  0  0  0  0  0  0  0
   11.9868   -5.2834  -13.8796 O   0  0  0  1  0  0  0  0  0  0  0  0
   12.8662   -5.6500  -13.9970 H   0  0  0  1  0  0  0  0  0  0  0  0
    8.7838   -3.9311  -13.6207 C   0  0  0  1  0  0  0  0  0  0  0  0
    7.7810   -4.2467  -13.8199 H   0  0  0  1  0  0  0  0  0  0  0  0
    8.8109   -2.8656  -13.5266 H   0  0  0  1  0  0  0  0  0  0  0  0
    9.6073   -4.3133  -14.7131 O   0  0  0  1  0  0  0  0  0  0  0  0
    9.0562   -4.5454  -15.4640 H   0  0  0  1  0  0  0  0  0  0  0  0
    9.2393   -4.5507  -12.3029 C   0  0  0  1  0  0  0  0  0  0  0  0
    9.0643   -5.6030  -12.3869 H   0  0  0  1  0  0  0  0  0  0  0  0
    8.4875   -4.0760  -11.1864 O   0  0  0  1  0  0  0  0  0  0  0  0
    8.9646   -4.2652  -10.3751 H   0  0  0  1  0  0  0  0  0  0  0  0
   10.7288   -4.3846  -11.9919 C   0  0  0  1  0  0  0  0  0  0  0  0
   11.0774   -3.4581  -12.3983 H   0  0  0  1  0  0  0  0  0  0  0  0
   13.9802   -2.4230   -4.2332 O   0  0  0  1  0  0  0  0  0  0  0  0
   22.0846   -7.3549    3.2461 O   0  0  0  1  0  0  0  0  0  0  0  0
   21.1326   -6.1743    2.6541 P   0  0  0  1  0  0  0  0  0  0  0  0
   22.2113   -5.7873    1.5124 O   0  0  0  1  0  0  0  0  0  0  0  0
   21.0154   -5.0732    3.6421 O   0  0  0  0  0  0  0  0  0  0  0  0
   19.9159   -6.7380    2.0421 O   0  0  0  1  0  0  0  0  0  0  0  0
   21.8433   -5.1870    0.0751 P   0  0  0  1  0  0  0  0  0  0  0  0
   21.2878   -6.4423   -0.6942 O   0  0  0  1  0  0  0  0  0  0  0  0
   23.0918   -4.7376   -0.6041 O   0  0  0  0  0  0  0  0  0  0  0  0
   20.7110   -4.2542    0.2612 O   0  0  0  1  0  0  0  0  0  0  0  0
   22.0834   -8.6659    2.6587 C   0  0  0  1  0  0  0  0  0  0  0  0
   22.3088   -8.5935    1.6152 H   0  0  0  1  0  0  0  0  0  0  0  0
   21.1216   -9.1170    2.7859 H   0  0  0  1  0  0  0  0  0  0  0  0
   23.1261   -9.4976    3.3442 C   0  0  0  1  0  0  0  0  0  0  0  0
   23.0419   -9.5879    4.3768 H   0  0  0  1  0  0  0  0  0  0  0  0
   24.1468  -10.1324    2.7747 C   0  0  0  1  0  0  0  0  0  0  0  0
   24.9824  -11.1991    3.4205 C   0  0  0  1  0  0  0  0  0  0  0  0
   25.9404  -11.2388    2.9455 H   0  0  0  1  0  0  0  0  0  0  0  0
   24.4940  -12.1456    3.3174 H   0  0  0  1  0  0  0  0  0  0  0  0
   25.1085  -10.9734    4.4587 H   0  0  0  1  0  0  0  0  0  0  0  0
   24.5345   -9.7860    1.3647 C   0  0  0  1  0  0  0  0  0  0  0  0
   25.6018   -9.7364    1.3073 H   0  0  0  1  0  0  0  0  0  0  0  0
   24.1189   -8.8303    1.1222 H   0  0  0  1  0  0  0  0  0  0  0  0
   24.0419  -10.8004    0.3455 C   0  0  0  1  0  0  0  0  0  0  0  0
   22.9754  -10.7352    0.2881 H   0  0  0  1  0  0  0  0  0  0  0  0
   24.3226  -11.7787    0.6756 H   0  0  0  1  0  0  0  0  0  0  0  0
   24.6103  -10.5776   -1.0304 C   0  0  0  1  0  0  0  0  0  0  0  0
   24.0307  -10.0450   -1.7101 H   0  0  0  1  0  0  0  0  0  0  0  0
   25.7964  -11.0103   -1.4411 C   0  0  0  1  0  0  0  0  0  0  0  0
   26.3165  -10.6807   -2.8101 C   0  0  0  1  0  0  0  0  0  0  0  0
   25.4975  -10.6048   -3.4946 H   0  0  0  1  0  0  0  0  0  0  0  0
   26.9815  -11.4537   -3.1344 H   0  0  0  1  0  0  0  0  0  0  0  0
   26.8411   -9.7488   -2.7773 H   0  0  0  1  0  0  0  0  0  0  0  0
   26.7198  -11.8529   -0.6025 C   0  0  0  1  0  0  0  0  0  0  0  0
   26.7371  -11.4544    0.3904 H   0  0  0  1  0  0  0  0  0  0  0  0
   27.7021  -11.8043   -1.0240 H   0  0  0  1  0  0  0  0  0  0  0  0
   26.2955  -13.3108   -0.5313 C   0  0  0  1  0  0  0  0  0  0  0  0
   25.9453  -13.6111   -1.4967 H   0  0  0  1  0  0  0  0  0  0  0  0
   25.5014  -13.3999    0.1803 H   0  0  0  1  0  0  0  0  0  0  0  0
   27.4047  -14.2237   -0.1227 C   0  0  0  1  0  0  0  0  0  0  0  0
   27.8620  -14.0649    0.7977 H   0  0  0  1  0  0  0  0  0  0  0  0
   27.8378  -15.2330   -0.8805 C   0  0  0  1  0  0  0  0  0  0  0  0
   27.0311  -15.7319   -2.0494 C   0  0  0  1  0  0  0  0  0  0  0  0
   26.0647  -15.2738   -2.0166 H   0  0  0  1  0  0  0  0  0  0  0  0
   26.9264  -16.7933   -1.9627 H   0  0  0  1  0  0  0  0  0  0  0  0
   29.1463  -15.9112   -0.5982 C   0  0  0  1  0  0  0  0  0  0  0  0
   29.6306  -16.1516   -1.5215 H   0  0  0  1  0  0  0  0  0  0  0  0
   28.9699  -16.8093   -0.0439 H   0  0  0  1  0  0  0  0  0  0  0  0
   29.7714  -15.2564   -0.0277 H   0  0  0  1  0  0  0  0  0  0  0  0
   27.6705  -15.4169   -3.3919 C   0  0  0  1  0  0  0  0  0  0  0  0
   28.6287  -15.8913   -3.4325 H   0  0  0  1  0  0  0  0  0  0  0  0
   27.7931  -14.3569   -3.4704 H   0  0  0  1  0  0  0  0  0  0  0  0
   26.8559  -15.8893   -4.5541 C   0  0  0  1  0  0  0  0  0  0  0  0
   26.2309  -16.7067   -4.4031 H   0  0  0  1  0  0  0  0  0  0  0  0
   26.8712  -15.3428   -5.7640 C   0  0  0  1  0  0  0  0  0  0  0  0
   27.9578  -14.3913   -6.1779 C   0  0  0  1  0  0  0  0  0  0  0  0
   27.9636  -14.3245   -7.2458 H   0  0  0  1  0  0  0  0  0  0  0  0
   28.8963  -14.7779   -5.8391 H   0  0  0  1  0  0  0  0  0  0  0  0
   25.8338  -15.6096   -6.8181 C   0  0  0  1  0  0  0  0  0  0  0  0
   26.2850  -16.1228   -7.6414 H   0  0  0  1  0  0  0  0  0  0  0  0
   25.4242  -14.6814   -7.1580 H   0  0  0  1  0  0  0  0  0  0  0  0
   25.0536  -16.2145   -6.4054 H   0  0  0  1  0  0  0  0  0  0  0  0
   27.7755  -12.9945   -5.6068 C   0  0  0  1  0  0  0  0  0  0  0  0
   27.5673  -13.0679   -4.5598 H   0  0  0  1  0  0  0  0  0  0  0  0
   26.9553  -12.5176   -6.1015 H   0  0  0  1  0  0  0  0  0  0  0  0
   29.0111  -12.1751   -5.8048 C   0  0  0  1  0  0  0  0  0  0  0  0
   29.8465  -12.6765   -6.1685 H   0  0  0  1  0  0  0  0  0  0  0  0
   29.1571  -10.8761   -5.5665 C   0  0  0  1  0  0  0  0  0  0  0  0
   28.0022   -9.9292   -5.3531 C   0  0  0  1  0  0  0  0  0  0  0  0
   28.2757   -9.2236   -4.5966 H   0  0  0  1  0  0  0  0  0  0  0  0
   27.1548  -10.4941   -5.0250 H   0  0  0  1  0  0  0  0  0  0  0  0
   30.5158  -10.2385   -5.4900 C   0  0  0  1  0  0  0  0  0  0  0  0
   30.9672  -10.2421   -6.4601 H   0  0  0  1  0  0  0  0  0  0  0  0
   31.1302  -10.7894   -4.8089 H   0  0  0  1  0  0  0  0  0  0  0  0
   30.4174   -9.2299   -5.1464 H   0  0  0  1  0  0  0  0  0  0  0  0
   27.6177   -9.1662   -6.6102 C   0  0  0  1  0  0  0  0  0  0  0  0
   28.3979   -8.4703   -6.8382 H   0  0  0  1  0  0  0  0  0  0  0  0
   26.7087   -8.6343   -6.4211 H   0  0  0  1  0  0  0  0  0  0  0  0
   27.4102  -10.0609   -7.8028 C   0  0  0  1  0  0  0  0  0  0  0  0
   26.9665  -10.9871   -7.6381 H   0  0  0  1  0  0  0  0  0  0  0  0
   27.7528   -9.7546   -9.0550 C   0  0  0  1  0  0  0  0  0  0  0  0
   28.6121   -8.5469   -9.3362 C   0  0  0  1  0  0  0  0  0  0  0  0
   28.7332   -7.9959   -8.4270 H   0  0  0  1  0  0  0  0  0  0  0  0
   28.1147   -7.9362  -10.0604 H   0  0  0  1  0  0  0  0  0  0  0  0
   27.2257  -10.5252  -10.2015 C   0  0  0  1  0  0  0  0  0  0  0  0
   27.1095  -11.5508   -9.9194 H   0  0  0  1  0  0  0  0  0  0  0  0
   27.9093  -10.4564  -11.0217 H   0  0  0  1  0  0  0  0  0  0  0  0
   26.2767  -10.1261  -10.4931 H   0  0  0  1  0  0  0  0  0  0  0  0
   29.9887   -8.9071   -9.8706 C   0  0  0  1  0  0  0  0  0  0  0  0
   29.8756   -9.3249  -10.8492 H   0  0  0  1  0  0  0  0  0  0  0  0
   30.4269   -9.6349   -9.2200 H   0  0  0  1  0  0  0  0  0  0  0  0
   30.9151   -7.7239   -9.9590 C   0  0  0  1  0  0  0  0  0  0  0  0
   30.9338   -7.0873   -9.1368 H   0  0  0  1  0  0  0  0  0  0  0  0
   31.7116   -7.4046  -10.9735 C   0  0  0  1  0  0  0  0  0  0  0  0
   31.8849   -8.2574  -12.1966 C   0  0  0  1  0  0  0  0  0  0  0  0
   31.5183   -7.7066  -13.0376 H   0  0  0  1  0  0  0  0  0  0  0  0
   31.2992   -9.1434  -12.0670 H   0  0  0  1  0  0  0  0  0  0  0  0
   32.5172   -6.1360  -10.9717 C   0  0  0  1  0  0  0  0  0  0  0  0
   31.8672   -5.3003  -10.8164 H   0  0  0  1  0  0  0  0  0  0  0  0
   33.0163   -6.0294  -11.9121 H   0  0  0  1  0  0  0  0  0  0  0  0
   33.2417   -6.1750  -10.1852 H   0  0  0  1  0  0  0  0  0  0  0  0
   33.3134   -8.6797  -12.4994 C   0  0  0  1  0  0  0  0  0  0  0  0
   33.3079   -9.5760  -13.0837 H   0  0  0  1  0  0  0  0  0  0  0  0
   33.8395   -8.8533  -11.5839 H   0  0  0  1  0  0  0  0  0  0  0  0
   33.9822   -7.5849  -13.2640 C   0  0  0  1  0  0  0  0  0  0  0  0
   34.7797   -7.0870  -12.8193 H   0  0  0  1  0  0  0  0  0  0  0  0
   33.6085   -7.2156  -14.4845 C   0  0  0  1  0  0  0  0  0  0  0  0
   32.2954   -7.6108  -15.1133 C   0  0  0  1  0  0  0  0  0  0  0  0
   31.9506   -8.5094  -14.6457 H   0  0  0  1  0  0  0  0  0  0  0  0
   32.4572   -7.7901  -16.1557 H   0  0  0  1  0  0  0  0  0  0  0  0
   34.4857   -6.3577  -15.3485 C   0  0  0  1  0  0  0  0  0  0  0  0
   35.3834   -6.1168  -14.8183 H   0  0  0  1  0  0  0  0  0  0  0  0
   33.9669   -5.4560  -15.5989 H   0  0  0  1  0  0  0  0  0  0  0  0
   34.7323   -6.8884  -16.2442 H   0  0  0  1  0  0  0  0  0  0  0  0
   31.2206   -6.5460  -14.9667 C   0  0  0  1  0  0  0  0  0  0  0  0
   31.5914   -5.6520  -15.4228 H   0  0  0  1  0  0  0  0  0  0  0  0
   31.0758   -6.3793  -13.9197 H   0  0  0  1  0  0  0  0  0  0  0  0
   29.8713   -6.8319  -15.5678 C   0  0  0  1  0  0  0  0  0  0  0  0
   29.3463   -7.6525  -15.2036 H   0  0  0  1  0  0  0  0  0  0  0  0
   29.2950   -6.1074  -16.5385 C   0  0  0  1  0  0  0  0  0  0  0  0
   27.9465   -6.4112  -17.1239 C   0  0  0  1  0  0  0  0  0  0  0  0
   28.0905   -6.7377  -18.1326 H   0  0  0  1  0  0  0  0  0  0  0  0
   27.3735   -5.5075  -17.1193 H   0  0  0  1  0  0  0  0  0  0  0  0
   29.9223   -4.8959  -17.1688 C   0  0  0  1  0  0  0  0  0  0  0  0
   29.4134   -4.7624  -18.1005 H   0  0  0  1  0  0  0  0  0  0  0  0
   30.9669   -5.0587  -17.3334 H   0  0  0  1  0  0  0  0  0  0  0  0
   29.7887   -4.0378  -16.5436 H   0  0  0  1  0  0  0  0  0  0  0  0
   27.1454   -7.4780  -16.3956 C   0  0  0  1  0  0  0  0  0  0  0  0
   26.7678   -7.0476  -15.4917 H   0  0  0  1  0  0  0  0  0  0  0  0
   27.8082   -8.2837  -16.1579 H   0  0  0  1  0  0  0  0  0  0  0  0
   25.9815   -8.0451  -17.1610 C   0  0  0  1  0  0  0  0  0  0  0  0
   26.2074   -8.7423  -17.8989 H   0  0  0  1  0  0  0  0  0  0  0  0
   24.6960   -7.7519  -16.9967 C   0  0  0  1  0  0  0  0  0  0  0  0
   23.5838   -8.4415  -17.7322 C   0  0  0  1  0  0  0  0  0  0  0  0
   23.1283   -7.7556  -18.4155 H   0  0  0  1  0  0  0  0  0  0  0  0
   22.8522   -8.7851  -17.0311 H   0  0  0  1  0  0  0  0  0  0  0  0
   23.9783   -9.2755  -18.2742 H   0  0  0  1  0  0  0  0  0  0  0  0
   24.2473   -6.6780  -16.0355 C   0  0  0  1  0  0  0  0  0  0  0  0
   23.9553   -7.1635  -15.1278 H   0  0  0  1  0  0  0  0  0  0  0  0
   23.4176   -6.1423  -16.4471 H   0  0  0  1  0  0  0  0  0  0  0  0
   25.0518   -5.9988  -15.8445 H   0  0  0  1  0  0  0  0  0  0  0  0
   16.1920   -4.7660   -1.6026 C   0  0  0  1  0  0  0  0  0  0  0  0
   15.6116   -4.3881   -0.7870 H   0  0  0  1  0  0  0  0  0  0  0  0
   15.2786   -5.5248   -2.5674 C   0  0  0  1  0  0  0  0  0  0  0  0
   15.8718   -5.9694   -3.3391 H   0  0  0  1  0  0  0  0  0  0  0  0
   16.8206   -3.6716   -2.2879 O   0  0  0  1  0  0  0  0  0  0  0  0
   14.2730   -4.5795   -3.1922 C   0  0  0  1  0  0  0  0  0  0  0  0
   13.5958   -4.2412   -2.4360 H   0  0  0  1  0  0  0  0  0  0  0  0
   15.8940   -2.7204   -2.7963 C   0  0  0  1  0  0  0  0  0  0  0  0
   16.4307   -1.9230   -3.2664 H   0  0  0  1  0  0  0  0  0  0  0  0
   14.9651   -3.3705   -3.8178 C   0  0  0  1  0  0  0  0  0  0  0  0
   15.5358   -3.6873   -4.6656 H   0  0  0  1  0  0  0  0  0  0  0  0
   17.1920   -5.6491   -1.1053 O   0  0  0  1  0  0  0  0  0  0  0  0
   14.5828   -6.5473   -1.8519 O   0  0  0  1  0  0  0  0  0  0  0  0
   15.2168   -7.1220   -1.4168 H   0  0  0  1  0  0  0  0  0  0  0  0
   13.5507   -5.2721   -4.1999 O   0  0  0  1  0  0  0  0  0  0  0  0
   12.6693   -4.8994   -4.2759 H   0  0  0  1  0  0  0  0  0  0  0  0
   15.0686   -2.1691   -1.6528 C   0  0  0  1  0  0  0  0  0  0  0  0
   14.3886   -1.4320   -2.0260 H   0  0  0  1  0  0  0  0  0  0  0  0
   15.7169   -1.7217   -0.9286 H   0  0  0  1  0  0  0  0  0  0  0  0
   14.5170   -2.9640   -1.1958 H   0  0  0  1  0  0  0  0  0  0  0  0
   19.9035   -6.6760   -0.7887 C   0  0  0  1  0  0  0  0  0  0  0  0
   19.4157   -6.2889    0.0814 H   0  0  0  1  0  0  0  0  0  0  0  0
   19.3616   -5.9920   -2.0141 C   0  0  0  1  0  0  0  0  0  0  0  0
   19.8821   -6.3478   -2.8786 H   0  0  0  1  0  0  0  0  0  0  0  0
   19.6651   -8.0671   -0.8840 O   0  0  0  1  0  0  0  0  0  0  0  0
   17.8971   -6.2890   -2.1574 C   0  0  0  1  0  0  0  0  0  0  0  0
   17.5560   -5.9101   -3.0981 H   0  0  0  1  0  0  0  0  0  0  0  0
   18.2570   -8.3612   -0.8516 C   0  0  0  1  0  0  0  0  0  0  0  0
   18.1081   -9.4206   -0.8341 H   0  0  0  1  0  0  0  0  0  0  0  0
   17.6251   -7.7740   -2.0985 C   0  0  0  1  0  0  0  0  0  0  0  0
   16.5685   -7.9411   -2.0739 H   0  0  0  1  0  0  0  0  0  0  0  0
   19.5528   -4.5548   -1.8891 N   0  0  0  1  0  0  0  0  0  0  0  0
   19.1188   -4.0826   -1.1482 H   0  0  0  1  0  0  0  0  0  0  0  0
   18.1808   -8.4045   -3.2543 O   0  0  0  1  0  0  0  0  0  0  0  0
   19.1268   -8.2442   -3.2227 H   0  0  0  1  0  0  0  0  0  0  0  0
   17.6369   -7.7475    0.3705 C   0  0  0  1  0  0  0  0  0  0  0  0
   16.5719   -7.8317    0.3094 H   0  0  0  1  0  0  0  0  0  0  0  0
   17.9108   -6.7147    0.4279 H   0  0  0  1  0  0  0  0  0  0  0  0
   18.0983   -8.4239    1.5325 O   0  0  0  1  0  0  0  0  0  0  0  0
   18.6898   -9.1274    1.2553 H   0  0  0  1  0  0  0  0  0  0  0  0
   20.3028   -3.8537   -2.7531 C   0  0  0  1  0  0  0  0  0  0  0  0
   20.9240   -4.3680   -3.6685 O   0  0  0  1  0  0  0  0  0  0  0  0
   20.4394   -2.3492   -2.4871 C   0  0  0  1  0  0  0  0  0  0  0  0
   20.1365   -1.8880   -3.4039 H   0  0  0  1  0  0  0  0  0  0  0  0
   21.4525   -2.0967   -2.2531 H   0  0  0  1  0  0  0  0  0  0  0  0
   19.8013   -2.0476   -1.6829 H   0  0  0  1  0  0  0  0  0  0  0  0
  1  2  1  0  0  0  0
  1  3  1  0  0  0  0
  1  4  1  0  0  0  0
  1 44  1  0  0  0  0
  3 20  1  0  0  0  0
  4  5  1  0  0  0  0
  4  6  1  0  0  0  0
  4  8  1  0  0  0  0
  6  7  1  0  0  0  0
  8  9  1  0  0  0  0
  8 10  1  0  0  0  0
  8 20  1  0  0  0  0
 10 11  1  0  0  0  0
 12 13  1  0  0  0  0
 12 14  1  0  0  0  0
 12 15  1  0  0  0  0
 12 17  1  0  0  0  0
 15 16  1  0  0  0  0
 17 18  1  0  0  0  0
 17 19  1  0  0  0  0
 17 20  1  0  0  0  0
 19 22  1  0  0  0  0
 20 21  1  0  0  0  0
 22 23  1  0  0  0  0
 22 24  1  0  0  0  0
 22 25  1  0  0  0  0
 24 42  1  0  0  0  0
 25 26  1  0  0  0  0
 25 27  1  0  0  0  0
 25 29  1  0  0  0  0
 27 28  1  0  0  0  0
 29 30  1  0  0  0  0
 29 31  1  0  0  0  0
 29 42  1  0  0  0  0
 31 32  1  0  0  0  0
 33 34  1  0  0  0  0
 33 35  1  0  0  0  0
 33 36  1  0  0  0  0
 33 38  1  0  0  0  0
 36 37  1  0  0  0  0
 38 39  1  0  0  0  0
 38 40  1  0  0  0  0
 38 42  1  0  0  0  0
 40 41  1  0  0  0  0
 42 43  1  0  0  0  0
 44194  1  0  0  0  0
 45 46  1  0  0  0  0
 45 54  1  0  0  0  0
 46 47  1  0  0  0  0
 46 48  1  0  0  0  0
 46 49  2  0  0  0  0
 47 50  1  0  0  0  0
 50 51  1  0  0  0  0
 50 52  1  0  0  0  0
 50 53  2  0  0  0  0
 51205  1  0  0  0  0
 54 55  1  0  0  0  0
 54 56  1  0  0  0  0
 54 57  1  0  0  0  0
 57 58  1  0  0  0  0
 57 59  2  0  0  0  0
 59 60  1  0  0  0  0
 59 64  1  0  0  0  0
 60 61  1  0  0  0  0
 60 62  1  0  0  0  0
 60 63  1  0  0  0  0
 64 65  1  0  0  0  0
 64 66  1  0  0  0  0
 64 67  1  0  0  0  0
 67 68  1  0  0  0  0
 67 69  1  0  0  0  0
 67 70  1  0  0  0  0
 70 71  1  0  0  0  0
 70 72  2  0  0  0  0
 72 73  1  0  0  0  0
 72 77  1  0  0  0  0
 73 74  1  0  0  0  0
 73 75  1  0  0  0  0
 73 76  1  0  0  0  0
 77 78  1  0  0  0  0
 77 79  1  0  0  0  0
 77 80  1  0  0  0  0
 80 81  1  0  0  0  0
 80 82  1  0  0  0  0
 80 83  1  0  0  0  0
 83 84  1  0  0  0  0
 83 85  2  0  0  0  0
 85 86  1  0  0  0  0
 85 89  1  0  0  0  0
 86 87  1  0  0  0  0
 86 88  1  0  0  0  0
 86 93  1  0  0  0  0
 89 90  1  0  0  0  0
 89 91  1  0  0  0  0
 89 92  1  0  0  0  0
 93 94  1  0  0  0  0
 93 95  1  0  0  0  0
 93 96  1  0  0  0  0
 96 97  1  0  0  0  0
 96 98  2  0  0  0  0
 98 99  1  0  0  0  0
 98102  1  0  0  0  0
 99100  1  0  0  0  0
 99101  1  0  0  0  0
 99106  1  0  0  0  0
102103  1  0  0  0  0
102104  1  0  0  0  0
102105  1  0  0  0  0
106107  1  0  0  0  0
106108  1  0  0  0  0
106109  1  0  0  0  0
109110  1  0  0  0  0
109111  2  0  0  0  0
111112  1  0  0  0  0
111115  1  0  0  0  0
112113  1  0  0  0  0
112114  1  0  0  0  0
112119  1  0  0  0  0
115116  1  0  0  0  0
115117  1  0  0  0  0
115118  1  0  0  0  0
119120  1  0  0  0  0
119121  1  0  0  0  0
119122  1  0  0  0  0
122123  1  0  0  0  0
122124  2  0  0  0  0
124125  1  0  0  0  0
124128  1  0  0  0  0
125126  1  0  0  0  0
125127  1  0  0  0  0
125132  1  0  0  0  0
128129  1  0  0  0  0
128130  1  0  0  0  0
128131  1  0  0  0  0
132133  1  0  0  0  0
132134  1  0  0  0  0
132135  1  0  0  0  0
135136  1  0  0  0  0
135137  2  0  0  0  0
137138  1  0  0  0  0
137141  1  0  0  0  0
138139  1  0  0  0  0
138140  1  0  0  0  0
138145  1  0  0  0  0
141142  1  0  0  0  0
141143  1  0  0  0  0
141144  1  0  0  0  0
145146  1  0  0  0  0
145147  1  0  0  0  0
145148  1  0  0  0  0
148149  1  0  0  0  0
148150  2  0  0  0  0
150151  1  0  0  0  0
150154  1  0  0  0  0
151152  1  0  0  0  0
151153  1  0  0  0  0
151158  1  0  0  0  0
154155  1  0  0  0  0
154156  1  0  0  0  0
154157  1  0  0  0  0
158159  1  0  0  0  0
158160  1  0  0  0  0
158161  1  0  0  0  0
161162  1  0  0  0  0
161163  2  0  0  0  0
163164  1  0  0  0  0
163167  1  0  0  0  0
164165  1  0  0  0  0
164166  1  0  0  0  0
164171  1  0  0  0  0
167168  1  0  0  0  0
167169  1  0  0  0  0
167170  1  0  0  0  0
171172  1  0  0  0  0
171173  1  0  0  0  0
171174  1  0  0  0  0
174175  1  0  0  0  0
174176  2  0  0  0  0
176177  1  0  0  0  0
176181  1  0  0  0  0
177178  1  0  0  0  0
177179  1  0  0  0  0
177180  1  0  0  0  0
181182  1  0  0  0  0
181183  1  0  0  0  0
181184  1  0  0  0  0
185186  1  0  0  0  0
185187  1  0  0  0  0
185189  1  0  0  0  0
185196  1  0  0  0  0
187188  1  0  0  0  0
187190  1  0  0  0  0
187197  1  0  0  0  0
189192  1  0  0  0  0
190191  1  0  0  0  0
190194  1  0  0  0  0
190199  1  0  0  0  0
192193  1  0  0  0  0
192194  1  0  0  0  0
192201  1  0  0  0  0
194195  1  0  0  0  0
196210  1  0  0  0  0
197198  1  0  0  0  0
199200  1  0  0  0  0
201202  1  0  0  0  0
201203  1  0  0  0  0
201204  1  0  0  0  0
205206  1  0  0  0  0
205207  1  0  0  0  0
205209  1  0  0  0  0
207208  1  0  0  0  0
207210  1  0  0  0  0
207216  1  0  0  0  0
209212  1  0  0  0  0
210211  1  0  0  0  0
210214  1  0  0  0  0
212213  1  0  0  0  0
212214  1  0  0  0  0
212220  1  0  0  0  0
214215  1  0  0  0  0
214218  1  0  0  0  0
216217  1  0  0  0  0
216225  1  0  0  0  0
218219  1  0  0  0  0
220221  1  0  0  0  0
220222  1  0  0  0  0
220223  1  0  0  0  0
223224  1  0  0  0  0
225226  2  0  0  0  0
225227  1  0  0  0  0
227228  1  0  0  0  0
227229  1  0  0  0  0
227230  1  0  0  0  0
M  BCL ATM C_TeTeTeTe H_S O_Te2Te2TeTe C_TeTeTeTe H_S O_Te2Te2TeTe H_S C_TeTeTeTe H_S O_Te2Te2TeTe H_S C_TeTeTeTe H_S H_S O_Te2Te2TeTe H_S C_TeTeTeTe H_S O_Te2Te2TeTe C_TeTeTeTe H_S C_TeTeTeTe H_S O_Te2Te2TeTe C_TeTeTeTe H_S O_Te2Te2TeTe H_S C_TeTeTeTe H_S O_Te2Te2TeTe H_S C_TeTeTeTe H_S H_S O_Te2Te2TeTe H_S C_TeTeTeTe H_S O_Te2Te2TeTe H_S C_TeTeTeTe H_S O_Te2Te2TeTe O_Tr2TrTrPi2 P_TeTeTeTePi O_Tr2TrTrPi2 O_Te2Te2TeTe O_Tr2Tr2TrPi P_TeTeTeTePi O_Tr2TrTrPi2 O_Te2Te2TeTe O_Tr2Tr2TrPi C_TeTeTeTe H_S H_S C_TrTrTrPi H_S C_TrTrTrPi C_TeTeTeTe H_S H_S H_S C_TeTeTeTe H_S H_S C_TeTeTeTe H_S H_S C_TrTrTrPi H_S C_TrTrTrPi C_TeTeTeTe H_S H_S H_S C_TeTeTeTe H_S H_S C_TeTeTeTe H_S H_S C_TrTrTrPi H_S C_TrTrTrPi C_TeTeTeTe H_S H_S C_TeTeTeTe H_S H_S H_S C_TeTeTeTe H_S H_S C_TrTrTrPi H_S C_TrTrTrPi C_TeTeTeTe H_S H_S C_TeTeTeTe H_S H_S H_S C_TeTeTeTe H_S H_S C_TrTrTrPi H_S C_TrTrTrPi C_TeTeTeTe H_S H_S C_TeTeTeTe H_S H_S H_S C_TeTeTeTe H_S H_S C_TrTrTrPi H_S C_TrTrTrPi C_TeTeTeTe H_S H_S C_TeTeTeTe H_S H_S H_S C_TeTeTeTe H_S H_S C_TrTrTrPi H_S C_TrTrTrPi C_TeTeTeTe H_S H_S C_TeTeTeTe H_S H_S H_S C_TeTeTeTe H_S H_S C_TrTrTrPi H_S C_TrTrTrPi C_TeTeTeTe H_S H_S C_TeTeTeTe H_S H_S H_S C_TeTeTeTe H_S H_S C_TrTrTrPi H_S C_TrTrTrPi C_TeTeTeTe H_S H_S C_TeTeTeTe H_S H_S H_S C_TeTeTeTe H_S H_S C_TrTrTrPi H_S C_TrTrTrPi C_TeTeTeTe H_S H_S H_S C_TeTeTeTe H_S H_S H_S C_TeTeTeTe H_S C_TeTeTeTe H_S O_Te2Te2TeTe C_TeTeTeTe H_S C_TeTeTeTe H_S C_TeTeTeTe H_S O_Te2Te2TeTe O_Te2Te2TeTe H_S O_Te2Te2TeTe H_S C_TeTeTeTe H_S H_S H_S C_TeTeTeTe H_S C_TeTeTeTe H_S O_Te2Te2TeTe C_TeTeTeTe H_S C_TeTeTeTe H_S C_TeTeTeTe H_S N_TrTrTrPi2 H_S O_Te2Te2TeTe H_S C_TeTeTeTe H_S H_S O_Te2Te2TeTe H_S C_TrTrTrPi O_Tr2Tr2TrPi C_TeTeTeTe H_S H_S H_S
M  BCL BND NonConjugatedSingleBond NonConjugatedSingleBondInRing NonConjugatedSingleBondInRing NonConjugatedSingleBond NonConjugatedSingleBondInRing NonConjugatedSingleBond NonConjugatedSingleBond NonConjugatedSingleBondInRing NonConjugatedSingleBond NonConjugatedSingleBond NonConjugatedSingleBond NonConjugatedSingleBondInRing NonConjugatedSingleBond NonConjugatedSingleBond NonConjugatedSingleBond NonConjugatedSingleBond NonConjugatedSingleBond NonConjugatedSingleBond NonConjugatedSingleBond NonConjugatedSingleBond NonConjugatedSingleBond NonConjugatedSingleBond NonConjugatedSingleBond NonConjugatedSingleBond NonConjugatedSingleBondInRing NonConjugatedSingleBondInRing NonConjugatedSingleBondInRing NonConjugatedSingleBond NonConjugatedSingleBond NonConjugatedSingleBondInRing NonConjugatedSingleBond NonConjugatedSingleBond NonConjugatedSingleBond NonConjugatedSingleBondInRing NonConjugatedSingleBond NonConjugatedSingleBond NonConjugatedSingleBond NonConjugatedSingleBond NonConjugatedSingleBond NonConjugatedSingleBond NonConjugatedSingleBond NonConjugatedSingleBond NonConjugatedSingleBond NonConjugatedSingleBond NonConjugatedSingleBond NonConjugatedSingleBond ConjugatedSingleBond NonConjugatedSingleBond ConjugatedSingleBond ConjugatedSingleBond ConjugatedDoubleBond ConjugatedSingleBond ConjugatedSingleBond ConjugatedSingleBond ConjugatedDoubleBond NonConjugatedSingleBond NonConjugatedSingleBond NonConjugatedSingleBond NonConjugatedSingleBond NonConjugatedSingleBond ConjugatedDoubleBond NonConjugatedSingleBond NonConjugatedSingleBond NonConjugatedSingleBond NonConjugatedSingleBond NonConjugatedSingleBond NonConjugatedSingleBond NonConjugatedSingleBond NonConjugatedSingleBond NonConjugatedSingleBond NonConjugatedSingleBond NonConjugatedSingleBond NonConjugatedSingleBond ConjugatedDoubleBond NonConjugatedSingleBond NonConjugatedSingleBond NonConjugatedSingleBond NonConjugatedSingleBond NonConjugatedSingleBond NonConjugatedSingleBond NonConjugatedSingleBond NonConjugatedSingleBond NonConjugatedSingleBond NonConjugatedSingleBond NonConjugatedSingleBond NonConjugatedSingleBond ConjugatedDoubleBond NonConjugatedSingleBond NonConjugatedSingleBond NonConjugatedSingleBond NonConjugatedSingleBond NonConjugatedSingleBond NonConjugatedSingleBond NonConjugatedSingleBond NonConjugatedSingleBond NonConjugatedSingleBond NonConjugatedSingleBond NonConjugatedSingleBond NonConjugatedSingleBond ConjugatedDoubleBond NonConjugatedSingleBond NonConjugatedSingleBond NonConjugatedSingleBond NonConjugatedSingleBond NonConjugatedSingleBond NonConjugatedSingleBond NonConjugatedSingleBond NonConjugatedSingleBond NonConjugatedSingleBond NonConjugatedSingleBond NonConjugatedSingleBond NonConjugatedSingleBond ConjugatedDoubleBond NonConjugatedSingleBond NonConjugatedSingleBond NonConjugatedSingleBond NonConjugatedSingleBond NonConjugatedSingleBond NonConjugatedSingleBond NonConjugatedSingleBond NonConjugatedSingleBond NonConjugatedSingleBond NonConjugatedSingleBond NonConjugatedSingleBond NonConjugatedSingleBond ConjugatedDoubleBond NonConjugatedSingleBond NonConjugatedSingleBond NonConjugatedSingleBond NonConjugatedSingleBond NonConjugatedSingleBond NonConjugatedSingleBond NonConjugatedSingleBond NonConjugatedSingleBond NonConjugatedSingleBond NonConjugatedSingleBond NonConjugatedSingleBond NonConjugatedSingleBond ConjugatedDoubleBond NonConjugatedSingleBond NonConjugatedSingleBond NonConjugatedSingleBond NonConjugatedSingleBond NonConjugatedSingleBond NonConjugatedSingleBond NonConjugatedSingleBond NonConjugatedSingleBond NonConjugatedSingleBond NonConjugatedSingleBond NonConjugatedSingleBond NonConjugatedSingleBond ConjugatedDoubleBond NonConjugatedSingleBond NonConjugatedSingleBond NonConjugatedSingleBond NonConjugatedSingleBond NonConjugatedSingleBond NonConjugatedSingleBond NonConjugatedSingleBond NonConjugatedSingleBond NonConjugatedSingleBond NonConjugatedSingleBond NonConjugatedSingleBond NonConjugatedSingleBond ConjugatedDoubleBond NonConjugatedSingleBond NonConjugatedSingleBond NonConjugatedSingleBond NonConjugatedSingleBond NonConjugatedSingleBond NonConjugatedSingleBond NonConjugatedSingleBond NonConjugatedSingleBond NonConjugatedSingleBond NonConjugatedSingleBond NonConjugatedSingleBond NonConjugatedSingleBond ConjugatedDoubleBond NonConjugatedSingleBond NonConjugatedSingleBond NonConjugatedSingleBond NonConjugatedSingleBond NonConjugatedSingleBond NonConjugatedSingleBond NonConjugatedSingleBond NonConjugatedSingleBond NonConjugatedSingleBond NonConjugatedSingleBondInRing NonConjugatedSingleBondInRing NonConjugatedSingleBond NonConjugatedSingleBond NonConjugatedSingleBondInRing NonConjugatedSingleBond NonConjugatedSingleBondInRing NonConjugatedSingleBond NonConjugatedSingleBondInRing NonConjugatedSingleBond NonConjugatedSingleBond NonConjugatedSingleBondInRing NonConjugatedSingleBond NonConjugatedSingleBond NonConjugatedSingleBond NonConjugatedSingleBond NonConjugatedSingleBond NonConjugatedSingleBond NonConjugatedSingleBond NonConjugatedSingleBond NonConjugatedSingleBond NonConjugatedSingleBondInRing NonConjugatedSingleBondInRing NonConjugatedSingleBond NonConjugatedSingleBondInRing NonConjugatedSingleBond NonConjugatedSingleBondInRing NonConjugatedSingleBond NonConjugatedSingleBondInRing NonConjugatedSingleBond NonConjugatedSingleBondInRing NonConjugatedSingleBond NonConjugatedSingleBond NonConjugatedSingleBond NonConjugatedSingleBond AmideSingleBond NonConjugatedSingleBond NonConjugatedSingleBond NonConjugatedSingleBond NonConjugatedSingleBond NonConjugatedSingleBond ConjugatedDoubleBond NonConjugatedSingleBond NonConjugatedSingleBond NonConjugatedSingleBond NonConjugatedSingleBond
M  BCL CHI   1   R   4   R   8   R  17   S  20   R  22   S  25   R  29   S  38   S  42   R  46   R  50   S 185   R 187   S 190   S 192   R 194   R 205   R 207   S 210   R 212   S 214   S
M  BCL DBI - - E E E E E E E E Z - -
M  END
> <ConfClashScore>
0.00420282 

> <ConfOneFourInteractionScore>
-0.9684 

> <ConfScore>
0.553315 

> <ConfScorePBest>
0.0119055 

> <ConfTolerance>
3.52063 

$$$$
L05.****
  PyMOL2.5          3D                             0

230233  0  0  0  0  0  0  0  0999 V2000
   12.2349   -2.5420   -2.8677 C   0  0  0  1  0  0  0  0  0  0  0  0
   11.4843   -2.3298   -2.1352 H   0  0  0  1  0  0  0  0  0  0  0  0
   11.6912   -3.2867   -3.9193 O   0  0  0  1  0  0  0  0  0  0  0  0
   12.7508   -1.2385   -3.4975 C   0  0  0  1  0  0  0  0  0  0  0  0
   13.7460   -1.3581   -3.8720 H   0  0  0  1  0  0  0  0  0  0  0  0
   12.7215   -0.1645   -2.5563 O   0  0  0  1  0  0  0  0  0  0  0  0
   13.5343   -0.1638   -2.0454 H   0  0  0  1  0  0  0  0  0  0  0  0
   11.7645   -1.0035   -4.6280 C   0  0  0  1  0  0  0  0  0  0  0  0
   10.9157   -0.4470   -4.2892 H   0  0  0  1  0  0  0  0  0  0  0  0
   12.3833   -0.3144   -5.7155 O   0  0  0  1  0  0  0  0  0  0  0  0
   11.7193   -0.0883   -6.3709 H   0  0  0  1  0  0  0  0  0  0  0  0
    9.0450   -2.0735   -4.1199 C   0  0  0  1  0  0  0  0  0  0  0  0
    9.0453   -2.8727   -3.4085 H   0  0  0  1  0  0  0  0  0  0  0  0
    9.5109   -1.2119   -3.6893 H   0  0  0  1  0  0  0  0  0  0  0  0
    7.7039   -1.7475   -4.4152 O   0  0  0  1  0  0  0  0  0  0  0  0
    7.2427   -2.5327   -4.7193 H   0  0  0  1  0  0  0  0  0  0  0  0
    9.8715   -2.5088   -5.3242 C   0  0  0  1  0  0  0  0  0  0  0  0
    9.6679   -1.8190   -6.1164 H   0  0  0  1  0  0  0  0  0  0  0  0
    9.5089   -3.8153   -5.7558 O   0  0  0  1  0  0  0  0  0  0  0  0
   11.3616   -2.4420   -5.0363 C   0  0  0  1  0  0  0  0  0  0  0  0
   11.9072   -2.7469   -5.9047 H   0  0  0  1  0  0  0  0  0  0  0  0
   10.0568   -4.2442   -6.9856 C   0  0  0  1  0  0  0  0  0  0  0  0
    9.8440   -3.5195   -7.7436 H   0  0  0  1  0  0  0  0  0  0  0  0
   11.4386   -4.4496   -6.8689 O   0  0  0  1  0  0  0  0  0  0  0  0
    9.5012   -5.6208   -7.3781 C   0  0  0  1  0  0  0  0  0  0  0  0
    8.5926   -5.5256   -7.9351 H   0  0  0  1  0  0  0  0  0  0  0  0
    9.2706   -6.4312   -6.2242 O   0  0  0  1  0  0  0  0  0  0  0  0
   10.0200   -6.3611   -5.6283 H   0  0  0  1  0  0  0  0  0  0  0  0
   10.6036   -6.1916   -8.2309 C   0  0  0  1  0  0  0  0  0  0  0  0
   10.5129   -5.8638   -9.2454 H   0  0  0  1  0  0  0  0  0  0  0  0
   10.5970   -7.6157   -8.1889 O   0  0  0  1  0  0  0  0  0  0  0  0
   11.1764   -7.9182   -7.4858 H   0  0  0  1  0  0  0  0  0  0  0  0
   13.1127   -6.3341   -9.7142 C   0  0  0  1  0  0  0  0  0  0  0  0
   12.4869   -7.1782   -9.5125 H   0  0  0  1  0  0  0  0  0  0  0  0
   12.8678   -5.9290  -10.6738 H   0  0  0  1  0  0  0  0  0  0  0  0
   14.4730   -6.7426   -9.7074 O   0  0  0  1  0  0  0  0  0  0  0  0
   14.7163   -7.0319   -8.8249 H   0  0  0  1  0  0  0  0  0  0  0  0
   12.8893   -5.2654   -8.6380 C   0  0  0  1  0  0  0  0  0  0  0  0
   12.5612   -4.3689   -9.1212 H   0  0  0  1  0  0  0  0  0  0  0  0
   14.0840   -4.9953   -7.8898 O   0  0  0  1  0  0  0  0  0  0  0  0
   14.1464   -4.0535   -7.7147 H   0  0  0  1  0  0  0  0  0  0  0  0
   11.8723   -5.6289   -7.5832 C   0  0  0  1  0  0  0  0  0  0  0  0
   12.2973   -6.3419   -6.9080 H   0  0  0  1  0  0  0  0  0  0  0  0
   13.3052   -3.2546   -2.2584 O   0  0  0  1  0  0  0  0  0  0  0  0
   21.3881   -8.1257    1.5938 O   0  0  0  1  0  0  0  0  0  0  0  0
   21.1133   -7.5720    0.1361 P   0  0  0  1  0  0  0  0  0  0  0  0
   22.5607   -7.3853   -0.5616 O   0  0  0  1  0  0  0  0  0  0  0  0
   20.2855   -6.3557    0.2704 O   0  0  0  0  0  0  0  0  0  0  0  0
   20.4246   -8.6012   -0.6929 O   0  0  0  1  0  0  0  0  0  0  0  0
   22.8602   -6.4124   -1.8208 P   0  0  0  1  0  0  0  0  0  0  0  0
   21.4016   -5.8314   -1.8001 O   0  0  0  1  0  0  0  0  0  0  0  0
   23.0721   -7.2203   -3.0475 O   0  0  0  0  0  0  0  0  0  0  0  0
   23.8349   -5.3681   -1.4576 O   0  0  0  1  0  0  0  0  0  0  0  0
   20.3416   -8.5317    2.4903 C   0  0  0  1  0  0  0  0  0  0  0  0
   20.2475   -9.5968    2.4525 H   0  0  0  1  0  0  0  0  0  0  0  0
   19.4233   -8.0807    2.1769 H   0  0  0  1  0  0  0  0  0  0  0  0
   20.6241   -8.1229    3.8939 C   0  0  0  1  0  0  0  0  0  0  0  0
   21.4671   -7.5492    4.0984 H   0  0  0  1  0  0  0  0  0  0  0  0
   19.8157   -8.4791    4.8948 C   0  0  0  1  0  0  0  0  0  0  0  0
   19.8580   -7.8404    6.2649 C   0  0  0  1  0  0  0  0  0  0  0  0
   19.6665   -8.5829    7.0111 H   0  0  0  1  0  0  0  0  0  0  0  0
   19.1129   -7.0748    6.3244 H   0  0  0  1  0  0  0  0  0  0  0  0
   20.8246   -7.4116    6.4285 H   0  0  0  1  0  0  0  0  0  0  0  0
   18.8701   -9.6375    4.7221 C   0  0  0  1  0  0  0  0  0  0  0  0
   19.3217  -10.3507    4.0646 H   0  0  0  1  0  0  0  0  0  0  0  0
   17.9628   -9.2744    4.2863 H   0  0  0  1  0  0  0  0  0  0  0  0
   18.5337  -10.3319    6.0317 C   0  0  0  1  0  0  0  0  0  0  0  0
   17.7610  -11.0490    5.8482 H   0  0  0  1  0  0  0  0  0  0  0  0
   18.1821   -9.5977    6.7260 H   0  0  0  1  0  0  0  0  0  0  0  0
   19.7110  -11.0422    6.6412 C   0  0  0  1  0  0  0  0  0  0  0  0
   20.2126  -11.7362    6.0511 H   0  0  0  1  0  0  0  0  0  0  0  0
   20.1580  -10.8490    7.8775 C   0  0  0  1  0  0  0  0  0  0  0  0
   21.4652  -11.3886    8.3852 C   0  0  0  1  0  0  0  0  0  0  0  0
   21.3021  -12.3360    8.8550 H   0  0  0  1  0  0  0  0  0  0  0  0
   21.8809  -10.7052    9.0958 H   0  0  0  1  0  0  0  0  0  0  0  0
   22.1433  -11.5088    7.5663 H   0  0  0  1  0  0  0  0  0  0  0  0
   19.3720  -10.0590    8.8820 C   0  0  0  1  0  0  0  0  0  0  0  0
   18.5719   -9.5538    8.3826 H   0  0  0  1  0  0  0  0  0  0  0  0
   20.0156   -9.3397    9.3439 H   0  0  0  1  0  0  0  0  0  0  0  0
   18.7947  -10.9709    9.9523 C   0  0  0  1  0  0  0  0  0  0  0  0
   19.5974  -11.5126   10.4075 H   0  0  0  1  0  0  0  0  0  0  0  0
   18.1193  -11.6578    9.4864 H   0  0  0  1  0  0  0  0  0  0  0  0
   18.0575  -10.2284   11.0182 C   0  0  0  1  0  0  0  0  0  0  0  0
   18.6057   -9.7967   11.7893 H   0  0  0  1  0  0  0  0  0  0  0  0
   16.7369  -10.0924   11.0296 C   0  0  0  1  0  0  0  0  0  0  0  0
   15.8569  -10.9437   10.1612 C   0  0  0  1  0  0  0  0  0  0  0  0
   15.1658  -11.4685   10.7873 H   0  0  0  1  0  0  0  0  0  0  0  0
   16.4715  -11.6473    9.6395 H   0  0  0  1  0  0  0  0  0  0  0  0
   16.0031   -9.1007   11.8879 C   0  0  0  1  0  0  0  0  0  0  0  0
   16.4409   -9.0804   12.8641 H   0  0  0  1  0  0  0  0  0  0  0  0
   14.9751   -9.3874   11.9643 H   0  0  0  1  0  0  0  0  0  0  0  0
   16.0710   -8.1284   11.4465 H   0  0  0  1  0  0  0  0  0  0  0  0
   15.0697  -10.1385    9.1403 C   0  0  0  1  0  0  0  0  0  0  0  0
   14.2933   -9.6163    9.6594 H   0  0  0  1  0  0  0  0  0  0  0  0
   14.6348  -10.8241    8.4434 H   0  0  0  1  0  0  0  0  0  0  0  0
   15.8631   -9.1345    8.3659 C   0  0  0  1  0  0  0  0  0  0  0  0
   16.9000   -9.2015    8.4117 H   0  0  0  1  0  0  0  0  0  0  0  0
   15.3421   -8.1633    7.6237 C   0  0  0  1  0  0  0  0  0  0  0  0
   13.8625   -7.9396    7.4598 C   0  0  0  1  0  0  0  0  0  0  0  0
   13.3324   -8.7442    7.9252 H   0  0  0  1  0  0  0  0  0  0  0  0
   13.6253   -7.9116    6.4168 H   0  0  0  1  0  0  0  0  0  0  0  0
   16.2172   -7.1870    6.8701 C   0  0  0  1  0  0  0  0  0  0  0  0
   16.0346   -6.1948    7.2267 H   0  0  0  1  0  0  0  0  0  0  0  0
   15.9903   -7.2377    5.8256 H   0  0  0  1  0  0  0  0  0  0  0  0
   17.2459   -7.4376    7.0247 H   0  0  0  1  0  0  0  0  0  0  0  0
   13.4414   -6.6280    8.1022 C   0  0  0  1  0  0  0  0  0  0  0  0
   12.4431   -6.4013    7.7908 H   0  0  0  1  0  0  0  0  0  0  0  0
   14.1036   -5.8569    7.7677 H   0  0  0  1  0  0  0  0  0  0  0  0
   13.4762   -6.6702    9.6065 C   0  0  0  1  0  0  0  0  0  0  0  0
   13.3322   -7.5530   10.1370 H   0  0  0  1  0  0  0  0  0  0  0  0
   13.7030   -5.5061   10.2180 C   0  0  0  1  0  0  0  0  0  0  0  0
   13.9085   -4.2405    9.4317 C   0  0  0  1  0  0  0  0  0  0  0  0
   13.7404   -3.4059   10.0798 H   0  0  0  1  0  0  0  0  0  0  0  0
   13.2001   -4.2187    8.6301 H   0  0  0  1  0  0  0  0  0  0  0  0
   13.7621   -5.4125   11.7167 C   0  0  0  1  0  0  0  0  0  0  0  0
   12.7835   -5.2143   12.1011 H   0  0  0  1  0  0  0  0  0  0  0  0
   14.4231   -4.6197   11.9985 H   0  0  0  1  0  0  0  0  0  0  0  0
   14.1220   -6.3370   12.1176 H   0  0  0  1  0  0  0  0  0  0  0  0
   15.3061   -4.1241    8.8456 C   0  0  0  1  0  0  0  0  0  0  0  0
   15.4136   -4.8330    8.0514 H   0  0  0  1  0  0  0  0  0  0  0  0
   16.0255   -4.3321    9.6098 H   0  0  0  1  0  0  0  0  0  0  0  0
   15.5452   -2.7391    8.3065 C   0  0  0  1  0  0  0  0  0  0  0  0
   16.4175   -2.2652    8.6164 H   0  0  0  1  0  0  0  0  0  0  0  0
   14.7625   -2.0563    7.4778 C   0  0  0  1  0  0  0  0  0  0  0  0
   13.6415   -2.6820    6.6732 C   0  0  0  1  0  0  0  0  0  0  0  0
   13.0496   -3.3089    7.3068 H   0  0  0  1  0  0  0  0  0  0  0  0
   14.0525   -3.2659    5.8762 H   0  0  0  1  0  0  0  0  0  0  0  0
   14.9348   -0.5798    7.2724 C   0  0  0  1  0  0  0  0  0  0  0  0
   15.3665   -0.4010    6.3099 H   0  0  0  1  0  0  0  0  0  0  0  0
   15.5797   -0.1873    8.0307 H   0  0  0  1  0  0  0  0  0  0  0  0
   13.9811   -0.0982    7.3303 H   0  0  0  1  0  0  0  0  0  0  0  0
   12.7769   -1.5708    6.1004 C   0  0  0  1  0  0  0  0  0  0  0  0
   12.0954   -1.9880    5.3887 H   0  0  0  1  0  0  0  0  0  0  0  0
   13.4044   -0.8526    5.6155 H   0  0  0  1  0  0  0  0  0  0  0  0
   12.0001   -0.8916    7.1833 C   0  0  0  1  0  0  0  0  0  0  0  0
   11.9198   -1.4018    8.0860 H   0  0  0  1  0  0  0  0  0  0  0  0
   11.3994    0.2970    7.1168 C   0  0  0  1  0  0  0  0  0  0  0  0
   11.3645    1.0471    5.8137 C   0  0  0  1  0  0  0  0  0  0  0  0
   10.3671    1.3980    5.6493 H   0  0  0  1  0  0  0  0  0  0  0  0
   11.6413    0.3765    5.0272 H   0  0  0  1  0  0  0  0  0  0  0  0
   10.6404    0.9093    8.2752 C   0  0  0  1  0  0  0  0  0  0  0  0
    9.9979    1.6839    7.9117 H   0  0  0  1  0  0  0  0  0  0  0  0
   11.3341    1.3220    8.9775 H   0  0  0  1  0  0  0  0  0  0  0  0
   10.0527    0.1547    8.7550 H   0  0  0  1  0  0  0  0  0  0  0  0
   12.3072    2.2391    5.7874 C   0  0  0  1  0  0  0  0  0  0  0  0
   11.9770    2.9251    6.5392 H   0  0  0  1  0  0  0  0  0  0  0  0
   12.2192    2.6957    4.8237 H   0  0  0  1  0  0  0  0  0  0  0  0
   13.7688    1.9758    6.0290 C   0  0  0  1  0  0  0  0  0  0  0  0
   14.0240    1.4058    6.8606 H   0  0  0  1  0  0  0  0  0  0  0  0
   14.7569    2.4168    5.2597 C   0  0  0  1  0  0  0  0  0  0  0  0
   14.5099    3.4250    4.1695 C   0  0  0  1  0  0  0  0  0  0  0  0
   13.5268    3.2685    3.7772 H   0  0  0  1  0  0  0  0  0  0  0  0
   15.2320    3.2726    3.3947 H   0  0  0  1  0  0  0  0  0  0  0  0
   16.1833    1.9706    5.3907 C   0  0  0  1  0  0  0  0  0  0  0  0
   16.2145    1.0037    5.8479 H   0  0  0  1  0  0  0  0  0  0  0  0
   16.7209    2.6692    5.9973 H   0  0  0  1  0  0  0  0  0  0  0  0
   16.6317    1.9208    4.4205 H   0  0  0  1  0  0  0  0  0  0  0  0
   14.6151    4.8652    4.6537 C   0  0  0  1  0  0  0  0  0  0  0  0
   15.6267    5.0667    4.9382 H   0  0  0  1  0  0  0  0  0  0  0  0
   13.9729    4.9988    5.4992 H   0  0  0  1  0  0  0  0  0  0  0  0
   14.2074    5.8246    3.5678 C   0  0  0  1  0  0  0  0  0  0  0  0
   13.2672    5.6978    3.1416 H   0  0  0  1  0  0  0  0  0  0  0  0
   14.9591    6.8214    3.1130 C   0  0  0  1  0  0  0  0  0  0  0  0
   14.6817    7.5588    1.8303 C   0  0  0  1  0  0  0  0  0  0  0  0
   14.4886    8.5876    2.0518 H   0  0  0  1  0  0  0  0  0  0  0  0
   13.8242    7.1284    1.3566 H   0  0  0  1  0  0  0  0  0  0  0  0
   16.1709    7.2980    3.8632 C   0  0  0  1  0  0  0  0  0  0  0  0
   16.9916    7.1766    3.1875 H   0  0  0  1  0  0  0  0  0  0  0  0
   16.3212    6.7087    4.7436 H   0  0  0  1  0  0  0  0  0  0  0  0
   16.0607    8.3267    4.1365 H   0  0  0  1  0  0  0  0  0  0  0  0
   15.8705    7.4665    0.8877 C   0  0  0  1  0  0  0  0  0  0  0  0
   16.0424    6.4401    0.6392 H   0  0  0  1  0  0  0  0  0  0  0  0
   16.7358    7.8660    1.3742 H   0  0  0  1  0  0  0  0  0  0  0  0
   15.6117    8.2434   -0.3754 C   0  0  0  1  0  0  0  0  0  0  0  0
   15.5212    9.2763   -0.2951 H   0  0  0  1  0  0  0  0  0  0  0  0
   15.4902    7.7073   -1.5866 C   0  0  0  1  0  0  0  0  0  0  0  0
   15.6395    6.2506   -1.9165 C   0  0  0  1  0  0  0  0  0  0  0  0
   16.1002    5.7436   -1.0945 H   0  0  0  1  0  0  0  0  0  0  0  0
   16.2500    6.1434   -2.7887 H   0  0  0  1  0  0  0  0  0  0  0  0
   14.6748    5.8263   -2.1014 H   0  0  0  1  0  0  0  0  0  0  0  0
   15.1754    8.6004   -2.7620 C   0  0  0  1  0  0  0  0  0  0  0  0
   14.2313    9.0645   -2.5667 H   0  0  0  1  0  0  0  0  0  0  0  0
   15.1185    8.0188   -3.6584 H   0  0  0  1  0  0  0  0  0  0  0  0
   15.9349    9.3466   -2.8681 H   0  0  0  1  0  0  0  0  0  0  0  0
   16.1944   -5.0387   -1.5752 C   0  0  0  1  0  0  0  0  0  0  0  0
   16.4705   -5.5239   -0.6624 H   0  0  0  1  0  0  0  0  0  0  0  0
   14.9626   -5.7036   -2.1306 C   0  0  0  1  0  0  0  0  0  0  0  0
   15.1878   -6.7226   -2.3670 H   0  0  0  1  0  0  0  0  0  0  0  0
   15.9657   -3.6618   -1.3158 O   0  0  0  1  0  0  0  0  0  0  0  0
   14.5029   -4.9931   -3.3790 C   0  0  0  1  0  0  0  0  0  0  0  0
   13.5422   -5.3684   -3.6637 H   0  0  0  1  0  0  0  0  0  0  0  0
   15.6691   -2.9457   -2.5122 C   0  0  0  1  0  0  0  0  0  0  0  0
   16.4820   -3.0488   -3.2002 H   0  0  0  1  0  0  0  0  0  0  0  0
   14.4030   -3.5061   -3.1368 C   0  0  0  1  0  0  0  0  0  0  0  0
   14.2323   -3.0145   -4.0717 H   0  0  0  1  0  0  0  0  0  0  0  0
   17.2528   -5.1628   -2.5181 O   0  0  0  1  0  0  0  0  0  0  0  0
   13.9217   -5.6596   -1.1528 O   0  0  0  1  0  0  0  0  0  0  0  0
   13.1358   -6.0861   -1.5021 H   0  0  0  1  0  0  0  0  0  0  0  0
   15.4346   -5.2344   -4.4233 O   0  0  0  1  0  0  0  0  0  0  0  0
   14.9746   -5.2504   -5.2658 H   0  0  0  1  0  0  0  0  0  0  0  0
   15.4647   -1.4754   -2.1850 C   0  0  0  1  0  0  0  0  0  0  0  0
   16.3410   -1.0908   -1.7066 H   0  0  0  1  0  0  0  0  0  0  0  0
   14.6253   -1.3695   -1.5299 H   0  0  0  1  0  0  0  0  0  0  0  0
   15.2837   -0.9311   -3.0883 H   0  0  0  1  0  0  0  0  0  0  0  0
   20.9762   -4.7562   -2.6408 C   0  0  0  1  0  0  0  0  0  0  0  0
   21.6436   -4.6676   -3.4725 H   0  0  0  1  0  0  0  0  0  0  0  0
   19.5623   -5.0399   -3.1521 C   0  0  0  1  0  0  0  0  0  0  0  0
   19.5492   -5.9896   -3.6448 H   0  0  0  1  0  0  0  0  0  0  0  0
   20.9849   -3.5318   -1.8900 O   0  0  0  1  0  0  0  0  0  0  0  0
   18.5808   -5.0621   -1.9983 C   0  0  0  1  0  0  0  0  0  0  0  0
   18.7879   -5.9108   -1.3805 H   0  0  0  1  0  0  0  0  0  0  0  0
   20.1430   -3.5691   -0.7447 C   0  0  0  1  0  0  0  0  0  0  0  0
   20.4554   -4.3675   -0.1044 H   0  0  0  1  0  0  0  0  0  0  0  0
   18.6903   -3.7938   -1.1546 C   0  0  0  1  0  0  0  0  0  0  0  0
   18.3492   -2.9563   -1.7266 H   0  0  0  1  0  0  0  0  0  0  0  0
   19.1715   -3.9922   -4.0989 N   0  0  0  1  0  0  0  0  0  0  0  0
   18.7852   -3.1701   -3.7310 H   0  0  0  1  0  0  0  0  0  0  0  0
   17.8826   -3.9323    0.0172 O   0  0  0  1  0  0  0  0  0  0  0  0
   17.0675   -3.4561   -0.1569 H   0  0  0  1  0  0  0  0  0  0  0  0
   20.2523   -2.2646   -0.0091 C   0  0  0  1  0  0  0  0  0  0  0  0
   20.5199   -2.4521    1.0098 H   0  0  0  1  0  0  0  0  0  0  0  0
   19.3109   -1.7570   -0.0435 H   0  0  0  1  0  0  0  0  0  0  0  0
   21.2487   -1.4538   -0.6177 O   0  0  0  1  0  0  0  0  0  0  0  0
   22.0176   -1.4411   -0.0432 H   0  0  0  1  0  0  0  0  0  0  0  0
   19.3021   -4.0732   -5.4261 C   0  0  0  1  0  0  0  0  0  0  0  0
   18.9197   -3.1896   -6.1920 O   0  0  0  1  0  0  0  0  0  0  0  0
   19.9592   -5.3364   -5.9475 C   0  0  0  1  0  0  0  0  0  0  0  0
   19.1685   -5.8653   -6.4373 H   0  0  0  1  0  0  0  0  0  0  0  0
   20.3593   -5.9153   -5.1414 H   0  0  0  1  0  0  0  0  0  0  0  0
   20.7406   -5.0988   -6.6388 H   0  0  0  1  0  0  0  0  0  0  0  0
  1  2  1  0  0  0  0
  1  3  1  0  0  0  0
  1  4  1  0  0  0  0
  1 44  1  0  0  0  0
  3 20  1  0  0  0  0
  4  5  1  0  0  0  0
  4  6  1  0  0  0  0
  4  8  1  0  0  0  0
  6  7  1  0  0  0  0
  8  9  1  0  0  0  0
  8 10  1  0  0  0  0
  8 20  1  0  0  0  0
 10 11  1  0  0  0  0
 12 13  1  0  0  0  0
 12 14  1  0  0  0  0
 12 15  1  0  0  0  0
 12 17  1  0  0  0  0
 15 16  1  0  0  0  0
 17 18  1  0  0  0  0
 17 19  1  0  0  0  0
 17 20  1  0  0  0  0
 19 22  1  0  0  0  0
 20 21  1  0  0  0  0
 22 23  1  0  0  0  0
 22 24  1  0  0  0  0
 22 25  1  0  0  0  0
 24 42  1  0  0  0  0
 25 26  1  0  0  0  0
 25 27  1  0  0  0  0
 25 29  1  0  0  0  0
 27 28  1  0  0  0  0
 29 30  1  0  0  0  0
 29 31  1  0  0  0  0
 29 42  1  0  0  0  0
 31 32  1  0  0  0  0
 33 34  1  0  0  0  0
 33 35  1  0  0  0  0
 33 36  1  0  0  0  0
 33 38  1  0  0  0  0
 36 37  1  0  0  0  0
 38 39  1  0  0  0  0
 38 40  1  0  0  0  0
 38 42  1  0  0  0  0
 40 41  1  0  0  0  0
 42 43  1  0  0  0  0
 44194  1  0  0  0  0
 45 46  1  0  0  0  0
 45 54  1  0  0  0  0
 46 47  1  0  0  0  0
 46 48  1  0  0  0  0
 46 49  2  0  0  0  0
 47 50  1  0  0  0  0
 50 51  1  0  0  0  0
 50 52  1  0  0  0  0
 50 53  2  0  0  0  0
 51205  1  0  0  0  0
 54 55  1  0  0  0  0
 54 56  1  0  0  0  0
 54 57  1  0  0  0  0
 57 58  1  0  0  0  0
 57 59  2  0  0  0  0
 59 60  1  0  0  0  0
 59 64  1  0  0  0  0
 60 61  1  0  0  0  0
 60 62  1  0  0  0  0
 60 63  1  0  0  0  0
 64 65  1  0  0  0  0
 64 66  1  0  0  0  0
 64 67  1  0  0  0  0
 67 68  1  0  0  0  0
 67 69  1  0  0  0  0
 67 70  1  0  0  0  0
 70 71  1  0  0  0  0
 70 72  2  0  0  0  0
 72 73  1  0  0  0  0
 72 77  1  0  0  0  0
 73 74  1  0  0  0  0
 73 75  1  0  0  0  0
 73 76  1  0  0  0  0
 77 78  1  0  0  0  0
 77 79  1  0  0  0  0
 77 80  1  0  0  0  0
 80 81  1  0  0  0  0
 80 82  1  0  0  0  0
 80 83  1  0  0  0  0
 83 84  1  0  0  0  0
 83 85  2  0  0  0  0
 85 86  1  0  0  0  0
 85 89  1  0  0  0  0
 86 87  1  0  0  0  0
 86 88  1  0  0  0  0
 86 93  1  0  0  0  0
 89 90  1  0  0  0  0
 89 91  1  0  0  0  0
 89 92  1  0  0  0  0
 93 94  1  0  0  0  0
 93 95  1  0  0  0  0
 93 96  1  0  0  0  0
 96 97  1  0  0  0  0
 96 98  2  0  0  0  0
 98 99  1  0  0  0  0
 98102  1  0  0  0  0
 99100  1  0  0  0  0
 99101  1  0  0  0  0
 99106  1  0  0  0  0
102103  1  0  0  0  0
102104  1  0  0  0  0
102105  1  0  0  0  0
106107  1  0  0  0  0
106108  1  0  0  0  0
106109  1  0  0  0  0
109110  1  0  0  0  0
109111  2  0  0  0  0
111112  1  0  0  0  0
111115  1  0  0  0  0
112113  1  0  0  0  0
112114  1  0  0  0  0
112119  1  0  0  0  0
115116  1  0  0  0  0
115117  1  0  0  0  0
115118  1  0  0  0  0
119120  1  0  0  0  0
119121  1  0  0  0  0
119122  1  0  0  0  0
122123  1  0  0  0  0
122124  2  0  0  0  0
124125  1  0  0  0  0
124128  1  0  0  0  0
125126  1  0  0  0  0
125127  1  0  0  0  0
125132  1  0  0  0  0
128129  1  0  0  0  0
128130  1  0  0  0  0
128131  1  0  0  0  0
132133  1  0  0  0  0
132134  1  0  0  0  0
132135  1  0  0  0  0
135136  1  0  0  0  0
135137  2  0  0  0  0
137138  1  0  0  0  0
137141  1  0  0  0  0
138139  1  0  0  0  0
138140  1  0  0  0  0
138145  1  0  0  0  0
141142  1  0  0  0  0
141143  1  0  0  0  0
141144  1  0  0  0  0
145146  1  0  0  0  0
145147  1  0  0  0  0
145148  1  0  0  0  0
148149  1  0  0  0  0
148150  2  0  0  0  0
150151  1  0  0  0  0
150154  1  0  0  0  0
151152  1  0  0  0  0
151153  1  0  0  0  0
151158  1  0  0  0  0
154155  1  0  0  0  0
154156  1  0  0  0  0
154157  1  0  0  0  0
158159  1  0  0  0  0
158160  1  0  0  0  0
158161  1  0  0  0  0
161162  1  0  0  0  0
161163  2  0  0  0  0
163164  1  0  0  0  0
163167  1  0  0  0  0
164165  1  0  0  0  0
164166  1  0  0  0  0
164171  1  0  0  0  0
167168  1  0  0  0  0
167169  1  0  0  0  0
167170  1  0  0  0  0
171172  1  0  0  0  0
171173  1  0  0  0  0
171174  1  0  0  0  0
174175  1  0  0  0  0
174176  2  0  0  0  0
176177  1  0  0  0  0
176181  1  0  0  0  0
177178  1  0  0  0  0
177179  1  0  0  0  0
177180  1  0  0  0  0
181182  1  0  0  0  0
181183  1  0  0  0  0
181184  1  0  0  0  0
185186  1  0  0  0  0
185187  1  0  0  0  0
185189  1  0  0  0  0
185196  1  0  0  0  0
187188  1  0  0  0  0
187190  1  0  0  0  0
187197  1  0  0  0  0
189192  1  0  0  0  0
190191  1  0  0  0  0
190194  1  0  0  0  0
190199  1  0  0  0  0
192193  1  0  0  0  0
192194  1  0  0  0  0
192201  1  0  0  0  0
194195  1  0  0  0  0
196210  1  0  0  0  0
197198  1  0  0  0  0
199200  1  0  0  0  0
201202  1  0  0  0  0
201203  1  0  0  0  0
201204  1  0  0  0  0
205206  1  0  0  0  0
205207  1  0  0  0  0
205209  1  0  0  0  0
207208  1  0  0  0  0
207210  1  0  0  0  0
207216  1  0  0  0  0
209212  1  0  0  0  0
210211  1  0  0  0  0
210214  1  0  0  0  0
212213  1  0  0  0  0
212214  1  0  0  0  0
212220  1  0  0  0  0
214215  1  0  0  0  0
214218  1  0  0  0  0
216217  1  0  0  0  0
216225  1  0  0  0  0
218219  1  0  0  0  0
220221  1  0  0  0  0
220222  1  0  0  0  0
220223  1  0  0  0  0
223224  1  0  0  0  0
225226  2  0  0  0  0
225227  1  0  0  0  0
227228  1  0  0  0  0
227229  1  0  0  0  0
227230  1  0  0  0  0
M  BCL ATM C_TeTeTeTe H_S O_Te2Te2TeTe C_TeTeTeTe H_S O_Te2Te2TeTe H_S C_TeTeTeTe H_S O_Te2Te2TeTe H_S C_TeTeTeTe H_S H_S O_Te2Te2TeTe H_S C_TeTeTeTe H_S O_Te2Te2TeTe C_TeTeTeTe H_S C_TeTeTeTe H_S O_Te2Te2TeTe C_TeTeTeTe H_S O_Te2Te2TeTe H_S C_TeTeTeTe H_S O_Te2Te2TeTe H_S C_TeTeTeTe H_S H_S O_Te2Te2TeTe H_S C_TeTeTeTe H_S O_Te2Te2TeTe H_S C_TeTeTeTe H_S O_Te2Te2TeTe O_Tr2TrTrPi2 P_TeTeTeTePi O_Tr2TrTrPi2 O_Te2Te2TeTe O_Tr2Tr2TrPi P_TeTeTeTePi O_Tr2TrTrPi2 O_Te2Te2TeTe O_Tr2Tr2TrPi C_TeTeTeTe H_S H_S C_TrTrTrPi H_S C_TrTrTrPi C_TeTeTeTe H_S H_S H_S C_TeTeTeTe H_S H_S C_TeTeTeTe H_S H_S C_TrTrTrPi H_S C_TrTrTrPi C_TeTeTeTe H_S H_S H_S C_TeTeTeTe H_S H_S C_TeTeTeTe H_S H_S C_TrTrTrPi H_S C_TrTrTrPi C_TeTeTeTe H_S H_S C_TeTeTeTe H_S H_S H_S C_TeTeTeTe H_S H_S C_TrTrTrPi H_S C_TrTrTrPi C_TeTeTeTe H_S H_S C_TeTeTeTe H_S H_S H_S C_TeTeTeTe H_S H_S C_TrTrTrPi H_S C_TrTrTrPi C_TeTeTeTe H_S H_S C_TeTeTeTe H_S H_S H_S C_TeTeTeTe H_S H_S C_TrTrTrPi H_S C_TrTrTrPi C_TeTeTeTe H_S H_S C_TeTeTeTe H_S H_S H_S C_TeTeTeTe H_S H_S C_TrTrTrPi H_S C_TrTrTrPi C_TeTeTeTe H_S H_S C_TeTeTeTe H_S H_S H_S C_TeTeTeTe H_S H_S C_TrTrTrPi H_S C_TrTrTrPi C_TeTeTeTe H_S H_S C_TeTeTeTe H_S H_S H_S C_TeTeTeTe H_S H_S C_TrTrTrPi H_S C_TrTrTrPi C_TeTeTeTe H_S H_S C_TeTeTeTe H_S H_S H_S C_TeTeTeTe H_S H_S C_TrTrTrPi H_S C_TrTrTrPi C_TeTeTeTe H_S H_S H_S C_TeTeTeTe H_S H_S H_S C_TeTeTeTe H_S C_TeTeTeTe H_S O_Te2Te2TeTe C_TeTeTeTe H_S C_TeTeTeTe H_S C_TeTeTeTe H_S O_Te2Te2TeTe O_Te2Te2TeTe H_S O_Te2Te2TeTe H_S C_TeTeTeTe H_S H_S H_S C_TeTeTeTe H_S C_TeTeTeTe H_S O_Te2Te2TeTe C_TeTeTeTe H_S C_TeTeTeTe H_S C_TeTeTeTe H_S N_TrTrTrPi2 H_S O_Te2Te2TeTe H_S C_TeTeTeTe H_S H_S O_Te2Te2TeTe H_S C_TrTrTrPi O_Tr2Tr2TrPi C_TeTeTeTe H_S H_S H_S
M  BCL BND NonConjugatedSingleBond NonConjugatedSingleBondInRing NonConjugatedSingleBondInRing NonConjugatedSingleBond NonConjugatedSingleBondInRing NonConjugatedSingleBond NonConjugatedSingleBond NonConjugatedSingleBondInRing NonConjugatedSingleBond NonConjugatedSingleBond NonConjugatedSingleBond NonConjugatedSingleBondInRing NonConjugatedSingleBond NonConjugatedSingleBond NonConjugatedSingleBond NonConjugatedSingleBond NonConjugatedSingleBond NonConjugatedSingleBond NonConjugatedSingleBond NonConjugatedSingleBond NonConjugatedSingleBond NonConjugatedSingleBond NonConjugatedSingleBond NonConjugatedSingleBond NonConjugatedSingleBondInRing NonConjugatedSingleBondInRing NonConjugatedSingleBondInRing NonConjugatedSingleBond NonConjugatedSingleBond NonConjugatedSingleBondInRing NonConjugatedSingleBond NonConjugatedSingleBond NonConjugatedSingleBond NonConjugatedSingleBondInRing NonConjugatedSingleBond NonConjugatedSingleBond NonConjugatedSingleBond NonConjugatedSingleBond NonConjugatedSingleBond NonConjugatedSingleBond NonConjugatedSingleBond NonConjugatedSingleBond NonConjugatedSingleBond NonConjugatedSingleBond NonConjugatedSingleBond NonConjugatedSingleBond ConjugatedSingleBond NonConjugatedSingleBond ConjugatedSingleBond ConjugatedSingleBond ConjugatedDoubleBond ConjugatedSingleBond ConjugatedSingleBond ConjugatedSingleBond ConjugatedDoubleBond NonConjugatedSingleBond NonConjugatedSingleBond NonConjugatedSingleBond NonConjugatedSingleBond NonConjugatedSingleBond ConjugatedDoubleBond NonConjugatedSingleBond NonConjugatedSingleBond NonConjugatedSingleBond NonConjugatedSingleBond NonConjugatedSingleBond NonConjugatedSingleBond NonConjugatedSingleBond NonConjugatedSingleBond NonConjugatedSingleBond NonConjugatedSingleBond NonConjugatedSingleBond NonConjugatedSingleBond ConjugatedDoubleBond NonConjugatedSingleBond NonConjugatedSingleBond NonConjugatedSingleBond NonConjugatedSingleBond NonConjugatedSingleBond NonConjugatedSingleBond NonConjugatedSingleBond NonConjugatedSingleBond NonConjugatedSingleBond NonConjugatedSingleBond NonConjugatedSingleBond NonConjugatedSingleBond ConjugatedDoubleBond NonConjugatedSingleBond NonConjugatedSingleBond NonConjugatedSingleBond NonConjugatedSingleBond NonConjugatedSingleBond NonConjugatedSingleBond NonConjugatedSingleBond NonConjugatedSingleBond NonConjugatedSingleBond NonConjugatedSingleBond NonConjugatedSingleBond NonConjugatedSingleBond ConjugatedDoubleBond NonConjugatedSingleBond NonConjugatedSingleBond NonConjugatedSingleBond NonConjugatedSingleBond NonConjugatedSingleBond NonConjugatedSingleBond NonConjugatedSingleBond NonConjugatedSingleBond NonConjugatedSingleBond NonConjugatedSingleBond NonConjugatedSingleBond NonConjugatedSingleBond ConjugatedDoubleBond NonConjugatedSingleBond NonConjugatedSingleBond NonConjugatedSingleBond NonConjugatedSingleBond NonConjugatedSingleBond NonConjugatedSingleBond NonConjugatedSingleBond NonConjugatedSingleBond NonConjugatedSingleBond NonConjugatedSingleBond NonConjugatedSingleBond NonConjugatedSingleBond ConjugatedDoubleBond NonConjugatedSingleBond NonConjugatedSingleBond NonConjugatedSingleBond NonConjugatedSingleBond NonConjugatedSingleBond NonConjugatedSingleBond NonConjugatedSingleBond NonConjugatedSingleBond NonConjugatedSingleBond NonConjugatedSingleBond NonConjugatedSingleBond NonConjugatedSingleBond ConjugatedDoubleBond NonConjugatedSingleBond NonConjugatedSingleBond NonConjugatedSingleBond NonConjugatedSingleBond NonConjugatedSingleBond NonConjugatedSingleBond NonConjugatedSingleBond NonConjugatedSingleBond NonConjugatedSingleBond NonConjugatedSingleBond NonConjugatedSingleBond NonConjugatedSingleBond ConjugatedDoubleBond NonConjugatedSingleBond NonConjugatedSingleBond NonConjugatedSingleBond NonConjugatedSingleBond NonConjugatedSingleBond NonConjugatedSingleBond NonConjugatedSingleBond NonConjugatedSingleBond NonConjugatedSingleBond NonConjugatedSingleBond NonConjugatedSingleBond NonConjugatedSingleBond ConjugatedDoubleBond NonConjugatedSingleBond NonConjugatedSingleBond NonConjugatedSingleBond NonConjugatedSingleBond NonConjugatedSingleBond NonConjugatedSingleBond NonConjugatedSingleBond NonConjugatedSingleBond NonConjugatedSingleBond NonConjugatedSingleBond NonConjugatedSingleBond NonConjugatedSingleBond ConjugatedDoubleBond NonConjugatedSingleBond NonConjugatedSingleBond NonConjugatedSingleBond NonConjugatedSingleBond NonConjugatedSingleBond NonConjugatedSingleBond NonConjugatedSingleBond NonConjugatedSingleBond NonConjugatedSingleBond NonConjugatedSingleBondInRing NonConjugatedSingleBondInRing NonConjugatedSingleBond NonConjugatedSingleBond NonConjugatedSingleBondInRing NonConjugatedSingleBond NonConjugatedSingleBondInRing NonConjugatedSingleBond NonConjugatedSingleBondInRing NonConjugatedSingleBond NonConjugatedSingleBond NonConjugatedSingleBondInRing NonConjugatedSingleBond NonConjugatedSingleBond NonConjugatedSingleBond NonConjugatedSingleBond NonConjugatedSingleBond NonConjugatedSingleBond NonConjugatedSingleBond NonConjugatedSingleBond NonConjugatedSingleBond NonConjugatedSingleBondInRing NonConjugatedSingleBondInRing NonConjugatedSingleBond NonConjugatedSingleBondInRing NonConjugatedSingleBond NonConjugatedSingleBondInRing NonConjugatedSingleBond NonConjugatedSingleBondInRing NonConjugatedSingleBond NonConjugatedSingleBondInRing NonConjugatedSingleBond NonConjugatedSingleBond NonConjugatedSingleBond NonConjugatedSingleBond AmideSingleBond NonConjugatedSingleBond NonConjugatedSingleBond NonConjugatedSingleBond NonConjugatedSingleBond NonConjugatedSingleBond ConjugatedDoubleBond NonConjugatedSingleBond NonConjugatedSingleBond NonConjugatedSingleBond NonConjugatedSingleBond
M  BCL CHI   1   R   4   R   8   R  17   S  20   R  22   S  25   R  29   S  38   S  42   R  46   R  50   S 185   R 187   S 190   S 192   R 194   R 205   R 207   S 210   R 212   S 214   S
M  BCL DBI - - E E E E E E E E Z - -
M  END
> <ConfClashScore>
0.00365068 

> <ConfOneFourInteractionScore>
-0.961868 

> <ConfScore>
0.554785 

> <ConfScorePBest>
0.0118025 

> <ConfTolerance>
3.71755 

$$$$
L05.****
  PyMOL2.5          3D                             0

230233  0  0  0  0  0  0  0  0999 V2000
   12.2782   -2.3244   -2.0447 C   0  0  0  1  0  0  0  0  0  0  0  0
   11.4206   -2.8329   -2.4330 H   0  0  0  1  0  0  0  0  0  0  0  0
   12.6674   -1.2969   -2.9099 O   0  0  0  1  0  0  0  0  0  0  0  0
   11.9368   -1.6439   -0.7095 C   0  0  0  1  0  0  0  0  0  0  0  0
   12.8106   -1.5216   -0.1041 H   0  0  0  1  0  0  0  0  0  0  0  0
   10.9565   -2.3900    0.0133 O   0  0  0  1  0  0  0  0  0  0  0  0
   11.0980   -2.2762    0.9560 H   0  0  0  1  0  0  0  0  0  0  0  0
   11.3854   -0.3005   -1.1536 C   0  0  0  1  0  0  0  0  0  0  0  0
   10.3330   -0.3579   -1.3379 H   0  0  0  1  0  0  0  0  0  0  0  0
   11.6441    0.7097   -0.1774 O   0  0  0  1  0  0  0  0  0  0  0  0
   11.4007    1.5679   -0.5321 H   0  0  0  1  0  0  0  0  0  0  0  0
   10.1757   -0.4056   -3.9767 C   0  0  0  1  0  0  0  0  0  0  0  0
    9.2356   -0.1458   -3.5365 H   0  0  0  1  0  0  0  0  0  0  0  0
   10.0943   -0.3649   -5.0428 H   0  0  0  1  0  0  0  0  0  0  0  0
   10.5350   -1.7226   -3.5802 O   0  0  0  1  0  0  0  0  0  0  0  0
   10.5915   -2.2863   -4.3552 H   0  0  0  1  0  0  0  0  0  0  0  0
   11.2399    0.5772   -3.5129 C   0  0  0  1  0  0  0  0  0  0  0  0
   10.7476    1.4219   -3.0782 H   0  0  0  1  0  0  0  0  0  0  0  0
   12.0832    1.0129   -4.5729 O   0  0  0  1  0  0  0  0  0  0  0  0
   12.1666   -0.0247   -2.4620 C   0  0  0  1  0  0  0  0  0  0  0  0
   12.9779    0.6472   -2.2743 H   0  0  0  1  0  0  0  0  0  0  0  0
   12.9086    2.0967   -4.2305 C   0  0  0  1  0  0  0  0  0  0  0  0
   12.3188    2.8655   -3.7767 H   0  0  0  1  0  0  0  0  0  0  0  0
   13.9332    1.6785   -3.3533 O   0  0  0  1  0  0  0  0  0  0  0  0
   13.6199    2.6307   -5.4606 C   0  0  0  1  0  0  0  0  0  0  0  0
   13.0345    3.3797   -5.9517 H   0  0  0  1  0  0  0  0  0  0  0  0
   13.9198    1.5804   -6.3810 O   0  0  0  1  0  0  0  0  0  0  0  0
   13.5167    1.7739   -7.2305 H   0  0  0  1  0  0  0  0  0  0  0  0
   14.8780    3.2188   -4.8755 C   0  0  0  1  0  0  0  0  0  0  0  0
   14.6985    4.1870   -4.4569 H   0  0  0  1  0  0  0  0  0  0  0  0
   15.9130    3.3067   -5.8505 O   0  0  0  1  0  0  0  0  0  0  0  0
   16.1607    2.4241   -6.1355 H   0  0  0  1  0  0  0  0  0  0  0  0
   17.2935    3.3803   -3.1171 C   0  0  0  1  0  0  0  0  0  0  0  0
   17.4409    3.1077   -4.1413 H   0  0  0  1  0  0  0  0  0  0  0  0
   17.3162    4.4460   -3.0243 H   0  0  0  1  0  0  0  0  0  0  0  0
   18.3281    2.8153   -2.3247 O   0  0  0  1  0  0  0  0  0  0  0  0
   17.9654    2.5229   -1.4853 H   0  0  0  1  0  0  0  0  0  0  0  0
   15.9438    2.8601   -2.6444 C   0  0  0  1  0  0  0  0  0  0  0  0
   15.3579    3.6833   -2.2924 H   0  0  0  1  0  0  0  0  0  0  0  0
   16.0976    1.8869   -1.6149 O   0  0  0  1  0  0  0  0  0  0  0  0
   16.6890    1.1930   -1.9156 H   0  0  0  1  0  0  0  0  0  0  0  0
   15.2185    2.1970   -3.7915 C   0  0  0  1  0  0  0  0  0  0  0  0
   15.8252    1.4115   -4.1913 H   0  0  0  1  0  0  0  0  0  0  0  0
   13.3419   -3.2529   -1.8691 O   0  0  0  1  0  0  0  0  0  0  0  0
   15.7422   -8.5184   -5.4283 O   0  0  0  1  0  0  0  0  0  0  0  0
   17.0825   -8.2099   -6.2449 P   0  0  0  1  0  0  0  0  0  0  0  0
   18.2102   -8.8878   -5.3230 O   0  0  0  1  0  0  0  0  0  0  0  0
   17.2407   -6.7446   -6.2390 O   0  0  0  0  0  0  0  0  0  0  0  0
   17.1248   -8.9877   -7.4927 O   0  0  0  1  0  0  0  0  0  0  0  0
   19.8136   -8.9153   -5.4142 P   0  0  0  1  0  0  0  0  0  0  0  0
   20.1796   -7.8275   -4.3427 O   0  0  0  1  0  0  0  0  0  0  0  0
   20.2618   -8.5238   -6.7901 O   0  0  0  0  0  0  0  0  0  0  0  0
   20.3315  -10.2256   -4.9063 O   0  0  0  1  0  0  0  0  0  0  0  0
   14.4634   -7.9106   -5.6713 C   0  0  0  1  0  0  0  0  0  0  0  0
   14.5405   -7.2227   -6.4872 H   0  0  0  1  0  0  0  0  0  0  0  0
   14.1394   -7.3899   -4.7945 H   0  0  0  1  0  0  0  0  0  0  0  0
   13.4854   -8.9815   -6.0088 C   0  0  0  1  0  0  0  0  0  0  0  0
   13.1544   -8.9512   -6.9943 H   0  0  0  1  0  0  0  0  0  0  0  0
   12.9488   -9.9768   -5.2894 C   0  0  0  1  0  0  0  0  0  0  0  0
   12.2425  -11.1002   -6.0150 C   0  0  0  1  0  0  0  0  0  0  0  0
   12.5811  -11.1388   -7.0293 H   0  0  0  1  0  0  0  0  0  0  0  0
   11.1867  -10.9271   -5.9981 H   0  0  0  1  0  0  0  0  0  0  0  0
   12.4599  -12.0293   -5.5310 H   0  0  0  1  0  0  0  0  0  0  0  0
   13.0206  -10.0222   -3.7865 C   0  0  0  1  0  0  0  0  0  0  0  0
   14.0286   -9.8238   -3.4875 H   0  0  0  1  0  0  0  0  0  0  0  0
   12.7379  -11.0017   -3.4615 H   0  0  0  1  0  0  0  0  0  0  0  0
   12.1085   -9.0080   -3.1159 C   0  0  0  1  0  0  0  0  0  0  0  0
   11.0962   -9.2995   -3.3036 H   0  0  0  1  0  0  0  0  0  0  0  0
   12.2934   -8.0527   -3.5611 H   0  0  0  1  0  0  0  0  0  0  0  0
   12.2818   -8.8693   -1.6389 C   0  0  0  1  0  0  0  0  0  0  0  0
   12.7172   -7.9991   -1.2718 H   0  0  0  1  0  0  0  0  0  0  0  0
   11.9053   -9.8068   -0.7673 C   0  0  0  1  0  0  0  0  0  0  0  0
   11.7894   -9.5040    0.6972 C   0  0  0  1  0  0  0  0  0  0  0  0
   11.6456   -8.4526    0.8343 H   0  0  0  1  0  0  0  0  0  0  0  0
   12.6853   -9.8093    1.1963 H   0  0  0  1  0  0  0  0  0  0  0  0
   10.9546  -10.0341    1.1058 H   0  0  0  1  0  0  0  0  0  0  0  0
   11.5821  -11.2048   -1.2179 C   0  0  0  1  0  0  0  0  0  0  0  0
   12.3194  -11.8627   -0.8074 H   0  0  0  1  0  0  0  0  0  0  0  0
   11.6375  -11.2283   -2.2862 H   0  0  0  1  0  0  0  0  0  0  0  0
   10.2126  -11.7212   -0.8080 C   0  0  0  1  0  0  0  0  0  0  0  0
   10.1158  -11.5962    0.2503 H   0  0  0  1  0  0  0  0  0  0  0  0
   10.1663  -12.7624   -1.0503 H   0  0  0  1  0  0  0  0  0  0  0  0
    9.0500  -11.0434   -1.4609 C   0  0  0  1  0  0  0  0  0  0  0  0
    9.0703  -10.9855   -2.4990 H   0  0  0  1  0  0  0  0  0  0  0  0
    7.9848  -10.5026   -0.8530 C   0  0  0  1  0  0  0  0  0  0  0  0
    7.6419  -10.7831    0.5857 C   0  0  0  1  0  0  0  0  0  0  0  0
    7.6978   -9.8660    1.1341 H   0  0  0  1  0  0  0  0  0  0  0  0
    8.3559  -11.4773    0.9768 H   0  0  0  1  0  0  0  0  0  0  0  0
    7.0962   -9.5790   -1.6378 C   0  0  0  1  0  0  0  0  0  0  0  0
    7.5897   -9.2922   -2.5429 H   0  0  0  1  0  0  0  0  0  0  0  0
    6.8854   -8.7067   -1.0550 H   0  0  0  1  0  0  0  0  0  0  0  0
    6.1810  -10.0804   -1.8742 H   0  0  0  1  0  0  0  0  0  0  0  0
    6.2504  -11.3687    0.7628 C   0  0  0  1  0  0  0  0  0  0  0  0
    6.1456  -11.6672    1.7850 H   0  0  0  1  0  0  0  0  0  0  0  0
    6.1708  -12.2278    0.1299 H   0  0  0  1  0  0  0  0  0  0  0  0
    5.1137  -10.4414    0.4314 C   0  0  0  1  0  0  0  0  0  0  0  0
    5.0742   -9.5305    0.9317 H   0  0  0  1  0  0  0  0  0  0  0  0
    4.1568  -10.6989   -0.4522 C   0  0  0  1  0  0  0  0  0  0  0  0
    4.1992  -11.9306   -1.3143 C   0  0  0  1  0  0  0  0  0  0  0  0
    3.4317  -12.6010   -0.9883 H   0  0  0  1  0  0  0  0  0  0  0  0
    5.1549  -12.3968   -1.1953 H   0  0  0  1  0  0  0  0  0  0  0  0
    2.9657   -9.8146   -0.6787 C   0  0  0  1  0  0  0  0  0  0  0  0
    3.0665   -8.9233   -0.0954 H   0  0  0  1  0  0  0  0  0  0  0  0
    2.0763  -10.3330   -0.3868 H   0  0  0  1  0  0  0  0  0  0  0  0
    2.9050   -9.5571   -1.7155 H   0  0  0  1  0  0  0  0  0  0  0  0
    3.9866  -11.6324   -2.7895 C   0  0  0  1  0  0  0  0  0  0  0  0
    3.4463  -10.7120   -2.8657 H   0  0  0  1  0  0  0  0  0  0  0  0
    3.4013  -12.4257   -3.2056 H   0  0  0  1  0  0  0  0  0  0  0  0
    5.2425  -11.5029   -3.6092 C   0  0  0  1  0  0  0  0  0  0  0  0
    5.8161  -12.3590   -3.7493 H   0  0  0  1  0  0  0  0  0  0  0  0
    5.6747  -10.3716   -4.1693 C   0  0  0  1  0  0  0  0  0  0  0  0
    5.1143   -9.0357   -3.7604 C   0  0  0  1  0  0  0  0  0  0  0  0
    5.3846   -8.8503   -2.7418 H   0  0  0  1  0  0  0  0  0  0  0  0
    4.0483   -9.0730   -3.8458 H   0  0  0  1  0  0  0  0  0  0  0  0
    6.7383  -10.3854   -5.2309 C   0  0  0  1  0  0  0  0  0  0  0  0
    7.6985  -10.5009   -4.7731 H   0  0  0  1  0  0  0  0  0  0  0  0
    6.7112   -9.4643   -5.7747 H   0  0  0  1  0  0  0  0  0  0  0  0
    6.5626  -11.2010   -5.9009 H   0  0  0  1  0  0  0  0  0  0  0  0
    5.6282   -7.8878   -4.6140 C   0  0  0  1  0  0  0  0  0  0  0  0
    5.1171   -7.8935   -5.5540 H   0  0  0  1  0  0  0  0  0  0  0  0
    6.6780   -8.0149   -4.7775 H   0  0  0  1  0  0  0  0  0  0  0  0
    5.3935   -6.5798   -3.9378 C   0  0  0  1  0  0  0  0  0  0  0  0
    5.3184   -6.6241   -2.9014 H   0  0  0  1  0  0  0  0  0  0  0  0
    5.2661   -5.3670   -4.4627 C   0  0  0  1  0  0  0  0  0  0  0  0
    5.0202   -5.1736   -5.9323 C   0  0  0  1  0  0  0  0  0  0  0  0
    4.5620   -4.2177   -6.0780 H   0  0  0  1  0  0  0  0  0  0  0  0
    4.3577   -5.9426   -6.2709 H   0  0  0  1  0  0  0  0  0  0  0  0
    5.3516   -4.0970   -3.6679 C   0  0  0  1  0  0  0  0  0  0  0  0
    5.7497   -4.3090   -2.6976 H   0  0  0  1  0  0  0  0  0  0  0  0
    4.3743   -3.6730   -3.5673 H   0  0  0  1  0  0  0  0  0  0  0  0
    5.9917   -3.4034   -4.1720 H   0  0  0  1  0  0  0  0  0  0  0  0
    6.2927   -5.2315   -6.7616 C   0  0  0  1  0  0  0  0  0  0  0  0
    6.9170   -4.4145   -6.4657 H   0  0  0  1  0  0  0  0  0  0  0  0
    6.0215   -5.1194   -7.7906 H   0  0  0  1  0  0  0  0  0  0  0  0
    7.0878   -6.4915   -6.6287 C   0  0  0  1  0  0  0  0  0  0  0  0
    6.5688   -7.3673   -6.8415 H   0  0  0  1  0  0  0  0  0  0  0  0
    8.3578   -6.6574   -6.2793 C   0  0  0  1  0  0  0  0  0  0  0  0
    9.2609   -5.4828   -6.0380 C   0  0  0  1  0  0  0  0  0  0  0  0
    9.6360   -5.5415   -5.0376 H   0  0  0  1  0  0  0  0  0  0  0  0
    8.6902   -4.5851   -6.1535 H   0  0  0  1  0  0  0  0  0  0  0  0
    9.0083   -7.9994   -6.0935 C   0  0  0  1  0  0  0  0  0  0  0  0
    8.5634   -8.4994   -5.2587 H   0  0  0  1  0  0  0  0  0  0  0  0
   10.0546   -7.8664   -5.9131 H   0  0  0  1  0  0  0  0  0  0  0  0
    8.8701   -8.5878   -6.9765 H   0  0  0  1  0  0  0  0  0  0  0  0
   10.4408   -5.4325   -6.9949 C   0  0  0  1  0  0  0  0  0  0  0  0
   10.0668   -5.3211   -7.9912 H   0  0  0  1  0  0  0  0  0  0  0  0
   10.9818   -6.3524   -6.9172 H   0  0  0  1  0  0  0  0  0  0  0  0
   11.3849   -4.2957   -6.7077 C   0  0  0  1  0  0  0  0  0  0  0  0
   11.7831   -4.2550   -5.7478 H   0  0  0  1  0  0  0  0  0  0  0  0
   11.7661   -3.3345   -7.5510 C   0  0  0  1  0  0  0  0  0  0  0  0
   11.4619   -3.4225   -9.0198 C   0  0  0  1  0  0  0  0  0  0  0  0
   10.9364   -2.5341   -9.3018 H   0  0  0  1  0  0  0  0  0  0  0  0
   10.8333   -4.2742   -9.1762 H   0  0  0  1  0  0  0  0  0  0  0  0
   12.5141   -2.1271   -7.0666 C   0  0  0  1  0  0  0  0  0  0  0  0
   11.8548   -1.2847   -7.0418 H   0  0  0  1  0  0  0  0  0  0  0  0
   13.3287   -1.9227   -7.7297 H   0  0  0  1  0  0  0  0  0  0  0  0
   12.8922   -2.3129   -6.0831 H   0  0  0  1  0  0  0  0  0  0  0  0
   12.6723   -3.5599   -9.9288 C   0  0  0  1  0  0  0  0  0  0  0  0
   13.1999   -4.4514   -9.6611 H   0  0  0  1  0  0  0  0  0  0  0  0
   13.3071   -2.7112   -9.7813 H   0  0  0  1  0  0  0  0  0  0  0  0
   12.3108   -3.6377  -11.3781 C   0  0  0  1  0  0  0  0  0  0  0  0
   11.8518   -4.5155  -11.6949 H   0  0  0  1  0  0  0  0  0  0  0  0
   12.5124   -2.7070  -12.3048 C   0  0  0  1  0  0  0  0  0  0  0  0
   11.9957   -2.8066  -13.7143 C   0  0  0  1  0  0  0  0  0  0  0  0
   11.3397   -1.9786  -13.8846 H   0  0  0  1  0  0  0  0  0  0  0  0
   11.4467   -3.7209  -13.8008 H   0  0  0  1  0  0  0  0  0  0  0  0
   13.2901   -1.4561  -12.0067 C   0  0  0  1  0  0  0  0  0  0  0  0
   14.1936   -1.5390  -12.5740 H   0  0  0  1  0  0  0  0  0  0  0  0
   13.5096   -1.3925  -10.9614 H   0  0  0  1  0  0  0  0  0  0  0  0
   12.7371   -0.5913  -12.3088 H   0  0  0  1  0  0  0  0  0  0  0  0
   13.0589   -2.7936  -14.8005 C   0  0  0  1  0  0  0  0  0  0  0  0
   13.7500   -3.5880  -14.6101 H   0  0  0  1  0  0  0  0  0  0  0  0
   13.5732   -1.8560  -14.7625 H   0  0  0  1  0  0  0  0  0  0  0  0
   12.4952   -2.9720  -16.1744 C   0  0  0  1  0  0  0  0  0  0  0  0
   11.9658   -3.8502  -16.3478 H   0  0  0  1  0  0  0  0  0  0  0  0
   12.5975   -2.1309  -17.1965 C   0  0  0  1  0  0  0  0  0  0  0  0
   13.2666   -0.7957  -17.0448 C   0  0  0  1  0  0  0  0  0  0  0  0
   12.5540   -0.0171  -17.2204 H   0  0  0  1  0  0  0  0  0  0  0  0
   14.0648   -0.7146  -17.7528 H   0  0  0  1  0  0  0  0  0  0  0  0
   13.6579   -0.7038  -16.0532 H   0  0  0  1  0  0  0  0  0  0  0  0
   12.0706   -2.4165  -18.5723 C   0  0  0  1  0  0  0  0  0  0  0  0
   12.6240   -3.2459  -18.9605 H   0  0  0  1  0  0  0  0  0  0  0  0
   12.2052   -1.5608  -19.2005 H   0  0  0  1  0  0  0  0  0  0  0  0
   11.0304   -2.6624  -18.5218 H   0  0  0  1  0  0  0  0  0  0  0  0
   16.2515   -5.0812   -1.8120 C   0  0  0  1  0  0  0  0  0  0  0  0
   16.6060   -5.6017   -0.9469 H   0  0  0  1  0  0  0  0  0  0  0  0
   14.9454   -5.7068   -2.2633 C   0  0  0  1  0  0  0  0  0  0  0  0
   15.1465   -6.6888   -2.6377 H   0  0  0  1  0  0  0  0  0  0  0  0
   16.0854   -3.7145   -1.4903 O   0  0  0  1  0  0  0  0  0  0  0  0
   14.2614   -4.9001   -3.3542 C   0  0  0  1  0  0  0  0  0  0  0  0
   13.2622   -5.2601   -3.4842 H   0  0  0  1  0  0  0  0  0  0  0  0
   15.6097   -2.9359   -2.6033 C   0  0  0  1  0  0  0  0  0  0  0  0
   16.2713   -3.0548   -3.4358 H   0  0  0  1  0  0  0  0  0  0  0  0
   14.2176   -3.4287   -2.9790 C   0  0  0  1  0  0  0  0  0  0  0  0
   13.8562   -2.8629   -3.8122 H   0  0  0  1  0  0  0  0  0  0  0  0
   17.2066   -5.1969   -2.8604 O   0  0  0  1  0  0  0  0  0  0  0  0
   14.0673   -5.7953   -1.1397 O   0  0  0  1  0  0  0  0  0  0  0  0
   13.2445   -6.2109   -1.4080 H   0  0  0  1  0  0  0  0  0  0  0  0
   14.9858   -5.0523   -4.5758 O   0  0  0  1  0  0  0  0  0  0  0  0
   15.8541   -5.4174   -4.3900 H   0  0  0  1  0  0  0  0  0  0  0  0
   15.5459   -1.4783   -2.2146 C   0  0  0  1  0  0  0  0  0  0  0  0
   15.5854   -1.3908   -1.1489 H   0  0  0  1  0  0  0  0  0  0  0  0
   14.6318   -1.0534   -2.5734 H   0  0  0  1  0  0  0  0  0  0  0  0
   16.3753   -0.9578   -2.6459 H   0  0  0  1  0  0  0  0  0  0  0  0
   19.4269   -6.6564   -4.1481 C   0  0  0  1  0  0  0  0  0  0  0  0
   18.4570   -6.7788   -4.5829 H   0  0  0  1  0  0  0  0  0  0  0  0
   19.2770   -6.3993   -2.6513 C   0  0  0  1  0  0  0  0  0  0  0  0
   20.2459   -6.3589   -2.1992 H   0  0  0  1  0  0  0  0  0  0  0  0
   20.0874   -5.5661   -4.7781 O   0  0  0  1  0  0  0  0  0  0  0  0
   18.5558   -5.0726   -2.4237 C   0  0  0  1  0  0  0  0  0  0  0  0
   18.5732   -4.8409   -1.3792 H   0  0  0  1  0  0  0  0  0  0  0  0
   19.3710   -4.3265   -4.6650 C   0  0  0  1  0  0  0  0  0  0  0  0
   19.9101   -3.5567   -5.1764 H   0  0  0  1  0  0  0  0  0  0  0  0
   19.2213   -3.9479   -3.1901 C   0  0  0  1  0  0  0  0  0  0  0  0
   18.6224   -3.0647   -3.1115 H   0  0  0  1  0  0  0  0  0  0  0  0
   18.5055   -7.4775   -2.0511 N   0  0  0  1  0  0  0  0  0  0  0  0
   17.5467   -7.5378   -2.2451 H   0  0  0  1  0  0  0  0  0  0  0  0
   20.5147   -3.6987   -2.6335 O   0  0  0  1  0  0  0  0  0  0  0  0
   20.7418   -2.7958   -2.8677 H   0  0  0  1  0  0  0  0  0  0  0  0
   18.0100   -4.4794   -5.2810 C   0  0  0  1  0  0  0  0  0  0  0  0
   17.4806   -5.2648   -4.7834 H   0  0  0  1  0  0  0  0  0  0  0  0
   18.1142   -4.7202   -6.3183 H   0  0  0  1  0  0  0  0  0  0  0  0
   17.2860   -3.2645   -5.1488 O   0  0  0  1  0  0  0  0  0  0  0  0
   16.6913   -3.1864   -5.8983 H   0  0  0  1  0  0  0  0  0  0  0  0
   19.0587   -8.3879   -1.2449 C   0  0  0  1  0  0  0  0  0  0  0  0
   20.2658   -8.4302   -1.0109 O   0  0  0  1  0  0  0  0  0  0  0  0
   18.1010   -9.3849   -0.6219 C   0  0  0  1  0  0  0  0  0  0  0  0
   17.1466   -9.1302   -1.0332 H   0  0  0  1  0  0  0  0  0  0  0  0
   18.0924   -9.2866    0.4435 H   0  0  0  1  0  0  0  0  0  0  0  0
   18.3720  -10.3858   -0.8860 H   0  0  0  1  0  0  0  0  0  0  0  0
  1  2  1  0  0  0  0
  1  3  1  0  0  0  0
  1  4  1  0  0  0  0
  1 44  1  0  0  0  0
  3 20  1  0  0  0  0
  4  5  1  0  0  0  0
  4  6  1  0  0  0  0
  4  8  1  0  0  0  0
  6  7  1  0  0  0  0
  8  9  1  0  0  0  0
  8 10  1  0  0  0  0
  8 20  1  0  0  0  0
 10 11  1  0  0  0  0
 12 13  1  0  0  0  0
 12 14  1  0  0  0  0
 12 15  1  0  0  0  0
 12 17  1  0  0  0  0
 15 16  1  0  0  0  0
 17 18  1  0  0  0  0
 17 19  1  0  0  0  0
 17 20  1  0  0  0  0
 19 22  1  0  0  0  0
 20 21  1  0  0  0  0
 22 23  1  0  0  0  0
 22 24  1  0  0  0  0
 22 25  1  0  0  0  0
 24 42  1  0  0  0  0
 25 26  1  0  0  0  0
 25 27  1  0  0  0  0
 25 29  1  0  0  0  0
 27 28  1  0  0  0  0
 29 30  1  0  0  0  0
 29 31  1  0  0  0  0
 29 42  1  0  0  0  0
 31 32  1  0  0  0  0
 33 34  1  0  0  0  0
 33 35  1  0  0  0  0
 33 36  1  0  0  0  0
 33 38  1  0  0  0  0
 36 37  1  0  0  0  0
 38 39  1  0  0  0  0
 38 40  1  0  0  0  0
 38 42  1  0  0  0  0
 40 41  1  0  0  0  0
 42 43  1  0  0  0  0
 44194  1  0  0  0  0
 45 46  1  0  0  0  0
 45 54  1  0  0  0  0
 46 47  1  0  0  0  0
 46 48  1  0  0  0  0
 46 49  2  0  0  0  0
 47 50  1  0  0  0  0
 50 51  1  0  0  0  0
 50 52  1  0  0  0  0
 50 53  2  0  0  0  0
 51205  1  0  0  0  0
 54 55  1  0  0  0  0
 54 56  1  0  0  0  0
 54 57  1  0  0  0  0
 57 58  1  0  0  0  0
 57 59  2  0  0  0  0
 59 60  1  0  0  0  0
 59 64  1  0  0  0  0
 60 61  1  0  0  0  0
 60 62  1  0  0  0  0
 60 63  1  0  0  0  0
 64 65  1  0  0  0  0
 64 66  1  0  0  0  0
 64 67  1  0  0  0  0
 67 68  1  0  0  0  0
 67 69  1  0  0  0  0
 67 70  1  0  0  0  0
 70 71  1  0  0  0  0
 70 72  2  0  0  0  0
 72 73  1  0  0  0  0
 72 77  1  0  0  0  0
 73 74  1  0  0  0  0
 73 75  1  0  0  0  0
 73 76  1  0  0  0  0
 77 78  1  0  0  0  0
 77 79  1  0  0  0  0
 77 80  1  0  0  0  0
 80 81  1  0  0  0  0
 80 82  1  0  0  0  0
 80 83  1  0  0  0  0
 83 84  1  0  0  0  0
 83 85  2  0  0  0  0
 85 86  1  0  0  0  0
 85 89  1  0  0  0  0
 86 87  1  0  0  0  0
 86 88  1  0  0  0  0
 86 93  1  0  0  0  0
 89 90  1  0  0  0  0
 89 91  1  0  0  0  0
 89 92  1  0  0  0  0
 93 94  1  0  0  0  0
 93 95  1  0  0  0  0
 93 96  1  0  0  0  0
 96 97  1  0  0  0  0
 96 98  2  0  0  0  0
 98 99  1  0  0  0  0
 98102  1  0  0  0  0
 99100  1  0  0  0  0
 99101  1  0  0  0  0
 99106  1  0  0  0  0
102103  1  0  0  0  0
102104  1  0  0  0  0
102105  1  0  0  0  0
106107  1  0  0  0  0
106108  1  0  0  0  0
106109  1  0  0  0  0
109110  1  0  0  0  0
109111  2  0  0  0  0
111112  1  0  0  0  0
111115  1  0  0  0  0
112113  1  0  0  0  0
112114  1  0  0  0  0
112119  1  0  0  0  0
115116  1  0  0  0  0
115117  1  0  0  0  0
115118  1  0  0  0  0
119120  1  0  0  0  0
119121  1  0  0  0  0
119122  1  0  0  0  0
122123  1  0  0  0  0
122124  2  0  0  0  0
124125  1  0  0  0  0
124128  1  0  0  0  0
125126  1  0  0  0  0
125127  1  0  0  0  0
125132  1  0  0  0  0
128129  1  0  0  0  0
128130  1  0  0  0  0
128131  1  0  0  0  0
132133  1  0  0  0  0
132134  1  0  0  0  0
132135  1  0  0  0  0
135136  1  0  0  0  0
135137  2  0  0  0  0
137138  1  0  0  0  0
137141  1  0  0  0  0
138139  1  0  0  0  0
138140  1  0  0  0  0
138145  1  0  0  0  0
141142  1  0  0  0  0
141143  1  0  0  0  0
141144  1  0  0  0  0
145146  1  0  0  0  0
145147  1  0  0  0  0
145148  1  0  0  0  0
148149  1  0  0  0  0
148150  2  0  0  0  0
150151  1  0  0  0  0
150154  1  0  0  0  0
151152  1  0  0  0  0
151153  1  0  0  0  0
151158  1  0  0  0  0
154155  1  0  0  0  0
154156  1  0  0  0  0
154157  1  0  0  0  0
158159  1  0  0  0  0
158160  1  0  0  0  0
158161  1  0  0  0  0
161162  1  0  0  0  0
161163  2  0  0  0  0
163164  1  0  0  0  0
163167  1  0  0  0  0
164165  1  0  0  0  0
164166  1  0  0  0  0
164171  1  0  0  0  0
167168  1  0  0  0  0
167169  1  0  0  0  0
167170  1  0  0  0  0
171172  1  0  0  0  0
171173  1  0  0  0  0
171174  1  0  0  0  0
174175  1  0  0  0  0
174176  2  0  0  0  0
176177  1  0  0  0  0
176181  1  0  0  0  0
177178  1  0  0  0  0
177179  1  0  0  0  0
177180  1  0  0  0  0
181182  1  0  0  0  0
181183  1  0  0  0  0
181184  1  0  0  0  0
185186  1  0  0  0  0
185187  1  0  0  0  0
185189  1  0  0  0  0
185196  1  0  0  0  0
187188  1  0  0  0  0
187190  1  0  0  0  0
187197  1  0  0  0  0
189192  1  0  0  0  0
190191  1  0  0  0  0
190194  1  0  0  0  0
190199  1  0  0  0  0
192193  1  0  0  0  0
192194  1  0  0  0  0
192201  1  0  0  0  0
194195  1  0  0  0  0
196210  1  0  0  0  0
197198  1  0  0  0  0
199200  1  0  0  0  0
201202  1  0  0  0  0
201203  1  0  0  0  0
201204  1  0  0  0  0
205206  1  0  0  0  0
205207  1  0  0  0  0
205209  1  0  0  0  0
207208  1  0  0  0  0
207210  1  0  0  0  0
207216  1  0  0  0  0
209212  1  0  0  0  0
210211  1  0  0  0  0
210214  1  0  0  0  0
212213  1  0  0  0  0
212214  1  0  0  0  0
212220  1  0  0  0  0
214215  1  0  0  0  0
214218  1  0  0  0  0
216217  1  0  0  0  0
216225  1  0  0  0  0
218219  1  0  0  0  0
220221  1  0  0  0  0
220222  1  0  0  0  0
220223  1  0  0  0  0
223224  1  0  0  0  0
225226  2  0  0  0  0
225227  1  0  0  0  0
227228  1  0  0  0  0
227229  1  0  0  0  0
227230  1  0  0  0  0
M  BCL ATM C_TeTeTeTe H_S O_Te2Te2TeTe C_TeTeTeTe H_S O_Te2Te2TeTe H_S C_TeTeTeTe H_S O_Te2Te2TeTe H_S C_TeTeTeTe H_S H_S O_Te2Te2TeTe H_S C_TeTeTeTe H_S O_Te2Te2TeTe C_TeTeTeTe H_S C_TeTeTeTe H_S O_Te2Te2TeTe C_TeTeTeTe H_S O_Te2Te2TeTe H_S C_TeTeTeTe H_S O_Te2Te2TeTe H_S C_TeTeTeTe H_S H_S O_Te2Te2TeTe H_S C_TeTeTeTe H_S O_Te2Te2TeTe H_S C_TeTeTeTe H_S O_Te2Te2TeTe O_Tr2TrTrPi2 P_TeTeTeTePi O_Tr2TrTrPi2 O_Te2Te2TeTe O_Tr2Tr2TrPi P_TeTeTeTePi O_Tr2TrTrPi2 O_Te2Te2TeTe O_Tr2Tr2TrPi C_TeTeTeTe H_S H_S C_TrTrTrPi H_S C_TrTrTrPi C_TeTeTeTe H_S H_S H_S C_TeTeTeTe H_S H_S C_TeTeTeTe H_S H_S C_TrTrTrPi H_S C_TrTrTrPi C_TeTeTeTe H_S H_S H_S C_TeTeTeTe H_S H_S C_TeTeTeTe H_S H_S C_TrTrTrPi H_S C_TrTrTrPi C_TeTeTeTe H_S H_S C_TeTeTeTe H_S H_S H_S C_TeTeTeTe H_S H_S C_TrTrTrPi H_S C_TrTrTrPi C_TeTeTeTe H_S H_S C_TeTeTeTe H_S H_S H_S C_TeTeTeTe H_S H_S C_TrTrTrPi H_S C_TrTrTrPi C_TeTeTeTe H_S H_S C_TeTeTeTe H_S H_S H_S C_TeTeTeTe H_S H_S C_TrTrTrPi H_S C_TrTrTrPi C_TeTeTeTe H_S H_S C_TeTeTeTe H_S H_S H_S C_TeTeTeTe H_S H_S C_TrTrTrPi H_S C_TrTrTrPi C_TeTeTeTe H_S H_S C_TeTeTeTe H_S H_S H_S C_TeTeTeTe H_S H_S C_TrTrTrPi H_S C_TrTrTrPi C_TeTeTeTe H_S H_S C_TeTeTeTe H_S H_S H_S C_TeTeTeTe H_S H_S C_TrTrTrPi H_S C_TrTrTrPi C_TeTeTeTe H_S H_S C_TeTeTeTe H_S H_S H_S C_TeTeTeTe H_S H_S C_TrTrTrPi H_S C_TrTrTrPi C_TeTeTeTe H_S H_S H_S C_TeTeTeTe H_S H_S H_S C_TeTeTeTe H_S C_TeTeTeTe H_S O_Te2Te2TeTe C_TeTeTeTe H_S C_TeTeTeTe H_S C_TeTeTeTe H_S O_Te2Te2TeTe O_Te2Te2TeTe H_S O_Te2Te2TeTe H_S C_TeTeTeTe H_S H_S H_S C_TeTeTeTe H_S C_TeTeTeTe H_S O_Te2Te2TeTe C_TeTeTeTe H_S C_TeTeTeTe H_S C_TeTeTeTe H_S N_TrTrTrPi2 H_S O_Te2Te2TeTe H_S C_TeTeTeTe H_S H_S O_Te2Te2TeTe H_S C_TrTrTrPi O_Tr2Tr2TrPi C_TeTeTeTe H_S H_S H_S
M  BCL BND NonConjugatedSingleBond NonConjugatedSingleBondInRing NonConjugatedSingleBondInRing NonConjugatedSingleBond NonConjugatedSingleBondInRing NonConjugatedSingleBond NonConjugatedSingleBond NonConjugatedSingleBondInRing NonConjugatedSingleBond NonConjugatedSingleBond NonConjugatedSingleBond NonConjugatedSingleBondInRing NonConjugatedSingleBond NonConjugatedSingleBond NonConjugatedSingleBond NonConjugatedSingleBond NonConjugatedSingleBond NonConjugatedSingleBond NonConjugatedSingleBond NonConjugatedSingleBond NonConjugatedSingleBond NonConjugatedSingleBond NonConjugatedSingleBond NonConjugatedSingleBond NonConjugatedSingleBondInRing NonConjugatedSingleBondInRing NonConjugatedSingleBondInRing NonConjugatedSingleBond NonConjugatedSingleBond NonConjugatedSingleBondInRing NonConjugatedSingleBond NonConjugatedSingleBond NonConjugatedSingleBond NonConjugatedSingleBondInRing NonConjugatedSingleBond NonConjugatedSingleBond NonConjugatedSingleBond NonConjugatedSingleBond NonConjugatedSingleBond NonConjugatedSingleBond NonConjugatedSingleBond NonConjugatedSingleBond NonConjugatedSingleBond NonConjugatedSingleBond NonConjugatedSingleBond NonConjugatedSingleBond ConjugatedSingleBond NonConjugatedSingleBond ConjugatedSingleBond ConjugatedSingleBond ConjugatedDoubleBond ConjugatedSingleBond ConjugatedSingleBond ConjugatedSingleBond ConjugatedDoubleBond NonConjugatedSingleBond NonConjugatedSingleBond NonConjugatedSingleBond NonConjugatedSingleBond NonConjugatedSingleBond ConjugatedDoubleBond NonConjugatedSingleBond NonConjugatedSingleBond NonConjugatedSingleBond NonConjugatedSingleBond NonConjugatedSingleBond NonConjugatedSingleBond NonConjugatedSingleBond NonConjugatedSingleBond NonConjugatedSingleBond NonConjugatedSingleBond NonConjugatedSingleBond NonConjugatedSingleBond ConjugatedDoubleBond NonConjugatedSingleBond NonConjugatedSingleBond NonConjugatedSingleBond NonConjugatedSingleBond NonConjugatedSingleBond NonConjugatedSingleBond NonConjugatedSingleBond NonConjugatedSingleBond NonConjugatedSingleBond NonConjugatedSingleBond NonConjugatedSingleBond NonConjugatedSingleBond ConjugatedDoubleBond NonConjugatedSingleBond NonConjugatedSingleBond NonConjugatedSingleBond NonConjugatedSingleBond NonConjugatedSingleBond NonConjugatedSingleBond NonConjugatedSingleBond NonConjugatedSingleBond NonConjugatedSingleBond NonConjugatedSingleBond NonConjugatedSingleBond NonConjugatedSingleBond ConjugatedDoubleBond NonConjugatedSingleBond NonConjugatedSingleBond NonConjugatedSingleBond NonConjugatedSingleBond NonConjugatedSingleBond NonConjugatedSingleBond NonConjugatedSingleBond NonConjugatedSingleBond NonConjugatedSingleBond NonConjugatedSingleBond NonConjugatedSingleBond NonConjugatedSingleBond ConjugatedDoubleBond NonConjugatedSingleBond NonConjugatedSingleBond NonConjugatedSingleBond NonConjugatedSingleBond NonConjugatedSingleBond NonConjugatedSingleBond NonConjugatedSingleBond NonConjugatedSingleBond NonConjugatedSingleBond NonConjugatedSingleBond NonConjugatedSingleBond NonConjugatedSingleBond ConjugatedDoubleBond NonConjugatedSingleBond NonConjugatedSingleBond NonConjugatedSingleBond NonConjugatedSingleBond NonConjugatedSingleBond NonConjugatedSingleBond NonConjugatedSingleBond NonConjugatedSingleBond NonConjugatedSingleBond NonConjugatedSingleBond NonConjugatedSingleBond NonConjugatedSingleBond ConjugatedDoubleBond NonConjugatedSingleBond NonConjugatedSingleBond NonConjugatedSingleBond NonConjugatedSingleBond NonConjugatedSingleBond NonConjugatedSingleBond NonConjugatedSingleBond NonConjugatedSingleBond NonConjugatedSingleBond NonConjugatedSingleBond NonConjugatedSingleBond NonConjugatedSingleBond ConjugatedDoubleBond NonConjugatedSingleBond NonConjugatedSingleBond NonConjugatedSingleBond NonConjugatedSingleBond NonConjugatedSingleBond NonConjugatedSingleBond NonConjugatedSingleBond NonConjugatedSingleBond NonConjugatedSingleBond NonConjugatedSingleBond NonConjugatedSingleBond NonConjugatedSingleBond ConjugatedDoubleBond NonConjugatedSingleBond NonConjugatedSingleBond NonConjugatedSingleBond NonConjugatedSingleBond NonConjugatedSingleBond NonConjugatedSingleBond NonConjugatedSingleBond NonConjugatedSingleBond NonConjugatedSingleBond NonConjugatedSingleBond NonConjugatedSingleBond NonConjugatedSingleBond ConjugatedDoubleBond NonConjugatedSingleBond NonConjugatedSingleBond NonConjugatedSingleBond NonConjugatedSingleBond NonConjugatedSingleBond NonConjugatedSingleBond NonConjugatedSingleBond NonConjugatedSingleBond NonConjugatedSingleBond NonConjugatedSingleBondInRing NonConjugatedSingleBondInRing NonConjugatedSingleBond NonConjugatedSingleBond NonConjugatedSingleBondInRing NonConjugatedSingleBond NonConjugatedSingleBondInRing NonConjugatedSingleBond NonConjugatedSingleBondInRing NonConjugatedSingleBond NonConjugatedSingleBond NonConjugatedSingleBondInRing NonConjugatedSingleBond NonConjugatedSingleBond NonConjugatedSingleBond NonConjugatedSingleBond NonConjugatedSingleBond NonConjugatedSingleBond NonConjugatedSingleBond NonConjugatedSingleBond NonConjugatedSingleBond NonConjugatedSingleBondInRing NonConjugatedSingleBondInRing NonConjugatedSingleBond NonConjugatedSingleBondInRing NonConjugatedSingleBond NonConjugatedSingleBondInRing NonConjugatedSingleBond NonConjugatedSingleBondInRing NonConjugatedSingleBond NonConjugatedSingleBondInRing NonConjugatedSingleBond NonConjugatedSingleBond NonConjugatedSingleBond NonConjugatedSingleBond AmideSingleBond NonConjugatedSingleBond NonConjugatedSingleBond NonConjugatedSingleBond NonConjugatedSingleBond NonConjugatedSingleBond ConjugatedDoubleBond NonConjugatedSingleBond NonConjugatedSingleBond NonConjugatedSingleBond NonConjugatedSingleBond
M  BCL CHI   1   R   4   R   8   R  17   S  20   R  22   S  25   R  29   S  38   S  42   R  46   R  50   S 185   R 187   S 190   S 192   R 194   R 205   R 207   S 210   R 212   S 214   S
M  BCL DBI - - E E E E E E E E Z - -
M  END
> <ConfClashScore>
0.00404801 

> <ConfOneFourInteractionScore>
-0.968767 

> <ConfScore>
0.555898 

> <ConfScorePBest>
0.0116995 

> <ConfTolerance>
4.28864 

$$$$
L05.****
  PyMOL2.5          3D                             0

230233  0  0  0  0  0  0  0  0999 V2000
   12.0206   -2.9702   -2.6536 C   0  0  0  1  0  0  0  0  0  0  0  0
   12.1501   -2.5588   -3.6328 H   0  0  0  1  0  0  0  0  0  0  0  0
   11.3095   -2.0329   -1.7889 O   0  0  0  1  0  0  0  0  0  0  0  0
   11.1268   -4.1883   -2.6985 C   0  0  0  1  0  0  0  0  0  0  0  0
   11.3310   -4.8428   -1.8771 H   0  0  0  1  0  0  0  0  0  0  0  0
   11.2932   -4.8983   -3.9268 O   0  0  0  1  0  0  0  0  0  0  0  0
   11.2148   -4.2875   -4.6632 H   0  0  0  1  0  0  0  0  0  0  0  0
    9.7136   -3.5998   -2.5926 C   0  0  0  1  0  0  0  0  0  0  0  0
    9.3178   -3.3706   -3.5599 H   0  0  0  1  0  0  0  0  0  0  0  0
    8.8315   -4.4974   -1.9168 O   0  0  0  1  0  0  0  0  0  0  0  0
    8.1977   -3.9951   -1.3995 H   0  0  0  1  0  0  0  0  0  0  0  0
    9.5419    0.1494   -1.7269 C   0  0  0  1  0  0  0  0  0  0  0  0
   10.5756    0.3538   -1.9126 H   0  0  0  1  0  0  0  0  0  0  0  0
    8.9430    0.9358   -2.1366 H   0  0  0  1  0  0  0  0  0  0  0  0
    9.3207    0.0687   -0.3250 O   0  0  0  1  0  0  0  0  0  0  0  0
   10.1421    0.2449    0.1397 H   0  0  0  1  0  0  0  0  0  0  0  0
    9.1616   -1.1695   -2.3822 C   0  0  0  1  0  0  0  0  0  0  0  0
    9.4045   -1.1123   -3.4227 H   0  0  0  1  0  0  0  0  0  0  0  0
    7.7641   -1.3873   -2.2263 O   0  0  0  1  0  0  0  0  0  0  0  0
    9.9399   -2.3215   -1.7698 C   0  0  0  1  0  0  0  0  0  0  0  0
    9.6154   -2.4761   -0.7620 H   0  0  0  1  0  0  0  0  0  0  0  0
    7.3488   -1.9282   -0.9922 C   0  0  0  1  0  0  0  0  0  0  0  0
    8.0962   -2.6017   -0.6278 H   0  0  0  1  0  0  0  0  0  0  0  0
    7.1454   -0.8982   -0.0663 O   0  0  0  1  0  0  0  0  0  0  0  0
    6.0171   -2.6742   -1.1713 C   0  0  0  1  0  0  0  0  0  0  0  0
    6.0186   -3.6001   -0.6350 H   0  0  0  1  0  0  0  0  0  0  0  0
    5.7482   -2.9233   -2.5518 O   0  0  0  1  0  0  0  0  0  0  0  0
    6.1792   -2.2538   -3.0881 H   0  0  0  1  0  0  0  0  0  0  0  0
    4.9975   -1.6930   -0.5776 C   0  0  0  1  0  0  0  0  0  0  0  0
    4.1739   -2.2164   -0.1386 H   0  0  0  1  0  0  0  0  0  0  0  0
    4.5145   -0.7961   -1.5736 O   0  0  0  1  0  0  0  0  0  0  0  0
    5.2571   -0.3797   -2.0171 H   0  0  0  1  0  0  0  0  0  0  0  0
    4.3600   -2.0539    2.3022 C   0  0  0  1  0  0  0  0  0  0  0  0
    3.8694   -2.6452    1.5574 H   0  0  0  1  0  0  0  0  0  0  0  0
    4.4647   -2.6258    3.2004 H   0  0  0  1  0  0  0  0  0  0  0  0
    3.5400   -0.9294    2.5860 O   0  0  0  1  0  0  0  0  0  0  0  0
    3.6539   -0.6734    3.5042 H   0  0  0  1  0  0  0  0  0  0  0  0
    5.7695   -1.7055    1.7874 C   0  0  0  1  0  0  0  0  0  0  0  0
    6.2709   -2.6348    1.6146 H   0  0  0  1  0  0  0  0  0  0  0  0
    6.5518   -0.9474    2.7124 O   0  0  0  1  0  0  0  0  0  0  0  0
    7.1635   -0.3862    2.2302 H   0  0  0  1  0  0  0  0  0  0  0  0
    5.7908   -0.9540    0.4756 C   0  0  0  1  0  0  0  0  0  0  0  0
    5.4004    0.0314    0.6221 H   0  0  0  1  0  0  0  0  0  0  0  0
   13.2916   -3.2977   -2.1041 O   0  0  0  1  0  0  0  0  0  0  0  0
   18.8592   -9.8919    0.6801 O   0  0  0  1  0  0  0  0  0  0  0  0
   19.9845  -10.1016   -0.4795 P   0  0  0  1  0  0  0  0  0  0  0  0
   20.5422   -8.5956   -0.5432 O   0  0  0  1  0  0  0  0  0  0  0  0
   19.3087  -10.4732   -1.7490 O   0  0  0  0  0  0  0  0  0  0  0  0
   21.0698  -10.9467    0.0633 O   0  0  0  1  0  0  0  0  0  0  0  0
   21.4783   -7.8524   -1.5645 P   0  0  0  1  0  0  0  0  0  0  0  0
   21.0474   -6.3406   -1.5703 O   0  0  0  1  0  0  0  0  0  0  0  0
   21.1873   -8.4560   -2.9017 O   0  0  0  0  0  0  0  0  0  0  0  0
   22.8915   -7.8945   -1.1454 O   0  0  0  1  0  0  0  0  0  0  0  0
   17.4778   -9.6206    0.3944 C   0  0  0  1  0  0  0  0  0  0  0  0
   16.8550  -10.2415    1.0039 H   0  0  0  1  0  0  0  0  0  0  0  0
   17.2777   -9.8178   -0.6380 H   0  0  0  1  0  0  0  0  0  0  0  0
   17.2015   -8.1754    0.6962 C   0  0  0  1  0  0  0  0  0  0  0  0
   17.4727   -7.4735   -0.0217 H   0  0  0  1  0  0  0  0  0  0  0  0
   16.6313   -7.7229    1.8217 C   0  0  0  1  0  0  0  0  0  0  0  0
   16.0891   -6.3499    1.9464 C   0  0  0  1  0  0  0  0  0  0  0  0
   16.3663   -5.7769    1.0863 H   0  0  0  1  0  0  0  0  0  0  0  0
   16.4871   -5.8880    2.8258 H   0  0  0  1  0  0  0  0  0  0  0  0
   15.0224   -6.3930    2.0173 H   0  0  0  1  0  0  0  0  0  0  0  0
   16.5376   -8.6440    3.0054 C   0  0  0  1  0  0  0  0  0  0  0  0
   15.8088   -9.3950    2.7824 H   0  0  0  1  0  0  0  0  0  0  0  0
   16.2115   -8.0685    3.8465 H   0  0  0  1  0  0  0  0  0  0  0  0
   17.8305   -9.3448    3.3897 C   0  0  0  1  0  0  0  0  0  0  0  0
   18.5444   -8.6044    3.6849 H   0  0  0  1  0  0  0  0  0  0  0  0
   18.1977   -9.8745    2.5356 H   0  0  0  1  0  0  0  0  0  0  0  0
   17.6591  -10.3143    4.5128 C   0  0  0  1  0  0  0  0  0  0  0  0
   16.7887  -10.2651    5.0799 H   0  0  0  1  0  0  0  0  0  0  0  0
   18.5639  -11.2366    4.8231 C   0  0  0  1  0  0  0  0  0  0  0  0
   18.5691  -11.9956    6.1182 C   0  0  0  1  0  0  0  0  0  0  0  0
   18.6739  -13.0416    5.9188 H   0  0  0  1  0  0  0  0  0  0  0  0
   17.6494  -11.8220    6.6368 H   0  0  0  1  0  0  0  0  0  0  0  0
   19.3878  -11.6642    6.7222 H   0  0  0  1  0  0  0  0  0  0  0  0
   19.6736  -11.5963    3.8798 C   0  0  0  1  0  0  0  0  0  0  0  0
   19.3457  -11.4052    2.8794 H   0  0  0  1  0  0  0  0  0  0  0  0
   19.8913  -12.6380    3.9915 H   0  0  0  1  0  0  0  0  0  0  0  0
   20.9477  -10.8062    4.1305 C   0  0  0  1  0  0  0  0  0  0  0  0
   21.2502  -10.9419    5.1478 H   0  0  0  1  0  0  0  0  0  0  0  0
   20.7586   -9.7688    3.9494 H   0  0  0  1  0  0  0  0  0  0  0  0
   22.0456  -11.2696    3.2265 C   0  0  0  1  0  0  0  0  0  0  0  0
   22.3014  -12.2759    3.2859 H   0  0  0  1  0  0  0  0  0  0  0  0
   22.7290  -10.5356    2.3565 C   0  0  0  1  0  0  0  0  0  0  0  0
   22.6946   -9.0328    2.4038 C   0  0  0  1  0  0  0  0  0  0  0  0
   22.9575   -8.7171    3.3918 H   0  0  0  1  0  0  0  0  0  0  0  0
   21.7007   -8.7076    2.1775 H   0  0  0  1  0  0  0  0  0  0  0  0
   23.5838  -11.1101    1.2649 C   0  0  0  1  0  0  0  0  0  0  0  0
   23.2711  -12.1118    1.0562 H   0  0  0  1  0  0  0  0  0  0  0  0
   24.6069  -11.1140    1.5781 H   0  0  0  1  0  0  0  0  0  0  0  0
   23.4828  -10.5139    0.3821 H   0  0  0  1  0  0  0  0  0  0  0  0
   23.6522   -8.3839    1.4178 C   0  0  0  1  0  0  0  0  0  0  0  0
   23.4446   -7.3349    1.3814 H   0  0  0  1  0  0  0  0  0  0  0  0
   23.4894   -8.8140    0.4516 H   0  0  0  1  0  0  0  0  0  0  0  0
   25.0987   -8.5734    1.7889 C   0  0  0  1  0  0  0  0  0  0  0  0
   25.2891   -9.1513    2.6324 H   0  0  0  1  0  0  0  0  0  0  0  0
   26.1632   -8.0803    1.1531 C   0  0  0  1  0  0  0  0  0  0  0  0
   26.0101   -7.2299   -0.0795 C   0  0  0  1  0  0  0  0  0  0  0  0
   26.6201   -6.3578    0.0304 H   0  0  0  1  0  0  0  0  0  0  0  0
   24.9840   -6.9393   -0.1675 H   0  0  0  1  0  0  0  0  0  0  0  0
   27.5557   -8.3536    1.6412 C   0  0  0  1  0  0  0  0  0  0  0  0
   27.5896   -8.2426    2.7049 H   0  0  0  1  0  0  0  0  0  0  0  0
   28.2343   -7.6609    1.1888 H   0  0  0  1  0  0  0  0  0  0  0  0
   27.8362   -9.3520    1.3779 H   0  0  0  1  0  0  0  0  0  0  0  0
   26.4200   -7.9496   -1.3541 C   0  0  0  1  0  0  0  0  0  0  0  0
   26.0378   -8.9484   -1.3192 H   0  0  0  1  0  0  0  0  0  0  0  0
   27.4886   -7.9775   -1.4007 H   0  0  0  1  0  0  0  0  0  0  0  0
   25.9033   -7.2821   -2.6004 C   0  0  0  1  0  0  0  0  0  0  0  0
   26.1477   -6.2819   -2.7473 H   0  0  0  1  0  0  0  0  0  0  0  0
   25.1581   -7.8754   -3.5268 C   0  0  0  1  0  0  0  0  0  0  0  0
   24.7253   -9.3109   -3.4540 C   0  0  0  1  0  0  0  0  0  0  0  0
   23.6599   -9.3504   -3.5451 H   0  0  0  1  0  0  0  0  0  0  0  0
   25.0175   -9.7069   -2.5039 H   0  0  0  1  0  0  0  0  0  0  0  0
   24.6819   -7.1358   -4.7453 C   0  0  0  1  0  0  0  0  0  0  0  0
   25.3560   -7.3133   -5.5571 H   0  0  0  1  0  0  0  0  0  0  0  0
   24.6461   -6.0873   -4.5346 H   0  0  0  1  0  0  0  0  0  0  0  0
   23.7045   -7.4801   -5.0119 H   0  0  0  1  0  0  0  0  0  0  0  0
   25.3366  -10.1732   -4.5463 C   0  0  0  1  0  0  0  0  0  0  0  0
   26.3952  -10.0179   -4.5358 H   0  0  0  1  0  0  0  0  0  0  0  0
   24.9374   -9.8493   -5.4847 H   0  0  0  1  0  0  0  0  0  0  0  0
   25.0831  -11.6502   -4.4192 C   0  0  0  1  0  0  0  0  0  0  0  0
   25.5663  -12.1380   -3.6381 H   0  0  0  1  0  0  0  0  0  0  0  0
   24.3128  -12.3955   -5.1925 C   0  0  0  1  0  0  0  0  0  0  0  0
   23.8390  -11.8850   -6.5239 C   0  0  0  1  0  0  0  0  0  0  0  0
   24.4816  -12.2605   -7.2925 H   0  0  0  1  0  0  0  0  0  0  0  0
   23.8721  -10.8155   -6.5215 H   0  0  0  1  0  0  0  0  0  0  0  0
   23.7750  -13.7395   -4.7890 C   0  0  0  1  0  0  0  0  0  0  0  0
   24.5859  -14.4271   -4.6682 H   0  0  0  1  0  0  0  0  0  0  0  0
   23.1117  -14.1003   -5.5472 H   0  0  0  1  0  0  0  0  0  0  0  0
   23.2444  -13.6481   -3.8643 H   0  0  0  1  0  0  0  0  0  0  0  0
   22.4147  -12.3388   -6.7992 C   0  0  0  1  0  0  0  0  0  0  0  0
   21.7838  -12.0215   -5.9953 H   0  0  0  1  0  0  0  0  0  0  0  0
   22.3940  -13.4063   -6.8695 H   0  0  0  1  0  0  0  0  0  0  0  0
   21.9103  -11.7540   -8.0776 C   0  0  0  1  0  0  0  0  0  0  0  0
   21.9233  -10.7199   -8.1872 H   0  0  0  1  0  0  0  0  0  0  0  0
   21.4437  -12.4933   -9.0865 C   0  0  0  1  0  0  0  0  0  0  0  0
   21.5286  -13.9960   -9.0577 C   0  0  0  1  0  0  0  0  0  0  0  0
   22.2535  -14.2821   -8.3245 H   0  0  0  1  0  0  0  0  0  0  0  0
   21.8418  -14.3379  -10.0220 H   0  0  0  1  0  0  0  0  0  0  0  0
   20.7237  -11.8355  -10.2470 C   0  0  0  1  0  0  0  0  0  0  0  0
   20.4032  -10.8560   -9.9594 H   0  0  0  1  0  0  0  0  0  0  0  0
   19.8720  -12.4240  -10.5177 H   0  0  0  1  0  0  0  0  0  0  0  0
   21.3876  -11.7622  -11.0829 H   0  0  0  1  0  0  0  0  0  0  0  0
   20.2054  -14.6607   -8.7149 C   0  0  0  1  0  0  0  0  0  0  0  0
   20.3617  -15.7191   -8.7000 H   0  0  0  1  0  0  0  0  0  0  0  0
   19.5032  -14.4142   -9.4837 H   0  0  0  1  0  0  0  0  0  0  0  0
   19.6065  -14.2616   -7.3943 C   0  0  0  1  0  0  0  0  0  0  0  0
   20.2274  -14.2767   -6.5601 H   0  0  0  1  0  0  0  0  0  0  0  0
   18.3443  -13.8915   -7.2140 C   0  0  0  1  0  0  0  0  0  0  0  0
   17.2977  -14.1479   -8.2611 C   0  0  0  1  0  0  0  0  0  0  0  0
   17.7701  -14.1514   -9.2211 H   0  0  0  1  0  0  0  0  0  0  0  0
   16.5756  -13.3593   -8.2212 H   0  0  0  1  0  0  0  0  0  0  0  0
   17.8426  -13.1979   -5.9814 C   0  0  0  1  0  0  0  0  0  0  0  0
   16.8160  -12.9281   -6.1162 H   0  0  0  1  0  0  0  0  0  0  0  0
   18.4230  -12.3160   -5.8075 H   0  0  0  1  0  0  0  0  0  0  0  0
   17.9311  -13.8551   -5.1416 H   0  0  0  1  0  0  0  0  0  0  0  0
   16.5777  -15.4731   -8.0714 C   0  0  0  1  0  0  0  0  0  0  0  0
   16.2065  -15.5185   -7.0688 H   0  0  0  1  0  0  0  0  0  0  0  0
   17.2778  -16.2667   -8.2293 H   0  0  0  1  0  0  0  0  0  0  0  0
   15.4226  -15.6575   -9.0188 C   0  0  0  1  0  0  0  0  0  0  0  0
   14.6968  -14.9131   -9.0434 H   0  0  0  1  0  0  0  0  0  0  0  0
   15.2620  -16.6947   -9.8216 C   0  0  0  1  0  0  0  0  0  0  0  0
   14.0986  -16.8517  -10.7570 C   0  0  0  1  0  0  0  0  0  0  0  0
   13.4067  -16.0557  -10.5766 H   0  0  0  1  0  0  0  0  0  0  0  0
   13.6243  -17.7896  -10.5562 H   0  0  0  1  0  0  0  0  0  0  0  0
   16.2558  -17.8214   -9.8590 C   0  0  0  1  0  0  0  0  0  0  0  0
   16.6216  -17.8468  -10.8643 H   0  0  0  1  0  0  0  0  0  0  0  0
   15.7807  -18.7473   -9.6106 H   0  0  0  1  0  0  0  0  0  0  0  0
   17.0570  -17.6361   -9.1744 H   0  0  0  1  0  0  0  0  0  0  0  0
   14.5034  -16.8181  -12.2217 C   0  0  0  1  0  0  0  0  0  0  0  0
   15.1661  -17.6367  -12.4108 H   0  0  0  1  0  0  0  0  0  0  0  0
   15.0111  -15.8960  -12.4137 H   0  0  0  1  0  0  0  0  0  0  0  0
   13.3386  -16.9234  -13.1542 C   0  0  0  1  0  0  0  0  0  0  0  0
   12.4015  -17.0277  -12.7154 H   0  0  0  1  0  0  0  0  0  0  0  0
   13.3711  -16.8983  -14.4751 C   0  0  0  1  0  0  0  0  0  0  0  0
   12.1040  -16.9867  -15.2749 C   0  0  0  1  0  0  0  0  0  0  0  0
   12.1784  -16.3524  -16.1334 H   0  0  0  1  0  0  0  0  0  0  0  0
   11.2785  -16.6732  -14.6706 H   0  0  0  1  0  0  0  0  0  0  0  0
   11.9517  -17.9976  -15.5908 H   0  0  0  1  0  0  0  0  0  0  0  0
   14.6462  -16.8770  -15.2827 C   0  0  0  1  0  0  0  0  0  0  0  0
   14.7264  -17.8220  -15.7780 H   0  0  0  1  0  0  0  0  0  0  0  0
   15.4861  -16.7305  -14.6361 H   0  0  0  1  0  0  0  0  0  0  0  0
   14.6090  -16.0878  -16.0043 H   0  0  0  1  0  0  0  0  0  0  0  0
   16.2220   -5.1080   -1.7346 C   0  0  0  1  0  0  0  0  0  0  0  0
   16.5803   -5.6130   -0.8619 H   0  0  0  1  0  0  0  0  0  0  0  0
   14.9391   -5.7561   -2.1838 C   0  0  0  1  0  0  0  0  0  0  0  0
   15.1344   -6.7709   -2.4608 H   0  0  0  1  0  0  0  0  0  0  0  0
   16.0275   -3.7357   -1.4271 O   0  0  0  1  0  0  0  0  0  0  0  0
   14.3676   -5.0181   -3.3685 C   0  0  0  1  0  0  0  0  0  0  0  0
   13.3818   -5.3834   -3.5682 H   0  0  0  1  0  0  0  0  0  0  0  0
   15.6234   -2.9940   -2.5754 C   0  0  0  1  0  0  0  0  0  0  0  0
   16.3668   -3.0865   -3.3395 H   0  0  0  1  0  0  0  0  0  0  0  0
   14.3004   -3.5360   -3.0882 C   0  0  0  1  0  0  0  0  0  0  0  0
   14.0448   -3.0246   -3.9927 H   0  0  0  1  0  0  0  0  0  0  0  0
   17.1855   -5.2173   -2.7759 O   0  0  0  1  0  0  0  0  0  0  0  0
   13.9958   -5.7276   -1.1110 O   0  0  0  1  0  0  0  0  0  0  0  0
   13.1147   -5.8929   -1.4545 H   0  0  0  1  0  0  0  0  0  0  0  0
   15.1945   -5.2420   -4.5011 O   0  0  0  1  0  0  0  0  0  0  0  0
   15.8563   -4.5487   -4.5568 H   0  0  0  1  0  0  0  0  0  0  0  0
   15.4600   -1.5299   -2.2010 C   0  0  0  1  0  0  0  0  0  0  0  0
   16.0794   -1.3056   -1.3578 H   0  0  0  1  0  0  0  0  0  0  0  0
   14.4371   -1.3374   -1.9532 H   0  0  0  1  0  0  0  0  0  0  0  0
   15.7487   -0.9161   -3.0286 H   0  0  0  1  0  0  0  0  0  0  0  0
   19.9905   -5.9419   -2.4169 C   0  0  0  1  0  0  0  0  0  0  0  0
   19.2786   -6.7367   -2.4980 H   0  0  0  1  0  0  0  0  0  0  0  0
   19.3196   -4.7240   -1.8428 C   0  0  0  1  0  0  0  0  0  0  0  0
   20.0428   -3.9449   -1.7203 H   0  0  0  1  0  0  0  0  0  0  0  0
   20.5030   -5.6346   -3.6990 O   0  0  0  1  0  0  0  0  0  0  0  0
   18.2352   -4.2556   -2.7691 C   0  0  0  1  0  0  0  0  0  0  0  0
   17.8583   -3.3180   -2.4172 H   0  0  0  1  0  0  0  0  0  0  0  0
   19.4454   -5.3486   -4.6317 C   0  0  0  1  0  0  0  0  0  0  0  0
   19.8534   -5.2087   -5.6109 H   0  0  0  1  0  0  0  0  0  0  0  0
   18.7491   -4.0800   -4.1790 C   0  0  0  1  0  0  0  0  0  0  0  0
   17.9283   -3.8723   -4.8332 H   0  0  0  1  0  0  0  0  0  0  0  0
   18.7388   -5.0570   -0.5472 N   0  0  0  1  0  0  0  0  0  0  0  0
   17.8759   -5.5208   -0.5209 H   0  0  0  1  0  0  0  0  0  0  0  0
   19.6743   -2.9925   -4.2147 O   0  0  0  1  0  0  0  0  0  0  0  0
   20.3020   -3.1463   -3.5048 H   0  0  0  1  0  0  0  0  0  0  0  0
   18.4655   -6.4866   -4.6548 C   0  0  0  1  0  0  0  0  0  0  0  0
   17.6056   -6.2165   -5.2315 H   0  0  0  1  0  0  0  0  0  0  0  0
   18.1645   -6.7297   -3.6572 H   0  0  0  1  0  0  0  0  0  0  0  0
   19.1198   -7.6025   -5.2509 O   0  0  0  1  0  0  0  0  0  0  0  0
   19.3210   -8.2372   -4.5594 H   0  0  0  1  0  0  0  0  0  0  0  0
   19.3650   -4.7404    0.6487 C   0  0  0  1  0  0  0  0  0  0  0  0
   20.3943   -4.0911    0.6128 O   0  0  0  1  0  0  0  0  0  0  0  0
   18.7498   -5.2106    1.9473 C   0  0  0  1  0  0  0  0  0  0  0  0
   17.8059   -4.7087    1.9920 H   0  0  0  1  0  0  0  0  0  0  0  0
   19.3645   -4.9353    2.7788 H   0  0  0  1  0  0  0  0  0  0  0  0
   18.6141   -6.2719    1.9393 H   0  0  0  1  0  0  0  0  0  0  0  0
  1  2  1  0  0  0  0
  1  3  1  0  0  0  0
  1  4  1  0  0  0  0
  1 44  1  0  0  0  0
  3 20  1  0  0  0  0
  4  5  1  0  0  0  0
  4  6  1  0  0  0  0
  4  8  1  0  0  0  0
  6  7  1  0  0  0  0
  8  9  1  0  0  0  0
  8 10  1  0  0  0  0
  8 20  1  0  0  0  0
 10 11  1  0  0  0  0
 12 13  1  0  0  0  0
 12 14  1  0  0  0  0
 12 15  1  0  0  0  0
 12 17  1  0  0  0  0
 15 16  1  0  0  0  0
 17 18  1  0  0  0  0
 17 19  1  0  0  0  0
 17 20  1  0  0  0  0
 19 22  1  0  0  0  0
 20 21  1  0  0  0  0
 22 23  1  0  0  0  0
 22 24  1  0  0  0  0
 22 25  1  0  0  0  0
 24 42  1  0  0  0  0
 25 26  1  0  0  0  0
 25 27  1  0  0  0  0
 25 29  1  0  0  0  0
 27 28  1  0  0  0  0
 29 30  1  0  0  0  0
 29 31  1  0  0  0  0
 29 42  1  0  0  0  0
 31 32  1  0  0  0  0
 33 34  1  0  0  0  0
 33 35  1  0  0  0  0
 33 36  1  0  0  0  0
 33 38  1  0  0  0  0
 36 37  1  0  0  0  0
 38 39  1  0  0  0  0
 38 40  1  0  0  0  0
 38 42  1  0  0  0  0
 40 41  1  0  0  0  0
 42 43  1  0  0  0  0
 44194  1  0  0  0  0
 45 46  1  0  0  0  0
 45 54  1  0  0  0  0
 46 47  1  0  0  0  0
 46 48  1  0  0  0  0
 46 49  2  0  0  0  0
 47 50  1  0  0  0  0
 50 51  1  0  0  0  0
 50 52  1  0  0  0  0
 50 53  2  0  0  0  0
 51205  1  0  0  0  0
 54 55  1  0  0  0  0
 54 56  1  0  0  0  0
 54 57  1  0  0  0  0
 57 58  1  0  0  0  0
 57 59  2  0  0  0  0
 59 60  1  0  0  0  0
 59 64  1  0  0  0  0
 60 61  1  0  0  0  0
 60 62  1  0  0  0  0
 60 63  1  0  0  0  0
 64 65  1  0  0  0  0
 64 66  1  0  0  0  0
 64 67  1  0  0  0  0
 67 68  1  0  0  0  0
 67 69  1  0  0  0  0
 67 70  1  0  0  0  0
 70 71  1  0  0  0  0
 70 72  2  0  0  0  0
 72 73  1  0  0  0  0
 72 77  1  0  0  0  0
 73 74  1  0  0  0  0
 73 75  1  0  0  0  0
 73 76  1  0  0  0  0
 77 78  1  0  0  0  0
 77 79  1  0  0  0  0
 77 80  1  0  0  0  0
 80 81  1  0  0  0  0
 80 82  1  0  0  0  0
 80 83  1  0  0  0  0
 83 84  1  0  0  0  0
 83 85  2  0  0  0  0
 85 86  1  0  0  0  0
 85 89  1  0  0  0  0
 86 87  1  0  0  0  0
 86 88  1  0  0  0  0
 86 93  1  0  0  0  0
 89 90  1  0  0  0  0
 89 91  1  0  0  0  0
 89 92  1  0  0  0  0
 93 94  1  0  0  0  0
 93 95  1  0  0  0  0
 93 96  1  0  0  0  0
 96 97  1  0  0  0  0
 96 98  2  0  0  0  0
 98 99  1  0  0  0  0
 98102  1  0  0  0  0
 99100  1  0  0  0  0
 99101  1  0  0  0  0
 99106  1  0  0  0  0
102103  1  0  0  0  0
102104  1  0  0  0  0
102105  1  0  0  0  0
106107  1  0  0  0  0
106108  1  0  0  0  0
106109  1  0  0  0  0
109110  1  0  0  0  0
109111  2  0  0  0  0
111112  1  0  0  0  0
111115  1  0  0  0  0
112113  1  0  0  0  0
112114  1  0  0  0  0
112119  1  0  0  0  0
115116  1  0  0  0  0
115117  1  0  0  0  0
115118  1  0  0  0  0
119120  1  0  0  0  0
119121  1  0  0  0  0
119122  1  0  0  0  0
122123  1  0  0  0  0
122124  2  0  0  0  0
124125  1  0  0  0  0
124128  1  0  0  0  0
125126  1  0  0  0  0
125127  1  0  0  0  0
125132  1  0  0  0  0
128129  1  0  0  0  0
128130  1  0  0  0  0
128131  1  0  0  0  0
132133  1  0  0  0  0
132134  1  0  0  0  0
132135  1  0  0  0  0
135136  1  0  0  0  0
135137  2  0  0  0  0
137138  1  0  0  0  0
137141  1  0  0  0  0
138139  1  0  0  0  0
138140  1  0  0  0  0
138145  1  0  0  0  0
141142  1  0  0  0  0
141143  1  0  0  0  0
141144  1  0  0  0  0
145146  1  0  0  0  0
145147  1  0  0  0  0
145148  1  0  0  0  0
148149  1  0  0  0  0
148150  2  0  0  0  0
150151  1  0  0  0  0
150154  1  0  0  0  0
151152  1  0  0  0  0
151153  1  0  0  0  0
151158  1  0  0  0  0
154155  1  0  0  0  0
154156  1  0  0  0  0
154157  1  0  0  0  0
158159  1  0  0  0  0
158160  1  0  0  0  0
158161  1  0  0  0  0
161162  1  0  0  0  0
161163  2  0  0  0  0
163164  1  0  0  0  0
163167  1  0  0  0  0
164165  1  0  0  0  0
164166  1  0  0  0  0
164171  1  0  0  0  0
167168  1  0  0  0  0
167169  1  0  0  0  0
167170  1  0  0  0  0
171172  1  0  0  0  0
171173  1  0  0  0  0
171174  1  0  0  0  0
174175  1  0  0  0  0
174176  2  0  0  0  0
176177  1  0  0  0  0
176181  1  0  0  0  0
177178  1  0  0  0  0
177179  1  0  0  0  0
177180  1  0  0  0  0
181182  1  0  0  0  0
181183  1  0  0  0  0
181184  1  0  0  0  0
185186  1  0  0  0  0
185187  1  0  0  0  0
185189  1  0  0  0  0
185196  1  0  0  0  0
187188  1  0  0  0  0
187190  1  0  0  0  0
187197  1  0  0  0  0
189192  1  0  0  0  0
190191  1  0  0  0  0
190194  1  0  0  0  0
190199  1  0  0  0  0
192193  1  0  0  0  0
192194  1  0  0  0  0
192201  1  0  0  0  0
194195  1  0  0  0  0
196210  1  0  0  0  0
197198  1  0  0  0  0
199200  1  0  0  0  0
201202  1  0  0  0  0
201203  1  0  0  0  0
201204  1  0  0  0  0
205206  1  0  0  0  0
205207  1  0  0  0  0
205209  1  0  0  0  0
207208  1  0  0  0  0
207210  1  0  0  0  0
207216  1  0  0  0  0
209212  1  0  0  0  0
210211  1  0  0  0  0
210214  1  0  0  0  0
212213  1  0  0  0  0
212214  1  0  0  0  0
212220  1  0  0  0  0
214215  1  0  0  0  0
214218  1  0  0  0  0
216217  1  0  0  0  0
216225  1  0  0  0  0
218219  1  0  0  0  0
220221  1  0  0  0  0
220222  1  0  0  0  0
220223  1  0  0  0  0
223224  1  0  0  0  0
225226  2  0  0  0  0
225227  1  0  0  0  0
227228  1  0  0  0  0
227229  1  0  0  0  0
227230  1  0  0  0  0
M  BCL ATM C_TeTeTeTe H_S O_Te2Te2TeTe C_TeTeTeTe H_S O_Te2Te2TeTe H_S C_TeTeTeTe H_S O_Te2Te2TeTe H_S C_TeTeTeTe H_S H_S O_Te2Te2TeTe H_S C_TeTeTeTe H_S O_Te2Te2TeTe C_TeTeTeTe H_S C_TeTeTeTe H_S O_Te2Te2TeTe C_TeTeTeTe H_S O_Te2Te2TeTe H_S C_TeTeTeTe H_S O_Te2Te2TeTe H_S C_TeTeTeTe H_S H_S O_Te2Te2TeTe H_S C_TeTeTeTe H_S O_Te2Te2TeTe H_S C_TeTeTeTe H_S O_Te2Te2TeTe O_Tr2TrTrPi2 P_TeTeTeTePi O_Tr2TrTrPi2 O_Te2Te2TeTe O_Tr2Tr2TrPi P_TeTeTeTePi O_Tr2TrTrPi2 O_Te2Te2TeTe O_Tr2Tr2TrPi C_TeTeTeTe H_S H_S C_TrTrTrPi H_S C_TrTrTrPi C_TeTeTeTe H_S H_S H_S C_TeTeTeTe H_S H_S C_TeTeTeTe H_S H_S C_TrTrTrPi H_S C_TrTrTrPi C_TeTeTeTe H_S H_S H_S C_TeTeTeTe H_S H_S C_TeTeTeTe H_S H_S C_TrTrTrPi H_S C_TrTrTrPi C_TeTeTeTe H_S H_S C_TeTeTeTe H_S H_S H_S C_TeTeTeTe H_S H_S C_TrTrTrPi H_S C_TrTrTrPi C_TeTeTeTe H_S H_S C_TeTeTeTe H_S H_S H_S C_TeTeTeTe H_S H_S C_TrTrTrPi H_S C_TrTrTrPi C_TeTeTeTe H_S H_S C_TeTeTeTe H_S H_S H_S C_TeTeTeTe H_S H_S C_TrTrTrPi H_S C_TrTrTrPi C_TeTeTeTe H_S H_S C_TeTeTeTe H_S H_S H_S C_TeTeTeTe H_S H_S C_TrTrTrPi H_S C_TrTrTrPi C_TeTeTeTe H_S H_S C_TeTeTeTe H_S H_S H_S C_TeTeTeTe H_S H_S C_TrTrTrPi H_S C_TrTrTrPi C_TeTeTeTe H_S H_S C_TeTeTeTe H_S H_S H_S C_TeTeTeTe H_S H_S C_TrTrTrPi H_S C_TrTrTrPi C_TeTeTeTe H_S H_S C_TeTeTeTe H_S H_S H_S C_TeTeTeTe H_S H_S C_TrTrTrPi H_S C_TrTrTrPi C_TeTeTeTe H_S H_S H_S C_TeTeTeTe H_S H_S H_S C_TeTeTeTe H_S C_TeTeTeTe H_S O_Te2Te2TeTe C_TeTeTeTe H_S C_TeTeTeTe H_S C_TeTeTeTe H_S O_Te2Te2TeTe O_Te2Te2TeTe H_S O_Te2Te2TeTe H_S C_TeTeTeTe H_S H_S H_S C_TeTeTeTe H_S C_TeTeTeTe H_S O_Te2Te2TeTe C_TeTeTeTe H_S C_TeTeTeTe H_S C_TeTeTeTe H_S N_TrTrTrPi2 H_S O_Te2Te2TeTe H_S C_TeTeTeTe H_S H_S O_Te2Te2TeTe H_S C_TrTrTrPi O_Tr2Tr2TrPi C_TeTeTeTe H_S H_S H_S
M  BCL BND NonConjugatedSingleBond NonConjugatedSingleBondInRing NonConjugatedSingleBondInRing NonConjugatedSingleBond NonConjugatedSingleBondInRing NonConjugatedSingleBond NonConjugatedSingleBond NonConjugatedSingleBondInRing NonConjugatedSingleBond NonConjugatedSingleBond NonConjugatedSingleBond NonConjugatedSingleBondInRing NonConjugatedSingleBond NonConjugatedSingleBond NonConjugatedSingleBond NonConjugatedSingleBond NonConjugatedSingleBond NonConjugatedSingleBond NonConjugatedSingleBond NonConjugatedSingleBond NonConjugatedSingleBond NonConjugatedSingleBond NonConjugatedSingleBond NonConjugatedSingleBond NonConjugatedSingleBondInRing NonConjugatedSingleBondInRing NonConjugatedSingleBondInRing NonConjugatedSingleBond NonConjugatedSingleBond NonConjugatedSingleBondInRing NonConjugatedSingleBond NonConjugatedSingleBond NonConjugatedSingleBond NonConjugatedSingleBondInRing NonConjugatedSingleBond NonConjugatedSingleBond NonConjugatedSingleBond NonConjugatedSingleBond NonConjugatedSingleBond NonConjugatedSingleBond NonConjugatedSingleBond NonConjugatedSingleBond NonConjugatedSingleBond NonConjugatedSingleBond NonConjugatedSingleBond NonConjugatedSingleBond ConjugatedSingleBond NonConjugatedSingleBond ConjugatedSingleBond ConjugatedSingleBond ConjugatedDoubleBond ConjugatedSingleBond ConjugatedSingleBond ConjugatedSingleBond ConjugatedDoubleBond NonConjugatedSingleBond NonConjugatedSingleBond NonConjugatedSingleBond NonConjugatedSingleBond NonConjugatedSingleBond ConjugatedDoubleBond NonConjugatedSingleBond NonConjugatedSingleBond NonConjugatedSingleBond NonConjugatedSingleBond NonConjugatedSingleBond NonConjugatedSingleBond NonConjugatedSingleBond NonConjugatedSingleBond NonConjugatedSingleBond NonConjugatedSingleBond NonConjugatedSingleBond NonConjugatedSingleBond ConjugatedDoubleBond NonConjugatedSingleBond NonConjugatedSingleBond NonConjugatedSingleBond NonConjugatedSingleBond NonConjugatedSingleBond NonConjugatedSingleBond NonConjugatedSingleBond NonConjugatedSingleBond NonConjugatedSingleBond NonConjugatedSingleBond NonConjugatedSingleBond NonConjugatedSingleBond ConjugatedDoubleBond NonConjugatedSingleBond NonConjugatedSingleBond NonConjugatedSingleBond NonConjugatedSingleBond NonConjugatedSingleBond NonConjugatedSingleBond NonConjugatedSingleBond NonConjugatedSingleBond NonConjugatedSingleBond NonConjugatedSingleBond NonConjugatedSingleBond NonConjugatedSingleBond ConjugatedDoubleBond NonConjugatedSingleBond NonConjugatedSingleBond NonConjugatedSingleBond NonConjugatedSingleBond NonConjugatedSingleBond NonConjugatedSingleBond NonConjugatedSingleBond NonConjugatedSingleBond NonConjugatedSingleBond NonConjugatedSingleBond NonConjugatedSingleBond NonConjugatedSingleBond ConjugatedDoubleBond NonConjugatedSingleBond NonConjugatedSingleBond NonConjugatedSingleBond NonConjugatedSingleBond NonConjugatedSingleBond NonConjugatedSingleBond NonConjugatedSingleBond NonConjugatedSingleBond NonConjugatedSingleBond NonConjugatedSingleBond NonConjugatedSingleBond NonConjugatedSingleBond ConjugatedDoubleBond NonConjugatedSingleBond NonConjugatedSingleBond NonConjugatedSingleBond NonConjugatedSingleBond NonConjugatedSingleBond NonConjugatedSingleBond NonConjugatedSingleBond NonConjugatedSingleBond NonConjugatedSingleBond NonConjugatedSingleBond NonConjugatedSingleBond NonConjugatedSingleBond ConjugatedDoubleBond NonConjugatedSingleBond NonConjugatedSingleBond NonConjugatedSingleBond NonConjugatedSingleBond NonConjugatedSingleBond NonConjugatedSingleBond NonConjugatedSingleBond NonConjugatedSingleBond NonConjugatedSingleBond NonConjugatedSingleBond NonConjugatedSingleBond NonConjugatedSingleBond ConjugatedDoubleBond NonConjugatedSingleBond NonConjugatedSingleBond NonConjugatedSingleBond NonConjugatedSingleBond NonConjugatedSingleBond NonConjugatedSingleBond NonConjugatedSingleBond NonConjugatedSingleBond NonConjugatedSingleBond NonConjugatedSingleBond NonConjugatedSingleBond NonConjugatedSingleBond ConjugatedDoubleBond NonConjugatedSingleBond NonConjugatedSingleBond NonConjugatedSingleBond NonConjugatedSingleBond NonConjugatedSingleBond NonConjugatedSingleBond NonConjugatedSingleBond NonConjugatedSingleBond NonConjugatedSingleBond NonConjugatedSingleBond NonConjugatedSingleBond NonConjugatedSingleBond ConjugatedDoubleBond NonConjugatedSingleBond NonConjugatedSingleBond NonConjugatedSingleBond NonConjugatedSingleBond NonConjugatedSingleBond NonConjugatedSingleBond NonConjugatedSingleBond NonConjugatedSingleBond NonConjugatedSingleBond NonConjugatedSingleBondInRing NonConjugatedSingleBondInRing NonConjugatedSingleBond NonConjugatedSingleBond NonConjugatedSingleBondInRing NonConjugatedSingleBond NonConjugatedSingleBondInRing NonConjugatedSingleBond NonConjugatedSingleBondInRing NonConjugatedSingleBond NonConjugatedSingleBond NonConjugatedSingleBondInRing NonConjugatedSingleBond NonConjugatedSingleBond NonConjugatedSingleBond NonConjugatedSingleBond NonConjugatedSingleBond NonConjugatedSingleBond NonConjugatedSingleBond NonConjugatedSingleBond NonConjugatedSingleBond NonConjugatedSingleBondInRing NonConjugatedSingleBondInRing NonConjugatedSingleBond NonConjugatedSingleBondInRing NonConjugatedSingleBond NonConjugatedSingleBondInRing NonConjugatedSingleBond NonConjugatedSingleBondInRing NonConjugatedSingleBond NonConjugatedSingleBondInRing NonConjugatedSingleBond NonConjugatedSingleBond NonConjugatedSingleBond NonConjugatedSingleBond AmideSingleBond NonConjugatedSingleBond NonConjugatedSingleBond NonConjugatedSingleBond NonConjugatedSingleBond NonConjugatedSingleBond ConjugatedDoubleBond NonConjugatedSingleBond NonConjugatedSingleBond NonConjugatedSingleBond NonConjugatedSingleBond
M  BCL CHI   1   R   4   R   8   R  17   S  20   R  22   S  25   R  29   S  38   S  42   R  46   R  50   S 185   R 187   S 190   S 192   R 194   R 205   R 207   S 210   R 212   S 214   S
M  BCL DBI - - E E E E E E E E Z - -
M  END
> <ConfClashScore>
0.00498807 

> <ConfOneFourInteractionScore>
-0.96382 

> <ConfScore>
0.602985 

> <ConfScorePBest>
0.0115965 

> <ConfTolerance>
3.22961 

$$$$
L05.****
  PyMOL2.5          3D                             0

230233  0  0  0  0  0  0  0  0999 V2000
   12.0170   -3.2324   -2.9403 C   0  0  0  1  0  0  0  0  0  0  0  0
   11.8737   -4.2236   -3.3171 H   0  0  0  1  0  0  0  0  0  0  0  0
   11.9473   -2.2710   -4.0092 O   0  0  0  1  0  0  0  0  0  0  0  0
   10.8981   -2.8571   -1.9978 C   0  0  0  1  0  0  0  0  0  0  0  0
   11.1182   -3.1594   -0.9953 H   0  0  0  1  0  0  0  0  0  0  0  0
    9.6590   -3.4365   -2.4094 O   0  0  0  1  0  0  0  0  0  0  0  0
    9.2365   -2.8647   -3.0545 H   0  0  0  1  0  0  0  0  0  0  0  0
   10.8653   -1.3535   -2.1202 C   0  0  0  1  0  0  0  0  0  0  0  0
    9.8924   -0.9719   -1.8907 H   0  0  0  1  0  0  0  0  0  0  0  0
   11.8301   -0.7494   -1.2573 O   0  0  0  1  0  0  0  0  0  0  0  0
   11.3929   -0.4192   -0.4691 H   0  0  0  1  0  0  0  0  0  0  0  0
    9.9503    0.3074   -5.2478 C   0  0  0  1  0  0  0  0  0  0  0  0
   10.0049    1.1669   -4.6128 H   0  0  0  1  0  0  0  0  0  0  0  0
   10.7957    0.2935   -5.9035 H   0  0  0  1  0  0  0  0  0  0  0  0
    8.7564    0.3634   -6.0172 O   0  0  0  1  0  0  0  0  0  0  0  0
    8.0724    0.8124   -5.5152 H   0  0  0  1  0  0  0  0  0  0  0  0
    9.9514   -0.9519   -4.3950 C   0  0  0  1  0  0  0  0  0  0  0  0
    9.8598   -1.7981   -5.0435 H   0  0  0  1  0  0  0  0  0  0  0  0
    8.8692   -0.9381   -3.4700 O   0  0  0  1  0  0  0  0  0  0  0  0
   11.2126   -1.1120   -3.5741 C   0  0  0  1  0  0  0  0  0  0  0  0
   11.8154   -0.2332   -3.6704 H   0  0  0  1  0  0  0  0  0  0  0  0
    7.6111   -1.0259   -4.0734 C   0  0  0  1  0  0  0  0  0  0  0  0
    7.7233   -1.0082   -5.1374 H   0  0  0  1  0  0  0  0  0  0  0  0
    6.9526   -2.2246   -3.6674 O   0  0  0  1  0  0  0  0  0  0  0  0
    6.7425    0.1096   -3.6259 C   0  0  0  1  0  0  0  0  0  0  0  0
    6.7199    0.8829   -4.3651 H   0  0  0  1  0  0  0  0  0  0  0  0
    7.2111    0.6467   -2.3881 O   0  0  0  1  0  0  0  0  0  0  0  0
    8.1710    0.6382   -2.3780 H   0  0  0  1  0  0  0  0  0  0  0  0
    5.3669   -0.5108   -3.4557 C   0  0  0  1  0  0  0  0  0  0  0  0
    4.6556   -0.0364   -4.0990 H   0  0  0  1  0  0  0  0  0  0  0  0
    4.9302   -0.4048   -2.1037 O   0  0  0  1  0  0  0  0  0  0  0  0
    5.3634    0.3425   -1.6847 H   0  0  0  1  0  0  0  0  0  0  0  0
    5.7284   -1.1244   -6.2224 C   0  0  0  1  0  0  0  0  0  0  0  0
    5.0481   -0.9417   -7.0278 H   0  0  0  1  0  0  0  0  0  0  0  0
    5.8952   -0.2156   -5.6828 H   0  0  0  1  0  0  0  0  0  0  0  0
    6.9589   -1.6198   -6.7299 O   0  0  0  1  0  0  0  0  0  0  0  0
    6.8264   -2.5006   -7.0882 H   0  0  0  1  0  0  0  0  0  0  0  0
    5.1581   -2.1844   -5.2910 C   0  0  0  1  0  0  0  0  0  0  0  0
    5.5528   -3.1305   -5.5976 H   0  0  0  1  0  0  0  0  0  0  0  0
    3.7382   -2.2112   -5.4311 O   0  0  0  1  0  0  0  0  0  0  0  0
    3.4459   -3.1165   -5.5595 H   0  0  0  1  0  0  0  0  0  0  0  0
    5.5575   -1.9660   -3.8460 C   0  0  0  1  0  0  0  0  0  0  0  0
    4.9744   -2.6029   -3.2141 H   0  0  0  1  0  0  0  0  0  0  0  0
   13.2751   -3.1529   -2.2785 O   0  0  0  1  0  0  0  0  0  0  0  0
   24.4144   -9.4032   -3.8953 O   0  0  0  1  0  0  0  0  0  0  0  0
   23.4165  -10.5530   -3.4973 P   0  0  0  1  0  0  0  0  0  0  0  0
   22.1575   -9.6944   -2.9545 O   0  0  0  1  0  0  0  0  0  0  0  0
   24.0344  -11.4765   -2.4777 O   0  0  0  0  0  0  0  0  0  0  0  0
   23.0215  -11.1527   -4.7724 O   0  0  0  1  0  0  0  0  0  0  0  0
   21.7292   -8.2753   -3.5052 P   0  0  0  1  0  0  0  0  0  0  0  0
   20.3099   -8.0533   -2.8629 O   0  0  0  1  0  0  0  0  0  0  0  0
   21.4978   -8.4774   -4.9466 O   0  0  0  0  0  0  0  0  0  0  0  0
   22.6691   -7.2304   -3.0608 O   0  0  0  1  0  0  0  0  0  0  0  0
   24.5599   -9.0001   -5.2542 C   0  0  0  1  0  0  0  0  0  0  0  0
   23.7085   -9.3487   -5.8006 H   0  0  0  1  0  0  0  0  0  0  0  0
   25.4461   -9.4543   -5.6459 H   0  0  0  1  0  0  0  0  0  0  0  0
   24.6673   -7.5160   -5.4470 C   0  0  0  1  0  0  0  0  0  0  0  0
   24.6230   -6.9161   -4.5986 H   0  0  0  1  0  0  0  0  0  0  0  0
   24.8155   -6.9085   -6.6257 C   0  0  0  1  0  0  0  0  0  0  0  0
   24.5861   -5.4336   -6.7736 C   0  0  0  1  0  0  0  0  0  0  0  0
   23.7968   -5.2635   -7.4757 H   0  0  0  1  0  0  0  0  0  0  0  0
   25.4825   -4.9669   -7.1251 H   0  0  0  1  0  0  0  0  0  0  0  0
   24.3153   -5.0182   -5.8254 H   0  0  0  1  0  0  0  0  0  0  0  0
   25.2188   -7.6787   -7.8546 C   0  0  0  1  0  0  0  0  0  0  0  0
   25.6141   -8.6249   -7.5491 H   0  0  0  1  0  0  0  0  0  0  0  0
   25.9755   -7.1252   -8.3703 H   0  0  0  1  0  0  0  0  0  0  0  0
   24.0624   -7.9232   -8.8103 C   0  0  0  1  0  0  0  0  0  0  0  0
   24.3593   -8.6656   -9.5213 H   0  0  0  1  0  0  0  0  0  0  0  0
   23.8423   -7.0084   -9.3198 H   0  0  0  1  0  0  0  0  0  0  0  0
   22.8216   -8.3942   -8.1202 C   0  0  0  1  0  0  0  0  0  0  0  0
   22.9345   -9.1807   -7.4492 H   0  0  0  1  0  0  0  0  0  0  0  0
   21.5976   -7.9192   -8.2707 C   0  0  0  1  0  0  0  0  0  0  0  0
   20.4094   -8.6912   -7.7750 C   0  0  0  1  0  0  0  0  0  0  0  0
   20.2343   -9.5287   -8.4175 H   0  0  0  1  0  0  0  0  0  0  0  0
   19.5477   -8.0569   -7.7734 H   0  0  0  1  0  0  0  0  0  0  0  0
   20.5993   -9.0382   -6.7808 H   0  0  0  1  0  0  0  0  0  0  0  0
   21.2794   -6.6535   -9.0109 C   0  0  0  1  0  0  0  0  0  0  0  0
   22.1961   -6.2169   -9.3485 H   0  0  0  1  0  0  0  0  0  0  0  0
   20.7892   -5.9802   -8.3391 H   0  0  0  1  0  0  0  0  0  0  0  0
   20.3783   -6.8780  -10.2142 C   0  0  0  1  0  0  0  0  0  0  0  0
   19.4772   -7.3494   -9.8816 H   0  0  0  1  0  0  0  0  0  0  0  0
   20.8845   -7.5210  -10.9035 H   0  0  0  1  0  0  0  0  0  0  0  0
   20.0171   -5.6031  -10.9257 C   0  0  0  1  0  0  0  0  0  0  0  0
   19.6123   -4.8324  -10.3566 H   0  0  0  1  0  0  0  0  0  0  0  0
   20.1766   -5.3881  -12.2261 C   0  0  0  1  0  0  0  0  0  0  0  0
   20.8585   -6.3951  -13.1059 C   0  0  0  1  0  0  0  0  0  0  0  0
   20.2939   -6.4789  -14.0109 H   0  0  0  1  0  0  0  0  0  0  0  0
   20.8560   -7.3353  -12.5950 H   0  0  0  1  0  0  0  0  0  0  0  0
   19.7052   -4.1500  -12.9356 C   0  0  0  1  0  0  0  0  0  0  0  0
   20.1807   -3.2913  -12.5096 H   0  0  0  1  0  0  0  0  0  0  0  0
   18.6444   -4.0599  -12.8286 H   0  0  0  1  0  0  0  0  0  0  0  0
   19.9551   -4.2173  -13.9739 H   0  0  0  1  0  0  0  0  0  0  0  0
   22.2954   -6.0678  -13.4784 C   0  0  0  1  0  0  0  0  0  0  0  0
   22.3375   -5.8018  -14.5140 H   0  0  0  1  0  0  0  0  0  0  0  0
   22.9074   -6.9284  -13.3055 H   0  0  0  1  0  0  0  0  0  0  0  0
   22.8127   -4.9204  -12.6527 C   0  0  0  1  0  0  0  0  0  0  0  0
   23.1551   -5.1333  -11.6940 H   0  0  0  1  0  0  0  0  0  0  0  0
   22.8645   -3.6558  -13.0573 C   0  0  0  1  0  0  0  0  0  0  0  0
   22.4074   -3.1947  -14.4123 C   0  0  0  1  0  0  0  0  0  0  0  0
   21.3495   -3.0372  -14.3795 H   0  0  0  1  0  0  0  0  0  0  0  0
   22.6327   -3.9593  -15.1262 H   0  0  0  1  0  0  0  0  0  0  0  0
   23.3959   -2.5685  -12.1700 C   0  0  0  1  0  0  0  0  0  0  0  0
   24.0985   -2.9837  -11.4780 H   0  0  0  1  0  0  0  0  0  0  0  0
   22.5870   -2.1210  -11.6312 H   0  0  0  1  0  0  0  0  0  0  0  0
   23.8811   -1.8257  -12.7681 H   0  0  0  1  0  0  0  0  0  0  0  0
   23.0751   -1.9042  -14.8586 C   0  0  0  1  0  0  0  0  0  0  0  0
   23.1191   -1.8834  -15.9275 H   0  0  0  1  0  0  0  0  0  0  0  0
   24.0671   -1.8663  -14.4595 H   0  0  0  1  0  0  0  0  0  0  0  0
   22.3066   -0.7151  -14.3762 C   0  0  0  1  0  0  0  0  0  0  0  0
   21.5610   -0.8783  -13.6698 H   0  0  0  1  0  0  0  0  0  0  0  0
   22.5054    0.5331  -14.7826 C   0  0  0  1  0  0  0  0  0  0  0  0
   23.5589    0.8647  -15.7992 C   0  0  0  1  0  0  0  0  0  0  0  0
   24.1875    0.0066  -15.9150 H   0  0  0  1  0  0  0  0  0  0  0  0
   24.1366    1.6822  -15.4212 H   0  0  0  1  0  0  0  0  0  0  0  0
   21.7200    1.7130  -14.2831 C   0  0  0  1  0  0  0  0  0  0  0  0
   21.5183    2.3781  -15.0966 H   0  0  0  1  0  0  0  0  0  0  0  0
   22.2862    2.2269  -13.5346 H   0  0  0  1  0  0  0  0  0  0  0  0
   20.7965    1.3741  -13.8623 H   0  0  0  1  0  0  0  0  0  0  0  0
   23.0388    1.2538  -17.1734 C   0  0  0  1  0  0  0  0  0  0  0  0
   23.8431    1.6839  -17.7327 H   0  0  0  1  0  0  0  0  0  0  0  0
   22.2614    1.9786  -17.0506 H   0  0  0  1  0  0  0  0  0  0  0  0
   22.4910    0.0938  -17.9425 C   0  0  0  1  0  0  0  0  0  0  0  0
   23.0971   -0.7451  -18.0450 H   0  0  0  1  0  0  0  0  0  0  0  0
   21.2876    0.0551  -18.5046 C   0  0  0  1  0  0  0  0  0  0  0  0
   20.3532    1.2307  -18.5558 C   0  0  0  1  0  0  0  0  0  0  0  0
   19.4548    0.9429  -19.0607 H   0  0  0  1  0  0  0  0  0  0  0  0
   20.8233    2.0294  -19.0906 H   0  0  0  1  0  0  0  0  0  0  0  0
   20.7599   -1.1951  -19.1453 C   0  0  0  1  0  0  0  0  0  0  0  0
   20.1752   -0.9373  -20.0035 H   0  0  0  1  0  0  0  0  0  0  0  0
   20.1493   -1.7246  -18.4440 H   0  0  0  1  0  0  0  0  0  0  0  0
   21.5790   -1.8150  -19.4451 H   0  0  0  1  0  0  0  0  0  0  0  0
   20.0070    1.7053  -17.1540 C   0  0  0  1  0  0  0  0  0  0  0  0
   20.6068    1.1632  -16.4530 H   0  0  0  1  0  0  0  0  0  0  0  0
   18.9725    1.5019  -16.9713 H   0  0  0  1  0  0  0  0  0  0  0  0
   20.2462    3.1636  -16.9553 C   0  0  0  1  0  0  0  0  0  0  0  0
   20.4477    3.4501  -15.9761 H   0  0  0  1  0  0  0  0  0  0  0  0
   20.2401    4.1560  -17.8483 C   0  0  0  1  0  0  0  0  0  0  0  0
   19.6495    3.9681  -19.2202 C   0  0  0  1  0  0  0  0  0  0  0  0
   20.0949    3.1041  -19.6673 H   0  0  0  1  0  0  0  0  0  0  0  0
   19.8757    4.8320  -19.8095 H   0  0  0  1  0  0  0  0  0  0  0  0
   20.7425    5.5335  -17.4637 C   0  0  0  1  0  0  0  0  0  0  0  0
   21.7491    5.6549  -17.8057 H   0  0  0  1  0  0  0  0  0  0  0  0
   20.7125    5.6395  -16.3994 H   0  0  0  1  0  0  0  0  0  0  0  0
   20.1206    6.2784  -17.9145 H   0  0  0  1  0  0  0  0  0  0  0  0
   18.1415    3.7787  -19.1983 C   0  0  0  1  0  0  0  0  0  0  0  0
   17.8732    3.2871  -18.2866 H   0  0  0  1  0  0  0  0  0  0  0  0
   17.8632    3.1656  -20.0300 H   0  0  0  1  0  0  0  0  0  0  0  0
   17.3829    5.0760  -19.2844 C   0  0  0  1  0  0  0  0  0  0  0  0
   17.4066    5.5670  -20.2009 H   0  0  0  1  0  0  0  0  0  0  0  0
   16.6863    5.6619  -18.3164 C   0  0  0  1  0  0  0  0  0  0  0  0
   16.5439    5.0958  -16.9319 C   0  0  0  1  0  0  0  0  0  0  0  0
   16.6512    4.0332  -16.9971 H   0  0  0  1  0  0  0  0  0  0  0  0
   15.5631    5.3347  -16.5769 H   0  0  0  1  0  0  0  0  0  0  0  0
   15.9731    6.9633  -18.5394 C   0  0  0  1  0  0  0  0  0  0  0  0
   15.7965    7.4397  -17.5977 H   0  0  0  1  0  0  0  0  0  0  0  0
   15.0384    6.7787  -19.0263 H   0  0  0  1  0  0  0  0  0  0  0  0
   16.5760    7.5995  -19.1531 H   0  0  0  1  0  0  0  0  0  0  0  0
   17.5488    5.6069  -15.9125 C   0  0  0  1  0  0  0  0  0  0  0  0
   17.7317    6.6408  -16.1189 H   0  0  0  1  0  0  0  0  0  0  0  0
   18.4555    5.0522  -16.0360 H   0  0  0  1  0  0  0  0  0  0  0  0
   17.1249    5.4889  -14.4737 C   0  0  0  1  0  0  0  0  0  0  0  0
   16.2863    6.0259  -14.1735 H   0  0  0  1  0  0  0  0  0  0  0  0
   17.7414    4.7503  -13.5588 C   0  0  0  1  0  0  0  0  0  0  0  0
   17.1405    4.5285  -12.1980 C   0  0  0  1  0  0  0  0  0  0  0  0
   16.2340    5.0930  -12.1298 H   0  0  0  1  0  0  0  0  0  0  0  0
   17.8331    4.8744  -11.4594 H   0  0  0  1  0  0  0  0  0  0  0  0
   19.0648    4.0775  -13.7780 C   0  0  0  1  0  0  0  0  0  0  0  0
   19.3398    4.3091  -14.7858 H   0  0  0  1  0  0  0  0  0  0  0  0
   18.9720    3.0193  -13.6497 H   0  0  0  1  0  0  0  0  0  0  0  0
   19.7950    4.4576  -13.0946 H   0  0  0  1  0  0  0  0  0  0  0  0
   16.8234    3.0686  -11.9179 C   0  0  0  1  0  0  0  0  0  0  0  0
   16.5926    2.9747  -10.8773 H   0  0  0  1  0  0  0  0  0  0  0  0
   17.6961    2.4921  -12.1436 H   0  0  0  1  0  0  0  0  0  0  0  0
   15.6731    2.4961  -12.7021 C   0  0  0  1  0  0  0  0  0  0  0  0
   14.8219    3.0891  -12.7764 H   0  0  0  1  0  0  0  0  0  0  0  0
   15.6272    1.3154  -13.3098 C   0  0  0  1  0  0  0  0  0  0  0  0
   14.4544    0.8389  -14.1166 C   0  0  0  1  0  0  0  0  0  0  0  0
   13.5483    1.0477  -13.5873 H   0  0  0  1  0  0  0  0  0  0  0  0
   14.5378   -0.2156  -14.2782 H   0  0  0  1  0  0  0  0  0  0  0  0
   14.4412    1.3447  -15.0594 H   0  0  0  1  0  0  0  0  0  0  0  0
   16.7783    0.3420  -13.2325 C   0  0  0  1  0  0  0  0  0  0  0  0
   17.4573    0.7085  -12.4911 H   0  0  0  1  0  0  0  0  0  0  0  0
   17.2701    0.2811  -14.1808 H   0  0  0  1  0  0  0  0  0  0  0  0
   16.4199   -0.6267  -12.9532 H   0  0  0  1  0  0  0  0  0  0  0  0
   16.1867   -5.0843   -1.6802 C   0  0  0  1  0  0  0  0  0  0  0  0
   16.5111   -5.5954   -0.7980 H   0  0  0  1  0  0  0  0  0  0  0  0
   14.8905   -5.7084   -2.1809 C   0  0  0  1  0  0  0  0  0  0  0  0
   15.0602   -6.7321   -2.4420 H   0  0  0  1  0  0  0  0  0  0  0  0
   15.9652   -3.7048   -1.3775 O   0  0  0  1  0  0  0  0  0  0  0  0
   14.4223   -4.9311   -3.4151 C   0  0  0  1  0  0  0  0  0  0  0  0
   13.4471   -5.2761   -3.6887 H   0  0  0  1  0  0  0  0  0  0  0  0
   15.6539   -2.9327   -2.5475 C   0  0  0  1  0  0  0  0  0  0  0  0
   16.4478   -3.0296   -3.2584 H   0  0  0  1  0  0  0  0  0  0  0  0
   14.3578   -3.4339   -3.1669 C   0  0  0  1  0  0  0  0  0  0  0  0
   14.1962   -2.9309   -4.0973 H   0  0  0  1  0  0  0  0  0  0  0  0
   17.1859   -5.1942   -2.6873 O   0  0  0  1  0  0  0  0  0  0  0  0
   13.8946   -5.6356   -1.1591 O   0  0  0  1  0  0  0  0  0  0  0  0
   13.8181   -6.4884   -0.7248 H   0  0  0  1  0  0  0  0  0  0  0  0
   15.3286   -5.1779   -4.4802 O   0  0  0  1  0  0  0  0  0  0  0  0
   14.8450   -5.2246   -5.3082 H   0  0  0  1  0  0  0  0  0  0  0  0
   15.4942   -1.4593   -2.1568 C   0  0  0  1  0  0  0  0  0  0  0  0
   16.0357   -1.2686   -1.2538 H   0  0  0  1  0  0  0  0  0  0  0  0
   14.4579   -1.2415   -2.0036 H   0  0  0  1  0  0  0  0  0  0  0  0
   15.8776   -0.8393   -2.9400 H   0  0  0  1  0  0  0  0  0  0  0  0
   19.5278   -6.8720   -3.1769 C   0  0  0  1  0  0  0  0  0  0  0  0
   18.6021   -7.1656   -3.6260 H   0  0  0  1  0  0  0  0  0  0  0  0
   19.2514   -6.1028   -1.9140 C   0  0  0  1  0  0  0  0  0  0  0  0
   20.1780   -5.8492   -1.4429 H   0  0  0  1  0  0  0  0  0  0  0  0
   20.2500   -6.0532   -4.0763 O   0  0  0  1  0  0  0  0  0  0  0  0
   18.4972   -4.8460   -2.2380 C   0  0  0  1  0  0  0  0  0  0  0  0
   18.4246   -4.2466   -1.3546 H   0  0  0  1  0  0  0  0  0  0  0  0
   19.4597   -4.9345   -4.5171 C   0  0  0  1  0  0  0  0  0  0  0  0
   19.9946   -4.3838   -5.2624 H   0  0  0  1  0  0  0  0  0  0  0  0
   19.1899   -4.0474   -3.3175 C   0  0  0  1  0  0  0  0  0  0  0  0
   18.5641   -3.2312   -3.6127 H   0  0  0  1  0  0  0  0  0  0  0  0
   18.4569   -6.9239   -1.0127 N   0  0  0  1  0  0  0  0  0  0  0  0
   17.4847   -6.9532   -1.1327 H   0  0  0  1  0  0  0  0  0  0  0  0
   20.4230   -3.5434   -2.8152 O   0  0  0  1  0  0  0  0  0  0  0  0
   20.7462   -4.1931   -2.1866 H   0  0  0  1  0  0  0  0  0  0  0  0
   18.1610   -5.4235   -5.0909 C   0  0  0  1  0  0  0  0  0  0  0  0
   17.3525   -5.0940   -4.4723 H   0  0  0  1  0  0  0  0  0  0  0  0
   18.1691   -6.4928   -5.1286 H   0  0  0  1  0  0  0  0  0  0  0  0
   17.9924   -4.9047   -6.4066 O   0  0  0  1  0  0  0  0  0  0  0  0
   18.6836   -4.2575   -6.5651 H   0  0  0  1  0  0  0  0  0  0  0  0
   19.0091   -7.6422   -0.0231 C   0  0  0  1  0  0  0  0  0  0  0  0
   20.2067   -7.7078    0.2028 O   0  0  0  1  0  0  0  0  0  0  0  0
   17.9938   -8.3958    0.8265 C   0  0  0  1  0  0  0  0  0  0  0  0
   17.1483   -7.7417    0.8738 H   0  0  0  1  0  0  0  0  0  0  0  0
   18.3835   -8.5820    1.8055 H   0  0  0  1  0  0  0  0  0  0  0  0
   17.7289   -9.3241    0.3651 H   0  0  0  1  0  0  0  0  0  0  0  0
  1  2  1  0  0  0  0
  1  3  1  0  0  0  0
  1  4  1  0  0  0  0
  1 44  1  0  0  0  0
  3 20  1  0  0  0  0
  4  5  1  0  0  0  0
  4  6  1  0  0  0  0
  4  8  1  0  0  0  0
  6  7  1  0  0  0  0
  8  9  1  0  0  0  0
  8 10  1  0  0  0  0
  8 20  1  0  0  0  0
 10 11  1  0  0  0  0
 12 13  1  0  0  0  0
 12 14  1  0  0  0  0
 12 15  1  0  0  0  0
 12 17  1  0  0  0  0
 15 16  1  0  0  0  0
 17 18  1  0  0  0  0
 17 19  1  0  0  0  0
 17 20  1  0  0  0  0
 19 22  1  0  0  0  0
 20 21  1  0  0  0  0
 22 23  1  0  0  0  0
 22 24  1  0  0  0  0
 22 25  1  0  0  0  0
 24 42  1  0  0  0  0
 25 26  1  0  0  0  0
 25 27  1  0  0  0  0
 25 29  1  0  0  0  0
 27 28  1  0  0  0  0
 29 30  1  0  0  0  0
 29 31  1  0  0  0  0
 29 42  1  0  0  0  0
 31 32  1  0  0  0  0
 33 34  1  0  0  0  0
 33 35  1  0  0  0  0
 33 36  1  0  0  0  0
 33 38  1  0  0  0  0
 36 37  1  0  0  0  0
 38 39  1  0  0  0  0
 38 40  1  0  0  0  0
 38 42  1  0  0  0  0
 40 41  1  0  0  0  0
 42 43  1  0  0  0  0
 44194  1  0  0  0  0
 45 46  1  0  0  0  0
 45 54  1  0  0  0  0
 46 47  1  0  0  0  0
 46 48  1  0  0  0  0
 46 49  2  0  0  0  0
 47 50  1  0  0  0  0
 50 51  1  0  0  0  0
 50 52  1  0  0  0  0
 50 53  2  0  0  0  0
 51205  1  0  0  0  0
 54 55  1  0  0  0  0
 54 56  1  0  0  0  0
 54 57  1  0  0  0  0
 57 58  1  0  0  0  0
 57 59  2  0  0  0  0
 59 60  1  0  0  0  0
 59 64  1  0  0  0  0
 60 61  1  0  0  0  0
 60 62  1  0  0  0  0
 60 63  1  0  0  0  0
 64 65  1  0  0  0  0
 64 66  1  0  0  0  0
 64 67  1  0  0  0  0
 67 68  1  0  0  0  0
 67 69  1  0  0  0  0
 67 70  1  0  0  0  0
 70 71  1  0  0  0  0
 70 72  2  0  0  0  0
 72 73  1  0  0  0  0
 72 77  1  0  0  0  0
 73 74  1  0  0  0  0
 73 75  1  0  0  0  0
 73 76  1  0  0  0  0
 77 78  1  0  0  0  0
 77 79  1  0  0  0  0
 77 80  1  0  0  0  0
 80 81  1  0  0  0  0
 80 82  1  0  0  0  0
 80 83  1  0  0  0  0
 83 84  1  0  0  0  0
 83 85  2  0  0  0  0
 85 86  1  0  0  0  0
 85 89  1  0  0  0  0
 86 87  1  0  0  0  0
 86 88  1  0  0  0  0
 86 93  1  0  0  0  0
 89 90  1  0  0  0  0
 89 91  1  0  0  0  0
 89 92  1  0  0  0  0
 93 94  1  0  0  0  0
 93 95  1  0  0  0  0
 93 96  1  0  0  0  0
 96 97  1  0  0  0  0
 96 98  2  0  0  0  0
 98 99  1  0  0  0  0
 98102  1  0  0  0  0
 99100  1  0  0  0  0
 99101  1  0  0  0  0
 99106  1  0  0  0  0
102103  1  0  0  0  0
102104  1  0  0  0  0
102105  1  0  0  0  0
106107  1  0  0  0  0
106108  1  0  0  0  0
106109  1  0  0  0  0
109110  1  0  0  0  0
109111  2  0  0  0  0
111112  1  0  0  0  0
111115  1  0  0  0  0
112113  1  0  0  0  0
112114  1  0  0  0  0
112119  1  0  0  0  0
115116  1  0  0  0  0
115117  1  0  0  0  0
115118  1  0  0  0  0
119120  1  0  0  0  0
119121  1  0  0  0  0
119122  1  0  0  0  0
122123  1  0  0  0  0
122124  2  0  0  0  0
124125  1  0  0  0  0
124128  1  0  0  0  0
125126  1  0  0  0  0
125127  1  0  0  0  0
125132  1  0  0  0  0
128129  1  0  0  0  0
128130  1  0  0  0  0
128131  1  0  0  0  0
132133  1  0  0  0  0
132134  1  0  0  0  0
132135  1  0  0  0  0
135136  1  0  0  0  0
135137  2  0  0  0  0
137138  1  0  0  0  0
137141  1  0  0  0  0
138139  1  0  0  0  0
138140  1  0  0  0  0
138145  1  0  0  0  0
141142  1  0  0  0  0
141143  1  0  0  0  0
141144  1  0  0  0  0
145146  1  0  0  0  0
145147  1  0  0  0  0
145148  1  0  0  0  0
148149  1  0  0  0  0
148150  2  0  0  0  0
150151  1  0  0  0  0
150154  1  0  0  0  0
151152  1  0  0  0  0
151153  1  0  0  0  0
151158  1  0  0  0  0
154155  1  0  0  0  0
154156  1  0  0  0  0
154157  1  0  0  0  0
158159  1  0  0  0  0
158160  1  0  0  0  0
158161  1  0  0  0  0
161162  1  0  0  0  0
161163  2  0  0  0  0
163164  1  0  0  0  0
163167  1  0  0  0  0
164165  1  0  0  0  0
164166  1  0  0  0  0
164171  1  0  0  0  0
167168  1  0  0  0  0
167169  1  0  0  0  0
167170  1  0  0  0  0
171172  1  0  0  0  0
171173  1  0  0  0  0
171174  1  0  0  0  0
174175  1  0  0  0  0
174176  2  0  0  0  0
176177  1  0  0  0  0
176181  1  0  0  0  0
177178  1  0  0  0  0
177179  1  0  0  0  0
177180  1  0  0  0  0
181182  1  0  0  0  0
181183  1  0  0  0  0
181184  1  0  0  0  0
185186  1  0  0  0  0
185187  1  0  0  0  0
185189  1  0  0  0  0
185196  1  0  0  0  0
187188  1  0  0  0  0
187190  1  0  0  0  0
187197  1  0  0  0  0
189192  1  0  0  0  0
190191  1  0  0  0  0
190194  1  0  0  0  0
190199  1  0  0  0  0
192193  1  0  0  0  0
192194  1  0  0  0  0
192201  1  0  0  0  0
194195  1  0  0  0  0
196210  1  0  0  0  0
197198  1  0  0  0  0
199200  1  0  0  0  0
201202  1  0  0  0  0
201203  1  0  0  0  0
201204  1  0  0  0  0
205206  1  0  0  0  0
205207  1  0  0  0  0
205209  1  0  0  0  0
207208  1  0  0  0  0
207210  1  0  0  0  0
207216  1  0  0  0  0
209212  1  0  0  0  0
210211  1  0  0  0  0
210214  1  0  0  0  0
212213  1  0  0  0  0
212214  1  0  0  0  0
212220  1  0  0  0  0
214215  1  0  0  0  0
214218  1  0  0  0  0
216217  1  0  0  0  0
216225  1  0  0  0  0
218219  1  0  0  0  0
220221  1  0  0  0  0
220222  1  0  0  0  0
220223  1  0  0  0  0
223224  1  0  0  0  0
225226  2  0  0  0  0
225227  1  0  0  0  0
227228  1  0  0  0  0
227229  1  0  0  0  0
227230  1  0  0  0  0
M  BCL ATM C_TeTeTeTe H_S O_Te2Te2TeTe C_TeTeTeTe H_S O_Te2Te2TeTe H_S C_TeTeTeTe H_S O_Te2Te2TeTe H_S C_TeTeTeTe H_S H_S O_Te2Te2TeTe H_S C_TeTeTeTe H_S O_Te2Te2TeTe C_TeTeTeTe H_S C_TeTeTeTe H_S O_Te2Te2TeTe C_TeTeTeTe H_S O_Te2Te2TeTe H_S C_TeTeTeTe H_S O_Te2Te2TeTe H_S C_TeTeTeTe H_S H_S O_Te2Te2TeTe H_S C_TeTeTeTe H_S O_Te2Te2TeTe H_S C_TeTeTeTe H_S O_Te2Te2TeTe O_Tr2TrTrPi2 P_TeTeTeTePi O_Tr2TrTrPi2 O_Te2Te2TeTe O_Tr2Tr2TrPi P_TeTeTeTePi O_Tr2TrTrPi2 O_Te2Te2TeTe O_Tr2Tr2TrPi C_TeTeTeTe H_S H_S C_TrTrTrPi H_S C_TrTrTrPi C_TeTeTeTe H_S H_S H_S C_TeTeTeTe H_S H_S C_TeTeTeTe H_S H_S C_TrTrTrPi H_S C_TrTrTrPi C_TeTeTeTe H_S H_S H_S C_TeTeTeTe H_S H_S C_TeTeTeTe H_S H_S C_TrTrTrPi H_S C_TrTrTrPi C_TeTeTeTe H_S H_S C_TeTeTeTe H_S H_S H_S C_TeTeTeTe H_S H_S C_TrTrTrPi H_S C_TrTrTrPi C_TeTeTeTe H_S H_S C_TeTeTeTe H_S H_S H_S C_TeTeTeTe H_S H_S C_TrTrTrPi H_S C_TrTrTrPi C_TeTeTeTe H_S H_S C_TeTeTeTe H_S H_S H_S C_TeTeTeTe H_S H_S C_TrTrTrPi H_S C_TrTrTrPi C_TeTeTeTe H_S H_S C_TeTeTeTe H_S H_S H_S C_TeTeTeTe H_S H_S C_TrTrTrPi H_S C_TrTrTrPi C_TeTeTeTe H_S H_S C_TeTeTeTe H_S H_S H_S C_TeTeTeTe H_S H_S C_TrTrTrPi H_S C_TrTrTrPi C_TeTeTeTe H_S H_S C_TeTeTeTe H_S H_S H_S C_TeTeTeTe H_S H_S C_TrTrTrPi H_S C_TrTrTrPi C_TeTeTeTe H_S H_S C_TeTeTeTe H_S H_S H_S C_TeTeTeTe H_S H_S C_TrTrTrPi H_S C_TrTrTrPi C_TeTeTeTe H_S H_S H_S C_TeTeTeTe H_S H_S H_S C_TeTeTeTe H_S C_TeTeTeTe H_S O_Te2Te2TeTe C_TeTeTeTe H_S C_TeTeTeTe H_S C_TeTeTeTe H_S O_Te2Te2TeTe O_Te2Te2TeTe H_S O_Te2Te2TeTe H_S C_TeTeTeTe H_S H_S H_S C_TeTeTeTe H_S C_TeTeTeTe H_S O_Te2Te2TeTe C_TeTeTeTe H_S C_TeTeTeTe H_S C_TeTeTeTe H_S N_TrTrTrPi2 H_S O_Te2Te2TeTe H_S C_TeTeTeTe H_S H_S O_Te2Te2TeTe H_S C_TrTrTrPi O_Tr2Tr2TrPi C_TeTeTeTe H_S H_S H_S
M  BCL BND NonConjugatedSingleBond NonConjugatedSingleBondInRing NonConjugatedSingleBondInRing NonConjugatedSingleBond NonConjugatedSingleBondInRing NonConjugatedSingleBond NonConjugatedSingleBond NonConjugatedSingleBondInRing NonConjugatedSingleBond NonConjugatedSingleBond NonConjugatedSingleBond NonConjugatedSingleBondInRing NonConjugatedSingleBond NonConjugatedSingleBond NonConjugatedSingleBond NonConjugatedSingleBond NonConjugatedSingleBond NonConjugatedSingleBond NonConjugatedSingleBond NonConjugatedSingleBond NonConjugatedSingleBond NonConjugatedSingleBond NonConjugatedSingleBond NonConjugatedSingleBond NonConjugatedSingleBondInRing NonConjugatedSingleBondInRing NonConjugatedSingleBondInRing NonConjugatedSingleBond NonConjugatedSingleBond NonConjugatedSingleBondInRing NonConjugatedSingleBond NonConjugatedSingleBond NonConjugatedSingleBond NonConjugatedSingleBondInRing NonConjugatedSingleBond NonConjugatedSingleBond NonConjugatedSingleBond NonConjugatedSingleBond NonConjugatedSingleBond NonConjugatedSingleBond NonConjugatedSingleBond NonConjugatedSingleBond NonConjugatedSingleBond NonConjugatedSingleBond NonConjugatedSingleBond NonConjugatedSingleBond ConjugatedSingleBond NonConjugatedSingleBond ConjugatedSingleBond ConjugatedSingleBond ConjugatedDoubleBond ConjugatedSingleBond ConjugatedSingleBond ConjugatedSingleBond ConjugatedDoubleBond NonConjugatedSingleBond NonConjugatedSingleBond NonConjugatedSingleBond NonConjugatedSingleBond NonConjugatedSingleBond ConjugatedDoubleBond NonConjugatedSingleBond NonConjugatedSingleBond NonConjugatedSingleBond NonConjugatedSingleBond NonConjugatedSingleBond NonConjugatedSingleBond NonConjugatedSingleBond NonConjugatedSingleBond NonConjugatedSingleBond NonConjugatedSingleBond NonConjugatedSingleBond NonConjugatedSingleBond ConjugatedDoubleBond NonConjugatedSingleBond NonConjugatedSingleBond NonConjugatedSingleBond NonConjugatedSingleBond NonConjugatedSingleBond NonConjugatedSingleBond NonConjugatedSingleBond NonConjugatedSingleBond NonConjugatedSingleBond NonConjugatedSingleBond NonConjugatedSingleBond NonConjugatedSingleBond ConjugatedDoubleBond NonConjugatedSingleBond NonConjugatedSingleBond NonConjugatedSingleBond NonConjugatedSingleBond NonConjugatedSingleBond NonConjugatedSingleBond NonConjugatedSingleBond NonConjugatedSingleBond NonConjugatedSingleBond NonConjugatedSingleBond NonConjugatedSingleBond NonConjugatedSingleBond ConjugatedDoubleBond NonConjugatedSingleBond NonConjugatedSingleBond NonConjugatedSingleBond NonConjugatedSingleBond NonConjugatedSingleBond NonConjugatedSingleBond NonConjugatedSingleBond NonConjugatedSingleBond NonConjugatedSingleBond NonConjugatedSingleBond NonConjugatedSingleBond NonConjugatedSingleBond ConjugatedDoubleBond NonConjugatedSingleBond NonConjugatedSingleBond NonConjugatedSingleBond NonConjugatedSingleBond NonConjugatedSingleBond NonConjugatedSingleBond NonConjugatedSingleBond NonConjugatedSingleBond NonConjugatedSingleBond NonConjugatedSingleBond NonConjugatedSingleBond NonConjugatedSingleBond ConjugatedDoubleBond NonConjugatedSingleBond NonConjugatedSingleBond NonConjugatedSingleBond NonConjugatedSingleBond NonConjugatedSingleBond NonConjugatedSingleBond NonConjugatedSingleBond NonConjugatedSingleBond NonConjugatedSingleBond NonConjugatedSingleBond NonConjugatedSingleBond NonConjugatedSingleBond ConjugatedDoubleBond NonConjugatedSingleBond NonConjugatedSingleBond NonConjugatedSingleBond NonConjugatedSingleBond NonConjugatedSingleBond NonConjugatedSingleBond NonConjugatedSingleBond NonConjugatedSingleBond NonConjugatedSingleBond NonConjugatedSingleBond NonConjugatedSingleBond NonConjugatedSingleBond ConjugatedDoubleBond NonConjugatedSingleBond NonConjugatedSingleBond NonConjugatedSingleBond NonConjugatedSingleBond NonConjugatedSingleBond NonConjugatedSingleBond NonConjugatedSingleBond NonConjugatedSingleBond NonConjugatedSingleBond NonConjugatedSingleBond NonConjugatedSingleBond NonConjugatedSingleBond ConjugatedDoubleBond NonConjugatedSingleBond NonConjugatedSingleBond NonConjugatedSingleBond NonConjugatedSingleBond NonConjugatedSingleBond NonConjugatedSingleBond NonConjugatedSingleBond NonConjugatedSingleBond NonConjugatedSingleBond NonConjugatedSingleBond NonConjugatedSingleBond NonConjugatedSingleBond ConjugatedDoubleBond NonConjugatedSingleBond NonConjugatedSingleBond NonConjugatedSingleBond NonConjugatedSingleBond NonConjugatedSingleBond NonConjugatedSingleBond NonConjugatedSingleBond NonConjugatedSingleBond NonConjugatedSingleBond NonConjugatedSingleBondInRing NonConjugatedSingleBondInRing NonConjugatedSingleBond NonConjugatedSingleBond NonConjugatedSingleBondInRing NonConjugatedSingleBond NonConjugatedSingleBondInRing NonConjugatedSingleBond NonConjugatedSingleBondInRing NonConjugatedSingleBond NonConjugatedSingleBond NonConjugatedSingleBondInRing NonConjugatedSingleBond NonConjugatedSingleBond NonConjugatedSingleBond NonConjugatedSingleBond NonConjugatedSingleBond NonConjugatedSingleBond NonConjugatedSingleBond NonConjugatedSingleBond NonConjugatedSingleBond NonConjugatedSingleBondInRing NonConjugatedSingleBondInRing NonConjugatedSingleBond NonConjugatedSingleBondInRing NonConjugatedSingleBond NonConjugatedSingleBondInRing NonConjugatedSingleBond NonConjugatedSingleBondInRing NonConjugatedSingleBond NonConjugatedSingleBondInRing NonConjugatedSingleBond NonConjugatedSingleBond NonConjugatedSingleBond NonConjugatedSingleBond AmideSingleBond NonConjugatedSingleBond NonConjugatedSingleBond NonConjugatedSingleBond NonConjugatedSingleBond NonConjugatedSingleBond ConjugatedDoubleBond NonConjugatedSingleBond NonConjugatedSingleBond NonConjugatedSingleBond NonConjugatedSingleBond
M  BCL CHI   1   R   4   R   8   R  17   S  20   R  22   S  25   R  29   S  38   S  42   R  46   R  50   S 185   R 187   S 190   S 192   R 194   R 205   R 207   S 210   R 212   S 214   S
M  BCL DBI - - E E E E E E E E Z - -
M  END
> <ConfClashScore>
0.00404031 

> <ConfOneFourInteractionScore>
-0.95883 

> <ConfScore>
0.639257 

> <ConfScorePBest>
0.0114935 

> <ConfTolerance>
2.87251 

$$$$
L05.****
  PyMOL2.5          3D                             0

230233  0  0  0  0  0  0  0  0999 V2000
   12.1156   -3.9476   -2.4720 C   0  0  0  1  0  0  0  0  0  0  0  0
   12.3266   -4.9914   -2.3680 H   0  0  0  1  0  0  0  0  0  0  0  0
   11.6053   -3.6736   -3.7598 O   0  0  0  1  0  0  0  0  0  0  0  0
   11.0233   -3.5286   -1.5047 C   0  0  0  1  0  0  0  0  0  0  0  0
   11.4336   -3.2346   -0.5612 H   0  0  0  1  0  0  0  0  0  0  0  0
   10.0773   -4.5803   -1.3063 O   0  0  0  1  0  0  0  0  0  0  0  0
    9.9536   -4.7268   -0.3656 H   0  0  0  1  0  0  0  0  0  0  0  0
   10.3956   -2.3572   -2.2151 C   0  0  0  1  0  0  0  0  0  0  0  0
    9.3933   -2.1891   -1.8804 H   0  0  0  1  0  0  0  0  0  0  0  0
   11.1641   -1.1665   -2.0365 O   0  0  0  1  0  0  0  0  0  0  0  0
   10.7881   -0.4600   -2.5667 H   0  0  0  1  0  0  0  0  0  0  0  0
    7.9451   -2.8118   -3.6157 C   0  0  0  1  0  0  0  0  0  0  0  0
    7.2501   -2.8310   -4.4290 H   0  0  0  1  0  0  0  0  0  0  0  0
    7.4970   -3.2577   -2.7524 H   0  0  0  1  0  0  0  0  0  0  0  0
    8.2613   -1.4584   -3.3178 O   0  0  0  1  0  0  0  0  0  0  0  0
    7.9537   -1.2444   -2.4340 H   0  0  0  1  0  0  0  0  0  0  0  0
    9.1697   -3.6219   -4.0021 C   0  0  0  1  0  0  0  0  0  0  0  0
    9.1463   -3.7526   -5.0638 H   0  0  0  1  0  0  0  0  0  0  0  0
    9.1439   -4.9044   -3.3845 O   0  0  0  1  0  0  0  0  0  0  0  0
   10.4264   -2.8281   -3.6685 C   0  0  0  1  0  0  0  0  0  0  0  0
   10.5087   -1.9936   -4.3333 H   0  0  0  1  0  0  0  0  0  0  0  0
    8.4692   -5.9272   -4.0898 C   0  0  0  1  0  0  0  0  0  0  0  0
    8.8805   -6.0135   -5.0739 H   0  0  0  1  0  0  0  0  0  0  0  0
    8.5608   -7.1466   -3.4046 O   0  0  0  1  0  0  0  0  0  0  0  0
    6.9620   -5.6408   -4.1535 C   0  0  0  1  0  0  0  0  0  0  0  0
    6.7194   -5.0378   -5.0034 H   0  0  0  1  0  0  0  0  0  0  0  0
    6.5104   -4.9919   -2.9639 O   0  0  0  1  0  0  0  0  0  0  0  0
    5.9906   -5.6067   -2.4410 H   0  0  0  1  0  0  0  0  0  0  0  0
    6.3684   -7.0194   -4.2787 C   0  0  0  1  0  0  0  0  0  0  0  0
    6.3526   -7.3392   -5.2997 H   0  0  0  1  0  0  0  0  0  0  0  0
    5.0467   -7.0569   -3.7482 O   0  0  0  1  0  0  0  0  0  0  0  0
    4.5812   -7.8186   -4.1011 H   0  0  0  1  0  0  0  0  0  0  0  0
    6.2183   -9.8590   -4.5684 C   0  0  0  1  0  0  0  0  0  0  0  0
    5.5515   -9.9500   -3.7366 H   0  0  0  1  0  0  0  0  0  0  0  0
    5.7719   -9.2394   -5.3179 H   0  0  0  1  0  0  0  0  0  0  0  0
    6.4744  -11.1463   -5.1113 O   0  0  0  1  0  0  0  0  0  0  0  0
    5.6956  -11.4580   -5.5779 H   0  0  0  1  0  0  0  0  0  0  0  0
    7.5239   -9.2297   -4.1037 C   0  0  0  1  0  0  0  0  0  0  0  0
    8.1360   -9.0779   -4.9681 H   0  0  0  1  0  0  0  0  0  0  0  0
    8.1880  -10.1344   -3.2221 O   0  0  0  1  0  0  0  0  0  0  0  0
    9.0303   -9.7601   -2.9538 H   0  0  0  1  0  0  0  0  0  0  0  0
    7.3190   -7.8852   -3.4466 C   0  0  0  1  0  0  0  0  0  0  0  0
    6.9319   -8.0255   -2.4590 H   0  0  0  1  0  0  0  0  0  0  0  0
   13.3017   -3.1974   -2.2374 O   0  0  0  1  0  0  0  0  0  0  0  0
   19.9877  -10.5230    1.2300 O   0  0  0  1  0  0  0  0  0  0  0  0
   18.9754   -9.9591    0.1263 P   0  0  0  1  0  0  0  0  0  0  0  0
   18.9802   -8.3675    0.3502 O   0  0  0  1  0  0  0  0  0  0  0  0
   17.5868  -10.3638    0.4250 O   0  0  0  0  0  0  0  0  0  0  0  0
   19.5881  -10.3038   -1.1667 O   0  0  0  1  0  0  0  0  0  0  0  0
   20.2203   -7.4339    0.7638 P   0  0  0  1  0  0  0  0  0  0  0  0
   20.7003   -6.9527   -0.6516 O   0  0  0  1  0  0  0  0  0  0  0  0
   21.2668   -8.2434    1.4685 O   0  0  0  0  0  0  0  0  0  0  0  0
   19.7266   -6.2243    1.4961 O   0  0  0  1  0  0  0  0  0  0  0  0
   19.8363  -10.2759    2.6251 C   0  0  0  1  0  0  0  0  0  0  0  0
   18.8493  -10.5722    2.9132 H   0  0  0  1  0  0  0  0  0  0  0  0
   19.9581   -9.2265    2.7952 H   0  0  0  1  0  0  0  0  0  0  0  0
   20.8190  -11.0096    3.4895 C   0  0  0  1  0  0  0  0  0  0  0  0
   20.8377  -12.0451    3.3940 H   0  0  0  1  0  0  0  0  0  0  0  0
   21.6672  -10.4805    4.3632 C   0  0  0  1  0  0  0  0  0  0  0  0
   22.8139  -11.2763    4.9193 C   0  0  0  1  0  0  0  0  0  0  0  0
   23.6774  -11.1372    4.3029 H   0  0  0  1  0  0  0  0  0  0  0  0
   22.5522  -12.3137    4.9373 H   0  0  0  1  0  0  0  0  0  0  0  0
   23.0287  -10.9448    5.9137 H   0  0  0  1  0  0  0  0  0  0  0  0
   21.5739   -9.0693    4.8748 C   0  0  0  1  0  0  0  0  0  0  0  0
   21.6984   -8.3991    4.0500 H   0  0  0  1  0  0  0  0  0  0  0  0
   22.3589   -8.9117    5.5846 H   0  0  0  1  0  0  0  0  0  0  0  0
   20.2451   -8.7665    5.5478 C   0  0  0  1  0  0  0  0  0  0  0  0
   20.0929   -9.4922    6.3193 H   0  0  0  1  0  0  0  0  0  0  0  0
   19.4736   -8.8601    4.8123 H   0  0  0  1  0  0  0  0  0  0  0  0
   20.1334   -7.4123    6.1617 C   0  0  0  1  0  0  0  0  0  0  0  0
   20.7666   -7.2379    6.9681 H   0  0  0  1  0  0  0  0  0  0  0  0
   19.3440   -6.3942    5.8308 C   0  0  0  1  0  0  0  0  0  0  0  0
   19.5099   -4.9734    6.2903 C   0  0  0  1  0  0  0  0  0  0  0  0
   19.3239   -4.3094    5.4721 H   0  0  0  1  0  0  0  0  0  0  0  0
   20.5082   -4.8284    6.6471 H   0  0  0  1  0  0  0  0  0  0  0  0
   18.8158   -4.7704    7.0789 H   0  0  0  1  0  0  0  0  0  0  0  0
   18.1715   -6.6371    4.9207 C   0  0  0  1  0  0  0  0  0  0  0  0
   18.2625   -7.6092    4.4831 H   0  0  0  1  0  0  0  0  0  0  0  0
   18.1677   -5.8966    4.1483 H   0  0  0  1  0  0  0  0  0  0  0  0
   16.8646   -6.5584    5.6929 C   0  0  0  1  0  0  0  0  0  0  0  0
   16.6199   -5.5310    5.8647 H   0  0  0  1  0  0  0  0  0  0  0  0
   16.9807   -7.0597    6.6311 H   0  0  0  1  0  0  0  0  0  0  0  0
   15.7554   -7.2050    4.9254 C   0  0  0  1  0  0  0  0  0  0  0  0
   15.9205   -8.1806    4.6053 H   0  0  0  1  0  0  0  0  0  0  0  0
   14.5821   -6.6680    4.6083 C   0  0  0  1  0  0  0  0  0  0  0  0
   14.0384   -5.4206    5.2421 C   0  0  0  1  0  0  0  0  0  0  0  0
   14.7584   -5.0860    5.9595 H   0  0  0  1  0  0  0  0  0  0  0  0
   13.1311   -5.6856    5.7435 H   0  0  0  1  0  0  0  0  0  0  0  0
   13.6910   -7.2843    3.5668 C   0  0  0  1  0  0  0  0  0  0  0  0
   13.1979   -8.1395    3.9794 H   0  0  0  1  0  0  0  0  0  0  0  0
   14.2805   -7.5841    2.7256 H   0  0  0  1  0  0  0  0  0  0  0  0
   12.9604   -6.5680    3.2538 H   0  0  0  1  0  0  0  0  0  0  0  0
   13.7270   -4.2463    4.3286 C   0  0  0  1  0  0  0  0  0  0  0  0
   12.8178   -4.4544    3.8043 H   0  0  0  1  0  0  0  0  0  0  0  0
   14.5276   -4.1391    3.6268 H   0  0  0  1  0  0  0  0  0  0  0  0
   13.5648   -2.9476    5.0723 C   0  0  0  1  0  0  0  0  0  0  0  0
   14.2079   -2.7657    5.8691 H   0  0  0  1  0  0  0  0  0  0  0  0
   12.6611   -2.0163    4.7866 C   0  0  0  1  0  0  0  0  0  0  0  0
   11.4619   -2.2550    3.8919 C   0  0  0  1  0  0  0  0  0  0  0  0
   11.7901   -2.6033    2.9349 H   0  0  0  1  0  0  0  0  0  0  0  0
   10.9149   -1.3433    3.7717 H   0  0  0  1  0  0  0  0  0  0  0  0
   12.7635   -0.6261    5.3423 C   0  0  0  1  0  0  0  0  0  0  0  0
   12.9148    0.0681    4.5422 H   0  0  0  1  0  0  0  0  0  0  0  0
   13.5892   -0.5733    6.0208 H   0  0  0  1  0  0  0  0  0  0  0  0
   11.8596   -0.3817    5.8600 H   0  0  0  1  0  0  0  0  0  0  0  0
   10.5733   -3.3034    4.5411 C   0  0  0  1  0  0  0  0  0  0  0  0
   10.2240   -2.9213    5.4775 H   0  0  0  1  0  0  0  0  0  0  0  0
   11.1549   -4.1856    4.7098 H   0  0  0  1  0  0  0  0  0  0  0  0
    9.3939   -3.6656    3.7074 C   0  0  0  1  0  0  0  0  0  0  0  0
    9.5284   -3.4880    2.6916 H   0  0  0  1  0  0  0  0  0  0  0  0
    8.1979   -4.1737    4.0105 C   0  0  0  1  0  0  0  0  0  0  0  0
    7.6952   -4.1880    5.4249 C   0  0  0  1  0  0  0  0  0  0  0  0
    8.3604   -3.6067    6.0286 H   0  0  0  1  0  0  0  0  0  0  0  0
    7.6881   -5.1995    5.7736 H   0  0  0  1  0  0  0  0  0  0  0  0
    7.3060   -4.7522    2.9483 C   0  0  0  1  0  0  0  0  0  0  0  0
    7.5601   -4.3288    1.9990 H   0  0  0  1  0  0  0  0  0  0  0  0
    6.2856   -4.5261    3.1777 H   0  0  0  1  0  0  0  0  0  0  0  0
    7.4372   -5.8135    2.9118 H   0  0  0  1  0  0  0  0  0  0  0  0
    6.2929   -3.6183    5.5641 C   0  0  0  1  0  0  0  0  0  0  0  0
    6.1673   -3.2636    6.5658 H   0  0  0  1  0  0  0  0  0  0  0  0
    5.5873   -4.3991    5.3706 H   0  0  0  1  0  0  0  0  0  0  0  0
    6.0231   -2.4886    4.6217 C   0  0  0  1  0  0  0  0  0  0  0  0
    6.8061   -1.8476    4.3813 H   0  0  0  1  0  0  0  0  0  0  0  0
    4.8334   -2.2637    4.0770 C   0  0  0  1  0  0  0  0  0  0  0  0
    3.6456   -3.1277    4.4067 C   0  0  0  1  0  0  0  0  0  0  0  0
    3.9870   -3.9411    5.0122 H   0  0  0  1  0  0  0  0  0  0  0  0
    3.2490   -3.5078    3.4885 H   0  0  0  1  0  0  0  0  0  0  0  0
    4.5537   -1.1567    3.1032 C   0  0  0  1  0  0  0  0  0  0  0  0
    3.7899   -0.5191    3.4969 H   0  0  0  1  0  0  0  0  0  0  0  0
    4.2258   -1.5739    2.1740 H   0  0  0  1  0  0  0  0  0  0  0  0
    5.4459   -0.5879    2.9442 H   0  0  0  1  0  0  0  0  0  0  0  0
    2.5188   -2.4298    5.1509 C   0  0  0  1  0  0  0  0  0  0  0  0
    2.1027   -3.1153    5.8593 H   0  0  0  1  0  0  0  0  0  0  0  0
    1.7674   -2.1470    4.4436 H   0  0  0  1  0  0  0  0  0  0  0  0
    2.9697   -1.2051    5.8818 C   0  0  0  1  0  0  0  0  0  0  0  0
    3.4700   -0.4874    5.3194 H   0  0  0  1  0  0  0  0  0  0  0  0
    2.7987   -0.9321    7.1839 C   0  0  0  1  0  0  0  0  0  0  0  0
    2.0199   -1.8013    8.1281 C   0  0  0  1  0  0  0  0  0  0  0  0
    1.3824   -2.4330    7.5455 H   0  0  0  1  0  0  0  0  0  0  0  0
    1.4229   -1.1644    8.7468 H   0  0  0  1  0  0  0  0  0  0  0  0
    3.3636    0.2796    7.8704 C   0  0  0  1  0  0  0  0  0  0  0  0
    4.1670   -0.0158    8.5124 H   0  0  0  1  0  0  0  0  0  0  0  0
    2.5977    0.7497    8.4511 H   0  0  0  1  0  0  0  0  0  0  0  0
    3.7283    0.9674    7.1364 H   0  0  0  1  0  0  0  0  0  0  0  0
    2.8556   -2.6883    9.0366 C   0  0  0  1  0  0  0  0  0  0  0  0
    3.3241   -2.0826    9.7839 H   0  0  0  1  0  0  0  0  0  0  0  0
    3.6058   -3.1801    8.4534 H   0  0  0  1  0  0  0  0  0  0  0  0
    2.0021   -3.7164    9.7039 C   0  0  0  1  0  0  0  0  0  0  0  0
    1.0406   -3.4474    9.9951 H   0  0  0  1  0  0  0  0  0  0  0  0
    2.4103   -4.9568    9.9436 C   0  0  0  1  0  0  0  0  0  0  0  0
    3.8634   -5.3304    9.8630 C   0  0  0  1  0  0  0  0  0  0  0  0
    4.1093   -5.9277   10.7160 H   0  0  0  1  0  0  0  0  0  0  0  0
    4.4468   -4.4335    9.8749 H   0  0  0  1  0  0  0  0  0  0  0  0
    1.4912   -6.0851   10.3098 C   0  0  0  1  0  0  0  0  0  0  0  0
    1.6483   -6.3560   11.3330 H   0  0  0  1  0  0  0  0  0  0  0  0
    1.6942   -6.9280    9.6828 H   0  0  0  1  0  0  0  0  0  0  0  0
    0.4758   -5.7758   10.1748 H   0  0  0  1  0  0  0  0  0  0  0  0
    4.2077   -6.1150    8.6075 C   0  0  0  1  0  0  0  0  0  0  0  0
    4.0820   -5.4829    7.7533 H   0  0  0  1  0  0  0  0  0  0  0  0
    3.5516   -6.9565    8.5288 H   0  0  0  1  0  0  0  0  0  0  0  0
    5.6223   -6.5987    8.6557 C   0  0  0  1  0  0  0  0  0  0  0  0
    6.3585   -5.8702    8.7495 H   0  0  0  1  0  0  0  0  0  0  0  0
    6.0403   -7.8584    8.5917 C   0  0  0  1  0  0  0  0  0  0  0  0
    7.4883   -8.2609    8.6476 C   0  0  0  1  0  0  0  0  0  0  0  0
    8.0855   -7.3757    8.7159 H   0  0  0  1  0  0  0  0  0  0  0  0
    7.7306   -8.7868    7.7478 H   0  0  0  1  0  0  0  0  0  0  0  0
    5.0757   -8.9999    8.4555 C   0  0  0  1  0  0  0  0  0  0  0  0
    5.0162   -9.2004    7.4062 H   0  0  0  1  0  0  0  0  0  0  0  0
    4.1151   -8.7253    8.8387 H   0  0  0  1  0  0  0  0  0  0  0  0
    5.4373   -9.8594    8.9804 H   0  0  0  1  0  0  0  0  0  0  0  0
    7.8122   -9.1557    9.8330 C   0  0  0  1  0  0  0  0  0  0  0  0
    7.3453  -10.1062    9.6798 H   0  0  0  1  0  0  0  0  0  0  0  0
    7.4185   -8.7030   10.7189 H   0  0  0  1  0  0  0  0  0  0  0  0
    9.2737   -9.3701   10.0197 C   0  0  0  1  0  0  0  0  0  0  0  0
    9.8220   -9.8319    9.2662 H   0  0  0  1  0  0  0  0  0  0  0  0
    9.8907   -8.9826   11.1309 C   0  0  0  1  0  0  0  0  0  0  0  0
   11.2689   -9.4714   11.4696 C   0  0  0  1  0  0  0  0  0  0  0  0
   11.2486   -9.9694   12.4164 H   0  0  0  1  0  0  0  0  0  0  0  0
   11.9400   -8.6395   11.5188 H   0  0  0  1  0  0  0  0  0  0  0  0
   11.6005  -10.1538   10.7150 H   0  0  0  1  0  0  0  0  0  0  0  0
    9.2896   -8.0370   12.1423 C   0  0  0  1  0  0  0  0  0  0  0  0
    8.3386   -7.7259   11.7631 H   0  0  0  1  0  0  0  0  0  0  0  0
    9.9270   -7.1874   12.2726 H   0  0  0  1  0  0  0  0  0  0  0  0
    9.1638   -8.5363   13.0802 H   0  0  0  1  0  0  0  0  0  0  0  0
   16.1186   -5.0202   -1.5224 C   0  0  0  1  0  0  0  0  0  0  0  0
   16.2898   -5.5049   -0.5839 H   0  0  0  1  0  0  0  0  0  0  0  0
   14.9233   -5.6638   -2.1991 C   0  0  0  1  0  0  0  0  0  0  0  0
   15.1868   -6.6602   -2.4863 H   0  0  0  1  0  0  0  0  0  0  0  0
   15.9030   -3.6415   -1.2952 O   0  0  0  1  0  0  0  0  0  0  0  0
   14.4763   -4.9023   -3.4357 C   0  0  0  1  0  0  0  0  0  0  0  0
   13.5200   -5.2673   -3.7474 H   0  0  0  1  0  0  0  0  0  0  0  0
   15.6644   -2.9090   -2.5109 C   0  0  0  1  0  0  0  0  0  0  0  0
   16.4773   -3.0620   -3.1896 H   0  0  0  1  0  0  0  0  0  0  0  0
   14.3709   -3.4167   -3.1360 C   0  0  0  1  0  0  0  0  0  0  0  0
   14.1870   -2.8855   -4.0465 H   0  0  0  1  0  0  0  0  0  0  0  0
   17.2628   -5.1788   -2.3548 O   0  0  0  1  0  0  0  0  0  0  0  0
   13.8386   -5.7062   -1.2701 O   0  0  0  1  0  0  0  0  0  0  0  0
   13.2350   -6.4116   -1.5143 H   0  0  0  1  0  0  0  0  0  0  0  0
   15.4225   -5.1032   -4.4755 O   0  0  0  1  0  0  0  0  0  0  0  0
   15.1188   -5.8070   -5.0535 H   0  0  0  1  0  0  0  0  0  0  0  0
   15.5365   -1.4368   -2.2013 C   0  0  0  1  0  0  0  0  0  0  0  0
   16.4642   -1.0715   -1.8131 H   0  0  0  1  0  0  0  0  0  0  0  0
   14.7642   -1.2911   -1.4752 H   0  0  0  1  0  0  0  0  0  0  0  0
   15.2903   -0.9045   -3.0963 H   0  0  0  1  0  0  0  0  0  0  0  0
   19.8441   -6.2903   -1.5834 C   0  0  0  1  0  0  0  0  0  0  0  0
   19.0947   -6.9722   -1.9272 H   0  0  0  1  0  0  0  0  0  0  0  0
   19.1756   -5.1057   -0.9022 C   0  0  0  1  0  0  0  0  0  0  0  0
   19.9230   -4.4548   -0.4989 H   0  0  0  1  0  0  0  0  0  0  0  0
   20.6115   -5.8353   -2.6891 O   0  0  0  1  0  0  0  0  0  0  0  0
   18.3405   -4.3505   -1.9315 C   0  0  0  1  0  0  0  0  0  0  0  0
   17.9518   -3.4607   -1.4820 H   0  0  0  1  0  0  0  0  0  0  0  0
   19.8100   -5.2327   -3.7213 C   0  0  0  1  0  0  0  0  0  0  0  0
   20.4252   -4.9765   -4.5584 H   0  0  0  1  0  0  0  0  0  0  0  0
   19.1766   -3.9726   -3.1351 C   0  0  0  1  0  0  0  0  0  0  0  0
   18.5544   -3.5089   -3.8718 H   0  0  0  1  0  0  0  0  0  0  0  0
   18.3134   -5.5822    0.1731 N   0  0  0  1  0  0  0  0  0  0  0  0
   18.1813   -6.5493    0.2609 H   0  0  0  1  0  0  0  0  0  0  0  0
   20.1999   -3.0657   -2.7383 O   0  0  0  1  0  0  0  0  0  0  0  0
   20.9376   -3.2105   -3.3352 H   0  0  0  1  0  0  0  0  0  0  0  0
   18.7466   -6.1803   -4.1573 C   0  0  0  1  0  0  0  0  0  0  0  0
   18.5026   -6.8122   -3.3290 H   0  0  0  1  0  0  0  0  0  0  0  0
   19.1366   -6.7745   -4.9571 H   0  0  0  1  0  0  0  0  0  0  0  0
   17.5587   -5.5639   -4.6056 O   0  0  0  1  0  0  0  0  0  0  0  0
   16.9320   -6.2530   -4.8378 H   0  0  0  1  0  0  0  0  0  0  0  0
   17.6922   -4.7843    1.0463 C   0  0  0  1  0  0  0  0  0  0  0  0
   17.9263   -3.5788    1.1213 O   0  0  0  1  0  0  0  0  0  0  0  0
   16.7358   -5.4679    2.0317 C   0  0  0  1  0  0  0  0  0  0  0  0
   17.1979   -5.3342    2.9875 H   0  0  0  1  0  0  0  0  0  0  0  0
   16.6357   -6.5081    1.8020 H   0  0  0  1  0  0  0  0  0  0  0  0
   15.7725   -5.0027    2.0087 H   0  0  0  1  0  0  0  0  0  0  0  0
  1  2  1  0  0  0  0
  1  3  1  0  0  0  0
  1  4  1  0  0  0  0
  1 44  1  0  0  0  0
  3 20  1  0  0  0  0
  4  5  1  0  0  0  0
  4  6  1  0  0  0  0
  4  8  1  0  0  0  0
  6  7  1  0  0  0  0
  8  9  1  0  0  0  0
  8 10  1  0  0  0  0
  8 20  1  0  0  0  0
 10 11  1  0  0  0  0
 12 13  1  0  0  0  0
 12 14  1  0  0  0  0
 12 15  1  0  0  0  0
 12 17  1  0  0  0  0
 15 16  1  0  0  0  0
 17 18  1  0  0  0  0
 17 19  1  0  0  0  0
 17 20  1  0  0  0  0
 19 22  1  0  0  0  0
 20 21  1  0  0  0  0
 22 23  1  0  0  0  0
 22 24  1  0  0  0  0
 22 25  1  0  0  0  0
 24 42  1  0  0  0  0
 25 26  1  0  0  0  0
 25 27  1  0  0  0  0
 25 29  1  0  0  0  0
 27 28  1  0  0  0  0
 29 30  1  0  0  0  0
 29 31  1  0  0  0  0
 29 42  1  0  0  0  0
 31 32  1  0  0  0  0
 33 34  1  0  0  0  0
 33 35  1  0  0  0  0
 33 36  1  0  0  0  0
 33 38  1  0  0  0  0
 36 37  1  0  0  0  0
 38 39  1  0  0  0  0
 38 40  1  0  0  0  0
 38 42  1  0  0  0  0
 40 41  1  0  0  0  0
 42 43  1  0  0  0  0
 44194  1  0  0  0  0
 45 46  1  0  0  0  0
 45 54  1  0  0  0  0
 46 47  1  0  0  0  0
 46 48  1  0  0  0  0
 46 49  2  0  0  0  0
 47 50  1  0  0  0  0
 50 51  1  0  0  0  0
 50 52  1  0  0  0  0
 50 53  2  0  0  0  0
 51205  1  0  0  0  0
 54 55  1  0  0  0  0
 54 56  1  0  0  0  0
 54 57  1  0  0  0  0
 57 58  1  0  0  0  0
 57 59  2  0  0  0  0
 59 60  1  0  0  0  0
 59 64  1  0  0  0  0
 60 61  1  0  0  0  0
 60 62  1  0  0  0  0
 60 63  1  0  0  0  0
 64 65  1  0  0  0  0
 64 66  1  0  0  0  0
 64 67  1  0  0  0  0
 67 68  1  0  0  0  0
 67 69  1  0  0  0  0
 67 70  1  0  0  0  0
 70 71  1  0  0  0  0
 70 72  2  0  0  0  0
 72 73  1  0  0  0  0
 72 77  1  0  0  0  0
 73 74  1  0  0  0  0
 73 75  1  0  0  0  0
 73 76  1  0  0  0  0
 77 78  1  0  0  0  0
 77 79  1  0  0  0  0
 77 80  1  0  0  0  0
 80 81  1  0  0  0  0
 80 82  1  0  0  0  0
 80 83  1  0  0  0  0
 83 84  1  0  0  0  0
 83 85  2  0  0  0  0
 85 86  1  0  0  0  0
 85 89  1  0  0  0  0
 86 87  1  0  0  0  0
 86 88  1  0  0  0  0
 86 93  1  0  0  0  0
 89 90  1  0  0  0  0
 89 91  1  0  0  0  0
 89 92  1  0  0  0  0
 93 94  1  0  0  0  0
 93 95  1  0  0  0  0
 93 96  1  0  0  0  0
 96 97  1  0  0  0  0
 96 98  2  0  0  0  0
 98 99  1  0  0  0  0
 98102  1  0  0  0  0
 99100  1  0  0  0  0
 99101  1  0  0  0  0
 99106  1  0  0  0  0
102103  1  0  0  0  0
102104  1  0  0  0  0
102105  1  0  0  0  0
106107  1  0  0  0  0
106108  1  0  0  0  0
106109  1  0  0  0  0
109110  1  0  0  0  0
109111  2  0  0  0  0
111112  1  0  0  0  0
111115  1  0  0  0  0
112113  1  0  0  0  0
112114  1  0  0  0  0
112119  1  0  0  0  0
115116  1  0  0  0  0
115117  1  0  0  0  0
115118  1  0  0  0  0
119120  1  0  0  0  0
119121  1  0  0  0  0
119122  1  0  0  0  0
122123  1  0  0  0  0
122124  2  0  0  0  0
124125  1  0  0  0  0
124128  1  0  0  0  0
125126  1  0  0  0  0
125127  1  0  0  0  0
125132  1  0  0  0  0
128129  1  0  0  0  0
128130  1  0  0  0  0
128131  1  0  0  0  0
132133  1  0  0  0  0
132134  1  0  0  0  0
132135  1  0  0  0  0
135136  1  0  0  0  0
135137  2  0  0  0  0
137138  1  0  0  0  0
137141  1  0  0  0  0
138139  1  0  0  0  0
138140  1  0  0  0  0
138145  1  0  0  0  0
141142  1  0  0  0  0
141143  1  0  0  0  0
141144  1  0  0  0  0
145146  1  0  0  0  0
145147  1  0  0  0  0
145148  1  0  0  0  0
148149  1  0  0  0  0
148150  2  0  0  0  0
150151  1  0  0  0  0
150154  1  0  0  0  0
151152  1  0  0  0  0
151153  1  0  0  0  0
151158  1  0  0  0  0
154155  1  0  0  0  0
154156  1  0  0  0  0
154157  1  0  0  0  0
158159  1  0  0  0  0
158160  1  0  0  0  0
158161  1  0  0  0  0
161162  1  0  0  0  0
161163  2  0  0  0  0
163164  1  0  0  0  0
163167  1  0  0  0  0
164165  1  0  0  0  0
164166  1  0  0  0  0
164171  1  0  0  0  0
167168  1  0  0  0  0
167169  1  0  0  0  0
167170  1  0  0  0  0
171172  1  0  0  0  0
171173  1  0  0  0  0
171174  1  0  0  0  0
174175  1  0  0  0  0
174176  2  0  0  0  0
176177  1  0  0  0  0
176181  1  0  0  0  0
177178  1  0  0  0  0
177179  1  0  0  0  0
177180  1  0  0  0  0
181182  1  0  0  0  0
181183  1  0  0  0  0
181184  1  0  0  0  0
185186  1  0  0  0  0
185187  1  0  0  0  0
185189  1  0  0  0  0
185196  1  0  0  0  0
187188  1  0  0  0  0
187190  1  0  0  0  0
187197  1  0  0  0  0
189192  1  0  0  0  0
190191  1  0  0  0  0
190194  1  0  0  0  0
190199  1  0  0  0  0
192193  1  0  0  0  0
192194  1  0  0  0  0
192201  1  0  0  0  0
194195  1  0  0  0  0
196210  1  0  0  0  0
197198  1  0  0  0  0
199200  1  0  0  0  0
201202  1  0  0  0  0
201203  1  0  0  0  0
201204  1  0  0  0  0
205206  1  0  0  0  0
205207  1  0  0  0  0
205209  1  0  0  0  0
207208  1  0  0  0  0
207210  1  0  0  0  0
207216  1  0  0  0  0
209212  1  0  0  0  0
210211  1  0  0  0  0
210214  1  0  0  0  0
212213  1  0  0  0  0
212214  1  0  0  0  0
212220  1  0  0  0  0
214215  1  0  0  0  0
214218  1  0  0  0  0
216217  1  0  0  0  0
216225  1  0  0  0  0
218219  1  0  0  0  0
220221  1  0  0  0  0
220222  1  0  0  0  0
220223  1  0  0  0  0
223224  1  0  0  0  0
225226  2  0  0  0  0
225227  1  0  0  0  0
227228  1  0  0  0  0
227229  1  0  0  0  0
227230  1  0  0  0  0
M  BCL ATM C_TeTeTeTe H_S O_Te2Te2TeTe C_TeTeTeTe H_S O_Te2Te2TeTe H_S C_TeTeTeTe H_S O_Te2Te2TeTe H_S C_TeTeTeTe H_S H_S O_Te2Te2TeTe H_S C_TeTeTeTe H_S O_Te2Te2TeTe C_TeTeTeTe H_S C_TeTeTeTe H_S O_Te2Te2TeTe C_TeTeTeTe H_S O_Te2Te2TeTe H_S C_TeTeTeTe H_S O_Te2Te2TeTe H_S C_TeTeTeTe H_S H_S O_Te2Te2TeTe H_S C_TeTeTeTe H_S O_Te2Te2TeTe H_S C_TeTeTeTe H_S O_Te2Te2TeTe O_Tr2TrTrPi2 P_TeTeTeTePi O_Tr2TrTrPi2 O_Te2Te2TeTe O_Tr2Tr2TrPi P_TeTeTeTePi O_Tr2TrTrPi2 O_Te2Te2TeTe O_Tr2Tr2TrPi C_TeTeTeTe H_S H_S C_TrTrTrPi H_S C_TrTrTrPi C_TeTeTeTe H_S H_S H_S C_TeTeTeTe H_S H_S C_TeTeTeTe H_S H_S C_TrTrTrPi H_S C_TrTrTrPi C_TeTeTeTe H_S H_S H_S C_TeTeTeTe H_S H_S C_TeTeTeTe H_S H_S C_TrTrTrPi H_S C_TrTrTrPi C_TeTeTeTe H_S H_S C_TeTeTeTe H_S H_S H_S C_TeTeTeTe H_S H_S C_TrTrTrPi H_S C_TrTrTrPi C_TeTeTeTe H_S H_S C_TeTeTeTe H_S H_S H_S C_TeTeTeTe H_S H_S C_TrTrTrPi H_S C_TrTrTrPi C_TeTeTeTe H_S H_S C_TeTeTeTe H_S H_S H_S C_TeTeTeTe H_S H_S C_TrTrTrPi H_S C_TrTrTrPi C_TeTeTeTe H_S H_S C_TeTeTeTe H_S H_S H_S C_TeTeTeTe H_S H_S C_TrTrTrPi H_S C_TrTrTrPi C_TeTeTeTe H_S H_S C_TeTeTeTe H_S H_S H_S C_TeTeTeTe H_S H_S C_TrTrTrPi H_S C_TrTrTrPi C_TeTeTeTe H_S H_S C_TeTeTeTe H_S H_S H_S C_TeTeTeTe H_S H_S C_TrTrTrPi H_S C_TrTrTrPi C_TeTeTeTe H_S H_S C_TeTeTeTe H_S H_S H_S C_TeTeTeTe H_S H_S C_TrTrTrPi H_S C_TrTrTrPi C_TeTeTeTe H_S H_S H_S C_TeTeTeTe H_S H_S H_S C_TeTeTeTe H_S C_TeTeTeTe H_S O_Te2Te2TeTe C_TeTeTeTe H_S C_TeTeTeTe H_S C_TeTeTeTe H_S O_Te2Te2TeTe O_Te2Te2TeTe H_S O_Te2Te2TeTe H_S C_TeTeTeTe H_S H_S H_S C_TeTeTeTe H_S C_TeTeTeTe H_S O_Te2Te2TeTe C_TeTeTeTe H_S C_TeTeTeTe H_S C_TeTeTeTe H_S N_TrTrTrPi2 H_S O_Te2Te2TeTe H_S C_TeTeTeTe H_S H_S O_Te2Te2TeTe H_S C_TrTrTrPi O_Tr2Tr2TrPi C_TeTeTeTe H_S H_S H_S
M  BCL BND NonConjugatedSingleBond NonConjugatedSingleBondInRing NonConjugatedSingleBondInRing NonConjugatedSingleBond NonConjugatedSingleBondInRing NonConjugatedSingleBond NonConjugatedSingleBond NonConjugatedSingleBondInRing NonConjugatedSingleBond NonConjugatedSingleBond NonConjugatedSingleBond NonConjugatedSingleBondInRing NonConjugatedSingleBond NonConjugatedSingleBond NonConjugatedSingleBond NonConjugatedSingleBond NonConjugatedSingleBond NonConjugatedSingleBond NonConjugatedSingleBond NonConjugatedSingleBond NonConjugatedSingleBond NonConjugatedSingleBond NonConjugatedSingleBond NonConjugatedSingleBond NonConjugatedSingleBondInRing NonConjugatedSingleBondInRing NonConjugatedSingleBondInRing NonConjugatedSingleBond NonConjugatedSingleBond NonConjugatedSingleBondInRing NonConjugatedSingleBond NonConjugatedSingleBond NonConjugatedSingleBond NonConjugatedSingleBondInRing NonConjugatedSingleBond NonConjugatedSingleBond NonConjugatedSingleBond NonConjugatedSingleBond NonConjugatedSingleBond NonConjugatedSingleBond NonConjugatedSingleBond NonConjugatedSingleBond NonConjugatedSingleBond NonConjugatedSingleBond NonConjugatedSingleBond NonConjugatedSingleBond ConjugatedSingleBond NonConjugatedSingleBond ConjugatedSingleBond ConjugatedSingleBond ConjugatedDoubleBond ConjugatedSingleBond ConjugatedSingleBond ConjugatedSingleBond ConjugatedDoubleBond NonConjugatedSingleBond NonConjugatedSingleBond NonConjugatedSingleBond NonConjugatedSingleBond NonConjugatedSingleBond ConjugatedDoubleBond NonConjugatedSingleBond NonConjugatedSingleBond NonConjugatedSingleBond NonConjugatedSingleBond NonConjugatedSingleBond NonConjugatedSingleBond NonConjugatedSingleBond NonConjugatedSingleBond NonConjugatedSingleBond NonConjugatedSingleBond NonConjugatedSingleBond NonConjugatedSingleBond ConjugatedDoubleBond NonConjugatedSingleBond NonConjugatedSingleBond NonConjugatedSingleBond NonConjugatedSingleBond NonConjugatedSingleBond NonConjugatedSingleBond NonConjugatedSingleBond NonConjugatedSingleBond NonConjugatedSingleBond NonConjugatedSingleBond NonConjugatedSingleBond NonConjugatedSingleBond ConjugatedDoubleBond NonConjugatedSingleBond NonConjugatedSingleBond NonConjugatedSingleBond NonConjugatedSingleBond NonConjugatedSingleBond NonConjugatedSingleBond NonConjugatedSingleBond NonConjugatedSingleBond NonConjugatedSingleBond NonConjugatedSingleBond NonConjugatedSingleBond NonConjugatedSingleBond ConjugatedDoubleBond NonConjugatedSingleBond NonConjugatedSingleBond NonConjugatedSingleBond NonConjugatedSingleBond NonConjugatedSingleBond NonConjugatedSingleBond NonConjugatedSingleBond NonConjugatedSingleBond NonConjugatedSingleBond NonConjugatedSingleBond NonConjugatedSingleBond NonConjugatedSingleBond ConjugatedDoubleBond NonConjugatedSingleBond NonConjugatedSingleBond NonConjugatedSingleBond NonConjugatedSingleBond NonConjugatedSingleBond NonConjugatedSingleBond NonConjugatedSingleBond NonConjugatedSingleBond NonConjugatedSingleBond NonConjugatedSingleBond NonConjugatedSingleBond NonConjugatedSingleBond ConjugatedDoubleBond NonConjugatedSingleBond NonConjugatedSingleBond NonConjugatedSingleBond NonConjugatedSingleBond NonConjugatedSingleBond NonConjugatedSingleBond NonConjugatedSingleBond NonConjugatedSingleBond NonConjugatedSingleBond NonConjugatedSingleBond NonConjugatedSingleBond NonConjugatedSingleBond ConjugatedDoubleBond NonConjugatedSingleBond NonConjugatedSingleBond NonConjugatedSingleBond NonConjugatedSingleBond NonConjugatedSingleBond NonConjugatedSingleBond NonConjugatedSingleBond NonConjugatedSingleBond NonConjugatedSingleBond NonConjugatedSingleBond NonConjugatedSingleBond NonConjugatedSingleBond ConjugatedDoubleBond NonConjugatedSingleBond NonConjugatedSingleBond NonConjugatedSingleBond NonConjugatedSingleBond NonConjugatedSingleBond NonConjugatedSingleBond NonConjugatedSingleBond NonConjugatedSingleBond NonConjugatedSingleBond NonConjugatedSingleBond NonConjugatedSingleBond NonConjugatedSingleBond ConjugatedDoubleBond NonConjugatedSingleBond NonConjugatedSingleBond NonConjugatedSingleBond NonConjugatedSingleBond NonConjugatedSingleBond NonConjugatedSingleBond NonConjugatedSingleBond NonConjugatedSingleBond NonConjugatedSingleBond NonConjugatedSingleBond NonConjugatedSingleBond NonConjugatedSingleBond ConjugatedDoubleBond NonConjugatedSingleBond NonConjugatedSingleBond NonConjugatedSingleBond NonConjugatedSingleBond NonConjugatedSingleBond NonConjugatedSingleBond NonConjugatedSingleBond NonConjugatedSingleBond NonConjugatedSingleBond NonConjugatedSingleBondInRing NonConjugatedSingleBondInRing NonConjugatedSingleBond NonConjugatedSingleBond NonConjugatedSingleBondInRing NonConjugatedSingleBond NonConjugatedSingleBondInRing NonConjugatedSingleBond NonConjugatedSingleBondInRing NonConjugatedSingleBond NonConjugatedSingleBond NonConjugatedSingleBondInRing NonConjugatedSingleBond NonConjugatedSingleBond NonConjugatedSingleBond NonConjugatedSingleBond NonConjugatedSingleBond NonConjugatedSingleBond NonConjugatedSingleBond NonConjugatedSingleBond NonConjugatedSingleBond NonConjugatedSingleBondInRing NonConjugatedSingleBondInRing NonConjugatedSingleBond NonConjugatedSingleBondInRing NonConjugatedSingleBond NonConjugatedSingleBondInRing NonConjugatedSingleBond NonConjugatedSingleBondInRing NonConjugatedSingleBond NonConjugatedSingleBondInRing NonConjugatedSingleBond NonConjugatedSingleBond NonConjugatedSingleBond NonConjugatedSingleBond AmideSingleBond NonConjugatedSingleBond NonConjugatedSingleBond NonConjugatedSingleBond NonConjugatedSingleBond NonConjugatedSingleBond ConjugatedDoubleBond NonConjugatedSingleBond NonConjugatedSingleBond NonConjugatedSingleBond NonConjugatedSingleBond
M  BCL CHI   1   R   4   R   8   R  17   S  20   R  22   S  25   R  29   S  38   S  42   R  46   R  50   S 185   R 187   S 190   S 192   R 194   R 205   R 207   S 210   R 212   S 214   S
M  BCL DBI - - E E E E E E E E Z - -
M  END
> <ConfClashScore>
0.00537967 

> <ConfOneFourInteractionScore>
-0.967176 

> <ConfScore>
0.657848 

> <ConfScorePBest>
0.0113905 

> <ConfTolerance>
3.17895 

$$$$
L05.****
  PyMOL2.5          3D                             0

230233  0  0  0  0  0  0  0  0999 V2000
   12.1365   -3.3729   -3.5652 C   0  0  0  1  0  0  0  0  0  0  0  0
   12.2991   -4.2666   -4.1307 H   0  0  0  1  0  0  0  0  0  0  0  0
   11.9035   -2.2829   -4.4152 O   0  0  0  1  0  0  0  0  0  0  0  0
   10.8524   -3.4834   -2.7305 C   0  0  0  1  0  0  0  0  0  0  0  0
   11.0492   -3.9271   -1.7769 H   0  0  0  1  0  0  0  0  0  0  0  0
    9.8673   -4.2384   -3.4081 O   0  0  0  1  0  0  0  0  0  0  0  0
   10.2902   -4.9355   -3.9150 H   0  0  0  1  0  0  0  0  0  0  0  0
   10.4287   -2.0456   -2.5833 C   0  0  0  1  0  0  0  0  0  0  0  0
    9.3699   -1.9693   -2.4498 H   0  0  0  1  0  0  0  0  0  0  0  0
   11.0942   -1.4255   -1.4819 O   0  0  0  1  0  0  0  0  0  0  0  0
   11.4119   -0.5590   -1.7461 H   0  0  0  1  0  0  0  0  0  0  0  0
    8.6399   -0.3522   -4.4492 C   0  0  0  1  0  0  0  0  0  0  0  0
    8.2374    0.1362   -5.3120 H   0  0  0  1  0  0  0  0  0  0  0  0
    7.8549   -0.8570   -3.9258 H   0  0  0  1  0  0  0  0  0  0  0  0
    9.2331    0.6148   -3.5927 O   0  0  0  1  0  0  0  0  0  0  0  0
    8.8907    0.5073   -2.7023 H   0  0  0  1  0  0  0  0  0  0  0  0
    9.6915   -1.3656   -4.8851 C   0  0  0  1  0  0  0  0  0  0  0  0
   10.0761   -1.0398   -5.8290 H   0  0  0  1  0  0  0  0  0  0  0  0
    9.1257   -2.6609   -5.0480 O   0  0  0  1  0  0  0  0  0  0  0  0
   10.8617   -1.4170   -3.9112 C   0  0  0  1  0  0  0  0  0  0  0  0
   11.2388   -0.4282   -3.7534 H   0  0  0  1  0  0  0  0  0  0  0  0
    7.7844   -2.5431   -5.4482 C   0  0  0  1  0  0  0  0  0  0  0  0
    7.1444   -2.7190   -4.6089 H   0  0  0  1  0  0  0  0  0  0  0  0
    7.5307   -1.2259   -6.0248 O   0  0  0  1  0  0  0  0  0  0  0  0
    7.4737   -3.5076   -6.5697 C   0  0  0  1  0  0  0  0  0  0  0  0
    6.4321   -3.7521   -6.5861 H   0  0  0  1  0  0  0  0  0  0  0  0
    8.2425   -4.7046   -6.4411 O   0  0  0  1  0  0  0  0  0  0  0  0
    9.0393   -4.6322   -6.9717 H   0  0  0  1  0  0  0  0  0  0  0  0
    7.8746   -2.7313   -7.8312 C   0  0  0  1  0  0  0  0  0  0  0  0
    7.2594   -3.0035   -8.6633 H   0  0  0  1  0  0  0  0  0  0  0  0
    9.2430   -2.9548   -8.1584 O   0  0  0  1  0  0  0  0  0  0  0  0
    9.3176   -3.1791   -9.0889 H   0  0  0  1  0  0  0  0  0  0  0  0
    6.3693   -0.8405   -9.5685 C   0  0  0  1  0  0  0  0  0  0  0  0
    5.6660   -0.1414   -9.9706 H   0  0  0  1  0  0  0  0  0  0  0  0
    7.3506   -0.6043   -9.9239 H   0  0  0  1  0  0  0  0  0  0  0  0
    6.0201   -2.1532   -9.9835 O   0  0  0  1  0  0  0  0  0  0  0  0
    6.7115   -2.5051  -10.5490 H   0  0  0  1  0  0  0  0  0  0  0  0
    6.3491   -0.7611   -8.0497 C   0  0  0  1  0  0  0  0  0  0  0  0
    5.5347   -1.3536   -7.6884 H   0  0  0  1  0  0  0  0  0  0  0  0
    6.1392    0.6090   -7.7100 O   0  0  0  1  0  0  0  0  0  0  0  0
    6.4963    1.1693   -8.4030 H   0  0  0  1  0  0  0  0  0  0  0  0
    7.6350   -1.2700   -7.4200 C   0  0  0  1  0  0  0  0  0  0  0  0
    8.4551   -0.6629   -7.7422 H   0  0  0  1  0  0  0  0  0  0  0  0
   13.2617   -3.1286   -2.7291 O   0  0  0  1  0  0  0  0  0  0  0  0
   16.0995  -10.2863   -1.4936 O   0  0  0  1  0  0  0  0  0  0  0  0
   17.4466  -10.3552   -0.5978 P   0  0  0  1  0  0  0  0  0  0  0  0
   18.4464   -9.3002   -1.2824 O   0  0  0  1  0  0  0  0  0  0  0  0
   17.9369  -11.7625   -0.7591 O   0  0  0  0  0  0  0  0  0  0  0  0
   17.2309   -9.8397    0.7838 O   0  0  0  1  0  0  0  0  0  0  0  0
   20.0261   -9.3741   -1.6691 P   0  0  0  1  0  0  0  0  0  0  0  0
   20.2535   -7.8625   -1.2954 O   0  0  0  1  0  0  0  0  0  0  0  0
   20.1822   -9.5690   -3.1319 O   0  0  0  0  0  0  0  0  0  0  0  0
   20.7590  -10.2546   -0.7297 O   0  0  0  1  0  0  0  0  0  0  0  0
   15.0728  -11.2817   -1.3573 C   0  0  0  1  0  0  0  0  0  0  0  0
   14.1110  -10.8135   -1.3842 H   0  0  0  1  0  0  0  0  0  0  0  0
   15.1927  -11.7983   -0.4280 H   0  0  0  1  0  0  0  0  0  0  0  0
   15.1941  -12.2528   -2.4946 C   0  0  0  1  0  0  0  0  0  0  0  0
   15.6411  -11.8959   -3.3632 H   0  0  0  1  0  0  0  0  0  0  0  0
   14.7928  -13.5182   -2.5125 C   0  0  0  1  0  0  0  0  0  0  0  0
   14.6705  -14.2797   -3.7990 C   0  0  0  1  0  0  0  0  0  0  0  0
   15.6020  -14.2454   -4.3243 H   0  0  0  1  0  0  0  0  0  0  0  0
   13.9046  -13.8391   -4.4025 H   0  0  0  1  0  0  0  0  0  0  0  0
   14.4176  -15.2977   -3.5879 H   0  0  0  1  0  0  0  0  0  0  0  0
   14.4295  -14.2989   -1.2839 C   0  0  0  1  0  0  0  0  0  0  0  0
   14.5379  -13.6526   -0.4381 H   0  0  0  1  0  0  0  0  0  0  0  0
   15.1137  -15.1170   -1.1983 H   0  0  0  1  0  0  0  0  0  0  0  0
   13.0185  -14.8638   -1.2645 C   0  0  0  1  0  0  0  0  0  0  0  0
   12.9235  -15.5428   -2.0860 H   0  0  0  1  0  0  0  0  0  0  0  0
   12.3354  -14.0502   -1.3928 H   0  0  0  1  0  0  0  0  0  0  0  0
   12.6348  -15.5985   -0.0080 C   0  0  0  1  0  0  0  0  0  0  0  0
   12.8360  -15.1159    0.8910 H   0  0  0  1  0  0  0  0  0  0  0  0
   12.0673  -16.7958    0.0771 C   0  0  0  1  0  0  0  0  0  0  0  0
   11.4397  -17.2732    1.3544 C   0  0  0  1  0  0  0  0  0  0  0  0
   11.5238  -16.5108    2.1004 H   0  0  0  1  0  0  0  0  0  0  0  0
   11.9416  -18.1567    1.6896 H   0  0  0  1  0  0  0  0  0  0  0  0
   10.4064  -17.4924    1.1836 H   0  0  0  1  0  0  0  0  0  0  0  0
   11.9947  -17.7713   -1.0613 C   0  0  0  1  0  0  0  0  0  0  0  0
   12.1219  -18.7596   -0.6715 H   0  0  0  1  0  0  0  0  0  0  0  0
   12.7863  -17.5534   -1.7475 H   0  0  0  1  0  0  0  0  0  0  0  0
   10.6742  -17.7134   -1.8118 C   0  0  0  1  0  0  0  0  0  0  0  0
    9.8780  -17.6773   -1.0978 H   0  0  0  1  0  0  0  0  0  0  0  0
   10.5811  -18.5983   -2.4061 H   0  0  0  1  0  0  0  0  0  0  0  0
   10.5625  -16.5226   -2.7100 C   0  0  0  1  0  0  0  0  0  0  0  0
   11.4414  -16.1396   -3.1129 H   0  0  0  1  0  0  0  0  0  0  0  0
    9.4192  -15.9151   -3.0330 C   0  0  0  1  0  0  0  0  0  0  0  0
    8.0910  -16.5301   -2.6994 C   0  0  0  1  0  0  0  0  0  0  0  0
    7.8778  -16.3414   -1.6680 H   0  0  0  1  0  0  0  0  0  0  0  0
    8.1535  -17.5855   -2.8640 H   0  0  0  1  0  0  0  0  0  0  0  0
    9.4150  -14.5910   -3.7437 C   0  0  0  1  0  0  0  0  0  0  0  0
   10.4019  -14.1776   -3.7347 H   0  0  0  1  0  0  0  0  0  0  0  0
    8.7438  -13.9220   -3.2469 H   0  0  0  1  0  0  0  0  0  0  0  0
    9.0963  -14.7306   -4.7556 H   0  0  0  1  0  0  0  0  0  0  0  0
    6.9509  -15.9763   -3.5383 C   0  0  0  1  0  0  0  0  0  0  0  0
    7.1888  -16.1174   -4.5719 H   0  0  0  1  0  0  0  0  0  0  0  0
    6.8543  -14.9305   -3.3336 H   0  0  0  1  0  0  0  0  0  0  0  0
    5.6443  -16.6376   -3.2574 C   0  0  0  1  0  0  0  0  0  0  0  0
    5.6887  -17.6683   -3.1261 H   0  0  0  1  0  0  0  0  0  0  0  0
    4.4327  -16.1055   -3.1502 C   0  0  0  1  0  0  0  0  0  0  0  0
    4.1558  -14.6970   -3.5941 C   0  0  0  1  0  0  0  0  0  0  0  0
    3.0949  -14.5584   -3.6099 H   0  0  0  1  0  0  0  0  0  0  0  0
    4.5461  -14.5800   -4.5835 H   0  0  0  1  0  0  0  0  0  0  0  0
    3.2451  -16.8324   -2.5906 C   0  0  0  1  0  0  0  0  0  0  0  0
    3.2025  -16.6851   -1.5317 H   0  0  0  1  0  0  0  0  0  0  0  0
    3.3350  -17.8776   -2.8017 H   0  0  0  1  0  0  0  0  0  0  0  0
    2.3510  -16.4530   -3.0395 H   0  0  0  1  0  0  0  0  0  0  0  0
    4.7579  -13.6083   -2.7208 C   0  0  0  1  0  0  0  0  0  0  0  0
    5.8231  -13.6952   -2.7724 H   0  0  0  1  0  0  0  0  0  0  0  0
    4.4342  -13.7756   -1.7147 H   0  0  0  1  0  0  0  0  0  0  0  0
    4.3909  -12.2102   -3.0965 C   0  0  0  1  0  0  0  0  0  0  0  0
    4.9654  -11.7240   -3.8142 H   0  0  0  1  0  0  0  0  0  0  0  0
    3.3624  -11.5542   -2.5567 C   0  0  0  1  0  0  0  0  0  0  0  0
    2.4514  -12.2431   -1.5761 C   0  0  0  1  0  0  0  0  0  0  0  0
    2.3432  -11.6178   -0.7146 H   0  0  0  1  0  0  0  0  0  0  0  0
    2.8992  -13.1716   -1.2896 H   0  0  0  1  0  0  0  0  0  0  0  0
    3.0318  -10.1751   -2.9749 C   0  0  0  1  0  0  0  0  0  0  0  0
    3.2676   -9.4955   -2.1828 H   0  0  0  1  0  0  0  0  0  0  0  0
    1.9877  -10.1115   -3.2000 H   0  0  0  1  0  0  0  0  0  0  0  0
    3.6008   -9.9202   -3.8444 H   0  0  0  1  0  0  0  0  0  0  0  0
    1.0705  -12.5269   -2.1443 C   0  0  0  1  0  0  0  0  0  0  0  0
    1.1546  -13.3099   -2.8687 H   0  0  0  1  0  0  0  0  0  0  0  0
    0.7083  -11.6388   -2.6188 H   0  0  0  1  0  0  0  0  0  0  0  0
    0.0830  -12.9465   -1.1022 C   0  0  0  1  0  0  0  0  0  0  0  0
   -0.0902  -13.9680   -1.0122 H   0  0  0  1  0  0  0  0  0  0  0  0
   -0.5970  -12.1556   -0.2789 C   0  0  0  1  0  0  0  0  0  0  0  0
   -0.2534  -10.7104   -0.0354 C   0  0  0  1  0  0  0  0  0  0  0  0
    0.7964  -10.5881   -0.2022 H   0  0  0  1  0  0  0  0  0  0  0  0
   -0.4816  -10.4844    0.9853 H   0  0  0  1  0  0  0  0  0  0  0  0
   -1.7859  -12.6562    0.4871 C   0  0  0  1  0  0  0  0  0  0  0  0
   -2.5587  -11.9164    0.4706 H   0  0  0  1  0  0  0  0  0  0  0  0
   -1.5009  -12.8515    1.4998 H   0  0  0  1  0  0  0  0  0  0  0  0
   -2.1459  -13.5578    0.0373 H   0  0  0  1  0  0  0  0  0  0  0  0
   -0.9873   -9.7094   -0.9127 C   0  0  0  1  0  0  0  0  0  0  0  0
   -1.9920  -10.0504   -1.0513 H   0  0  0  1  0  0  0  0  0  0  0  0
   -0.4929   -9.6603   -1.8603 H   0  0  0  1  0  0  0  0  0  0  0  0
   -1.0278   -8.3407   -0.3277 C   0  0  0  1  0  0  0  0  0  0  0  0
   -1.6456   -8.2590    0.5049 H   0  0  0  1  0  0  0  0  0  0  0  0
   -0.4285   -7.2043   -0.6626 C   0  0  0  1  0  0  0  0  0  0  0  0
    0.5757   -7.1503   -1.7771 C   0  0  0  1  0  0  0  0  0  0  0  0
    0.2884   -7.8554   -2.5288 H   0  0  0  1  0  0  0  0  0  0  0  0
    1.5347   -7.4174   -1.3847 H   0  0  0  1  0  0  0  0  0  0  0  0
   -0.6837   -5.8891    0.0182 C   0  0  0  1  0  0  0  0  0  0  0  0
   -1.0629   -5.1861   -0.6937 H   0  0  0  1  0  0  0  0  0  0  0  0
    0.2308   -5.5188    0.4324 H   0  0  0  1  0  0  0  0  0  0  0  0
   -1.4005   -6.0259    0.8007 H   0  0  0  1  0  0  0  0  0  0  0  0
    0.6809   -5.7759   -2.4177 C   0  0  0  1  0  0  0  0  0  0  0  0
    1.2803   -5.1518   -1.7884 H   0  0  0  1  0  0  0  0  0  0  0  0
   -0.3024   -5.3619   -2.4989 H   0  0  0  1  0  0  0  0  0  0  0  0
    1.3004   -5.8104   -3.7877 C   0  0  0  1  0  0  0  0  0  0  0  0
    1.6561   -6.7250   -4.1322 H   0  0  0  1  0  0  0  0  0  0  0  0
    1.4272   -4.7603   -4.5902 C   0  0  0  1  0  0  0  0  0  0  0  0
    1.2565   -3.3562   -4.0749 C   0  0  0  1  0  0  0  0  0  0  0  0
    1.1347   -3.4068   -3.0131 H   0  0  0  1  0  0  0  0  0  0  0  0
    0.3719   -2.9477   -4.5169 H   0  0  0  1  0  0  0  0  0  0  0  0
    1.7446   -4.8578   -6.0532 C   0  0  0  1  0  0  0  0  0  0  0  0
    2.6576   -5.4000   -6.1853 H   0  0  0  1  0  0  0  0  0  0  0  0
    1.8520   -3.8744   -6.4610 H   0  0  0  1  0  0  0  0  0  0  0  0
    0.9507   -5.3686   -6.5569 H   0  0  0  1  0  0  0  0  0  0  0  0
    2.4084   -2.4094   -4.3702 C   0  0  0  1  0  0  0  0  0  0  0  0
    2.5199   -2.3293   -5.4313 H   0  0  0  1  0  0  0  0  0  0  0  0
    3.3022   -2.8180   -3.9469 H   0  0  0  1  0  0  0  0  0  0  0  0
    2.1976   -1.0302   -3.8051 C   0  0  0  1  0  0  0  0  0  0  0  0
    1.8156   -0.9586   -2.8404 H   0  0  0  1  0  0  0  0  0  0  0  0
    2.4599    0.0880   -4.4385 C   0  0  0  1  0  0  0  0  0  0  0  0
    2.2128    1.4186   -3.7824 C   0  0  0  1  0  0  0  0  0  0  0  0
    1.8521    1.2470   -2.7898 H   0  0  0  1  0  0  0  0  0  0  0  0
    1.4704    1.9437   -4.3464 H   0  0  0  1  0  0  0  0  0  0  0  0
    2.9245    0.1497   -5.8642 C   0  0  0  1  0  0  0  0  0  0  0  0
    3.6898    0.8974   -5.8834 H   0  0  0  1  0  0  0  0  0  0  0  0
    2.1164    0.4253   -6.5091 H   0  0  0  1  0  0  0  0  0  0  0  0
    3.3188   -0.7967   -6.1701 H   0  0  0  1  0  0  0  0  0  0  0  0
    3.4602    2.2833   -3.7012 C   0  0  0  1  0  0  0  0  0  0  0  0
    3.2297    3.1612   -3.1346 H   0  0  0  1  0  0  0  0  0  0  0  0
    3.7455    2.5635   -4.6937 H   0  0  0  1  0  0  0  0  0  0  0  0
    4.6108    1.5895   -3.0547 C   0  0  0  1  0  0  0  0  0  0  0  0
    4.8492    0.6597   -3.4550 H   0  0  0  1  0  0  0  0  0  0  0  0
    5.3761    1.9829   -2.0436 C   0  0  0  1  0  0  0  0  0  0  0  0
    6.5117    1.1337   -1.5468 C   0  0  0  1  0  0  0  0  0  0  0  0
    6.9338    0.5878   -2.3645 H   0  0  0  1  0  0  0  0  0  0  0  0
    6.1483    0.4480   -0.8102 H   0  0  0  1  0  0  0  0  0  0  0  0
    7.2618    1.7607   -1.1119 H   0  0  0  1  0  0  0  0  0  0  0  0
    5.1930    3.2871   -1.3061 C   0  0  0  1  0  0  0  0  0  0  0  0
    4.7851    3.0556   -0.3443 H   0  0  0  1  0  0  0  0  0  0  0  0
    4.5207    3.9210   -1.8455 H   0  0  0  1  0  0  0  0  0  0  0  0
    6.1363    3.7796   -1.1944 H   0  0  0  1  0  0  0  0  0  0  0  0
   15.9219   -5.1273   -1.5047 C   0  0  0  1  0  0  0  0  0  0  0  0
   16.0606   -5.6594   -0.5868 H   0  0  0  1  0  0  0  0  0  0  0  0
   14.7602   -5.7365   -2.2791 C   0  0  0  1  0  0  0  0  0  0  0  0
   14.9743   -6.7602   -2.5051 H   0  0  0  1  0  0  0  0  0  0  0  0
   15.6219   -3.7628   -1.2265 O   0  0  0  1  0  0  0  0  0  0  0  0
   14.5789   -4.9528   -3.5701 C   0  0  0  1  0  0  0  0  0  0  0  0
   13.6704   -5.2695   -4.0382 H   0  0  0  1  0  0  0  0  0  0  0  0
   15.6437   -2.9800   -2.4270 C   0  0  0  1  0  0  0  0  0  0  0  0
   16.5820   -3.1102   -2.9246 H   0  0  0  1  0  0  0  0  0  0  0  0
   14.5094   -3.4483   -3.3378 C   0  0  0  1  0  0  0  0  0  0  0  0
   14.5869   -2.9455   -4.2792 H   0  0  0  1  0  0  0  0  0  0  0  0
   17.1099   -5.2065   -2.2838 O   0  0  0  1  0  0  0  0  0  0  0  0
   13.5668   -5.6602   -1.4972 O   0  0  0  1  0  0  0  0  0  0  0  0
   13.7606   -5.9121   -0.5913 H   0  0  0  1  0  0  0  0  0  0  0  0
   15.6760   -5.2302   -4.4281 O   0  0  0  1  0  0  0  0  0  0  0  0
   15.3990   -5.1377   -5.3426 H   0  0  0  1  0  0  0  0  0  0  0  0
   15.4508   -1.5119   -2.0838 C   0  0  0  1  0  0  0  0  0  0  0  0
   16.3243   -0.9615   -2.3651 H   0  0  0  1  0  0  0  0  0  0  0  0
   15.2892   -1.4102   -1.0309 H   0  0  0  1  0  0  0  0  0  0  0  0
   14.6032   -1.1303   -2.6137 H   0  0  0  1  0  0  0  0  0  0  0  0
   19.5113   -6.8236   -1.9494 C   0  0  0  1  0  0  0  0  0  0  0  0
   18.6964   -7.2545   -2.4926 H   0  0  0  1  0  0  0  0  0  0  0  0
   18.9693   -5.8567   -0.9075 C   0  0  0  1  0  0  0  0  0  0  0  0
   19.7765   -5.4742   -0.3184 H   0  0  0  1  0  0  0  0  0  0  0  0
   20.3637   -6.1288   -2.8490 O   0  0  0  1  0  0  0  0  0  0  0  0
   18.2656   -4.7059   -1.6202 C   0  0  0  1  0  0  0  0  0  0  0  0
   17.9731   -3.9732   -0.8974 H   0  0  0  1  0  0  0  0  0  0  0  0
   19.6749   -5.1240   -3.6152 C   0  0  0  1  0  0  0  0  0  0  0  0
   20.3435   -4.6848   -4.3258 H   0  0  0  1  0  0  0  0  0  0  0  0
   19.1800   -4.0595   -2.6383 C   0  0  0  1  0  0  0  0  0  0  0  0
   18.6428   -3.3046   -3.1736 H   0  0  0  1  0  0  0  0  0  0  0  0
   18.0233   -6.5483   -0.0447 N   0  0  0  1  0  0  0  0  0  0  0  0
   17.2049   -6.9160   -0.4390 H   0  0  0  1  0  0  0  0  0  0  0  0
   20.2921   -3.4699   -1.9730 O   0  0  0  1  0  0  0  0  0  0  0  0
   19.9382   -3.0082   -1.2093 H   0  0  0  1  0  0  0  0  0  0  0  0
   18.5100   -5.7388   -4.3363 C   0  0  0  1  0  0  0  0  0  0  0  0
   18.4096   -5.2861   -5.3006 H   0  0  0  1  0  0  0  0  0  0  0  0
   17.6161   -5.5769   -3.7710 H   0  0  0  1  0  0  0  0  0  0  0  0
   18.7253   -7.1354   -4.4902 O   0  0  0  1  0  0  0  0  0  0  0  0
   18.9013   -7.3118   -5.4173 H   0  0  0  1  0  0  0  0  0  0  0  0
   18.2316   -6.6994    1.2664 C   0  0  0  1  0  0  0  0  0  0  0  0
   19.1815   -6.1872    1.8571 O   0  0  0  1  0  0  0  0  0  0  0  0
   17.2153   -7.5519    2.0009 C   0  0  0  1  0  0  0  0  0  0  0  0
   16.6344   -6.8499    2.5617 H   0  0  0  1  0  0  0  0  0  0  0  0
   17.7039   -8.2455    2.6530 H   0  0  0  1  0  0  0  0  0  0  0  0
   16.5986   -8.0862    1.3087 H   0  0  0  1  0  0  0  0  0  0  0  0
  1  2  1  0  0  0  0
  1  3  1  0  0  0  0
  1  4  1  0  0  0  0
  1 44  1  0  0  0  0
  3 20  1  0  0  0  0
  4  5  1  0  0  0  0
  4  6  1  0  0  0  0
  4  8  1  0  0  0  0
  6  7  1  0  0  0  0
  8  9  1  0  0  0  0
  8 10  1  0  0  0  0
  8 20  1  0  0  0  0
 10 11  1  0  0  0  0
 12 13  1  0  0  0  0
 12 14  1  0  0  0  0
 12 15  1  0  0  0  0
 12 17  1  0  0  0  0
 15 16  1  0  0  0  0
 17 18  1  0  0  0  0
 17 19  1  0  0  0  0
 17 20  1  0  0  0  0
 19 22  1  0  0  0  0
 20 21  1  0  0  0  0
 22 23  1  0  0  0  0
 22 24  1  0  0  0  0
 22 25  1  0  0  0  0
 24 42  1  0  0  0  0
 25 26  1  0  0  0  0
 25 27  1  0  0  0  0
 25 29  1  0  0  0  0
 27 28  1  0  0  0  0
 29 30  1  0  0  0  0
 29 31  1  0  0  0  0
 29 42  1  0  0  0  0
 31 32  1  0  0  0  0
 33 34  1  0  0  0  0
 33 35  1  0  0  0  0
 33 36  1  0  0  0  0
 33 38  1  0  0  0  0
 36 37  1  0  0  0  0
 38 39  1  0  0  0  0
 38 40  1  0  0  0  0
 38 42  1  0  0  0  0
 40 41  1  0  0  0  0
 42 43  1  0  0  0  0
 44194  1  0  0  0  0
 45 46  1  0  0  0  0
 45 54  1  0  0  0  0
 46 47  1  0  0  0  0
 46 48  1  0  0  0  0
 46 49  2  0  0  0  0
 47 50  1  0  0  0  0
 50 51  1  0  0  0  0
 50 52  1  0  0  0  0
 50 53  2  0  0  0  0
 51205  1  0  0  0  0
 54 55  1  0  0  0  0
 54 56  1  0  0  0  0
 54 57  1  0  0  0  0
 57 58  1  0  0  0  0
 57 59  2  0  0  0  0
 59 60  1  0  0  0  0
 59 64  1  0  0  0  0
 60 61  1  0  0  0  0
 60 62  1  0  0  0  0
 60 63  1  0  0  0  0
 64 65  1  0  0  0  0
 64 66  1  0  0  0  0
 64 67  1  0  0  0  0
 67 68  1  0  0  0  0
 67 69  1  0  0  0  0
 67 70  1  0  0  0  0
 70 71  1  0  0  0  0
 70 72  2  0  0  0  0
 72 73  1  0  0  0  0
 72 77  1  0  0  0  0
 73 74  1  0  0  0  0
 73 75  1  0  0  0  0
 73 76  1  0  0  0  0
 77 78  1  0  0  0  0
 77 79  1  0  0  0  0
 77 80  1  0  0  0  0
 80 81  1  0  0  0  0
 80 82  1  0  0  0  0
 80 83  1  0  0  0  0
 83 84  1  0  0  0  0
 83 85  2  0  0  0  0
 85 86  1  0  0  0  0
 85 89  1  0  0  0  0
 86 87  1  0  0  0  0
 86 88  1  0  0  0  0
 86 93  1  0  0  0  0
 89 90  1  0  0  0  0
 89 91  1  0  0  0  0
 89 92  1  0  0  0  0
 93 94  1  0  0  0  0
 93 95  1  0  0  0  0
 93 96  1  0  0  0  0
 96 97  1  0  0  0  0
 96 98  2  0  0  0  0
 98 99  1  0  0  0  0
 98102  1  0  0  0  0
 99100  1  0  0  0  0
 99101  1  0  0  0  0
 99106  1  0  0  0  0
102103  1  0  0  0  0
102104  1  0  0  0  0
102105  1  0  0  0  0
106107  1  0  0  0  0
106108  1  0  0  0  0
106109  1  0  0  0  0
109110  1  0  0  0  0
109111  2  0  0  0  0
111112  1  0  0  0  0
111115  1  0  0  0  0
112113  1  0  0  0  0
112114  1  0  0  0  0
112119  1  0  0  0  0
115116  1  0  0  0  0
115117  1  0  0  0  0
115118  1  0  0  0  0
119120  1  0  0  0  0
119121  1  0  0  0  0
119122  1  0  0  0  0
122123  1  0  0  0  0
122124  2  0  0  0  0
124125  1  0  0  0  0
124128  1  0  0  0  0
125126  1  0  0  0  0
125127  1  0  0  0  0
125132  1  0  0  0  0
128129  1  0  0  0  0
128130  1  0  0  0  0
128131  1  0  0  0  0
132133  1  0  0  0  0
132134  1  0  0  0  0
132135  1  0  0  0  0
135136  1  0  0  0  0
135137  2  0  0  0  0
137138  1  0  0  0  0
137141  1  0  0  0  0
138139  1  0  0  0  0
138140  1  0  0  0  0
138145  1  0  0  0  0
141142  1  0  0  0  0
141143  1  0  0  0  0
141144  1  0  0  0  0
145146  1  0  0  0  0
145147  1  0  0  0  0
145148  1  0  0  0  0
148149  1  0  0  0  0
148150  2  0  0  0  0
150151  1  0  0  0  0
150154  1  0  0  0  0
151152  1  0  0  0  0
151153  1  0  0  0  0
151158  1  0  0  0  0
154155  1  0  0  0  0
154156  1  0  0  0  0
154157  1  0  0  0  0
158159  1  0  0  0  0
158160  1  0  0  0  0
158161  1  0  0  0  0
161162  1  0  0  0  0
161163  2  0  0  0  0
163164  1  0  0  0  0
163167  1  0  0  0  0
164165  1  0  0  0  0
164166  1  0  0  0  0
164171  1  0  0  0  0
167168  1  0  0  0  0
167169  1  0  0  0  0
167170  1  0  0  0  0
171172  1  0  0  0  0
171173  1  0  0  0  0
171174  1  0  0  0  0
174175  1  0  0  0  0
174176  2  0  0  0  0
176177  1  0  0  0  0
176181  1  0  0  0  0
177178  1  0  0  0  0
177179  1  0  0  0  0
177180  1  0  0  0  0
181182  1  0  0  0  0
181183  1  0  0  0  0
181184  1  0  0  0  0
185186  1  0  0  0  0
185187  1  0  0  0  0
185189  1  0  0  0  0
185196  1  0  0  0  0
187188  1  0  0  0  0
187190  1  0  0  0  0
187197  1  0  0  0  0
189192  1  0  0  0  0
190191  1  0  0  0  0
190194  1  0  0  0  0
190199  1  0  0  0  0
192193  1  0  0  0  0
192194  1  0  0  0  0
192201  1  0  0  0  0
194195  1  0  0  0  0
196210  1  0  0  0  0
197198  1  0  0  0  0
199200  1  0  0  0  0
201202  1  0  0  0  0
201203  1  0  0  0  0
201204  1  0  0  0  0
205206  1  0  0  0  0
205207  1  0  0  0  0
205209  1  0  0  0  0
207208  1  0  0  0  0
207210  1  0  0  0  0
207216  1  0  0  0  0
209212  1  0  0  0  0
210211  1  0  0  0  0
210214  1  0  0  0  0
212213  1  0  0  0  0
212214  1  0  0  0  0
212220  1  0  0  0  0
214215  1  0  0  0  0
214218  1  0  0  0  0
216217  1  0  0  0  0
216225  1  0  0  0  0
218219  1  0  0  0  0
220221  1  0  0  0  0
220222  1  0  0  0  0
220223  1  0  0  0  0
223224  1  0  0  0  0
225226  2  0  0  0  0
225227  1  0  0  0  0
227228  1  0  0  0  0
227229  1  0  0  0  0
227230  1  0  0  0  0
M  BCL ATM C_TeTeTeTe H_S O_Te2Te2TeTe C_TeTeTeTe H_S O_Te2Te2TeTe H_S C_TeTeTeTe H_S O_Te2Te2TeTe H_S C_TeTeTeTe H_S H_S O_Te2Te2TeTe H_S C_TeTeTeTe H_S O_Te2Te2TeTe C_TeTeTeTe H_S C_TeTeTeTe H_S O_Te2Te2TeTe C_TeTeTeTe H_S O_Te2Te2TeTe H_S C_TeTeTeTe H_S O_Te2Te2TeTe H_S C_TeTeTeTe H_S H_S O_Te2Te2TeTe H_S C_TeTeTeTe H_S O_Te2Te2TeTe H_S C_TeTeTeTe H_S O_Te2Te2TeTe O_Tr2TrTrPi2 P_TeTeTeTePi O_Tr2TrTrPi2 O_Te2Te2TeTe O_Tr2Tr2TrPi P_TeTeTeTePi O_Tr2TrTrPi2 O_Te2Te2TeTe O_Tr2Tr2TrPi C_TeTeTeTe H_S H_S C_TrTrTrPi H_S C_TrTrTrPi C_TeTeTeTe H_S H_S H_S C_TeTeTeTe H_S H_S C_TeTeTeTe H_S H_S C_TrTrTrPi H_S C_TrTrTrPi C_TeTeTeTe H_S H_S H_S C_TeTeTeTe H_S H_S C_TeTeTeTe H_S H_S C_TrTrTrPi H_S C_TrTrTrPi C_TeTeTeTe H_S H_S C_TeTeTeTe H_S H_S H_S C_TeTeTeTe H_S H_S C_TrTrTrPi H_S C_TrTrTrPi C_TeTeTeTe H_S H_S C_TeTeTeTe H_S H_S H_S C_TeTeTeTe H_S H_S C_TrTrTrPi H_S C_TrTrTrPi C_TeTeTeTe H_S H_S C_TeTeTeTe H_S H_S H_S C_TeTeTeTe H_S H_S C_TrTrTrPi H_S C_TrTrTrPi C_TeTeTeTe H_S H_S C_TeTeTeTe H_S H_S H_S C_TeTeTeTe H_S H_S C_TrTrTrPi H_S C_TrTrTrPi C_TeTeTeTe H_S H_S C_TeTeTeTe H_S H_S H_S C_TeTeTeTe H_S H_S C_TrTrTrPi H_S C_TrTrTrPi C_TeTeTeTe H_S H_S C_TeTeTeTe H_S H_S H_S C_TeTeTeTe H_S H_S C_TrTrTrPi H_S C_TrTrTrPi C_TeTeTeTe H_S H_S C_TeTeTeTe H_S H_S H_S C_TeTeTeTe H_S H_S C_TrTrTrPi H_S C_TrTrTrPi C_TeTeTeTe H_S H_S H_S C_TeTeTeTe H_S H_S H_S C_TeTeTeTe H_S C_TeTeTeTe H_S O_Te2Te2TeTe C_TeTeTeTe H_S C_TeTeTeTe H_S C_TeTeTeTe H_S O_Te2Te2TeTe O_Te2Te2TeTe H_S O_Te2Te2TeTe H_S C_TeTeTeTe H_S H_S H_S C_TeTeTeTe H_S C_TeTeTeTe H_S O_Te2Te2TeTe C_TeTeTeTe H_S C_TeTeTeTe H_S C_TeTeTeTe H_S N_TrTrTrPi2 H_S O_Te2Te2TeTe H_S C_TeTeTeTe H_S H_S O_Te2Te2TeTe H_S C_TrTrTrPi O_Tr2Tr2TrPi C_TeTeTeTe H_S H_S H_S
M  BCL BND NonConjugatedSingleBond NonConjugatedSingleBondInRing NonConjugatedSingleBondInRing NonConjugatedSingleBond NonConjugatedSingleBondInRing NonConjugatedSingleBond NonConjugatedSingleBond NonConjugatedSingleBondInRing NonConjugatedSingleBond NonConjugatedSingleBond NonConjugatedSingleBond NonConjugatedSingleBondInRing NonConjugatedSingleBond NonConjugatedSingleBond NonConjugatedSingleBond NonConjugatedSingleBond NonConjugatedSingleBond NonConjugatedSingleBond NonConjugatedSingleBond NonConjugatedSingleBond NonConjugatedSingleBond NonConjugatedSingleBond NonConjugatedSingleBond NonConjugatedSingleBond NonConjugatedSingleBondInRing NonConjugatedSingleBondInRing NonConjugatedSingleBondInRing NonConjugatedSingleBond NonConjugatedSingleBond NonConjugatedSingleBondInRing NonConjugatedSingleBond NonConjugatedSingleBond NonConjugatedSingleBond NonConjugatedSingleBondInRing NonConjugatedSingleBond NonConjugatedSingleBond NonConjugatedSingleBond NonConjugatedSingleBond NonConjugatedSingleBond NonConjugatedSingleBond NonConjugatedSingleBond NonConjugatedSingleBond NonConjugatedSingleBond NonConjugatedSingleBond NonConjugatedSingleBond NonConjugatedSingleBond ConjugatedSingleBond NonConjugatedSingleBond ConjugatedSingleBond ConjugatedSingleBond ConjugatedDoubleBond ConjugatedSingleBond ConjugatedSingleBond ConjugatedSingleBond ConjugatedDoubleBond NonConjugatedSingleBond NonConjugatedSingleBond NonConjugatedSingleBond NonConjugatedSingleBond NonConjugatedSingleBond ConjugatedDoubleBond NonConjugatedSingleBond NonConjugatedSingleBond NonConjugatedSingleBond NonConjugatedSingleBond NonConjugatedSingleBond NonConjugatedSingleBond NonConjugatedSingleBond NonConjugatedSingleBond NonConjugatedSingleBond NonConjugatedSingleBond NonConjugatedSingleBond NonConjugatedSingleBond ConjugatedDoubleBond NonConjugatedSingleBond NonConjugatedSingleBond NonConjugatedSingleBond NonConjugatedSingleBond NonConjugatedSingleBond NonConjugatedSingleBond NonConjugatedSingleBond NonConjugatedSingleBond NonConjugatedSingleBond NonConjugatedSingleBond NonConjugatedSingleBond NonConjugatedSingleBond ConjugatedDoubleBond NonConjugatedSingleBond NonConjugatedSingleBond NonConjugatedSingleBond NonConjugatedSingleBond NonConjugatedSingleBond NonConjugatedSingleBond NonConjugatedSingleBond NonConjugatedSingleBond NonConjugatedSingleBond NonConjugatedSingleBond NonConjugatedSingleBond NonConjugatedSingleBond ConjugatedDoubleBond NonConjugatedSingleBond NonConjugatedSingleBond NonConjugatedSingleBond NonConjugatedSingleBond NonConjugatedSingleBond NonConjugatedSingleBond NonConjugatedSingleBond NonConjugatedSingleBond NonConjugatedSingleBond NonConjugatedSingleBond NonConjugatedSingleBond NonConjugatedSingleBond ConjugatedDoubleBond NonConjugatedSingleBond NonConjugatedSingleBond NonConjugatedSingleBond NonConjugatedSingleBond NonConjugatedSingleBond NonConjugatedSingleBond NonConjugatedSingleBond NonConjugatedSingleBond NonConjugatedSingleBond NonConjugatedSingleBond NonConjugatedSingleBond NonConjugatedSingleBond ConjugatedDoubleBond NonConjugatedSingleBond NonConjugatedSingleBond NonConjugatedSingleBond NonConjugatedSingleBond NonConjugatedSingleBond NonConjugatedSingleBond NonConjugatedSingleBond NonConjugatedSingleBond NonConjugatedSingleBond NonConjugatedSingleBond NonConjugatedSingleBond NonConjugatedSingleBond ConjugatedDoubleBond NonConjugatedSingleBond NonConjugatedSingleBond NonConjugatedSingleBond NonConjugatedSingleBond NonConjugatedSingleBond NonConjugatedSingleBond NonConjugatedSingleBond NonConjugatedSingleBond NonConjugatedSingleBond NonConjugatedSingleBond NonConjugatedSingleBond NonConjugatedSingleBond ConjugatedDoubleBond NonConjugatedSingleBond NonConjugatedSingleBond NonConjugatedSingleBond NonConjugatedSingleBond NonConjugatedSingleBond NonConjugatedSingleBond NonConjugatedSingleBond NonConjugatedSingleBond NonConjugatedSingleBond NonConjugatedSingleBond NonConjugatedSingleBond NonConjugatedSingleBond ConjugatedDoubleBond NonConjugatedSingleBond NonConjugatedSingleBond NonConjugatedSingleBond NonConjugatedSingleBond NonConjugatedSingleBond NonConjugatedSingleBond NonConjugatedSingleBond NonConjugatedSingleBond NonConjugatedSingleBond NonConjugatedSingleBond NonConjugatedSingleBond NonConjugatedSingleBond ConjugatedDoubleBond NonConjugatedSingleBond NonConjugatedSingleBond NonConjugatedSingleBond NonConjugatedSingleBond NonConjugatedSingleBond NonConjugatedSingleBond NonConjugatedSingleBond NonConjugatedSingleBond NonConjugatedSingleBond NonConjugatedSingleBondInRing NonConjugatedSingleBondInRing NonConjugatedSingleBond NonConjugatedSingleBond NonConjugatedSingleBondInRing NonConjugatedSingleBond NonConjugatedSingleBondInRing NonConjugatedSingleBond NonConjugatedSingleBondInRing NonConjugatedSingleBond NonConjugatedSingleBond NonConjugatedSingleBondInRing NonConjugatedSingleBond NonConjugatedSingleBond NonConjugatedSingleBond NonConjugatedSingleBond NonConjugatedSingleBond NonConjugatedSingleBond NonConjugatedSingleBond NonConjugatedSingleBond NonConjugatedSingleBond NonConjugatedSingleBondInRing NonConjugatedSingleBondInRing NonConjugatedSingleBond NonConjugatedSingleBondInRing NonConjugatedSingleBond NonConjugatedSingleBondInRing NonConjugatedSingleBond NonConjugatedSingleBondInRing NonConjugatedSingleBond NonConjugatedSingleBondInRing NonConjugatedSingleBond NonConjugatedSingleBond NonConjugatedSingleBond NonConjugatedSingleBond AmideSingleBond NonConjugatedSingleBond NonConjugatedSingleBond NonConjugatedSingleBond NonConjugatedSingleBond NonConjugatedSingleBond ConjugatedDoubleBond NonConjugatedSingleBond NonConjugatedSingleBond NonConjugatedSingleBond NonConjugatedSingleBond
M  BCL CHI   1   R   4   R   8   R  17   S  20   R  22   S  25   R  29   S  38   S  42   R  46   R  50   S 185   R 187   S 190   S 192   R 194   R 205   R 207   S 210   R 212   S 214   S
M  BCL DBI - - E E E E E E E E Z - -
M  END
> <ConfClashScore>
0.00539487 

> <ConfOneFourInteractionScore>
-0.959169 

> <ConfScore>
0.718406 

> <ConfScorePBest>
0.0112875 

> <ConfTolerance>
3.57599 

$$$$
L05.****
  PyMOL2.5          3D                             0

230233  0  0  0  0  0  0  0  0999 V2000
   12.0428   -2.7951   -3.0290 C   0  0  0  1  0  0  0  0  0  0  0  0
   11.3564   -2.3317   -2.3515 H   0  0  0  1  0  0  0  0  0  0  0  0
   11.4670   -3.9803   -3.5645 O   0  0  0  1  0  0  0  0  0  0  0  0
   12.3230   -1.9086   -4.1202 C   0  0  0  1  0  0  0  0  0  0  0  0
   13.3105   -1.5079   -4.0243 H   0  0  0  1  0  0  0  0  0  0  0  0
   11.3749   -0.8404   -4.1408 O   0  0  0  1  0  0  0  0  0  0  0  0
   11.0814   -0.6552   -3.2458 H   0  0  0  1  0  0  0  0  0  0  0  0
   12.2194   -2.6859   -5.3286 C   0  0  0  1  0  0  0  0  0  0  0  0
   11.7123   -2.1300   -6.0894 H   0  0  0  1  0  0  0  0  0  0  0  0
   13.5165   -3.0596   -5.7957 O   0  0  0  1  0  0  0  0  0  0  0  0
   13.7325   -3.9376   -5.4733 H   0  0  0  1  0  0  0  0  0  0  0  0
    9.0535   -3.8889   -4.2880 C   0  0  0  1  0  0  0  0  0  0  0  0
    9.2515   -3.1530   -3.5369 H   0  0  0  1  0  0  0  0  0  0  0  0
    8.0450   -3.7869   -4.6308 H   0  0  0  1  0  0  0  0  0  0  0  0
    9.2563   -5.1942   -3.7553 O   0  0  0  1  0  0  0  0  0  0  0  0
    9.3457   -5.8236   -4.4747 H   0  0  0  1  0  0  0  0  0  0  0  0
   10.0180   -3.7154   -5.4524 C   0  0  0  1  0  0  0  0  0  0  0  0
    9.8911   -2.7367   -5.8657 H   0  0  0  1  0  0  0  0  0  0  0  0
    9.8028   -4.7054   -6.4515 O   0  0  0  1  0  0  0  0  0  0  0  0
   11.4525   -3.8629   -4.9628 C   0  0  0  1  0  0  0  0  0  0  0  0
   11.8926   -4.7329   -5.4036 H   0  0  0  1  0  0  0  0  0  0  0  0
    8.6997   -4.4459   -7.2750 C   0  0  0  1  0  0  0  0  0  0  0  0
    8.2236   -5.3681   -7.5353 H   0  0  0  1  0  0  0  0  0  0  0  0
    7.7671   -3.5730   -6.6029 O   0  0  0  1  0  0  0  0  0  0  0  0
    9.1315   -3.7200   -8.5062 C   0  0  0  1  0  0  0  0  0  0  0  0
    9.3402   -4.4049   -9.3013 H   0  0  0  1  0  0  0  0  0  0  0  0
   10.2872   -2.9207   -8.2497 O   0  0  0  1  0  0  0  0  0  0  0  0
   10.1012   -2.3088   -7.5337 H   0  0  0  1  0  0  0  0  0  0  0  0
    7.9459   -2.8605   -8.8347 C   0  0  0  1  0  0  0  0  0  0  0  0
    7.2189   -3.4075   -9.3979 H   0  0  0  1  0  0  0  0  0  0  0  0
    8.3401   -1.7024   -9.5649 O   0  0  0  1  0  0  0  0  0  0  0  0
    8.9752   -1.1996   -9.0497 H   0  0  0  1  0  0  0  0  0  0  0  0
    5.4200   -1.6959   -8.8273 C   0  0  0  1  0  0  0  0  0  0  0  0
    4.4126   -1.3596   -8.6970 H   0  0  0  1  0  0  0  0  0  0  0  0
    6.0488   -0.8606   -9.0548 H   0  0  0  1  0  0  0  0  0  0  0  0
    5.4592   -2.6067   -9.9179 O   0  0  0  1  0  0  0  0  0  0  0  0
    4.5654   -2.8734  -10.1451 H   0  0  0  1  0  0  0  0  0  0  0  0
    5.8966   -2.3259   -7.5264 C   0  0  0  1  0  0  0  0  0  0  0  0
    5.4642   -3.3025   -7.4618 H   0  0  0  1  0  0  0  0  0  0  0  0
    5.4259   -1.5397   -6.4280 O   0  0  0  1  0  0  0  0  0  0  0  0
    5.5105   -0.6076   -6.6416 H   0  0  0  1  0  0  0  0  0  0  0  0
    7.4089   -2.4870   -7.4739 C   0  0  0  1  0  0  0  0  0  0  0  0
    7.8536   -1.5747   -7.1350 H   0  0  0  1  0  0  0  0  0  0  0  0
   13.2480   -3.1114   -2.3418 O   0  0  0  1  0  0  0  0  0  0  0  0
   18.2118   -2.8698    3.6261 O   0  0  0  1  0  0  0  0  0  0  0  0
   19.7930   -3.1542    3.3544 P   0  0  0  1  0  0  0  0  0  0  0  0
   19.9118   -2.4677    1.9162 O   0  0  0  1  0  0  0  0  0  0  0  0
   20.0140   -4.6256    3.2640 O   0  0  0  0  0  0  0  0  0  0  0  0
   20.5876   -2.3372    4.2950 O   0  0  0  1  0  0  0  0  0  0  0  0
   18.8526   -2.2372    0.7367 P   0  0  0  1  0  0  0  0  0  0  0  0
   19.6487   -2.5689   -0.5795 O   0  0  0  1  0  0  0  0  0  0  0  0
   18.5095   -0.8013    0.6032 O   0  0  0  0  0  0  0  0  0  0  0  0
   17.7962   -3.2350    0.9705 O   0  0  0  1  0  0  0  0  0  0  0  0
   17.7028   -1.5274    3.6752 C   0  0  0  1  0  0  0  0  0  0  0  0
   18.4687   -0.8405    3.3810 H   0  0  0  1  0  0  0  0  0  0  0  0
   17.3819   -1.2998    4.6703 H   0  0  0  1  0  0  0  0  0  0  0  0
   16.5490   -1.4228    2.7399 C   0  0  0  1  0  0  0  0  0  0  0  0
   16.5919   -0.7472    1.9503 H   0  0  0  1  0  0  0  0  0  0  0  0
   15.4657   -2.1763    2.8950 C   0  0  0  1  0  0  0  0  0  0  0  0
   14.4554   -2.3210    1.7942 C   0  0  0  1  0  0  0  0  0  0  0  0
   14.7961   -3.0514    1.0904 H   0  0  0  1  0  0  0  0  0  0  0  0
   14.3303   -1.3805    1.2994 H   0  0  0  1  0  0  0  0  0  0  0  0
   13.5197   -2.6341    2.2081 H   0  0  0  1  0  0  0  0  0  0  0  0
   15.2084   -2.9130    4.1764 C   0  0  0  1  0  0  0  0  0  0  0  0
   14.2836   -2.5668    4.5885 H   0  0  0  1  0  0  0  0  0  0  0  0
   16.0052   -2.6994    4.8579 H   0  0  0  1  0  0  0  0  0  0  0  0
   15.1215   -4.4190    3.9903 C   0  0  0  1  0  0  0  0  0  0  0  0
   16.0668   -4.7614    3.6242 H   0  0  0  1  0  0  0  0  0  0  0  0
   14.3631   -4.6184    3.2624 H   0  0  0  1  0  0  0  0  0  0  0  0
   14.7951   -5.1971    5.2197 C   0  0  0  1  0  0  0  0  0  0  0  0
   14.0292   -4.8034    5.8028 H   0  0  0  1  0  0  0  0  0  0  0  0
   15.3400   -6.3238    5.6824 C   0  0  0  1  0  0  0  0  0  0  0  0
   15.0237   -6.8319    7.0591 C   0  0  0  1  0  0  0  0  0  0  0  0
   14.5672   -7.7969    6.9875 H   0  0  0  1  0  0  0  0  0  0  0  0
   14.3516   -6.1546    7.5432 H   0  0  0  1  0  0  0  0  0  0  0  0
   15.9270   -6.9062    7.6278 H   0  0  0  1  0  0  0  0  0  0  0  0
   16.2907   -7.1280    4.8456 C   0  0  0  1  0  0  0  0  0  0  0  0
   17.2658   -7.0645    5.2817 H   0  0  0  1  0  0  0  0  0  0  0  0
   16.3124   -6.7122    3.8600 H   0  0  0  1  0  0  0  0  0  0  0  0
   15.9008   -8.5937    4.7438 C   0  0  0  1  0  0  0  0  0  0  0  0
   14.9749   -8.6744    4.2137 H   0  0  0  1  0  0  0  0  0  0  0  0
   15.7846   -8.9950    5.7289 H   0  0  0  1  0  0  0  0  0  0  0  0
   16.9512   -9.3726    4.0177 C   0  0  0  1  0  0  0  0  0  0  0  0
   17.8604   -9.5207    4.5005 H   0  0  0  1  0  0  0  0  0  0  0  0
   16.8093   -9.8896    2.8020 C   0  0  0  1  0  0  0  0  0  0  0  0
   15.5583   -9.7596    1.9824 C   0  0  0  1  0  0  0  0  0  0  0  0
   15.7962   -9.2395    1.0780 H   0  0  0  1  0  0  0  0  0  0  0  0
   14.8421   -9.1945    2.5415 H   0  0  0  1  0  0  0  0  0  0  0  0
   17.9168  -10.6613    2.1413 C   0  0  0  1  0  0  0  0  0  0  0  0
   18.8607  -10.3179    2.5102 H   0  0  0  1  0  0  0  0  0  0  0  0
   17.8724  -10.5127    1.0826 H   0  0  0  1  0  0  0  0  0  0  0  0
   17.8058  -11.7026    2.3609 H   0  0  0  1  0  0  0  0  0  0  0  0
   14.9410  -11.1008    1.6212 C   0  0  0  1  0  0  0  0  0  0  0  0
   14.6752  -11.5975    2.5308 H   0  0  0  1  0  0  0  0  0  0  0  0
   15.6801  -11.6755    1.1032 H   0  0  0  1  0  0  0  0  0  0  0  0
   13.7227  -11.0336    0.7599 C   0  0  0  1  0  0  0  0  0  0  0  0
   12.9424  -10.4125    1.0549 H   0  0  0  1  0  0  0  0  0  0  0  0
   13.5864  -11.7290   -0.3657 C   0  0  0  1  0  0  0  0  0  0  0  0
   14.6953  -12.4165   -1.1078 C   0  0  0  1  0  0  0  0  0  0  0  0
   15.1378  -13.1449   -0.4609 H   0  0  0  1  0  0  0  0  0  0  0  0
   15.4289  -11.6857   -1.3775 H   0  0  0  1  0  0  0  0  0  0  0  0
   12.2125  -11.8674   -0.9911 C   0  0  0  1  0  0  0  0  0  0  0  0
   11.9725  -12.9044   -1.1001 H   0  0  0  1  0  0  0  0  0  0  0  0
   12.2096  -11.3978   -1.9525 H   0  0  0  1  0  0  0  0  0  0  0  0
   11.4856  -11.3975   -0.3620 H   0  0  0  1  0  0  0  0  0  0  0  0
   14.2219  -13.1159   -2.3716 C   0  0  0  1  0  0  0  0  0  0  0  0
   13.7748  -12.3884   -3.0164 H   0  0  0  1  0  0  0  0  0  0  0  0
   13.4921  -13.8503   -2.1014 H   0  0  0  1  0  0  0  0  0  0  0  0
   15.3342  -13.7988   -3.1190 C   0  0  0  1  0  0  0  0  0  0  0  0
   16.2199  -13.9501   -2.5954 H   0  0  0  1  0  0  0  0  0  0  0  0
   15.3079  -14.2296   -4.3756 C   0  0  0  1  0  0  0  0  0  0  0  0
   14.1122  -14.0946   -5.2801 C   0  0  0  1  0  0  0  0  0  0  0  0
   13.7049  -13.1144   -5.1446 H   0  0  0  1  0  0  0  0  0  0  0  0
   13.3896  -14.8258   -4.9834 H   0  0  0  1  0  0  0  0  0  0  0  0
   16.4982  -14.8998   -5.0022 C   0  0  0  1  0  0  0  0  0  0  0  0
   16.7243  -14.4269   -5.9350 H   0  0  0  1  0  0  0  0  0  0  0  0
   16.2777  -15.9332   -5.1707 H   0  0  0  1  0  0  0  0  0  0  0  0
   17.3400  -14.8164   -4.3471 H   0  0  0  1  0  0  0  0  0  0  0  0
   14.3914  -14.2856   -6.7620 C   0  0  0  1  0  0  0  0  0  0  0  0
   15.3394  -13.8449   -6.9895 H   0  0  0  1  0  0  0  0  0  0  0  0
   13.6242  -13.7904   -7.3197 H   0  0  0  1  0  0  0  0  0  0  0  0
   14.4244  -15.7239   -7.1713 C   0  0  0  1  0  0  0  0  0  0  0  0
   13.5071  -16.2106   -7.2293 H   0  0  0  1  0  0  0  0  0  0  0  0
   15.4977  -16.4467   -7.4685 C   0  0  0  1  0  0  0  0  0  0  0  0
   16.8246  -15.7980   -7.7443 C   0  0  0  1  0  0  0  0  0  0  0  0
   17.5496  -16.2060   -7.0713 H   0  0  0  1  0  0  0  0  0  0  0  0
   16.7313  -14.7458   -7.5738 H   0  0  0  1  0  0  0  0  0  0  0  0
   15.5004  -17.9446   -7.5582 C   0  0  0  1  0  0  0  0  0  0  0  0
   16.0908  -18.3490   -6.7628 H   0  0  0  1  0  0  0  0  0  0  0  0
   15.9149  -18.2447   -8.4979 H   0  0  0  1  0  0  0  0  0  0  0  0
   14.4972  -18.3083   -7.4779 H   0  0  0  1  0  0  0  0  0  0  0  0
   17.3096  -16.0162   -9.1683 C   0  0  0  1  0  0  0  0  0  0  0  0
   17.5028  -17.0596   -9.3061 H   0  0  0  1  0  0  0  0  0  0  0  0
   18.2152  -15.4638   -9.3080 H   0  0  0  1  0  0  0  0  0  0  0  0
   16.3191  -15.5753  -10.1987 C   0  0  0  1  0  0  0  0  0  0  0  0
   15.9807  -14.5923  -10.1703 H   0  0  0  1  0  0  0  0  0  0  0  0
   15.8502  -16.3776  -11.1484 C   0  0  0  1  0  0  0  0  0  0  0  0
   15.9922  -17.8718  -11.1215 C   0  0  0  1  0  0  0  0  0  0  0  0
   15.0692  -18.2956  -10.7849 H   0  0  0  1  0  0  0  0  0  0  0  0
   16.7735  -18.1274  -10.4365 H   0  0  0  1  0  0  0  0  0  0  0  0
   15.1258  -15.8360  -12.3485 C   0  0  0  1  0  0  0  0  0  0  0  0
   15.1112  -14.7670  -12.3046 H   0  0  0  1  0  0  0  0  0  0  0  0
   14.1218  -16.2061  -12.3558 H   0  0  0  1  0  0  0  0  0  0  0  0
   15.6284  -16.1492  -13.2396 H   0  0  0  1  0  0  0  0  0  0  0  0
   16.3284  -18.4624  -12.4811 C   0  0  0  1  0  0  0  0  0  0  0  0
   17.1619  -17.9288  -12.8876 H   0  0  0  1  0  0  0  0  0  0  0  0
   15.4807  -18.3436  -13.1231 H   0  0  0  1  0  0  0  0  0  0  0  0
   16.6803  -19.9247  -12.4180 C   0  0  0  1  0  0  0  0  0  0  0  0
   15.9900  -20.5480  -11.9527 H   0  0  0  1  0  0  0  0  0  0  0  0
   17.7764  -20.5049  -12.8920 C   0  0  0  1  0  0  0  0  0  0  0  0
   18.9798  -19.6924  -13.3014 C   0  0  0  1  0  0  0  0  0  0  0  0
   18.6463  -18.7025  -13.5334 H   0  0  0  1  0  0  0  0  0  0  0  0
   19.3995  -20.1422  -14.1768 H   0  0  0  1  0  0  0  0  0  0  0  0
   17.9310  -21.9874  -13.0661 C   0  0  0  1  0  0  0  0  0  0  0  0
   18.4624  -22.1871  -13.9731 H   0  0  0  1  0  0  0  0  0  0  0  0
   16.9642  -22.4437  -13.1116 H   0  0  0  1  0  0  0  0  0  0  0  0
   18.4766  -22.3886  -12.2377 H   0  0  0  1  0  0  0  0  0  0  0  0
   20.0788  -19.5842  -12.2570 C   0  0  0  1  0  0  0  0  0  0  0  0
   20.3736  -20.5759  -11.9841 H   0  0  0  1  0  0  0  0  0  0  0  0
   19.6738  -19.0840  -11.4022 H   0  0  0  1  0  0  0  0  0  0  0  0
   21.3031  -18.8414  -12.6891 C   0  0  0  1  0  0  0  0  0  0  0  0
   21.7375  -19.1445  -13.5841 H   0  0  0  1  0  0  0  0  0  0  0  0
   21.8953  -17.8371  -12.0541 C   0  0  0  1  0  0  0  0  0  0  0  0
   22.9263  -16.9786  -12.7367 C   0  0  0  1  0  0  0  0  0  0  0  0
   23.8274  -16.9868  -12.1598 H   0  0  0  1  0  0  0  0  0  0  0  0
   22.5570  -15.9768  -12.8082 H   0  0  0  1  0  0  0  0  0  0  0  0
   21.6088  -17.4614  -10.6297 C   0  0  0  1  0  0  0  0  0  0  0  0
   20.9353  -16.6316  -10.6828 H   0  0  0  1  0  0  0  0  0  0  0  0
   22.5112  -17.1790  -10.1288 H   0  0  0  1  0  0  0  0  0  0  0  0
   21.1538  -18.2796  -10.1116 H   0  0  0  1  0  0  0  0  0  0  0  0
   23.2237  -17.5009  -14.1328 C   0  0  0  1  0  0  0  0  0  0  0  0
   22.3278  -17.4702  -14.7171 H   0  0  0  1  0  0  0  0  0  0  0  0
   23.5703  -18.5108  -14.0631 H   0  0  0  1  0  0  0  0  0  0  0  0
   24.2789  -16.6621  -14.8029 C   0  0  0  1  0  0  0  0  0  0  0  0
   25.2593  -16.7678  -14.4725 H   0  0  0  1  0  0  0  0  0  0  0  0
   24.0522  -15.8013  -15.7799 C   0  0  0  1  0  0  0  0  0  0  0  0
   22.7017  -15.5763  -16.3951 C   0  0  0  1  0  0  0  0  0  0  0  0
   22.7398  -15.8148  -17.4375 H   0  0  0  1  0  0  0  0  0  0  0  0
   22.4212  -14.5508  -16.2741 H   0  0  0  1  0  0  0  0  0  0  0  0
   21.9812  -16.2030  -15.9122 H   0  0  0  1  0  0  0  0  0  0  0  0
   25.1608  -14.9598  -16.3641 C   0  0  0  1  0  0  0  0  0  0  0  0
   25.6533  -14.4704  -15.5499 H   0  0  0  1  0  0  0  0  0  0  0  0
   24.7533  -14.2328  -17.0351 H   0  0  0  1  0  0  0  0  0  0  0  0
   25.8541  -15.5823  -16.8901 H   0  0  0  1  0  0  0  0  0  0  0  0
   16.0780   -5.1554   -1.7714 C   0  0  0  1  0  0  0  0  0  0  0  0
   16.3560   -5.7367   -0.9171 H   0  0  0  1  0  0  0  0  0  0  0  0
   14.7875   -5.7074   -2.3629 C   0  0  0  1  0  0  0  0  0  0  0  0
   14.9425   -6.7140   -2.6910 H   0  0  0  1  0  0  0  0  0  0  0  0
   15.8782   -3.7957   -1.3780 O   0  0  0  1  0  0  0  0  0  0  0  0
   14.3858   -4.8318   -3.5540 C   0  0  0  1  0  0  0  0  0  0  0  0
   13.4138   -5.1303   -3.8874 H   0  0  0  1  0  0  0  0  0  0  0  0
   15.6307   -2.9339   -2.4998 C   0  0  0  1  0  0  0  0  0  0  0  0
   16.4487   -3.0011   -3.1862 H   0  0  0  1  0  0  0  0  0  0  0  0
   14.3477   -3.3550   -3.2007 C   0  0  0  1  0  0  0  0  0  0  0  0
   14.2341   -2.7827   -4.0976 H   0  0  0  1  0  0  0  0  0  0  0  0
   17.1123   -5.2198   -2.7465 O   0  0  0  1  0  0  0  0  0  0  0  0
   13.7550   -5.6812   -1.3756 O   0  0  0  1  0  0  0  0  0  0  0  0
   14.1324   -5.8651   -0.5123 H   0  0  0  1  0  0  0  0  0  0  0  0
   15.3262   -5.0261   -4.6003 O   0  0  0  1  0  0  0  0  0  0  0  0
   15.3978   -5.9630   -4.7969 H   0  0  0  1  0  0  0  0  0  0  0  0
   15.4936   -1.5100   -2.0169 C   0  0  0  1  0  0  0  0  0  0  0  0
   14.4599   -1.2855   -1.8558 H   0  0  0  1  0  0  0  0  0  0  0  0
   15.8924   -0.8439   -2.7532 H   0  0  0  1  0  0  0  0  0  0  0  0
   16.0312   -1.3914   -1.0994 H   0  0  0  1  0  0  0  0  0  0  0  0
   20.0710   -3.9036   -0.8632 C   0  0  0  1  0  0  0  0  0  0  0  0
   20.5958   -4.2992   -0.0188 H   0  0  0  1  0  0  0  0  0  0  0  0
   18.8459   -4.7733   -1.1527 C   0  0  0  1  0  0  0  0  0  0  0  0
   18.1674   -4.7131   -0.3275 H   0  0  0  1  0  0  0  0  0  0  0  0
   20.9420   -3.8956   -2.0050 O   0  0  0  1  0  0  0  0  0  0  0  0
   18.1476   -4.2957   -2.4095 C   0  0  0  1  0  0  0  0  0  0  0  0
   17.7203   -3.3319   -2.2263 H   0  0  0  1  0  0  0  0  0  0  0  0
   20.3336   -3.3574   -3.1721 C   0  0  0  1  0  0  0  0  0  0  0  0
   20.0176   -2.3546   -2.9734 H   0  0  0  1  0  0  0  0  0  0  0  0
   19.1236   -4.1933   -3.5796 C   0  0  0  1  0  0  0  0  0  0  0  0
   19.4474   -5.1741   -3.8587 H   0  0  0  1  0  0  0  0  0  0  0  0
   19.2723   -6.1638   -1.3353 N   0  0  0  1  0  0  0  0  0  0  0  0
   19.8640   -6.3403   -2.0963 H   0  0  0  1  0  0  0  0  0  0  0  0
   18.4730   -3.5751   -4.6848 O   0  0  0  1  0  0  0  0  0  0  0  0
   19.1297   -3.0189   -5.1103 H   0  0  0  1  0  0  0  0  0  0  0  0
   21.3324   -3.3554   -4.2933 C   0  0  0  1  0  0  0  0  0  0  0  0
   22.1880   -2.7804   -4.0064 H   0  0  0  1  0  0  0  0  0  0  0  0
   20.8876   -2.9230   -5.1651 H   0  0  0  1  0  0  0  0  0  0  0  0
   21.7344   -4.6914   -4.5801 O   0  0  0  1  0  0  0  0  0  0  0  0
   21.5392   -5.2348   -3.8131 H   0  0  0  1  0  0  0  0  0  0  0  0
   18.9455   -7.2193   -0.5812 C   0  0  0  1  0  0  0  0  0  0  0  0
   18.4738   -7.1141    0.5479 O   0  0  0  1  0  0  0  0  0  0  0  0
   19.1933   -8.5780   -1.2070 C   0  0  0  1  0  0  0  0  0  0  0  0
   18.9069   -9.2766   -0.4488 H   0  0  0  1  0  0  0  0  0  0  0  0
   20.2264   -8.6957   -1.4593 H   0  0  0  1  0  0  0  0  0  0  0  0
   18.5945   -8.7053   -2.0846 H   0  0  0  1  0  0  0  0  0  0  0  0
  1  2  1  0  0  0  0
  1  3  1  0  0  0  0
  1  4  1  0  0  0  0
  1 44  1  0  0  0  0
  3 20  1  0  0  0  0
  4  5  1  0  0  0  0
  4  6  1  0  0  0  0
  4  8  1  0  0  0  0
  6  7  1  0  0  0  0
  8  9  1  0  0  0  0
  8 10  1  0  0  0  0
  8 20  1  0  0  0  0
 10 11  1  0  0  0  0
 12 13  1  0  0  0  0
 12 14  1  0  0  0  0
 12 15  1  0  0  0  0
 12 17  1  0  0  0  0
 15 16  1  0  0  0  0
 17 18  1  0  0  0  0
 17 19  1  0  0  0  0
 17 20  1  0  0  0  0
 19 22  1  0  0  0  0
 20 21  1  0  0  0  0
 22 23  1  0  0  0  0
 22 24  1  0  0  0  0
 22 25  1  0  0  0  0
 24 42  1  0  0  0  0
 25 26  1  0  0  0  0
 25 27  1  0  0  0  0
 25 29  1  0  0  0  0
 27 28  1  0  0  0  0
 29 30  1  0  0  0  0
 29 31  1  0  0  0  0
 29 42  1  0  0  0  0
 31 32  1  0  0  0  0
 33 34  1  0  0  0  0
 33 35  1  0  0  0  0
 33 36  1  0  0  0  0
 33 38  1  0  0  0  0
 36 37  1  0  0  0  0
 38 39  1  0  0  0  0
 38 40  1  0  0  0  0
 38 42  1  0  0  0  0
 40 41  1  0  0  0  0
 42 43  1  0  0  0  0
 44194  1  0  0  0  0
 45 46  1  0  0  0  0
 45 54  1  0  0  0  0
 46 47  1  0  0  0  0
 46 48  1  0  0  0  0
 46 49  2  0  0  0  0
 47 50  1  0  0  0  0
 50 51  1  0  0  0  0
 50 52  1  0  0  0  0
 50 53  2  0  0  0  0
 51205  1  0  0  0  0
 54 55  1  0  0  0  0
 54 56  1  0  0  0  0
 54 57  1  0  0  0  0
 57 58  1  0  0  0  0
 57 59  2  0  0  0  0
 59 60  1  0  0  0  0
 59 64  1  0  0  0  0
 60 61  1  0  0  0  0
 60 62  1  0  0  0  0
 60 63  1  0  0  0  0
 64 65  1  0  0  0  0
 64 66  1  0  0  0  0
 64 67  1  0  0  0  0
 67 68  1  0  0  0  0
 67 69  1  0  0  0  0
 67 70  1  0  0  0  0
 70 71  1  0  0  0  0
 70 72  2  0  0  0  0
 72 73  1  0  0  0  0
 72 77  1  0  0  0  0
 73 74  1  0  0  0  0
 73 75  1  0  0  0  0
 73 76  1  0  0  0  0
 77 78  1  0  0  0  0
 77 79  1  0  0  0  0
 77 80  1  0  0  0  0
 80 81  1  0  0  0  0
 80 82  1  0  0  0  0
 80 83  1  0  0  0  0
 83 84  1  0  0  0  0
 83 85  2  0  0  0  0
 85 86  1  0  0  0  0
 85 89  1  0  0  0  0
 86 87  1  0  0  0  0
 86 88  1  0  0  0  0
 86 93  1  0  0  0  0
 89 90  1  0  0  0  0
 89 91  1  0  0  0  0
 89 92  1  0  0  0  0
 93 94  1  0  0  0  0
 93 95  1  0  0  0  0
 93 96  1  0  0  0  0
 96 97  1  0  0  0  0
 96 98  2  0  0  0  0
 98 99  1  0  0  0  0
 98102  1  0  0  0  0
 99100  1  0  0  0  0
 99101  1  0  0  0  0
 99106  1  0  0  0  0
102103  1  0  0  0  0
102104  1  0  0  0  0
102105  1  0  0  0  0
106107  1  0  0  0  0
106108  1  0  0  0  0
106109  1  0  0  0  0
109110  1  0  0  0  0
109111  2  0  0  0  0
111112  1  0  0  0  0
111115  1  0  0  0  0
112113  1  0  0  0  0
112114  1  0  0  0  0
112119  1  0  0  0  0
115116  1  0  0  0  0
115117  1  0  0  0  0
115118  1  0  0  0  0
119120  1  0  0  0  0
119121  1  0  0  0  0
119122  1  0  0  0  0
122123  1  0  0  0  0
122124  2  0  0  0  0
124125  1  0  0  0  0
124128  1  0  0  0  0
125126  1  0  0  0  0
125127  1  0  0  0  0
125132  1  0  0  0  0
128129  1  0  0  0  0
128130  1  0  0  0  0
128131  1  0  0  0  0
132133  1  0  0  0  0
132134  1  0  0  0  0
132135  1  0  0  0  0
135136  1  0  0  0  0
135137  2  0  0  0  0
137138  1  0  0  0  0
137141  1  0  0  0  0
138139  1  0  0  0  0
138140  1  0  0  0  0
138145  1  0  0  0  0
141142  1  0  0  0  0
141143  1  0  0  0  0
141144  1  0  0  0  0
145146  1  0  0  0  0
145147  1  0  0  0  0
145148  1  0  0  0  0
148149  1  0  0  0  0
148150  2  0  0  0  0
150151  1  0  0  0  0
150154  1  0  0  0  0
151152  1  0  0  0  0
151153  1  0  0  0  0
151158  1  0  0  0  0
154155  1  0  0  0  0
154156  1  0  0  0  0
154157  1  0  0  0  0
158159  1  0  0  0  0
158160  1  0  0  0  0
158161  1  0  0  0  0
161162  1  0  0  0  0
161163  2  0  0  0  0
163164  1  0  0  0  0
163167  1  0  0  0  0
164165  1  0  0  0  0
164166  1  0  0  0  0
164171  1  0  0  0  0
167168  1  0  0  0  0
167169  1  0  0  0  0
167170  1  0  0  0  0
171172  1  0  0  0  0
171173  1  0  0  0  0
171174  1  0  0  0  0
174175  1  0  0  0  0
174176  2  0  0  0  0
176177  1  0  0  0  0
176181  1  0  0  0  0
177178  1  0  0  0  0
177179  1  0  0  0  0
177180  1  0  0  0  0
181182  1  0  0  0  0
181183  1  0  0  0  0
181184  1  0  0  0  0
185186  1  0  0  0  0
185187  1  0  0  0  0
185189  1  0  0  0  0
185196  1  0  0  0  0
187188  1  0  0  0  0
187190  1  0  0  0  0
187197  1  0  0  0  0
189192  1  0  0  0  0
190191  1  0  0  0  0
190194  1  0  0  0  0
190199  1  0  0  0  0
192193  1  0  0  0  0
192194  1  0  0  0  0
192201  1  0  0  0  0
194195  1  0  0  0  0
196210  1  0  0  0  0
197198  1  0  0  0  0
199200  1  0  0  0  0
201202  1  0  0  0  0
201203  1  0  0  0  0
201204  1  0  0  0  0
205206  1  0  0  0  0
205207  1  0  0  0  0
205209  1  0  0  0  0
207208  1  0  0  0  0
207210  1  0  0  0  0
207216  1  0  0  0  0
209212  1  0  0  0  0
210211  1  0  0  0  0
210214  1  0  0  0  0
212213  1  0  0  0  0
212214  1  0  0  0  0
212220  1  0  0  0  0
214215  1  0  0  0  0
214218  1  0  0  0  0
216217  1  0  0  0  0
216225  1  0  0  0  0
218219  1  0  0  0  0
220221  1  0  0  0  0
220222  1  0  0  0  0
220223  1  0  0  0  0
223224  1  0  0  0  0
225226  2  0  0  0  0
225227  1  0  0  0  0
227228  1  0  0  0  0
227229  1  0  0  0  0
227230  1  0  0  0  0
M  BCL ATM C_TeTeTeTe H_S O_Te2Te2TeTe C_TeTeTeTe H_S O_Te2Te2TeTe H_S C_TeTeTeTe H_S O_Te2Te2TeTe H_S C_TeTeTeTe H_S H_S O_Te2Te2TeTe H_S C_TeTeTeTe H_S O_Te2Te2TeTe C_TeTeTeTe H_S C_TeTeTeTe H_S O_Te2Te2TeTe C_TeTeTeTe H_S O_Te2Te2TeTe H_S C_TeTeTeTe H_S O_Te2Te2TeTe H_S C_TeTeTeTe H_S H_S O_Te2Te2TeTe H_S C_TeTeTeTe H_S O_Te2Te2TeTe H_S C_TeTeTeTe H_S O_Te2Te2TeTe O_Tr2TrTrPi2 P_TeTeTeTePi O_Tr2TrTrPi2 O_Te2Te2TeTe O_Tr2Tr2TrPi P_TeTeTeTePi O_Tr2TrTrPi2 O_Te2Te2TeTe O_Tr2Tr2TrPi C_TeTeTeTe H_S H_S C_TrTrTrPi H_S C_TrTrTrPi C_TeTeTeTe H_S H_S H_S C_TeTeTeTe H_S H_S C_TeTeTeTe H_S H_S C_TrTrTrPi H_S C_TrTrTrPi C_TeTeTeTe H_S H_S H_S C_TeTeTeTe H_S H_S C_TeTeTeTe H_S H_S C_TrTrTrPi H_S C_TrTrTrPi C_TeTeTeTe H_S H_S C_TeTeTeTe H_S H_S H_S C_TeTeTeTe H_S H_S C_TrTrTrPi H_S C_TrTrTrPi C_TeTeTeTe H_S H_S C_TeTeTeTe H_S H_S H_S C_TeTeTeTe H_S H_S C_TrTrTrPi H_S C_TrTrTrPi C_TeTeTeTe H_S H_S C_TeTeTeTe H_S H_S H_S C_TeTeTeTe H_S H_S C_TrTrTrPi H_S C_TrTrTrPi C_TeTeTeTe H_S H_S C_TeTeTeTe H_S H_S H_S C_TeTeTeTe H_S H_S C_TrTrTrPi H_S C_TrTrTrPi C_TeTeTeTe H_S H_S C_TeTeTeTe H_S H_S H_S C_TeTeTeTe H_S H_S C_TrTrTrPi H_S C_TrTrTrPi C_TeTeTeTe H_S H_S C_TeTeTeTe H_S H_S H_S C_TeTeTeTe H_S H_S C_TrTrTrPi H_S C_TrTrTrPi C_TeTeTeTe H_S H_S C_TeTeTeTe H_S H_S H_S C_TeTeTeTe H_S H_S C_TrTrTrPi H_S C_TrTrTrPi C_TeTeTeTe H_S H_S H_S C_TeTeTeTe H_S H_S H_S C_TeTeTeTe H_S C_TeTeTeTe H_S O_Te2Te2TeTe C_TeTeTeTe H_S C_TeTeTeTe H_S C_TeTeTeTe H_S O_Te2Te2TeTe O_Te2Te2TeTe H_S O_Te2Te2TeTe H_S C_TeTeTeTe H_S H_S H_S C_TeTeTeTe H_S C_TeTeTeTe H_S O_Te2Te2TeTe C_TeTeTeTe H_S C_TeTeTeTe H_S C_TeTeTeTe H_S N_TrTrTrPi2 H_S O_Te2Te2TeTe H_S C_TeTeTeTe H_S H_S O_Te2Te2TeTe H_S C_TrTrTrPi O_Tr2Tr2TrPi C_TeTeTeTe H_S H_S H_S
M  BCL BND NonConjugatedSingleBond NonConjugatedSingleBondInRing NonConjugatedSingleBondInRing NonConjugatedSingleBond NonConjugatedSingleBondInRing NonConjugatedSingleBond NonConjugatedSingleBond NonConjugatedSingleBondInRing NonConjugatedSingleBond NonConjugatedSingleBond NonConjugatedSingleBond NonConjugatedSingleBondInRing NonConjugatedSingleBond NonConjugatedSingleBond NonConjugatedSingleBond NonConjugatedSingleBond NonConjugatedSingleBond NonConjugatedSingleBond NonConjugatedSingleBond NonConjugatedSingleBond NonConjugatedSingleBond NonConjugatedSingleBond NonConjugatedSingleBond NonConjugatedSingleBond NonConjugatedSingleBondInRing NonConjugatedSingleBondInRing NonConjugatedSingleBondInRing NonConjugatedSingleBond NonConjugatedSingleBond NonConjugatedSingleBondInRing NonConjugatedSingleBond NonConjugatedSingleBond NonConjugatedSingleBond NonConjugatedSingleBondInRing NonConjugatedSingleBond NonConjugatedSingleBond NonConjugatedSingleBond NonConjugatedSingleBond NonConjugatedSingleBond NonConjugatedSingleBond NonConjugatedSingleBond NonConjugatedSingleBond NonConjugatedSingleBond NonConjugatedSingleBond NonConjugatedSingleBond NonConjugatedSingleBond ConjugatedSingleBond NonConjugatedSingleBond ConjugatedSingleBond ConjugatedSingleBond ConjugatedDoubleBond ConjugatedSingleBond ConjugatedSingleBond ConjugatedSingleBond ConjugatedDoubleBond NonConjugatedSingleBond NonConjugatedSingleBond NonConjugatedSingleBond NonConjugatedSingleBond NonConjugatedSingleBond ConjugatedDoubleBond NonConjugatedSingleBond NonConjugatedSingleBond NonConjugatedSingleBond NonConjugatedSingleBond NonConjugatedSingleBond NonConjugatedSingleBond NonConjugatedSingleBond NonConjugatedSingleBond NonConjugatedSingleBond NonConjugatedSingleBond NonConjugatedSingleBond NonConjugatedSingleBond ConjugatedDoubleBond NonConjugatedSingleBond NonConjugatedSingleBond NonConjugatedSingleBond NonConjugatedSingleBond NonConjugatedSingleBond NonConjugatedSingleBond NonConjugatedSingleBond NonConjugatedSingleBond NonConjugatedSingleBond NonConjugatedSingleBond NonConjugatedSingleBond NonConjugatedSingleBond ConjugatedDoubleBond NonConjugatedSingleBond NonConjugatedSingleBond NonConjugatedSingleBond NonConjugatedSingleBond NonConjugatedSingleBond NonConjugatedSingleBond NonConjugatedSingleBond NonConjugatedSingleBond NonConjugatedSingleBond NonConjugatedSingleBond NonConjugatedSingleBond NonConjugatedSingleBond ConjugatedDoubleBond NonConjugatedSingleBond NonConjugatedSingleBond NonConjugatedSingleBond NonConjugatedSingleBond NonConjugatedSingleBond NonConjugatedSingleBond NonConjugatedSingleBond NonConjugatedSingleBond NonConjugatedSingleBond NonConjugatedSingleBond NonConjugatedSingleBond NonConjugatedSingleBond ConjugatedDoubleBond NonConjugatedSingleBond NonConjugatedSingleBond NonConjugatedSingleBond NonConjugatedSingleBond NonConjugatedSingleBond NonConjugatedSingleBond NonConjugatedSingleBond NonConjugatedSingleBond NonConjugatedSingleBond NonConjugatedSingleBond NonConjugatedSingleBond NonConjugatedSingleBond ConjugatedDoubleBond NonConjugatedSingleBond NonConjugatedSingleBond NonConjugatedSingleBond NonConjugatedSingleBond NonConjugatedSingleBond NonConjugatedSingleBond NonConjugatedSingleBond NonConjugatedSingleBond NonConjugatedSingleBond NonConjugatedSingleBond NonConjugatedSingleBond NonConjugatedSingleBond ConjugatedDoubleBond NonConjugatedSingleBond NonConjugatedSingleBond NonConjugatedSingleBond NonConjugatedSingleBond NonConjugatedSingleBond NonConjugatedSingleBond NonConjugatedSingleBond NonConjugatedSingleBond NonConjugatedSingleBond NonConjugatedSingleBond NonConjugatedSingleBond NonConjugatedSingleBond ConjugatedDoubleBond NonConjugatedSingleBond NonConjugatedSingleBond NonConjugatedSingleBond NonConjugatedSingleBond NonConjugatedSingleBond NonConjugatedSingleBond NonConjugatedSingleBond NonConjugatedSingleBond NonConjugatedSingleBond NonConjugatedSingleBond NonConjugatedSingleBond NonConjugatedSingleBond ConjugatedDoubleBond NonConjugatedSingleBond NonConjugatedSingleBond NonConjugatedSingleBond NonConjugatedSingleBond NonConjugatedSingleBond NonConjugatedSingleBond NonConjugatedSingleBond NonConjugatedSingleBond NonConjugatedSingleBond NonConjugatedSingleBond NonConjugatedSingleBond NonConjugatedSingleBond ConjugatedDoubleBond NonConjugatedSingleBond NonConjugatedSingleBond NonConjugatedSingleBond NonConjugatedSingleBond NonConjugatedSingleBond NonConjugatedSingleBond NonConjugatedSingleBond NonConjugatedSingleBond NonConjugatedSingleBond NonConjugatedSingleBondInRing NonConjugatedSingleBondInRing NonConjugatedSingleBond NonConjugatedSingleBond NonConjugatedSingleBondInRing NonConjugatedSingleBond NonConjugatedSingleBondInRing NonConjugatedSingleBond NonConjugatedSingleBondInRing NonConjugatedSingleBond NonConjugatedSingleBond NonConjugatedSingleBondInRing NonConjugatedSingleBond NonConjugatedSingleBond NonConjugatedSingleBond NonConjugatedSingleBond NonConjugatedSingleBond NonConjugatedSingleBond NonConjugatedSingleBond NonConjugatedSingleBond NonConjugatedSingleBond NonConjugatedSingleBondInRing NonConjugatedSingleBondInRing NonConjugatedSingleBond NonConjugatedSingleBondInRing NonConjugatedSingleBond NonConjugatedSingleBondInRing NonConjugatedSingleBond NonConjugatedSingleBondInRing NonConjugatedSingleBond NonConjugatedSingleBondInRing NonConjugatedSingleBond NonConjugatedSingleBond NonConjugatedSingleBond NonConjugatedSingleBond AmideSingleBond NonConjugatedSingleBond NonConjugatedSingleBond NonConjugatedSingleBond NonConjugatedSingleBond NonConjugatedSingleBond ConjugatedDoubleBond NonConjugatedSingleBond NonConjugatedSingleBond NonConjugatedSingleBond NonConjugatedSingleBond
M  BCL CHI   1   R   4   R   8   R  17   S  20   R  22   S  25   R  29   S  38   S  42   R  46   R  50   S 185   R 187   S 190   S 192   R 194   R 205   R 207   S 210   R 212   S 214   S
M  BCL DBI - - E E E E E E E E Z - -
M  END
> <ConfClashScore>
0.00309138 

> <ConfOneFourInteractionScore>
-0.956285 

> <ConfScore>
0.760887 

> <ConfScorePBest>
0.0111845 

> <ConfTolerance>
2.51329 

$$$$
L05.****
  PyMOL2.5          3D                             0

230233  0  0  0  0  0  0  0  0999 V2000
   12.0895   -2.7074   -2.3781 C   0  0  0  1  0  0  0  0  0  0  0  0
   11.6874   -3.2482   -3.2092 H   0  0  0  1  0  0  0  0  0  0  0  0
   12.2968   -1.3682   -2.7237 O   0  0  0  1  0  0  0  0  0  0  0  0
   11.0853   -2.6915   -1.2146 C   0  0  0  1  0  0  0  0  0  0  0  0
   11.5841   -2.5698   -0.2758 H   0  0  0  1  0  0  0  0  0  0  0  0
   10.3068   -3.8888   -1.1893 O   0  0  0  1  0  0  0  0  0  0  0  0
    9.4256   -3.6913   -0.8636 H   0  0  0  1  0  0  0  0  0  0  0  0
   10.2230   -1.4840   -1.5376 C   0  0  0  1  0  0  0  0  0  0  0  0
    9.4067   -1.7528   -2.1749 H   0  0  0  1  0  0  0  0  0  0  0  0
    9.7185   -0.8788   -0.3461 O   0  0  0  1  0  0  0  0  0  0  0  0
   10.2270   -0.0890   -0.1477 H   0  0  0  1  0  0  0  0  0  0  0  0
    9.0159    0.2030   -3.2855 C   0  0  0  1  0  0  0  0  0  0  0  0
    8.5872   -0.7687   -3.4159 H   0  0  0  1  0  0  0  0  0  0  0  0
    8.7711    0.5737   -2.3121 H   0  0  0  1  0  0  0  0  0  0  0  0
    8.5213    1.0891   -4.2809 O   0  0  0  1  0  0  0  0  0  0  0  0
    9.2090    1.2594   -4.9287 H   0  0  0  1  0  0  0  0  0  0  0  0
   10.5264    0.1302   -3.4486 C   0  0  0  1  0  0  0  0  0  0  0  0
   10.9072    1.1257   -3.5424 H   0  0  0  1  0  0  0  0  0  0  0  0
   10.7773   -0.5988   -4.6445 O   0  0  0  1  0  0  0  0  0  0  0  0
   11.2122   -0.5411   -2.2662 C   0  0  0  1  0  0  0  0  0  0  0  0
   11.5755    0.2066   -1.5924 H   0  0  0  1  0  0  0  0  0  0  0  0
   11.2234    0.1506   -5.7524 C   0  0  0  1  0  0  0  0  0  0  0  0
   10.6293    1.0354   -5.8477 H   0  0  0  1  0  0  0  0  0  0  0  0
   12.6367    0.4894   -5.6123 O   0  0  0  1  0  0  0  0  0  0  0  0
   11.1609   -0.6747   -7.0171 C   0  0  0  1  0  0  0  0  0  0  0  0
   11.0617   -0.0476   -7.8784 H   0  0  0  1  0  0  0  0  0  0  0  0
   10.0714   -1.5974   -6.9711 O   0  0  0  1  0  0  0  0  0  0  0  0
   10.2574   -2.2808   -6.3231 H   0  0  0  1  0  0  0  0  0  0  0  0
   12.5055   -1.4142   -7.0291 C   0  0  0  1  0  0  0  0  0  0  0  0
   12.8421   -1.5860   -8.0302 H   0  0  0  1  0  0  0  0  0  0  0  0
   12.4143   -2.6567   -6.3381 O   0  0  0  1  0  0  0  0  0  0  0  0
   12.0156   -3.3144   -6.9127 H   0  0  0  1  0  0  0  0  0  0  0  0
   15.4506    1.1187   -6.7028 C   0  0  0  1  0  0  0  0  0  0  0  0
   16.1754    1.2828   -7.4726 H   0  0  0  1  0  0  0  0  0  0  0  0
   15.0427    2.0572   -6.3904 H   0  0  0  1  0  0  0  0  0  0  0  0
   16.1104    0.5303   -5.5912 O   0  0  0  1  0  0  0  0  0  0  0  0
   15.5833   -0.1978   -5.2542 H   0  0  0  1  0  0  0  0  0  0  0  0
   14.3187    0.2786   -7.2864 C   0  0  0  1  0  0  0  0  0  0  0  0
   14.7757   -0.4767   -7.8910 H   0  0  0  1  0  0  0  0  0  0  0  0
   13.5293    1.1126   -8.1474 O   0  0  0  1  0  0  0  0  0  0  0  0
   12.9296    0.5664   -8.6609 H   0  0  0  1  0  0  0  0  0  0  0  0
   13.4355   -0.4375   -6.2921 C   0  0  0  1  0  0  0  0  0  0  0  0
   14.0447   -0.9729   -5.5940 H   0  0  0  1  0  0  0  0  0  0  0  0
   13.3126   -3.3076   -1.9678 O   0  0  0  1  0  0  0  0  0  0  0  0
   19.7219   -9.0437   -7.1944 O   0  0  0  1  0  0  0  0  0  0  0  0
   18.8375   -9.4367   -5.9142 P   0  0  0  1  0  0  0  0  0  0  0  0
   19.9363   -9.4323   -4.7646 O   0  0  0  1  0  0  0  0  0  0  0  0
   18.2855  -10.7886   -6.1190 O   0  0  0  0  0  0  0  0  0  0  0  0
   17.9155   -8.3395   -5.6182 O   0  0  0  1  0  0  0  0  0  0  0  0
   19.9051   -9.4665   -3.1874 P   0  0  0  1  0  0  0  0  0  0  0  0
   20.3518   -7.9967   -2.8466 O   0  0  0  1  0  0  0  0  0  0  0  0
   20.8172  -10.5413   -2.6516 O   0  0  0  0  0  0  0  0  0  0  0  0
   18.4818   -9.5829   -2.8508 O   0  0  0  1  0  0  0  0  0  0  0  0
   20.4248   -7.7909   -7.1870 C   0  0  0  1  0  0  0  0  0  0  0  0
   20.9648   -7.6860   -6.2693 H   0  0  0  1  0  0  0  0  0  0  0  0
   19.7271   -6.9856   -7.2850 H   0  0  0  1  0  0  0  0  0  0  0  0
   21.3759   -7.7731   -8.3339 C   0  0  0  1  0  0  0  0  0  0  0  0
   21.9273   -6.9050   -8.4884 H   0  0  0  1  0  0  0  0  0  0  0  0
   21.5721   -8.7838   -9.1739 C   0  0  0  1  0  0  0  0  0  0  0  0
   22.2778   -8.6466  -10.4916 C   0  0  0  1  0  0  0  0  0  0  0  0
   23.3357   -8.6389  -10.3312 H   0  0  0  1  0  0  0  0  0  0  0  0
   21.9818   -7.7316  -10.9609 H   0  0  0  1  0  0  0  0  0  0  0  0
   22.0189   -9.4714  -11.1222 H   0  0  0  1  0  0  0  0  0  0  0  0
   21.0907  -10.1723   -8.8596 C   0  0  0  1  0  0  0  0  0  0  0  0
   20.0751  -10.2623   -9.1844 H   0  0  0  1  0  0  0  0  0  0  0  0
   21.1415  -10.3189   -7.8010 H   0  0  0  1  0  0  0  0  0  0  0  0
   21.9133  -11.2555   -9.5381 C   0  0  0  1  0  0  0  0  0  0  0  0
   22.9413  -11.1377   -9.2657 H   0  0  0  1  0  0  0  0  0  0  0  0
   21.8118  -11.1603  -10.5991 H   0  0  0  1  0  0  0  0  0  0  0  0
   21.4487  -12.6124   -9.1215 C   0  0  0  1  0  0  0  0  0  0  0  0
   20.4368  -12.7496   -8.9244 H   0  0  0  1  0  0  0  0  0  0  0  0
   22.2646  -13.6530   -8.9903 C   0  0  0  1  0  0  0  0  0  0  0  0
   21.8092  -15.0209   -8.5723 C   0  0  0  1  0  0  0  0  0  0  0  0
   20.7439  -15.0276   -8.4722 H   0  0  0  1  0  0  0  0  0  0  0  0
   22.2569  -15.2744   -7.6341 H   0  0  0  1  0  0  0  0  0  0  0  0
   22.1021  -15.7358   -9.3126 H   0  0  0  1  0  0  0  0  0  0  0  0
   23.7364  -13.5351   -9.2564 C   0  0  0  1  0  0  0  0  0  0  0  0
   24.2634  -14.0859   -8.5056 H   0  0  0  1  0  0  0  0  0  0  0  0
   24.0109  -12.5024   -9.2006 H   0  0  0  1  0  0  0  0  0  0  0  0
   24.1393  -14.0697  -10.6210 C   0  0  0  1  0  0  0  0  0  0  0  0
   23.5452  -13.5835  -11.3664 H   0  0  0  1  0  0  0  0  0  0  0  0
   23.9496  -15.1225  -10.6439 H   0  0  0  1  0  0  0  0  0  0  0  0
   25.5921  -13.8376  -10.9398 C   0  0  0  1  0  0  0  0  0  0  0  0
   26.2960  -14.3800  -10.3993 H   0  0  0  1  0  0  0  0  0  0  0  0
   26.0444  -12.9875  -11.8644 C   0  0  0  1  0  0  0  0  0  0  0  0
   25.0996  -12.1618  -12.6936 C   0  0  0  1  0  0  0  0  0  0  0  0
   24.1010  -12.4015  -12.3931 H   0  0  0  1  0  0  0  0  0  0  0  0
   25.2384  -12.4319  -13.7196 H   0  0  0  1  0  0  0  0  0  0  0  0
   27.5340  -12.7617  -12.0318 C   0  0  0  1  0  0  0  0  0  0  0  0
   28.0397  -13.0305  -11.1280 H   0  0  0  1  0  0  0  0  0  0  0  0
   27.7159  -11.7298  -12.2486 H   0  0  0  1  0  0  0  0  0  0  0  0
   27.8977  -13.3653  -12.8369 H   0  0  0  1  0  0  0  0  0  0  0  0
   25.2757  -10.6565  -12.5770 C   0  0  0  1  0  0  0  0  0  0  0  0
   26.2442  -10.3872  -12.9436 H   0  0  0  1  0  0  0  0  0  0  0  0
   25.1910  -10.3720  -11.5490 H   0  0  0  1  0  0  0  0  0  0  0  0
   24.2262   -9.9328  -13.3775 C   0  0  0  1  0  0  0  0  0  0  0  0
   23.2357  -10.1560  -13.1525 H   0  0  0  1  0  0  0  0  0  0  0  0
   24.4279   -9.0403  -14.3395 C   0  0  0  1  0  0  0  0  0  0  0  0
   25.8150   -8.6369  -14.7527 C   0  0  0  1  0  0  0  0  0  0  0  0
   25.9013   -8.7858  -15.8087 H   0  0  0  1  0  0  0  0  0  0  0  0
   26.5090   -9.2731  -14.2443 H   0  0  0  1  0  0  0  0  0  0  0  0
   23.3246   -8.3592  -15.0950 C   0  0  0  1  0  0  0  0  0  0  0  0
   23.6737   -8.0873  -16.0692 H   0  0  0  1  0  0  0  0  0  0  0  0
   23.0212   -7.4795  -14.5667 H   0  0  0  1  0  0  0  0  0  0  0  0
   22.4922   -9.0250  -15.1877 H   0  0  0  1  0  0  0  0  0  0  0  0
   26.1917   -7.1957  -14.4501 C   0  0  0  1  0  0  0  0  0  0  0  0
   25.4847   -6.5511  -14.9292 H   0  0  0  1  0  0  0  0  0  0  0  0
   27.1690   -7.0093  -14.8438 H   0  0  0  1  0  0  0  0  0  0  0  0
   26.2013   -6.8856  -12.9771 C   0  0  0  1  0  0  0  0  0  0  0  0
   26.8092   -7.4833  -12.3814 H   0  0  0  1  0  0  0  0  0  0  0  0
   25.5179   -5.9318  -12.3558 C   0  0  0  1  0  0  0  0  0  0  0  0
   24.6074   -5.0066  -13.1097 C   0  0  0  1  0  0  0  0  0  0  0  0
   24.8830   -5.0251  -14.1434 H   0  0  0  1  0  0  0  0  0  0  0  0
   24.7330   -4.0163  -12.7243 H   0  0  0  1  0  0  0  0  0  0  0  0
   25.5808   -5.6835  -10.8750 C   0  0  0  1  0  0  0  0  0  0  0  0
   24.5903   -5.6848  -10.4703 H   0  0  0  1  0  0  0  0  0  0  0  0
   26.0395   -4.7343  -10.6919 H   0  0  0  1  0  0  0  0  0  0  0  0
   26.1574   -6.4548  -10.4085 H   0  0  0  1  0  0  0  0  0  0  0  0
   23.1409   -5.3887  -12.9931 C   0  0  0  1  0  0  0  0  0  0  0  0
   22.8876   -5.4122  -11.9538 H   0  0  0  1  0  0  0  0  0  0  0  0
   23.0200   -6.3657  -13.4123 H   0  0  0  1  0  0  0  0  0  0  0  0
   22.1769   -4.4645  -13.6848 C   0  0  0  1  0  0  0  0  0  0  0  0
   22.3129   -4.3336  -14.7075 H   0  0  0  1  0  0  0  0  0  0  0  0
   21.1710   -3.7976  -13.1314 C   0  0  0  1  0  0  0  0  0  0  0  0
   20.6643   -4.1443  -11.7601 C   0  0  0  1  0  0  0  0  0  0  0  0
   20.8691   -5.1798  -11.5845 H   0  0  0  1  0  0  0  0  0  0  0  0
   19.6067   -3.9824  -11.7483 H   0  0  0  1  0  0  0  0  0  0  0  0
   20.4537   -2.6597  -13.7968 C   0  0  0  1  0  0  0  0  0  0  0  0
   19.8785   -3.0318  -14.6187 H   0  0  0  1  0  0  0  0  0  0  0  0
   21.1684   -1.9485  -14.1549 H   0  0  0  1  0  0  0  0  0  0  0  0
   19.8027   -2.1874  -13.0911 H   0  0  0  1  0  0  0  0  0  0  0  0
   21.2736   -3.3458  -10.6192 C   0  0  0  1  0  0  0  0  0  0  0  0
   21.3103   -2.3157  -10.9061 H   0  0  0  1  0  0  0  0  0  0  0  0
   22.2668   -3.7039  -10.4453 H   0  0  0  1  0  0  0  0  0  0  0  0
   20.4924   -3.4586   -9.3374 C   0  0  0  1  0  0  0  0  0  0  0  0
   21.0281   -3.6112   -8.4592 H   0  0  0  1  0  0  0  0  0  0  0  0
   19.1694   -3.3779   -9.2444 C   0  0  0  1  0  0  0  0  0  0  0  0
   18.2436   -3.4835  -10.4214 C   0  0  0  1  0  0  0  0  0  0  0  0
   18.6710   -4.1758  -11.1163 H   0  0  0  1  0  0  0  0  0  0  0  0
   18.1759   -2.5171  -10.8757 H   0  0  0  1  0  0  0  0  0  0  0  0
   18.4852   -3.1698   -7.9226 C   0  0  0  1  0  0  0  0  0  0  0  0
   19.2198   -3.0931   -7.1484 H   0  0  0  1  0  0  0  0  0  0  0  0
   17.8399   -3.9991   -7.7208 H   0  0  0  1  0  0  0  0  0  0  0  0
   17.9088   -2.2690   -7.9575 H   0  0  0  1  0  0  0  0  0  0  0  0
   16.8332   -3.9510  -10.1011 C   0  0  0  1  0  0  0  0  0  0  0  0
   16.5678   -3.5645   -9.1393 H   0  0  0  1  0  0  0  0  0  0  0  0
   16.8398   -5.0204  -10.0668 H   0  0  0  1  0  0  0  0  0  0  0  0
   15.7747   -3.5246  -11.0807 C   0  0  0  1  0  0  0  0  0  0  0  0
   15.5370   -2.5130  -11.1224 H   0  0  0  1  0  0  0  0  0  0  0  0
   15.1177   -4.3475  -11.9002 C   0  0  0  1  0  0  0  0  0  0  0  0
   15.3962   -5.8240  -11.9076 C   0  0  0  1  0  0  0  0  0  0  0  0
   16.2790   -6.0070  -11.3313 H   0  0  0  1  0  0  0  0  0  0  0  0
   15.5589   -6.1348  -12.9185 H   0  0  0  1  0  0  0  0  0  0  0  0
   14.0743   -3.8316  -12.8474 C   0  0  0  1  0  0  0  0  0  0  0  0
   14.5250   -3.1508  -13.5390 H   0  0  0  1  0  0  0  0  0  0  0  0
   13.3107   -3.3251  -12.2950 H   0  0  0  1  0  0  0  0  0  0  0  0
   13.6433   -4.6511  -13.3837 H   0  0  0  1  0  0  0  0  0  0  0  0
   14.2589   -6.6474  -11.3254 C   0  0  0  1  0  0  0  0  0  0  0  0
   13.3324   -6.2487  -11.6823 H   0  0  0  1  0  0  0  0  0  0  0  0
   14.2938   -6.5700  -10.2587 H   0  0  0  1  0  0  0  0  0  0  0  0
   14.3313   -8.1015  -11.7024 C   0  0  0  1  0  0  0  0  0  0  0  0
   14.3785   -8.3151  -12.7192 H   0  0  0  1  0  0  0  0  0  0  0  0
   14.3415   -9.1430  -10.8774 C   0  0  0  1  0  0  0  0  0  0  0  0
   14.4160  -10.5698  -11.3380 C   0  0  0  1  0  0  0  0  0  0  0  0
   13.4919  -10.7970  -11.8271 H   0  0  0  1  0  0  0  0  0  0  0  0
   14.5192  -11.1825  -10.4669 H   0  0  0  1  0  0  0  0  0  0  0  0
   14.2776   -8.9659   -9.3864 C   0  0  0  1  0  0  0  0  0  0  0  0
   14.6645   -9.8741   -8.9737 H   0  0  0  1  0  0  0  0  0  0  0  0
   13.2666   -8.8130   -9.0711 H   0  0  0  1  0  0  0  0  0  0  0  0
   14.8762   -8.1325   -9.0830 H   0  0  0  1  0  0  0  0  0  0  0  0
   15.5392  -10.9427  -12.2919 C   0  0  0  1  0  0  0  0  0  0  0  0
   16.4790  -10.7196  -11.8316 H   0  0  0  1  0  0  0  0  0  0  0  0
   15.4383  -10.3734  -13.1922 H   0  0  0  1  0  0  0  0  0  0  0  0
   15.4900  -12.4001  -12.6251 C   0  0  0  1  0  0  0  0  0  0  0  0
   14.6525  -12.7283  -13.1470 H   0  0  0  1  0  0  0  0  0  0  0  0
   16.4003  -13.3208  -12.3267 C   0  0  0  1  0  0  0  0  0  0  0  0
   16.2233  -14.7862  -12.5994 C   0  0  0  1  0  0  0  0  0  0  0  0
   16.5142  -15.3478  -11.7364 H   0  0  0  1  0  0  0  0  0  0  0  0
   16.8331  -15.0701  -13.4315 H   0  0  0  1  0  0  0  0  0  0  0  0
   15.1964  -14.9853  -12.8248 H   0  0  0  1  0  0  0  0  0  0  0  0
   17.7116  -12.9532  -11.6756 C   0  0  0  1  0  0  0  0  0  0  0  0
   18.2670  -12.3721  -12.3818 H   0  0  0  1  0  0  0  0  0  0  0  0
   18.2554  -13.8392  -11.4227 H   0  0  0  1  0  0  0  0  0  0  0  0
   17.5322  -12.3793  -10.7905 H   0  0  0  1  0  0  0  0  0  0  0  0
   16.2557   -5.1245   -1.8338 C   0  0  0  1  0  0  0  0  0  0  0  0
   16.6273   -5.6693   -0.9912 H   0  0  0  1  0  0  0  0  0  0  0  0
   14.9745   -5.7523   -2.2973 C   0  0  0  1  0  0  0  0  0  0  0  0
   15.1777   -6.7344   -2.6703 H   0  0  0  1  0  0  0  0  0  0  0  0
   16.0551   -3.7883   -1.4629 O   0  0  0  1  0  0  0  0  0  0  0  0
   14.3459   -4.9175   -3.4009 C   0  0  0  1  0  0  0  0  0  0  0  0
   13.3611   -5.2872   -3.5969 H   0  0  0  1  0  0  0  0  0  0  0  0
   15.6137   -2.9696   -2.5491 C   0  0  0  1  0  0  0  0  0  0  0  0
   16.3144   -3.0346   -3.3551 H   0  0  0  1  0  0  0  0  0  0  0  0
   14.2535   -3.4597   -3.0157 C   0  0  0  1  0  0  0  0  0  0  0  0
   13.9400   -2.8866   -3.8632 H   0  0  0  1  0  0  0  0  0  0  0  0
   17.2076   -5.1760   -2.8901 O   0  0  0  1  0  0  0  0  0  0  0  0
   14.0671   -5.8383   -1.1970 O   0  0  0  1  0  0  0  0  0  0  0  0
   13.5733   -5.0183   -1.1240 H   0  0  0  1  0  0  0  0  0  0  0  0
   15.1381   -5.0340   -4.5738 O   0  0  0  1  0  0  0  0  0  0  0  0
   15.1941   -5.9569   -4.8323 H   0  0  0  1  0  0  0  0  0  0  0  0
   15.5043   -1.5257   -2.0871 C   0  0  0  1  0  0  0  0  0  0  0  0
   15.5656   -1.4865   -1.0196 H   0  0  0  1  0  0  0  0  0  0  0  0
   14.5668   -1.1197   -2.4054 H   0  0  0  1  0  0  0  0  0  0  0  0
   16.3033   -0.9542   -2.5112 H   0  0  0  1  0  0  0  0  0  0  0  0
   19.5566   -6.8701   -3.2570 C   0  0  0  1  0  0  0  0  0  0  0  0
   18.6270   -7.2163   -3.6582 H   0  0  0  1  0  0  0  0  0  0  0  0
   19.2922   -5.9835   -2.0708 C   0  0  0  1  0  0  0  0  0  0  0  0
   20.2235   -5.6749   -1.6438 H   0  0  0  1  0  0  0  0  0  0  0  0
   20.2529   -6.1358   -4.2454 O   0  0  0  1  0  0  0  0  0  0  0  0
   18.5168   -4.7728   -2.5026 C   0  0  0  1  0  0  0  0  0  0  0  0
   18.4519   -4.0904   -1.6811 H   0  0  0  1  0  0  0  0  0  0  0  0
   19.4413   -5.0745   -4.7792 C   0  0  0  1  0  0  0  0  0  0  0  0
   19.9564   -4.5939   -5.5846 H   0  0  0  1  0  0  0  0  0  0  0  0
   19.1809   -4.0767   -3.6677 C   0  0  0  1  0  0  0  0  0  0  0  0
   18.5401   -3.3002   -4.0300 H   0  0  0  1  0  0  0  0  0  0  0  0
   18.5219   -6.7221   -1.0769 N   0  0  0  1  0  0  0  0  0  0  0  0
   17.8845   -7.4012   -1.3816 H   0  0  0  1  0  0  0  0  0  0  0  0
   20.4201   -3.5107   -3.2384 O   0  0  0  1  0  0  0  0  0  0  0  0
   20.9498   -3.3852   -4.0291 H   0  0  0  1  0  0  0  0  0  0  0  0
   18.1496   -5.6269   -5.2745 C   0  0  0  1  0  0  0  0  0  0  0  0
   17.7309   -6.2392   -4.5033 H   0  0  0  1  0  0  0  0  0  0  0  0
   18.3522   -6.2273   -6.1367 H   0  0  0  1  0  0  0  0  0  0  0  0
   17.1927   -4.6527   -5.6314 O   0  0  0  1  0  0  0  0  0  0  0  0
   16.7648   -4.3442   -4.8293 H   0  0  0  1  0  0  0  0  0  0  0  0
   18.6551   -6.5052    0.2347 C   0  0  0  1  0  0  0  0  0  0  0  0
   19.4776   -5.7337    0.7003 O   0  0  0  1  0  0  0  0  0  0  0  0
   17.7114   -7.2840    1.1303 C   0  0  0  1  0  0  0  0  0  0  0  0
   17.6070   -6.6730    2.0025 H   0  0  0  1  0  0  0  0  0  0  0  0
   18.1290   -8.2362    1.3831 H   0  0  0  1  0  0  0  0  0  0  0  0
   16.7650   -7.4248    0.6514 H   0  0  0  1  0  0  0  0  0  0  0  0
  1  2  1  0  0  0  0
  1  3  1  0  0  0  0
  1  4  1  0  0  0  0
  1 44  1  0  0  0  0
  3 20  1  0  0  0  0
  4  5  1  0  0  0  0
  4  6  1  0  0  0  0
  4  8  1  0  0  0  0
  6  7  1  0  0  0  0
  8  9  1  0  0  0  0
  8 10  1  0  0  0  0
  8 20  1  0  0  0  0
 10 11  1  0  0  0  0
 12 13  1  0  0  0  0
 12 14  1  0  0  0  0
 12 15  1  0  0  0  0
 12 17  1  0  0  0  0
 15 16  1  0  0  0  0
 17 18  1  0  0  0  0
 17 19  1  0  0  0  0
 17 20  1  0  0  0  0
 19 22  1  0  0  0  0
 20 21  1  0  0  0  0
 22 23  1  0  0  0  0
 22 24  1  0  0  0  0
 22 25  1  0  0  0  0
 24 42  1  0  0  0  0
 25 26  1  0  0  0  0
 25 27  1  0  0  0  0
 25 29  1  0  0  0  0
 27 28  1  0  0  0  0
 29 30  1  0  0  0  0
 29 31  1  0  0  0  0
 29 42  1  0  0  0  0
 31 32  1  0  0  0  0
 33 34  1  0  0  0  0
 33 35  1  0  0  0  0
 33 36  1  0  0  0  0
 33 38  1  0  0  0  0
 36 37  1  0  0  0  0
 38 39  1  0  0  0  0
 38 40  1  0  0  0  0
 38 42  1  0  0  0  0
 40 41  1  0  0  0  0
 42 43  1  0  0  0  0
 44194  1  0  0  0  0
 45 46  1  0  0  0  0
 45 54  1  0  0  0  0
 46 47  1  0  0  0  0
 46 48  1  0  0  0  0
 46 49  2  0  0  0  0
 47 50  1  0  0  0  0
 50 51  1  0  0  0  0
 50 52  1  0  0  0  0
 50 53  2  0  0  0  0
 51205  1  0  0  0  0
 54 55  1  0  0  0  0
 54 56  1  0  0  0  0
 54 57  1  0  0  0  0
 57 58  1  0  0  0  0
 57 59  2  0  0  0  0
 59 60  1  0  0  0  0
 59 64  1  0  0  0  0
 60 61  1  0  0  0  0
 60 62  1  0  0  0  0
 60 63  1  0  0  0  0
 64 65  1  0  0  0  0
 64 66  1  0  0  0  0
 64 67  1  0  0  0  0
 67 68  1  0  0  0  0
 67 69  1  0  0  0  0
 67 70  1  0  0  0  0
 70 71  1  0  0  0  0
 70 72  2  0  0  0  0
 72 73  1  0  0  0  0
 72 77  1  0  0  0  0
 73 74  1  0  0  0  0
 73 75  1  0  0  0  0
 73 76  1  0  0  0  0
 77 78  1  0  0  0  0
 77 79  1  0  0  0  0
 77 80  1  0  0  0  0
 80 81  1  0  0  0  0
 80 82  1  0  0  0  0
 80 83  1  0  0  0  0
 83 84  1  0  0  0  0
 83 85  2  0  0  0  0
 85 86  1  0  0  0  0
 85 89  1  0  0  0  0
 86 87  1  0  0  0  0
 86 88  1  0  0  0  0
 86 93  1  0  0  0  0
 89 90  1  0  0  0  0
 89 91  1  0  0  0  0
 89 92  1  0  0  0  0
 93 94  1  0  0  0  0
 93 95  1  0  0  0  0
 93 96  1  0  0  0  0
 96 97  1  0  0  0  0
 96 98  2  0  0  0  0
 98 99  1  0  0  0  0
 98102  1  0  0  0  0
 99100  1  0  0  0  0
 99101  1  0  0  0  0
 99106  1  0  0  0  0
102103  1  0  0  0  0
102104  1  0  0  0  0
102105  1  0  0  0  0
106107  1  0  0  0  0
106108  1  0  0  0  0
106109  1  0  0  0  0
109110  1  0  0  0  0
109111  2  0  0  0  0
111112  1  0  0  0  0
111115  1  0  0  0  0
112113  1  0  0  0  0
112114  1  0  0  0  0
112119  1  0  0  0  0
115116  1  0  0  0  0
115117  1  0  0  0  0
115118  1  0  0  0  0
119120  1  0  0  0  0
119121  1  0  0  0  0
119122  1  0  0  0  0
122123  1  0  0  0  0
122124  2  0  0  0  0
124125  1  0  0  0  0
124128  1  0  0  0  0
125126  1  0  0  0  0
125127  1  0  0  0  0
125132  1  0  0  0  0
128129  1  0  0  0  0
128130  1  0  0  0  0
128131  1  0  0  0  0
132133  1  0  0  0  0
132134  1  0  0  0  0
132135  1  0  0  0  0
135136  1  0  0  0  0
135137  2  0  0  0  0
137138  1  0  0  0  0
137141  1  0  0  0  0
138139  1  0  0  0  0
138140  1  0  0  0  0
138145  1  0  0  0  0
141142  1  0  0  0  0
141143  1  0  0  0  0
141144  1  0  0  0  0
145146  1  0  0  0  0
145147  1  0  0  0  0
145148  1  0  0  0  0
148149  1  0  0  0  0
148150  2  0  0  0  0
150151  1  0  0  0  0
150154  1  0  0  0  0
151152  1  0  0  0  0
151153  1  0  0  0  0
151158  1  0  0  0  0
154155  1  0  0  0  0
154156  1  0  0  0  0
154157  1  0  0  0  0
158159  1  0  0  0  0
158160  1  0  0  0  0
158161  1  0  0  0  0
161162  1  0  0  0  0
161163  2  0  0  0  0
163164  1  0  0  0  0
163167  1  0  0  0  0
164165  1  0  0  0  0
164166  1  0  0  0  0
164171  1  0  0  0  0
167168  1  0  0  0  0
167169  1  0  0  0  0
167170  1  0  0  0  0
171172  1  0  0  0  0
171173  1  0  0  0  0
171174  1  0  0  0  0
174175  1  0  0  0  0
174176  2  0  0  0  0
176177  1  0  0  0  0
176181  1  0  0  0  0
177178  1  0  0  0  0
177179  1  0  0  0  0
177180  1  0  0  0  0
181182  1  0  0  0  0
181183  1  0  0  0  0
181184  1  0  0  0  0
185186  1  0  0  0  0
185187  1  0  0  0  0
185189  1  0  0  0  0
185196  1  0  0  0  0
187188  1  0  0  0  0
187190  1  0  0  0  0
187197  1  0  0  0  0
189192  1  0  0  0  0
190191  1  0  0  0  0
190194  1  0  0  0  0
190199  1  0  0  0  0
192193  1  0  0  0  0
192194  1  0  0  0  0
192201  1  0  0  0  0
194195  1  0  0  0  0
196210  1  0  0  0  0
197198  1  0  0  0  0
199200  1  0  0  0  0
201202  1  0  0  0  0
201203  1  0  0  0  0
201204  1  0  0  0  0
205206  1  0  0  0  0
205207  1  0  0  0  0
205209  1  0  0  0  0
207208  1  0  0  0  0
207210  1  0  0  0  0
207216  1  0  0  0  0
209212  1  0  0  0  0
210211  1  0  0  0  0
210214  1  0  0  0  0
212213  1  0  0  0  0
212214  1  0  0  0  0
212220  1  0  0  0  0
214215  1  0  0  0  0
214218  1  0  0  0  0
216217  1  0  0  0  0
216225  1  0  0  0  0
218219  1  0  0  0  0
220221  1  0  0  0  0
220222  1  0  0  0  0
220223  1  0  0  0  0
223224  1  0  0  0  0
225226  2  0  0  0  0
225227  1  0  0  0  0
227228  1  0  0  0  0
227229  1  0  0  0  0
227230  1  0  0  0  0
M  BCL ATM C_TeTeTeTe H_S O_Te2Te2TeTe C_TeTeTeTe H_S O_Te2Te2TeTe H_S C_TeTeTeTe H_S O_Te2Te2TeTe H_S C_TeTeTeTe H_S H_S O_Te2Te2TeTe H_S C_TeTeTeTe H_S O_Te2Te2TeTe C_TeTeTeTe H_S C_TeTeTeTe H_S O_Te2Te2TeTe C_TeTeTeTe H_S O_Te2Te2TeTe H_S C_TeTeTeTe H_S O_Te2Te2TeTe H_S C_TeTeTeTe H_S H_S O_Te2Te2TeTe H_S C_TeTeTeTe H_S O_Te2Te2TeTe H_S C_TeTeTeTe H_S O_Te2Te2TeTe O_Tr2TrTrPi2 P_TeTeTeTePi O_Tr2TrTrPi2 O_Te2Te2TeTe O_Tr2Tr2TrPi P_TeTeTeTePi O_Tr2TrTrPi2 O_Te2Te2TeTe O_Tr2Tr2TrPi C_TeTeTeTe H_S H_S C_TrTrTrPi H_S C_TrTrTrPi C_TeTeTeTe H_S H_S H_S C_TeTeTeTe H_S H_S C_TeTeTeTe H_S H_S C_TrTrTrPi H_S C_TrTrTrPi C_TeTeTeTe H_S H_S H_S C_TeTeTeTe H_S H_S C_TeTeTeTe H_S H_S C_TrTrTrPi H_S C_TrTrTrPi C_TeTeTeTe H_S H_S C_TeTeTeTe H_S H_S H_S C_TeTeTeTe H_S H_S C_TrTrTrPi H_S C_TrTrTrPi C_TeTeTeTe H_S H_S C_TeTeTeTe H_S H_S H_S C_TeTeTeTe H_S H_S C_TrTrTrPi H_S C_TrTrTrPi C_TeTeTeTe H_S H_S C_TeTeTeTe H_S H_S H_S C_TeTeTeTe H_S H_S C_TrTrTrPi H_S C_TrTrTrPi C_TeTeTeTe H_S H_S C_TeTeTeTe H_S H_S H_S C_TeTeTeTe H_S H_S C_TrTrTrPi H_S C_TrTrTrPi C_TeTeTeTe H_S H_S C_TeTeTeTe H_S H_S H_S C_TeTeTeTe H_S H_S C_TrTrTrPi H_S C_TrTrTrPi C_TeTeTeTe H_S H_S C_TeTeTeTe H_S H_S H_S C_TeTeTeTe H_S H_S C_TrTrTrPi H_S C_TrTrTrPi C_TeTeTeTe H_S H_S C_TeTeTeTe H_S H_S H_S C_TeTeTeTe H_S H_S C_TrTrTrPi H_S C_TrTrTrPi C_TeTeTeTe H_S H_S H_S C_TeTeTeTe H_S H_S H_S C_TeTeTeTe H_S C_TeTeTeTe H_S O_Te2Te2TeTe C_TeTeTeTe H_S C_TeTeTeTe H_S C_TeTeTeTe H_S O_Te2Te2TeTe O_Te2Te2TeTe H_S O_Te2Te2TeTe H_S C_TeTeTeTe H_S H_S H_S C_TeTeTeTe H_S C_TeTeTeTe H_S O_Te2Te2TeTe C_TeTeTeTe H_S C_TeTeTeTe H_S C_TeTeTeTe H_S N_TrTrTrPi2 H_S O_Te2Te2TeTe H_S C_TeTeTeTe H_S H_S O_Te2Te2TeTe H_S C_TrTrTrPi O_Tr2Tr2TrPi C_TeTeTeTe H_S H_S H_S
M  BCL BND NonConjugatedSingleBond NonConjugatedSingleBondInRing NonConjugatedSingleBondInRing NonConjugatedSingleBond NonConjugatedSingleBondInRing NonConjugatedSingleBond NonConjugatedSingleBond NonConjugatedSingleBondInRing NonConjugatedSingleBond NonConjugatedSingleBond NonConjugatedSingleBond NonConjugatedSingleBondInRing NonConjugatedSingleBond NonConjugatedSingleBond NonConjugatedSingleBond NonConjugatedSingleBond NonConjugatedSingleBond NonConjugatedSingleBond NonConjugatedSingleBond NonConjugatedSingleBond NonConjugatedSingleBond NonConjugatedSingleBond NonConjugatedSingleBond NonConjugatedSingleBond NonConjugatedSingleBondInRing NonConjugatedSingleBondInRing NonConjugatedSingleBondInRing NonConjugatedSingleBond NonConjugatedSingleBond NonConjugatedSingleBondInRing NonConjugatedSingleBond NonConjugatedSingleBond NonConjugatedSingleBond NonConjugatedSingleBondInRing NonConjugatedSingleBond NonConjugatedSingleBond NonConjugatedSingleBond NonConjugatedSingleBond NonConjugatedSingleBond NonConjugatedSingleBond NonConjugatedSingleBond NonConjugatedSingleBond NonConjugatedSingleBond NonConjugatedSingleBond NonConjugatedSingleBond NonConjugatedSingleBond ConjugatedSingleBond NonConjugatedSingleBond ConjugatedSingleBond ConjugatedSingleBond ConjugatedDoubleBond ConjugatedSingleBond ConjugatedSingleBond ConjugatedSingleBond ConjugatedDoubleBond NonConjugatedSingleBond NonConjugatedSingleBond NonConjugatedSingleBond NonConjugatedSingleBond NonConjugatedSingleBond ConjugatedDoubleBond NonConjugatedSingleBond NonConjugatedSingleBond NonConjugatedSingleBond NonConjugatedSingleBond NonConjugatedSingleBond NonConjugatedSingleBond NonConjugatedSingleBond NonConjugatedSingleBond NonConjugatedSingleBond NonConjugatedSingleBond NonConjugatedSingleBond NonConjugatedSingleBond ConjugatedDoubleBond NonConjugatedSingleBond NonConjugatedSingleBond NonConjugatedSingleBond NonConjugatedSingleBond NonConjugatedSingleBond NonConjugatedSingleBond NonConjugatedSingleBond NonConjugatedSingleBond NonConjugatedSingleBond NonConjugatedSingleBond NonConjugatedSingleBond NonConjugatedSingleBond ConjugatedDoubleBond NonConjugatedSingleBond NonConjugatedSingleBond NonConjugatedSingleBond NonConjugatedSingleBond NonConjugatedSingleBond NonConjugatedSingleBond NonConjugatedSingleBond NonConjugatedSingleBond NonConjugatedSingleBond NonConjugatedSingleBond NonConjugatedSingleBond NonConjugatedSingleBond ConjugatedDoubleBond NonConjugatedSingleBond NonConjugatedSingleBond NonConjugatedSingleBond NonConjugatedSingleBond NonConjugatedSingleBond NonConjugatedSingleBond NonConjugatedSingleBond NonConjugatedSingleBond NonConjugatedSingleBond NonConjugatedSingleBond NonConjugatedSingleBond NonConjugatedSingleBond ConjugatedDoubleBond NonConjugatedSingleBond NonConjugatedSingleBond NonConjugatedSingleBond NonConjugatedSingleBond NonConjugatedSingleBond NonConjugatedSingleBond NonConjugatedSingleBond NonConjugatedSingleBond NonConjugatedSingleBond NonConjugatedSingleBond NonConjugatedSingleBond NonConjugatedSingleBond ConjugatedDoubleBond NonConjugatedSingleBond NonConjugatedSingleBond NonConjugatedSingleBond NonConjugatedSingleBond NonConjugatedSingleBond NonConjugatedSingleBond NonConjugatedSingleBond NonConjugatedSingleBond NonConjugatedSingleBond NonConjugatedSingleBond NonConjugatedSingleBond NonConjugatedSingleBond ConjugatedDoubleBond NonConjugatedSingleBond NonConjugatedSingleBond NonConjugatedSingleBond NonConjugatedSingleBond NonConjugatedSingleBond NonConjugatedSingleBond NonConjugatedSingleBond NonConjugatedSingleBond NonConjugatedSingleBond NonConjugatedSingleBond NonConjugatedSingleBond NonConjugatedSingleBond ConjugatedDoubleBond NonConjugatedSingleBond NonConjugatedSingleBond NonConjugatedSingleBond NonConjugatedSingleBond NonConjugatedSingleBond NonConjugatedSingleBond NonConjugatedSingleBond NonConjugatedSingleBond NonConjugatedSingleBond NonConjugatedSingleBond NonConjugatedSingleBond NonConjugatedSingleBond ConjugatedDoubleBond NonConjugatedSingleBond NonConjugatedSingleBond NonConjugatedSingleBond NonConjugatedSingleBond NonConjugatedSingleBond NonConjugatedSingleBond NonConjugatedSingleBond NonConjugatedSingleBond NonConjugatedSingleBond NonConjugatedSingleBond NonConjugatedSingleBond NonConjugatedSingleBond ConjugatedDoubleBond NonConjugatedSingleBond NonConjugatedSingleBond NonConjugatedSingleBond NonConjugatedSingleBond NonConjugatedSingleBond NonConjugatedSingleBond NonConjugatedSingleBond NonConjugatedSingleBond NonConjugatedSingleBond NonConjugatedSingleBondInRing NonConjugatedSingleBondInRing NonConjugatedSingleBond NonConjugatedSingleBond NonConjugatedSingleBondInRing NonConjugatedSingleBond NonConjugatedSingleBondInRing NonConjugatedSingleBond NonConjugatedSingleBondInRing NonConjugatedSingleBond NonConjugatedSingleBond NonConjugatedSingleBondInRing NonConjugatedSingleBond NonConjugatedSingleBond NonConjugatedSingleBond NonConjugatedSingleBond NonConjugatedSingleBond NonConjugatedSingleBond NonConjugatedSingleBond NonConjugatedSingleBond NonConjugatedSingleBond NonConjugatedSingleBondInRing NonConjugatedSingleBondInRing NonConjugatedSingleBond NonConjugatedSingleBondInRing NonConjugatedSingleBond NonConjugatedSingleBondInRing NonConjugatedSingleBond NonConjugatedSingleBondInRing NonConjugatedSingleBond NonConjugatedSingleBondInRing NonConjugatedSingleBond NonConjugatedSingleBond NonConjugatedSingleBond NonConjugatedSingleBond AmideSingleBond NonConjugatedSingleBond NonConjugatedSingleBond NonConjugatedSingleBond NonConjugatedSingleBond NonConjugatedSingleBond ConjugatedDoubleBond NonConjugatedSingleBond NonConjugatedSingleBond NonConjugatedSingleBond NonConjugatedSingleBond
M  BCL CHI   1   R   4   R   8   R  17   S  20   R  22   S  25   R  29   S  38   S  42   R  46   R  50   S 185   R 187   S 190   S 192   R 194   R 205   R 207   S 210   R 212   S 214   S
M  BCL DBI - - E E E E E E E E Z - -
M  END
> <ConfClashScore>
0.00748988 

> <ConfOneFourInteractionScore>
-0.964058 

> <ConfScore>
0.820413 

> <ConfScorePBest>
0.0110815 

> <ConfTolerance>
2.22578 

$$$$
L05.****
  PyMOL2.5          3D                             0

230233  0  0  0  0  0  0  0  0999 V2000
   12.3841   -2.1015   -2.8406 C   0  0  0  1  0  0  0  0  0  0  0  0
   12.2750   -2.1173   -3.9049 H   0  0  0  1  0  0  0  0  0  0  0  0
   12.9326   -0.8319   -2.4147 O   0  0  0  1  0  0  0  0  0  0  0  0
   11.0305   -2.2365   -2.1755 C   0  0  0  1  0  0  0  0  0  0  0  0
   10.9994   -3.1123   -1.5615 H   0  0  0  1  0  0  0  0  0  0  0  0
    9.9944   -2.3049   -3.1565 O   0  0  0  1  0  0  0  0  0  0  0  0
    9.7506   -3.2221   -3.3016 H   0  0  0  1  0  0  0  0  0  0  0  0
   10.8805   -0.9889   -1.3300 C   0  0  0  1  0  0  0  0  0  0  0  0
    9.8757   -0.6221   -1.3604 H   0  0  0  1  0  0  0  0  0  0  0  0
   11.2560   -1.2388    0.0253 O   0  0  0  1  0  0  0  0  0  0  0  0
   10.9024   -2.0865    0.3047 H   0  0  0  1  0  0  0  0  0  0  0  0
   11.4246   -0.0183   -4.5160 C   0  0  0  1  0  0  0  0  0  0  0  0
   12.3503   -0.5523   -4.4621 H   0  0  0  1  0  0  0  0  0  0  0  0
   10.6281   -0.7037   -4.7180 H   0  0  0  1  0  0  0  0  0  0  0  0
   11.5004    0.9196   -5.5814 O   0  0  0  1  0  0  0  0  0  0  0  0
   12.2959    1.4486   -5.4867 H   0  0  0  1  0  0  0  0  0  0  0  0
   11.1651    0.6516   -3.1652 C   0  0  0  1  0  0  0  0  0  0  0  0
   10.1086    0.6347   -2.9966 H   0  0  0  1  0  0  0  0  0  0  0  0
   11.6031    2.0051   -3.1944 O   0  0  0  1  0  0  0  0  0  0  0  0
   11.8258   -0.0254   -1.9822 C   0  0  0  1  0  0  0  0  0  0  0  0
   12.1506    0.7157   -1.2821 H   0  0  0  1  0  0  0  0  0  0  0  0
   10.6411    2.9053   -3.7145 C   0  0  0  1  0  0  0  0  0  0  0  0
   10.2774    2.5375   -4.6512 H   0  0  0  1  0  0  0  0  0  0  0  0
    9.5759    3.0701   -2.8023 O   0  0  0  1  0  0  0  0  0  0  0  0
   11.2462    4.2868   -3.8864 C   0  0  0  1  0  0  0  0  0  0  0  0
   11.6992    4.3940   -4.8498 H   0  0  0  1  0  0  0  0  0  0  0  0
   12.2143    4.5569   -2.8714 O   0  0  0  1  0  0  0  0  0  0  0  0
   13.0351    4.8424   -3.2793 H   0  0  0  1  0  0  0  0  0  0  0  0
   10.0441    5.1848   -3.7462 C   0  0  0  1  0  0  0  0  0  0  0  0
    9.4807    5.2277   -4.6548 H   0  0  0  1  0  0  0  0  0  0  0  0
   10.4221    6.5026   -3.3584 O   0  0  0  1  0  0  0  0  0  0  0  0
   11.3446    6.5063   -3.0927 H   0  0  0  1  0  0  0  0  0  0  0  0
    7.1424    3.5676   -3.5717 C   0  0  0  1  0  0  0  0  0  0  0  0
    6.1252    3.8066   -3.8020 H   0  0  0  1  0  0  0  0  0  0  0  0
    7.6864    3.4091   -4.4793 H   0  0  0  1  0  0  0  0  0  0  0  0
    7.1831    2.3861   -2.7845 O   0  0  0  1  0  0  0  0  0  0  0  0
    7.9709    1.8827   -3.0025 H   0  0  0  1  0  0  0  0  0  0  0  0
    7.7704    4.7193   -2.8001 C   0  0  0  1  0  0  0  0  0  0  0  0
    7.3199    4.7749   -1.8312 H   0  0  0  1  0  0  0  0  0  0  0  0
    7.6070    5.9541   -3.4926 O   0  0  0  1  0  0  0  0  0  0  0  0
    8.3082    6.5589   -3.2392 H   0  0  0  1  0  0  0  0  0  0  0  0
    9.2627    4.4801   -2.6382 C   0  0  0  1  0  0  0  0  0  0  0  0
    9.5776    4.8265   -1.6760 H   0  0  0  1  0  0  0  0  0  0  0  0
   13.2378   -3.1650   -2.4348 O   0  0  0  1  0  0  0  0  0  0  0  0
   17.4745   -9.6798    0.4786 O   0  0  0  1  0  0  0  0  0  0  0  0
   19.0585   -9.6282    0.8017 P   0  0  0  1  0  0  0  0  0  0  0  0
   19.6156   -8.6543   -0.3491 O   0  0  0  1  0  0  0  0  0  0  0  0
   19.5753  -11.0368    0.7073 O   0  0  0  0  0  0  0  0  0  0  0  0
   19.2212   -9.0365    2.1160 O   0  0  0  1  0  0  0  0  0  0  0  0
   21.1018   -8.1272   -0.7089 P   0  0  0  1  0  0  0  0  0  0  0  0
   20.8693   -6.5921   -0.9431 O   0  0  0  1  0  0  0  0  0  0  0  0
   21.5482   -8.8678   -1.9388 O   0  0  0  0  0  0  0  0  0  0  0  0
   21.9447   -8.3611    0.4481 O   0  0  0  1  0  0  0  0  0  0  0  0
   16.5464   -8.6843    0.9373 C   0  0  0  1  0  0  0  0  0  0  0  0
   16.9561   -7.7088    0.7776 H   0  0  0  1  0  0  0  0  0  0  0  0
   16.3539   -8.8244    1.9805 H   0  0  0  1  0  0  0  0  0  0  0  0
   15.2697   -8.8287    0.1642 C   0  0  0  1  0  0  0  0  0  0  0  0
   15.3629   -9.0518   -0.8473 H   0  0  0  1  0  0  0  0  0  0  0  0
   14.0322   -8.7025    0.6313 C   0  0  0  1  0  0  0  0  0  0  0  0
   12.8237   -8.5419   -0.2445 C   0  0  0  1  0  0  0  0  0  0  0  0
   12.8441   -7.5778   -0.7082 H   0  0  0  1  0  0  0  0  0  0  0  0
   11.9384   -8.6330    0.3495 H   0  0  0  1  0  0  0  0  0  0  0  0
   12.8270   -9.3005   -0.9991 H   0  0  0  1  0  0  0  0  0  0  0  0
   13.7436   -8.7113    2.1062 C   0  0  0  1  0  0  0  0  0  0  0  0
   14.6214   -9.0389    2.6230 H   0  0  0  1  0  0  0  0  0  0  0  0
   12.9429   -9.3962    2.2924 H   0  0  0  1  0  0  0  0  0  0  0  0
   13.3471   -7.3459    2.6435 C   0  0  0  1  0  0  0  0  0  0  0  0
   12.8349   -6.8025    1.8771 H   0  0  0  1  0  0  0  0  0  0  0  0
   14.2289   -6.8124    2.9310 H   0  0  0  1  0  0  0  0  0  0  0  0
   12.4482   -7.4838    3.8310 C   0  0  0  1  0  0  0  0  0  0  0  0
   11.4898   -7.8534    3.6687 H   0  0  0  1  0  0  0  0  0  0  0  0
   12.7830   -7.1695    5.0779 C   0  0  0  1  0  0  0  0  0  0  0  0
   11.7895   -7.0081    6.1915 C   0  0  0  1  0  0  0  0  0  0  0  0
   12.3091   -6.8561    7.1145 H   0  0  0  1  0  0  0  0  0  0  0  0
   11.1874   -7.8897    6.2625 H   0  0  0  1  0  0  0  0  0  0  0  0
   11.1639   -6.1634    5.9914 H   0  0  0  1  0  0  0  0  0  0  0  0
   14.2163   -6.9466    5.4755 C   0  0  0  1  0  0  0  0  0  0  0  0
   14.8481   -7.4020    4.7417 H   0  0  0  1  0  0  0  0  0  0  0  0
   14.3819   -7.4093    6.4260 H   0  0  0  1  0  0  0  0  0  0  0  0
   14.5825   -5.4754    5.5833 C   0  0  0  1  0  0  0  0  0  0  0  0
   13.8281   -4.9777    6.1562 H   0  0  0  1  0  0  0  0  0  0  0  0
   14.6152   -5.0595    4.5980 H   0  0  0  1  0  0  0  0  0  0  0  0
   15.9152   -5.2463    6.2446 C   0  0  0  1  0  0  0  0  0  0  0  0
   15.9792   -5.4871    7.2543 H   0  0  0  1  0  0  0  0  0  0  0  0
   17.0178   -4.7703    5.6786 C   0  0  0  1  0  0  0  0  0  0  0  0
   17.0478   -4.3858    4.2201 C   0  0  0  1  0  0  0  0  0  0  0  0
   16.2893   -4.9388    3.7065 H   0  0  0  1  0  0  0  0  0  0  0  0
   18.0074   -4.6398    3.8206 H   0  0  0  1  0  0  0  0  0  0  0  0
   18.3141   -4.5696    6.4076 C   0  0  0  1  0  0  0  0  0  0  0  0
   18.1156   -4.3588    7.4377 H   0  0  0  1  0  0  0  0  0  0  0  0
   18.8449   -3.7492    5.9717 H   0  0  0  1  0  0  0  0  0  0  0  0
   18.9060   -5.4579    6.3333 H   0  0  0  1  0  0  0  0  0  0  0  0
   16.8051   -2.9031    3.9901 C   0  0  0  1  0  0  0  0  0  0  0  0
   15.9459   -2.6070    4.5549 H   0  0  0  1  0  0  0  0  0  0  0  0
   16.6190   -2.7460    2.9481 H   0  0  0  1  0  0  0  0  0  0  0  0
   17.9698   -2.0438    4.4036 C   0  0  0  1  0  0  0  0  0  0  0  0
   18.8891   -2.5215    4.4946 H   0  0  0  1  0  0  0  0  0  0  0  0
   17.9507   -0.7297    4.6672 C   0  0  0  1  0  0  0  0  0  0  0  0
   16.8032    0.1597    4.2742 C   0  0  0  1  0  0  0  0  0  0  0  0
   16.3367    0.5120    5.1704 H   0  0  0  1  0  0  0  0  0  0  0  0
   16.1055   -0.4290    3.7160 H   0  0  0  1  0  0  0  0  0  0  0  0
   19.1292   -0.1152    5.3885 C   0  0  0  1  0  0  0  0  0  0  0  0
   18.8025    0.7398    5.9428 H   0  0  0  1  0  0  0  0  0  0  0  0
   19.8677    0.1840    4.6743 H   0  0  0  1  0  0  0  0  0  0  0  0
   19.5514   -0.8345    6.0588 H   0  0  0  1  0  0  0  0  0  0  0  0
   17.1752    1.3694    3.4324 C   0  0  0  1  0  0  0  0  0  0  0  0
   17.7606    1.0484    2.5962 H   0  0  0  1  0  0  0  0  0  0  0  0
   17.7470    2.0494    4.0287 H   0  0  0  1  0  0  0  0  0  0  0  0
   15.9508    2.0649    2.9347 C   0  0  0  1  0  0  0  0  0  0  0  0
   15.0235    1.7338    3.2695 H   0  0  0  1  0  0  0  0  0  0  0  0
   15.9878    3.0860    2.0852 C   0  0  0  1  0  0  0  0  0  0  0  0
   17.2319    3.8665    1.7748 C   0  0  0  1  0  0  0  0  0  0  0  0
   17.2491    4.0769    0.7258 H   0  0  0  1  0  0  0  0  0  0  0  0
   18.0817    3.2698    2.0333 H   0  0  0  1  0  0  0  0  0  0  0  0
   14.7578    3.5462    1.3547 C   0  0  0  1  0  0  0  0  0  0  0  0
   14.8783    3.3703    0.3061 H   0  0  0  1  0  0  0  0  0  0  0  0
   14.6119    4.5923    1.5261 H   0  0  0  1  0  0  0  0  0  0  0  0
   13.9073    3.0038    1.7117 H   0  0  0  1  0  0  0  0  0  0  0  0
   17.3149    5.1810    2.5333 C   0  0  0  1  0  0  0  0  0  0  0  0
   18.3449    5.4003    2.7231 H   0  0  0  1  0  0  0  0  0  0  0  0
   16.7960    5.0714    3.4626 H   0  0  0  1  0  0  0  0  0  0  0  0
   16.7102    6.3356    1.7802 C   0  0  0  1  0  0  0  0  0  0  0  0
   17.1101    6.5643    0.8477 H   0  0  0  1  0  0  0  0  0  0  0  0
   15.6948    7.0910    2.2217 C   0  0  0  1  0  0  0  0  0  0  0  0
   14.8725    6.7212    3.4255 C   0  0  0  1  0  0  0  0  0  0  0  0
   14.5386    5.7125    3.2999 H   0  0  0  1  0  0  0  0  0  0  0  0
   14.0267    7.3756    3.4611 H   0  0  0  1  0  0  0  0  0  0  0  0
   15.3613    8.3666    1.4808 C   0  0  0  1  0  0  0  0  0  0  0  0
   14.3084    8.5485    1.5389 H   0  0  0  1  0  0  0  0  0  0  0  0
   15.6500    8.2689    0.4551 H   0  0  0  1  0  0  0  0  0  0  0  0
   15.8894    9.1847    1.9242 H   0  0  0  1  0  0  0  0  0  0  0  0
   15.5935    6.8137    4.7604 C   0  0  0  1  0  0  0  0  0  0  0  0
   15.8963    7.8317    4.8908 H   0  0  0  1  0  0  0  0  0  0  0  0
   16.4596    6.1883    4.7005 H   0  0  0  1  0  0  0  0  0  0  0  0
   14.8363    6.4125    5.9836 C   0  0  0  1  0  0  0  0  0  0  0  0
   14.2763    5.5367    5.9533 H   0  0  0  1  0  0  0  0  0  0  0  0
   14.8429    7.1255    7.1183 C   0  0  0  1  0  0  0  0  0  0  0  0
   15.5153    8.4803    7.1225 C   0  0  0  1  0  0  0  0  0  0  0  0
   15.3252    8.9519    8.0639 H   0  0  0  1  0  0  0  0  0  0  0  0
   15.0952    9.0713    6.3356 H   0  0  0  1  0  0  0  0  0  0  0  0
   14.2177    6.6401    8.3705 C   0  0  0  1  0  0  0  0  0  0  0  0
   14.9691    6.2181    9.0047 H   0  0  0  1  0  0  0  0  0  0  0  0
   13.4871    5.8937    8.1381 H   0  0  0  1  0  0  0  0  0  0  0  0
   13.7452    7.4580    8.8733 H   0  0  0  1  0  0  0  0  0  0  0  0
   17.0191    8.3993    6.9167 C   0  0  0  1  0  0  0  0  0  0  0  0
   17.2091    7.9262    5.9760 H   0  0  0  1  0  0  0  0  0  0  0  0
   17.4393    7.8096    7.7044 H   0  0  0  1  0  0  0  0  0  0  0  0
   17.6880    9.7478    6.9185 C   0  0  0  1  0  0  0  0  0  0  0  0
   17.1492   10.5332    6.5008 H   0  0  0  1  0  0  0  0  0  0  0  0
   18.8933   10.0439    7.3965 C   0  0  0  1  0  0  0  0  0  0  0  0
   19.7261    8.9564    8.0140 C   0  0  0  1  0  0  0  0  0  0  0  0
   20.7493    9.1168    7.7452 H   0  0  0  1  0  0  0  0  0  0  0  0
   19.3984    8.0146    7.6261 H   0  0  0  1  0  0  0  0  0  0  0  0
   19.5299   11.4028    7.3817 C   0  0  0  1  0  0  0  0  0  0  0  0
   20.5327   11.3235    7.0171 H   0  0  0  1  0  0  0  0  0  0  0  0
   19.5421   11.8015    8.3746 H   0  0  0  1  0  0  0  0  0  0  0  0
   18.9687   12.0523    6.7428 H   0  0  0  1  0  0  0  0  0  0  0  0
   19.6248    8.9170    9.5301 C   0  0  0  1  0  0  0  0  0  0  0  0
   18.5912    8.8206    9.7894 H   0  0  0  1  0  0  0  0  0  0  0  0
   20.0036    9.8426    9.9105 H   0  0  0  1  0  0  0  0  0  0  0  0
   20.3775    7.7976   10.1982 C   0  0  0  1  0  0  0  0  0  0  0  0
   20.7219    7.0227    9.5961 H   0  0  0  1  0  0  0  0  0  0  0  0
   20.6357    7.7255   11.5044 C   0  0  0  1  0  0  0  0  0  0  0  0
   21.3983    6.5545   12.0526 C   0  0  0  1  0  0  0  0  0  0  0  0
   22.4341    6.8174   12.1059 H   0  0  0  1  0  0  0  0  0  0  0  0
   21.2739    5.7256   11.3875 H   0  0  0  1  0  0  0  0  0  0  0  0
   20.2891    8.8296   12.4811 C   0  0  0  1  0  0  0  0  0  0  0  0
   21.1769    9.4199   12.5721 H   0  0  0  1  0  0  0  0  0  0  0  0
   20.0156    8.4172   13.4298 H   0  0  0  1  0  0  0  0  0  0  0  0
   19.4827    9.4230   12.1038 H   0  0  0  1  0  0  0  0  0  0  0  0
   20.9332    6.1370   13.4382 C   0  0  0  1  0  0  0  0  0  0  0  0
   19.9209    5.7972   13.3697 H   0  0  0  1  0  0  0  0  0  0  0  0
   20.9811    6.9885   14.0845 H   0  0  0  1  0  0  0  0  0  0  0  0
   21.7690    5.0358   14.0338 C   0  0  0  1  0  0  0  0  0  0  0  0
   22.7997    5.1730   14.0129 H   0  0  0  1  0  0  0  0  0  0  0  0
   21.3327    3.9074   14.5834 C   0  0  0  1  0  0  0  0  0  0  0  0
   19.8871    3.5051   14.6234 C   0  0  0  1  0  0  0  0  0  0  0  0
   19.6122    3.0672   13.6866 H   0  0  0  1  0  0  0  0  0  0  0  0
   19.2817    4.3685   14.8046 H   0  0  0  1  0  0  0  0  0  0  0  0
   19.7370    2.7927   15.4075 H   0  0  0  1  0  0  0  0  0  0  0  0
   22.2806    2.9227   15.2237 C   0  0  0  1  0  0  0  0  0  0  0  0
   22.3278    2.0643   14.5867 H   0  0  0  1  0  0  0  0  0  0  0  0
   21.9178    2.6413   16.1902 H   0  0  0  1  0  0  0  0  0  0  0  0
   23.2523    3.3602   15.3204 H   0  0  0  1  0  0  0  0  0  0  0  0
   15.9591   -5.1572   -1.6252 C   0  0  0  1  0  0  0  0  0  0  0  0
   16.0912   -5.7087   -0.7179 H   0  0  0  1  0  0  0  0  0  0  0  0
   14.7822   -5.7138   -2.3706 C   0  0  0  1  0  0  0  0  0  0  0  0
   15.0034   -6.7128   -2.6835 H   0  0  0  1  0  0  0  0  0  0  0  0
   15.7635   -3.8050   -1.3148 O   0  0  0  1  0  0  0  0  0  0  0  0
   14.4792   -4.8617   -3.5921 C   0  0  0  1  0  0  0  0  0  0  0  0
   13.5448   -5.1741   -4.0094 H   0  0  0  1  0  0  0  0  0  0  0  0
   15.6372   -2.9800   -2.4759 C   0  0  0  1  0  0  0  0  0  0  0  0
   16.4993   -3.1018   -3.0979 H   0  0  0  1  0  0  0  0  0  0  0  0
   14.3930   -3.3944   -3.2430 C   0  0  0  1  0  0  0  0  0  0  0  0
   14.3203   -2.8182   -4.1417 H   0  0  0  1  0  0  0  0  0  0  0  0
   17.1167   -5.2844   -2.4277 O   0  0  0  1  0  0  0  0  0  0  0  0
   13.6420   -5.7250   -1.5096 O   0  0  0  1  0  0  0  0  0  0  0  0
   13.8707   -5.3203   -0.6697 H   0  0  0  1  0  0  0  0  0  0  0  0
   15.5115   -5.0468   -4.5496 O   0  0  0  1  0  0  0  0  0  0  0  0
   15.5181   -5.9615   -4.8409 H   0  0  0  1  0  0  0  0  0  0  0  0
   15.5167   -1.5339   -2.0589 C   0  0  0  1  0  0  0  0  0  0  0  0
   16.4596   -1.1892   -1.6887 H   0  0  0  1  0  0  0  0  0  0  0  0
   14.7779   -1.4451   -1.2901 H   0  0  0  1  0  0  0  0  0  0  0  0
   15.2273   -0.9427   -2.9025 H   0  0  0  1  0  0  0  0  0  0  0  0
   19.8975   -6.0868   -1.8269 C   0  0  0  1  0  0  0  0  0  0  0  0
   19.2188   -6.8688   -2.0964 H   0  0  0  1  0  0  0  0  0  0  0  0
   19.1242   -4.9675   -1.1354 C   0  0  0  1  0  0  0  0  0  0  0  0
   19.8103   -4.2222   -0.7909 H   0  0  0  1  0  0  0  0  0  0  0  0
   20.5392   -5.6002   -2.9987 O   0  0  0  1  0  0  0  0  0  0  0  0
   18.1401   -4.3352   -2.1173 C   0  0  0  1  0  0  0  0  0  0  0  0
   17.7006   -3.4717   -1.6632 H   0  0  0  1  0  0  0  0  0  0  0  0
   19.6207   -5.0961   -3.9810 C   0  0  0  1  0  0  0  0  0  0  0  0
   20.1655   -4.7675   -4.8413 H   0  0  0  1  0  0  0  0  0  0  0  0
   18.8337   -3.9202   -3.3986 C   0  0  0  1  0  0  0  0  0  0  0  0
   18.1005   -3.5998   -4.1090 H   0  0  0  1  0  0  0  0  0  0  0  0
   18.3906   -5.5157   -0.0005 N   0  0  0  1  0  0  0  0  0  0  0  0
   17.4557   -5.7817   -0.1256 H   0  0  0  1  0  0  0  0  0  0  0  0
   19.7311   -2.8441   -3.1213 O   0  0  0  1  0  0  0  0  0  0  0  0
   19.8228   -2.3494   -3.9388 H   0  0  0  1  0  0  0  0  0  0  0  0
   18.6658   -6.1879   -4.3784 C   0  0  0  1  0  0  0  0  0  0  0  0
   17.9140   -5.7714   -5.0157 H   0  0  0  1  0  0  0  0  0  0  0  0
   18.2074   -6.5814   -3.4952 H   0  0  0  1  0  0  0  0  0  0  0  0
   19.3131   -7.2516   -5.0699 O   0  0  0  1  0  0  0  0  0  0  0  0
   20.2080   -7.3294   -4.7311 H   0  0  0  1  0  0  0  0  0  0  0  0
   18.9487   -5.6678    1.2038 C   0  0  0  1  0  0  0  0  0  0  0  0
   20.0738   -5.2526    1.4780 O   0  0  0  1  0  0  0  0  0  0  0  0
   18.1050   -6.3934    2.2338 C   0  0  0  1  0  0  0  0  0  0  0  0
   17.8079   -5.6290    2.9210 H   0  0  0  1  0  0  0  0  0  0  0  0
   18.6797   -7.1467    2.7310 H   0  0  0  1  0  0  0  0  0  0  0  0
   17.2495   -6.8423    1.7740 H   0  0  0  1  0  0  0  0  0  0  0  0
  1  2  1  0  0  0  0
  1  3  1  0  0  0  0
  1  4  1  0  0  0  0
  1 44  1  0  0  0  0
  3 20  1  0  0  0  0
  4  5  1  0  0  0  0
  4  6  1  0  0  0  0
  4  8  1  0  0  0  0
  6  7  1  0  0  0  0
  8  9  1  0  0  0  0
  8 10  1  0  0  0  0
  8 20  1  0  0  0  0
 10 11  1  0  0  0  0
 12 13  1  0  0  0  0
 12 14  1  0  0  0  0
 12 15  1  0  0  0  0
 12 17  1  0  0  0  0
 15 16  1  0  0  0  0
 17 18  1  0  0  0  0
 17 19  1  0  0  0  0
 17 20  1  0  0  0  0
 19 22  1  0  0  0  0
 20 21  1  0  0  0  0
 22 23  1  0  0  0  0
 22 24  1  0  0  0  0
 22 25  1  0  0  0  0
 24 42  1  0  0  0  0
 25 26  1  0  0  0  0
 25 27  1  0  0  0  0
 25 29  1  0  0  0  0
 27 28  1  0  0  0  0
 29 30  1  0  0  0  0
 29 31  1  0  0  0  0
 29 42  1  0  0  0  0
 31 32  1  0  0  0  0
 33 34  1  0  0  0  0
 33 35  1  0  0  0  0
 33 36  1  0  0  0  0
 33 38  1  0  0  0  0
 36 37  1  0  0  0  0
 38 39  1  0  0  0  0
 38 40  1  0  0  0  0
 38 42  1  0  0  0  0
 40 41  1  0  0  0  0
 42 43  1  0  0  0  0
 44194  1  0  0  0  0
 45 46  1  0  0  0  0
 45 54  1  0  0  0  0
 46 47  1  0  0  0  0
 46 48  1  0  0  0  0
 46 49  2  0  0  0  0
 47 50  1  0  0  0  0
 50 51  1  0  0  0  0
 50 52  1  0  0  0  0
 50 53  2  0  0  0  0
 51205  1  0  0  0  0
 54 55  1  0  0  0  0
 54 56  1  0  0  0  0
 54 57  1  0  0  0  0
 57 58  1  0  0  0  0
 57 59  2  0  0  0  0
 59 60  1  0  0  0  0
 59 64  1  0  0  0  0
 60 61  1  0  0  0  0
 60 62  1  0  0  0  0
 60 63  1  0  0  0  0
 64 65  1  0  0  0  0
 64 66  1  0  0  0  0
 64 67  1  0  0  0  0
 67 68  1  0  0  0  0
 67 69  1  0  0  0  0
 67 70  1  0  0  0  0
 70 71  1  0  0  0  0
 70 72  2  0  0  0  0
 72 73  1  0  0  0  0
 72 77  1  0  0  0  0
 73 74  1  0  0  0  0
 73 75  1  0  0  0  0
 73 76  1  0  0  0  0
 77 78  1  0  0  0  0
 77 79  1  0  0  0  0
 77 80  1  0  0  0  0
 80 81  1  0  0  0  0
 80 82  1  0  0  0  0
 80 83  1  0  0  0  0
 83 84  1  0  0  0  0
 83 85  2  0  0  0  0
 85 86  1  0  0  0  0
 85 89  1  0  0  0  0
 86 87  1  0  0  0  0
 86 88  1  0  0  0  0
 86 93  1  0  0  0  0
 89 90  1  0  0  0  0
 89 91  1  0  0  0  0
 89 92  1  0  0  0  0
 93 94  1  0  0  0  0
 93 95  1  0  0  0  0
 93 96  1  0  0  0  0
 96 97  1  0  0  0  0
 96 98  2  0  0  0  0
 98 99  1  0  0  0  0
 98102  1  0  0  0  0
 99100  1  0  0  0  0
 99101  1  0  0  0  0
 99106  1  0  0  0  0
102103  1  0  0  0  0
102104  1  0  0  0  0
102105  1  0  0  0  0
106107  1  0  0  0  0
106108  1  0  0  0  0
106109  1  0  0  0  0
109110  1  0  0  0  0
109111  2  0  0  0  0
111112  1  0  0  0  0
111115  1  0  0  0  0
112113  1  0  0  0  0
112114  1  0  0  0  0
112119  1  0  0  0  0
115116  1  0  0  0  0
115117  1  0  0  0  0
115118  1  0  0  0  0
119120  1  0  0  0  0
119121  1  0  0  0  0
119122  1  0  0  0  0
122123  1  0  0  0  0
122124  2  0  0  0  0
124125  1  0  0  0  0
124128  1  0  0  0  0
125126  1  0  0  0  0
125127  1  0  0  0  0
125132  1  0  0  0  0
128129  1  0  0  0  0
128130  1  0  0  0  0
128131  1  0  0  0  0
132133  1  0  0  0  0
132134  1  0  0  0  0
132135  1  0  0  0  0
135136  1  0  0  0  0
135137  2  0  0  0  0
137138  1  0  0  0  0
137141  1  0  0  0  0
138139  1  0  0  0  0
138140  1  0  0  0  0
138145  1  0  0  0  0
141142  1  0  0  0  0
141143  1  0  0  0  0
141144  1  0  0  0  0
145146  1  0  0  0  0
145147  1  0  0  0  0
145148  1  0  0  0  0
148149  1  0  0  0  0
148150  2  0  0  0  0
150151  1  0  0  0  0
150154  1  0  0  0  0
151152  1  0  0  0  0
151153  1  0  0  0  0
151158  1  0  0  0  0
154155  1  0  0  0  0
154156  1  0  0  0  0
154157  1  0  0  0  0
158159  1  0  0  0  0
158160  1  0  0  0  0
158161  1  0  0  0  0
161162  1  0  0  0  0
161163  2  0  0  0  0
163164  1  0  0  0  0
163167  1  0  0  0  0
164165  1  0  0  0  0
164166  1  0  0  0  0
164171  1  0  0  0  0
167168  1  0  0  0  0
167169  1  0  0  0  0
167170  1  0  0  0  0
171172  1  0  0  0  0
171173  1  0  0  0  0
171174  1  0  0  0  0
174175  1  0  0  0  0
174176  2  0  0  0  0
176177  1  0  0  0  0
176181  1  0  0  0  0
177178  1  0  0  0  0
177179  1  0  0  0  0
177180  1  0  0  0  0
181182  1  0  0  0  0
181183  1  0  0  0  0
181184  1  0  0  0  0
185186  1  0  0  0  0
185187  1  0  0  0  0
185189  1  0  0  0  0
185196  1  0  0  0  0
187188  1  0  0  0  0
187190  1  0  0  0  0
187197  1  0  0  0  0
189192  1  0  0  0  0
190191  1  0  0  0  0
190194  1  0  0  0  0
190199  1  0  0  0  0
192193  1  0  0  0  0
192194  1  0  0  0  0
192201  1  0  0  0  0
194195  1  0  0  0  0
196210  1  0  0  0  0
197198  1  0  0  0  0
199200  1  0  0  0  0
201202  1  0  0  0  0
201203  1  0  0  0  0
201204  1  0  0  0  0
205206  1  0  0  0  0
205207  1  0  0  0  0
205209  1  0  0  0  0
207208  1  0  0  0  0
207210  1  0  0  0  0
207216  1  0  0  0  0
209212  1  0  0  0  0
210211  1  0  0  0  0
210214  1  0  0  0  0
212213  1  0  0  0  0
212214  1  0  0  0  0
212220  1  0  0  0  0
214215  1  0  0  0  0
214218  1  0  0  0  0
216217  1  0  0  0  0
216225  1  0  0  0  0
218219  1  0  0  0  0
220221  1  0  0  0  0
220222  1  0  0  0  0
220223  1  0  0  0  0
223224  1  0  0  0  0
225226  2  0  0  0  0
225227  1  0  0  0  0
227228  1  0  0  0  0
227229  1  0  0  0  0
227230  1  0  0  0  0
M  BCL ATM C_TeTeTeTe H_S O_Te2Te2TeTe C_TeTeTeTe H_S O_Te2Te2TeTe H_S C_TeTeTeTe H_S O_Te2Te2TeTe H_S C_TeTeTeTe H_S H_S O_Te2Te2TeTe H_S C_TeTeTeTe H_S O_Te2Te2TeTe C_TeTeTeTe H_S C_TeTeTeTe H_S O_Te2Te2TeTe C_TeTeTeTe H_S O_Te2Te2TeTe H_S C_TeTeTeTe H_S O_Te2Te2TeTe H_S C_TeTeTeTe H_S H_S O_Te2Te2TeTe H_S C_TeTeTeTe H_S O_Te2Te2TeTe H_S C_TeTeTeTe H_S O_Te2Te2TeTe O_Tr2TrTrPi2 P_TeTeTeTePi O_Tr2TrTrPi2 O_Te2Te2TeTe O_Tr2Tr2TrPi P_TeTeTeTePi O_Tr2TrTrPi2 O_Te2Te2TeTe O_Tr2Tr2TrPi C_TeTeTeTe H_S H_S C_TrTrTrPi H_S C_TrTrTrPi C_TeTeTeTe H_S H_S H_S C_TeTeTeTe H_S H_S C_TeTeTeTe H_S H_S C_TrTrTrPi H_S C_TrTrTrPi C_TeTeTeTe H_S H_S H_S C_TeTeTeTe H_S H_S C_TeTeTeTe H_S H_S C_TrTrTrPi H_S C_TrTrTrPi C_TeTeTeTe H_S H_S C_TeTeTeTe H_S H_S H_S C_TeTeTeTe H_S H_S C_TrTrTrPi H_S C_TrTrTrPi C_TeTeTeTe H_S H_S C_TeTeTeTe H_S H_S H_S C_TeTeTeTe H_S H_S C_TrTrTrPi H_S C_TrTrTrPi C_TeTeTeTe H_S H_S C_TeTeTeTe H_S H_S H_S C_TeTeTeTe H_S H_S C_TrTrTrPi H_S C_TrTrTrPi C_TeTeTeTe H_S H_S C_TeTeTeTe H_S H_S H_S C_TeTeTeTe H_S H_S C_TrTrTrPi H_S C_TrTrTrPi C_TeTeTeTe H_S H_S C_TeTeTeTe H_S H_S H_S C_TeTeTeTe H_S H_S C_TrTrTrPi H_S C_TrTrTrPi C_TeTeTeTe H_S H_S C_TeTeTeTe H_S H_S H_S C_TeTeTeTe H_S H_S C_TrTrTrPi H_S C_TrTrTrPi C_TeTeTeTe H_S H_S C_TeTeTeTe H_S H_S H_S C_TeTeTeTe H_S H_S C_TrTrTrPi H_S C_TrTrTrPi C_TeTeTeTe H_S H_S H_S C_TeTeTeTe H_S H_S H_S C_TeTeTeTe H_S C_TeTeTeTe H_S O_Te2Te2TeTe C_TeTeTeTe H_S C_TeTeTeTe H_S C_TeTeTeTe H_S O_Te2Te2TeTe O_Te2Te2TeTe H_S O_Te2Te2TeTe H_S C_TeTeTeTe H_S H_S H_S C_TeTeTeTe H_S C_TeTeTeTe H_S O_Te2Te2TeTe C_TeTeTeTe H_S C_TeTeTeTe H_S C_TeTeTeTe H_S N_TrTrTrPi2 H_S O_Te2Te2TeTe H_S C_TeTeTeTe H_S H_S O_Te2Te2TeTe H_S C_TrTrTrPi O_Tr2Tr2TrPi C_TeTeTeTe H_S H_S H_S
M  BCL BND NonConjugatedSingleBond NonConjugatedSingleBondInRing NonConjugatedSingleBondInRing NonConjugatedSingleBond NonConjugatedSingleBondInRing NonConjugatedSingleBond NonConjugatedSingleBond NonConjugatedSingleBondInRing NonConjugatedSingleBond NonConjugatedSingleBond NonConjugatedSingleBond NonConjugatedSingleBondInRing NonConjugatedSingleBond NonConjugatedSingleBond NonConjugatedSingleBond NonConjugatedSingleBond NonConjugatedSingleBond NonConjugatedSingleBond NonConjugatedSingleBond NonConjugatedSingleBond NonConjugatedSingleBond NonConjugatedSingleBond NonConjugatedSingleBond NonConjugatedSingleBond NonConjugatedSingleBondInRing NonConjugatedSingleBondInRing NonConjugatedSingleBondInRing NonConjugatedSingleBond NonConjugatedSingleBond NonConjugatedSingleBondInRing NonConjugatedSingleBond NonConjugatedSingleBond NonConjugatedSingleBond NonConjugatedSingleBondInRing NonConjugatedSingleBond NonConjugatedSingleBond NonConjugatedSingleBond NonConjugatedSingleBond NonConjugatedSingleBond NonConjugatedSingleBond NonConjugatedSingleBond NonConjugatedSingleBond NonConjugatedSingleBond NonConjugatedSingleBond NonConjugatedSingleBond NonConjugatedSingleBond ConjugatedSingleBond NonConjugatedSingleBond ConjugatedSingleBond ConjugatedSingleBond ConjugatedDoubleBond ConjugatedSingleBond ConjugatedSingleBond ConjugatedSingleBond ConjugatedDoubleBond NonConjugatedSingleBond NonConjugatedSingleBond NonConjugatedSingleBond NonConjugatedSingleBond NonConjugatedSingleBond ConjugatedDoubleBond NonConjugatedSingleBond NonConjugatedSingleBond NonConjugatedSingleBond NonConjugatedSingleBond NonConjugatedSingleBond NonConjugatedSingleBond NonConjugatedSingleBond NonConjugatedSingleBond NonConjugatedSingleBond NonConjugatedSingleBond NonConjugatedSingleBond NonConjugatedSingleBond ConjugatedDoubleBond NonConjugatedSingleBond NonConjugatedSingleBond NonConjugatedSingleBond NonConjugatedSingleBond NonConjugatedSingleBond NonConjugatedSingleBond NonConjugatedSingleBond NonConjugatedSingleBond NonConjugatedSingleBond NonConjugatedSingleBond NonConjugatedSingleBond NonConjugatedSingleBond ConjugatedDoubleBond NonConjugatedSingleBond NonConjugatedSingleBond NonConjugatedSingleBond NonConjugatedSingleBond NonConjugatedSingleBond NonConjugatedSingleBond NonConjugatedSingleBond NonConjugatedSingleBond NonConjugatedSingleBond NonConjugatedSingleBond NonConjugatedSingleBond NonConjugatedSingleBond ConjugatedDoubleBond NonConjugatedSingleBond NonConjugatedSingleBond NonConjugatedSingleBond NonConjugatedSingleBond NonConjugatedSingleBond NonConjugatedSingleBond NonConjugatedSingleBond NonConjugatedSingleBond NonConjugatedSingleBond NonConjugatedSingleBond NonConjugatedSingleBond NonConjugatedSingleBond ConjugatedDoubleBond NonConjugatedSingleBond NonConjugatedSingleBond NonConjugatedSingleBond NonConjugatedSingleBond NonConjugatedSingleBond NonConjugatedSingleBond NonConjugatedSingleBond NonConjugatedSingleBond NonConjugatedSingleBond NonConjugatedSingleBond NonConjugatedSingleBond NonConjugatedSingleBond ConjugatedDoubleBond NonConjugatedSingleBond NonConjugatedSingleBond NonConjugatedSingleBond NonConjugatedSingleBond NonConjugatedSingleBond NonConjugatedSingleBond NonConjugatedSingleBond NonConjugatedSingleBond NonConjugatedSingleBond NonConjugatedSingleBond NonConjugatedSingleBond NonConjugatedSingleBond ConjugatedDoubleBond NonConjugatedSingleBond NonConjugatedSingleBond NonConjugatedSingleBond NonConjugatedSingleBond NonConjugatedSingleBond NonConjugatedSingleBond NonConjugatedSingleBond NonConjugatedSingleBond NonConjugatedSingleBond NonConjugatedSingleBond NonConjugatedSingleBond NonConjugatedSingleBond ConjugatedDoubleBond NonConjugatedSingleBond NonConjugatedSingleBond NonConjugatedSingleBond NonConjugatedSingleBond NonConjugatedSingleBond NonConjugatedSingleBond NonConjugatedSingleBond NonConjugatedSingleBond NonConjugatedSingleBond NonConjugatedSingleBond NonConjugatedSingleBond NonConjugatedSingleBond ConjugatedDoubleBond NonConjugatedSingleBond NonConjugatedSingleBond NonConjugatedSingleBond NonConjugatedSingleBond NonConjugatedSingleBond NonConjugatedSingleBond NonConjugatedSingleBond NonConjugatedSingleBond NonConjugatedSingleBond NonConjugatedSingleBond NonConjugatedSingleBond NonConjugatedSingleBond ConjugatedDoubleBond NonConjugatedSingleBond NonConjugatedSingleBond NonConjugatedSingleBond NonConjugatedSingleBond NonConjugatedSingleBond NonConjugatedSingleBond NonConjugatedSingleBond NonConjugatedSingleBond NonConjugatedSingleBond NonConjugatedSingleBondInRing NonConjugatedSingleBondInRing NonConjugatedSingleBond NonConjugatedSingleBond NonConjugatedSingleBondInRing NonConjugatedSingleBond NonConjugatedSingleBondInRing NonConjugatedSingleBond NonConjugatedSingleBondInRing NonConjugatedSingleBond NonConjugatedSingleBond NonConjugatedSingleBondInRing NonConjugatedSingleBond NonConjugatedSingleBond NonConjugatedSingleBond NonConjugatedSingleBond NonConjugatedSingleBond NonConjugatedSingleBond NonConjugatedSingleBond NonConjugatedSingleBond NonConjugatedSingleBond NonConjugatedSingleBondInRing NonConjugatedSingleBondInRing NonConjugatedSingleBond NonConjugatedSingleBondInRing NonConjugatedSingleBond NonConjugatedSingleBondInRing NonConjugatedSingleBond NonConjugatedSingleBondInRing NonConjugatedSingleBond NonConjugatedSingleBondInRing NonConjugatedSingleBond NonConjugatedSingleBond NonConjugatedSingleBond NonConjugatedSingleBond AmideSingleBond NonConjugatedSingleBond NonConjugatedSingleBond NonConjugatedSingleBond NonConjugatedSingleBond NonConjugatedSingleBond ConjugatedDoubleBond NonConjugatedSingleBond NonConjugatedSingleBond NonConjugatedSingleBond NonConjugatedSingleBond
M  BCL CHI   1   R   4   R   8   R  17   S  20   R  22   S  25   R  29   S  38   S  42   R  46   R  50   S 185   R 187   S 190   S 192   R 194   R 205   R 207   S 210   R 212   S 214   S
M  BCL DBI - - E E E E E E E E Z - -
M  END
> <ConfClashScore>
0.00644188 

> <ConfOneFourInteractionScore>
-0.966989 

> <ConfScore>
0.822883 

> <ConfScorePBest>
0.0109785 

> <ConfTolerance>
3.28309 

$$$$
L05.****
  PyMOL2.5          3D                             0

230233  0  0  0  0  0  0  0  0999 V2000
   12.0676   -2.6688   -2.6487 C   0  0  0  1  0  0  0  0  0  0  0  0
   11.3684   -2.5560   -1.8466 H   0  0  0  1  0  0  0  0  0  0  0  0
   11.5100   -3.4377   -3.6753 O   0  0  0  1  0  0  0  0  0  0  0  0
   12.3893   -1.3020   -3.2735 C   0  0  0  1  0  0  0  0  0  0  0  0
   13.3536   -1.3067   -3.7371 H   0  0  0  1  0  0  0  0  0  0  0  0
   12.3357   -0.2626   -2.2952 O   0  0  0  1  0  0  0  0  0  0  0  0
   11.4374   -0.1768   -1.9677 H   0  0  0  1  0  0  0  0  0  0  0  0
   11.2863   -1.1411   -4.3048 C   0  0  0  1  0  0  0  0  0  0  0  0
   10.4192   -0.6859   -3.8738 H   0  0  0  1  0  0  0  0  0  0  0  0
   11.7311   -0.3621   -5.4164 O   0  0  0  1  0  0  0  0  0  0  0  0
   10.9841    0.1012   -5.8024 H   0  0  0  1  0  0  0  0  0  0  0  0
    8.5571   -1.5856   -4.8132 C   0  0  0  1  0  0  0  0  0  0  0  0
    7.5478   -1.9408   -4.8033 H   0  0  0  1  0  0  0  0  0  0  0  0
    8.7607   -1.0627   -3.9021 H   0  0  0  1  0  0  0  0  0  0  0  0
    8.6930   -0.6752   -5.8831 O   0  0  0  1  0  0  0  0  0  0  0  0
    9.0233   -1.1372   -6.6570 H   0  0  0  1  0  0  0  0  0  0  0  0
    9.5035   -2.8167   -4.8875 C   0  0  0  1  0  0  0  0  0  0  0  0
    9.3448   -3.2900   -5.8339 H   0  0  0  1  0  0  0  0  0  0  0  0
    9.1299   -3.7113   -3.8460 O   0  0  0  1  0  0  0  0  0  0  0  0
   10.9968   -2.6024   -4.7282 C   0  0  0  1  0  0  0  0  0  0  0  0
   11.4901   -2.8251   -5.6512 H   0  0  0  1  0  0  0  0  0  0  0  0
    9.2274   -5.0572   -4.2550 C   0  0  0  1  0  0  0  0  0  0  0  0
    8.7494   -5.1774   -5.2047 H   0  0  0  1  0  0  0  0  0  0  0  0
   10.6061   -5.4638   -4.3288 O   0  0  0  1  0  0  0  0  0  0  0  0
    8.6009   -5.9698   -3.2274 C   0  0  0  1  0  0  0  0  0  0  0  0
    7.5543   -6.0975   -3.4096 H   0  0  0  1  0  0  0  0  0  0  0  0
    8.7969   -5.4697   -1.9038 O   0  0  0  1  0  0  0  0  0  0  0  0
    8.0780   -5.7647   -1.3401 H   0  0  0  1  0  0  0  0  0  0  0  0
    9.3541   -7.2597   -3.4411 C   0  0  0  1  0  0  0  0  0  0  0  0
    8.9217   -7.8278   -4.2381 H   0  0  0  1  0  0  0  0  0  0  0  0
    9.3693   -8.0440   -2.2519 O   0  0  0  1  0  0  0  0  0  0  0  0
   10.1523   -8.5993   -2.2442 H   0  0  0  1  0  0  0  0  0  0  0  0
   11.0659   -9.2368   -4.7631 C   0  0  0  1  0  0  0  0  0  0  0  0
   11.5728   -9.6145   -3.8998 H   0  0  0  1  0  0  0  0  0  0  0  0
   10.0102   -9.3602   -4.6400 H   0  0  0  1  0  0  0  0  0  0  0  0
   11.4560  -10.0127   -5.8534 O   0  0  0  1  0  0  0  0  0  0  0  0
   11.0964   -9.6361   -6.6599 H   0  0  0  1  0  0  0  0  0  0  0  0
   11.3536   -7.7113   -4.8464 C   0  0  0  1  0  0  0  0  0  0  0  0
   11.0227   -7.3707   -5.8053 H   0  0  0  1  0  0  0  0  0  0  0  0
   12.7740   -7.5305   -4.7463 O   0  0  0  1  0  0  0  0  0  0  0  0
   12.9636   -6.6331   -4.4630 H   0  0  0  1  0  0  0  0  0  0  0  0
   10.7496   -6.7957   -3.8018 C   0  0  0  1  0  0  0  0  0  0  0  0
   11.3732   -6.7853   -2.9324 H   0  0  0  1  0  0  0  0  0  0  0  0
   13.2554   -3.2817   -2.1608 O   0  0  0  1  0  0  0  0  0  0  0  0
   22.5731   -3.3091   -7.8066 O   0  0  0  1  0  0  0  0  0  0  0  0
   22.4243   -4.8883   -7.9923 P   0  0  0  1  0  0  0  0  0  0  0  0
   21.4561   -5.3187   -6.7867 O   0  0  0  1  0  0  0  0  0  0  0  0
   23.8067   -5.3832   -7.8067 O   0  0  0  0  0  0  0  0  0  0  0  0
   21.6591   -5.2237   -9.2030 O   0  0  0  1  0  0  0  0  0  0  0  0
   21.1890   -6.8171   -6.2049 P   0  0  0  1  0  0  0  0  0  0  0  0
   19.6594   -6.6762   -5.8982 O   0  0  0  1  0  0  0  0  0  0  0  0
   21.9685   -6.9971   -4.9534 O   0  0  0  0  0  0  0  0  0  0  0  0
   21.3251   -7.7889   -7.3185 O   0  0  0  1  0  0  0  0  0  0  0  0
   21.4642   -2.4305   -8.0561 C   0  0  0  1  0  0  0  0  0  0  0  0
   21.7189   -1.4350   -7.7579 H   0  0  0  1  0  0  0  0  0  0  0  0
   20.6104   -2.7618   -7.5026 H   0  0  0  1  0  0  0  0  0  0  0  0
   21.1551   -2.4550   -9.5256 C   0  0  0  1  0  0  0  0  0  0  0  0
   21.9028   -2.1473  -10.1798 H   0  0  0  1  0  0  0  0  0  0  0  0
   19.9936   -2.8419  -10.0541 C   0  0  0  1  0  0  0  0  0  0  0  0
   19.8931   -3.1031  -11.5278 C   0  0  0  1  0  0  0  0  0  0  0  0
   20.3481   -4.0444  -11.7555 H   0  0  0  1  0  0  0  0  0  0  0  0
   20.3967   -2.3252  -12.0628 H   0  0  0  1  0  0  0  0  0  0  0  0
   18.8630   -3.1260  -11.8162 H   0  0  0  1  0  0  0  0  0  0  0  0
   18.7630   -3.1418   -9.2242 C   0  0  0  1  0  0  0  0  0  0  0  0
   17.9696   -2.5008   -9.5476 H   0  0  0  1  0  0  0  0  0  0  0  0
   18.9877   -2.9419   -8.1974 H   0  0  0  1  0  0  0  0  0  0  0  0
   18.2998   -4.5843   -9.3461 C   0  0  0  1  0  0  0  0  0  0  0  0
   19.1144   -5.2177   -9.0629 H   0  0  0  1  0  0  0  0  0  0  0  0
   18.0466   -4.7643  -10.3700 H   0  0  0  1  0  0  0  0  0  0  0  0
   17.1224   -4.9493   -8.5108 C   0  0  0  1  0  0  0  0  0  0  0  0
   16.9302   -4.4157   -7.6391 H   0  0  0  1  0  0  0  0  0  0  0  0
   16.3127   -5.9439   -8.8583 C   0  0  0  1  0  0  0  0  0  0  0  0
   15.1253   -6.3136   -8.0178 C   0  0  0  1  0  0  0  0  0  0  0  0
   14.5558   -7.0695   -8.5170 H   0  0  0  1  0  0  0  0  0  0  0  0
   14.5136   -5.4491   -7.8651 H   0  0  0  1  0  0  0  0  0  0  0  0
   15.4600   -6.6858   -7.0721 H   0  0  0  1  0  0  0  0  0  0  0  0
   16.4941   -6.7818  -10.0956 C   0  0  0  1  0  0  0  0  0  0  0  0
   15.8503   -7.6346  -10.0392 H   0  0  0  1  0  0  0  0  0  0  0  0
   17.5121   -7.1060  -10.1537 H   0  0  0  1  0  0  0  0  0  0  0  0
   16.1538   -5.9822  -11.3427 C   0  0  0  1  0  0  0  0  0  0  0  0
   16.6090   -5.0171  -11.2631 H   0  0  0  1  0  0  0  0  0  0  0  0
   15.0909   -5.8724  -11.3974 H   0  0  0  1  0  0  0  0  0  0  0  0
   16.6339   -6.6352  -12.6111 C   0  0  0  1  0  0  0  0  0  0  0  0
   17.6332   -6.5077  -12.8697 H   0  0  0  1  0  0  0  0  0  0  0  0
   15.8768   -7.3619  -13.4245 C   0  0  0  1  0  0  0  0  0  0  0  0
   14.5148   -7.8447  -13.0030 C   0  0  0  1  0  0  0  0  0  0  0  0
   14.0863   -8.3813  -13.8236 H   0  0  0  1  0  0  0  0  0  0  0  0
   13.9136   -6.9870  -12.7842 H   0  0  0  1  0  0  0  0  0  0  0  0
   16.2865   -7.7683  -14.8121 C   0  0  0  1  0  0  0  0  0  0  0  0
   16.8323   -8.6876  -14.7685 H   0  0  0  1  0  0  0  0  0  0  0  0
   16.9050   -7.0064  -15.2386 H   0  0  0  1  0  0  0  0  0  0  0  0
   15.4139   -7.9003  -15.4170 H   0  0  0  1  0  0  0  0  0  0  0  0
   14.4940   -8.7548  -11.7857 C   0  0  0  1  0  0  0  0  0  0  0  0
   15.1687   -8.3611  -11.0546 H   0  0  0  1  0  0  0  0  0  0  0  0
   14.8193   -9.7296  -12.0837 H   0  0  0  1  0  0  0  0  0  0  0  0
   13.1419   -8.8738  -11.1684 C   0  0  0  1  0  0  0  0  0  0  0  0
   12.5810   -7.9980  -11.1581 H   0  0  0  1  0  0  0  0  0  0  0  0
   12.5475   -9.9329  -10.6296 C   0  0  0  1  0  0  0  0  0  0  0  0
   13.0253  -11.3459  -10.8220 C   0  0  0  1  0  0  0  0  0  0  0  0
   13.4865  -11.4213  -11.7846 H   0  0  0  1  0  0  0  0  0  0  0  0
   12.1798  -12.0002  -10.7789 H   0  0  0  1  0  0  0  0  0  0  0  0
   11.3266   -9.7946   -9.7687 C   0  0  0  1  0  0  0  0  0  0  0  0
   11.0594  -10.7515   -9.3714 H   0  0  0  1  0  0  0  0  0  0  0  0
   10.5174   -9.4141  -10.3563 H   0  0  0  1  0  0  0  0  0  0  0  0
   11.5322   -9.1196   -8.9643 H   0  0  0  1  0  0  0  0  0  0  0  0
   14.0299  -11.7834   -9.7686 C   0  0  0  1  0  0  0  0  0  0  0  0
   13.5314  -11.8349   -8.8232 H   0  0  0  1  0  0  0  0  0  0  0  0
   14.8122  -11.0550   -9.7207 H   0  0  0  1  0  0  0  0  0  0  0  0
   14.6433  -13.1268  -10.0606 C   0  0  0  1  0  0  0  0  0  0  0  0
   14.0084  -13.9485  -10.0037 H   0  0  0  1  0  0  0  0  0  0  0  0
   15.9078  -13.3764  -10.3833 C   0  0  0  1  0  0  0  0  0  0  0  0
   16.9034  -12.3100  -10.7369 C   0  0  0  1  0  0  0  0  0  0  0  0
   17.6636  -12.3054   -9.9839 H   0  0  0  1  0  0  0  0  0  0  0  0
   16.3937  -11.3692  -10.7356 H   0  0  0  1  0  0  0  0  0  0  0  0
   16.4482  -14.7783  -10.4190 C   0  0  0  1  0  0  0  0  0  0  0  0
   15.6493  -15.4731  -10.2647 H   0  0  0  1  0  0  0  0  0  0  0  0
   17.1791  -14.8983   -9.6468 H   0  0  0  1  0  0  0  0  0  0  0  0
   16.9011  -14.9615  -11.3710 H   0  0  0  1  0  0  0  0  0  0  0  0
   17.5819  -12.4740  -12.0871 C   0  0  0  1  0  0  0  0  0  0  0  0
   16.8292  -12.4824  -12.8476 H   0  0  0  1  0  0  0  0  0  0  0  0
   18.1066  -13.4064  -12.0936 H   0  0  0  1  0  0  0  0  0  0  0  0
   18.5592  -11.3725  -12.3930 C   0  0  0  1  0  0  0  0  0  0  0  0
   18.2232  -10.3924  -12.3032 H   0  0  0  1  0  0  0  0  0  0  0  0
   19.8189  -11.5581  -12.7690 C   0  0  0  1  0  0  0  0  0  0  0  0
   20.4941  -12.8942  -12.6114 C   0  0  0  1  0  0  0  0  0  0  0  0
   19.9044  -13.5114  -11.9662 H   0  0  0  1  0  0  0  0  0  0  0  0
   21.4625  -12.7492  -12.1799 H   0  0  0  1  0  0  0  0  0  0  0  0
   20.6802  -10.4858  -13.3745 C   0  0  0  1  0  0  0  0  0  0  0  0
   20.3592   -9.5280  -13.0216 H   0  0  0  1  0  0  0  0  0  0  0  0
   20.5950  -10.5197  -14.4406 H   0  0  0  1  0  0  0  0  0  0  0  0
   21.6999  -10.6460  -13.0925 H   0  0  0  1  0  0  0  0  0  0  0  0
   20.6465  -13.5832  -13.9577 C   0  0  0  1  0  0  0  0  0  0  0  0
   21.1761  -12.9282  -14.6175 H   0  0  0  1  0  0  0  0  0  0  0  0
   19.6714  -13.7769  -14.3534 H   0  0  0  1  0  0  0  0  0  0  0  0
   21.3962  -14.8857  -13.8720 C   0  0  0  1  0  0  0  0  0  0  0  0
   22.2624  -14.8851  -13.2963 H   0  0  0  1  0  0  0  0  0  0  0  0
   21.0716  -16.0353  -14.4515 C   0  0  0  1  0  0  0  0  0  0  0  0
   19.7024  -16.2618  -15.0236 C   0  0  0  1  0  0  0  0  0  0  0  0
   19.8027  -16.5073  -16.0602 H   0  0  0  1  0  0  0  0  0  0  0  0
   19.1377  -15.3585  -14.9235 H   0  0  0  1  0  0  0  0  0  0  0  0
   22.0125  -17.1985  -14.5928 C   0  0  0  1  0  0  0  0  0  0  0  0
   21.4509  -18.0941  -14.7583 H   0  0  0  1  0  0  0  0  0  0  0  0
   22.5903  -17.3004  -13.6980 H   0  0  0  1  0  0  0  0  0  0  0  0
   22.6663  -17.0294  -15.4228 H   0  0  0  1  0  0  0  0  0  0  0  0
   18.9462  -17.3842  -14.3315 C   0  0  0  1  0  0  0  0  0  0  0  0
   19.5279  -18.2810  -14.3799 H   0  0  0  1  0  0  0  0  0  0  0  0
   18.0118  -17.5371  -14.8300 H   0  0  0  1  0  0  0  0  0  0  0  0
   18.6859  -17.0421  -12.8889 C   0  0  0  1  0  0  0  0  0  0  0  0
   18.1050  -16.1982  -12.7101 H   0  0  0  1  0  0  0  0  0  0  0  0
   19.1177  -17.7014  -11.8192 C   0  0  0  1  0  0  0  0  0  0  0  0
   20.2121  -18.7301  -11.8594 C   0  0  0  1  0  0  0  0  0  0  0  0
   20.3723  -19.0172  -12.8777 H   0  0  0  1  0  0  0  0  0  0  0  0
   19.8995  -19.5823  -11.2930 H   0  0  0  1  0  0  0  0  0  0  0  0
   18.5305  -17.4618  -10.4591 C   0  0  0  1  0  0  0  0  0  0  0  0
   17.9891  -16.5389  -10.4613 H   0  0  0  1  0  0  0  0  0  0  0  0
   19.3168  -17.4121   -9.7351 H   0  0  0  1  0  0  0  0  0  0  0  0
   17.8669  -18.2637  -10.2111 H   0  0  0  1  0  0  0  0  0  0  0  0
   21.5261  -18.2242  -11.2869 C   0  0  0  1  0  0  0  0  0  0  0  0
   21.3331  -17.7044  -10.3718 H   0  0  0  1  0  0  0  0  0  0  0  0
   21.9803  -17.5559  -11.9883 H   0  0  0  1  0  0  0  0  0  0  0  0
   22.4599  -19.3612  -11.0175 C   0  0  0  1  0  0  0  0  0  0  0  0
   22.0843  -20.1795  -10.4971 H   0  0  0  1  0  0  0  0  0  0  0  0
   23.7355  -19.4037  -11.3942 C   0  0  0  1  0  0  0  0  0  0  0  0
   24.5862  -20.6418  -11.2965 C   0  0  0  1  0  0  0  0  0  0  0  0
   24.8470  -20.9547  -12.2860 H   0  0  0  1  0  0  0  0  0  0  0  0
   24.0159  -21.4100  -10.8176 H   0  0  0  1  0  0  0  0  0  0  0  0
   24.4258  -18.1494  -11.8510 C   0  0  0  1  0  0  0  0  0  0  0  0
   23.8389  -17.3428  -11.4639 H   0  0  0  1  0  0  0  0  0  0  0  0
   24.4583  -18.1087  -12.9197 H   0  0  0  1  0  0  0  0  0  0  0  0
   25.4215  -18.1077  -11.4616 H   0  0  0  1  0  0  0  0  0  0  0  0
   25.8655  -20.4243  -10.5050 C   0  0  0  1  0  0  0  0  0  0  0  0
   26.4784  -19.7244  -11.0338 H   0  0  0  1  0  0  0  0  0  0  0  0
   26.3793  -21.3594  -10.4244 H   0  0  0  1  0  0  0  0  0  0  0  0
   25.6180  -19.8925   -9.1187 C   0  0  0  1  0  0  0  0  0  0  0  0
   25.5997  -18.8578   -9.0154 H   0  0  0  1  0  0  0  0  0  0  0  0
   25.4205  -20.6011   -8.0135 C   0  0  0  1  0  0  0  0  0  0  0  0
   25.4204  -22.1020   -8.0381 C   0  0  0  1  0  0  0  0  0  0  0  0
   25.8971  -22.4738   -7.1553 H   0  0  0  1  0  0  0  0  0  0  0  0
   25.9520  -22.4443   -8.9013 H   0  0  0  1  0  0  0  0  0  0  0  0
   24.4120  -22.4578   -8.0754 H   0  0  0  1  0  0  0  0  0  0  0  0
   25.1818  -19.9918   -6.6533 C   0  0  0  1  0  0  0  0  0  0  0  0
   25.1112  -18.9324   -6.7858 H   0  0  0  1  0  0  0  0  0  0  0  0
   25.9965  -20.2251   -6.0000 H   0  0  0  1  0  0  0  0  0  0  0  0
   24.2712  -20.3700   -6.2378 H   0  0  0  1  0  0  0  0  0  0  0  0
   16.2294   -5.1728   -1.7981 C   0  0  0  1  0  0  0  0  0  0  0  0
   16.6111   -5.7119   -0.9564 H   0  0  0  1  0  0  0  0  0  0  0  0
   14.9199   -5.8037   -2.2536 C   0  0  0  1  0  0  0  0  0  0  0  0
   15.0945   -6.8122   -2.5655 H   0  0  0  1  0  0  0  0  0  0  0  0
   15.9985   -3.8116   -1.4273 O   0  0  0  1  0  0  0  0  0  0  0  0
   14.3702   -4.9876   -3.4277 C   0  0  0  1  0  0  0  0  0  0  0  0
   13.3883   -5.3420   -3.6625 H   0  0  0  1  0  0  0  0  0  0  0  0
   15.6092   -2.9999   -2.5461 C   0  0  0  1  0  0  0  0  0  0  0  0
   16.3647   -3.0514   -3.3020 H   0  0  0  1  0  0  0  0  0  0  0  0
   14.2910   -3.5033   -3.1149 C   0  0  0  1  0  0  0  0  0  0  0  0
   14.0692   -2.9668   -4.0138 H   0  0  0  1  0  0  0  0  0  0  0  0
   17.1484   -5.2197   -2.8324 O   0  0  0  1  0  0  0  0  0  0  0  0
   13.9800   -5.7931   -1.1776 O   0  0  0  1  0  0  0  0  0  0  0  0
   14.3397   -5.2909   -0.4428 H   0  0  0  1  0  0  0  0  0  0  0  0
   15.2285   -5.1736   -4.5584 O   0  0  0  1  0  0  0  0  0  0  0  0
   14.7874   -4.8586   -5.3507 H   0  0  0  1  0  0  0  0  0  0  0  0
   15.4455   -1.5687   -2.0937 C   0  0  0  1  0  0  0  0  0  0  0  0
   15.3730   -1.5375   -1.0266 H   0  0  0  1  0  0  0  0  0  0  0  0
   14.5557   -1.1586   -2.5236 H   0  0  0  1  0  0  0  0  0  0  0  0
   16.2920   -0.9958   -2.4103 H   0  0  0  1  0  0  0  0  0  0  0  0
   19.0834   -5.7645   -4.9492 C   0  0  0  1  0  0  0  0  0  0  0  0
   18.0806   -5.5317   -5.2409 H   0  0  0  1  0  0  0  0  0  0  0  0
   19.0749   -6.3989   -3.5852 C   0  0  0  1  0  0  0  0  0  0  0  0
   20.0734   -6.6721   -3.3145 H   0  0  0  1  0  0  0  0  0  0  0  0
   19.8512   -4.5771   -4.9094 O   0  0  0  1  0  0  0  0  0  0  0  0
   18.5330   -5.4290   -2.5758 C   0  0  0  1  0  0  0  0  0  0  0  0
   18.6563   -5.8415   -1.5962 H   0  0  0  1  0  0  0  0  0  0  0  0
   19.2377   -3.5839   -4.0683 C   0  0  0  1  0  0  0  0  0  0  0  0
   19.7886   -2.6685   -4.1270 H   0  0  0  1  0  0  0  0  0  0  0  0
   19.2508   -4.1011   -2.6431 C   0  0  0  1  0  0  0  0  0  0  0  0
   18.7576   -3.3978   -2.0052 H   0  0  0  1  0  0  0  0  0  0  0  0
   18.2361   -7.5879   -3.6110 N   0  0  0  1  0  0  0  0  0  0  0  0
   17.4803   -7.6201   -4.2340 H   0  0  0  1  0  0  0  0  0  0  0  0
   20.6021   -4.2699   -2.2121 O   0  0  0  1  0  0  0  0  0  0  0  0
   20.6189   -4.0492   -1.2780 H   0  0  0  1  0  0  0  0  0  0  0  0
   17.8202   -3.3461   -4.5112 C   0  0  0  1  0  0  0  0  0  0  0  0
   17.5886   -2.3098   -4.3793 H   0  0  0  1  0  0  0  0  0  0  0  0
   17.1671   -3.9381   -3.9047 H   0  0  0  1  0  0  0  0  0  0  0  0
   17.6122   -3.6905   -5.8776 O   0  0  0  1  0  0  0  0  0  0  0  0
   17.1426   -4.5272   -5.9082 H   0  0  0  1  0  0  0  0  0  0  0  0
   18.4623   -8.6459   -2.8080 C   0  0  0  1  0  0  0  0  0  0  0  0
   19.3669   -8.7178   -1.9926 O   0  0  0  1  0  0  0  0  0  0  0  0
   17.4741   -9.7796   -3.0008 C   0  0  0  1  0  0  0  0  0  0  0  0
   17.5997  -10.3929   -2.1331 H   0  0  0  1  0  0  0  0  0  0  0  0
   17.6993  -10.3309   -3.8897 H   0  0  0  1  0  0  0  0  0  0  0  0
   16.4737   -9.4041   -3.0573 H   0  0  0  1  0  0  0  0  0  0  0  0
  1  2  1  0  0  0  0
  1  3  1  0  0  0  0
  1  4  1  0  0  0  0
  1 44  1  0  0  0  0
  3 20  1  0  0  0  0
  4  5  1  0  0  0  0
  4  6  1  0  0  0  0
  4  8  1  0  0  0  0
  6  7  1  0  0  0  0
  8  9  1  0  0  0  0
  8 10  1  0  0  0  0
  8 20  1  0  0  0  0
 10 11  1  0  0  0  0
 12 13  1  0  0  0  0
 12 14  1  0  0  0  0
 12 15  1  0  0  0  0
 12 17  1  0  0  0  0
 15 16  1  0  0  0  0
 17 18  1  0  0  0  0
 17 19  1  0  0  0  0
 17 20  1  0  0  0  0
 19 22  1  0  0  0  0
 20 21  1  0  0  0  0
 22 23  1  0  0  0  0
 22 24  1  0  0  0  0
 22 25  1  0  0  0  0
 24 42  1  0  0  0  0
 25 26  1  0  0  0  0
 25 27  1  0  0  0  0
 25 29  1  0  0  0  0
 27 28  1  0  0  0  0
 29 30  1  0  0  0  0
 29 31  1  0  0  0  0
 29 42  1  0  0  0  0
 31 32  1  0  0  0  0
 33 34  1  0  0  0  0
 33 35  1  0  0  0  0
 33 36  1  0  0  0  0
 33 38  1  0  0  0  0
 36 37  1  0  0  0  0
 38 39  1  0  0  0  0
 38 40  1  0  0  0  0
 38 42  1  0  0  0  0
 40 41  1  0  0  0  0
 42 43  1  0  0  0  0
 44194  1  0  0  0  0
 45 46  1  0  0  0  0
 45 54  1  0  0  0  0
 46 47  1  0  0  0  0
 46 48  1  0  0  0  0
 46 49  2  0  0  0  0
 47 50  1  0  0  0  0
 50 51  1  0  0  0  0
 50 52  1  0  0  0  0
 50 53  2  0  0  0  0
 51205  1  0  0  0  0
 54 55  1  0  0  0  0
 54 56  1  0  0  0  0
 54 57  1  0  0  0  0
 57 58  1  0  0  0  0
 57 59  2  0  0  0  0
 59 60  1  0  0  0  0
 59 64  1  0  0  0  0
 60 61  1  0  0  0  0
 60 62  1  0  0  0  0
 60 63  1  0  0  0  0
 64 65  1  0  0  0  0
 64 66  1  0  0  0  0
 64 67  1  0  0  0  0
 67 68  1  0  0  0  0
 67 69  1  0  0  0  0
 67 70  1  0  0  0  0
 70 71  1  0  0  0  0
 70 72  2  0  0  0  0
 72 73  1  0  0  0  0
 72 77  1  0  0  0  0
 73 74  1  0  0  0  0
 73 75  1  0  0  0  0
 73 76  1  0  0  0  0
 77 78  1  0  0  0  0
 77 79  1  0  0  0  0
 77 80  1  0  0  0  0
 80 81  1  0  0  0  0
 80 82  1  0  0  0  0
 80 83  1  0  0  0  0
 83 84  1  0  0  0  0
 83 85  2  0  0  0  0
 85 86  1  0  0  0  0
 85 89  1  0  0  0  0
 86 87  1  0  0  0  0
 86 88  1  0  0  0  0
 86 93  1  0  0  0  0
 89 90  1  0  0  0  0
 89 91  1  0  0  0  0
 89 92  1  0  0  0  0
 93 94  1  0  0  0  0
 93 95  1  0  0  0  0
 93 96  1  0  0  0  0
 96 97  1  0  0  0  0
 96 98  2  0  0  0  0
 98 99  1  0  0  0  0
 98102  1  0  0  0  0
 99100  1  0  0  0  0
 99101  1  0  0  0  0
 99106  1  0  0  0  0
102103  1  0  0  0  0
102104  1  0  0  0  0
102105  1  0  0  0  0
106107  1  0  0  0  0
106108  1  0  0  0  0
106109  1  0  0  0  0
109110  1  0  0  0  0
109111  2  0  0  0  0
111112  1  0  0  0  0
111115  1  0  0  0  0
112113  1  0  0  0  0
112114  1  0  0  0  0
112119  1  0  0  0  0
115116  1  0  0  0  0
115117  1  0  0  0  0
115118  1  0  0  0  0
119120  1  0  0  0  0
119121  1  0  0  0  0
119122  1  0  0  0  0
122123  1  0  0  0  0
122124  2  0  0  0  0
124125  1  0  0  0  0
124128  1  0  0  0  0
125126  1  0  0  0  0
125127  1  0  0  0  0
125132  1  0  0  0  0
128129  1  0  0  0  0
128130  1  0  0  0  0
128131  1  0  0  0  0
132133  1  0  0  0  0
132134  1  0  0  0  0
132135  1  0  0  0  0
135136  1  0  0  0  0
135137  2  0  0  0  0
137138  1  0  0  0  0
137141  1  0  0  0  0
138139  1  0  0  0  0
138140  1  0  0  0  0
138145  1  0  0  0  0
141142  1  0  0  0  0
141143  1  0  0  0  0
141144  1  0  0  0  0
145146  1  0  0  0  0
145147  1  0  0  0  0
145148  1  0  0  0  0
148149  1  0  0  0  0
148150  2  0  0  0  0
150151  1  0  0  0  0
150154  1  0  0  0  0
151152  1  0  0  0  0
151153  1  0  0  0  0
151158  1  0  0  0  0
154155  1  0  0  0  0
154156  1  0  0  0  0
154157  1  0  0  0  0
158159  1  0  0  0  0
158160  1  0  0  0  0
158161  1  0  0  0  0
161162  1  0  0  0  0
161163  2  0  0  0  0
163164  1  0  0  0  0
163167  1  0  0  0  0
164165  1  0  0  0  0
164166  1  0  0  0  0
164171  1  0  0  0  0
167168  1  0  0  0  0
167169  1  0  0  0  0
167170  1  0  0  0  0
171172  1  0  0  0  0
171173  1  0  0  0  0
171174  1  0  0  0  0
174175  1  0  0  0  0
174176  2  0  0  0  0
176177  1  0  0  0  0
176181  1  0  0  0  0
177178  1  0  0  0  0
177179  1  0  0  0  0
177180  1  0  0  0  0
181182  1  0  0  0  0
181183  1  0  0  0  0
181184  1  0  0  0  0
185186  1  0  0  0  0
185187  1  0  0  0  0
185189  1  0  0  0  0
185196  1  0  0  0  0
187188  1  0  0  0  0
187190  1  0  0  0  0
187197  1  0  0  0  0
189192  1  0  0  0  0
190191  1  0  0  0  0
190194  1  0  0  0  0
190199  1  0  0  0  0
192193  1  0  0  0  0
192194  1  0  0  0  0
192201  1  0  0  0  0
194195  1  0  0  0  0
196210  1  0  0  0  0
197198  1  0  0  0  0
199200  1  0  0  0  0
201202  1  0  0  0  0
201203  1  0  0  0  0
201204  1  0  0  0  0
205206  1  0  0  0  0
205207  1  0  0  0  0
205209  1  0  0  0  0
207208  1  0  0  0  0
207210  1  0  0  0  0
207216  1  0  0  0  0
209212  1  0  0  0  0
210211  1  0  0  0  0
210214  1  0  0  0  0
212213  1  0  0  0  0
212214  1  0  0  0  0
212220  1  0  0  0  0
214215  1  0  0  0  0
214218  1  0  0  0  0
216217  1  0  0  0  0
216225  1  0  0  0  0
218219  1  0  0  0  0
220221  1  0  0  0  0
220222  1  0  0  0  0
220223  1  0  0  0  0
223224  1  0  0  0  0
225226  2  0  0  0  0
225227  1  0  0  0  0
227228  1  0  0  0  0
227229  1  0  0  0  0
227230  1  0  0  0  0
M  BCL ATM C_TeTeTeTe H_S O_Te2Te2TeTe C_TeTeTeTe H_S O_Te2Te2TeTe H_S C_TeTeTeTe H_S O_Te2Te2TeTe H_S C_TeTeTeTe H_S H_S O_Te2Te2TeTe H_S C_TeTeTeTe H_S O_Te2Te2TeTe C_TeTeTeTe H_S C_TeTeTeTe H_S O_Te2Te2TeTe C_TeTeTeTe H_S O_Te2Te2TeTe H_S C_TeTeTeTe H_S O_Te2Te2TeTe H_S C_TeTeTeTe H_S H_S O_Te2Te2TeTe H_S C_TeTeTeTe H_S O_Te2Te2TeTe H_S C_TeTeTeTe H_S O_Te2Te2TeTe O_Tr2TrTrPi2 P_TeTeTeTePi O_Tr2TrTrPi2 O_Te2Te2TeTe O_Tr2Tr2TrPi P_TeTeTeTePi O_Tr2TrTrPi2 O_Te2Te2TeTe O_Tr2Tr2TrPi C_TeTeTeTe H_S H_S C_TrTrTrPi H_S C_TrTrTrPi C_TeTeTeTe H_S H_S H_S C_TeTeTeTe H_S H_S C_TeTeTeTe H_S H_S C_TrTrTrPi H_S C_TrTrTrPi C_TeTeTeTe H_S H_S H_S C_TeTeTeTe H_S H_S C_TeTeTeTe H_S H_S C_TrTrTrPi H_S C_TrTrTrPi C_TeTeTeTe H_S H_S C_TeTeTeTe H_S H_S H_S C_TeTeTeTe H_S H_S C_TrTrTrPi H_S C_TrTrTrPi C_TeTeTeTe H_S H_S C_TeTeTeTe H_S H_S H_S C_TeTeTeTe H_S H_S C_TrTrTrPi H_S C_TrTrTrPi C_TeTeTeTe H_S H_S C_TeTeTeTe H_S H_S H_S C_TeTeTeTe H_S H_S C_TrTrTrPi H_S C_TrTrTrPi C_TeTeTeTe H_S H_S C_TeTeTeTe H_S H_S H_S C_TeTeTeTe H_S H_S C_TrTrTrPi H_S C_TrTrTrPi C_TeTeTeTe H_S H_S C_TeTeTeTe H_S H_S H_S C_TeTeTeTe H_S H_S C_TrTrTrPi H_S C_TrTrTrPi C_TeTeTeTe H_S H_S C_TeTeTeTe H_S H_S H_S C_TeTeTeTe H_S H_S C_TrTrTrPi H_S C_TrTrTrPi C_TeTeTeTe H_S H_S C_TeTeTeTe H_S H_S H_S C_TeTeTeTe H_S H_S C_TrTrTrPi H_S C_TrTrTrPi C_TeTeTeTe H_S H_S H_S C_TeTeTeTe H_S H_S H_S C_TeTeTeTe H_S C_TeTeTeTe H_S O_Te2Te2TeTe C_TeTeTeTe H_S C_TeTeTeTe H_S C_TeTeTeTe H_S O_Te2Te2TeTe O_Te2Te2TeTe H_S O_Te2Te2TeTe H_S C_TeTeTeTe H_S H_S H_S C_TeTeTeTe H_S C_TeTeTeTe H_S O_Te2Te2TeTe C_TeTeTeTe H_S C_TeTeTeTe H_S C_TeTeTeTe H_S N_TrTrTrPi2 H_S O_Te2Te2TeTe H_S C_TeTeTeTe H_S H_S O_Te2Te2TeTe H_S C_TrTrTrPi O_Tr2Tr2TrPi C_TeTeTeTe H_S H_S H_S
M  BCL BND NonConjugatedSingleBond NonConjugatedSingleBondInRing NonConjugatedSingleBondInRing NonConjugatedSingleBond NonConjugatedSingleBondInRing NonConjugatedSingleBond NonConjugatedSingleBond NonConjugatedSingleBondInRing NonConjugatedSingleBond NonConjugatedSingleBond NonConjugatedSingleBond NonConjugatedSingleBondInRing NonConjugatedSingleBond NonConjugatedSingleBond NonConjugatedSingleBond NonConjugatedSingleBond NonConjugatedSingleBond NonConjugatedSingleBond NonConjugatedSingleBond NonConjugatedSingleBond NonConjugatedSingleBond NonConjugatedSingleBond NonConjugatedSingleBond NonConjugatedSingleBond NonConjugatedSingleBondInRing NonConjugatedSingleBondInRing NonConjugatedSingleBondInRing NonConjugatedSingleBond NonConjugatedSingleBond NonConjugatedSingleBondInRing NonConjugatedSingleBond NonConjugatedSingleBond NonConjugatedSingleBond NonConjugatedSingleBondInRing NonConjugatedSingleBond NonConjugatedSingleBond NonConjugatedSingleBond NonConjugatedSingleBond NonConjugatedSingleBond NonConjugatedSingleBond NonConjugatedSingleBond NonConjugatedSingleBond NonConjugatedSingleBond NonConjugatedSingleBond NonConjugatedSingleBond NonConjugatedSingleBond ConjugatedSingleBond NonConjugatedSingleBond ConjugatedSingleBond ConjugatedSingleBond ConjugatedDoubleBond ConjugatedSingleBond ConjugatedSingleBond ConjugatedSingleBond ConjugatedDoubleBond NonConjugatedSingleBond NonConjugatedSingleBond NonConjugatedSingleBond NonConjugatedSingleBond NonConjugatedSingleBond ConjugatedDoubleBond NonConjugatedSingleBond NonConjugatedSingleBond NonConjugatedSingleBond NonConjugatedSingleBond NonConjugatedSingleBond NonConjugatedSingleBond NonConjugatedSingleBond NonConjugatedSingleBond NonConjugatedSingleBond NonConjugatedSingleBond NonConjugatedSingleBond NonConjugatedSingleBond ConjugatedDoubleBond NonConjugatedSingleBond NonConjugatedSingleBond NonConjugatedSingleBond NonConjugatedSingleBond NonConjugatedSingleBond NonConjugatedSingleBond NonConjugatedSingleBond NonConjugatedSingleBond NonConjugatedSingleBond NonConjugatedSingleBond NonConjugatedSingleBond NonConjugatedSingleBond ConjugatedDoubleBond NonConjugatedSingleBond NonConjugatedSingleBond NonConjugatedSingleBond NonConjugatedSingleBond NonConjugatedSingleBond NonConjugatedSingleBond NonConjugatedSingleBond NonConjugatedSingleBond NonConjugatedSingleBond NonConjugatedSingleBond NonConjugatedSingleBond NonConjugatedSingleBond ConjugatedDoubleBond NonConjugatedSingleBond NonConjugatedSingleBond NonConjugatedSingleBond NonConjugatedSingleBond NonConjugatedSingleBond NonConjugatedSingleBond NonConjugatedSingleBond NonConjugatedSingleBond NonConjugatedSingleBond NonConjugatedSingleBond NonConjugatedSingleBond NonConjugatedSingleBond ConjugatedDoubleBond NonConjugatedSingleBond NonConjugatedSingleBond NonConjugatedSingleBond NonConjugatedSingleBond NonConjugatedSingleBond NonConjugatedSingleBond NonConjugatedSingleBond NonConjugatedSingleBond NonConjugatedSingleBond NonConjugatedSingleBond NonConjugatedSingleBond NonConjugatedSingleBond ConjugatedDoubleBond NonConjugatedSingleBond NonConjugatedSingleBond NonConjugatedSingleBond NonConjugatedSingleBond NonConjugatedSingleBond NonConjugatedSingleBond NonConjugatedSingleBond NonConjugatedSingleBond NonConjugatedSingleBond NonConjugatedSingleBond NonConjugatedSingleBond NonConjugatedSingleBond ConjugatedDoubleBond NonConjugatedSingleBond NonConjugatedSingleBond NonConjugatedSingleBond NonConjugatedSingleBond NonConjugatedSingleBond NonConjugatedSingleBond NonConjugatedSingleBond NonConjugatedSingleBond NonConjugatedSingleBond NonConjugatedSingleBond NonConjugatedSingleBond NonConjugatedSingleBond ConjugatedDoubleBond NonConjugatedSingleBond NonConjugatedSingleBond NonConjugatedSingleBond NonConjugatedSingleBond NonConjugatedSingleBond NonConjugatedSingleBond NonConjugatedSingleBond NonConjugatedSingleBond NonConjugatedSingleBond NonConjugatedSingleBond NonConjugatedSingleBond NonConjugatedSingleBond ConjugatedDoubleBond NonConjugatedSingleBond NonConjugatedSingleBond NonConjugatedSingleBond NonConjugatedSingleBond NonConjugatedSingleBond NonConjugatedSingleBond NonConjugatedSingleBond NonConjugatedSingleBond NonConjugatedSingleBond NonConjugatedSingleBond NonConjugatedSingleBond NonConjugatedSingleBond ConjugatedDoubleBond NonConjugatedSingleBond NonConjugatedSingleBond NonConjugatedSingleBond NonConjugatedSingleBond NonConjugatedSingleBond NonConjugatedSingleBond NonConjugatedSingleBond NonConjugatedSingleBond NonConjugatedSingleBond NonConjugatedSingleBondInRing NonConjugatedSingleBondInRing NonConjugatedSingleBond NonConjugatedSingleBond NonConjugatedSingleBondInRing NonConjugatedSingleBond NonConjugatedSingleBondInRing NonConjugatedSingleBond NonConjugatedSingleBondInRing NonConjugatedSingleBond NonConjugatedSingleBond NonConjugatedSingleBondInRing NonConjugatedSingleBond NonConjugatedSingleBond NonConjugatedSingleBond NonConjugatedSingleBond NonConjugatedSingleBond NonConjugatedSingleBond NonConjugatedSingleBond NonConjugatedSingleBond NonConjugatedSingleBond NonConjugatedSingleBondInRing NonConjugatedSingleBondInRing NonConjugatedSingleBond NonConjugatedSingleBondInRing NonConjugatedSingleBond NonConjugatedSingleBondInRing NonConjugatedSingleBond NonConjugatedSingleBondInRing NonConjugatedSingleBond NonConjugatedSingleBondInRing NonConjugatedSingleBond NonConjugatedSingleBond NonConjugatedSingleBond NonConjugatedSingleBond AmideSingleBond NonConjugatedSingleBond NonConjugatedSingleBond NonConjugatedSingleBond NonConjugatedSingleBond NonConjugatedSingleBond ConjugatedDoubleBond NonConjugatedSingleBond NonConjugatedSingleBond NonConjugatedSingleBond NonConjugatedSingleBond
M  BCL CHI   1   R   4   R   8   R  17   S  20   R  22   S  25   R  29   S  38   S  42   R  46   R  50   S 185   R 187   S 190   S 192   R 194   R 205   R 207   S 210   R 212   S 214   S
M  BCL DBI - - E E E E E E E E Z - -
M  END
> <ConfClashScore>
0.00703092 

> <ConfOneFourInteractionScore>
-0.968825 

> <ConfScore>
0.828591 

> <ConfScorePBest>
0.0108755 

> <ConfTolerance>
0.25 

$$$$
L05.****
  PyMOL2.5          3D                             0

230233  0  0  0  0  0  0  0  0999 V2000
   12.0739   -2.7081   -2.7598 C   0  0  0  1  0  0  0  0  0  0  0  0
   11.3014   -2.6551   -2.0213 H   0  0  0  1  0  0  0  0  0  0  0  0
   11.6360   -3.4664   -3.8519 O   0  0  0  1  0  0  0  0  0  0  0  0
   12.4085   -1.2963   -3.2669 C   0  0  0  1  0  0  0  0  0  0  0  0
   13.4656   -1.1623   -3.3650 H   0  0  0  1  0  0  0  0  0  0  0  0
   11.8801   -0.2970   -2.3937 O   0  0  0  1  0  0  0  0  0  0  0  0
   12.3512   -0.3206   -1.5575 H   0  0  0  1  0  0  0  0  0  0  0  0
   11.7167   -1.2561   -4.6361 C   0  0  0  1  0  0  0  0  0  0  0  0
   10.7103   -0.9040   -4.5458 H   0  0  0  1  0  0  0  0  0  0  0  0
   12.4342   -0.4210   -5.5462 O   0  0  0  1  0  0  0  0  0  0  0  0
   13.3765   -0.5050   -5.3832 H   0  0  0  1  0  0  0  0  0  0  0  0
   10.6024   -4.4191   -6.5543 C   0  0  0  1  0  0  0  0  0  0  0  0
    9.6307   -4.6953   -6.9072 H   0  0  0  1  0  0  0  0  0  0  0  0
   11.3075   -4.4919   -7.3559 H   0  0  0  1  0  0  0  0  0  0  0  0
   10.9917   -5.2731   -5.4867 O   0  0  0  1  0  0  0  0  0  0  0  0
   10.6751   -6.1633   -5.6566 H   0  0  0  1  0  0  0  0  0  0  0  0
   10.5742   -2.9964   -6.0147 C   0  0  0  1  0  0  0  0  0  0  0  0
    9.6752   -2.8840   -5.4454 H   0  0  0  1  0  0  0  0  0  0  0  0
   10.5434   -2.0864   -7.1081 O   0  0  0  1  0  0  0  0  0  0  0  0
   11.7458   -2.6980   -5.0886 C   0  0  0  1  0  0  0  0  0  0  0  0
   12.6640   -2.9188   -5.5917 H   0  0  0  1  0  0  0  0  0  0  0  0
    9.2836   -1.8022   -7.6436 C   0  0  0  1  0  0  0  0  0  0  0  0
    9.3971   -1.3918   -8.6253 H   0  0  0  1  0  0  0  0  0  0  0  0
    8.4908   -2.9699   -7.6859 O   0  0  0  1  0  0  0  0  0  0  0  0
    8.5329   -0.8337   -6.7477 C   0  0  0  1  0  0  0  0  0  0  0  0
    8.7467    0.1814   -7.0099 H   0  0  0  1  0  0  0  0  0  0  0  0
    8.8525   -1.0484   -5.3722 O   0  0  0  1  0  0  0  0  0  0  0  0
    8.0647   -1.3275   -4.8999 H   0  0  0  1  0  0  0  0  0  0  0  0
    7.0942   -1.1794   -7.0336 C   0  0  0  1  0  0  0  0  0  0  0  0
    6.7577   -0.7281   -7.9435 H   0  0  0  1  0  0  0  0  0  0  0  0
    6.2418   -0.7836   -5.9629 O   0  0  0  1  0  0  0  0  0  0  0  0
    6.3903   -1.3560   -5.2066 H   0  0  0  1  0  0  0  0  0  0  0  0
    5.6773   -4.6599   -7.8828 C   0  0  0  1  0  0  0  0  0  0  0  0
    6.5489   -5.2761   -7.9565 H   0  0  0  1  0  0  0  0  0  0  0  0
    5.2658   -4.7395   -6.8983 H   0  0  0  1  0  0  0  0  0  0  0  0
    4.7191   -5.1411   -8.8006 O   0  0  0  1  0  0  0  0  0  0  0  0
    3.8399   -5.0403   -8.4285 H   0  0  0  1  0  0  0  0  0  0  0  0
    6.0999   -3.2067   -8.1072 C   0  0  0  1  0  0  0  0  0  0  0  0
    5.2318   -2.5957   -7.9729 H   0  0  0  1  0  0  0  0  0  0  0  0
    6.5820   -3.0329   -9.4370 O   0  0  0  1  0  0  0  0  0  0  0  0
    7.0852   -3.8073   -9.6992 H   0  0  0  1  0  0  0  0  0  0  0  0
    7.1635   -2.7008   -7.1579 C   0  0  0  1  0  0  0  0  0  0  0  0
    7.0376   -3.1632   -6.2013 H   0  0  0  1  0  0  0  0  0  0  0  0
   13.2340   -3.3047   -2.1917 O   0  0  0  1  0  0  0  0  0  0  0  0
   21.5812   -6.0567   -8.8029 O   0  0  0  1  0  0  0  0  0  0  0  0
   21.6212   -7.3920   -7.9777 P   0  0  0  1  0  0  0  0  0  0  0  0
   21.6075   -6.7800   -6.4923 O   0  0  0  1  0  0  0  0  0  0  0  0
   22.9461   -7.9744   -8.2883 O   0  0  0  0  0  0  0  0  0  0  0  0
   20.4160   -8.2320   -8.1479 O   0  0  0  1  0  0  0  0  0  0  0  0
   21.6347   -7.4708   -5.0184 P   0  0  0  1  0  0  0  0  0  0  0  0
   20.0639   -7.4870   -4.9270 O   0  0  0  1  0  0  0  0  0  0  0  0
   22.1922   -6.5291   -4.0300 O   0  0  0  0  0  0  0  0  0  0  0  0
   22.1596   -8.8457   -5.0925 O   0  0  0  1  0  0  0  0  0  0  0  0
   21.1547   -5.9924  -10.1731 C   0  0  0  1  0  0  0  0  0  0  0  0
   20.6854   -6.9138  -10.4481 H   0  0  0  1  0  0  0  0  0  0  0  0
   22.0000   -5.8193  -10.8059 H   0  0  0  1  0  0  0  0  0  0  0  0
   20.1762   -4.8641  -10.3170 C   0  0  0  1  0  0  0  0  0  0  0  0
   19.3515   -4.8412   -9.6839 H   0  0  0  1  0  0  0  0  0  0  0  0
   20.3114   -3.8935  -11.2127 C   0  0  0  1  0  0  0  0  0  0  0  0
   19.1698   -2.9797  -11.5519 C   0  0  0  1  0  0  0  0  0  0  0  0
   18.4176   -3.5283  -12.0792 H   0  0  0  1  0  0  0  0  0  0  0  0
   19.5246   -2.1795  -12.1673 H   0  0  0  1  0  0  0  0  0  0  0  0
   18.7536   -2.5799  -10.6509 H   0  0  0  1  0  0  0  0  0  0  0  0
   21.5843   -3.6140  -11.9611 C   0  0  0  1  0  0  0  0  0  0  0  0
   21.4521   -3.9104  -12.9807 H   0  0  0  1  0  0  0  0  0  0  0  0
   22.3716   -4.1898  -11.5210 H   0  0  0  1  0  0  0  0  0  0  0  0
   21.9828   -2.1475  -11.9314 C   0  0  0  1  0  0  0  0  0  0  0  0
   22.0999   -1.8363  -10.9143 H   0  0  0  1  0  0  0  0  0  0  0  0
   21.2146   -1.5658  -12.3966 H   0  0  0  1  0  0  0  0  0  0  0  0
   23.2705   -1.9328  -12.6613 C   0  0  0  1  0  0  0  0  0  0  0  0
   23.2399   -2.0363  -13.6957 H   0  0  0  1  0  0  0  0  0  0  0  0
   24.4494   -1.6243  -12.1316 C   0  0  0  1  0  0  0  0  0  0  0  0
   25.7002   -1.4252  -12.9399 C   0  0  0  1  0  0  0  0  0  0  0  0
   25.4717   -1.5203  -13.9809 H   0  0  0  1  0  0  0  0  0  0  0  0
   26.4237   -2.1640  -12.6649 H   0  0  0  1  0  0  0  0  0  0  0  0
   26.0960   -0.4495  -12.7496 H   0  0  0  1  0  0  0  0  0  0  0  0
   24.6231   -1.4476  -10.6515 C   0  0  0  1  0  0  0  0  0  0  0  0
   25.3618   -2.1424  -10.3100 H   0  0  0  1  0  0  0  0  0  0  0  0
   23.6893   -1.6546  -10.1719 H   0  0  0  1  0  0  0  0  0  0  0  0
   25.0641   -0.0447  -10.2671 C   0  0  0  1  0  0  0  0  0  0  0  0
   24.3234    0.6353  -10.6331 H   0  0  0  1  0  0  0  0  0  0  0  0
   25.9959    0.1439  -10.7580 H   0  0  0  1  0  0  0  0  0  0  0  0
   25.2591    0.2471   -8.8032 C   0  0  0  1  0  0  0  0  0  0  0  0
   24.3979    0.4169   -8.2456 H   0  0  0  1  0  0  0  0  0  0  0  0
   26.4114    0.3111   -8.1468 C   0  0  0  1  0  0  0  0  0  0  0  0
   27.6795   -0.2293   -8.7413 C   0  0  0  1  0  0  0  0  0  0  0  0
   28.3513   -0.4525   -7.9389 H   0  0  0  1  0  0  0  0  0  0  0  0
   28.1042    0.5324   -9.3613 H   0  0  0  1  0  0  0  0  0  0  0  0
   26.5652    0.9136   -6.7787 C   0  0  0  1  0  0  0  0  0  0  0  0
   26.6411    0.1329   -6.0510 H   0  0  0  1  0  0  0  0  0  0  0  0
   25.7134    1.5232   -6.5600 H   0  0  0  1  0  0  0  0  0  0  0  0
   27.4505    1.5139   -6.7511 H   0  0  0  1  0  0  0  0  0  0  0  0
   27.5210   -1.4849   -9.5832 C   0  0  0  1  0  0  0  0  0  0  0  0
   26.8844   -1.2708  -10.4161 H   0  0  0  1  0  0  0  0  0  0  0  0
   27.0800   -2.2549   -8.9852 H   0  0  0  1  0  0  0  0  0  0  0  0
   28.8564   -1.9587  -10.0915 C   0  0  0  1  0  0  0  0  0  0  0  0
   28.8859   -2.3893  -11.0377 H   0  0  0  1  0  0  0  0  0  0  0  0
   30.0002   -1.8677   -9.4215 C   0  0  0  1  0  0  0  0  0  0  0  0
   30.0834   -1.5784   -7.9479 C   0  0  0  1  0  0  0  0  0  0  0  0
   29.2928   -0.9060   -7.6877 H   0  0  0  1  0  0  0  0  0  0  0  0
   31.0268   -1.1164   -7.7443 H   0  0  0  1  0  0  0  0  0  0  0  0
   31.3253   -2.0512  -10.1015 C   0  0  0  1  0  0  0  0  0  0  0  0
   31.1709   -2.2055  -11.1490 H   0  0  0  1  0  0  0  0  0  0  0  0
   31.8246   -2.9014   -9.6857 H   0  0  0  1  0  0  0  0  0  0  0  0
   31.9253   -1.1775   -9.9546 H   0  0  0  1  0  0  0  0  0  0  0  0
   29.9600   -2.8259   -7.0884 C   0  0  0  1  0  0  0  0  0  0  0  0
   30.0563   -2.5426   -6.0611 H   0  0  0  1  0  0  0  0  0  0  0  0
   30.7503   -3.4986   -7.3489 H   0  0  0  1  0  0  0  0  0  0  0  0
   28.6760   -3.5218   -7.2637 C   0  0  0  1  0  0  0  0  0  0  0  0
   28.5256   -3.8385   -8.2428 H   0  0  0  1  0  0  0  0  0  0  0  0
   27.6631   -3.8410   -6.4651 C   0  0  0  1  0  0  0  0  0  0  0  0
   27.7401   -3.8030   -4.9664 C   0  0  0  1  0  0  0  0  0  0  0  0
   28.5070   -3.1087   -4.6928 H   0  0  0  1  0  0  0  0  0  0  0  0
   28.0057   -4.7815   -4.6247 H   0  0  0  1  0  0  0  0  0  0  0  0
   26.3336   -4.2740   -7.0160 C   0  0  0  1  0  0  0  0  0  0  0  0
   26.1708   -3.8067   -7.9646 H   0  0  0  1  0  0  0  0  0  0  0  0
   25.5566   -3.9864   -6.3389 H   0  0  0  1  0  0  0  0  0  0  0  0
   26.3270   -5.3371   -7.1366 H   0  0  0  1  0  0  0  0  0  0  0  0
   26.4598   -3.3905   -4.2585 C   0  0  0  1  0  0  0  0  0  0  0  0
   25.6624   -3.9927   -4.6411 H   0  0  0  1  0  0  0  0  0  0  0  0
   26.2725   -2.3623   -4.4877 H   0  0  0  1  0  0  0  0  0  0  0  0
   26.4749   -3.5370   -2.7618 C   0  0  0  1  0  0  0  0  0  0  0  0
   26.6866   -4.4778   -2.3724 H   0  0  0  1  0  0  0  0  0  0  0  0
   26.2359   -2.5455   -1.8924 C   0  0  0  1  0  0  0  0  0  0  0  0
   25.5978   -1.2687   -2.4004 C   0  0  0  1  0  0  0  0  0  0  0  0
   24.9195   -1.4966   -3.1960 H   0  0  0  1  0  0  0  0  0  0  0  0
   26.3566   -0.6040   -2.7574 H   0  0  0  1  0  0  0  0  0  0  0  0
   26.5705   -2.6472   -0.4529 C   0  0  0  1  0  0  0  0  0  0  0  0
   25.7467   -2.2934    0.1312 H   0  0  0  1  0  0  0  0  0  0  0  0
   27.4358   -2.0530   -0.2453 H   0  0  0  1  0  0  0  0  0  0  0  0
   26.7707   -3.6686   -0.2048 H   0  0  0  1  0  0  0  0  0  0  0  0
   24.8422   -0.6150   -1.2550 C   0  0  0  1  0  0  0  0  0  0  0  0
   24.3820    0.2712   -1.6394 H   0  0  0  1  0  0  0  0  0  0  0  0
   25.5607   -0.3491   -0.5079 H   0  0  0  1  0  0  0  0  0  0  0  0
   23.7759   -1.4172   -0.5840 C   0  0  0  1  0  0  0  0  0  0  0  0
   23.1446   -1.9937   -1.1761 H   0  0  0  1  0  0  0  0  0  0  0  0
   23.5942   -1.4304    0.7311 C   0  0  0  1  0  0  0  0  0  0  0  0
   24.2605   -0.4178    1.6236 C   0  0  0  1  0  0  0  0  0  0  0  0
   24.9010    0.1952    1.0245 H   0  0  0  1  0  0  0  0  0  0  0  0
   24.8449   -0.9388    2.3530 H   0  0  0  1  0  0  0  0  0  0  0  0
   22.7295   -2.4284    1.4485 C   0  0  0  1  0  0  0  0  0  0  0  0
   22.3916   -3.1711    0.7562 H   0  0  0  1  0  0  0  0  0  0  0  0
   21.8852   -1.9276    1.8742 H   0  0  0  1  0  0  0  0  0  0  0  0
   23.2959   -2.8973    2.2258 H   0  0  0  1  0  0  0  0  0  0  0  0
   23.2708    0.4799    2.3481 C   0  0  0  1  0  0  0  0  0  0  0  0
   22.5592    0.8329    1.6312 H   0  0  0  1  0  0  0  0  0  0  0  0
   23.8123    1.3096    2.7523 H   0  0  0  1  0  0  0  0  0  0  0  0
   22.5122   -0.1718    3.4732 C   0  0  0  1  0  0  0  0  0  0  0  0
   22.2577   -1.1743    3.3646 H   0  0  0  1  0  0  0  0  0  0  0  0
   22.1436    0.4382    4.5946 C   0  0  0  1  0  0  0  0  0  0  0  0
   22.6989    1.7608    5.0464 C   0  0  0  1  0  0  0  0  0  0  0  0
   21.9104    2.3242    5.5000 H   0  0  0  1  0  0  0  0  0  0  0  0
   23.0664    2.2864    4.1899 H   0  0  0  1  0  0  0  0  0  0  0  0
   21.1219   -0.1615    5.5151 C   0  0  0  1  0  0  0  0  0  0  0  0
   20.1912    0.3537    5.3998 H   0  0  0  1  0  0  0  0  0  0  0  0
   21.4568   -0.0701    6.5272 H   0  0  0  1  0  0  0  0  0  0  0  0
   20.9890   -1.1956    5.2748 H   0  0  0  1  0  0  0  0  0  0  0  0
   23.8317    1.6195    6.0500 C   0  0  0  1  0  0  0  0  0  0  0  0
   24.5500    0.9301    5.6580 H   0  0  0  1  0  0  0  0  0  0  0  0
   23.4304    1.2355    6.9646 H   0  0  0  1  0  0  0  0  0  0  0  0
   24.5272    2.9222    6.3416 C   0  0  0  1  0  0  0  0  0  0  0  0
   23.9161    3.7483    6.5020 H   0  0  0  1  0  0  0  0  0  0  0  0
   25.8373    3.1313    6.4161 C   0  0  0  1  0  0  0  0  0  0  0  0
   26.4555    4.4877    6.5827 C   0  0  0  1  0  0  0  0  0  0  0  0
   27.4723    4.3629    6.8918 H   0  0  0  1  0  0  0  0  0  0  0  0
   25.9149    5.0179    7.3386 H   0  0  0  1  0  0  0  0  0  0  0  0
   26.8203    1.9973    6.3371 C   0  0  0  1  0  0  0  0  0  0  0  0
   27.4651    2.1184    7.1823 H   0  0  0  1  0  0  0  0  0  0  0  0
   27.3817    2.0518    5.4278 H   0  0  0  1  0  0  0  0  0  0  0  0
   26.3115    1.0573    6.3868 H   0  0  0  1  0  0  0  0  0  0  0  0
   26.4358    5.3120    5.3057 C   0  0  0  1  0  0  0  0  0  0  0  0
   25.9592    6.2499    5.5009 H   0  0  0  1  0  0  0  0  0  0  0  0
   25.8878    4.7823    4.5547 H   0  0  0  1  0  0  0  0  0  0  0  0
   27.8351    5.5629    4.8108 C   0  0  0  1  0  0  0  0  0  0  0  0
   28.4346    6.2050    5.3675 H   0  0  0  1  0  0  0  0  0  0  0  0
   28.3611    5.0257    3.7165 C   0  0  0  1  0  0  0  0  0  0  0  0
   27.5802    4.0680    2.8643 C   0  0  0  1  0  0  0  0  0  0  0  0
   26.5539    4.3696    2.8366 H   0  0  0  1  0  0  0  0  0  0  0  0
   27.6514    3.0836    3.2776 H   0  0  0  1  0  0  0  0  0  0  0  0
   27.9786    4.0681    1.8713 H   0  0  0  1  0  0  0  0  0  0  0  0
   29.7596    5.3117    3.2260 C   0  0  0  1  0  0  0  0  0  0  0  0
   29.8235    4.9574    2.2184 H   0  0  0  1  0  0  0  0  0  0  0  0
   30.4735    4.8020    3.8388 H   0  0  0  1  0  0  0  0  0  0  0  0
   29.9497    6.3642    3.2564 H   0  0  0  1  0  0  0  0  0  0  0  0
   16.1965   -5.2090   -1.7844 C   0  0  0  1  0  0  0  0  0  0  0  0
   16.5661   -5.7437   -0.9345 H   0  0  0  1  0  0  0  0  0  0  0  0
   14.8889   -5.8365   -2.2497 C   0  0  0  1  0  0  0  0  0  0  0  0
   15.0617   -6.8482   -2.5521 H   0  0  0  1  0  0  0  0  0  0  0  0
   15.9687   -3.8439   -1.4262 O   0  0  0  1  0  0  0  0  0  0  0  0
   14.3565   -5.0263   -3.4359 C   0  0  0  1  0  0  0  0  0  0  0  0
   13.3754   -5.3775   -3.6789 H   0  0  0  1  0  0  0  0  0  0  0  0
   15.5960   -3.0385   -2.5553 C   0  0  0  1  0  0  0  0  0  0  0  0
   16.3596   -3.0995   -3.3023 H   0  0  0  1  0  0  0  0  0  0  0  0
   14.2815   -3.5394   -3.1350 C   0  0  0  1  0  0  0  0  0  0  0  0
   14.0726   -3.0085   -4.0402 H   0  0  0  1  0  0  0  0  0  0  0  0
   17.1526   -5.2699   -2.8365 O   0  0  0  1  0  0  0  0  0  0  0  0
   13.9372   -5.8131   -1.1843 O   0  0  0  1  0  0  0  0  0  0  0  0
   13.5475   -4.9379   -1.1218 H   0  0  0  1  0  0  0  0  0  0  0  0
   15.2193   -5.2237   -4.5465 O   0  0  0  1  0  0  0  0  0  0  0  0
   15.9167   -4.5641   -4.5318 H   0  0  0  1  0  0  0  0  0  0  0  0
   15.4338   -1.5936   -2.1124 C   0  0  0  1  0  0  0  0  0  0  0  0
   15.9768   -1.4352   -1.2042 H   0  0  0  1  0  0  0  0  0  0  0  0
   14.3971   -1.3852   -1.9487 H   0  0  0  1  0  0  0  0  0  0  0  0
   15.8131   -0.9431   -2.8726 H   0  0  0  1  0  0  0  0  0  0  0  0
   19.3480   -6.3584   -4.4230 C   0  0  0  1  0  0  0  0  0  0  0  0
   18.3799   -6.3177   -4.8768 H   0  0  0  1  0  0  0  0  0  0  0  0
   19.1983   -6.4842   -2.9314 C   0  0  0  1  0  0  0  0  0  0  0  0
   20.1663   -6.5701   -2.4835 H   0  0  0  1  0  0  0  0  0  0  0  0
   20.0608   -5.1743   -4.7245 O   0  0  0  1  0  0  0  0  0  0  0  0
   18.5028   -5.2712   -2.3853 C   0  0  0  1  0  0  0  0  0  0  0  0
   18.5221   -5.3113   -1.3162 H   0  0  0  1  0  0  0  0  0  0  0  0
   19.3137   -4.0029   -4.3505 C   0  0  0  1  0  0  0  0  0  0  0  0
   19.8333   -3.1239   -4.6704 H   0  0  0  1  0  0  0  0  0  0  0  0
   19.1737   -3.9963   -2.8408 C   0  0  0  1  0  0  0  0  0  0  0  0
   18.5813   -3.1567   -2.5425 H   0  0  0  1  0  0  0  0  0  0  0  0
   18.4119   -7.6728   -2.6227 N   0  0  0  1  0  0  0  0  0  0  0  0
   18.0617   -8.2133   -3.3614 H   0  0  0  1  0  0  0  0  0  0  0  0
   20.4684   -3.9024   -2.2447 O   0  0  0  1  0  0  0  0  0  0  0  0
   20.4009   -3.2418   -1.5514 H   0  0  0  1  0  0  0  0  0  0  0  0
   17.9541   -4.0413   -4.9877 C   0  0  0  1  0  0  0  0  0  0  0  0
   17.3939   -3.1745   -4.7054 H   0  0  0  1  0  0  0  0  0  0  0  0
   17.4304   -4.9216   -4.6781 H   0  0  0  1  0  0  0  0  0  0  0  0
   18.1436   -4.0595   -6.3992 O   0  0  0  1  0  0  0  0  0  0  0  0
   17.8058   -4.8923   -6.7368 H   0  0  0  1  0  0  0  0  0  0  0  0
   18.1521   -8.0507   -1.3678 C   0  0  0  1  0  0  0  0  0  0  0  0
   18.4477   -7.4254   -0.3503 O   0  0  0  1  0  0  0  0  0  0  0  0
   17.4198   -9.3845   -1.1981 C   0  0  0  1  0  0  0  0  0  0  0  0
   16.8582   -9.2671   -0.2950 H   0  0  0  1  0  0  0  0  0  0  0  0
   18.1178  -10.1905   -1.1076 H   0  0  0  1  0  0  0  0  0  0  0  0
   16.7690   -9.5671   -2.0276 H   0  0  0  1  0  0  0  0  0  0  0  0
  1  2  1  0  0  0  0
  1  3  1  0  0  0  0
  1  4  1  0  0  0  0
  1 44  1  0  0  0  0
  3 20  1  0  0  0  0
  4  5  1  0  0  0  0
  4  6  1  0  0  0  0
  4  8  1  0  0  0  0
  6  7  1  0  0  0  0
  8  9  1  0  0  0  0
  8 10  1  0  0  0  0
  8 20  1  0  0  0  0
 10 11  1  0  0  0  0
 12 13  1  0  0  0  0
 12 14  1  0  0  0  0
 12 15  1  0  0  0  0
 12 17  1  0  0  0  0
 15 16  1  0  0  0  0
 17 18  1  0  0  0  0
 17 19  1  0  0  0  0
 17 20  1  0  0  0  0
 19 22  1  0  0  0  0
 20 21  1  0  0  0  0
 22 23  1  0  0  0  0
 22 24  1  0  0  0  0
 22 25  1  0  0  0  0
 24 42  1  0  0  0  0
 25 26  1  0  0  0  0
 25 27  1  0  0  0  0
 25 29  1  0  0  0  0
 27 28  1  0  0  0  0
 29 30  1  0  0  0  0
 29 31  1  0  0  0  0
 29 42  1  0  0  0  0
 31 32  1  0  0  0  0
 33 34  1  0  0  0  0
 33 35  1  0  0  0  0
 33 36  1  0  0  0  0
 33 38  1  0  0  0  0
 36 37  1  0  0  0  0
 38 39  1  0  0  0  0
 38 40  1  0  0  0  0
 38 42  1  0  0  0  0
 40 41  1  0  0  0  0
 42 43  1  0  0  0  0
 44194  1  0  0  0  0
 45 46  1  0  0  0  0
 45 54  1  0  0  0  0
 46 47  1  0  0  0  0
 46 48  1  0  0  0  0
 46 49  2  0  0  0  0
 47 50  1  0  0  0  0
 50 51  1  0  0  0  0
 50 52  1  0  0  0  0
 50 53  2  0  0  0  0
 51205  1  0  0  0  0
 54 55  1  0  0  0  0
 54 56  1  0  0  0  0
 54 57  1  0  0  0  0
 57 58  1  0  0  0  0
 57 59  2  0  0  0  0
 59 60  1  0  0  0  0
 59 64  1  0  0  0  0
 60 61  1  0  0  0  0
 60 62  1  0  0  0  0
 60 63  1  0  0  0  0
 64 65  1  0  0  0  0
 64 66  1  0  0  0  0
 64 67  1  0  0  0  0
 67 68  1  0  0  0  0
 67 69  1  0  0  0  0
 67 70  1  0  0  0  0
 70 71  1  0  0  0  0
 70 72  2  0  0  0  0
 72 73  1  0  0  0  0
 72 77  1  0  0  0  0
 73 74  1  0  0  0  0
 73 75  1  0  0  0  0
 73 76  1  0  0  0  0
 77 78  1  0  0  0  0
 77 79  1  0  0  0  0
 77 80  1  0  0  0  0
 80 81  1  0  0  0  0
 80 82  1  0  0  0  0
 80 83  1  0  0  0  0
 83 84  1  0  0  0  0
 83 85  2  0  0  0  0
 85 86  1  0  0  0  0
 85 89  1  0  0  0  0
 86 87  1  0  0  0  0
 86 88  1  0  0  0  0
 86 93  1  0  0  0  0
 89 90  1  0  0  0  0
 89 91  1  0  0  0  0
 89 92  1  0  0  0  0
 93 94  1  0  0  0  0
 93 95  1  0  0  0  0
 93 96  1  0  0  0  0
 96 97  1  0  0  0  0
 96 98  2  0  0  0  0
 98 99  1  0  0  0  0
 98102  1  0  0  0  0
 99100  1  0  0  0  0
 99101  1  0  0  0  0
 99106  1  0  0  0  0
102103  1  0  0  0  0
102104  1  0  0  0  0
102105  1  0  0  0  0
106107  1  0  0  0  0
106108  1  0  0  0  0
106109  1  0  0  0  0
109110  1  0  0  0  0
109111  2  0  0  0  0
111112  1  0  0  0  0
111115  1  0  0  0  0
112113  1  0  0  0  0
112114  1  0  0  0  0
112119  1  0  0  0  0
115116  1  0  0  0  0
115117  1  0  0  0  0
115118  1  0  0  0  0
119120  1  0  0  0  0
119121  1  0  0  0  0
119122  1  0  0  0  0
122123  1  0  0  0  0
122124  2  0  0  0  0
124125  1  0  0  0  0
124128  1  0  0  0  0
125126  1  0  0  0  0
125127  1  0  0  0  0
125132  1  0  0  0  0
128129  1  0  0  0  0
128130  1  0  0  0  0
128131  1  0  0  0  0
132133  1  0  0  0  0
132134  1  0  0  0  0
132135  1  0  0  0  0
135136  1  0  0  0  0
135137  2  0  0  0  0
137138  1  0  0  0  0
137141  1  0  0  0  0
138139  1  0  0  0  0
138140  1  0  0  0  0
138145  1  0  0  0  0
141142  1  0  0  0  0
141143  1  0  0  0  0
141144  1  0  0  0  0
145146  1  0  0  0  0
145147  1  0  0  0  0
145148  1  0  0  0  0
148149  1  0  0  0  0
148150  2  0  0  0  0
150151  1  0  0  0  0
150154  1  0  0  0  0
151152  1  0  0  0  0
151153  1  0  0  0  0
151158  1  0  0  0  0
154155  1  0  0  0  0
154156  1  0  0  0  0
154157  1  0  0  0  0
158159  1  0  0  0  0
158160  1  0  0  0  0
158161  1  0  0  0  0
161162  1  0  0  0  0
161163  2  0  0  0  0
163164  1  0  0  0  0
163167  1  0  0  0  0
164165  1  0  0  0  0
164166  1  0  0  0  0
164171  1  0  0  0  0
167168  1  0  0  0  0
167169  1  0  0  0  0
167170  1  0  0  0  0
171172  1  0  0  0  0
171173  1  0  0  0  0
171174  1  0  0  0  0
174175  1  0  0  0  0
174176  2  0  0  0  0
176177  1  0  0  0  0
176181  1  0  0  0  0
177178  1  0  0  0  0
177179  1  0  0  0  0
177180  1  0  0  0  0
181182  1  0  0  0  0
181183  1  0  0  0  0
181184  1  0  0  0  0
185186  1  0  0  0  0
185187  1  0  0  0  0
185189  1  0  0  0  0
185196  1  0  0  0  0
187188  1  0  0  0  0
187190  1  0  0  0  0
187197  1  0  0  0  0
189192  1  0  0  0  0
190191  1  0  0  0  0
190194  1  0  0  0  0
190199  1  0  0  0  0
192193  1  0  0  0  0
192194  1  0  0  0  0
192201  1  0  0  0  0
194195  1  0  0  0  0
196210  1  0  0  0  0
197198  1  0  0  0  0
199200  1  0  0  0  0
201202  1  0  0  0  0
201203  1  0  0  0  0
201204  1  0  0  0  0
205206  1  0  0  0  0
205207  1  0  0  0  0
205209  1  0  0  0  0
207208  1  0  0  0  0
207210  1  0  0  0  0
207216  1  0  0  0  0
209212  1  0  0  0  0
210211  1  0  0  0  0
210214  1  0  0  0  0
212213  1  0  0  0  0
212214  1  0  0  0  0
212220  1  0  0  0  0
214215  1  0  0  0  0
214218  1  0  0  0  0
216217  1  0  0  0  0
216225  1  0  0  0  0
218219  1  0  0  0  0
220221  1  0  0  0  0
220222  1  0  0  0  0
220223  1  0  0  0  0
223224  1  0  0  0  0
225226  2  0  0  0  0
225227  1  0  0  0  0
227228  1  0  0  0  0
227229  1  0  0  0  0
227230  1  0  0  0  0
M  BCL ATM C_TeTeTeTe H_S O_Te2Te2TeTe C_TeTeTeTe H_S O_Te2Te2TeTe H_S C_TeTeTeTe H_S O_Te2Te2TeTe H_S C_TeTeTeTe H_S H_S O_Te2Te2TeTe H_S C_TeTeTeTe H_S O_Te2Te2TeTe C_TeTeTeTe H_S C_TeTeTeTe H_S O_Te2Te2TeTe C_TeTeTeTe H_S O_Te2Te2TeTe H_S C_TeTeTeTe H_S O_Te2Te2TeTe H_S C_TeTeTeTe H_S H_S O_Te2Te2TeTe H_S C_TeTeTeTe H_S O_Te2Te2TeTe H_S C_TeTeTeTe H_S O_Te2Te2TeTe O_Tr2TrTrPi2 P_TeTeTeTePi O_Tr2TrTrPi2 O_Te2Te2TeTe O_Tr2Tr2TrPi P_TeTeTeTePi O_Tr2TrTrPi2 O_Te2Te2TeTe O_Tr2Tr2TrPi C_TeTeTeTe H_S H_S C_TrTrTrPi H_S C_TrTrTrPi C_TeTeTeTe H_S H_S H_S C_TeTeTeTe H_S H_S C_TeTeTeTe H_S H_S C_TrTrTrPi H_S C_TrTrTrPi C_TeTeTeTe H_S H_S H_S C_TeTeTeTe H_S H_S C_TeTeTeTe H_S H_S C_TrTrTrPi H_S C_TrTrTrPi C_TeTeTeTe H_S H_S C_TeTeTeTe H_S H_S H_S C_TeTeTeTe H_S H_S C_TrTrTrPi H_S C_TrTrTrPi C_TeTeTeTe H_S H_S C_TeTeTeTe H_S H_S H_S C_TeTeTeTe H_S H_S C_TrTrTrPi H_S C_TrTrTrPi C_TeTeTeTe H_S H_S C_TeTeTeTe H_S H_S H_S C_TeTeTeTe H_S H_S C_TrTrTrPi H_S C_TrTrTrPi C_TeTeTeTe H_S H_S C_TeTeTeTe H_S H_S H_S C_TeTeTeTe H_S H_S C_TrTrTrPi H_S C_TrTrTrPi C_TeTeTeTe H_S H_S C_TeTeTeTe H_S H_S H_S C_TeTeTeTe H_S H_S C_TrTrTrPi H_S C_TrTrTrPi C_TeTeTeTe H_S H_S C_TeTeTeTe H_S H_S H_S C_TeTeTeTe H_S H_S C_TrTrTrPi H_S C_TrTrTrPi C_TeTeTeTe H_S H_S C_TeTeTeTe H_S H_S H_S C_TeTeTeTe H_S H_S C_TrTrTrPi H_S C_TrTrTrPi C_TeTeTeTe H_S H_S H_S C_TeTeTeTe H_S H_S H_S C_TeTeTeTe H_S C_TeTeTeTe H_S O_Te2Te2TeTe C_TeTeTeTe H_S C_TeTeTeTe H_S C_TeTeTeTe H_S O_Te2Te2TeTe O_Te2Te2TeTe H_S O_Te2Te2TeTe H_S C_TeTeTeTe H_S H_S H_S C_TeTeTeTe H_S C_TeTeTeTe H_S O_Te2Te2TeTe C_TeTeTeTe H_S C_TeTeTeTe H_S C_TeTeTeTe H_S N_TrTrTrPi2 H_S O_Te2Te2TeTe H_S C_TeTeTeTe H_S H_S O_Te2Te2TeTe H_S C_TrTrTrPi O_Tr2Tr2TrPi C_TeTeTeTe H_S H_S H_S
M  BCL BND NonConjugatedSingleBond NonConjugatedSingleBondInRing NonConjugatedSingleBondInRing NonConjugatedSingleBond NonConjugatedSingleBondInRing NonConjugatedSingleBond NonConjugatedSingleBond NonConjugatedSingleBondInRing NonConjugatedSingleBond NonConjugatedSingleBond NonConjugatedSingleBond NonConjugatedSingleBondInRing NonConjugatedSingleBond NonConjugatedSingleBond NonConjugatedSingleBond NonConjugatedSingleBond NonConjugatedSingleBond NonConjugatedSingleBond NonConjugatedSingleBond NonConjugatedSingleBond NonConjugatedSingleBond NonConjugatedSingleBond NonConjugatedSingleBond NonConjugatedSingleBond NonConjugatedSingleBondInRing NonConjugatedSingleBondInRing NonConjugatedSingleBondInRing NonConjugatedSingleBond NonConjugatedSingleBond NonConjugatedSingleBondInRing NonConjugatedSingleBond NonConjugatedSingleBond NonConjugatedSingleBond NonConjugatedSingleBondInRing NonConjugatedSingleBond NonConjugatedSingleBond NonConjugatedSingleBond NonConjugatedSingleBond NonConjugatedSingleBond NonConjugatedSingleBond NonConjugatedSingleBond NonConjugatedSingleBond NonConjugatedSingleBond NonConjugatedSingleBond NonConjugatedSingleBond NonConjugatedSingleBond ConjugatedSingleBond NonConjugatedSingleBond ConjugatedSingleBond ConjugatedSingleBond ConjugatedDoubleBond ConjugatedSingleBond ConjugatedSingleBond ConjugatedSingleBond ConjugatedDoubleBond NonConjugatedSingleBond NonConjugatedSingleBond NonConjugatedSingleBond NonConjugatedSingleBond NonConjugatedSingleBond ConjugatedDoubleBond NonConjugatedSingleBond NonConjugatedSingleBond NonConjugatedSingleBond NonConjugatedSingleBond NonConjugatedSingleBond NonConjugatedSingleBond NonConjugatedSingleBond NonConjugatedSingleBond NonConjugatedSingleBond NonConjugatedSingleBond NonConjugatedSingleBond NonConjugatedSingleBond ConjugatedDoubleBond NonConjugatedSingleBond NonConjugatedSingleBond NonConjugatedSingleBond NonConjugatedSingleBond NonConjugatedSingleBond NonConjugatedSingleBond NonConjugatedSingleBond NonConjugatedSingleBond NonConjugatedSingleBond NonConjugatedSingleBond NonConjugatedSingleBond NonConjugatedSingleBond ConjugatedDoubleBond NonConjugatedSingleBond NonConjugatedSingleBond NonConjugatedSingleBond NonConjugatedSingleBond NonConjugatedSingleBond NonConjugatedSingleBond NonConjugatedSingleBond NonConjugatedSingleBond NonConjugatedSingleBond NonConjugatedSingleBond NonConjugatedSingleBond NonConjugatedSingleBond ConjugatedDoubleBond NonConjugatedSingleBond NonConjugatedSingleBond NonConjugatedSingleBond NonConjugatedSingleBond NonConjugatedSingleBond NonConjugatedSingleBond NonConjugatedSingleBond NonConjugatedSingleBond NonConjugatedSingleBond NonConjugatedSingleBond NonConjugatedSingleBond NonConjugatedSingleBond ConjugatedDoubleBond NonConjugatedSingleBond NonConjugatedSingleBond NonConjugatedSingleBond NonConjugatedSingleBond NonConjugatedSingleBond NonConjugatedSingleBond NonConjugatedSingleBond NonConjugatedSingleBond NonConjugatedSingleBond NonConjugatedSingleBond NonConjugatedSingleBond NonConjugatedSingleBond ConjugatedDoubleBond NonConjugatedSingleBond NonConjugatedSingleBond NonConjugatedSingleBond NonConjugatedSingleBond NonConjugatedSingleBond NonConjugatedSingleBond NonConjugatedSingleBond NonConjugatedSingleBond NonConjugatedSingleBond NonConjugatedSingleBond NonConjugatedSingleBond NonConjugatedSingleBond ConjugatedDoubleBond NonConjugatedSingleBond NonConjugatedSingleBond NonConjugatedSingleBond NonConjugatedSingleBond NonConjugatedSingleBond NonConjugatedSingleBond NonConjugatedSingleBond NonConjugatedSingleBond NonConjugatedSingleBond NonConjugatedSingleBond NonConjugatedSingleBond NonConjugatedSingleBond ConjugatedDoubleBond NonConjugatedSingleBond NonConjugatedSingleBond NonConjugatedSingleBond NonConjugatedSingleBond NonConjugatedSingleBond NonConjugatedSingleBond NonConjugatedSingleBond NonConjugatedSingleBond NonConjugatedSingleBond NonConjugatedSingleBond NonConjugatedSingleBond NonConjugatedSingleBond ConjugatedDoubleBond NonConjugatedSingleBond NonConjugatedSingleBond NonConjugatedSingleBond NonConjugatedSingleBond NonConjugatedSingleBond NonConjugatedSingleBond NonConjugatedSingleBond NonConjugatedSingleBond NonConjugatedSingleBond NonConjugatedSingleBond NonConjugatedSingleBond NonConjugatedSingleBond ConjugatedDoubleBond NonConjugatedSingleBond NonConjugatedSingleBond NonConjugatedSingleBond NonConjugatedSingleBond NonConjugatedSingleBond NonConjugatedSingleBond NonConjugatedSingleBond NonConjugatedSingleBond NonConjugatedSingleBond NonConjugatedSingleBondInRing NonConjugatedSingleBondInRing NonConjugatedSingleBond NonConjugatedSingleBond NonConjugatedSingleBondInRing NonConjugatedSingleBond NonConjugatedSingleBondInRing NonConjugatedSingleBond NonConjugatedSingleBondInRing NonConjugatedSingleBond NonConjugatedSingleBond NonConjugatedSingleBondInRing NonConjugatedSingleBond NonConjugatedSingleBond NonConjugatedSingleBond NonConjugatedSingleBond NonConjugatedSingleBond NonConjugatedSingleBond NonConjugatedSingleBond NonConjugatedSingleBond NonConjugatedSingleBond NonConjugatedSingleBondInRing NonConjugatedSingleBondInRing NonConjugatedSingleBond NonConjugatedSingleBondInRing NonConjugatedSingleBond NonConjugatedSingleBondInRing NonConjugatedSingleBond NonConjugatedSingleBondInRing NonConjugatedSingleBond NonConjugatedSingleBondInRing NonConjugatedSingleBond NonConjugatedSingleBond NonConjugatedSingleBond NonConjugatedSingleBond AmideSingleBond NonConjugatedSingleBond NonConjugatedSingleBond NonConjugatedSingleBond NonConjugatedSingleBond NonConjugatedSingleBond ConjugatedDoubleBond NonConjugatedSingleBond NonConjugatedSingleBond NonConjugatedSingleBond NonConjugatedSingleBond
M  BCL CHI   1   R   4   R   8   R  17   S  20   R  22   S  25   R  29   S  38   S  42   R  46   R  50   S 185   R 187   S 190   S 192   R 194   R 205   R 207   S 210   R 212   S 214   S
M  BCL DBI - - E E E E E E E E Z - -
M  END
> <ConfClashScore>
0.00656692 

> <ConfOneFourInteractionScore>
-0.971175 

> <ConfScore>
0.831883 

> <ConfScorePBest>
0.0107725 

> <ConfTolerance>
3.2695 

$$$$
L05.****
  PyMOL2.5          3D                             0

230233  0  0  0  0  0  0  0  0999 V2000
   12.0095   -2.9128   -2.6989 C   0  0  0  1  0  0  0  0  0  0  0  0
   11.7543   -3.6455   -3.4357 H   0  0  0  1  0  0  0  0  0  0  0  0
   12.0607   -1.6266   -3.2796 O   0  0  0  1  0  0  0  0  0  0  0  0
   10.9312   -2.8347   -1.6333 C   0  0  0  1  0  0  0  0  0  0  0  0
   11.1185   -3.5294   -0.8414 H   0  0  0  1  0  0  0  0  0  0  0  0
    9.6380   -3.0808   -2.1876 O   0  0  0  1  0  0  0  0  0  0  0  0
    9.1826   -2.2463   -2.3215 H   0  0  0  1  0  0  0  0  0  0  0  0
   11.0565   -1.4122   -1.1518 C   0  0  0  1  0  0  0  0  0  0  0  0
   10.1493   -1.0726   -0.6973 H   0  0  0  1  0  0  0  0  0  0  0  0
   12.1359   -1.2679   -0.2275 O   0  0  0  1  0  0  0  0  0  0  0  0
   11.9180   -0.5902    0.4165 H   0  0  0  1  0  0  0  0  0  0  0  0
   10.2428    0.7521   -4.2441 C   0  0  0  1  0  0  0  0  0  0  0  0
   10.4342    1.7056   -3.7979 H   0  0  0  1  0  0  0  0  0  0  0  0
   11.0921    0.4507   -4.8209 H   0  0  0  1  0  0  0  0  0  0  0  0
    9.1429    0.8879   -5.1182 O   0  0  0  1  0  0  0  0  0  0  0  0
    9.3307    0.4334   -5.9426 H   0  0  0  1  0  0  0  0  0  0  0  0
   10.0429   -0.2621   -3.1286 C   0  0  0  1  0  0  0  0  0  0  0  0
    9.5875   -1.1360   -3.5453 H   0  0  0  1  0  0  0  0  0  0  0  0
    9.2104    0.2696   -2.1043 O   0  0  0  1  0  0  0  0  0  0  0  0
   11.3376   -0.6702   -2.4577 C   0  0  0  1  0  0  0  0  0  0  0  0
   11.9353    0.1985   -2.2764 H   0  0  0  1  0  0  0  0  0  0  0  0
    8.1993   -0.5861   -1.6101 C   0  0  0  1  0  0  0  0  0  0  0  0
    8.3103   -1.5579   -2.0439 H   0  0  0  1  0  0  0  0  0  0  0  0
    8.2607   -0.6641   -0.1681 O   0  0  0  1  0  0  0  0  0  0  0  0
    6.8126   -0.0144   -1.9196 C   0  0  0  1  0  0  0  0  0  0  0  0
    6.3893   -0.4812   -2.7844 H   0  0  0  1  0  0  0  0  0  0  0  0
    6.8743    1.3982   -2.1224 O   0  0  0  1  0  0  0  0  0  0  0  0
    7.2130    1.8212   -1.3299 H   0  0  0  1  0  0  0  0  0  0  0  0
    6.0202   -0.3486   -0.6830 C   0  0  0  1  0  0  0  0  0  0  0  0
    5.6225   -1.3405   -0.7361 H   0  0  0  1  0  0  0  0  0  0  0  0
    4.9655    0.5732   -0.4888 O   0  0  0  1  0  0  0  0  0  0  0  0
    4.7100    0.9504   -1.3337 H   0  0  0  1  0  0  0  0  0  0  0  0
    7.8657   -1.2940    2.5734 C   0  0  0  1  0  0  0  0  0  0  0  0
    8.5799   -1.9804    2.1688 H   0  0  0  1  0  0  0  0  0  0  0  0
    8.3386   -0.3513    2.7537 H   0  0  0  1  0  0  0  0  0  0  0  0
    7.3317   -1.8081    3.7850 O   0  0  0  1  0  0  0  0  0  0  0  0
    7.6347   -2.7103    3.9114 H   0  0  0  1  0  0  0  0  0  0  0  0
    6.7080   -1.1171    1.6028 C   0  0  0  1  0  0  0  0  0  0  0  0
    5.8978   -0.6578    2.1296 H   0  0  0  1  0  0  0  0  0  0  0  0
    6.2709   -2.3487    1.0401 O   0  0  0  1  0  0  0  0  0  0  0  0
    6.3346   -3.0430    1.7001 H   0  0  0  1  0  0  0  0  0  0  0  0
    7.0698   -0.2318    0.4317 C   0  0  0  1  0  0  0  0  0  0  0  0
    7.1587    0.7814    0.7640 H   0  0  0  1  0  0  0  0  0  0  0  0
   13.2642   -3.2444   -2.1134 O   0  0  0  1  0  0  0  0  0  0  0  0
   21.0477   -4.7674   -9.2971 O   0  0  0  1  0  0  0  0  0  0  0  0
   21.9231   -5.0177   -8.0914 P   0  0  0  1  0  0  0  0  0  0  0  0
   21.0546   -5.8334   -7.0203 O   0  0  0  1  0  0  0  0  0  0  0  0
   22.2192   -3.7373   -7.3267 O   0  0  0  0  0  0  0  0  0  0  0  0
   23.1473   -5.8547   -8.3660 O   0  0  0  1  0  0  0  0  0  0  0  0
   20.0909   -7.1285   -6.8944 P   0  0  0  1  0  0  0  0  0  0  0  0
   19.7812   -7.2468   -5.3635 O   0  0  0  1  0  0  0  0  0  0  0  0
   20.9219   -8.2618   -7.3712 O   0  0  0  0  0  0  0  0  0  0  0  0
   18.7652   -6.9085   -7.5388 O   0  0  0  1  0  0  0  0  0  0  0  0
   19.7198   -4.2405   -9.1464 C   0  0  0  1  0  0  0  0  0  0  0  0
   19.7076   -3.5131   -8.3617 H   0  0  0  1  0  0  0  0  0  0  0  0
   19.0421   -5.0336   -8.9088 H   0  0  0  1  0  0  0  0  0  0  0  0
   19.3113   -3.5967  -10.4386 C   0  0  0  1  0  0  0  0  0  0  0  0
   19.3690   -4.1902  -11.2908 H   0  0  0  1  0  0  0  0  0  0  0  0
   18.8822   -2.3458  -10.6131 C   0  0  0  1  0  0  0  0  0  0  0  0
   18.8283   -1.7405  -12.0045 C   0  0  0  1  0  0  0  0  0  0  0  0
   18.1121   -0.9456  -12.0206 H   0  0  0  1  0  0  0  0  0  0  0  0
   18.5419   -2.4926  -12.7096 H   0  0  0  1  0  0  0  0  0  0  0  0
   19.7928   -1.3565  -12.2637 H   0  0  0  1  0  0  0  0  0  0  0  0
   18.5360   -1.4723   -9.4388 C   0  0  0  1  0  0  0  0  0  0  0  0
   18.1329   -2.0975   -8.6697 H   0  0  0  1  0  0  0  0  0  0  0  0
   17.7919   -0.7720   -9.7564 H   0  0  0  1  0  0  0  0  0  0  0  0
   19.6953   -0.6881   -8.8460 C   0  0  0  1  0  0  0  0  0  0  0  0
   20.2693   -0.2439   -9.6322 H   0  0  0  1  0  0  0  0  0  0  0  0
   20.3190   -1.3435   -8.2748 H   0  0  0  1  0  0  0  0  0  0  0  0
   19.1399    0.3891   -7.9531 C   0  0  0  1  0  0  0  0  0  0  0  0
   18.7686    0.0816   -7.0315 H   0  0  0  1  0  0  0  0  0  0  0  0
   19.0726    1.6890   -8.2144 C   0  0  0  1  0  0  0  0  0  0  0  0
   18.3435    2.6320   -7.3018 C   0  0  0  1  0  0  0  0  0  0  0  0
   18.7161    3.6251   -7.4428 H   0  0  0  1  0  0  0  0  0  0  0  0
   18.4971    2.3346   -6.2855 H   0  0  0  1  0  0  0  0  0  0  0  0
   17.2977    2.6084   -7.5267 H   0  0  0  1  0  0  0  0  0  0  0  0
   19.6995    2.3356   -9.4143 C   0  0  0  1  0  0  0  0  0  0  0  0
   20.2749    1.5997   -9.9360 H   0  0  0  1  0  0  0  0  0  0  0  0
   20.3439    3.1216   -9.0799 H   0  0  0  1  0  0  0  0  0  0  0  0
   18.6789    2.9226  -10.3756 C   0  0  0  1  0  0  0  0  0  0  0  0
   18.1383    3.7020   -9.8805 H   0  0  0  1  0  0  0  0  0  0  0  0
   17.9995    2.1536  -10.6787 H   0  0  0  1  0  0  0  0  0  0  0  0
   19.3533    3.4861  -11.5860 C   0  0  0  1  0  0  0  0  0  0  0  0
   20.2192    4.0376  -11.4198 H   0  0  0  1  0  0  0  0  0  0  0  0
   18.9661    3.3583  -12.8507 C   0  0  0  1  0  0  0  0  0  0  0  0
   17.7408    2.5967  -13.2754 C   0  0  0  1  0  0  0  0  0  0  0  0
   17.9096    1.5547  -13.1001 H   0  0  0  1  0  0  0  0  0  0  0  0
   17.5822    2.7620  -14.3206 H   0  0  0  1  0  0  0  0  0  0  0  0
   19.7409    3.9791  -13.9755 C   0  0  0  1  0  0  0  0  0  0  0  0
   20.2043    4.8814  -13.6347 H   0  0  0  1  0  0  0  0  0  0  0  0
   19.0774    4.2027  -14.7845 H   0  0  0  1  0  0  0  0  0  0  0  0
   20.4937    3.2959  -14.3093 H   0  0  0  1  0  0  0  0  0  0  0  0
   16.4882    3.0169  -12.5237 C   0  0  0  1  0  0  0  0  0  0  0  0
   16.2746    4.0380  -12.7618 H   0  0  0  1  0  0  0  0  0  0  0  0
   16.6746    2.9264  -11.4739 H   0  0  0  1  0  0  0  0  0  0  0  0
   15.2845    2.1821  -12.8703 C   0  0  0  1  0  0  0  0  0  0  0  0
   15.3206    1.1680  -12.6429 H   0  0  0  1  0  0  0  0  0  0  0  0
   14.1803    2.6441  -13.4448 C   0  0  0  1  0  0  0  0  0  0  0  0
   14.0374    4.0946  -13.8095 C   0  0  0  1  0  0  0  0  0  0  0  0
   15.0149    4.5295  -13.8229 H   0  0  0  1  0  0  0  0  0  0  0  0
   13.4461    4.5683  -13.0539 H   0  0  0  1  0  0  0  0  0  0  0  0
   12.9918    1.7919  -13.7814 C   0  0  0  1  0  0  0  0  0  0  0  0
   12.0933    2.3226  -13.5447 H   0  0  0  1  0  0  0  0  0  0  0  0
   13.0306    0.8858  -13.2136 H   0  0  0  1  0  0  0  0  0  0  0  0
   13.0040    1.5598  -14.8258 H   0  0  0  1  0  0  0  0  0  0  0  0
   13.3846    4.3669  -15.1549 C   0  0  0  1  0  0  0  0  0  0  0  0
   13.8816    3.7807  -15.8995 H   0  0  0  1  0  0  0  0  0  0  0  0
   13.4975    5.4059  -15.3842 H   0  0  0  1  0  0  0  0  0  0  0  0
   11.9341    4.0314  -15.1780 C   0  0  0  1  0  0  0  0  0  0  0  0
   11.3298    4.3253  -14.3842 H   0  0  0  1  0  0  0  0  0  0  0  0
   11.3977    3.3642  -16.1928 C   0  0  0  1  0  0  0  0  0  0  0  0
   12.1803    2.8926  -17.3891 C   0  0  0  1  0  0  0  0  0  0  0  0
   13.2013    3.1808  -17.2501 H   0  0  0  1  0  0  0  0  0  0  0  0
   11.7859    3.3816  -18.2552 H   0  0  0  1  0  0  0  0  0  0  0  0
    9.9368    3.0225  -16.2233 C   0  0  0  1  0  0  0  0  0  0  0  0
    9.7987    2.0895  -16.7287 H   0  0  0  1  0  0  0  0  0  0  0  0
    9.4018    3.7909  -16.7411 H   0  0  0  1  0  0  0  0  0  0  0  0
    9.5683    2.9434  -15.2219 H   0  0  0  1  0  0  0  0  0  0  0  0
   12.1462    1.3939  -17.6404 C   0  0  0  1  0  0  0  0  0  0  0  0
   11.1338    1.1030  -17.8281 H   0  0  0  1  0  0  0  0  0  0  0  0
   12.5052    0.8936  -16.7653 H   0  0  0  1  0  0  0  0  0  0  0  0
   12.9902    0.9737  -18.8122 C   0  0  0  1  0  0  0  0  0  0  0  0
   13.9595    1.3492  -18.8438 H   0  0  0  1  0  0  0  0  0  0  0  0
   12.6317    0.1747  -19.8115 C   0  0  0  1  0  0  0  0  0  0  0  0
   11.2072   -0.1974  -20.1114 C   0  0  0  1  0  0  0  0  0  0  0  0
   11.1987   -0.7683  -21.0164 H   0  0  0  1  0  0  0  0  0  0  0  0
   10.6529    0.7066  -20.2542 H   0  0  0  1  0  0  0  0  0  0  0  0
   13.6484   -0.4304  -20.7381 C   0  0  0  1  0  0  0  0  0  0  0  0
   14.5407   -0.6547  -20.1918 H   0  0  0  1  0  0  0  0  0  0  0  0
   13.8746    0.2631  -21.5209 H   0  0  0  1  0  0  0  0  0  0  0  0
   13.2539   -1.3305  -21.1613 H   0  0  0  1  0  0  0  0  0  0  0  0
   10.5066   -1.0123  -19.0365 C   0  0  0  1  0  0  0  0  0  0  0  0
   10.6015   -0.4866  -18.1094 H   0  0  0  1  0  0  0  0  0  0  0  0
   11.0022   -1.9578  -18.9634 H   0  0  0  1  0  0  0  0  0  0  0  0
    9.0331   -1.2742  -19.2767 C   0  0  0  1  0  0  0  0  0  0  0  0
    8.3868   -0.4605  -19.3185 H   0  0  0  1  0  0  0  0  0  0  0  0
    8.5362   -2.4691  -19.4335 C   0  0  0  1  0  0  0  0  0  0  0  0
    9.2793   -3.7247  -19.0805 C   0  0  0  1  0  0  0  0  0  0  0  0
    8.6833   -4.3085  -18.4105 H   0  0  0  1  0  0  0  0  0  0  0  0
   10.2013   -3.4644  -18.6040 H   0  0  0  1  0  0  0  0  0  0  0  0
    7.1643   -2.6488  -20.1054 C   0  0  0  1  0  0  0  0  0  0  0  0
    6.3925   -2.5682  -19.3687 H   0  0  0  1  0  0  0  0  0  0  0  0
    7.1171   -3.6129  -20.5670 H   0  0  0  1  0  0  0  0  0  0  0  0
    7.0290   -1.8903  -20.8478 H   0  0  0  1  0  0  0  0  0  0  0  0
    9.5760   -4.5436  -20.3262 C   0  0  0  1  0  0  0  0  0  0  0  0
    9.9584   -3.8889  -21.0811 H   0  0  0  1  0  0  0  0  0  0  0  0
    8.6641   -4.9877  -20.6670 H   0  0  0  1  0  0  0  0  0  0  0  0
   10.5807   -5.6369  -20.0870 C   0  0  0  1  0  0  0  0  0  0  0  0
   11.5410   -5.4717  -20.4505 H   0  0  0  1  0  0  0  0  0  0  0  0
   10.3746   -6.7901  -19.4622 C   0  0  0  1  0  0  0  0  0  0  0  0
    8.9855   -7.2927  -19.1875 C   0  0  0  1  0  0  0  0  0  0  0  0
    8.3050   -6.7864  -19.8398 H   0  0  0  1  0  0  0  0  0  0  0  0
    8.7378   -7.0704  -18.1706 H   0  0  0  1  0  0  0  0  0  0  0  0
   11.4747   -7.6886  -18.9777 C   0  0  0  1  0  0  0  0  0  0  0  0
   11.0521   -8.5182  -18.4503 H   0  0  0  1  0  0  0  0  0  0  0  0
   12.1197   -7.1410  -18.3227 H   0  0  0  1  0  0  0  0  0  0  0  0
   12.0366   -8.0472  -19.8147 H   0  0  0  1  0  0  0  0  0  0  0  0
    8.8403   -8.7901  -19.4046 C   0  0  0  1  0  0  0  0  0  0  0  0
    9.6218   -9.2890  -18.8706 H   0  0  0  1  0  0  0  0  0  0  0  0
    8.9362   -8.9934  -20.4507 H   0  0  0  1  0  0  0  0  0  0  0  0
    7.5180   -9.3284  -18.9316 C   0  0  0  1  0  0  0  0  0  0  0  0
    6.6711   -8.7530  -19.1140 H   0  0  0  1  0  0  0  0  0  0  0  0
    7.3513  -10.4834  -18.2985 C   0  0  0  1  0  0  0  0  0  0  0  0
    5.9914  -10.9446  -17.8610 C   0  0  0  1  0  0  0  0  0  0  0  0
    5.4644  -11.3113  -18.7170 H   0  0  0  1  0  0  0  0  0  0  0  0
    5.4651  -10.1095  -17.4482 H   0  0  0  1  0  0  0  0  0  0  0  0
    8.4731  -11.4252  -17.9620 C   0  0  0  1  0  0  0  0  0  0  0  0
    8.5476  -11.4113  -16.8947 H   0  0  0  1  0  0  0  0  0  0  0  0
    9.3878  -11.0904  -18.4049 H   0  0  0  1  0  0  0  0  0  0  0  0
    8.2489  -12.4124  -18.3083 H   0  0  0  1  0  0  0  0  0  0  0  0
    6.0443  -12.0475  -16.8164 C   0  0  0  1  0  0  0  0  0  0  0  0
    6.5486  -11.6826  -15.9461 H   0  0  0  1  0  0  0  0  0  0  0  0
    6.5800  -12.8834  -17.2155 H   0  0  0  1  0  0  0  0  0  0  0  0
    4.6652  -12.4850  -16.4367 C   0  0  0  1  0  0  0  0  0  0  0  0
    4.2524  -13.2566  -16.9987 H   0  0  0  1  0  0  0  0  0  0  0  0
    3.9110  -11.9950  -15.4601 C   0  0  0  1  0  0  0  0  0  0  0  0
    2.5666  -12.5824  -15.1425 C   0  0  0  1  0  0  0  0  0  0  0  0
    2.6644  -13.6371  -14.9911 H   0  0  0  1  0  0  0  0  0  0  0  0
    1.8966  -12.3998  -15.9566 H   0  0  0  1  0  0  0  0  0  0  0  0
    2.1805  -12.1289  -14.2536 H   0  0  0  1  0  0  0  0  0  0  0  0
    4.3123  -10.8290  -14.5897 C   0  0  0  1  0  0  0  0  0  0  0  0
    4.2721  -11.1605  -13.5731 H   0  0  0  1  0  0  0  0  0  0  0  0
    3.6351  -10.0135  -14.7355 H   0  0  0  1  0  0  0  0  0  0  0  0
    5.3061  -10.5158  -14.8332 H   0  0  0  1  0  0  0  0  0  0  0  0
   16.1851   -5.1267   -1.7269 C   0  0  0  1  0  0  0  0  0  0  0  0
   16.5074   -5.6319   -0.8405 H   0  0  0  1  0  0  0  0  0  0  0  0
   14.9041   -5.7470   -2.2241 C   0  0  0  1  0  0  0  0  0  0  0  0
   15.0965   -6.7554   -2.5259 H   0  0  0  1  0  0  0  0  0  0  0  0
   15.9534   -3.7507   -1.4348 O   0  0  0  1  0  0  0  0  0  0  0  0
   14.3521   -4.9669   -3.4107 C   0  0  0  1  0  0  0  0  0  0  0  0
   13.3727   -5.3310   -3.6410 H   0  0  0  1  0  0  0  0  0  0  0  0
   15.6029   -2.9681   -2.5912 C   0  0  0  1  0  0  0  0  0  0  0  0
   16.3501   -3.0835   -3.3483 H   0  0  0  1  0  0  0  0  0  0  0  0
   14.2670   -3.4687   -3.1054 C   0  0  0  1  0  0  0  0  0  0  0  0
   14.0103   -2.9390   -3.9990 H   0  0  0  1  0  0  0  0  0  0  0  0
   17.1890   -5.2387   -2.7291 O   0  0  0  1  0  0  0  0  0  0  0  0
   13.9401   -5.7404   -1.1696 O   0  0  0  1  0  0  0  0  0  0  0  0
   14.1152   -6.4700   -0.5707 H   0  0  0  1  0  0  0  0  0  0  0  0
   15.2056   -5.1623   -4.5288 O   0  0  0  1  0  0  0  0  0  0  0  0
   15.1450   -4.4041   -5.1146 H   0  0  0  1  0  0  0  0  0  0  0  0
   15.4924   -1.5113   -2.2102 C   0  0  0  1  0  0  0  0  0  0  0  0
   15.6434   -1.4053   -1.1562 H   0  0  0  1  0  0  0  0  0  0  0  0
   14.5199   -1.1479   -2.4692 H   0  0  0  1  0  0  0  0  0  0  0  0
   16.2355   -0.9482   -2.7351 H   0  0  0  1  0  0  0  0  0  0  0  0
   19.2533   -6.2096   -4.5505 C   0  0  0  1  0  0  0  0  0  0  0  0
   18.3424   -5.8479   -4.9798 H   0  0  0  1  0  0  0  0  0  0  0  0
   18.9808   -6.7430   -3.1705 C   0  0  0  1  0  0  0  0  0  0  0  0
   19.8837   -7.1452   -2.7608 H   0  0  0  1  0  0  0  0  0  0  0  0
   20.1889   -5.1519   -4.4682 O   0  0  0  1  0  0  0  0  0  0  0  0
   18.4820   -5.6371   -2.2864 C   0  0  0  1  0  0  0  0  0  0  0  0
   18.4201   -5.9972   -1.2808 H   0  0  0  1  0  0  0  0  0  0  0  0
   19.6438   -4.0235   -3.7612 C   0  0  0  1  0  0  0  0  0  0  0  0
   20.3357   -3.2078   -3.7916 H   0  0  0  1  0  0  0  0  0  0  0  0
   19.4038   -4.4405   -2.3234 C   0  0  0  1  0  0  0  0  0  0  0  0
   18.9552   -3.6297   -1.7883 H   0  0  0  1  0  0  0  0  0  0  0  0
   17.9745   -7.7898   -3.2480 N   0  0  0  1  0  0  0  0  0  0  0  0
   17.6459   -8.0885   -4.1216 H   0  0  0  1  0  0  0  0  0  0  0  0
   20.6497   -4.7823   -1.7142 O   0  0  0  1  0  0  0  0  0  0  0  0
   21.2835   -4.8804   -2.4286 H   0  0  0  1  0  0  0  0  0  0  0  0
   18.3475   -3.6049   -4.3929 C   0  0  0  1  0  0  0  0  0  0  0  0
   17.6001   -3.4990   -3.6345 H   0  0  0  1  0  0  0  0  0  0  0  0
   18.0386   -4.3489   -5.0973 H   0  0  0  1  0  0  0  0  0  0  0  0
   18.5207   -2.3606   -5.0640 O   0  0  0  1  0  0  0  0  0  0  0  0
   17.8276   -2.2758   -5.7229 H   0  0  0  1  0  0  0  0  0  0  0  0
   17.4928   -8.3497   -2.1212 C   0  0  0  1  0  0  0  0  0  0  0  0
   17.8731   -8.0794   -0.9940 O   0  0  0  1  0  0  0  0  0  0  0  0
   16.4047   -9.3766   -2.3680 C   0  0  0  1  0  0  0  0  0  0  0  0
   16.0902   -9.6720   -1.3889 H   0  0  0  1  0  0  0  0  0  0  0  0
   16.7910  -10.2143   -2.9102 H   0  0  0  1  0  0  0  0  0  0  0  0
   15.5916   -8.9432   -2.9120 H   0  0  0  1  0  0  0  0  0  0  0  0
  1  2  1  0  0  0  0
  1  3  1  0  0  0  0
  1  4  1  0  0  0  0
  1 44  1  0  0  0  0
  3 20  1  0  0  0  0
  4  5  1  0  0  0  0
  4  6  1  0  0  0  0
  4  8  1  0  0  0  0
  6  7  1  0  0  0  0
  8  9  1  0  0  0  0
  8 10  1  0  0  0  0
  8 20  1  0  0  0  0
 10 11  1  0  0  0  0
 12 13  1  0  0  0  0
 12 14  1  0  0  0  0
 12 15  1  0  0  0  0
 12 17  1  0  0  0  0
 15 16  1  0  0  0  0
 17 18  1  0  0  0  0
 17 19  1  0  0  0  0
 17 20  1  0  0  0  0
 19 22  1  0  0  0  0
 20 21  1  0  0  0  0
 22 23  1  0  0  0  0
 22 24  1  0  0  0  0
 22 25  1  0  0  0  0
 24 42  1  0  0  0  0
 25 26  1  0  0  0  0
 25 27  1  0  0  0  0
 25 29  1  0  0  0  0
 27 28  1  0  0  0  0
 29 30  1  0  0  0  0
 29 31  1  0  0  0  0
 29 42  1  0  0  0  0
 31 32  1  0  0  0  0
 33 34  1  0  0  0  0
 33 35  1  0  0  0  0
 33 36  1  0  0  0  0
 33 38  1  0  0  0  0
 36 37  1  0  0  0  0
 38 39  1  0  0  0  0
 38 40  1  0  0  0  0
 38 42  1  0  0  0  0
 40 41  1  0  0  0  0
 42 43  1  0  0  0  0
 44194  1  0  0  0  0
 45 46  1  0  0  0  0
 45 54  1  0  0  0  0
 46 47  1  0  0  0  0
 46 48  1  0  0  0  0
 46 49  2  0  0  0  0
 47 50  1  0  0  0  0
 50 51  1  0  0  0  0
 50 52  1  0  0  0  0
 50 53  2  0  0  0  0
 51205  1  0  0  0  0
 54 55  1  0  0  0  0
 54 56  1  0  0  0  0
 54 57  1  0  0  0  0
 57 58  1  0  0  0  0
 57 59  2  0  0  0  0
 59 60  1  0  0  0  0
 59 64  1  0  0  0  0
 60 61  1  0  0  0  0
 60 62  1  0  0  0  0
 60 63  1  0  0  0  0
 64 65  1  0  0  0  0
 64 66  1  0  0  0  0
 64 67  1  0  0  0  0
 67 68  1  0  0  0  0
 67 69  1  0  0  0  0
 67 70  1  0  0  0  0
 70 71  1  0  0  0  0
 70 72  2  0  0  0  0
 72 73  1  0  0  0  0
 72 77  1  0  0  0  0
 73 74  1  0  0  0  0
 73 75  1  0  0  0  0
 73 76  1  0  0  0  0
 77 78  1  0  0  0  0
 77 79  1  0  0  0  0
 77 80  1  0  0  0  0
 80 81  1  0  0  0  0
 80 82  1  0  0  0  0
 80 83  1  0  0  0  0
 83 84  1  0  0  0  0
 83 85  2  0  0  0  0
 85 86  1  0  0  0  0
 85 89  1  0  0  0  0
 86 87  1  0  0  0  0
 86 88  1  0  0  0  0
 86 93  1  0  0  0  0
 89 90  1  0  0  0  0
 89 91  1  0  0  0  0
 89 92  1  0  0  0  0
 93 94  1  0  0  0  0
 93 95  1  0  0  0  0
 93 96  1  0  0  0  0
 96 97  1  0  0  0  0
 96 98  2  0  0  0  0
 98 99  1  0  0  0  0
 98102  1  0  0  0  0
 99100  1  0  0  0  0
 99101  1  0  0  0  0
 99106  1  0  0  0  0
102103  1  0  0  0  0
102104  1  0  0  0  0
102105  1  0  0  0  0
106107  1  0  0  0  0
106108  1  0  0  0  0
106109  1  0  0  0  0
109110  1  0  0  0  0
109111  2  0  0  0  0
111112  1  0  0  0  0
111115  1  0  0  0  0
112113  1  0  0  0  0
112114  1  0  0  0  0
112119  1  0  0  0  0
115116  1  0  0  0  0
115117  1  0  0  0  0
115118  1  0  0  0  0
119120  1  0  0  0  0
119121  1  0  0  0  0
119122  1  0  0  0  0
122123  1  0  0  0  0
122124  2  0  0  0  0
124125  1  0  0  0  0
124128  1  0  0  0  0
125126  1  0  0  0  0
125127  1  0  0  0  0
125132  1  0  0  0  0
128129  1  0  0  0  0
128130  1  0  0  0  0
128131  1  0  0  0  0
132133  1  0  0  0  0
132134  1  0  0  0  0
132135  1  0  0  0  0
135136  1  0  0  0  0
135137  2  0  0  0  0
137138  1  0  0  0  0
137141  1  0  0  0  0
138139  1  0  0  0  0
138140  1  0  0  0  0
138145  1  0  0  0  0
141142  1  0  0  0  0
141143  1  0  0  0  0
141144  1  0  0  0  0
145146  1  0  0  0  0
145147  1  0  0  0  0
145148  1  0  0  0  0
148149  1  0  0  0  0
148150  2  0  0  0  0
150151  1  0  0  0  0
150154  1  0  0  0  0
151152  1  0  0  0  0
151153  1  0  0  0  0
151158  1  0  0  0  0
154155  1  0  0  0  0
154156  1  0  0  0  0
154157  1  0  0  0  0
158159  1  0  0  0  0
158160  1  0  0  0  0
158161  1  0  0  0  0
161162  1  0  0  0  0
161163  2  0  0  0  0
163164  1  0  0  0  0
163167  1  0  0  0  0
164165  1  0  0  0  0
164166  1  0  0  0  0
164171  1  0  0  0  0
167168  1  0  0  0  0
167169  1  0  0  0  0
167170  1  0  0  0  0
171172  1  0  0  0  0
171173  1  0  0  0  0
171174  1  0  0  0  0
174175  1  0  0  0  0
174176  2  0  0  0  0
176177  1  0  0  0  0
176181  1  0  0  0  0
177178  1  0  0  0  0
177179  1  0  0  0  0
177180  1  0  0  0  0
181182  1  0  0  0  0
181183  1  0  0  0  0
181184  1  0  0  0  0
185186  1  0  0  0  0
185187  1  0  0  0  0
185189  1  0  0  0  0
185196  1  0  0  0  0
187188  1  0  0  0  0
187190  1  0  0  0  0
187197  1  0  0  0  0
189192  1  0  0  0  0
190191  1  0  0  0  0
190194  1  0  0  0  0
190199  1  0  0  0  0
192193  1  0  0  0  0
192194  1  0  0  0  0
192201  1  0  0  0  0
194195  1  0  0  0  0
196210  1  0  0  0  0
197198  1  0  0  0  0
199200  1  0  0  0  0
201202  1  0  0  0  0
201203  1  0  0  0  0
201204  1  0  0  0  0
205206  1  0  0  0  0
205207  1  0  0  0  0
205209  1  0  0  0  0
207208  1  0  0  0  0
207210  1  0  0  0  0
207216  1  0  0  0  0
209212  1  0  0  0  0
210211  1  0  0  0  0
210214  1  0  0  0  0
212213  1  0  0  0  0
212214  1  0  0  0  0
212220  1  0  0  0  0
214215  1  0  0  0  0
214218  1  0  0  0  0
216217  1  0  0  0  0
216225  1  0  0  0  0
218219  1  0  0  0  0
220221  1  0  0  0  0
220222  1  0  0  0  0
220223  1  0  0  0  0
223224  1  0  0  0  0
225226  2  0  0  0  0
225227  1  0  0  0  0
227228  1  0  0  0  0
227229  1  0  0  0  0
227230  1  0  0  0  0
M  BCL ATM C_TeTeTeTe H_S O_Te2Te2TeTe C_TeTeTeTe H_S O_Te2Te2TeTe H_S C_TeTeTeTe H_S O_Te2Te2TeTe H_S C_TeTeTeTe H_S H_S O_Te2Te2TeTe H_S C_TeTeTeTe H_S O_Te2Te2TeTe C_TeTeTeTe H_S C_TeTeTeTe H_S O_Te2Te2TeTe C_TeTeTeTe H_S O_Te2Te2TeTe H_S C_TeTeTeTe H_S O_Te2Te2TeTe H_S C_TeTeTeTe H_S H_S O_Te2Te2TeTe H_S C_TeTeTeTe H_S O_Te2Te2TeTe H_S C_TeTeTeTe H_S O_Te2Te2TeTe O_Tr2TrTrPi2 P_TeTeTeTePi O_Tr2TrTrPi2 O_Te2Te2TeTe O_Tr2Tr2TrPi P_TeTeTeTePi O_Tr2TrTrPi2 O_Te2Te2TeTe O_Tr2Tr2TrPi C_TeTeTeTe H_S H_S C_TrTrTrPi H_S C_TrTrTrPi C_TeTeTeTe H_S H_S H_S C_TeTeTeTe H_S H_S C_TeTeTeTe H_S H_S C_TrTrTrPi H_S C_TrTrTrPi C_TeTeTeTe H_S H_S H_S C_TeTeTeTe H_S H_S C_TeTeTeTe H_S H_S C_TrTrTrPi H_S C_TrTrTrPi C_TeTeTeTe H_S H_S C_TeTeTeTe H_S H_S H_S C_TeTeTeTe H_S H_S C_TrTrTrPi H_S C_TrTrTrPi C_TeTeTeTe H_S H_S C_TeTeTeTe H_S H_S H_S C_TeTeTeTe H_S H_S C_TrTrTrPi H_S C_TrTrTrPi C_TeTeTeTe H_S H_S C_TeTeTeTe H_S H_S H_S C_TeTeTeTe H_S H_S C_TrTrTrPi H_S C_TrTrTrPi C_TeTeTeTe H_S H_S C_TeTeTeTe H_S H_S H_S C_TeTeTeTe H_S H_S C_TrTrTrPi H_S C_TrTrTrPi C_TeTeTeTe H_S H_S C_TeTeTeTe H_S H_S H_S C_TeTeTeTe H_S H_S C_TrTrTrPi H_S C_TrTrTrPi C_TeTeTeTe H_S H_S C_TeTeTeTe H_S H_S H_S C_TeTeTeTe H_S H_S C_TrTrTrPi H_S C_TrTrTrPi C_TeTeTeTe H_S H_S C_TeTeTeTe H_S H_S H_S C_TeTeTeTe H_S H_S C_TrTrTrPi H_S C_TrTrTrPi C_TeTeTeTe H_S H_S H_S C_TeTeTeTe H_S H_S H_S C_TeTeTeTe H_S C_TeTeTeTe H_S O_Te2Te2TeTe C_TeTeTeTe H_S C_TeTeTeTe H_S C_TeTeTeTe H_S O_Te2Te2TeTe O_Te2Te2TeTe H_S O_Te2Te2TeTe H_S C_TeTeTeTe H_S H_S H_S C_TeTeTeTe H_S C_TeTeTeTe H_S O_Te2Te2TeTe C_TeTeTeTe H_S C_TeTeTeTe H_S C_TeTeTeTe H_S N_TrTrTrPi2 H_S O_Te2Te2TeTe H_S C_TeTeTeTe H_S H_S O_Te2Te2TeTe H_S C_TrTrTrPi O_Tr2Tr2TrPi C_TeTeTeTe H_S H_S H_S
M  BCL BND NonConjugatedSingleBond NonConjugatedSingleBondInRing NonConjugatedSingleBondInRing NonConjugatedSingleBond NonConjugatedSingleBondInRing NonConjugatedSingleBond NonConjugatedSingleBond NonConjugatedSingleBondInRing NonConjugatedSingleBond NonConjugatedSingleBond NonConjugatedSingleBond NonConjugatedSingleBondInRing NonConjugatedSingleBond NonConjugatedSingleBond NonConjugatedSingleBond NonConjugatedSingleBond NonConjugatedSingleBond NonConjugatedSingleBond NonConjugatedSingleBond NonConjugatedSingleBond NonConjugatedSingleBond NonConjugatedSingleBond NonConjugatedSingleBond NonConjugatedSingleBond NonConjugatedSingleBondInRing NonConjugatedSingleBondInRing NonConjugatedSingleBondInRing NonConjugatedSingleBond NonConjugatedSingleBond NonConjugatedSingleBondInRing NonConjugatedSingleBond NonConjugatedSingleBond NonConjugatedSingleBond NonConjugatedSingleBondInRing NonConjugatedSingleBond NonConjugatedSingleBond NonConjugatedSingleBond NonConjugatedSingleBond NonConjugatedSingleBond NonConjugatedSingleBond NonConjugatedSingleBond NonConjugatedSingleBond NonConjugatedSingleBond NonConjugatedSingleBond NonConjugatedSingleBond NonConjugatedSingleBond ConjugatedSingleBond NonConjugatedSingleBond ConjugatedSingleBond ConjugatedSingleBond ConjugatedDoubleBond ConjugatedSingleBond ConjugatedSingleBond ConjugatedSingleBond ConjugatedDoubleBond NonConjugatedSingleBond NonConjugatedSingleBond NonConjugatedSingleBond NonConjugatedSingleBond NonConjugatedSingleBond ConjugatedDoubleBond NonConjugatedSingleBond NonConjugatedSingleBond NonConjugatedSingleBond NonConjugatedSingleBond NonConjugatedSingleBond NonConjugatedSingleBond NonConjugatedSingleBond NonConjugatedSingleBond NonConjugatedSingleBond NonConjugatedSingleBond NonConjugatedSingleBond NonConjugatedSingleBond ConjugatedDoubleBond NonConjugatedSingleBond NonConjugatedSingleBond NonConjugatedSingleBond NonConjugatedSingleBond NonConjugatedSingleBond NonConjugatedSingleBond NonConjugatedSingleBond NonConjugatedSingleBond NonConjugatedSingleBond NonConjugatedSingleBond NonConjugatedSingleBond NonConjugatedSingleBond ConjugatedDoubleBond NonConjugatedSingleBond NonConjugatedSingleBond NonConjugatedSingleBond NonConjugatedSingleBond NonConjugatedSingleBond NonConjugatedSingleBond NonConjugatedSingleBond NonConjugatedSingleBond NonConjugatedSingleBond NonConjugatedSingleBond NonConjugatedSingleBond NonConjugatedSingleBond ConjugatedDoubleBond NonConjugatedSingleBond NonConjugatedSingleBond NonConjugatedSingleBond NonConjugatedSingleBond NonConjugatedSingleBond NonConjugatedSingleBond NonConjugatedSingleBond NonConjugatedSingleBond NonConjugatedSingleBond NonConjugatedSingleBond NonConjugatedSingleBond NonConjugatedSingleBond ConjugatedDoubleBond NonConjugatedSingleBond NonConjugatedSingleBond NonConjugatedSingleBond NonConjugatedSingleBond NonConjugatedSingleBond NonConjugatedSingleBond NonConjugatedSingleBond NonConjugatedSingleBond NonConjugatedSingleBond NonConjugatedSingleBond NonConjugatedSingleBond NonConjugatedSingleBond ConjugatedDoubleBond NonConjugatedSingleBond NonConjugatedSingleBond NonConjugatedSingleBond NonConjugatedSingleBond NonConjugatedSingleBond NonConjugatedSingleBond NonConjugatedSingleBond NonConjugatedSingleBond NonConjugatedSingleBond NonConjugatedSingleBond NonConjugatedSingleBond NonConjugatedSingleBond ConjugatedDoubleBond NonConjugatedSingleBond NonConjugatedSingleBond NonConjugatedSingleBond NonConjugatedSingleBond NonConjugatedSingleBond NonConjugatedSingleBond NonConjugatedSingleBond NonConjugatedSingleBond NonConjugatedSingleBond NonConjugatedSingleBond NonConjugatedSingleBond NonConjugatedSingleBond ConjugatedDoubleBond NonConjugatedSingleBond NonConjugatedSingleBond NonConjugatedSingleBond NonConjugatedSingleBond NonConjugatedSingleBond NonConjugatedSingleBond NonConjugatedSingleBond NonConjugatedSingleBond NonConjugatedSingleBond NonConjugatedSingleBond NonConjugatedSingleBond NonConjugatedSingleBond ConjugatedDoubleBond NonConjugatedSingleBond NonConjugatedSingleBond NonConjugatedSingleBond NonConjugatedSingleBond NonConjugatedSingleBond NonConjugatedSingleBond NonConjugatedSingleBond NonConjugatedSingleBond NonConjugatedSingleBond NonConjugatedSingleBond NonConjugatedSingleBond NonConjugatedSingleBond ConjugatedDoubleBond NonConjugatedSingleBond NonConjugatedSingleBond NonConjugatedSingleBond NonConjugatedSingleBond NonConjugatedSingleBond NonConjugatedSingleBond NonConjugatedSingleBond NonConjugatedSingleBond NonConjugatedSingleBond NonConjugatedSingleBondInRing NonConjugatedSingleBondInRing NonConjugatedSingleBond NonConjugatedSingleBond NonConjugatedSingleBondInRing NonConjugatedSingleBond NonConjugatedSingleBondInRing NonConjugatedSingleBond NonConjugatedSingleBondInRing NonConjugatedSingleBond NonConjugatedSingleBond NonConjugatedSingleBondInRing NonConjugatedSingleBond NonConjugatedSingleBond NonConjugatedSingleBond NonConjugatedSingleBond NonConjugatedSingleBond NonConjugatedSingleBond NonConjugatedSingleBond NonConjugatedSingleBond NonConjugatedSingleBond NonConjugatedSingleBondInRing NonConjugatedSingleBondInRing NonConjugatedSingleBond NonConjugatedSingleBondInRing NonConjugatedSingleBond NonConjugatedSingleBondInRing NonConjugatedSingleBond NonConjugatedSingleBondInRing NonConjugatedSingleBond NonConjugatedSingleBondInRing NonConjugatedSingleBond NonConjugatedSingleBond NonConjugatedSingleBond NonConjugatedSingleBond AmideSingleBond NonConjugatedSingleBond NonConjugatedSingleBond NonConjugatedSingleBond NonConjugatedSingleBond NonConjugatedSingleBond ConjugatedDoubleBond NonConjugatedSingleBond NonConjugatedSingleBond NonConjugatedSingleBond NonConjugatedSingleBond
M  BCL CHI   1   R   4   R   8   R  17   S  20   R  22   S  25   R  29   S  38   S  42   R  46   R  50   S 185   R 187   S 190   S 192   R 194   R 205   R 207   S 210   R 212   S 214   S
M  BCL DBI - - E E E E E E E E Z - -
M  END
> <ConfClashScore>
0.00627717 

> <ConfOneFourInteractionScore>
-0.968386 

> <ConfScore>
0.845997 

> <ConfScorePBest>
0.0106695 

> <ConfTolerance>
4.38498 

$$$$
L05.****
  PyMOL2.5          3D                             0

230233  0  0  0  0  0  0  0  0999 V2000
   12.0449   -3.4562   -3.2342 C   0  0  0  1  0  0  0  0  0  0  0  0
   12.1210   -4.4022   -3.7284 H   0  0  0  1  0  0  0  0  0  0  0  0
   11.7915   -2.4298   -4.1703 O   0  0  0  1  0  0  0  0  0  0  0  0
   10.8575   -3.4460   -2.2887 C   0  0  0  1  0  0  0  0  0  0  0  0
   11.1325   -3.8020   -1.3178 H   0  0  0  1  0  0  0  0  0  0  0  0
    9.7831   -4.2365   -2.7997 O   0  0  0  1  0  0  0  0  0  0  0  0
   10.1318   -4.9065   -3.3922 H   0  0  0  1  0  0  0  0  0  0  0  0
   10.4891   -1.9853   -2.2497 C   0  0  0  1  0  0  0  0  0  0  0  0
    9.4691   -1.8475   -1.9575 H   0  0  0  1  0  0  0  0  0  0  0  0
   11.3412   -1.2563   -1.3649 O   0  0  0  1  0  0  0  0  0  0  0  0
   11.9297   -1.8651   -0.9127 H   0  0  0  1  0  0  0  0  0  0  0  0
    8.2036   -1.3582   -3.7765 C   0  0  0  1  0  0  0  0  0  0  0  0
    8.1634   -1.8742   -2.8400 H   0  0  0  1  0  0  0  0  0  0  0  0
    8.2665   -0.3045   -3.6014 H   0  0  0  1  0  0  0  0  0  0  0  0
    7.0097   -1.6300   -4.4987 O   0  0  0  1  0  0  0  0  0  0  0  0
    7.1625   -1.4874   -5.4356 H   0  0  0  1  0  0  0  0  0  0  0  0
    9.4517   -1.8043   -4.5271 C   0  0  0  1  0  0  0  0  0  0  0  0
    9.5258   -1.2466   -5.4373 H   0  0  0  1  0  0  0  0  0  0  0  0
    9.3437   -3.1948   -4.8089 O   0  0  0  1  0  0  0  0  0  0  0  0
   10.7129   -1.5739   -3.7043 C   0  0  0  1  0  0  0  0  0  0  0  0
   10.9960   -0.5439   -3.7654 H   0  0  0  1  0  0  0  0  0  0  0  0
    9.3528   -3.4967   -6.1807 C   0  0  0  1  0  0  0  0  0  0  0  0
    9.0307   -4.5066   -6.3264 H   0  0  0  1  0  0  0  0  0  0  0  0
    8.4987   -2.5763   -6.9131 O   0  0  0  1  0  0  0  0  0  0  0  0
   10.7475   -3.2866   -6.7688 C   0  0  0  1  0  0  0  0  0  0  0  0
   11.3288   -4.1838   -6.7251 H   0  0  0  1  0  0  0  0  0  0  0  0
   11.4429   -2.2346   -6.0979 O   0  0  0  1  0  0  0  0  0  0  0  0
   11.4283   -1.4433   -6.6412 H   0  0  0  1  0  0  0  0  0  0  0  0
   10.4221   -2.9109   -8.1914 C   0  0  0  1  0  0  0  0  0  0  0  0
   10.2084   -3.7775   -8.7816 H   0  0  0  1  0  0  0  0  0  0  0  0
   11.4894   -2.1802   -8.7886 O   0  0  0  1  0  0  0  0  0  0  0  0
   11.3971   -1.2482   -8.5777 H   0  0  0  1  0  0  0  0  0  0  0  0
    9.1003   -1.8429  -10.5456 C   0  0  0  1  0  0  0  0  0  0  0  0
    9.5006   -0.8514  -10.5060 H   0  0  0  1  0  0  0  0  0  0  0  0
    9.9013   -2.5489  -10.6145 H   0  0  0  1  0  0  0  0  0  0  0  0
    8.2882   -1.9605  -11.7049 O   0  0  0  1  0  0  0  0  0  0  0  0
    7.4206   -2.2879  -11.4565 H   0  0  0  1  0  0  0  0  0  0  0  0
    8.3244   -2.1079   -9.2629 C   0  0  0  1  0  0  0  0  0  0  0  0
    7.9084   -3.0918   -9.3249 H   0  0  0  1  0  0  0  0  0  0  0  0
    7.2752   -1.1550   -9.2151 O   0  0  0  1  0  0  0  0  0  0  0  0
    6.9337   -1.0096  -10.1005 H   0  0  0  1  0  0  0  0  0  0  0  0
    9.1883   -2.0426   -8.0239 C   0  0  0  1  0  0  0  0  0  0  0  0
    9.4686   -1.0271   -7.8370 H   0  0  0  1  0  0  0  0  0  0  0  0
   13.2490   -3.1939   -2.5228 O   0  0  0  1  0  0  0  0  0  0  0  0
   17.5972   -9.7626   -1.6029 O   0  0  0  1  0  0  0  0  0  0  0  0
   18.4595   -9.0465   -0.5946 P   0  0  0  1  0  0  0  0  0  0  0  0
   19.9335   -8.8203   -1.1839 O   0  0  0  1  0  0  0  0  0  0  0  0
   18.6692   -9.9040    0.6928 O   0  0  0  0  0  0  0  0  0  0  0  0
   17.9665   -7.6814   -0.2112 O   0  0  0  1  0  0  0  0  0  0  0  0
   21.2908   -8.0865   -0.8608 P   0  0  0  1  0  0  0  0  0  0  0  0
   20.7635   -6.6071   -0.7636 O   0  0  0  1  0  0  0  0  0  0  0  0
   22.1055   -8.2693   -2.0831 O   0  0  0  0  0  0  0  0  0  0  0  0
   21.8711   -8.4606    0.4423 O   0  0  0  1  0  0  0  0  0  0  0  0
   16.9928   -9.1088   -2.7154 C   0  0  0  1  0  0  0  0  0  0  0  0
   17.7684   -8.7975   -3.3836 H   0  0  0  1  0  0  0  0  0  0  0  0
   16.4663   -8.2501   -2.3545 H   0  0  0  1  0  0  0  0  0  0  0  0
   16.0276   -9.9650   -3.4814 C   0  0  0  1  0  0  0  0  0  0  0  0
   15.5939   -9.5729   -4.3415 H   0  0  0  1  0  0  0  0  0  0  0  0
   15.7000  -11.1983   -3.1151 C   0  0  0  1  0  0  0  0  0  0  0  0
   14.9682  -12.1198   -4.0454 C   0  0  0  1  0  0  0  0  0  0  0  0
   14.9614  -13.1086   -3.6365 H   0  0  0  1  0  0  0  0  0  0  0  0
   15.4594  -12.1305   -4.9959 H   0  0  0  1  0  0  0  0  0  0  0  0
   13.9617  -11.7776   -4.1673 H   0  0  0  1  0  0  0  0  0  0  0  0
   16.0172  -11.7851   -1.7713 C   0  0  0  1  0  0  0  0  0  0  0  0
   16.9064  -11.3211   -1.3984 H   0  0  0  1  0  0  0  0  0  0  0  0
   16.1848  -12.8353   -1.8892 H   0  0  0  1  0  0  0  0  0  0  0  0
   14.9042  -11.5838   -0.7559 C   0  0  0  1  0  0  0  0  0  0  0  0
   15.1932  -12.0495    0.1630 H   0  0  0  1  0  0  0  0  0  0  0  0
   14.0154  -12.0490   -1.1281 H   0  0  0  1  0  0  0  0  0  0  0  0
   14.6100  -10.1421   -0.4870 C   0  0  0  1  0  0  0  0  0  0  0  0
   15.1482   -9.4089   -0.9914 H   0  0  0  1  0  0  0  0  0  0  0  0
   13.6748   -9.7809    0.3833 C   0  0  0  1  0  0  0  0  0  0  0  0
   13.5942   -8.3753    0.9040 C   0  0  0  1  0  0  0  0  0  0  0  0
   12.6400   -7.9577    0.6587 H   0  0  0  1  0  0  0  0  0  0  0  0
   14.3669   -7.7849    0.4577 H   0  0  0  1  0  0  0  0  0  0  0  0
   13.7180   -8.3812    1.9668 H   0  0  0  1  0  0  0  0  0  0  0  0
   12.6294  -10.7114    0.9236 C   0  0  0  1  0  0  0  0  0  0  0  0
   12.7267  -11.6638    0.4458 H   0  0  0  1  0  0  0  0  0  0  0  0
   11.6601  -10.3067    0.7194 H   0  0  0  1  0  0  0  0  0  0  0  0
   12.7893  -10.8884    2.4248 C   0  0  0  1  0  0  0  0  0  0  0  0
   12.0069  -11.5335    2.7663 H   0  0  0  1  0  0  0  0  0  0  0  0
   12.6855   -9.9273    2.8834 H   0  0  0  1  0  0  0  0  0  0  0  0
   14.0921  -11.4709    2.8655 C   0  0  0  1  0  0  0  0  0  0  0  0
   14.5540  -12.1709    2.2505 H   0  0  0  1  0  0  0  0  0  0  0  0
   14.6842  -11.1421    3.9937 C   0  0  0  1  0  0  0  0  0  0  0  0
   13.9322  -10.4067    5.0706 C   0  0  0  1  0  0  0  0  0  0  0  0
   14.4093  -10.5964    6.0094 H   0  0  0  1  0  0  0  0  0  0  0  0
   12.9287  -10.7769    5.0987 H   0  0  0  1  0  0  0  0  0  0  0  0
   16.1432  -11.3738    4.2697 C   0  0  0  1  0  0  0  0  0  0  0  0
   16.6305  -11.6915    3.3717 H   0  0  0  1  0  0  0  0  0  0  0  0
   16.2484  -12.1302    5.0191 H   0  0  0  1  0  0  0  0  0  0  0  0
   16.5894  -10.4645    4.6148 H   0  0  0  1  0  0  0  0  0  0  0  0
   13.8874   -8.9041    4.8456 C   0  0  0  1  0  0  0  0  0  0  0  0
   13.3115   -8.7196    3.9629 H   0  0  0  1  0  0  0  0  0  0  0  0
   14.8903   -8.5628    4.6956 H   0  0  0  1  0  0  0  0  0  0  0  0
   13.2914   -8.1075    5.9596 C   0  0  0  1  0  0  0  0  0  0  0  0
   12.8409   -8.6174    6.7461 H   0  0  0  1  0  0  0  0  0  0  0  0
   13.3083   -6.7804    5.9951 C   0  0  0  1  0  0  0  0  0  0  0  0
   14.2088   -5.9860    5.0920 C   0  0  0  1  0  0  0  0  0  0  0  0
   14.7907   -6.6754    4.5166 H   0  0  0  1  0  0  0  0  0  0  0  0
   14.8573   -5.3977    5.7070 H   0  0  0  1  0  0  0  0  0  0  0  0
   12.4550   -5.9561    6.9141 C   0  0  0  1  0  0  0  0  0  0  0  0
   11.4234   -6.1022    6.6705 H   0  0  0  1  0  0  0  0  0  0  0  0
   12.7051   -4.9219    6.8006 H   0  0  0  1  0  0  0  0  0  0  0  0
   12.6282   -6.2565    7.9263 H   0  0  0  1  0  0  0  0  0  0  0  0
   13.5013   -5.0494    4.1264 C   0  0  0  1  0  0  0  0  0  0  0  0
   13.0758   -4.2490    4.6949 H   0  0  0  1  0  0  0  0  0  0  0  0
   12.7203   -5.6001    3.6450 H   0  0  0  1  0  0  0  0  0  0  0  0
   14.3716   -4.4477    3.0575 C   0  0  0  1  0  0  0  0  0  0  0  0
   14.8509   -5.1150    2.4199 H   0  0  0  1  0  0  0  0  0  0  0  0
   14.5943   -3.1572    2.8397 C   0  0  0  1  0  0  0  0  0  0  0  0
   13.9569   -2.0980    3.6963 C   0  0  0  1  0  0  0  0  0  0  0  0
   13.2365   -2.5646    4.3351 H   0  0  0  1  0  0  0  0  0  0  0  0
   13.4652   -1.3940    3.0579 H   0  0  0  1  0  0  0  0  0  0  0  0
   15.4799   -2.6326    1.7476 C   0  0  0  1  0  0  0  0  0  0  0  0
   16.3024   -2.1012    2.1789 H   0  0  0  1  0  0  0  0  0  0  0  0
   14.9187   -1.9722    1.1200 H   0  0  0  1  0  0  0  0  0  0  0  0
   15.8500   -3.4503    1.1652 H   0  0  0  1  0  0  0  0  0  0  0  0
   14.9617   -1.3468    4.5647 C   0  0  0  1  0  0  0  0  0  0  0  0
   15.6669   -0.8478    3.9334 H   0  0  0  1  0  0  0  0  0  0  0  0
   15.4753   -2.0457    5.1913 H   0  0  0  1  0  0  0  0  0  0  0  0
   14.2654   -0.3290    5.4279 C   0  0  0  1  0  0  0  0  0  0  0  0
   13.7729    0.4408    4.9314 H   0  0  0  1  0  0  0  0  0  0  0  0
   14.2111   -0.3073    6.7667 C   0  0  0  1  0  0  0  0  0  0  0  0
   14.5988   -1.5471    7.5274 C   0  0  0  1  0  0  0  0  0  0  0  0
   15.3282   -1.2808    8.2636 H   0  0  0  1  0  0  0  0  0  0  0  0
   15.0241   -2.2489    6.8408 H   0  0  0  1  0  0  0  0  0  0  0  0
   13.7846    0.8887    7.5297 C   0  0  0  1  0  0  0  0  0  0  0  0
   13.6630    1.7147    6.8605 H   0  0  0  1  0  0  0  0  0  0  0  0
   14.5279    1.1288    8.2609 H   0  0  0  1  0  0  0  0  0  0  0  0
   12.8546    0.6865    8.0189 H   0  0  0  1  0  0  0  0  0  0  0  0
   13.4229   -2.2077    8.2283 C   0  0  0  1  0  0  0  0  0  0  0  0
   12.6582   -2.3791    7.4997 H   0  0  0  1  0  0  0  0  0  0  0  0
   13.0607   -1.5312    8.9740 H   0  0  0  1  0  0  0  0  0  0  0  0
   13.7233   -3.5058    8.8929 C   0  0  0  1  0  0  0  0  0  0  0  0
   14.1647   -4.2384    8.3011 H   0  0  0  1  0  0  0  0  0  0  0  0
   13.4973   -3.8178   10.1129 C   0  0  0  1  0  0  0  0  0  0  0  0
   13.1743   -2.8137   11.1849 C   0  0  0  1  0  0  0  0  0  0  0  0
   13.3153   -1.8357   10.7744 H   0  0  0  1  0  0  0  0  0  0  0  0
   13.8580   -2.9634   11.9942 H   0  0  0  1  0  0  0  0  0  0  0  0
   13.5382   -5.2436   10.5793 C   0  0  0  1  0  0  0  0  0  0  0  0
   14.3812   -5.3848   11.2230 H   0  0  0  1  0  0  0  0  0  0  0  0
   13.6230   -5.8931    9.7333 H   0  0  0  1  0  0  0  0  0  0  0  0
   12.6395   -5.4694   11.1143 H   0  0  0  1  0  0  0  0  0  0  0  0
   11.7627   -2.8886   11.7437 C   0  0  0  1  0  0  0  0  0  0  0  0
   11.6123   -3.8859   12.1009 H   0  0  0  1  0  0  0  0  0  0  0  0
   11.0881   -2.6927   10.9366 H   0  0  0  1  0  0  0  0  0  0  0  0
   11.4074   -1.9499   12.8656 C   0  0  0  1  0  0  0  0  0  0  0  0
   11.4257   -0.9341   12.6436 H   0  0  0  1  0  0  0  0  0  0  0  0
   11.0729   -2.2785   14.1089 C   0  0  0  1  0  0  0  0  0  0  0  0
   11.0997   -3.6882   14.6362 C   0  0  0  1  0  0  0  0  0  0  0  0
   11.7593   -3.7246   15.4778 H   0  0  0  1  0  0  0  0  0  0  0  0
   11.4678   -4.3331   13.8658 H   0  0  0  1  0  0  0  0  0  0  0  0
   10.6332   -1.2439   15.1034 C   0  0  0  1  0  0  0  0  0  0  0  0
   11.4805   -0.8993   15.6586 H   0  0  0  1  0  0  0  0  0  0  0  0
    9.9192   -1.6748   15.7738 H   0  0  0  1  0  0  0  0  0  0  0  0
   10.1865   -0.4202   14.5869 H   0  0  0  1  0  0  0  0  0  0  0  0
    9.7315   -4.1870   15.0719 C   0  0  0  1  0  0  0  0  0  0  0  0
    9.3113   -3.4935   15.7700 H   0  0  0  1  0  0  0  0  0  0  0  0
    9.8393   -5.1434   15.5394 H   0  0  0  1  0  0  0  0  0  0  0  0
    8.8151   -4.3160   13.8968 C   0  0  0  1  0  0  0  0  0  0  0  0
    8.6647   -3.4715   13.3088 H   0  0  0  1  0  0  0  0  0  0  0  0
    8.1763   -5.4339   13.5467 C   0  0  0  1  0  0  0  0  0  0  0  0
    7.2744   -5.4703   12.3486 C   0  0  0  1  0  0  0  0  0  0  0  0
    7.3707   -4.5514   11.8090 H   0  0  0  1  0  0  0  0  0  0  0  0
    6.2623   -5.5885   12.6749 H   0  0  0  1  0  0  0  0  0  0  0  0
    8.3342   -6.6996   14.3372 C   0  0  0  1  0  0  0  0  0  0  0  0
    7.4792   -7.2960   14.0960 H   0  0  0  1  0  0  0  0  0  0  0  0
    8.3568   -6.4854   15.3853 H   0  0  0  1  0  0  0  0  0  0  0  0
    9.2342   -7.2058   14.0566 H   0  0  0  1  0  0  0  0  0  0  0  0
    7.6412   -6.6267   11.4329 C   0  0  0  1  0  0  0  0  0  0  0  0
    7.5380   -7.5404   11.9801 H   0  0  0  1  0  0  0  0  0  0  0  0
    8.6590   -6.5078   11.1250 H   0  0  0  1  0  0  0  0  0  0  0  0
    6.7749   -6.7036   10.2043 C   0  0  0  1  0  0  0  0  0  0  0  0
    5.7496   -6.8073   10.3441 H   0  0  0  1  0  0  0  0  0  0  0  0
    7.2229   -6.6489    8.9531 C   0  0  0  1  0  0  0  0  0  0  0  0
    6.3700   -6.6623    7.7180 C   0  0  0  1  0  0  0  0  0  0  0  0
    6.6225   -7.5119    7.1187 H   0  0  0  1  0  0  0  0  0  0  0  0
    6.5408   -5.7671    7.1572 H   0  0  0  1  0  0  0  0  0  0  0  0
    5.3386   -6.7172    7.9977 H   0  0  0  1  0  0  0  0  0  0  0  0
    8.7092   -6.5654    8.7032 C   0  0  0  1  0  0  0  0  0  0  0  0
    9.0999   -5.8082    9.3505 H   0  0  0  1  0  0  0  0  0  0  0  0
    8.8943   -6.3047    7.6821 H   0  0  0  1  0  0  0  0  0  0  0  0
    9.1701   -7.5061    8.9209 H   0  0  0  1  0  0  0  0  0  0  0  0
   15.9700   -5.1008   -1.5651 C   0  0  0  1  0  0  0  0  0  0  0  0
   16.1217   -5.6219   -0.6429 H   0  0  0  1  0  0  0  0  0  0  0  0
   14.7898   -5.7034   -2.2803 C   0  0  0  1  0  0  0  0  0  0  0  0
   15.0067   -6.7228   -2.5225 H   0  0  0  1  0  0  0  0  0  0  0  0
   15.7588   -3.7244   -1.2887 O   0  0  0  1  0  0  0  0  0  0  0  0
   14.5025   -4.9408   -3.5494 C   0  0  0  1  0  0  0  0  0  0  0  0
   13.5694   -5.2719   -3.9551 H   0  0  0  1  0  0  0  0  0  0  0  0
   15.6276   -2.9637   -2.4871 C   0  0  0  1  0  0  0  0  0  0  0  0
   16.5112   -3.0770   -3.0799 H   0  0  0  1  0  0  0  0  0  0  0  0
   14.4248   -3.4587   -3.2716 C   0  0  0  1  0  0  0  0  0  0  0  0
   14.3805   -2.9344   -4.2033 H   0  0  0  1  0  0  0  0  0  0  0  0
   17.1262   -5.2368   -2.3832 O   0  0  0  1  0  0  0  0  0  0  0  0
   13.6442   -5.6490   -1.4282 O   0  0  0  1  0  0  0  0  0  0  0  0
   13.1604   -6.4760   -1.4885 H   0  0  0  1  0  0  0  0  0  0  0  0
   15.5408   -5.1863   -4.4867 O   0  0  0  1  0  0  0  0  0  0  0  0
   16.3551   -4.7844   -4.1754 H   0  0  0  1  0  0  0  0  0  0  0  0
   15.4370   -1.5070   -2.1400 C   0  0  0  1  0  0  0  0  0  0  0  0
   14.8908   -1.0220   -2.9219 H   0  0  0  1  0  0  0  0  0  0  0  0
   16.3929   -1.0389   -2.0297 H   0  0  0  1  0  0  0  0  0  0  0  0
   14.8924   -1.4275   -1.2224 H   0  0  0  1  0  0  0  0  0  0  0  0
   19.8169   -6.1141   -1.6875 C   0  0  0  1  0  0  0  0  0  0  0  0
   19.0866   -6.8699   -1.8883 H   0  0  0  1  0  0  0  0  0  0  0  0
   19.1296   -4.8895   -1.1025 C   0  0  0  1  0  0  0  0  0  0  0  0
   19.8640   -4.1573   -0.8389 H   0  0  0  1  0  0  0  0  0  0  0  0
   20.4758   -5.7610   -2.8958 O   0  0  0  1  0  0  0  0  0  0  0  0
   18.1804   -4.3097   -2.1466 C   0  0  0  1  0  0  0  0  0  0  0  0
   17.7727   -3.3918   -1.7776 H   0  0  0  1  0  0  0  0  0  0  0  0
   19.5688   -5.3311   -3.9271 C   0  0  0  1  0  0  0  0  0  0  0  0
   20.1069   -5.1496   -4.8340 H   0  0  0  1  0  0  0  0  0  0  0  0
   18.9053   -4.0417   -3.4479 C   0  0  0  1  0  0  0  0  0  0  0  0
   18.2061   -3.7040   -4.1841 H   0  0  0  1  0  0  0  0  0  0  0  0
   18.3728   -5.2738    0.0899 N   0  0  0  1  0  0  0  0  0  0  0  0
   17.4038   -5.3996    0.0149 H   0  0  0  1  0  0  0  0  0  0  0  0
   19.8987   -3.0428   -3.2425 O   0  0  0  1  0  0  0  0  0  0  0  0
   20.7306   -3.4230   -3.5340 H   0  0  0  1  0  0  0  0  0  0  0  0
   18.5265   -6.3860   -4.1651 C   0  0  0  1  0  0  0  0  0  0  0  0
   18.0689   -6.6630   -3.2384 H   0  0  0  1  0  0  0  0  0  0  0  0
   18.9747   -7.2477   -4.6138 H   0  0  0  1  0  0  0  0  0  0  0  0
   17.5507   -5.8327   -5.0429 O   0  0  0  1  0  0  0  0  0  0  0  0
   16.7329   -6.3225   -4.9297 H   0  0  0  1  0  0  0  0  0  0  0  0
   18.9570   -5.4590    1.2771 C   0  0  0  1  0  0  0  0  0  0  0  0
   20.1630   -5.3141    1.4588 O   0  0  0  1  0  0  0  0  0  0  0  0
   18.0339   -5.8654    2.4093 C   0  0  0  1  0  0  0  0  0  0  0  0
   18.6864   -6.2785    3.1498 H   0  0  0  1  0  0  0  0  0  0  0  0
   17.3270   -6.5968    2.0773 H   0  0  0  1  0  0  0  0  0  0  0  0
   17.5126   -5.0149    2.7964 H   0  0  0  1  0  0  0  0  0  0  0  0
  1  2  1  0  0  0  0
  1  3  1  0  0  0  0
  1  4  1  0  0  0  0
  1 44  1  0  0  0  0
  3 20  1  0  0  0  0
  4  5  1  0  0  0  0
  4  6  1  0  0  0  0
  4  8  1  0  0  0  0
  6  7  1  0  0  0  0
  8  9  1  0  0  0  0
  8 10  1  0  0  0  0
  8 20  1  0  0  0  0
 10 11  1  0  0  0  0
 12 13  1  0  0  0  0
 12 14  1  0  0  0  0
 12 15  1  0  0  0  0
 12 17  1  0  0  0  0
 15 16  1  0  0  0  0
 17 18  1  0  0  0  0
 17 19  1  0  0  0  0
 17 20  1  0  0  0  0
 19 22  1  0  0  0  0
 20 21  1  0  0  0  0
 22 23  1  0  0  0  0
 22 24  1  0  0  0  0
 22 25  1  0  0  0  0
 24 42  1  0  0  0  0
 25 26  1  0  0  0  0
 25 27  1  0  0  0  0
 25 29  1  0  0  0  0
 27 28  1  0  0  0  0
 29 30  1  0  0  0  0
 29 31  1  0  0  0  0
 29 42  1  0  0  0  0
 31 32  1  0  0  0  0
 33 34  1  0  0  0  0
 33 35  1  0  0  0  0
 33 36  1  0  0  0  0
 33 38  1  0  0  0  0
 36 37  1  0  0  0  0
 38 39  1  0  0  0  0
 38 40  1  0  0  0  0
 38 42  1  0  0  0  0
 40 41  1  0  0  0  0
 42 43  1  0  0  0  0
 44194  1  0  0  0  0
 45 46  1  0  0  0  0
 45 54  1  0  0  0  0
 46 47  1  0  0  0  0
 46 48  1  0  0  0  0
 46 49  2  0  0  0  0
 47 50  1  0  0  0  0
 50 51  1  0  0  0  0
 50 52  1  0  0  0  0
 50 53  2  0  0  0  0
 51205  1  0  0  0  0
 54 55  1  0  0  0  0
 54 56  1  0  0  0  0
 54 57  1  0  0  0  0
 57 58  1  0  0  0  0
 57 59  2  0  0  0  0
 59 60  1  0  0  0  0
 59 64  1  0  0  0  0
 60 61  1  0  0  0  0
 60 62  1  0  0  0  0
 60 63  1  0  0  0  0
 64 65  1  0  0  0  0
 64 66  1  0  0  0  0
 64 67  1  0  0  0  0
 67 68  1  0  0  0  0
 67 69  1  0  0  0  0
 67 70  1  0  0  0  0
 70 71  1  0  0  0  0
 70 72  2  0  0  0  0
 72 73  1  0  0  0  0
 72 77  1  0  0  0  0
 73 74  1  0  0  0  0
 73 75  1  0  0  0  0
 73 76  1  0  0  0  0
 77 78  1  0  0  0  0
 77 79  1  0  0  0  0
 77 80  1  0  0  0  0
 80 81  1  0  0  0  0
 80 82  1  0  0  0  0
 80 83  1  0  0  0  0
 83 84  1  0  0  0  0
 83 85  2  0  0  0  0
 85 86  1  0  0  0  0
 85 89  1  0  0  0  0
 86 87  1  0  0  0  0
 86 88  1  0  0  0  0
 86 93  1  0  0  0  0
 89 90  1  0  0  0  0
 89 91  1  0  0  0  0
 89 92  1  0  0  0  0
 93 94  1  0  0  0  0
 93 95  1  0  0  0  0
 93 96  1  0  0  0  0
 96 97  1  0  0  0  0
 96 98  2  0  0  0  0
 98 99  1  0  0  0  0
 98102  1  0  0  0  0
 99100  1  0  0  0  0
 99101  1  0  0  0  0
 99106  1  0  0  0  0
102103  1  0  0  0  0
102104  1  0  0  0  0
102105  1  0  0  0  0
106107  1  0  0  0  0
106108  1  0  0  0  0
106109  1  0  0  0  0
109110  1  0  0  0  0
109111  2  0  0  0  0
111112  1  0  0  0  0
111115  1  0  0  0  0
112113  1  0  0  0  0
112114  1  0  0  0  0
112119  1  0  0  0  0
115116  1  0  0  0  0
115117  1  0  0  0  0
115118  1  0  0  0  0
119120  1  0  0  0  0
119121  1  0  0  0  0
119122  1  0  0  0  0
122123  1  0  0  0  0
122124  2  0  0  0  0
124125  1  0  0  0  0
124128  1  0  0  0  0
125126  1  0  0  0  0
125127  1  0  0  0  0
125132  1  0  0  0  0
128129  1  0  0  0  0
128130  1  0  0  0  0
128131  1  0  0  0  0
132133  1  0  0  0  0
132134  1  0  0  0  0
132135  1  0  0  0  0
135136  1  0  0  0  0
135137  2  0  0  0  0
137138  1  0  0  0  0
137141  1  0  0  0  0
138139  1  0  0  0  0
138140  1  0  0  0  0
138145  1  0  0  0  0
141142  1  0  0  0  0
141143  1  0  0  0  0
141144  1  0  0  0  0
145146  1  0  0  0  0
145147  1  0  0  0  0
145148  1  0  0  0  0
148149  1  0  0  0  0
148150  2  0  0  0  0
150151  1  0  0  0  0
150154  1  0  0  0  0
151152  1  0  0  0  0
151153  1  0  0  0  0
151158  1  0  0  0  0
154155  1  0  0  0  0
154156  1  0  0  0  0
154157  1  0  0  0  0
158159  1  0  0  0  0
158160  1  0  0  0  0
158161  1  0  0  0  0
161162  1  0  0  0  0
161163  2  0  0  0  0
163164  1  0  0  0  0
163167  1  0  0  0  0
164165  1  0  0  0  0
164166  1  0  0  0  0
164171  1  0  0  0  0
167168  1  0  0  0  0
167169  1  0  0  0  0
167170  1  0  0  0  0
171172  1  0  0  0  0
171173  1  0  0  0  0
171174  1  0  0  0  0
174175  1  0  0  0  0
174176  2  0  0  0  0
176177  1  0  0  0  0
176181  1  0  0  0  0
177178  1  0  0  0  0
177179  1  0  0  0  0
177180  1  0  0  0  0
181182  1  0  0  0  0
181183  1  0  0  0  0
181184  1  0  0  0  0
185186  1  0  0  0  0
185187  1  0  0  0  0
185189  1  0  0  0  0
185196  1  0  0  0  0
187188  1  0  0  0  0
187190  1  0  0  0  0
187197  1  0  0  0  0
189192  1  0  0  0  0
190191  1  0  0  0  0
190194  1  0  0  0  0
190199  1  0  0  0  0
192193  1  0  0  0  0
192194  1  0  0  0  0
192201  1  0  0  0  0
194195  1  0  0  0  0
196210  1  0  0  0  0
197198  1  0  0  0  0
199200  1  0  0  0  0
201202  1  0  0  0  0
201203  1  0  0  0  0
201204  1  0  0  0  0
205206  1  0  0  0  0
205207  1  0  0  0  0
205209  1  0  0  0  0
207208  1  0  0  0  0
207210  1  0  0  0  0
207216  1  0  0  0  0
209212  1  0  0  0  0
210211  1  0  0  0  0
210214  1  0  0  0  0
212213  1  0  0  0  0
212214  1  0  0  0  0
212220  1  0  0  0  0
214215  1  0  0  0  0
214218  1  0  0  0  0
216217  1  0  0  0  0
216225  1  0  0  0  0
218219  1  0  0  0  0
220221  1  0  0  0  0
220222  1  0  0  0  0
220223  1  0  0  0  0
223224  1  0  0  0  0
225226  2  0  0  0  0
225227  1  0  0  0  0
227228  1  0  0  0  0
227229  1  0  0  0  0
227230  1  0  0  0  0
M  BCL ATM C_TeTeTeTe H_S O_Te2Te2TeTe C_TeTeTeTe H_S O_Te2Te2TeTe H_S C_TeTeTeTe H_S O_Te2Te2TeTe H_S C_TeTeTeTe H_S H_S O_Te2Te2TeTe H_S C_TeTeTeTe H_S O_Te2Te2TeTe C_TeTeTeTe H_S C_TeTeTeTe H_S O_Te2Te2TeTe C_TeTeTeTe H_S O_Te2Te2TeTe H_S C_TeTeTeTe H_S O_Te2Te2TeTe H_S C_TeTeTeTe H_S H_S O_Te2Te2TeTe H_S C_TeTeTeTe H_S O_Te2Te2TeTe H_S C_TeTeTeTe H_S O_Te2Te2TeTe O_Tr2TrTrPi2 P_TeTeTeTePi O_Tr2TrTrPi2 O_Te2Te2TeTe O_Tr2Tr2TrPi P_TeTeTeTePi O_Tr2TrTrPi2 O_Te2Te2TeTe O_Tr2Tr2TrPi C_TeTeTeTe H_S H_S C_TrTrTrPi H_S C_TrTrTrPi C_TeTeTeTe H_S H_S H_S C_TeTeTeTe H_S H_S C_TeTeTeTe H_S H_S C_TrTrTrPi H_S C_TrTrTrPi C_TeTeTeTe H_S H_S H_S C_TeTeTeTe H_S H_S C_TeTeTeTe H_S H_S C_TrTrTrPi H_S C_TrTrTrPi C_TeTeTeTe H_S H_S C_TeTeTeTe H_S H_S H_S C_TeTeTeTe H_S H_S C_TrTrTrPi H_S C_TrTrTrPi C_TeTeTeTe H_S H_S C_TeTeTeTe H_S H_S H_S C_TeTeTeTe H_S H_S C_TrTrTrPi H_S C_TrTrTrPi C_TeTeTeTe H_S H_S C_TeTeTeTe H_S H_S H_S C_TeTeTeTe H_S H_S C_TrTrTrPi H_S C_TrTrTrPi C_TeTeTeTe H_S H_S C_TeTeTeTe H_S H_S H_S C_TeTeTeTe H_S H_S C_TrTrTrPi H_S C_TrTrTrPi C_TeTeTeTe H_S H_S C_TeTeTeTe H_S H_S H_S C_TeTeTeTe H_S H_S C_TrTrTrPi H_S C_TrTrTrPi C_TeTeTeTe H_S H_S C_TeTeTeTe H_S H_S H_S C_TeTeTeTe H_S H_S C_TrTrTrPi H_S C_TrTrTrPi C_TeTeTeTe H_S H_S C_TeTeTeTe H_S H_S H_S C_TeTeTeTe H_S H_S C_TrTrTrPi H_S C_TrTrTrPi C_TeTeTeTe H_S H_S H_S C_TeTeTeTe H_S H_S H_S C_TeTeTeTe H_S C_TeTeTeTe H_S O_Te2Te2TeTe C_TeTeTeTe H_S C_TeTeTeTe H_S C_TeTeTeTe H_S O_Te2Te2TeTe O_Te2Te2TeTe H_S O_Te2Te2TeTe H_S C_TeTeTeTe H_S H_S H_S C_TeTeTeTe H_S C_TeTeTeTe H_S O_Te2Te2TeTe C_TeTeTeTe H_S C_TeTeTeTe H_S C_TeTeTeTe H_S N_TrTrTrPi2 H_S O_Te2Te2TeTe H_S C_TeTeTeTe H_S H_S O_Te2Te2TeTe H_S C_TrTrTrPi O_Tr2Tr2TrPi C_TeTeTeTe H_S H_S H_S
M  BCL BND NonConjugatedSingleBond NonConjugatedSingleBondInRing NonConjugatedSingleBondInRing NonConjugatedSingleBond NonConjugatedSingleBondInRing NonConjugatedSingleBond NonConjugatedSingleBond NonConjugatedSingleBondInRing NonConjugatedSingleBond NonConjugatedSingleBond NonConjugatedSingleBond NonConjugatedSingleBondInRing NonConjugatedSingleBond NonConjugatedSingleBond NonConjugatedSingleBond NonConjugatedSingleBond NonConjugatedSingleBond NonConjugatedSingleBond NonConjugatedSingleBond NonConjugatedSingleBond NonConjugatedSingleBond NonConjugatedSingleBond NonConjugatedSingleBond NonConjugatedSingleBond NonConjugatedSingleBondInRing NonConjugatedSingleBondInRing NonConjugatedSingleBondInRing NonConjugatedSingleBond NonConjugatedSingleBond NonConjugatedSingleBondInRing NonConjugatedSingleBond NonConjugatedSingleBond NonConjugatedSingleBond NonConjugatedSingleBondInRing NonConjugatedSingleBond NonConjugatedSingleBond NonConjugatedSingleBond NonConjugatedSingleBond NonConjugatedSingleBond NonConjugatedSingleBond NonConjugatedSingleBond NonConjugatedSingleBond NonConjugatedSingleBond NonConjugatedSingleBond NonConjugatedSingleBond NonConjugatedSingleBond ConjugatedSingleBond NonConjugatedSingleBond ConjugatedSingleBond ConjugatedSingleBond ConjugatedDoubleBond ConjugatedSingleBond ConjugatedSingleBond ConjugatedSingleBond ConjugatedDoubleBond NonConjugatedSingleBond NonConjugatedSingleBond NonConjugatedSingleBond NonConjugatedSingleBond NonConjugatedSingleBond ConjugatedDoubleBond NonConjugatedSingleBond NonConjugatedSingleBond NonConjugatedSingleBond NonConjugatedSingleBond NonConjugatedSingleBond NonConjugatedSingleBond NonConjugatedSingleBond NonConjugatedSingleBond NonConjugatedSingleBond NonConjugatedSingleBond NonConjugatedSingleBond NonConjugatedSingleBond ConjugatedDoubleBond NonConjugatedSingleBond NonConjugatedSingleBond NonConjugatedSingleBond NonConjugatedSingleBond NonConjugatedSingleBond NonConjugatedSingleBond NonConjugatedSingleBond NonConjugatedSingleBond NonConjugatedSingleBond NonConjugatedSingleBond NonConjugatedSingleBond NonConjugatedSingleBond ConjugatedDoubleBond NonConjugatedSingleBond NonConjugatedSingleBond NonConjugatedSingleBond NonConjugatedSingleBond NonConjugatedSingleBond NonConjugatedSingleBond NonConjugatedSingleBond NonConjugatedSingleBond NonConjugatedSingleBond NonConjugatedSingleBond NonConjugatedSingleBond NonConjugatedSingleBond ConjugatedDoubleBond NonConjugatedSingleBond NonConjugatedSingleBond NonConjugatedSingleBond NonConjugatedSingleBond NonConjugatedSingleBond NonConjugatedSingleBond NonConjugatedSingleBond NonConjugatedSingleBond NonConjugatedSingleBond NonConjugatedSingleBond NonConjugatedSingleBond NonConjugatedSingleBond ConjugatedDoubleBond NonConjugatedSingleBond NonConjugatedSingleBond NonConjugatedSingleBond NonConjugatedSingleBond NonConjugatedSingleBond NonConjugatedSingleBond NonConjugatedSingleBond NonConjugatedSingleBond NonConjugatedSingleBond NonConjugatedSingleBond NonConjugatedSingleBond NonConjugatedSingleBond ConjugatedDoubleBond NonConjugatedSingleBond NonConjugatedSingleBond NonConjugatedSingleBond NonConjugatedSingleBond NonConjugatedSingleBond NonConjugatedSingleBond NonConjugatedSingleBond NonConjugatedSingleBond NonConjugatedSingleBond NonConjugatedSingleBond NonConjugatedSingleBond NonConjugatedSingleBond ConjugatedDoubleBond NonConjugatedSingleBond NonConjugatedSingleBond NonConjugatedSingleBond NonConjugatedSingleBond NonConjugatedSingleBond NonConjugatedSingleBond NonConjugatedSingleBond NonConjugatedSingleBond NonConjugatedSingleBond NonConjugatedSingleBond NonConjugatedSingleBond NonConjugatedSingleBond ConjugatedDoubleBond NonConjugatedSingleBond NonConjugatedSingleBond NonConjugatedSingleBond NonConjugatedSingleBond NonConjugatedSingleBond NonConjugatedSingleBond NonConjugatedSingleBond NonConjugatedSingleBond NonConjugatedSingleBond NonConjugatedSingleBond NonConjugatedSingleBond NonConjugatedSingleBond ConjugatedDoubleBond NonConjugatedSingleBond NonConjugatedSingleBond NonConjugatedSingleBond NonConjugatedSingleBond NonConjugatedSingleBond NonConjugatedSingleBond NonConjugatedSingleBond NonConjugatedSingleBond NonConjugatedSingleBond NonConjugatedSingleBond NonConjugatedSingleBond NonConjugatedSingleBond ConjugatedDoubleBond NonConjugatedSingleBond NonConjugatedSingleBond NonConjugatedSingleBond NonConjugatedSingleBond NonConjugatedSingleBond NonConjugatedSingleBond NonConjugatedSingleBond NonConjugatedSingleBond NonConjugatedSingleBond NonConjugatedSingleBondInRing NonConjugatedSingleBondInRing NonConjugatedSingleBond NonConjugatedSingleBond NonConjugatedSingleBondInRing NonConjugatedSingleBond NonConjugatedSingleBondInRing NonConjugatedSingleBond NonConjugatedSingleBondInRing NonConjugatedSingleBond NonConjugatedSingleBond NonConjugatedSingleBondInRing NonConjugatedSingleBond NonConjugatedSingleBond NonConjugatedSingleBond NonConjugatedSingleBond NonConjugatedSingleBond NonConjugatedSingleBond NonConjugatedSingleBond NonConjugatedSingleBond NonConjugatedSingleBond NonConjugatedSingleBondInRing NonConjugatedSingleBondInRing NonConjugatedSingleBond NonConjugatedSingleBondInRing NonConjugatedSingleBond NonConjugatedSingleBondInRing NonConjugatedSingleBond NonConjugatedSingleBondInRing NonConjugatedSingleBond NonConjugatedSingleBondInRing NonConjugatedSingleBond NonConjugatedSingleBond NonConjugatedSingleBond NonConjugatedSingleBond AmideSingleBond NonConjugatedSingleBond NonConjugatedSingleBond NonConjugatedSingleBond NonConjugatedSingleBond NonConjugatedSingleBond ConjugatedDoubleBond NonConjugatedSingleBond NonConjugatedSingleBond NonConjugatedSingleBond NonConjugatedSingleBond
M  BCL CHI   1   R   4   R   8   R  17   S  20   R  22   S  25   R  29   S  38   S  42   R  46   R  50   S 185   R 187   S 190   S 192   R 194   R 205   R 207   S 210   R 212   S 214   S
M  BCL DBI - - E E E E E E E E Z - -
M  END
> <ConfClashScore>
0.00788587 

> <ConfOneFourInteractionScore>
-0.96603 

> <ConfScore>
0.857019 

> <ConfScorePBest>
0.0105665 

> <ConfTolerance>
3.26431 

$$$$
L05.****
  PyMOL2.5          3D                             0

230233  0  0  0  0  0  0  0  0999 V2000
   12.1228   -3.5125   -3.4849 C   0  0  0  1  0  0  0  0  0  0  0  0
   12.2891   -4.4292   -4.0111 H   0  0  0  1  0  0  0  0  0  0  0  0
   11.9241   -2.4628   -4.3875 O   0  0  0  1  0  0  0  0  0  0  0  0
   10.8346   -3.6008   -2.6514 C   0  0  0  1  0  0  0  0  0  0  0  0
   10.8681   -2.9321   -1.8168 H   0  0  0  1  0  0  0  0  0  0  0  0
   10.6118   -4.9329   -2.1864 O   0  0  0  1  0  0  0  0  0  0  0  0
   10.9666   -5.5580   -2.8228 H   0  0  0  1  0  0  0  0  0  0  0  0
    9.7667   -3.1819   -3.6465 C   0  0  0  1  0  0  0  0  0  0  0  0
    9.4071   -4.0225   -4.2024 H   0  0  0  1  0  0  0  0  0  0  0  0
    8.6723   -2.5426   -2.9878 O   0  0  0  1  0  0  0  0  0  0  0  0
    8.9012   -2.3808   -2.0696 H   0  0  0  1  0  0  0  0  0  0  0  0
   10.3783   -3.8505   -6.4154 C   0  0  0  1  0  0  0  0  0  0  0  0
   11.2528   -4.2082   -5.9132 H   0  0  0  1  0  0  0  0  0  0  0  0
    9.5367   -4.4502   -6.1380 H   0  0  0  1  0  0  0  0  0  0  0  0
   10.5739   -3.9321   -7.8210 O   0  0  0  1  0  0  0  0  0  0  0  0
    9.7661   -3.6766   -8.2723 H   0  0  0  1  0  0  0  0  0  0  0  0
   10.1222   -2.4042   -6.0168 C   0  0  0  1  0  0  0  0  0  0  0  0
    9.0786   -2.1939   -6.1241 H   0  0  0  1  0  0  0  0  0  0  0  0
   10.8913   -1.5070   -6.8102 O   0  0  0  1  0  0  0  0  0  0  0  0
   10.5227   -2.1890   -4.5634 C   0  0  0  1  0  0  0  0  0  0  0  0
   10.3037   -1.1813   -4.2780 H   0  0  0  1  0  0  0  0  0  0  0  0
   10.1583   -0.8943   -7.8472 C   0  0  0  1  0  0  0  0  0  0  0  0
    9.1999   -1.3627   -7.9322 H   0  0  0  1  0  0  0  0  0  0  0  0
   10.0611    0.5175   -7.6839 O   0  0  0  1  0  0  0  0  0  0  0  0
   10.8878   -0.8816   -9.1146 C   0  0  0  1  0  0  0  0  0  0  0  0
   10.6794   -1.7705   -9.6726 H   0  0  0  1  0  0  0  0  0  0  0  0
   12.2932   -0.7859   -8.8775 O   0  0  0  1  0  0  0  0  0  0  0  0
   12.7060   -0.2955   -9.5921 H   0  0  0  1  0  0  0  0  0  0  0  0
   10.4424    0.2242   -9.7949 C   0  0  0  1  0  0  0  0  0  0  0  0
    9.9927   -0.0655  -10.7216 H   0  0  0  1  0  0  0  0  0  0  0  0
   11.5227    1.1174  -10.0494 O   0  0  0  1  0  0  0  0  0  0  0  0
   11.2054    1.8674  -10.5579 H   0  0  0  1  0  0  0  0  0  0  0  0
    7.3648    0.5992  -10.4029 C   0  0  0  1  0  0  0  0  0  0  0  0
    6.5191   -0.0410  -10.5441 H   0  0  0  1  0  0  0  0  0  0  0  0
    7.0418    1.6191  -10.3868 H   0  0  0  1  0  0  0  0  0  0  0  0
    8.3041    0.4032  -11.4556 O   0  0  0  1  0  0  0  0  0  0  0  0
    8.9687    1.0953  -11.4250 H   0  0  0  1  0  0  0  0  0  0  0  0
    8.0731    0.2508   -9.0800 C   0  0  0  1  0  0  0  0  0  0  0  0
    8.2058   -0.8109   -9.0742 H   0  0  0  1  0  0  0  0  0  0  0  0
    7.3310    0.6086   -7.9172 O   0  0  0  1  0  0  0  0  0  0  0  0
    6.4814    0.9713   -8.1782 H   0  0  0  1  0  0  0  0  0  0  0  0
    9.4521    0.8587   -8.9258 C   0  0  0  1  0  0  0  0  0  0  0  0
    9.3950    1.9166   -9.0758 H   0  0  0  1  0  0  0  0  0  0  0  0
   13.2386   -3.2380   -2.6442 O   0  0  0  1  0  0  0  0  0  0  0  0
   19.8864  -10.4958    1.3294 O   0  0  0  1  0  0  0  0  0  0  0  0
   18.5535   -9.7455    0.8265 P   0  0  0  1  0  0  0  0  0  0  0  0
   19.2370   -8.5229    0.0458 O   0  0  0  1  0  0  0  0  0  0  0  0
   17.9270   -9.2413    2.0730 O   0  0  0  0  0  0  0  0  0  0  0  0
   17.7828  -10.6056   -0.1004 O   0  0  0  1  0  0  0  0  0  0  0  0
   20.7581   -8.1575   -0.1483 P   0  0  0  1  0  0  0  0  0  0  0  0
   20.6225   -6.6030   -0.3516 O   0  0  0  1  0  0  0  0  0  0  0  0
   21.1337   -8.8177   -1.4189 O   0  0  0  0  0  0  0  0  0  0  0  0
   21.5857   -8.4010    1.0529 O   0  0  0  1  0  0  0  0  0  0  0  0
   19.8065  -11.7416    2.0401 C   0  0  0  1  0  0  0  0  0  0  0  0
   18.8740  -11.7999    2.5616 H   0  0  0  1  0  0  0  0  0  0  0  0
   20.6124  -11.8092    2.7407 H   0  0  0  1  0  0  0  0  0  0  0  0
   19.9025  -12.8644    1.0495 C   0  0  0  1  0  0  0  0  0  0  0  0
   18.9972  -13.1749    0.6427 H   0  0  0  1  0  0  0  0  0  0  0  0
   20.9832  -13.5270    0.6108 C   0  0  0  1  0  0  0  0  0  0  0  0
   20.9916  -14.4067   -0.6072 C   0  0  0  1  0  0  0  0  0  0  0  0
   21.4312  -13.8777   -1.4269 H   0  0  0  1  0  0  0  0  0  0  0  0
   19.9875  -14.6797   -0.8567 H   0  0  0  1  0  0  0  0  0  0  0  0
   21.5620  -15.2892   -0.4056 H   0  0  0  1  0  0  0  0  0  0  0  0
   22.3266  -13.4777    1.2777 C   0  0  0  1  0  0  0  0  0  0  0  0
   22.3206  -12.6638    1.9724 H   0  0  0  1  0  0  0  0  0  0  0  0
   23.0634  -13.2976    0.5230 H   0  0  0  1  0  0  0  0  0  0  0  0
   22.7259  -14.7353    2.0323 C   0  0  0  1  0  0  0  0  0  0  0  0
   22.5485  -15.5677    1.3838 H   0  0  0  1  0  0  0  0  0  0  0  0
   22.0908  -14.8091    2.8902 H   0  0  0  1  0  0  0  0  0  0  0  0
   24.1470  -14.8354    2.5145 C   0  0  0  1  0  0  0  0  0  0  0  0
   24.9015  -14.7966    1.7998 H   0  0  0  1  0  0  0  0  0  0  0  0
   24.5119  -14.9702    3.7908 C   0  0  0  1  0  0  0  0  0  0  0  0
   25.9312  -14.7332    4.2234 C   0  0  0  1  0  0  0  0  0  0  0  0
   26.0306  -13.7330    4.5900 H   0  0  0  1  0  0  0  0  0  0  0  0
   26.5863  -14.8738    3.3891 H   0  0  0  1  0  0  0  0  0  0  0  0
   26.1875  -15.4243    4.9991 H   0  0  0  1  0  0  0  0  0  0  0  0
   23.5199  -15.3636    4.8453 C   0  0  0  1  0  0  0  0  0  0  0  0
   22.5497  -15.4165    4.3973 H   0  0  0  1  0  0  0  0  0  0  0  0
   23.5201  -14.6147    5.6095 H   0  0  0  1  0  0  0  0  0  0  0  0
   23.8316  -16.7071    5.4844 C   0  0  0  1  0  0  0  0  0  0  0  0
   24.7814  -16.6398    5.9727 H   0  0  0  1  0  0  0  0  0  0  0  0
   23.8778  -17.4482    4.7140 H   0  0  0  1  0  0  0  0  0  0  0  0
   22.8015  -17.1317    6.4966 C   0  0  0  1  0  0  0  0  0  0  0  0
   23.1588  -17.4108    7.4326 H   0  0  0  1  0  0  0  0  0  0  0  0
   21.4798  -17.1890    6.3232 C   0  0  0  1  0  0  0  0  0  0  0  0
   20.8505  -16.8100    5.0141 C   0  0  0  1  0  0  0  0  0  0  0  0
   20.0340  -17.4748    4.8235 H   0  0  0  1  0  0  0  0  0  0  0  0
   21.5833  -16.9136    4.2413 H   0  0  0  1  0  0  0  0  0  0  0  0
   20.5679  -17.6351    7.4312 C   0  0  0  1  0  0  0  0  0  0  0  0
   20.3689  -18.6817    7.3306 H   0  0  0  1  0  0  0  0  0  0  0  0
   19.6483  -17.0907    7.3771 H   0  0  0  1  0  0  0  0  0  0  0  0
   21.0371  -17.4507    8.3750 H   0  0  0  1  0  0  0  0  0  0  0  0
   20.3268  -15.3832    4.9961 C   0  0  0  1  0  0  0  0  0  0  0  0
   21.1548  -14.7299    4.8157 H   0  0  0  1  0  0  0  0  0  0  0  0
   19.9090  -15.1728    5.9584 H   0  0  0  1  0  0  0  0  0  0  0  0
   19.2747  -15.0956    3.9606 C   0  0  0  1  0  0  0  0  0  0  0  0
   19.4232  -15.4775    3.0047 H   0  0  0  1  0  0  0  0  0  0  0  0
   18.1685  -14.3892    4.1761 C   0  0  0  1  0  0  0  0  0  0  0  0
   17.9146  -13.4986    5.3629 C   0  0  0  1  0  0  0  0  0  0  0  0
   18.1586  -14.0397    6.2531 H   0  0  0  1  0  0  0  0  0  0  0  0
   16.8772  -13.2372    5.3768 H   0  0  0  1  0  0  0  0  0  0  0  0
   17.0392  -14.4541    3.1693 C   0  0  0  1  0  0  0  0  0  0  0  0
   17.3363  -15.0585    2.3378 H   0  0  0  1  0  0  0  0  0  0  0  0
   16.8089  -13.4666    2.8279 H   0  0  0  1  0  0  0  0  0  0  0  0
   16.1745  -14.8832    3.6308 H   0  0  0  1  0  0  0  0  0  0  0  0
   18.7355  -12.2196    5.3339 C   0  0  0  1  0  0  0  0  0  0  0  0
   18.5448  -11.7261    4.4038 H   0  0  0  1  0  0  0  0  0  0  0  0
   19.7694  -12.4897    5.3896 H   0  0  0  1  0  0  0  0  0  0  0  0
   18.4444  -11.2257    6.4655 C   0  0  0  1  0  0  0  0  0  0  0  0
   19.1480  -10.4746    6.6152 H   0  0  0  1  0  0  0  0  0  0  0  0
   17.3931  -11.2202    7.2733 C   0  0  0  1  0  0  0  0  0  0  0  0
   16.1606  -12.0075    6.9926 C   0  0  0  1  0  0  0  0  0  0  0  0
   16.3834  -13.0462    7.1209 H   0  0  0  1  0  0  0  0  0  0  0  0
   15.8650  -11.8280    5.9801 H   0  0  0  1  0  0  0  0  0  0  0  0
   17.4469  -10.3679    8.5508 C   0  0  0  1  0  0  0  0  0  0  0  0
   16.6001   -9.7145    8.5802 H   0  0  0  1  0  0  0  0  0  0  0  0
   18.3456   -9.7871    8.5541 H   0  0  0  1  0  0  0  0  0  0  0  0
   17.4326  -11.0087    9.4076 H   0  0  0  1  0  0  0  0  0  0  0  0
   15.0014  -11.6450    7.9066 C   0  0  0  1  0  0  0  0  0  0  0  0
   14.6714  -10.6609    7.6465 H   0  0  0  1  0  0  0  0  0  0  0  0
   15.3624  -11.6461    8.9138 H   0  0  0  1  0  0  0  0  0  0  0  0
   13.8131  -12.5665    7.8381 C   0  0  0  1  0  0  0  0  0  0  0  0
   13.9833  -13.5826    7.9807 H   0  0  0  1  0  0  0  0  0  0  0  0
   12.5631  -12.1786    7.6092 C   0  0  0  1  0  0  0  0  0  0  0  0
   12.1025  -10.7515    7.7033 C   0  0  0  1  0  0  0  0  0  0  0  0
   12.8891  -10.1675    8.1333 H   0  0  0  1  0  0  0  0  0  0  0  0
   11.2413  -10.7127    8.3371 H   0  0  0  1  0  0  0  0  0  0  0  0
   11.4931  -13.1604    7.2306 C   0  0  0  1  0  0  0  0  0  0  0  0
   11.8592  -14.1569    7.3642 H   0  0  0  1  0  0  0  0  0  0  0  0
   11.2221  -13.0147    6.2058 H   0  0  0  1  0  0  0  0  0  0  0  0
   10.6351  -13.0096    7.8518 H   0  0  0  1  0  0  0  0  0  0  0  0
   11.7377  -10.1534    6.3543 C   0  0  0  1  0  0  0  0  0  0  0  0
   11.1157  -10.8488    5.8304 H   0  0  0  1  0  0  0  0  0  0  0  0
   12.6379   -9.9908    5.7993 H   0  0  0  1  0  0  0  0  0  0  0  0
   11.0072   -8.8532    6.4682 C   0  0  0  1  0  0  0  0  0  0  0  0
   11.4661   -8.1117    7.0350 H   0  0  0  1  0  0  0  0  0  0  0  0
    9.8311   -8.5414    5.9215 C   0  0  0  1  0  0  0  0  0  0  0  0
    9.1346   -9.5171    4.9994 C   0  0  0  1  0  0  0  0  0  0  0  0
    9.8465  -10.2474    4.6757 H   0  0  0  1  0  0  0  0  0  0  0  0
    8.7640   -8.9794    4.1518 H   0  0  0  1  0  0  0  0  0  0  0  0
    9.2256   -7.2074    6.1210 C   0  0  0  1  0  0  0  0  0  0  0  0
    8.9083   -7.1076    7.1380 H   0  0  0  1  0  0  0  0  0  0  0  0
    8.3818   -7.0983    5.4721 H   0  0  0  1  0  0  0  0  0  0  0  0
    9.9484   -6.4508    5.8973 H   0  0  0  1  0  0  0  0  0  0  0  0
    7.9712  -10.2364    5.6625 C   0  0  0  1  0  0  0  0  0  0  0  0
    7.2214   -9.5146    5.9105 H   0  0  0  1  0  0  0  0  0  0  0  0
    8.3257  -10.7049    6.5568 H   0  0  0  1  0  0  0  0  0  0  0  0
    7.3507  -11.2892    4.7836 C   0  0  0  1  0  0  0  0  0  0  0  0
    7.9762  -11.7357    4.0828 H   0  0  0  1  0  0  0  0  0  0  0  0
    6.0795  -11.7137    4.8062 C   0  0  0  1  0  0  0  0  0  0  0  0
    5.0567  -11.1629    5.7634 C   0  0  0  1  0  0  0  0  0  0  0  0
    4.1784  -11.7718    5.7109 H   0  0  0  1  0  0  0  0  0  0  0  0
    4.8164  -10.1632    5.4670 H   0  0  0  1  0  0  0  0  0  0  0  0
    5.6543  -12.7892    3.8317 C   0  0  0  1  0  0  0  0  0  0  0  0
    4.8800  -12.4106    3.1975 H   0  0  0  1  0  0  0  0  0  0  0  0
    5.2889  -13.6366    4.3732 H   0  0  0  1  0  0  0  0  0  0  0  0
    6.4929  -13.0812    3.2348 H   0  0  0  1  0  0  0  0  0  0  0  0
    5.5421  -11.1370    7.2036 C   0  0  0  1  0  0  0  0  0  0  0  0
    6.3725  -10.4646    7.2600 H   0  0  0  1  0  0  0  0  0  0  0  0
    5.8639  -12.1244    7.4612 H   0  0  0  1  0  0  0  0  0  0  0  0
    4.5221  -10.7012    8.2202 C   0  0  0  1  0  0  0  0  0  0  0  0
    3.6592  -11.2778    8.2878 H   0  0  0  1  0  0  0  0  0  0  0  0
    4.6042   -9.6604    9.0404 C   0  0  0  1  0  0  0  0  0  0  0  0
    3.3972   -9.1419    9.7668 C   0  0  0  1  0  0  0  0  0  0  0  0
    2.9457   -8.3644    9.1867 H   0  0  0  1  0  0  0  0  0  0  0  0
    3.7000   -8.7500   10.7153 H   0  0  0  1  0  0  0  0  0  0  0  0
    5.8767   -8.9119    9.3212 C   0  0  0  1  0  0  0  0  0  0  0  0
    6.6078   -9.3340    8.6637 H   0  0  0  1  0  0  0  0  0  0  0  0
    6.1709   -9.0442   10.3415 H   0  0  0  1  0  0  0  0  0  0  0  0
    5.7495   -7.8691    9.1185 H   0  0  0  1  0  0  0  0  0  0  0  0
    2.3827  -10.2522    9.9874 C   0  0  0  1  0  0  0  0  0  0  0  0
    2.7282  -10.8586   10.7985 H   0  0  0  1  0  0  0  0  0  0  0  0
    2.3384  -10.8409    9.0950 H   0  0  0  1  0  0  0  0  0  0  0  0
    0.9946   -9.7976   10.3098 C   0  0  0  1  0  0  0  0  0  0  0  0
    0.5403   -9.1684    9.6174 H   0  0  0  1  0  0  0  0  0  0  0  0
    0.2796  -10.1103   11.3839 C   0  0  0  1  0  0  0  0  0  0  0  0
   -1.0945   -9.5454   11.5984 C   0  0  0  1  0  0  0  0  0  0  0  0
   -1.3729   -8.9520   10.7526 H   0  0  0  1  0  0  0  0  0  0  0  0
   -1.0960   -8.9356   12.4776 H   0  0  0  1  0  0  0  0  0  0  0  0
   -1.7943  -10.3460   11.7179 H   0  0  0  1  0  0  0  0  0  0  0  0
    0.7554  -11.0358   12.4681 C   0  0  0  1  0  0  0  0  0  0  0  0
    1.7541  -11.3300   12.2215 H   0  0  0  1  0  0  0  0  0  0  0  0
    0.1222  -11.8969   12.5177 H   0  0  0  1  0  0  0  0  0  0  0  0
    0.7453  -10.5302   13.4111 H   0  0  0  1  0  0  0  0  0  0  0  0
   16.0180   -5.0961   -1.4557 C   0  0  0  1  0  0  0  0  0  0  0  0
   16.2117   -5.5863   -0.5246 H   0  0  0  1  0  0  0  0  0  0  0  0
   14.8490   -5.7746   -2.1581 C   0  0  0  1  0  0  0  0  0  0  0  0
   15.0902   -6.7986   -2.3534 H   0  0  0  1  0  0  0  0  0  0  0  0
   15.6810   -3.7325   -1.2180 O   0  0  0  1  0  0  0  0  0  0  0  0
   14.5892   -5.0494   -3.4697 C   0  0  0  1  0  0  0  0  0  0  0  0
   13.6747   -5.4149   -3.8879 H   0  0  0  1  0  0  0  0  0  0  0  0
   15.6277   -2.9977   -2.4475 C   0  0  0  1  0  0  0  0  0  0  0  0
   16.5496   -3.1157   -2.9776 H   0  0  0  1  0  0  0  0  0  0  0  0
   14.4757   -3.5400   -3.2926 C   0  0  0  1  0  0  0  0  0  0  0  0
   14.4980   -3.0726   -4.2549 H   0  0  0  1  0  0  0  0  0  0  0  0
   17.1764   -5.1658   -2.2792 O   0  0  0  1  0  0  0  0  0  0  0  0
   13.6855   -5.7078   -1.3316 O   0  0  0  1  0  0  0  0  0  0  0  0
   12.9038   -5.8682   -1.8653 H   0  0  0  1  0  0  0  0  0  0  0  0
   15.6608   -5.3232   -4.3606 O   0  0  0  1  0  0  0  0  0  0  0  0
   15.9985   -4.4990   -4.7185 H   0  0  0  1  0  0  0  0  0  0  0  0
   15.3965   -1.5245   -2.1531 C   0  0  0  1  0  0  0  0  0  0  0  0
   15.9264   -0.9301   -2.8678 H   0  0  0  1  0  0  0  0  0  0  0  0
   15.7500   -1.2980   -1.1689 H   0  0  0  1  0  0  0  0  0  0  0  0
   14.3504   -1.3085   -2.2154 H   0  0  0  1  0  0  0  0  0  0  0  0
   19.7812   -6.0783   -1.3432 C   0  0  0  1  0  0  0  0  0  0  0  0
   19.0743   -6.8236   -1.6429 H   0  0  0  1  0  0  0  0  0  0  0  0
   19.0392   -4.8710   -0.7900 C   0  0  0  1  0  0  0  0  0  0  0  0
   19.7436   -4.1514   -0.4282 H   0  0  0  1  0  0  0  0  0  0  0  0
   20.5602   -5.6878   -2.4654 O   0  0  0  1  0  0  0  0  0  0  0  0
   18.2020   -4.2521   -1.9050 C   0  0  0  1  0  0  0  0  0  0  0  0
   17.7598   -3.3453   -1.5485 H   0  0  0  1  0  0  0  0  0  0  0  0
   19.7635   -5.2193   -3.5685 C   0  0  0  1  0  0  0  0  0  0  0  0
   20.3914   -5.0098   -4.4092 H   0  0  0  1  0  0  0  0  0  0  0  0
   19.0560   -3.9437   -3.1159 C   0  0  0  1  0  0  0  0  0  0  0  0
   18.4359   -3.5783   -3.9076 H   0  0  0  1  0  0  0  0  0  0  0  0
   18.1675   -5.2902    0.3014 N   0  0  0  1  0  0  0  0  0  0  0  0
   17.5797   -6.0628    0.1671 H   0  0  0  1  0  0  0  0  0  0  0  0
   20.0215   -2.9599   -2.7777 O   0  0  0  1  0  0  0  0  0  0  0  0
   19.5340   -2.2079   -2.4335 H   0  0  0  1  0  0  0  0  0  0  0  0
   18.7484   -6.2621   -3.9477 C   0  0  0  1  0  0  0  0  0  0  0  0
   19.1712   -6.8957   -4.6992 H   0  0  0  1  0  0  0  0  0  0  0  0
   17.8823   -5.7715   -4.3401 H   0  0  0  1  0  0  0  0  0  0  0  0
   18.3564   -7.0644   -2.8431 O   0  0  0  1  0  0  0  0  0  0  0  0
   18.1069   -7.9302   -3.1743 H   0  0  0  1  0  0  0  0  0  0  0  0
   18.1421   -4.6514    1.4895 C   0  0  0  1  0  0  0  0  0  0  0  0
   18.9062   -3.7286    1.7260 O   0  0  0  1  0  0  0  0  0  0  0  0
   17.1386   -5.1114    2.5225 C   0  0  0  1  0  0  0  0  0  0  0  0
   17.2706   -6.1723    2.5683 H   0  0  0  1  0  0  0  0  0  0  0  0
   16.1425   -4.8668    2.2177 H   0  0  0  1  0  0  0  0  0  0  0  0
   17.3414   -4.6635    3.4729 H   0  0  0  1  0  0  0  0  0  0  0  0
  1  2  1  0  0  0  0
  1  3  1  0  0  0  0
  1  4  1  0  0  0  0
  1 44  1  0  0  0  0
  3 20  1  0  0  0  0
  4  5  1  0  0  0  0
  4  6  1  0  0  0  0
  4  8  1  0  0  0  0
  6  7  1  0  0  0  0
  8  9  1  0  0  0  0
  8 10  1  0  0  0  0
  8 20  1  0  0  0  0
 10 11  1  0  0  0  0
 12 13  1  0  0  0  0
 12 14  1  0  0  0  0
 12 15  1  0  0  0  0
 12 17  1  0  0  0  0
 15 16  1  0  0  0  0
 17 18  1  0  0  0  0
 17 19  1  0  0  0  0
 17 20  1  0  0  0  0
 19 22  1  0  0  0  0
 20 21  1  0  0  0  0
 22 23  1  0  0  0  0
 22 24  1  0  0  0  0
 22 25  1  0  0  0  0
 24 42  1  0  0  0  0
 25 26  1  0  0  0  0
 25 27  1  0  0  0  0
 25 29  1  0  0  0  0
 27 28  1  0  0  0  0
 29 30  1  0  0  0  0
 29 31  1  0  0  0  0
 29 42  1  0  0  0  0
 31 32  1  0  0  0  0
 33 34  1  0  0  0  0
 33 35  1  0  0  0  0
 33 36  1  0  0  0  0
 33 38  1  0  0  0  0
 36 37  1  0  0  0  0
 38 39  1  0  0  0  0
 38 40  1  0  0  0  0
 38 42  1  0  0  0  0
 40 41  1  0  0  0  0
 42 43  1  0  0  0  0
 44194  1  0  0  0  0
 45 46  1  0  0  0  0
 45 54  1  0  0  0  0
 46 47  1  0  0  0  0
 46 48  1  0  0  0  0
 46 49  2  0  0  0  0
 47 50  1  0  0  0  0
 50 51  1  0  0  0  0
 50 52  1  0  0  0  0
 50 53  2  0  0  0  0
 51205  1  0  0  0  0
 54 55  1  0  0  0  0
 54 56  1  0  0  0  0
 54 57  1  0  0  0  0
 57 58  1  0  0  0  0
 57 59  2  0  0  0  0
 59 60  1  0  0  0  0
 59 64  1  0  0  0  0
 60 61  1  0  0  0  0
 60 62  1  0  0  0  0
 60 63  1  0  0  0  0
 64 65  1  0  0  0  0
 64 66  1  0  0  0  0
 64 67  1  0  0  0  0
 67 68  1  0  0  0  0
 67 69  1  0  0  0  0
 67 70  1  0  0  0  0
 70 71  1  0  0  0  0
 70 72  2  0  0  0  0
 72 73  1  0  0  0  0
 72 77  1  0  0  0  0
 73 74  1  0  0  0  0
 73 75  1  0  0  0  0
 73 76  1  0  0  0  0
 77 78  1  0  0  0  0
 77 79  1  0  0  0  0
 77 80  1  0  0  0  0
 80 81  1  0  0  0  0
 80 82  1  0  0  0  0
 80 83  1  0  0  0  0
 83 84  1  0  0  0  0
 83 85  2  0  0  0  0
 85 86  1  0  0  0  0
 85 89  1  0  0  0  0
 86 87  1  0  0  0  0
 86 88  1  0  0  0  0
 86 93  1  0  0  0  0
 89 90  1  0  0  0  0
 89 91  1  0  0  0  0
 89 92  1  0  0  0  0
 93 94  1  0  0  0  0
 93 95  1  0  0  0  0
 93 96  1  0  0  0  0
 96 97  1  0  0  0  0
 96 98  2  0  0  0  0
 98 99  1  0  0  0  0
 98102  1  0  0  0  0
 99100  1  0  0  0  0
 99101  1  0  0  0  0
 99106  1  0  0  0  0
102103  1  0  0  0  0
102104  1  0  0  0  0
102105  1  0  0  0  0
106107  1  0  0  0  0
106108  1  0  0  0  0
106109  1  0  0  0  0
109110  1  0  0  0  0
109111  2  0  0  0  0
111112  1  0  0  0  0
111115  1  0  0  0  0
112113  1  0  0  0  0
112114  1  0  0  0  0
112119  1  0  0  0  0
115116  1  0  0  0  0
115117  1  0  0  0  0
115118  1  0  0  0  0
119120  1  0  0  0  0
119121  1  0  0  0  0
119122  1  0  0  0  0
122123  1  0  0  0  0
122124  2  0  0  0  0
124125  1  0  0  0  0
124128  1  0  0  0  0
125126  1  0  0  0  0
125127  1  0  0  0  0
125132  1  0  0  0  0
128129  1  0  0  0  0
128130  1  0  0  0  0
128131  1  0  0  0  0
132133  1  0  0  0  0
132134  1  0  0  0  0
132135  1  0  0  0  0
135136  1  0  0  0  0
135137  2  0  0  0  0
137138  1  0  0  0  0
137141  1  0  0  0  0
138139  1  0  0  0  0
138140  1  0  0  0  0
138145  1  0  0  0  0
141142  1  0  0  0  0
141143  1  0  0  0  0
141144  1  0  0  0  0
145146  1  0  0  0  0
145147  1  0  0  0  0
145148  1  0  0  0  0
148149  1  0  0  0  0
148150  2  0  0  0  0
150151  1  0  0  0  0
150154  1  0  0  0  0
151152  1  0  0  0  0
151153  1  0  0  0  0
151158  1  0  0  0  0
154155  1  0  0  0  0
154156  1  0  0  0  0
154157  1  0  0  0  0
158159  1  0  0  0  0
158160  1  0  0  0  0
158161  1  0  0  0  0
161162  1  0  0  0  0
161163  2  0  0  0  0
163164  1  0  0  0  0
163167  1  0  0  0  0
164165  1  0  0  0  0
164166  1  0  0  0  0
164171  1  0  0  0  0
167168  1  0  0  0  0
167169  1  0  0  0  0
167170  1  0  0  0  0
171172  1  0  0  0  0
171173  1  0  0  0  0
171174  1  0  0  0  0
174175  1  0  0  0  0
174176  2  0  0  0  0
176177  1  0  0  0  0
176181  1  0  0  0  0
177178  1  0  0  0  0
177179  1  0  0  0  0
177180  1  0  0  0  0
181182  1  0  0  0  0
181183  1  0  0  0  0
181184  1  0  0  0  0
185186  1  0  0  0  0
185187  1  0  0  0  0
185189  1  0  0  0  0
185196  1  0  0  0  0
187188  1  0  0  0  0
187190  1  0  0  0  0
187197  1  0  0  0  0
189192  1  0  0  0  0
190191  1  0  0  0  0
190194  1  0  0  0  0
190199  1  0  0  0  0
192193  1  0  0  0  0
192194  1  0  0  0  0
192201  1  0  0  0  0
194195  1  0  0  0  0
196210  1  0  0  0  0
197198  1  0  0  0  0
199200  1  0  0  0  0
201202  1  0  0  0  0
201203  1  0  0  0  0
201204  1  0  0  0  0
205206  1  0  0  0  0
205207  1  0  0  0  0
205209  1  0  0  0  0
207208  1  0  0  0  0
207210  1  0  0  0  0
207216  1  0  0  0  0
209212  1  0  0  0  0
210211  1  0  0  0  0
210214  1  0  0  0  0
212213  1  0  0  0  0
212214  1  0  0  0  0
212220  1  0  0  0  0
214215  1  0  0  0  0
214218  1  0  0  0  0
216217  1  0  0  0  0
216225  1  0  0  0  0
218219  1  0  0  0  0
220221  1  0  0  0  0
220222  1  0  0  0  0
220223  1  0  0  0  0
223224  1  0  0  0  0
225226  2  0  0  0  0
225227  1  0  0  0  0
227228  1  0  0  0  0
227229  1  0  0  0  0
227230  1  0  0  0  0
M  BCL ATM C_TeTeTeTe H_S O_Te2Te2TeTe C_TeTeTeTe H_S O_Te2Te2TeTe H_S C_TeTeTeTe H_S O_Te2Te2TeTe H_S C_TeTeTeTe H_S H_S O_Te2Te2TeTe H_S C_TeTeTeTe H_S O_Te2Te2TeTe C_TeTeTeTe H_S C_TeTeTeTe H_S O_Te2Te2TeTe C_TeTeTeTe H_S O_Te2Te2TeTe H_S C_TeTeTeTe H_S O_Te2Te2TeTe H_S C_TeTeTeTe H_S H_S O_Te2Te2TeTe H_S C_TeTeTeTe H_S O_Te2Te2TeTe H_S C_TeTeTeTe H_S O_Te2Te2TeTe O_Tr2TrTrPi2 P_TeTeTeTePi O_Tr2TrTrPi2 O_Te2Te2TeTe O_Tr2Tr2TrPi P_TeTeTeTePi O_Tr2TrTrPi2 O_Te2Te2TeTe O_Tr2Tr2TrPi C_TeTeTeTe H_S H_S C_TrTrTrPi H_S C_TrTrTrPi C_TeTeTeTe H_S H_S H_S C_TeTeTeTe H_S H_S C_TeTeTeTe H_S H_S C_TrTrTrPi H_S C_TrTrTrPi C_TeTeTeTe H_S H_S H_S C_TeTeTeTe H_S H_S C_TeTeTeTe H_S H_S C_TrTrTrPi H_S C_TrTrTrPi C_TeTeTeTe H_S H_S C_TeTeTeTe H_S H_S H_S C_TeTeTeTe H_S H_S C_TrTrTrPi H_S C_TrTrTrPi C_TeTeTeTe H_S H_S C_TeTeTeTe H_S H_S H_S C_TeTeTeTe H_S H_S C_TrTrTrPi H_S C_TrTrTrPi C_TeTeTeTe H_S H_S C_TeTeTeTe H_S H_S H_S C_TeTeTeTe H_S H_S C_TrTrTrPi H_S C_TrTrTrPi C_TeTeTeTe H_S H_S C_TeTeTeTe H_S H_S H_S C_TeTeTeTe H_S H_S C_TrTrTrPi H_S C_TrTrTrPi C_TeTeTeTe H_S H_S C_TeTeTeTe H_S H_S H_S C_TeTeTeTe H_S H_S C_TrTrTrPi H_S C_TrTrTrPi C_TeTeTeTe H_S H_S C_TeTeTeTe H_S H_S H_S C_TeTeTeTe H_S H_S C_TrTrTrPi H_S C_TrTrTrPi C_TeTeTeTe H_S H_S C_TeTeTeTe H_S H_S H_S C_TeTeTeTe H_S H_S C_TrTrTrPi H_S C_TrTrTrPi C_TeTeTeTe H_S H_S H_S C_TeTeTeTe H_S H_S H_S C_TeTeTeTe H_S C_TeTeTeTe H_S O_Te2Te2TeTe C_TeTeTeTe H_S C_TeTeTeTe H_S C_TeTeTeTe H_S O_Te2Te2TeTe O_Te2Te2TeTe H_S O_Te2Te2TeTe H_S C_TeTeTeTe H_S H_S H_S C_TeTeTeTe H_S C_TeTeTeTe H_S O_Te2Te2TeTe C_TeTeTeTe H_S C_TeTeTeTe H_S C_TeTeTeTe H_S N_TrTrTrPi2 H_S O_Te2Te2TeTe H_S C_TeTeTeTe H_S H_S O_Te2Te2TeTe H_S C_TrTrTrPi O_Tr2Tr2TrPi C_TeTeTeTe H_S H_S H_S
M  BCL BND NonConjugatedSingleBond NonConjugatedSingleBondInRing NonConjugatedSingleBondInRing NonConjugatedSingleBond NonConjugatedSingleBondInRing NonConjugatedSingleBond NonConjugatedSingleBond NonConjugatedSingleBondInRing NonConjugatedSingleBond NonConjugatedSingleBond NonConjugatedSingleBond NonConjugatedSingleBondInRing NonConjugatedSingleBond NonConjugatedSingleBond NonConjugatedSingleBond NonConjugatedSingleBond NonConjugatedSingleBond NonConjugatedSingleBond NonConjugatedSingleBond NonConjugatedSingleBond NonConjugatedSingleBond NonConjugatedSingleBond NonConjugatedSingleBond NonConjugatedSingleBond NonConjugatedSingleBondInRing NonConjugatedSingleBondInRing NonConjugatedSingleBondInRing NonConjugatedSingleBond NonConjugatedSingleBond NonConjugatedSingleBondInRing NonConjugatedSingleBond NonConjugatedSingleBond NonConjugatedSingleBond NonConjugatedSingleBondInRing NonConjugatedSingleBond NonConjugatedSingleBond NonConjugatedSingleBond NonConjugatedSingleBond NonConjugatedSingleBond NonConjugatedSingleBond NonConjugatedSingleBond NonConjugatedSingleBond NonConjugatedSingleBond NonConjugatedSingleBond NonConjugatedSingleBond NonConjugatedSingleBond ConjugatedSingleBond NonConjugatedSingleBond ConjugatedSingleBond ConjugatedSingleBond ConjugatedDoubleBond ConjugatedSingleBond ConjugatedSingleBond ConjugatedSingleBond ConjugatedDoubleBond NonConjugatedSingleBond NonConjugatedSingleBond NonConjugatedSingleBond NonConjugatedSingleBond NonConjugatedSingleBond ConjugatedDoubleBond NonConjugatedSingleBond NonConjugatedSingleBond NonConjugatedSingleBond NonConjugatedSingleBond NonConjugatedSingleBond NonConjugatedSingleBond NonConjugatedSingleBond NonConjugatedSingleBond NonConjugatedSingleBond NonConjugatedSingleBond NonConjugatedSingleBond NonConjugatedSingleBond ConjugatedDoubleBond NonConjugatedSingleBond NonConjugatedSingleBond NonConjugatedSingleBond NonConjugatedSingleBond NonConjugatedSingleBond NonConjugatedSingleBond NonConjugatedSingleBond NonConjugatedSingleBond NonConjugatedSingleBond NonConjugatedSingleBond NonConjugatedSingleBond NonConjugatedSingleBond ConjugatedDoubleBond NonConjugatedSingleBond NonConjugatedSingleBond NonConjugatedSingleBond NonConjugatedSingleBond NonConjugatedSingleBond NonConjugatedSingleBond NonConjugatedSingleBond NonConjugatedSingleBond NonConjugatedSingleBond NonConjugatedSingleBond NonConjugatedSingleBond NonConjugatedSingleBond ConjugatedDoubleBond NonConjugatedSingleBond NonConjugatedSingleBond NonConjugatedSingleBond NonConjugatedSingleBond NonConjugatedSingleBond NonConjugatedSingleBond NonConjugatedSingleBond NonConjugatedSingleBond NonConjugatedSingleBond NonConjugatedSingleBond NonConjugatedSingleBond NonConjugatedSingleBond ConjugatedDoubleBond NonConjugatedSingleBond NonConjugatedSingleBond NonConjugatedSingleBond NonConjugatedSingleBond NonConjugatedSingleBond NonConjugatedSingleBond NonConjugatedSingleBond NonConjugatedSingleBond NonConjugatedSingleBond NonConjugatedSingleBond NonConjugatedSingleBond NonConjugatedSingleBond ConjugatedDoubleBond NonConjugatedSingleBond NonConjugatedSingleBond NonConjugatedSingleBond NonConjugatedSingleBond NonConjugatedSingleBond NonConjugatedSingleBond NonConjugatedSingleBond NonConjugatedSingleBond NonConjugatedSingleBond NonConjugatedSingleBond NonConjugatedSingleBond NonConjugatedSingleBond ConjugatedDoubleBond NonConjugatedSingleBond NonConjugatedSingleBond NonConjugatedSingleBond NonConjugatedSingleBond NonConjugatedSingleBond NonConjugatedSingleBond NonConjugatedSingleBond NonConjugatedSingleBond NonConjugatedSingleBond NonConjugatedSingleBond NonConjugatedSingleBond NonConjugatedSingleBond ConjugatedDoubleBond NonConjugatedSingleBond NonConjugatedSingleBond NonConjugatedSingleBond NonConjugatedSingleBond NonConjugatedSingleBond NonConjugatedSingleBond NonConjugatedSingleBond NonConjugatedSingleBond NonConjugatedSingleBond NonConjugatedSingleBond NonConjugatedSingleBond NonConjugatedSingleBond ConjugatedDoubleBond NonConjugatedSingleBond NonConjugatedSingleBond NonConjugatedSingleBond NonConjugatedSingleBond NonConjugatedSingleBond NonConjugatedSingleBond NonConjugatedSingleBond NonConjugatedSingleBond NonConjugatedSingleBond NonConjugatedSingleBond NonConjugatedSingleBond NonConjugatedSingleBond ConjugatedDoubleBond NonConjugatedSingleBond NonConjugatedSingleBond NonConjugatedSingleBond NonConjugatedSingleBond NonConjugatedSingleBond NonConjugatedSingleBond NonConjugatedSingleBond NonConjugatedSingleBond NonConjugatedSingleBond NonConjugatedSingleBondInRing NonConjugatedSingleBondInRing NonConjugatedSingleBond NonConjugatedSingleBond NonConjugatedSingleBondInRing NonConjugatedSingleBond NonConjugatedSingleBondInRing NonConjugatedSingleBond NonConjugatedSingleBondInRing NonConjugatedSingleBond NonConjugatedSingleBond NonConjugatedSingleBondInRing NonConjugatedSingleBond NonConjugatedSingleBond NonConjugatedSingleBond NonConjugatedSingleBond NonConjugatedSingleBond NonConjugatedSingleBond NonConjugatedSingleBond NonConjugatedSingleBond NonConjugatedSingleBond NonConjugatedSingleBondInRing NonConjugatedSingleBondInRing NonConjugatedSingleBond NonConjugatedSingleBondInRing NonConjugatedSingleBond NonConjugatedSingleBondInRing NonConjugatedSingleBond NonConjugatedSingleBondInRing NonConjugatedSingleBond NonConjugatedSingleBondInRing NonConjugatedSingleBond NonConjugatedSingleBond NonConjugatedSingleBond NonConjugatedSingleBond AmideSingleBond NonConjugatedSingleBond NonConjugatedSingleBond NonConjugatedSingleBond NonConjugatedSingleBond NonConjugatedSingleBond ConjugatedDoubleBond NonConjugatedSingleBond NonConjugatedSingleBond NonConjugatedSingleBond NonConjugatedSingleBond
M  BCL CHI   1   R   4   R   8   R  17   S  20   R  22   S  25   R  29   S  38   S  42   R  46   R  50   S 185   R 187   S 190   S 192   R 194   R 205   R 207   S 210   R 212   S 214   S
M  BCL DBI - - E E E E E E E E Z - -
M  END
> <ConfClashScore>
0.00703523 

> <ConfOneFourInteractionScore>
-0.972973 

> <ConfScore>
0.898315 

> <ConfScorePBest>
0.0104635 

> <ConfTolerance>
2.71614 

$$$$
L05.****
  PyMOL2.5          3D                             0

230233  0  0  0  0  0  0  0  0999 V2000
   14.5144   -1.0933   -4.2916 C   0  0  0  1  0  0  0  0  0  0  0  0
   14.8084   -0.7580   -3.3189 H   0  0  0  1  0  0  0  0  0  0  0  0
   13.5752   -0.1790   -4.8777 O   0  0  0  1  0  0  0  0  0  0  0  0
   15.6827   -1.0960   -5.2206 C   0  0  0  1  0  0  0  0  0  0  0  0
   15.5672   -1.8488   -5.9722 H   0  0  0  1  0  0  0  0  0  0  0  0
   16.8980   -1.3199   -4.5042 O   0  0  0  1  0  0  0  0  0  0  0  0
   17.6443   -1.2171   -5.0991 H   0  0  0  1  0  0  0  0  0  0  0  0
   15.6724    0.2811   -5.8378 C   0  0  0  1  0  0  0  0  0  0  0  0
   16.4759    0.8725   -5.4511 H   0  0  0  1  0  0  0  0  0  0  0  0
   15.7849    0.1951   -7.2592 O   0  0  0  1  0  0  0  0  0  0  0  0
   15.5862    1.0497   -7.6487 H   0  0  0  1  0  0  0  0  0  0  0  0
   15.3361    1.4498   -3.2496 C   0  0  0  1  0  0  0  0  0  0  0  0
   16.0727    0.7548   -3.5950 H   0  0  0  1  0  0  0  0  0  0  0  0
   15.8193    2.2637   -2.7507 H   0  0  0  1  0  0  0  0  0  0  0  0
   14.4553    0.7942   -2.3424 O   0  0  0  1  0  0  0  0  0  0  0  0
   14.9250    0.5906   -1.5303 H   0  0  0  1  0  0  0  0  0  0  0  0
   14.5496    1.9793   -4.4319 C   0  0  0  1  0  0  0  0  0  0  0  0
   15.0895    2.7845   -4.8848 H   0  0  0  1  0  0  0  0  0  0  0  0
   13.3198    2.4433   -3.8869 O   0  0  0  1  0  0  0  0  0  0  0  0
   14.3473    0.8712   -5.4478 C   0  0  0  1  0  0  0  0  0  0  0  0
   13.8520    1.2642   -6.3111 H   0  0  0  1  0  0  0  0  0  0  0  0
   13.2027    3.8483   -3.8642 C   0  0  0  1  0  0  0  0  0  0  0  0
   13.7811    4.2419   -3.0547 H   0  0  0  1  0  0  0  0  0  0  0  0
   13.6333    4.4236   -5.1352 O   0  0  0  1  0  0  0  0  0  0  0  0
   11.7545    4.2627   -3.7384 C   0  0  0  1  0  0  0  0  0  0  0  0
   11.6714    5.2307   -3.2902 H   0  0  0  1  0  0  0  0  0  0  0  0
   11.0176    3.3144   -2.9650 O   0  0  0  1  0  0  0  0  0  0  0  0
   11.6000    2.9037   -2.3217 H   0  0  0  1  0  0  0  0  0  0  0  0
   11.2613    4.2869   -5.1913 C   0  0  0  1  0  0  0  0  0  0  0  0
   10.5045    5.0306   -5.3293 H   0  0  0  1  0  0  0  0  0  0  0  0
   10.7545    3.0143   -5.5827 O   0  0  0  1  0  0  0  0  0  0  0  0
   11.4634    2.4900   -5.9624 H   0  0  0  1  0  0  0  0  0  0  0  0
   11.4233    6.3878   -7.4427 C   0  0  0  1  0  0  0  0  0  0  0  0
   11.4384    7.4351   -7.6618 H   0  0  0  1  0  0  0  0  0  0  0  0
   11.6485    5.8340   -8.3301 H   0  0  0  1  0  0  0  0  0  0  0  0
   10.1203    6.0331   -7.0025 O   0  0  0  1  0  0  0  0  0  0  0  0
   10.0438    5.0769   -6.9655 H   0  0  0  1  0  0  0  0  0  0  0  0
   12.4909    6.0918   -6.3977 C   0  0  0  1  0  0  0  0  0  0  0  0
   12.3071    6.6986   -5.5359 H   0  0  0  1  0  0  0  0  0  0  0  0
   13.7536    6.4224   -6.9698 O   0  0  0  1  0  0  0  0  0  0  0  0
   14.1768    5.6245   -7.2952 H   0  0  0  1  0  0  0  0  0  0  0  0
   12.5349    4.6408   -5.9754 C   0  0  0  1  0  0  0  0  0  0  0  0
   12.6123    4.0186   -6.8424 H   0  0  0  1  0  0  0  0  0  0  0  0
   13.9500   -2.3958   -4.1945 O   0  0  0  1  0  0  0  0  0  0  0  0
   19.9706   -8.9646   -7.8321 O   0  0  0  1  0  0  0  0  0  0  0  0
   19.7603   -8.0531   -6.5547 P   0  0  0  1  0  0  0  0  0  0  0  0
   18.3322   -8.5192   -5.9976 O   0  0  0  1  0  0  0  0  0  0  0  0
   19.6763   -6.6541   -7.0219 O   0  0  0  0  0  0  0  0  0  0  0  0
   20.7401   -8.3989   -5.4977 O   0  0  0  1  0  0  0  0  0  0  0  0
   17.6234   -9.7214   -5.1568 P   0  0  0  1  0  0  0  0  0  0  0  0
   17.3472   -8.9380   -3.8204 O   0  0  0  1  0  0  0  0  0  0  0  0
   18.6110  -10.8099   -4.9415 O   0  0  0  0  0  0  0  0  0  0  0  0
   16.3055  -10.0168   -5.7722 O   0  0  0  1  0  0  0  0  0  0  0  0
   21.0371   -9.9252   -7.8837 C   0  0  0  1  0  0  0  0  0  0  0  0
   20.9700  -10.5629   -7.0271 H   0  0  0  1  0  0  0  0  0  0  0  0
   21.9721   -9.4051   -7.8695 H   0  0  0  1  0  0  0  0  0  0  0  0
   20.9700  -10.7686   -9.1227 C   0  0  0  1  0  0  0  0  0  0  0  0
   20.9103  -11.7997   -9.0004 H   0  0  0  1  0  0  0  0  0  0  0  0
   20.9811  -10.2969  -10.3637 C   0  0  0  1  0  0  0  0  0  0  0  0
   20.8304  -11.2078  -11.5459 C   0  0  0  1  0  0  0  0  0  0  0  0
   21.2433  -12.1670  -11.3126 H   0  0  0  1  0  0  0  0  0  0  0  0
   21.3477  -10.7915  -12.3849 H   0  0  0  1  0  0  0  0  0  0  0  0
   19.7925  -11.3147  -11.7833 H   0  0  0  1  0  0  0  0  0  0  0  0
   21.1416   -8.8402  -10.7075 C   0  0  0  1  0  0  0  0  0  0  0  0
   21.1416   -8.2740   -9.7995 H   0  0  0  1  0  0  0  0  0  0  0  0
   20.3135   -8.5405  -11.3153 H   0  0  0  1  0  0  0  0  0  0  0  0
   22.4276   -8.5446  -11.4620 C   0  0  0  1  0  0  0  0  0  0  0  0
   22.3290   -8.9418  -12.4506 H   0  0  0  1  0  0  0  0  0  0  0  0
   23.2288   -9.0412  -10.9558 H   0  0  0  1  0  0  0  0  0  0  0  0
   22.7828   -7.0987  -11.5797 C   0  0  0  1  0  0  0  0  0  0  0  0
   23.0154   -6.5745  -10.7120 H   0  0  0  1  0  0  0  0  0  0  0  0
   22.8163   -6.4525  -12.7321 C   0  0  0  1  0  0  0  0  0  0  0  0
   23.1858   -4.9962  -12.7472 C   0  0  0  1  0  0  0  0  0  0  0  0
   23.5991   -4.7227  -11.7989 H   0  0  0  1  0  0  0  0  0  0  0  0
   22.3121   -4.4088  -12.9380 H   0  0  0  1  0  0  0  0  0  0  0  0
   23.9094   -4.8201  -13.5156 H   0  0  0  1  0  0  0  0  0  0  0  0
   22.5119   -7.0461  -14.0759 C   0  0  0  1  0  0  0  0  0  0  0  0
   22.4225   -8.1068  -13.9673 H   0  0  0  1  0  0  0  0  0  0  0  0
   23.3214   -6.8218  -14.7386 H   0  0  0  1  0  0  0  0  0  0  0  0
   21.2258   -6.5121  -14.6852 C   0  0  0  1  0  0  0  0  0  0  0  0
   21.2883   -5.4441  -14.7045 H   0  0  0  1  0  0  0  0  0  0  0  0
   20.4135   -6.8110  -14.0561 H   0  0  0  1  0  0  0  0  0  0  0  0
   20.9318   -6.9807  -16.0698 C   0  0  0  1  0  0  0  0  0  0  0  0
   21.0880   -6.2760  -16.8185 H   0  0  0  1  0  0  0  0  0  0  0  0
   20.4997   -8.1653  -16.4888 C   0  0  0  1  0  0  0  0  0  0  0  0
   20.2126   -9.3190  -15.5723 C   0  0  0  1  0  0  0  0  0  0  0  0
   21.0441   -9.4591  -14.9136 H   0  0  0  1  0  0  0  0  0  0  0  0
   20.0668  -10.2034  -16.1566 H   0  0  0  1  0  0  0  0  0  0  0  0
   20.2606   -8.4448  -17.9459 C   0  0  0  1  0  0  0  0  0  0  0  0
   20.4823   -7.5687  -18.5187 H   0  0  0  1  0  0  0  0  0  0  0  0
   19.2364   -8.7172  -18.0932 H   0  0  0  1  0  0  0  0  0  0  0  0
   20.8929   -9.2476  -18.2632 H   0  0  0  1  0  0  0  0  0  0  0  0
   18.9630   -9.0546  -14.7482 C   0  0  0  1  0  0  0  0  0  0  0  0
   18.2746   -8.4927  -15.3442 H   0  0  0  1  0  0  0  0  0  0  0  0
   19.2381   -8.4835  -13.8862 H   0  0  0  1  0  0  0  0  0  0  0  0
   18.2818  -10.3148  -14.2901 C   0  0  0  1  0  0  0  0  0  0  0  0
   18.8962  -11.1340  -14.1081 H   0  0  0  1  0  0  0  0  0  0  0  0
   16.9790  -10.4953  -14.0925 C   0  0  0  1  0  0  0  0  0  0  0  0
   16.0076   -9.4817  -14.6278 C   0  0  0  1  0  0  0  0  0  0  0  0
   15.1711  -10.0003  -15.0477 H   0  0  0  1  0  0  0  0  0  0  0  0
   16.4952   -8.9129  -15.3917 H   0  0  0  1  0  0  0  0  0  0  0  0
   16.3572  -11.6499  -13.3629 C   0  0  0  1  0  0  0  0  0  0  0  0
   15.5546  -11.2951  -12.7507 H   0  0  0  1  0  0  0  0  0  0  0  0
   17.0944  -12.1206  -12.7465 H   0  0  0  1  0  0  0  0  0  0  0  0
   15.9794  -12.3573  -14.0713 H   0  0  0  1  0  0  0  0  0  0  0  0
   15.4983   -8.5246  -13.5625 C   0  0  0  1  0  0  0  0  0  0  0  0
   16.3322   -8.0438  -13.0952 H   0  0  0  1  0  0  0  0  0  0  0  0
   14.9474   -9.0763  -12.8296 H   0  0  0  1  0  0  0  0  0  0  0  0
   14.6019   -7.4785  -14.1693 C   0  0  0  1  0  0  0  0  0  0  0  0
   14.5898   -7.3979  -15.2061 H   0  0  0  1  0  0  0  0  0  0  0  0
   13.8250   -6.6506  -13.4791 C   0  0  0  1  0  0  0  0  0  0  0  0
   13.9620   -6.4159  -11.9999 C   0  0  0  1  0  0  0  0  0  0  0  0
   14.3954   -7.2875  -11.5555 H   0  0  0  1  0  0  0  0  0  0  0  0
   12.9876   -6.2525  -11.5892 H   0  0  0  1  0  0  0  0  0  0  0  0
   12.7255   -5.8685  -14.1409 C   0  0  0  1  0  0  0  0  0  0  0  0
   12.1298   -5.3873  -13.3936 H   0  0  0  1  0  0  0  0  0  0  0  0
   12.1114   -6.5316  -14.7137 H   0  0  0  1  0  0  0  0  0  0  0  0
   13.1524   -5.1298  -14.7866 H   0  0  0  1  0  0  0  0  0  0  0  0
   14.8351   -5.2174  -11.6655 C   0  0  0  1  0  0  0  0  0  0  0  0
   14.7165   -4.9888  -10.6270 H   0  0  0  1  0  0  0  0  0  0  0  0
   14.5103   -4.3847  -12.2538 H   0  0  0  1  0  0  0  0  0  0  0  0
   16.2944   -5.4568  -11.9394 C   0  0  0  1  0  0  0  0  0  0  0  0
   16.5416   -6.3714  -12.3684 H   0  0  0  1  0  0  0  0  0  0  0  0
   17.3031   -4.6258  -11.6924 C   0  0  0  1  0  0  0  0  0  0  0  0
   17.0099   -3.1822  -11.3963 C   0  0  0  1  0  0  0  0  0  0  0  0
   15.9476   -3.0580  -11.4294 H   0  0  0  1  0  0  0  0  0  0  0  0
   17.4620   -2.5984  -12.1707 H   0  0  0  1  0  0  0  0  0  0  0  0
   18.7573   -4.9961  -11.6786 C   0  0  0  1  0  0  0  0  0  0  0  0
   18.9501   -5.6559  -10.8586 H   0  0  0  1  0  0  0  0  0  0  0  0
   19.3493   -4.1113  -11.5709 H   0  0  0  1  0  0  0  0  0  0  0  0
   19.0093   -5.4850  -12.5964 H   0  0  0  1  0  0  0  0  0  0  0  0
   17.4917   -2.6254  -10.0666 C   0  0  0  1  0  0  0  0  0  0  0  0
   17.3267   -1.5683  -10.0602 H   0  0  0  1  0  0  0  0  0  0  0  0
   18.5390   -2.8240   -9.9737 H   0  0  0  1  0  0  0  0  0  0  0  0
   16.7874   -3.2244   -8.8908 C   0  0  0  1  0  0  0  0  0  0  0  0
   15.7478   -3.2434   -8.9110 H   0  0  0  1  0  0  0  0  0  0  0  0
   17.3905   -3.7336   -7.8233 C   0  0  0  1  0  0  0  0  0  0  0  0
   18.8860   -3.8394   -7.7477 C   0  0  0  1  0  0  0  0  0  0  0  0
   19.2623   -3.9171   -8.7464 H   0  0  0  1  0  0  0  0  0  0  0  0
   19.1270   -4.7295   -7.2050 H   0  0  0  1  0  0  0  0  0  0  0  0
   16.6621   -4.2436   -6.6118 C   0  0  0  1  0  0  0  0  0  0  0  0
   15.6175   -4.0324   -6.7079 H   0  0  0  1  0  0  0  0  0  0  0  0
   17.0443   -3.7610   -5.7366 H   0  0  0  1  0  0  0  0  0  0  0  0
   16.8058   -5.3007   -6.5283 H   0  0  0  1  0  0  0  0  0  0  0  0
   19.5883   -2.6733   -7.0714 C   0  0  0  1  0  0  0  0  0  0  0  0
   19.0913   -2.4662   -6.1468 H   0  0  0  1  0  0  0  0  0  0  0  0
   19.5225   -1.8185   -7.7116 H   0  0  0  1  0  0  0  0  0  0  0  0
   21.0406   -2.9460   -6.7841 C   0  0  0  1  0  0  0  0  0  0  0  0
   21.4259   -3.8648   -7.0824 H   0  0  0  1  0  0  0  0  0  0  0  0
   21.8662   -2.1011   -6.1782 C   0  0  0  1  0  0  0  0  0  0  0  0
   21.3987   -0.7500   -5.7114 C   0  0  0  1  0  0  0  0  0  0  0  0
   20.3602   -0.6587   -5.9523 H   0  0  0  1  0  0  0  0  0  0  0  0
   21.9553   -0.0064   -6.2427 H   0  0  0  1  0  0  0  0  0  0  0  0
   23.3120   -2.3952   -5.9023 C   0  0  0  1  0  0  0  0  0  0  0  0
   23.4906   -2.3510   -4.8482 H   0  0  0  1  0  0  0  0  0  0  0  0
   23.9239   -1.6710   -6.3982 H   0  0  0  1  0  0  0  0  0  0  0  0
   23.5520   -3.3732   -6.2638 H   0  0  0  1  0  0  0  0  0  0  0  0
   21.5602   -0.4828   -4.2238 C   0  0  0  1  0  0  0  0  0  0  0  0
   22.5390   -0.7958   -3.9259 H   0  0  0  1  0  0  0  0  0  0  0  0
   20.8261   -1.0528   -3.6937 H   0  0  0  1  0  0  0  0  0  0  0  0
   21.3949    0.9368   -3.8717 C   0  0  0  1  0  0  0  0  0  0  0  0
   20.4518    1.3749   -3.8591 H   0  0  0  1  0  0  0  0  0  0  0  0
   22.4811    1.6487   -3.5693 C   0  0  0  1  0  0  0  0  0  0  0  0
   22.4374    2.9874   -2.8916 C   0  0  0  1  0  0  0  0  0  0  0  0
   22.1668    2.8416   -1.8667 H   0  0  0  1  0  0  0  0  0  0  0  0
   21.6965    3.5896   -3.3745 H   0  0  0  1  0  0  0  0  0  0  0  0
   23.8621    1.1518   -3.8923 C   0  0  0  1  0  0  0  0  0  0  0  0
   23.7186    0.2846   -4.5023 H   0  0  0  1  0  0  0  0  0  0  0  0
   24.3863    0.8953   -2.9954 H   0  0  0  1  0  0  0  0  0  0  0  0
   24.4123    1.8978   -4.4267 H   0  0  0  1  0  0  0  0  0  0  0  0
   23.7665    3.7234   -2.9410 C   0  0  0  1  0  0  0  0  0  0  0  0
   24.0717    3.8069   -3.9631 H   0  0  0  1  0  0  0  0  0  0  0  0
   24.4913    3.1545   -2.3971 H   0  0  0  1  0  0  0  0  0  0  0  0
   23.6979    5.1049   -2.3471 C   0  0  0  1  0  0  0  0  0  0  0  0
   23.2382    5.8958   -2.8418 H   0  0  0  1  0  0  0  0  0  0  0  0
   24.2626    5.2531   -1.1473 C   0  0  0  1  0  0  0  0  0  0  0  0
   24.6228    4.0645   -0.3062 C   0  0  0  1  0  0  0  0  0  0  0  0
   24.1826    3.1838   -0.7253 H   0  0  0  1  0  0  0  0  0  0  0  0
   24.2559    4.2075    0.6886 H   0  0  0  1  0  0  0  0  0  0  0  0
   25.6868    3.9542   -0.2821 H   0  0  0  1  0  0  0  0  0  0  0  0
   24.5607    6.6167   -0.5902 C   0  0  0  1  0  0  0  0  0  0  0  0
   25.6167    6.6710   -0.4264 H   0  0  0  1  0  0  0  0  0  0  0  0
   24.0396    6.7562    0.3338 H   0  0  0  1  0  0  0  0  0  0  0  0
   24.2594    7.3704   -1.2874 H   0  0  0  1  0  0  0  0  0  0  0  0
   16.1462   -4.7469   -1.5754 C   0  0  0  1  0  0  0  0  0  0  0  0
   15.6623   -4.2700   -0.7488 H   0  0  0  1  0  0  0  0  0  0  0  0
   15.1030   -5.4815   -2.4198 C   0  0  0  1  0  0  0  0  0  0  0  0
   15.5974   -6.0231   -3.1990 H   0  0  0  1  0  0  0  0  0  0  0  0
   16.8092   -3.7560   -2.3761 O   0  0  0  1  0  0  0  0  0  0  0  0
   14.1343   -4.4927   -3.0355 C   0  0  0  1  0  0  0  0  0  0  0  0
   13.5465   -4.0504   -2.2585 H   0  0  0  1  0  0  0  0  0  0  0  0
   15.9283   -2.7610   -2.8819 C   0  0  0  1  0  0  0  0  0  0  0  0
   16.4918   -2.0441   -3.4417 H   0  0  0  1  0  0  0  0  0  0  0  0
   14.8743   -3.3897   -3.7890 C   0  0  0  1  0  0  0  0  0  0  0  0
   15.3512   -3.8070   -4.6512 H   0  0  0  1  0  0  0  0  0  0  0  0
   17.1042   -5.6807   -1.0906 O   0  0  0  1  0  0  0  0  0  0  0  0
   14.3815   -6.3931   -1.5892 O   0  0  0  1  0  0  0  0  0  0  0  0
   14.7255   -7.2807   -1.7133 H   0  0  0  1  0  0  0  0  0  0  0  0
   13.2832   -5.1808   -3.9405 O   0  0  0  1  0  0  0  0  0  0  0  0
   13.7995   -5.5063   -4.6815 H   0  0  0  1  0  0  0  0  0  0  0  0
   15.2374   -2.0674   -1.7192 C   0  0  0  1  0  0  0  0  0  0  0  0
   15.3638   -1.0087   -1.8088 H   0  0  0  1  0  0  0  0  0  0  0  0
   15.6681   -2.4011   -0.7983 H   0  0  0  1  0  0  0  0  0  0  0  0
   14.1940   -2.3042   -1.7320 H   0  0  0  1  0  0  0  0  0  0  0  0
   18.3956   -8.7034   -2.8791 C   0  0  0  1  0  0  0  0  0  0  0  0
   19.3411   -8.8919   -3.3432 H   0  0  0  1  0  0  0  0  0  0  0  0
   18.3411   -7.2479   -2.4104 C   0  0  0  1  0  0  0  0  0  0  0  0
   18.3875   -6.6011   -3.2615 H   0  0  0  1  0  0  0  0  0  0  0  0
   18.2326   -9.5823   -1.7549 O   0  0  0  1  0  0  0  0  0  0  0  0
   17.0545   -6.9871   -1.6542 C   0  0  0  1  0  0  0  0  0  0  0  0
   16.2310   -7.0516   -2.3343 H   0  0  0  1  0  0  0  0  0  0  0  0
   16.9857   -9.4200   -1.0911 C   0  0  0  1  0  0  0  0  0  0  0  0
   16.1915   -9.5988   -1.7856 H   0  0  0  1  0  0  0  0  0  0  0  0
   16.8556   -8.0054   -0.5336 C   0  0  0  1  0  0  0  0  0  0  0  0
   17.5978   -7.8518    0.2217 H   0  0  0  1  0  0  0  0  0  0  0  0
   19.4745   -6.9823   -1.5358 N   0  0  0  1  0  0  0  0  0  0  0  0
   19.4453   -7.3559   -0.6302 H   0  0  0  1  0  0  0  0  0  0  0  0
   15.5543   -7.8372    0.0348 O   0  0  0  1  0  0  0  0  0  0  0  0
   15.6661   -7.2819    0.8098 H   0  0  0  1  0  0  0  0  0  0  0  0
   16.8954  -10.4074    0.0398 C   0  0  0  1  0  0  0  0  0  0  0  0
   16.0693  -10.1392    0.6646 H   0  0  0  1  0  0  0  0  0  0  0  0
   17.8015  -10.3632    0.6072 H   0  0  0  1  0  0  0  0  0  0  0  0
   16.7075  -11.7430   -0.4180 O   0  0  0  1  0  0  0  0  0  0  0  0
   17.5687  -12.1137   -0.6242 H   0  0  0  1  0  0  0  0  0  0  0  0
   20.5495   -6.2687   -1.8742 C   0  0  0  1  0  0  0  0  0  0  0  0
   20.7086   -5.7893   -2.9937 O   0  0  0  1  0  0  0  0  0  0  0  0
   21.5779   -6.0788   -0.7884 C   0  0  0  1  0  0  0  0  0  0  0  0
   21.9058   -5.0671   -0.9062 H   0  0  0  1  0  0  0  0  0  0  0  0
   22.3940   -6.7586   -0.9171 H   0  0  0  1  0  0  0  0  0  0  0  0
   21.1402   -6.2248    0.1770 H   0  0  0  1  0  0  0  0  0  0  0  0
  1  2  1  0  0  0  0
  1  3  1  0  0  0  0
  1  4  1  0  0  0  0
  1 44  1  0  0  0  0
  3 20  1  0  0  0  0
  4  5  1  0  0  0  0
  4  6  1  0  0  0  0
  4  8  1  0  0  0  0
  6  7  1  0  0  0  0
  8  9  1  0  0  0  0
  8 10  1  0  0  0  0
  8 20  1  0  0  0  0
 10 11  1  0  0  0  0
 12 13  1  0  0  0  0
 12 14  1  0  0  0  0
 12 15  1  0  0  0  0
 12 17  1  0  0  0  0
 15 16  1  0  0  0  0
 17 18  1  0  0  0  0
 17 19  1  0  0  0  0
 17 20  1  0  0  0  0
 19 22  1  0  0  0  0
 20 21  1  0  0  0  0
 22 23  1  0  0  0  0
 22 24  1  0  0  0  0
 22 25  1  0  0  0  0
 24 42  1  0  0  0  0
 25 26  1  0  0  0  0
 25 27  1  0  0  0  0
 25 29  1  0  0  0  0
 27 28  1  0  0  0  0
 29 30  1  0  0  0  0
 29 31  1  0  0  0  0
 29 42  1  0  0  0  0
 31 32  1  0  0  0  0
 33 34  1  0  0  0  0
 33 35  1  0  0  0  0
 33 36  1  0  0  0  0
 33 38  1  0  0  0  0
 36 37  1  0  0  0  0
 38 39  1  0  0  0  0
 38 40  1  0  0  0  0
 38 42  1  0  0  0  0
 40 41  1  0  0  0  0
 42 43  1  0  0  0  0
 44194  1  0  0  0  0
 45 46  1  0  0  0  0
 45 54  1  0  0  0  0
 46 47  1  0  0  0  0
 46 48  1  0  0  0  0
 46 49  2  0  0  0  0
 47 50  1  0  0  0  0
 50 51  1  0  0  0  0
 50 52  1  0  0  0  0
 50 53  2  0  0  0  0
 51205  1  0  0  0  0
 54 55  1  0  0  0  0
 54 56  1  0  0  0  0
 54 57  1  0  0  0  0
 57 58  1  0  0  0  0
 57 59  2  0  0  0  0
 59 60  1  0  0  0  0
 59 64  1  0  0  0  0
 60 61  1  0  0  0  0
 60 62  1  0  0  0  0
 60 63  1  0  0  0  0
 64 65  1  0  0  0  0
 64 66  1  0  0  0  0
 64 67  1  0  0  0  0
 67 68  1  0  0  0  0
 67 69  1  0  0  0  0
 67 70  1  0  0  0  0
 70 71  1  0  0  0  0
 70 72  2  0  0  0  0
 72 73  1  0  0  0  0
 72 77  1  0  0  0  0
 73 74  1  0  0  0  0
 73 75  1  0  0  0  0
 73 76  1  0  0  0  0
 77 78  1  0  0  0  0
 77 79  1  0  0  0  0
 77 80  1  0  0  0  0
 80 81  1  0  0  0  0
 80 82  1  0  0  0  0
 80 83  1  0  0  0  0
 83 84  1  0  0  0  0
 83 85  2  0  0  0  0
 85 86  1  0  0  0  0
 85 89  1  0  0  0  0
 86 87  1  0  0  0  0
 86 88  1  0  0  0  0
 86 93  1  0  0  0  0
 89 90  1  0  0  0  0
 89 91  1  0  0  0  0
 89 92  1  0  0  0  0
 93 94  1  0  0  0  0
 93 95  1  0  0  0  0
 93 96  1  0  0  0  0
 96 97  1  0  0  0  0
 96 98  2  0  0  0  0
 98 99  1  0  0  0  0
 98102  1  0  0  0  0
 99100  1  0  0  0  0
 99101  1  0  0  0  0
 99106  1  0  0  0  0
102103  1  0  0  0  0
102104  1  0  0  0  0
102105  1  0  0  0  0
106107  1  0  0  0  0
106108  1  0  0  0  0
106109  1  0  0  0  0
109110  1  0  0  0  0
109111  2  0  0  0  0
111112  1  0  0  0  0
111115  1  0  0  0  0
112113  1  0  0  0  0
112114  1  0  0  0  0
112119  1  0  0  0  0
115116  1  0  0  0  0
115117  1  0  0  0  0
115118  1  0  0  0  0
119120  1  0  0  0  0
119121  1  0  0  0  0
119122  1  0  0  0  0
122123  1  0  0  0  0
122124  2  0  0  0  0
124125  1  0  0  0  0
124128  1  0  0  0  0
125126  1  0  0  0  0
125127  1  0  0  0  0
125132  1  0  0  0  0
128129  1  0  0  0  0
128130  1  0  0  0  0
128131  1  0  0  0  0
132133  1  0  0  0  0
132134  1  0  0  0  0
132135  1  0  0  0  0
135136  1  0  0  0  0
135137  2  0  0  0  0
137138  1  0  0  0  0
137141  1  0  0  0  0
138139  1  0  0  0  0
138140  1  0  0  0  0
138145  1  0  0  0  0
141142  1  0  0  0  0
141143  1  0  0  0  0
141144  1  0  0  0  0
145146  1  0  0  0  0
145147  1  0  0  0  0
145148  1  0  0  0  0
148149  1  0  0  0  0
148150  2  0  0  0  0
150151  1  0  0  0  0
150154  1  0  0  0  0
151152  1  0  0  0  0
151153  1  0  0  0  0
151158  1  0  0  0  0
154155  1  0  0  0  0
154156  1  0  0  0  0
154157  1  0  0  0  0
158159  1  0  0  0  0
158160  1  0  0  0  0
158161  1  0  0  0  0
161162  1  0  0  0  0
161163  2  0  0  0  0
163164  1  0  0  0  0
163167  1  0  0  0  0
164165  1  0  0  0  0
164166  1  0  0  0  0
164171  1  0  0  0  0
167168  1  0  0  0  0
167169  1  0  0  0  0
167170  1  0  0  0  0
171172  1  0  0  0  0
171173  1  0  0  0  0
171174  1  0  0  0  0
174175  1  0  0  0  0
174176  2  0  0  0  0
176177  1  0  0  0  0
176181  1  0  0  0  0
177178  1  0  0  0  0
177179  1  0  0  0  0
177180  1  0  0  0  0
181182  1  0  0  0  0
181183  1  0  0  0  0
181184  1  0  0  0  0
185186  1  0  0  0  0
185187  1  0  0  0  0
185189  1  0  0  0  0
185196  1  0  0  0  0
187188  1  0  0  0  0
187190  1  0  0  0  0
187197  1  0  0  0  0
189192  1  0  0  0  0
190191  1  0  0  0  0
190194  1  0  0  0  0
190199  1  0  0  0  0
192193  1  0  0  0  0
192194  1  0  0  0  0
192201  1  0  0  0  0
194195  1  0  0  0  0
196210  1  0  0  0  0
197198  1  0  0  0  0
199200  1  0  0  0  0
201202  1  0  0  0  0
201203  1  0  0  0  0
201204  1  0  0  0  0
205206  1  0  0  0  0
205207  1  0  0  0  0
205209  1  0  0  0  0
207208  1  0  0  0  0
207210  1  0  0  0  0
207216  1  0  0  0  0
209212  1  0  0  0  0
210211  1  0  0  0  0
210214  1  0  0  0  0
212213  1  0  0  0  0
212214  1  0  0  0  0
212220  1  0  0  0  0
214215  1  0  0  0  0
214218  1  0  0  0  0
216217  1  0  0  0  0
216225  1  0  0  0  0
218219  1  0  0  0  0
220221  1  0  0  0  0
220222  1  0  0  0  0
220223  1  0  0  0  0
223224  1  0  0  0  0
225226  2  0  0  0  0
225227  1  0  0  0  0
227228  1  0  0  0  0
227229  1  0  0  0  0
227230  1  0  0  0  0
M  BCL ATM C_TeTeTeTe H_S O_Te2Te2TeTe C_TeTeTeTe H_S O_Te2Te2TeTe H_S C_TeTeTeTe H_S O_Te2Te2TeTe H_S C_TeTeTeTe H_S H_S O_Te2Te2TeTe H_S C_TeTeTeTe H_S O_Te2Te2TeTe C_TeTeTeTe H_S C_TeTeTeTe H_S O_Te2Te2TeTe C_TeTeTeTe H_S O_Te2Te2TeTe H_S C_TeTeTeTe H_S O_Te2Te2TeTe H_S C_TeTeTeTe H_S H_S O_Te2Te2TeTe H_S C_TeTeTeTe H_S O_Te2Te2TeTe H_S C_TeTeTeTe H_S O_Te2Te2TeTe O_Tr2TrTrPi2 P_TeTeTeTePi O_Tr2TrTrPi2 O_Te2Te2TeTe O_Tr2Tr2TrPi P_TeTeTeTePi O_Tr2TrTrPi2 O_Te2Te2TeTe O_Tr2Tr2TrPi C_TeTeTeTe H_S H_S C_TrTrTrPi H_S C_TrTrTrPi C_TeTeTeTe H_S H_S H_S C_TeTeTeTe H_S H_S C_TeTeTeTe H_S H_S C_TrTrTrPi H_S C_TrTrTrPi C_TeTeTeTe H_S H_S H_S C_TeTeTeTe H_S H_S C_TeTeTeTe H_S H_S C_TrTrTrPi H_S C_TrTrTrPi C_TeTeTeTe H_S H_S C_TeTeTeTe H_S H_S H_S C_TeTeTeTe H_S H_S C_TrTrTrPi H_S C_TrTrTrPi C_TeTeTeTe H_S H_S C_TeTeTeTe H_S H_S H_S C_TeTeTeTe H_S H_S C_TrTrTrPi H_S C_TrTrTrPi C_TeTeTeTe H_S H_S C_TeTeTeTe H_S H_S H_S C_TeTeTeTe H_S H_S C_TrTrTrPi H_S C_TrTrTrPi C_TeTeTeTe H_S H_S C_TeTeTeTe H_S H_S H_S C_TeTeTeTe H_S H_S C_TrTrTrPi H_S C_TrTrTrPi C_TeTeTeTe H_S H_S C_TeTeTeTe H_S H_S H_S C_TeTeTeTe H_S H_S C_TrTrTrPi H_S C_TrTrTrPi C_TeTeTeTe H_S H_S C_TeTeTeTe H_S H_S H_S C_TeTeTeTe H_S H_S C_TrTrTrPi H_S C_TrTrTrPi C_TeTeTeTe H_S H_S C_TeTeTeTe H_S H_S H_S C_TeTeTeTe H_S H_S C_TrTrTrPi H_S C_TrTrTrPi C_TeTeTeTe H_S H_S H_S C_TeTeTeTe H_S H_S H_S C_TeTeTeTe H_S C_TeTeTeTe H_S O_Te2Te2TeTe C_TeTeTeTe H_S C_TeTeTeTe H_S C_TeTeTeTe H_S O_Te2Te2TeTe O_Te2Te2TeTe H_S O_Te2Te2TeTe H_S C_TeTeTeTe H_S H_S H_S C_TeTeTeTe H_S C_TeTeTeTe H_S O_Te2Te2TeTe C_TeTeTeTe H_S C_TeTeTeTe H_S C_TeTeTeTe H_S N_TrTrTrPi2 H_S O_Te2Te2TeTe H_S C_TeTeTeTe H_S H_S O_Te2Te2TeTe H_S C_TrTrTrPi O_Tr2Tr2TrPi C_TeTeTeTe H_S H_S H_S
M  BCL BND NonConjugatedSingleBond NonConjugatedSingleBondInRing NonConjugatedSingleBondInRing NonConjugatedSingleBond NonConjugatedSingleBondInRing NonConjugatedSingleBond NonConjugatedSingleBond NonConjugatedSingleBondInRing NonConjugatedSingleBond NonConjugatedSingleBond NonConjugatedSingleBond NonConjugatedSingleBondInRing NonConjugatedSingleBond NonConjugatedSingleBond NonConjugatedSingleBond NonConjugatedSingleBond NonConjugatedSingleBond NonConjugatedSingleBond NonConjugatedSingleBond NonConjugatedSingleBond NonConjugatedSingleBond NonConjugatedSingleBond NonConjugatedSingleBond NonConjugatedSingleBond NonConjugatedSingleBondInRing NonConjugatedSingleBondInRing NonConjugatedSingleBondInRing NonConjugatedSingleBond NonConjugatedSingleBond NonConjugatedSingleBondInRing NonConjugatedSingleBond NonConjugatedSingleBond NonConjugatedSingleBond NonConjugatedSingleBondInRing NonConjugatedSingleBond NonConjugatedSingleBond NonConjugatedSingleBond NonConjugatedSingleBond NonConjugatedSingleBond NonConjugatedSingleBond NonConjugatedSingleBond NonConjugatedSingleBond NonConjugatedSingleBond NonConjugatedSingleBond NonConjugatedSingleBond NonConjugatedSingleBond ConjugatedSingleBond NonConjugatedSingleBond ConjugatedSingleBond ConjugatedSingleBond ConjugatedDoubleBond ConjugatedSingleBond ConjugatedSingleBond ConjugatedSingleBond ConjugatedDoubleBond NonConjugatedSingleBond NonConjugatedSingleBond NonConjugatedSingleBond NonConjugatedSingleBond NonConjugatedSingleBond ConjugatedDoubleBond NonConjugatedSingleBond NonConjugatedSingleBond NonConjugatedSingleBond NonConjugatedSingleBond NonConjugatedSingleBond NonConjugatedSingleBond NonConjugatedSingleBond NonConjugatedSingleBond NonConjugatedSingleBond NonConjugatedSingleBond NonConjugatedSingleBond NonConjugatedSingleBond ConjugatedDoubleBond NonConjugatedSingleBond NonConjugatedSingleBond NonConjugatedSingleBond NonConjugatedSingleBond NonConjugatedSingleBond NonConjugatedSingleBond NonConjugatedSingleBond NonConjugatedSingleBond NonConjugatedSingleBond NonConjugatedSingleBond NonConjugatedSingleBond NonConjugatedSingleBond ConjugatedDoubleBond NonConjugatedSingleBond NonConjugatedSingleBond NonConjugatedSingleBond NonConjugatedSingleBond NonConjugatedSingleBond NonConjugatedSingleBond NonConjugatedSingleBond NonConjugatedSingleBond NonConjugatedSingleBond NonConjugatedSingleBond NonConjugatedSingleBond NonConjugatedSingleBond ConjugatedDoubleBond NonConjugatedSingleBond NonConjugatedSingleBond NonConjugatedSingleBond NonConjugatedSingleBond NonConjugatedSingleBond NonConjugatedSingleBond NonConjugatedSingleBond NonConjugatedSingleBond NonConjugatedSingleBond NonConjugatedSingleBond NonConjugatedSingleBond NonConjugatedSingleBond ConjugatedDoubleBond NonConjugatedSingleBond NonConjugatedSingleBond NonConjugatedSingleBond NonConjugatedSingleBond NonConjugatedSingleBond NonConjugatedSingleBond NonConjugatedSingleBond NonConjugatedSingleBond NonConjugatedSingleBond NonConjugatedSingleBond NonConjugatedSingleBond NonConjugatedSingleBond ConjugatedDoubleBond NonConjugatedSingleBond NonConjugatedSingleBond NonConjugatedSingleBond NonConjugatedSingleBond NonConjugatedSingleBond NonConjugatedSingleBond NonConjugatedSingleBond NonConjugatedSingleBond NonConjugatedSingleBond NonConjugatedSingleBond NonConjugatedSingleBond NonConjugatedSingleBond ConjugatedDoubleBond NonConjugatedSingleBond NonConjugatedSingleBond NonConjugatedSingleBond NonConjugatedSingleBond NonConjugatedSingleBond NonConjugatedSingleBond NonConjugatedSingleBond NonConjugatedSingleBond NonConjugatedSingleBond NonConjugatedSingleBond NonConjugatedSingleBond NonConjugatedSingleBond ConjugatedDoubleBond NonConjugatedSingleBond NonConjugatedSingleBond NonConjugatedSingleBond NonConjugatedSingleBond NonConjugatedSingleBond NonConjugatedSingleBond NonConjugatedSingleBond NonConjugatedSingleBond NonConjugatedSingleBond NonConjugatedSingleBond NonConjugatedSingleBond NonConjugatedSingleBond ConjugatedDoubleBond NonConjugatedSingleBond NonConjugatedSingleBond NonConjugatedSingleBond NonConjugatedSingleBond NonConjugatedSingleBond NonConjugatedSingleBond NonConjugatedSingleBond NonConjugatedSingleBond NonConjugatedSingleBond NonConjugatedSingleBond NonConjugatedSingleBond NonConjugatedSingleBond ConjugatedDoubleBond NonConjugatedSingleBond NonConjugatedSingleBond NonConjugatedSingleBond NonConjugatedSingleBond NonConjugatedSingleBond NonConjugatedSingleBond NonConjugatedSingleBond NonConjugatedSingleBond NonConjugatedSingleBond NonConjugatedSingleBondInRing NonConjugatedSingleBondInRing NonConjugatedSingleBond NonConjugatedSingleBond NonConjugatedSingleBondInRing NonConjugatedSingleBond NonConjugatedSingleBondInRing NonConjugatedSingleBond NonConjugatedSingleBondInRing NonConjugatedSingleBond NonConjugatedSingleBond NonConjugatedSingleBondInRing NonConjugatedSingleBond NonConjugatedSingleBond NonConjugatedSingleBond NonConjugatedSingleBond NonConjugatedSingleBond NonConjugatedSingleBond NonConjugatedSingleBond NonConjugatedSingleBond NonConjugatedSingleBond NonConjugatedSingleBondInRing NonConjugatedSingleBondInRing NonConjugatedSingleBond NonConjugatedSingleBondInRing NonConjugatedSingleBond NonConjugatedSingleBondInRing NonConjugatedSingleBond NonConjugatedSingleBondInRing NonConjugatedSingleBond NonConjugatedSingleBondInRing NonConjugatedSingleBond NonConjugatedSingleBond NonConjugatedSingleBond NonConjugatedSingleBond AmideSingleBond NonConjugatedSingleBond NonConjugatedSingleBond NonConjugatedSingleBond NonConjugatedSingleBond NonConjugatedSingleBond ConjugatedDoubleBond NonConjugatedSingleBond NonConjugatedSingleBond NonConjugatedSingleBond NonConjugatedSingleBond
M  BCL CHI   1   R   4   R   8   R  17   S  20   R  22   S  25   R  29   S  38   S  42   R  46   R  50   S 185   R 187   S 190   S 192   R 194   R 205   R 207   S 210   R 212   S 214   S
M  BCL DBI - - E E E E E E E E Z - -
M  END
> <ConfClashScore>
0.00843653 

> <ConfOneFourInteractionScore>
-0.960591 

> <ConfScore>
0.97072 

> <ConfScorePBest>
0.0103605 

> <ConfTolerance>
3.88021 

$$$$
L05.****
  PyMOL2.5          3D                             0

230233  0  0  0  0  0  0  0  0999 V2000
   12.0660   -3.5808   -3.3323 C   0  0  0  1  0  0  0  0  0  0  0  0
   11.1974   -3.1427   -2.8869 H   0  0  0  1  0  0  0  0  0  0  0  0
   12.0065   -4.9753   -3.2447 O   0  0  0  1  0  0  0  0  0  0  0  0
   12.1189   -3.2550   -4.8334 C   0  0  0  1  0  0  0  0  0  0  0  0
   13.1244   -3.2792   -5.1985 H   0  0  0  1  0  0  0  0  0  0  0  0
   11.5441   -1.9757   -5.1036 O   0  0  0  1  0  0  0  0  0  0  0  0
   11.6782   -1.7528   -6.0277 H   0  0  0  1  0  0  0  0  0  0  0  0
   11.2873   -4.3693   -5.4439 C   0  0  0  1  0  0  0  0  0  0  0  0
   10.2508   -4.1053   -5.4724 H   0  0  0  1  0  0  0  0  0  0  0  0
   11.7361   -4.6822   -6.7634 O   0  0  0  1  0  0  0  0  0  0  0  0
   11.5691   -3.9362   -7.3440 H   0  0  0  1  0  0  0  0  0  0  0  0
   10.5513   -7.7870   -4.0181 C   0  0  0  1  0  0  0  0  0  0  0  0
   11.5359   -7.8715   -3.6080 H   0  0  0  1  0  0  0  0  0  0  0  0
    9.8407   -8.1898   -3.3270 H   0  0  0  1  0  0  0  0  0  0  0  0
   10.4928   -8.5408   -5.2252 O   0  0  0  1  0  0  0  0  0  0  0  0
   10.9743   -8.0787   -5.9153 H   0  0  0  1  0  0  0  0  0  0  0  0
   10.2393   -6.3183   -4.2365 C   0  0  0  1  0  0  0  0  0  0  0  0
    9.7718   -5.9321   -3.3549 H   0  0  0  1  0  0  0  0  0  0  0  0
    9.3455   -6.2276   -5.3408 O   0  0  0  1  0  0  0  0  0  0  0  0
   11.5350   -5.5522   -4.4755 C   0  0  0  1  0  0  0  0  0  0  0  0
   12.2719   -6.2141   -4.8803 H   0  0  0  1  0  0  0  0  0  0  0  0
    8.3253   -5.2717   -5.1683 C   0  0  0  1  0  0  0  0  0  0  0  0
    8.4676   -4.7613   -4.2387 H   0  0  0  1  0  0  0  0  0  0  0  0
    8.3096   -4.3258   -6.2804 O   0  0  0  1  0  0  0  0  0  0  0  0
    6.9641   -5.9270   -5.2162 C   0  0  0  1  0  0  0  0  0  0  0  0
    6.2435   -5.3518   -4.6733 H   0  0  0  1  0  0  0  0  0  0  0  0
    7.0161   -7.2514   -4.6837 O   0  0  0  1  0  0  0  0  0  0  0  0
    6.7429   -7.2377   -3.7635 H   0  0  0  1  0  0  0  0  0  0  0  0
    6.6307   -5.9510   -6.7139 C   0  0  0  1  0  0  0  0  0  0  0  0
    5.5764   -5.8655   -6.8756 H   0  0  0  1  0  0  0  0  0  0  0  0
    7.1151   -7.1543   -7.3333 O   0  0  0  1  0  0  0  0  0  0  0  0
    7.7774   -6.9316   -7.9916 H   0  0  0  1  0  0  0  0  0  0  0  0
    5.1584   -3.4941   -6.5766 C   0  0  0  1  0  0  0  0  0  0  0  0
    4.8388   -4.4834   -6.3235 H   0  0  0  1  0  0  0  0  0  0  0  0
    5.4333   -2.9687   -5.6859 H   0  0  0  1  0  0  0  0  0  0  0  0
    4.0776   -2.8100   -7.1941 O   0  0  0  1  0  0  0  0  0  0  0  0
    3.6926   -2.1900   -6.5704 H   0  0  0  1  0  0  0  0  0  0  0  0
    6.3931   -3.5927   -7.4934 C   0  0  0  1  0  0  0  0  0  0  0  0
    6.9352   -2.6771   -7.3817 H   0  0  0  1  0  0  0  0  0  0  0  0
    5.9590   -3.6930   -8.8311 O   0  0  0  1  0  0  0  0  0  0  0  0
    5.8729   -2.8138   -9.2068 H   0  0  0  1  0  0  0  0  0  0  0  0
    7.3745   -4.7159   -7.2462 C   0  0  0  1  0  0  0  0  0  0  0  0
    7.8759   -4.9596   -8.1596 H   0  0  0  1  0  0  0  0  0  0  0  0
   13.2321   -3.0933   -2.6788 O   0  0  0  1  0  0  0  0  0  0  0  0
   22.7711   -7.6451   -5.1832 O   0  0  0  1  0  0  0  0  0  0  0  0
   23.5085   -6.2438   -5.5212 P   0  0  0  1  0  0  0  0  0  0  0  0
   22.9710   -5.2287   -4.4213 O   0  0  0  1  0  0  0  0  0  0  0  0
   23.0226   -5.8815   -6.8850 O   0  0  0  0  0  0  0  0  0  0  0  0
   24.9806   -6.3128   -5.2941 O   0  0  0  1  0  0  0  0  0  0  0  0
   22.2296   -5.2733   -3.0216 P   0  0  0  1  0  0  0  0  0  0  0  0
   21.0924   -6.3376   -3.2456 O   0  0  0  1  0  0  0  0  0  0  0  0
   21.6233   -3.9377   -2.8005 O   0  0  0  0  0  0  0  0  0  0  0  0
   23.1149   -5.8402   -1.9786 O   0  0  0  1  0  0  0  0  0  0  0  0
   22.7822   -8.1803   -3.8502 C   0  0  0  1  0  0  0  0  0  0  0  0
   21.8001   -8.5143   -3.5877 H   0  0  0  1  0  0  0  0  0  0  0  0
   23.0987   -7.4253   -3.1612 H   0  0  0  1  0  0  0  0  0  0  0  0
   23.7370   -9.3358   -3.8070 C   0  0  0  1  0  0  0  0  0  0  0  0
   24.7506   -9.1448   -3.9399 H   0  0  0  1  0  0  0  0  0  0  0  0
   23.3521  -10.5907   -3.6074 C   0  0  0  1  0  0  0  0  0  0  0  0
   24.3492  -11.6790   -3.3341 C   0  0  0  1  0  0  0  0  0  0  0  0
   25.2979  -11.2434   -3.0992 H   0  0  0  1  0  0  0  0  0  0  0  0
   24.4466  -12.2990   -4.2007 H   0  0  0  1  0  0  0  0  0  0  0  0
   24.0140  -12.2702   -2.5077 H   0  0  0  1  0  0  0  0  0  0  0  0
   21.9191  -11.0427   -3.6329 C   0  0  0  1  0  0  0  0  0  0  0  0
   21.8648  -11.9348   -4.2212 H   0  0  0  1  0  0  0  0  0  0  0  0
   21.3384  -10.2730   -4.0969 H   0  0  0  1  0  0  0  0  0  0  0  0
   21.3050  -11.3388   -2.2744 C   0  0  0  1  0  0  0  0  0  0  0  0
   20.4180  -10.7503   -2.1660 H   0  0  0  1  0  0  0  0  0  0  0  0
   22.0090  -11.0668   -1.5158 H   0  0  0  1  0  0  0  0  0  0  0  0
   20.9430  -12.7888   -2.0943 C   0  0  0  1  0  0  0  0  0  0  0  0
   21.0999  -13.4109   -2.9128 H   0  0  0  1  0  0  0  0  0  0  0  0
   20.4447  -13.3601   -1.0030 C   0  0  0  1  0  0  0  0  0  0  0  0
   20.1096  -14.8202   -0.9062 C   0  0  0  1  0  0  0  0  0  0  0  0
   19.7600  -15.1700   -1.8551 H   0  0  0  1  0  0  0  0  0  0  0  0
   19.3460  -14.9625   -0.1704 H   0  0  0  1  0  0  0  0  0  0  0  0
   20.9840  -15.3686   -0.6243 H   0  0  0  1  0  0  0  0  0  0  0  0
   20.1732  -12.5683    0.2451 C   0  0  0  1  0  0  0  0  0  0  0  0
   20.9462  -11.8336    0.3326 H   0  0  0  1  0  0  0  0  0  0  0  0
   20.2284  -13.2451    1.0720 H   0  0  0  1  0  0  0  0  0  0  0  0
   18.8418  -11.8412    0.3405 C   0  0  0  1  0  0  0  0  0  0  0  0
   18.0551  -12.5491    0.1829 H   0  0  0  1  0  0  0  0  0  0  0  0
   18.8070  -11.0927   -0.4233 H   0  0  0  1  0  0  0  0  0  0  0  0
   18.6276  -11.1758    1.6736 C   0  0  0  1  0  0  0  0  0  0  0  0
   19.0505  -10.2334    1.7947 H   0  0  0  1  0  0  0  0  0  0  0  0
   17.9539  -11.6639    2.7169 C   0  0  0  1  0  0  0  0  0  0  0  0
   17.3015  -13.0132    2.6577 C   0  0  0  1  0  0  0  0  0  0  0  0
   18.0739  -13.7537    2.6595 H   0  0  0  1  0  0  0  0  0  0  0  0
   16.7509  -13.0737    1.7422 H   0  0  0  1  0  0  0  0  0  0  0  0
   17.8219  -10.8828    3.9910 C   0  0  0  1  0  0  0  0  0  0  0  0
   17.6022   -9.8609    3.7624 H   0  0  0  1  0  0  0  0  0  0  0  0
   18.7397  -10.9362    4.5385 H   0  0  0  1  0  0  0  0  0  0  0  0
   17.0297  -11.2944    4.5809 H   0  0  0  1  0  0  0  0  0  0  0  0
   16.3486  -13.3269    3.7996 C   0  0  0  1  0  0  0  0  0  0  0  0
   16.8801  -13.2296    4.7232 H   0  0  0  1  0  0  0  0  0  0  0  0
   16.0052  -14.3343    3.6896 H   0  0  0  1  0  0  0  0  0  0  0  0
   15.1788  -12.4344    3.8360 C   0  0  0  1  0  0  0  0  0  0  0  0
   14.9452  -11.8992    4.6966 H   0  0  0  1  0  0  0  0  0  0  0  0
   14.4277  -12.3276    2.7452 C   0  0  0  1  0  0  0  0  0  0  0  0
   14.4953  -13.2871    1.5873 C   0  0  0  1  0  0  0  0  0  0  0  0
   14.8978  -14.2149    1.9369 H   0  0  0  1  0  0  0  0  0  0  0  0
   15.1425  -12.8755    0.8412 H   0  0  0  1  0  0  0  0  0  0  0  0
   13.4250  -11.2074    2.5814 C   0  0  0  1  0  0  0  0  0  0  0  0
   12.4384  -11.5828    2.7560 H   0  0  0  1  0  0  0  0  0  0  0  0
   13.4868  -10.8163    1.5873 H   0  0  0  1  0  0  0  0  0  0  0  0
   13.6404  -10.4305    3.2849 H   0  0  0  1  0  0  0  0  0  0  0  0
   13.1387  -13.5554    0.9564 C   0  0  0  1  0  0  0  0  0  0  0  0
   12.6824  -12.6233    0.6959 H   0  0  0  1  0  0  0  0  0  0  0  0
   12.5201  -14.0714    1.6606 H   0  0  0  1  0  0  0  0  0  0  0  0
   13.2827  -14.3919   -0.2752 C   0  0  0  1  0  0  0  0  0  0  0  0
   13.9015  -14.0339   -1.0305 H   0  0  0  1  0  0  0  0  0  0  0  0
   12.6790  -15.5584   -0.4761 C   0  0  0  1  0  0  0  0  0  0  0  0
   11.5270  -16.0532    0.3494 C   0  0  0  1  0  0  0  0  0  0  0  0
   10.6708  -16.0987   -0.2906 H   0  0  0  1  0  0  0  0  0  0  0  0
   11.3564  -15.3350    1.1239 H   0  0  0  1  0  0  0  0  0  0  0  0
   13.1151  -16.4913   -1.5708 C   0  0  0  1  0  0  0  0  0  0  0  0
   12.5724  -16.2698   -2.4660 H   0  0  0  1  0  0  0  0  0  0  0  0
   12.9204  -17.5015   -1.2767 H   0  0  0  1  0  0  0  0  0  0  0  0
   14.1627  -16.3667   -1.7490 H   0  0  0  1  0  0  0  0  0  0  0  0
   11.6710  -17.4128    1.0136 C   0  0  0  1  0  0  0  0  0  0  0  0
   12.4047  -17.9778    0.4775 H   0  0  0  1  0  0  0  0  0  0  0  0
   10.7281  -17.9163    0.9667 H   0  0  0  1  0  0  0  0  0  0  0  0
   12.0909  -17.3237    2.4416 C   0  0  0  1  0  0  0  0  0  0  0  0
   13.0516  -17.6673    2.6431 H   0  0  0  1  0  0  0  0  0  0  0  0
   11.4200  -16.8707    3.4939 C   0  0  0  1  0  0  0  0  0  0  0  0
   10.1718  -16.0466    3.3305 C   0  0  0  1  0  0  0  0  0  0  0  0
   10.2320  -15.5177    2.4023 H   0  0  0  1  0  0  0  0  0  0  0  0
   10.1179  -15.3464    4.1378 H   0  0  0  1  0  0  0  0  0  0  0  0
   11.8229  -17.1247    4.9170 C   0  0  0  1  0  0  0  0  0  0  0  0
   12.7500  -17.6587    4.9358 H   0  0  0  1  0  0  0  0  0  0  0  0
   11.0671  -17.7056    5.4031 H   0  0  0  1  0  0  0  0  0  0  0  0
   11.9389  -16.1911    5.4266 H   0  0  0  1  0  0  0  0  0  0  0  0
    8.9023  -16.8825    3.3296 C   0  0  0  1  0  0  0  0  0  0  0  0
    8.6597  -17.1323    2.3178 H   0  0  0  1  0  0  0  0  0  0  0  0
    8.1109  -16.3003    3.7533 H   0  0  0  1  0  0  0  0  0  0  0  0
    9.0342  -18.1491    4.1141 C   0  0  0  1  0  0  0  0  0  0  0  0
    9.2796  -18.1008    5.1236 H   0  0  0  1  0  0  0  0  0  0  0  0
    8.8429  -19.3399    3.5431 C   0  0  0  1  0  0  0  0  0  0  0  0
    8.2112  -19.5247    2.1953 C   0  0  0  1  0  0  0  0  0  0  0  0
    7.5855  -18.6805    1.9938 H   0  0  0  1  0  0  0  0  0  0  0  0
    7.6158  -20.4135    2.2172 H   0  0  0  1  0  0  0  0  0  0  0  0
    9.2560  -20.6141    4.2244 C   0  0  0  1  0  0  0  0  0  0  0  0
    8.3854  -21.1832    4.4757 H   0  0  0  1  0  0  0  0  0  0  0  0
    9.7994  -20.3815    5.1163 H   0  0  0  1  0  0  0  0  0  0  0  0
    9.8772  -21.1849    3.5663 H   0  0  0  1  0  0  0  0  0  0  0  0
    9.2326  -19.6521    1.0690 C   0  0  0  1  0  0  0  0  0  0  0  0
    9.8328  -20.5242    1.2238 H   0  0  0  1  0  0  0  0  0  0  0  0
    9.8598  -18.7853    1.0516 H   0  0  0  1  0  0  0  0  0  0  0  0
    8.4945  -19.7700   -0.2377 C   0  0  0  1  0  0  0  0  0  0  0  0
    7.5447  -19.3479   -0.2734 H   0  0  0  1  0  0  0  0  0  0  0  0
    8.9246  -20.3544   -1.3495 C   0  0  0  1  0  0  0  0  0  0  0  0
   10.1144  -21.2766   -1.3393 C   0  0  0  1  0  0  0  0  0  0  0  0
   10.4469  -21.3976   -2.3491 H   0  0  0  1  0  0  0  0  0  0  0  0
    9.7959  -22.2220   -0.9524 H   0  0  0  1  0  0  0  0  0  0  0  0
    8.2885  -20.1636   -2.6976 C   0  0  0  1  0  0  0  0  0  0  0  0
    7.2751  -20.5054   -2.6660 H   0  0  0  1  0  0  0  0  0  0  0  0
    8.8309  -20.7240   -3.4302 H   0  0  0  1  0  0  0  0  0  0  0  0
    8.3066  -19.1256   -2.9566 H   0  0  0  1  0  0  0  0  0  0  0  0
   11.2973  -20.8048   -0.5095 C   0  0  0  1  0  0  0  0  0  0  0  0
   11.0527  -20.9159    0.5262 H   0  0  0  1  0  0  0  0  0  0  0  0
   11.4747  -19.7720   -0.7258 H   0  0  0  1  0  0  0  0  0  0  0  0
   12.5492  -21.5705   -0.7872 C   0  0  0  1  0  0  0  0  0  0  0  0
   12.5186  -22.6081   -0.7233 H   0  0  0  1  0  0  0  0  0  0  0  0
   13.7002  -20.9913   -1.1118 C   0  0  0  1  0  0  0  0  0  0  0  0
   14.9027  -21.7454   -1.6110 C   0  0  0  1  0  0  0  0  0  0  0  0
   14.6135  -22.7643   -1.7632 H   0  0  0  1  0  0  0  0  0  0  0  0
   15.6591  -21.6978   -0.8557 H   0  0  0  1  0  0  0  0  0  0  0  0
   13.8910  -19.5047   -1.0018 C   0  0  0  1  0  0  0  0  0  0  0  0
   13.0396  -19.1463   -0.4618 H   0  0  0  1  0  0  0  0  0  0  0  0
   13.9311  -19.0600   -1.9742 H   0  0  0  1  0  0  0  0  0  0  0  0
   14.7922  -19.2818   -0.4697 H   0  0  0  1  0  0  0  0  0  0  0  0
   15.5028  -21.2294   -2.9087 C   0  0  0  1  0  0  0  0  0  0  0  0
   16.4165  -21.7506   -3.1043 H   0  0  0  1  0  0  0  0  0  0  0  0
   15.7024  -20.1827   -2.8111 H   0  0  0  1  0  0  0  0  0  0  0  0
   14.5552  -21.4459   -4.0581 C   0  0  0  1  0  0  0  0  0  0  0  0
   14.1853  -22.4072   -4.2023 H   0  0  0  1  0  0  0  0  0  0  0  0
   14.1527  -20.4923   -4.9097 C   0  0  0  1  0  0  0  0  0  0  0  0
   14.5986  -19.0837   -4.8005 C   0  0  0  1  0  0  0  0  0  0  0  0
   15.2149  -18.9704   -3.9332 H   0  0  0  1  0  0  0  0  0  0  0  0
   13.7443  -18.4449   -4.7166 H   0  0  0  1  0  0  0  0  0  0  0  0
   15.1586  -18.8184   -5.6728 H   0  0  0  1  0  0  0  0  0  0  0  0
   13.2073  -20.8668   -6.0252 C   0  0  0  1  0  0  0  0  0  0  0  0
   13.5910  -20.4373   -6.9269 H   0  0  0  1  0  0  0  0  0  0  0  0
   12.2307  -20.4796   -5.8224 H   0  0  0  1  0  0  0  0  0  0  0  0
   13.1568  -21.9314   -6.1198 H   0  0  0  1  0  0  0  0  0  0  0  0
   15.8856   -5.1828   -1.6026 C   0  0  0  1  0  0  0  0  0  0  0  0
   16.0141   -5.7267   -0.6901 H   0  0  0  1  0  0  0  0  0  0  0  0
   14.6787   -5.7298   -2.3539 C   0  0  0  1  0  0  0  0  0  0  0  0
   14.8462   -6.7557   -2.6077 H   0  0  0  1  0  0  0  0  0  0  0  0
   15.6761   -3.7998   -1.3074 O   0  0  0  1  0  0  0  0  0  0  0  0
   14.4876   -4.9060   -3.6312 C   0  0  0  1  0  0  0  0  0  0  0  0
   13.5661   -5.1952   -4.0917 H   0  0  0  1  0  0  0  0  0  0  0  0
   15.6267   -2.9905   -2.4927 C   0  0  0  1  0  0  0  0  0  0  0  0
   16.5345   -3.1145   -3.0453 H   0  0  0  1  0  0  0  0  0  0  0  0
   14.4479   -3.4126   -3.3570 C   0  0  0  1  0  0  0  0  0  0  0  0
   14.4878   -2.8842   -4.2866 H   0  0  0  1  0  0  0  0  0  0  0  0
   17.0498   -5.3247   -2.4082 O   0  0  0  1  0  0  0  0  0  0  0  0
   13.5130   -5.6255   -1.5343 O   0  0  0  1  0  0  0  0  0  0  0  0
   13.6056   -6.2001   -0.7709 H   0  0  0  1  0  0  0  0  0  0  0  0
   15.5653   -5.1787   -4.5150 O   0  0  0  1  0  0  0  0  0  0  0  0
   16.3787   -4.8261   -4.1468 H   0  0  0  1  0  0  0  0  0  0  0  0
   15.4671   -1.5307   -2.1002 C   0  0  0  1  0  0  0  0  0  0  0  0
   16.4278   -1.0604   -2.0755 H   0  0  0  1  0  0  0  0  0  0  0  0
   15.0152   -1.4693   -1.1323 H   0  0  0  1  0  0  0  0  0  0  0  0
   14.8458   -1.0349   -2.8165 H   0  0  0  1  0  0  0  0  0  0  0  0
   19.8210   -6.2243   -2.5553 C   0  0  0  1  0  0  0  0  0  0  0  0
   19.6446   -5.2009   -2.2974 H   0  0  0  1  0  0  0  0  0  0  0  0
   18.7057   -6.7159   -3.4655 C   0  0  0  1  0  0  0  0  0  0  0  0
   18.9134   -7.7177   -3.7789 H   0  0  0  1  0  0  0  0  0  0  0  0
   19.8542   -7.0105   -1.3723 O   0  0  0  1  0  0  0  0  0  0  0  0
   17.3890   -6.6828   -2.6958 C   0  0  0  1  0  0  0  0  0  0  0  0
   16.6211   -7.1231   -3.2969 H   0  0  0  1  0  0  0  0  0  0  0  0
   18.6606   -6.8842   -0.5784 C   0  0  0  1  0  0  0  0  0  0  0  0
   18.7681   -7.4353    0.3325 H   0  0  0  1  0  0  0  0  0  0  0  0
   17.5020   -7.4506   -1.3965 C   0  0  0  1  0  0  0  0  0  0  0  0
   16.5916   -7.3531   -0.8428 H   0  0  0  1  0  0  0  0  0  0  0  0
   18.6111   -5.8516   -4.6325 N   0  0  0  1  0  0  0  0  0  0  0  0
   18.3273   -4.9215   -4.5105 H   0  0  0  1  0  0  0  0  0  0  0  0
   17.7445   -8.8314   -1.6766 O   0  0  0  1  0  0  0  0  0  0  0  0
   18.2951   -9.1609   -0.9625 H   0  0  0  1  0  0  0  0  0  0  0  0
   18.4081   -5.4501   -0.2650 C   0  0  0  1  0  0  0  0  0  0  0  0
   17.3929   -5.3530    0.0588 H   0  0  0  1  0  0  0  0  0  0  0  0
   18.5533   -4.8822   -1.1602 H   0  0  0  1  0  0  0  0  0  0  0  0
   19.2433   -4.9123    0.7378 O   0  0  0  1  0  0  0  0  0  0  0  0
   18.6881   -4.6064    1.4587 H   0  0  0  1  0  0  0  0  0  0  0  0
   18.8989   -6.2837   -5.8697 C   0  0  0  1  0  0  0  0  0  0  0  0
   19.3449   -7.4047   -6.0996 O   0  0  0  1  0  0  0  0  0  0  0  0
   18.6392   -5.2952   -6.9898 C   0  0  0  1  0  0  0  0  0  0  0  0
   17.8828   -4.6456   -6.6016 H   0  0  0  1  0  0  0  0  0  0  0  0
   18.2910   -5.7999   -7.8668 H   0  0  0  1  0  0  0  0  0  0  0  0
   19.5271   -4.7455   -7.2229 H   0  0  0  1  0  0  0  0  0  0  0  0
  1  2  1  0  0  0  0
  1  3  1  0  0  0  0
  1  4  1  0  0  0  0
  1 44  1  0  0  0  0
  3 20  1  0  0  0  0
  4  5  1  0  0  0  0
  4  6  1  0  0  0  0
  4  8  1  0  0  0  0
  6  7  1  0  0  0  0
  8  9  1  0  0  0  0
  8 10  1  0  0  0  0
  8 20  1  0  0  0  0
 10 11  1  0  0  0  0
 12 13  1  0  0  0  0
 12 14  1  0  0  0  0
 12 15  1  0  0  0  0
 12 17  1  0  0  0  0
 15 16  1  0  0  0  0
 17 18  1  0  0  0  0
 17 19  1  0  0  0  0
 17 20  1  0  0  0  0
 19 22  1  0  0  0  0
 20 21  1  0  0  0  0
 22 23  1  0  0  0  0
 22 24  1  0  0  0  0
 22 25  1  0  0  0  0
 24 42  1  0  0  0  0
 25 26  1  0  0  0  0
 25 27  1  0  0  0  0
 25 29  1  0  0  0  0
 27 28  1  0  0  0  0
 29 30  1  0  0  0  0
 29 31  1  0  0  0  0
 29 42  1  0  0  0  0
 31 32  1  0  0  0  0
 33 34  1  0  0  0  0
 33 35  1  0  0  0  0
 33 36  1  0  0  0  0
 33 38  1  0  0  0  0
 36 37  1  0  0  0  0
 38 39  1  0  0  0  0
 38 40  1  0  0  0  0
 38 42  1  0  0  0  0
 40 41  1  0  0  0  0
 42 43  1  0  0  0  0
 44194  1  0  0  0  0
 45 46  1  0  0  0  0
 45 54  1  0  0  0  0
 46 47  1  0  0  0  0
 46 48  1  0  0  0  0
 46 49  2  0  0  0  0
 47 50  1  0  0  0  0
 50 51  1  0  0  0  0
 50 52  1  0  0  0  0
 50 53  2  0  0  0  0
 51205  1  0  0  0  0
 54 55  1  0  0  0  0
 54 56  1  0  0  0  0
 54 57  1  0  0  0  0
 57 58  1  0  0  0  0
 57 59  2  0  0  0  0
 59 60  1  0  0  0  0
 59 64  1  0  0  0  0
 60 61  1  0  0  0  0
 60 62  1  0  0  0  0
 60 63  1  0  0  0  0
 64 65  1  0  0  0  0
 64 66  1  0  0  0  0
 64 67  1  0  0  0  0
 67 68  1  0  0  0  0
 67 69  1  0  0  0  0
 67 70  1  0  0  0  0
 70 71  1  0  0  0  0
 70 72  2  0  0  0  0
 72 73  1  0  0  0  0
 72 77  1  0  0  0  0
 73 74  1  0  0  0  0
 73 75  1  0  0  0  0
 73 76  1  0  0  0  0
 77 78  1  0  0  0  0
 77 79  1  0  0  0  0
 77 80  1  0  0  0  0
 80 81  1  0  0  0  0
 80 82  1  0  0  0  0
 80 83  1  0  0  0  0
 83 84  1  0  0  0  0
 83 85  2  0  0  0  0
 85 86  1  0  0  0  0
 85 89  1  0  0  0  0
 86 87  1  0  0  0  0
 86 88  1  0  0  0  0
 86 93  1  0  0  0  0
 89 90  1  0  0  0  0
 89 91  1  0  0  0  0
 89 92  1  0  0  0  0
 93 94  1  0  0  0  0
 93 95  1  0  0  0  0
 93 96  1  0  0  0  0
 96 97  1  0  0  0  0
 96 98  2  0  0  0  0
 98 99  1  0  0  0  0
 98102  1  0  0  0  0
 99100  1  0  0  0  0
 99101  1  0  0  0  0
 99106  1  0  0  0  0
102103  1  0  0  0  0
102104  1  0  0  0  0
102105  1  0  0  0  0
106107  1  0  0  0  0
106108  1  0  0  0  0
106109  1  0  0  0  0
109110  1  0  0  0  0
109111  2  0  0  0  0
111112  1  0  0  0  0
111115  1  0  0  0  0
112113  1  0  0  0  0
112114  1  0  0  0  0
112119  1  0  0  0  0
115116  1  0  0  0  0
115117  1  0  0  0  0
115118  1  0  0  0  0
119120  1  0  0  0  0
119121  1  0  0  0  0
119122  1  0  0  0  0
122123  1  0  0  0  0
122124  2  0  0  0  0
124125  1  0  0  0  0
124128  1  0  0  0  0
125126  1  0  0  0  0
125127  1  0  0  0  0
125132  1  0  0  0  0
128129  1  0  0  0  0
128130  1  0  0  0  0
128131  1  0  0  0  0
132133  1  0  0  0  0
132134  1  0  0  0  0
132135  1  0  0  0  0
135136  1  0  0  0  0
135137  2  0  0  0  0
137138  1  0  0  0  0
137141  1  0  0  0  0
138139  1  0  0  0  0
138140  1  0  0  0  0
138145  1  0  0  0  0
141142  1  0  0  0  0
141143  1  0  0  0  0
141144  1  0  0  0  0
145146  1  0  0  0  0
145147  1  0  0  0  0
145148  1  0  0  0  0
148149  1  0  0  0  0
148150  2  0  0  0  0
150151  1  0  0  0  0
150154  1  0  0  0  0
151152  1  0  0  0  0
151153  1  0  0  0  0
151158  1  0  0  0  0
154155  1  0  0  0  0
154156  1  0  0  0  0
154157  1  0  0  0  0
158159  1  0  0  0  0
158160  1  0  0  0  0
158161  1  0  0  0  0
161162  1  0  0  0  0
161163  2  0  0  0  0
163164  1  0  0  0  0
163167  1  0  0  0  0
164165  1  0  0  0  0
164166  1  0  0  0  0
164171  1  0  0  0  0
167168  1  0  0  0  0
167169  1  0  0  0  0
167170  1  0  0  0  0
171172  1  0  0  0  0
171173  1  0  0  0  0
171174  1  0  0  0  0
174175  1  0  0  0  0
174176  2  0  0  0  0
176177  1  0  0  0  0
176181  1  0  0  0  0
177178  1  0  0  0  0
177179  1  0  0  0  0
177180  1  0  0  0  0
181182  1  0  0  0  0
181183  1  0  0  0  0
181184  1  0  0  0  0
185186  1  0  0  0  0
185187  1  0  0  0  0
185189  1  0  0  0  0
185196  1  0  0  0  0
187188  1  0  0  0  0
187190  1  0  0  0  0
187197  1  0  0  0  0
189192  1  0  0  0  0
190191  1  0  0  0  0
190194  1  0  0  0  0
190199  1  0  0  0  0
192193  1  0  0  0  0
192194  1  0  0  0  0
192201  1  0  0  0  0
194195  1  0  0  0  0
196210  1  0  0  0  0
197198  1  0  0  0  0
199200  1  0  0  0  0
201202  1  0  0  0  0
201203  1  0  0  0  0
201204  1  0  0  0  0
205206  1  0  0  0  0
205207  1  0  0  0  0
205209  1  0  0  0  0
207208  1  0  0  0  0
207210  1  0  0  0  0
207216  1  0  0  0  0
209212  1  0  0  0  0
210211  1  0  0  0  0
210214  1  0  0  0  0
212213  1  0  0  0  0
212214  1  0  0  0  0
212220  1  0  0  0  0
214215  1  0  0  0  0
214218  1  0  0  0  0
216217  1  0  0  0  0
216225  1  0  0  0  0
218219  1  0  0  0  0
220221  1  0  0  0  0
220222  1  0  0  0  0
220223  1  0  0  0  0
223224  1  0  0  0  0
225226  2  0  0  0  0
225227  1  0  0  0  0
227228  1  0  0  0  0
227229  1  0  0  0  0
227230  1  0  0  0  0
M  BCL ATM C_TeTeTeTe H_S O_Te2Te2TeTe C_TeTeTeTe H_S O_Te2Te2TeTe H_S C_TeTeTeTe H_S O_Te2Te2TeTe H_S C_TeTeTeTe H_S H_S O_Te2Te2TeTe H_S C_TeTeTeTe H_S O_Te2Te2TeTe C_TeTeTeTe H_S C_TeTeTeTe H_S O_Te2Te2TeTe C_TeTeTeTe H_S O_Te2Te2TeTe H_S C_TeTeTeTe H_S O_Te2Te2TeTe H_S C_TeTeTeTe H_S H_S O_Te2Te2TeTe H_S C_TeTeTeTe H_S O_Te2Te2TeTe H_S C_TeTeTeTe H_S O_Te2Te2TeTe O_Tr2TrTrPi2 P_TeTeTeTePi O_Tr2TrTrPi2 O_Te2Te2TeTe O_Tr2Tr2TrPi P_TeTeTeTePi O_Tr2TrTrPi2 O_Te2Te2TeTe O_Tr2Tr2TrPi C_TeTeTeTe H_S H_S C_TrTrTrPi H_S C_TrTrTrPi C_TeTeTeTe H_S H_S H_S C_TeTeTeTe H_S H_S C_TeTeTeTe H_S H_S C_TrTrTrPi H_S C_TrTrTrPi C_TeTeTeTe H_S H_S H_S C_TeTeTeTe H_S H_S C_TeTeTeTe H_S H_S C_TrTrTrPi H_S C_TrTrTrPi C_TeTeTeTe H_S H_S C_TeTeTeTe H_S H_S H_S C_TeTeTeTe H_S H_S C_TrTrTrPi H_S C_TrTrTrPi C_TeTeTeTe H_S H_S C_TeTeTeTe H_S H_S H_S C_TeTeTeTe H_S H_S C_TrTrTrPi H_S C_TrTrTrPi C_TeTeTeTe H_S H_S C_TeTeTeTe H_S H_S H_S C_TeTeTeTe H_S H_S C_TrTrTrPi H_S C_TrTrTrPi C_TeTeTeTe H_S H_S C_TeTeTeTe H_S H_S H_S C_TeTeTeTe H_S H_S C_TrTrTrPi H_S C_TrTrTrPi C_TeTeTeTe H_S H_S C_TeTeTeTe H_S H_S H_S C_TeTeTeTe H_S H_S C_TrTrTrPi H_S C_TrTrTrPi C_TeTeTeTe H_S H_S C_TeTeTeTe H_S H_S H_S C_TeTeTeTe H_S H_S C_TrTrTrPi H_S C_TrTrTrPi C_TeTeTeTe H_S H_S C_TeTeTeTe H_S H_S H_S C_TeTeTeTe H_S H_S C_TrTrTrPi H_S C_TrTrTrPi C_TeTeTeTe H_S H_S H_S C_TeTeTeTe H_S H_S H_S C_TeTeTeTe H_S C_TeTeTeTe H_S O_Te2Te2TeTe C_TeTeTeTe H_S C_TeTeTeTe H_S C_TeTeTeTe H_S O_Te2Te2TeTe O_Te2Te2TeTe H_S O_Te2Te2TeTe H_S C_TeTeTeTe H_S H_S H_S C_TeTeTeTe H_S C_TeTeTeTe H_S O_Te2Te2TeTe C_TeTeTeTe H_S C_TeTeTeTe H_S C_TeTeTeTe H_S N_TrTrTrPi2 H_S O_Te2Te2TeTe H_S C_TeTeTeTe H_S H_S O_Te2Te2TeTe H_S C_TrTrTrPi O_Tr2Tr2TrPi C_TeTeTeTe H_S H_S H_S
M  BCL BND NonConjugatedSingleBond NonConjugatedSingleBondInRing NonConjugatedSingleBondInRing NonConjugatedSingleBond NonConjugatedSingleBondInRing NonConjugatedSingleBond NonConjugatedSingleBond NonConjugatedSingleBondInRing NonConjugatedSingleBond NonConjugatedSingleBond NonConjugatedSingleBond NonConjugatedSingleBondInRing NonConjugatedSingleBond NonConjugatedSingleBond NonConjugatedSingleBond NonConjugatedSingleBond NonConjugatedSingleBond NonConjugatedSingleBond NonConjugatedSingleBond NonConjugatedSingleBond NonConjugatedSingleBond NonConjugatedSingleBond NonConjugatedSingleBond NonConjugatedSingleBond NonConjugatedSingleBondInRing NonConjugatedSingleBondInRing NonConjugatedSingleBondInRing NonConjugatedSingleBond NonConjugatedSingleBond NonConjugatedSingleBondInRing NonConjugatedSingleBond NonConjugatedSingleBond NonConjugatedSingleBond NonConjugatedSingleBondInRing NonConjugatedSingleBond NonConjugatedSingleBond NonConjugatedSingleBond NonConjugatedSingleBond NonConjugatedSingleBond NonConjugatedSingleBond NonConjugatedSingleBond NonConjugatedSingleBond NonConjugatedSingleBond NonConjugatedSingleBond NonConjugatedSingleBond NonConjugatedSingleBond ConjugatedSingleBond NonConjugatedSingleBond ConjugatedSingleBond ConjugatedSingleBond ConjugatedDoubleBond ConjugatedSingleBond ConjugatedSingleBond ConjugatedSingleBond ConjugatedDoubleBond NonConjugatedSingleBond NonConjugatedSingleBond NonConjugatedSingleBond NonConjugatedSingleBond NonConjugatedSingleBond ConjugatedDoubleBond NonConjugatedSingleBond NonConjugatedSingleBond NonConjugatedSingleBond NonConjugatedSingleBond NonConjugatedSingleBond NonConjugatedSingleBond NonConjugatedSingleBond NonConjugatedSingleBond NonConjugatedSingleBond NonConjugatedSingleBond NonConjugatedSingleBond NonConjugatedSingleBond ConjugatedDoubleBond NonConjugatedSingleBond NonConjugatedSingleBond NonConjugatedSingleBond NonConjugatedSingleBond NonConjugatedSingleBond NonConjugatedSingleBond NonConjugatedSingleBond NonConjugatedSingleBond NonConjugatedSingleBond NonConjugatedSingleBond NonConjugatedSingleBond NonConjugatedSingleBond ConjugatedDoubleBond NonConjugatedSingleBond NonConjugatedSingleBond NonConjugatedSingleBond NonConjugatedSingleBond NonConjugatedSingleBond NonConjugatedSingleBond NonConjugatedSingleBond NonConjugatedSingleBond NonConjugatedSingleBond NonConjugatedSingleBond NonConjugatedSingleBond NonConjugatedSingleBond ConjugatedDoubleBond NonConjugatedSingleBond NonConjugatedSingleBond NonConjugatedSingleBond NonConjugatedSingleBond NonConjugatedSingleBond NonConjugatedSingleBond NonConjugatedSingleBond NonConjugatedSingleBond NonConjugatedSingleBond NonConjugatedSingleBond NonConjugatedSingleBond NonConjugatedSingleBond ConjugatedDoubleBond NonConjugatedSingleBond NonConjugatedSingleBond NonConjugatedSingleBond NonConjugatedSingleBond NonConjugatedSingleBond NonConjugatedSingleBond NonConjugatedSingleBond NonConjugatedSingleBond NonConjugatedSingleBond NonConjugatedSingleBond NonConjugatedSingleBond NonConjugatedSingleBond ConjugatedDoubleBond NonConjugatedSingleBond NonConjugatedSingleBond NonConjugatedSingleBond NonConjugatedSingleBond NonConjugatedSingleBond NonConjugatedSingleBond NonConjugatedSingleBond NonConjugatedSingleBond NonConjugatedSingleBond NonConjugatedSingleBond NonConjugatedSingleBond NonConjugatedSingleBond ConjugatedDoubleBond NonConjugatedSingleBond NonConjugatedSingleBond NonConjugatedSingleBond NonConjugatedSingleBond NonConjugatedSingleBond NonConjugatedSingleBond NonConjugatedSingleBond NonConjugatedSingleBond NonConjugatedSingleBond NonConjugatedSingleBond NonConjugatedSingleBond NonConjugatedSingleBond ConjugatedDoubleBond NonConjugatedSingleBond NonConjugatedSingleBond NonConjugatedSingleBond NonConjugatedSingleBond NonConjugatedSingleBond NonConjugatedSingleBond NonConjugatedSingleBond NonConjugatedSingleBond NonConjugatedSingleBond NonConjugatedSingleBond NonConjugatedSingleBond NonConjugatedSingleBond ConjugatedDoubleBond NonConjugatedSingleBond NonConjugatedSingleBond NonConjugatedSingleBond NonConjugatedSingleBond NonConjugatedSingleBond NonConjugatedSingleBond NonConjugatedSingleBond NonConjugatedSingleBond NonConjugatedSingleBond NonConjugatedSingleBond NonConjugatedSingleBond NonConjugatedSingleBond ConjugatedDoubleBond NonConjugatedSingleBond NonConjugatedSingleBond NonConjugatedSingleBond NonConjugatedSingleBond NonConjugatedSingleBond NonConjugatedSingleBond NonConjugatedSingleBond NonConjugatedSingleBond NonConjugatedSingleBond NonConjugatedSingleBondInRing NonConjugatedSingleBondInRing NonConjugatedSingleBond NonConjugatedSingleBond NonConjugatedSingleBondInRing NonConjugatedSingleBond NonConjugatedSingleBondInRing NonConjugatedSingleBond NonConjugatedSingleBondInRing NonConjugatedSingleBond NonConjugatedSingleBond NonConjugatedSingleBondInRing NonConjugatedSingleBond NonConjugatedSingleBond NonConjugatedSingleBond NonConjugatedSingleBond NonConjugatedSingleBond NonConjugatedSingleBond NonConjugatedSingleBond NonConjugatedSingleBond NonConjugatedSingleBond NonConjugatedSingleBondInRing NonConjugatedSingleBondInRing NonConjugatedSingleBond NonConjugatedSingleBondInRing NonConjugatedSingleBond NonConjugatedSingleBondInRing NonConjugatedSingleBond NonConjugatedSingleBondInRing NonConjugatedSingleBond NonConjugatedSingleBondInRing NonConjugatedSingleBond NonConjugatedSingleBond NonConjugatedSingleBond NonConjugatedSingleBond AmideSingleBond NonConjugatedSingleBond NonConjugatedSingleBond NonConjugatedSingleBond NonConjugatedSingleBond NonConjugatedSingleBond ConjugatedDoubleBond NonConjugatedSingleBond NonConjugatedSingleBond NonConjugatedSingleBond NonConjugatedSingleBond
M  BCL CHI   1   R   4   R   8   R  17   S  20   R  22   S  25   R  29   S  38   S  42   R  46   R  50   S 185   R 187   S 190   S 192   R 194   R 205   R 207   S 210   R 212   S 214   S
M  BCL DBI - - E E E E E E E E Z - -
M  END
> <ConfClashScore>
0.00739006 

> <ConfOneFourInteractionScore>
-0.959864 

> <ConfScore>
0.972914 

> <ConfScorePBest>
0.0102575 

> <ConfTolerance>
3.75475 

$$$$
L05.****
  PyMOL2.5          3D                             0

230233  0  0  0  0  0  0  0  0999 V2000
   12.0346   -2.5431   -2.7242 C   0  0  0  1  0  0  0  0  0  0  0  0
   11.2478   -2.8457   -2.0652 H   0  0  0  1  0  0  0  0  0  0  0  0
   11.7869   -2.9881   -4.0303 O   0  0  0  1  0  0  0  0  0  0  0  0
   12.0823   -1.0133   -2.8480 C   0  0  0  1  0  0  0  0  0  0  0  0
   12.6971   -0.5836   -2.0850 H   0  0  0  1  0  0  0  0  0  0  0  0
   10.7717   -0.4498   -2.7780 O   0  0  0  1  0  0  0  0  0  0  0  0
   10.5885    0.0366   -3.5851 H   0  0  0  1  0  0  0  0  0  0  0  0
   12.6884   -0.8106   -4.2119 C   0  0  0  1  0  0  0  0  0  0  0  0
   12.3766    0.1210   -4.6358 H   0  0  0  1  0  0  0  0  0  0  0  0
   14.1149   -0.8526   -4.1500 O   0  0  0  1  0  0  0  0  0  0  0  0
   14.3917   -1.0157   -3.2454 H   0  0  0  1  0  0  0  0  0  0  0  0
    9.6577   -1.5171   -4.9554 C   0  0  0  1  0  0  0  0  0  0  0  0
    9.8258   -2.0422   -4.0383 H   0  0  0  1  0  0  0  0  0  0  0  0
    9.4169   -0.4963   -4.7435 H   0  0  0  1  0  0  0  0  0  0  0  0
    8.5782   -2.1218   -5.6551 O   0  0  0  1  0  0  0  0  0  0  0  0
    8.2823   -1.5361   -6.3558 H   0  0  0  1  0  0  0  0  0  0  0  0
   10.9169   -1.5732   -5.8084 C   0  0  0  1  0  0  0  0  0  0  0  0
   11.0961   -0.5879   -6.1852 H   0  0  0  1  0  0  0  0  0  0  0  0
   10.6942   -2.4523   -6.9077 O   0  0  0  1  0  0  0  0  0  0  0  0
   12.1385   -1.9919   -5.0168 C   0  0  0  1  0  0  0  0  0  0  0  0
   12.8839   -2.3711   -5.6843 H   0  0  0  1  0  0  0  0  0  0  0  0
   11.7480   -2.5822   -7.8247 C   0  0  0  1  0  0  0  0  0  0  0  0
   11.9974   -1.6200   -8.2207 H   0  0  0  1  0  0  0  0  0  0  0  0
   12.8643   -3.1740   -7.2176 O   0  0  0  1  0  0  0  0  0  0  0  0
   11.3709   -3.5535   -8.9526 C   0  0  0  1  0  0  0  0  0  0  0  0
   10.8760   -3.0428   -9.7521 H   0  0  0  1  0  0  0  0  0  0  0  0
   10.5344   -4.6052   -8.4684 O   0  0  0  1  0  0  0  0  0  0  0  0
   10.7233   -5.4131   -8.9513 H   0  0  0  1  0  0  0  0  0  0  0  0
   12.7098   -4.0840   -9.3936 C   0  0  0  1  0  0  0  0  0  0  0  0
   13.1658   -3.4298  -10.1070 H   0  0  0  1  0  0  0  0  0  0  0  0
   12.5831   -5.3868   -9.9561 O   0  0  0  1  0  0  0  0  0  0  0  0
   12.7346   -5.3432  -10.9030 H   0  0  0  1  0  0  0  0  0  0  0  0
   15.8112   -3.6266   -7.0798 C   0  0  0  1  0  0  0  0  0  0  0  0
   15.7043   -4.5509   -6.5514 H   0  0  0  1  0  0  0  0  0  0  0  0
   16.8293   -3.5060   -7.3861 H   0  0  0  1  0  0  0  0  0  0  0  0
   15.5147   -2.5960   -6.1893 O   0  0  0  1  0  0  0  0  0  0  0  0
   14.5667   -2.5630   -6.0416 H   0  0  0  1  0  0  0  0  0  0  0  0
   14.9568   -3.7159   -8.3433 C   0  0  0  1  0  0  0  0  0  0  0  0
   15.3889   -4.4884   -8.9445 H   0  0  0  1  0  0  0  0  0  0  0  0
   15.0367   -2.5005   -9.0831 O   0  0  0  1  0  0  0  0  0  0  0  0
   15.6091   -2.6254   -9.8436 H   0  0  0  1  0  0  0  0  0  0  0  0
   13.5151   -4.1238   -8.0914 C   0  0  0  1  0  0  0  0  0  0  0  0
   13.4907   -5.1047   -7.6646 H   0  0  0  1  0  0  0  0  0  0  0  0
   13.2456   -3.0369   -2.2577 O   0  0  0  1  0  0  0  0  0  0  0  0
   16.6218   -9.3368   -6.6357 O   0  0  0  1  0  0  0  0  0  0  0  0
   17.1089   -8.0620   -5.8874 P   0  0  0  1  0  0  0  0  0  0  0  0
   18.6592   -7.8358   -6.2224 O   0  0  0  1  0  0  0  0  0  0  0  0
   17.0676   -8.3023   -4.3802 O   0  0  0  0  0  0  0  0  0  0  0  0
   16.2549   -6.9241   -6.3338 O   0  0  0  1  0  0  0  0  0  0  0  0
   20.1462   -8.3064   -5.7510 P   0  0  0  1  0  0  0  0  0  0  0  0
   20.2147   -7.5269   -4.3897 O   0  0  0  1  0  0  0  0  0  0  0  0
   21.1455   -7.7850   -6.7123 O   0  0  0  0  0  0  0  0  0  0  0  0
   20.1043   -9.7446   -5.4278 O   0  0  0  1  0  0  0  0  0  0  0  0
   17.3136  -10.5867   -6.4881 C   0  0  0  1  0  0  0  0  0  0  0  0
   18.0627  -10.4802   -5.7315 H   0  0  0  1  0  0  0  0  0  0  0  0
   17.7788  -10.8366   -7.4187 H   0  0  0  1  0  0  0  0  0  0  0  0
   16.3836  -11.6973   -6.0970 C   0  0  0  1  0  0  0  0  0  0  0  0
   16.0893  -11.7261   -5.0999 H   0  0  0  1  0  0  0  0  0  0  0  0
   15.8947  -12.6490   -6.8873 C   0  0  0  1  0  0  0  0  0  0  0  0
   15.1089  -13.8444   -6.4325 C   0  0  0  1  0  0  0  0  0  0  0  0
   15.7804  -14.6058   -6.0945 H   0  0  0  1  0  0  0  0  0  0  0  0
   14.5264  -14.2193   -7.2480 H   0  0  0  1  0  0  0  0  0  0  0  0
   14.4597  -13.5602   -5.6308 H   0  0  0  1  0  0  0  0  0  0  0  0
   16.1231  -12.5635   -8.3702 C   0  0  0  1  0  0  0  0  0  0  0  0
   16.6548  -13.4374   -8.6838 H   0  0  0  1  0  0  0  0  0  0  0  0
   16.7126  -11.6942   -8.5744 H   0  0  0  1  0  0  0  0  0  0  0  0
   14.8320  -12.4707   -9.1670 C   0  0  0  1  0  0  0  0  0  0  0  0
   14.2743  -11.6281   -8.8149 H   0  0  0  1  0  0  0  0  0  0  0  0
   14.2674  -13.3652   -9.0061 H   0  0  0  1  0  0  0  0  0  0  0  0
   15.0607  -12.3099  -10.6364 C   0  0  0  1  0  0  0  0  0  0  0  0
   15.5178  -11.4386  -10.9732 H   0  0  0  1  0  0  0  0  0  0  0  0
   14.7054  -13.2336  -11.5405 C   0  0  0  1  0  0  0  0  0  0  0  0
   15.2108  -13.2242  -12.9331 C   0  0  0  1  0  0  0  0  0  0  0  0
   14.3864  -13.1550  -13.6118 H   0  0  0  1  0  0  0  0  0  0  0  0
   15.7528  -14.1274  -13.1216 H   0  0  0  1  0  0  0  0  0  0  0  0
   15.8581  -12.3836  -13.0717 H   0  0  0  1  0  0  0  0  0  0  0  0
   13.7505  -14.3298  -11.1239 C   0  0  0  1  0  0  0  0  0  0  0  0
   12.7724  -13.9142  -10.9987 H   0  0  0  1  0  0  0  0  0  0  0  0
   14.0814  -14.7498  -10.1971 H   0  0  0  1  0  0  0  0  0  0  0  0
   13.6954  -15.4253  -12.1762 C   0  0  0  1  0  0  0  0  0  0  0  0
   14.6869  -15.7949  -12.3351 H   0  0  0  1  0  0  0  0  0  0  0  0
   13.3208  -15.0050  -13.0861 H   0  0  0  1  0  0  0  0  0  0  0  0
   12.8118  -16.5782  -11.7814 C   0  0  0  1  0  0  0  0  0  0  0  0
   13.0535  -17.5064  -12.1834 H   0  0  0  1  0  0  0  0  0  0  0  0
   11.7573  -16.5387  -10.9756 C   0  0  0  1  0  0  0  0  0  0  0  0
   11.1086  -15.2336  -10.5987 C   0  0  0  1  0  0  0  0  0  0  0  0
   11.0978  -14.5977  -11.4592 H   0  0  0  1  0  0  0  0  0  0  0  0
   11.6881  -14.7765   -9.8240 H   0  0  0  1  0  0  0  0  0  0  0  0
   11.1172  -17.7567  -10.3713 C   0  0  0  1  0  0  0  0  0  0  0  0
   11.3337  -17.7916   -9.3241 H   0  0  0  1  0  0  0  0  0  0  0  0
   11.5042  -18.6347  -10.8448 H   0  0  0  1  0  0  0  0  0  0  0  0
   10.0579  -17.7109  -10.5149 H   0  0  0  1  0  0  0  0  0  0  0  0
    9.6818  -15.3996  -10.1018 C   0  0  0  1  0  0  0  0  0  0  0  0
    9.6958  -16.0863   -9.2814 H   0  0  0  1  0  0  0  0  0  0  0  0
    9.0996  -15.8092  -10.9006 H   0  0  0  1  0  0  0  0  0  0  0  0
    9.0090  -14.1354   -9.6377 C   0  0  0  1  0  0  0  0  0  0  0  0
    8.7433  -13.4380  -10.3620 H   0  0  0  1  0  0  0  0  0  0  0  0
    8.7296  -13.8445   -8.3728 C   0  0  0  1  0  0  0  0  0  0  0  0
    9.0757  -14.7901   -7.2595 C   0  0  0  1  0  0  0  0  0  0  0  0
    9.3952  -15.7174   -7.6873 H   0  0  0  1  0  0  0  0  0  0  0  0
    8.2000  -14.9532   -6.6667 H   0  0  0  1  0  0  0  0  0  0  0  0
    8.0577  -12.5765   -7.9337 C   0  0  0  1  0  0  0  0  0  0  0  0
    8.7288  -12.0098   -7.3226 H   0  0  0  1  0  0  0  0  0  0  0  0
    7.1790  -12.8150   -7.3716 H   0  0  0  1  0  0  0  0  0  0  0  0
    7.7863  -12.0007   -8.7937 H   0  0  0  1  0  0  0  0  0  0  0  0
   10.1809  -14.2675   -6.3564 C   0  0  0  1  0  0  0  0  0  0  0  0
    9.8277  -13.3880   -5.8598 H   0  0  0  1  0  0  0  0  0  0  0  0
   11.0274  -14.0200   -6.9623 H   0  0  0  1  0  0  0  0  0  0  0  0
   10.6121  -15.2642   -5.3158 C   0  0  0  1  0  0  0  0  0  0  0  0
   10.1320  -16.1866   -5.3303 H   0  0  0  1  0  0  0  0  0  0  0  0
   11.5391  -15.0941   -4.3807 C   0  0  0  1  0  0  0  0  0  0  0  0
   12.5245  -13.9584   -4.4527 C   0  0  0  1  0  0  0  0  0  0  0  0
   12.4224  -13.4787   -5.4037 H   0  0  0  1  0  0  0  0  0  0  0  0
   13.5125  -14.3582   -4.3585 H   0  0  0  1  0  0  0  0  0  0  0  0
   11.6990  -15.9895   -3.1871 C   0  0  0  1  0  0  0  0  0  0  0  0
   12.6746  -16.4289   -3.1984 H   0  0  0  1  0  0  0  0  0  0  0  0
   10.9596  -16.7622   -3.2196 H   0  0  0  1  0  0  0  0  0  0  0  0
   11.5769  -15.4157   -2.2922 H   0  0  0  1  0  0  0  0  0  0  0  0
   12.3168  -12.9199   -3.3623 C   0  0  0  1  0  0  0  0  0  0  0  0
   13.0122  -12.1238   -3.5280 H   0  0  0  1  0  0  0  0  0  0  0  0
   12.5233  -13.3843   -2.4206 H   0  0  0  1  0  0  0  0  0  0  0  0
   10.9450  -12.3277   -3.2938 C   0  0  0  1  0  0  0  0  0  0  0  0
   10.4705  -12.1509   -4.2022 H   0  0  0  1  0  0  0  0  0  0  0  0
   10.2640  -12.0017   -2.1936 C   0  0  0  1  0  0  0  0  0  0  0  0
   10.8568  -12.1935   -0.8263 C   0  0  0  1  0  0  0  0  0  0  0  0
   10.7868  -11.2691   -0.2920 H   0  0  0  1  0  0  0  0  0  0  0  0
   11.8858  -12.4655   -0.9363 H   0  0  0  1  0  0  0  0  0  0  0  0
    8.8789  -11.4303   -2.2775 C   0  0  0  1  0  0  0  0  0  0  0  0
    8.2335  -11.9585   -1.6072 H   0  0  0  1  0  0  0  0  0  0  0  0
    8.5123  -11.5298   -3.2778 H   0  0  0  1  0  0  0  0  0  0  0  0
    8.9034  -10.3953   -2.0073 H   0  0  0  1  0  0  0  0  0  0  0  0
   10.1546  -13.2733   -0.0191 C   0  0  0  1  0  0  0  0  0  0  0  0
    9.1061  -13.0601   -0.0246 H   0  0  0  1  0  0  0  0  0  0  0  0
   10.5231  -13.2274    0.9844 H   0  0  0  1  0  0  0  0  0  0  0  0
   10.3452  -14.6800   -0.5200 C   0  0  0  1  0  0  0  0  0  0  0  0
   10.0453  -14.8685   -1.4978 H   0  0  0  1  0  0  0  0  0  0  0  0
   10.8545  -15.7060    0.1512 C   0  0  0  1  0  0  0  0  0  0  0  0
   11.4160  -15.5334    1.5446 C   0  0  0  1  0  0  0  0  0  0  0  0
   11.7942  -16.4769    1.8787 H   0  0  0  1  0  0  0  0  0  0  0  0
   10.6265  -15.2152    2.1929 H   0  0  0  1  0  0  0  0  0  0  0  0
   10.9256  -17.1077   -0.3862 C   0  0  0  1  0  0  0  0  0  0  0  0
   11.9394  -17.4491   -0.3604 H   0  0  0  1  0  0  0  0  0  0  0  0
   10.5708  -17.1208   -1.3956 H   0  0  0  1  0  0  0  0  0  0  0  0
   10.3174  -17.7510    0.2147 H   0  0  0  1  0  0  0  0  0  0  0  0
   12.5387  -14.5109    1.6117 C   0  0  0  1  0  0  0  0  0  0  0  0
   12.1438  -13.5412    1.3913 H   0  0  0  1  0  0  0  0  0  0  0  0
   13.2874  -14.7641    0.8903 H   0  0  0  1  0  0  0  0  0  0  0  0
   13.1560  -14.4908    2.9716 C   0  0  0  1  0  0  0  0  0  0  0  0
   12.5487  -14.2721    3.7870 H   0  0  0  1  0  0  0  0  0  0  0  0
   14.4429  -14.7384    3.1908 C   0  0  0  1  0  0  0  0  0  0  0  0
   15.3557  -15.3746    2.1769 C   0  0  0  1  0  0  0  0  0  0  0  0
   14.8604  -16.2266    1.7600 H   0  0  0  1  0  0  0  0  0  0  0  0
   16.2499  -15.6887    2.6733 H   0  0  0  1  0  0  0  0  0  0  0  0
   15.0976  -14.3940    4.4968 C   0  0  0  1  0  0  0  0  0  0  0  0
   15.6460  -15.2399    4.8555 H   0  0  0  1  0  0  0  0  0  0  0  0
   14.3478  -14.1260    5.2116 H   0  0  0  1  0  0  0  0  0  0  0  0
   15.7657  -13.5704    4.3543 H   0  0  0  1  0  0  0  0  0  0  0  0
   15.7357  -14.4341    1.0449 C   0  0  0  1  0  0  0  0  0  0  0  0
   16.1306  -13.5389    1.4780 H   0  0  0  1  0  0  0  0  0  0  0  0
   14.8471  -14.2030    0.4953 H   0  0  0  1  0  0  0  0  0  0  0  0
   16.7471  -14.9657    0.0830 C   0  0  0  1  0  0  0  0  0  0  0  0
   16.4528  -15.7070   -0.5844 H   0  0  0  1  0  0  0  0  0  0  0  0
   17.9922  -14.5423    0.0386 C   0  0  0  1  0  0  0  0  0  0  0  0
   18.8695  -14.8576   -1.1433 C   0  0  0  1  0  0  0  0  0  0  0  0
   19.6757  -14.1550   -1.1791 H   0  0  0  1  0  0  0  0  0  0  0  0
   18.2905  -14.7828   -2.0400 H   0  0  0  1  0  0  0  0  0  0  0  0
   18.6667  -13.8116    1.1653 C   0  0  0  1  0  0  0  0  0  0  0  0
   19.1885  -14.5624    1.7212 H   0  0  0  1  0  0  0  0  0  0  0  0
   17.9408  -13.3258    1.7834 H   0  0  0  1  0  0  0  0  0  0  0  0
   19.3529  -13.0855    0.7822 H   0  0  0  1  0  0  0  0  0  0  0  0
   19.4379  -16.2630   -1.0330 C   0  0  0  1  0  0  0  0  0  0  0  0
   19.7545  -16.5796   -2.0048 H   0  0  0  1  0  0  0  0  0  0  0  0
   18.6673  -16.9151   -0.6783 H   0  0  0  1  0  0  0  0  0  0  0  0
   20.6111  -16.3525   -0.0941 C   0  0  0  1  0  0  0  0  0  0  0  0
   20.4686  -16.0349    0.8859 H   0  0  0  1  0  0  0  0  0  0  0  0
   21.8204  -16.8091   -0.4254 C   0  0  0  1  0  0  0  0  0  0  0  0
   22.9153  -16.9214    0.5953 C   0  0  0  1  0  0  0  0  0  0  0  0
   23.8026  -17.2940    0.1277 H   0  0  0  1  0  0  0  0  0  0  0  0
   22.6120  -17.5934    1.3708 H   0  0  0  1  0  0  0  0  0  0  0  0
   23.1116  -15.9569    1.0150 H   0  0  0  1  0  0  0  0  0  0  0  0
   22.1363  -17.2309   -1.8398 C   0  0  0  1  0  0  0  0  0  0  0  0
   21.2871  -17.7658   -2.2108 H   0  0  0  1  0  0  0  0  0  0  0  0
   22.9994  -17.8633   -1.8487 H   0  0  0  1  0  0  0  0  0  0  0  0
   22.3191  -16.3687   -2.4465 H   0  0  0  1  0  0  0  0  0  0  0  0
   16.1225   -5.0881   -1.7829 C   0  0  0  1  0  0  0  0  0  0  0  0
   16.4687   -5.6521   -0.9421 H   0  0  0  1  0  0  0  0  0  0  0  0
   14.8049   -5.6680   -2.2809 C   0  0  0  1  0  0  0  0  0  0  0  0
   14.9495   -6.6836   -2.5851 H   0  0  0  1  0  0  0  0  0  0  0  0
   15.9102   -3.7336   -1.3964 O   0  0  0  1  0  0  0  0  0  0  0  0
   14.3319   -4.8396   -3.4657 C   0  0  0  1  0  0  0  0  0  0  0  0
   13.3354   -5.1382   -3.7163 H   0  0  0  1  0  0  0  0  0  0  0  0
   15.6559   -2.9096   -2.5413 C   0  0  0  1  0  0  0  0  0  0  0  0
   16.4489   -3.0241   -3.2505 H   0  0  0  1  0  0  0  0  0  0  0  0
   14.3341   -3.3440   -3.1735 C   0  0  0  1  0  0  0  0  0  0  0  0
   14.1922   -2.8089   -4.0892 H   0  0  0  1  0  0  0  0  0  0  0  0
   17.0928   -5.1423   -2.8235 O   0  0  0  1  0  0  0  0  0  0  0  0
   13.8306   -5.6169   -1.2371 O   0  0  0  1  0  0  0  0  0  0  0  0
   13.6938   -6.4986   -0.8829 H   0  0  0  1  0  0  0  0  0  0  0  0
   15.1927   -5.0890   -4.5673 O   0  0  0  1  0  0  0  0  0  0  0  0
   15.5507   -5.9771   -4.4997 H   0  0  0  1  0  0  0  0  0  0  0  0
   15.5640   -1.4539   -2.1134 C   0  0  0  1  0  0  0  0  0  0  0  0
   15.9692   -1.3447   -1.1292 H   0  0  0  1  0  0  0  0  0  0  0  0
   14.5391   -1.1465   -2.1131 H   0  0  0  1  0  0  0  0  0  0  0  0
   16.1191   -0.8459   -2.7969 H   0  0  0  1  0  0  0  0  0  0  0  0
   19.4155   -6.3576   -4.1081 C   0  0  0  1  0  0  0  0  0  0  0  0
   18.4721   -6.4415   -4.6059 H   0  0  0  1  0  0  0  0  0  0  0  0
   19.1921   -6.2478   -2.6245 C   0  0  0  1  0  0  0  0  0  0  0  0
   20.1376   -6.2095   -2.1250 H   0  0  0  1  0  0  0  0  0  0  0  0
   20.0906   -5.2026   -4.5675 O   0  0  0  1  0  0  0  0  0  0  0  0
   18.4158   -5.0002   -2.3173 C   0  0  0  1  0  0  0  0  0  0  0  0
   18.3798   -4.8655   -1.2564 H   0  0  0  1  0  0  0  0  0  0  0  0
   19.2739   -4.0266   -4.4254 C   0  0  0  1  0  0  0  0  0  0  0  0
   19.7707   -3.1852   -4.8615 H   0  0  0  1  0  0  0  0  0  0  0  0
   19.0534   -3.7828   -2.9453 C   0  0  0  1  0  0  0  0  0  0  0  0
   18.4097   -2.9380   -2.8162 H   0  0  0  1  0  0  0  0  0  0  0  0
   18.4448   -7.4076   -2.1616 N   0  0  0  1  0  0  0  0  0  0  0  0
   17.5180   -7.5225   -2.4588 H   0  0  0  1  0  0  0  0  0  0  0  0
   20.3096   -3.5262   -2.3142 O   0  0  0  1  0  0  0  0  0  0  0  0
   20.9062   -3.2318   -3.0064 H   0  0  0  1  0  0  0  0  0  0  0  0
   17.9432   -4.2400   -5.1139 C   0  0  0  1  0  0  0  0  0  0  0  0
   17.3434   -3.3640   -4.9808 H   0  0  0  1  0  0  0  0  0  0  0  0
   17.4547   -5.0790   -4.6641 H   0  0  0  1  0  0  0  0  0  0  0  0
   18.0863   -4.4884   -6.5091 O   0  0  0  1  0  0  0  0  0  0  0  0
   17.7584   -5.3719   -6.6920 H   0  0  0  1  0  0  0  0  0  0  0  0
   18.9805   -8.3251   -1.3422 C   0  0  0  1  0  0  0  0  0  0  0  0
   20.1637   -8.2669   -1.0099 O   0  0  0  1  0  0  0  0  0  0  0  0
   18.0844   -9.4386   -0.8358 C   0  0  0  1  0  0  0  0  0  0  0  0
   17.0974   -9.0281   -0.8823 H   0  0  0  1  0  0  0  0  0  0  0  0
   18.3382   -9.7008    0.1700 H   0  0  0  1  0  0  0  0  0  0  0  0
   18.1647  -10.3030   -1.4613 H   0  0  0  1  0  0  0  0  0  0  0  0
  1  2  1  0  0  0  0
  1  3  1  0  0  0  0
  1  4  1  0  0  0  0
  1 44  1  0  0  0  0
  3 20  1  0  0  0  0
  4  5  1  0  0  0  0
  4  6  1  0  0  0  0
  4  8  1  0  0  0  0
  6  7  1  0  0  0  0
  8  9  1  0  0  0  0
  8 10  1  0  0  0  0
  8 20  1  0  0  0  0
 10 11  1  0  0  0  0
 12 13  1  0  0  0  0
 12 14  1  0  0  0  0
 12 15  1  0  0  0  0
 12 17  1  0  0  0  0
 15 16  1  0  0  0  0
 17 18  1  0  0  0  0
 17 19  1  0  0  0  0
 17 20  1  0  0  0  0
 19 22  1  0  0  0  0
 20 21  1  0  0  0  0
 22 23  1  0  0  0  0
 22 24  1  0  0  0  0
 22 25  1  0  0  0  0
 24 42  1  0  0  0  0
 25 26  1  0  0  0  0
 25 27  1  0  0  0  0
 25 29  1  0  0  0  0
 27 28  1  0  0  0  0
 29 30  1  0  0  0  0
 29 31  1  0  0  0  0
 29 42  1  0  0  0  0
 31 32  1  0  0  0  0
 33 34  1  0  0  0  0
 33 35  1  0  0  0  0
 33 36  1  0  0  0  0
 33 38  1  0  0  0  0
 36 37  1  0  0  0  0
 38 39  1  0  0  0  0
 38 40  1  0  0  0  0
 38 42  1  0  0  0  0
 40 41  1  0  0  0  0
 42 43  1  0  0  0  0
 44194  1  0  0  0  0
 45 46  1  0  0  0  0
 45 54  1  0  0  0  0
 46 47  1  0  0  0  0
 46 48  1  0  0  0  0
 46 49  2  0  0  0  0
 47 50  1  0  0  0  0
 50 51  1  0  0  0  0
 50 52  1  0  0  0  0
 50 53  2  0  0  0  0
 51205  1  0  0  0  0
 54 55  1  0  0  0  0
 54 56  1  0  0  0  0
 54 57  1  0  0  0  0
 57 58  1  0  0  0  0
 57 59  2  0  0  0  0
 59 60  1  0  0  0  0
 59 64  1  0  0  0  0
 60 61  1  0  0  0  0
 60 62  1  0  0  0  0
 60 63  1  0  0  0  0
 64 65  1  0  0  0  0
 64 66  1  0  0  0  0
 64 67  1  0  0  0  0
 67 68  1  0  0  0  0
 67 69  1  0  0  0  0
 67 70  1  0  0  0  0
 70 71  1  0  0  0  0
 70 72  2  0  0  0  0
 72 73  1  0  0  0  0
 72 77  1  0  0  0  0
 73 74  1  0  0  0  0
 73 75  1  0  0  0  0
 73 76  1  0  0  0  0
 77 78  1  0  0  0  0
 77 79  1  0  0  0  0
 77 80  1  0  0  0  0
 80 81  1  0  0  0  0
 80 82  1  0  0  0  0
 80 83  1  0  0  0  0
 83 84  1  0  0  0  0
 83 85  2  0  0  0  0
 85 86  1  0  0  0  0
 85 89  1  0  0  0  0
 86 87  1  0  0  0  0
 86 88  1  0  0  0  0
 86 93  1  0  0  0  0
 89 90  1  0  0  0  0
 89 91  1  0  0  0  0
 89 92  1  0  0  0  0
 93 94  1  0  0  0  0
 93 95  1  0  0  0  0
 93 96  1  0  0  0  0
 96 97  1  0  0  0  0
 96 98  2  0  0  0  0
 98 99  1  0  0  0  0
 98102  1  0  0  0  0
 99100  1  0  0  0  0
 99101  1  0  0  0  0
 99106  1  0  0  0  0
102103  1  0  0  0  0
102104  1  0  0  0  0
102105  1  0  0  0  0
106107  1  0  0  0  0
106108  1  0  0  0  0
106109  1  0  0  0  0
109110  1  0  0  0  0
109111  2  0  0  0  0
111112  1  0  0  0  0
111115  1  0  0  0  0
112113  1  0  0  0  0
112114  1  0  0  0  0
112119  1  0  0  0  0
115116  1  0  0  0  0
115117  1  0  0  0  0
115118  1  0  0  0  0
119120  1  0  0  0  0
119121  1  0  0  0  0
119122  1  0  0  0  0
122123  1  0  0  0  0
122124  2  0  0  0  0
124125  1  0  0  0  0
124128  1  0  0  0  0
125126  1  0  0  0  0
125127  1  0  0  0  0
125132  1  0  0  0  0
128129  1  0  0  0  0
128130  1  0  0  0  0
128131  1  0  0  0  0
132133  1  0  0  0  0
132134  1  0  0  0  0
132135  1  0  0  0  0
135136  1  0  0  0  0
135137  2  0  0  0  0
137138  1  0  0  0  0
137141  1  0  0  0  0
138139  1  0  0  0  0
138140  1  0  0  0  0
138145  1  0  0  0  0
141142  1  0  0  0  0
141143  1  0  0  0  0
141144  1  0  0  0  0
145146  1  0  0  0  0
145147  1  0  0  0  0
145148  1  0  0  0  0
148149  1  0  0  0  0
148150  2  0  0  0  0
150151  1  0  0  0  0
150154  1  0  0  0  0
151152  1  0  0  0  0
151153  1  0  0  0  0
151158  1  0  0  0  0
154155  1  0  0  0  0
154156  1  0  0  0  0
154157  1  0  0  0  0
158159  1  0  0  0  0
158160  1  0  0  0  0
158161  1  0  0  0  0
161162  1  0  0  0  0
161163  2  0  0  0  0
163164  1  0  0  0  0
163167  1  0  0  0  0
164165  1  0  0  0  0
164166  1  0  0  0  0
164171  1  0  0  0  0
167168  1  0  0  0  0
167169  1  0  0  0  0
167170  1  0  0  0  0
171172  1  0  0  0  0
171173  1  0  0  0  0
171174  1  0  0  0  0
174175  1  0  0  0  0
174176  2  0  0  0  0
176177  1  0  0  0  0
176181  1  0  0  0  0
177178  1  0  0  0  0
177179  1  0  0  0  0
177180  1  0  0  0  0
181182  1  0  0  0  0
181183  1  0  0  0  0
181184  1  0  0  0  0
185186  1  0  0  0  0
185187  1  0  0  0  0
185189  1  0  0  0  0
185196  1  0  0  0  0
187188  1  0  0  0  0
187190  1  0  0  0  0
187197  1  0  0  0  0
189192  1  0  0  0  0
190191  1  0  0  0  0
190194  1  0  0  0  0
190199  1  0  0  0  0
192193  1  0  0  0  0
192194  1  0  0  0  0
192201  1  0  0  0  0
194195  1  0  0  0  0
196210  1  0  0  0  0
197198  1  0  0  0  0
199200  1  0  0  0  0
201202  1  0  0  0  0
201203  1  0  0  0  0
201204  1  0  0  0  0
205206  1  0  0  0  0
205207  1  0  0  0  0
205209  1  0  0  0  0
207208  1  0  0  0  0
207210  1  0  0  0  0
207216  1  0  0  0  0
209212  1  0  0  0  0
210211  1  0  0  0  0
210214  1  0  0  0  0
212213  1  0  0  0  0
212214  1  0  0  0  0
212220  1  0  0  0  0
214215  1  0  0  0  0
214218  1  0  0  0  0
216217  1  0  0  0  0
216225  1  0  0  0  0
218219  1  0  0  0  0
220221  1  0  0  0  0
220222  1  0  0  0  0
220223  1  0  0  0  0
223224  1  0  0  0  0
225226  2  0  0  0  0
225227  1  0  0  0  0
227228  1  0  0  0  0
227229  1  0  0  0  0
227230  1  0  0  0  0
M  BCL ATM C_TeTeTeTe H_S O_Te2Te2TeTe C_TeTeTeTe H_S O_Te2Te2TeTe H_S C_TeTeTeTe H_S O_Te2Te2TeTe H_S C_TeTeTeTe H_S H_S O_Te2Te2TeTe H_S C_TeTeTeTe H_S O_Te2Te2TeTe C_TeTeTeTe H_S C_TeTeTeTe H_S O_Te2Te2TeTe C_TeTeTeTe H_S O_Te2Te2TeTe H_S C_TeTeTeTe H_S O_Te2Te2TeTe H_S C_TeTeTeTe H_S H_S O_Te2Te2TeTe H_S C_TeTeTeTe H_S O_Te2Te2TeTe H_S C_TeTeTeTe H_S O_Te2Te2TeTe O_Tr2TrTrPi2 P_TeTeTeTePi O_Tr2TrTrPi2 O_Te2Te2TeTe O_Tr2Tr2TrPi P_TeTeTeTePi O_Tr2TrTrPi2 O_Te2Te2TeTe O_Tr2Tr2TrPi C_TeTeTeTe H_S H_S C_TrTrTrPi H_S C_TrTrTrPi C_TeTeTeTe H_S H_S H_S C_TeTeTeTe H_S H_S C_TeTeTeTe H_S H_S C_TrTrTrPi H_S C_TrTrTrPi C_TeTeTeTe H_S H_S H_S C_TeTeTeTe H_S H_S C_TeTeTeTe H_S H_S C_TrTrTrPi H_S C_TrTrTrPi C_TeTeTeTe H_S H_S C_TeTeTeTe H_S H_S H_S C_TeTeTeTe H_S H_S C_TrTrTrPi H_S C_TrTrTrPi C_TeTeTeTe H_S H_S C_TeTeTeTe H_S H_S H_S C_TeTeTeTe H_S H_S C_TrTrTrPi H_S C_TrTrTrPi C_TeTeTeTe H_S H_S C_TeTeTeTe H_S H_S H_S C_TeTeTeTe H_S H_S C_TrTrTrPi H_S C_TrTrTrPi C_TeTeTeTe H_S H_S C_TeTeTeTe H_S H_S H_S C_TeTeTeTe H_S H_S C_TrTrTrPi H_S C_TrTrTrPi C_TeTeTeTe H_S H_S C_TeTeTeTe H_S H_S H_S C_TeTeTeTe H_S H_S C_TrTrTrPi H_S C_TrTrTrPi C_TeTeTeTe H_S H_S C_TeTeTeTe H_S H_S H_S C_TeTeTeTe H_S H_S C_TrTrTrPi H_S C_TrTrTrPi C_TeTeTeTe H_S H_S C_TeTeTeTe H_S H_S H_S C_TeTeTeTe H_S H_S C_TrTrTrPi H_S C_TrTrTrPi C_TeTeTeTe H_S H_S H_S C_TeTeTeTe H_S H_S H_S C_TeTeTeTe H_S C_TeTeTeTe H_S O_Te2Te2TeTe C_TeTeTeTe H_S C_TeTeTeTe H_S C_TeTeTeTe H_S O_Te2Te2TeTe O_Te2Te2TeTe H_S O_Te2Te2TeTe H_S C_TeTeTeTe H_S H_S H_S C_TeTeTeTe H_S C_TeTeTeTe H_S O_Te2Te2TeTe C_TeTeTeTe H_S C_TeTeTeTe H_S C_TeTeTeTe H_S N_TrTrTrPi2 H_S O_Te2Te2TeTe H_S C_TeTeTeTe H_S H_S O_Te2Te2TeTe H_S C_TrTrTrPi O_Tr2Tr2TrPi C_TeTeTeTe H_S H_S H_S
M  BCL BND NonConjugatedSingleBond NonConjugatedSingleBondInRing NonConjugatedSingleBondInRing NonConjugatedSingleBond NonConjugatedSingleBondInRing NonConjugatedSingleBond NonConjugatedSingleBond NonConjugatedSingleBondInRing NonConjugatedSingleBond NonConjugatedSingleBond NonConjugatedSingleBond NonConjugatedSingleBondInRing NonConjugatedSingleBond NonConjugatedSingleBond NonConjugatedSingleBond NonConjugatedSingleBond NonConjugatedSingleBond NonConjugatedSingleBond NonConjugatedSingleBond NonConjugatedSingleBond NonConjugatedSingleBond NonConjugatedSingleBond NonConjugatedSingleBond NonConjugatedSingleBond NonConjugatedSingleBondInRing NonConjugatedSingleBondInRing NonConjugatedSingleBondInRing NonConjugatedSingleBond NonConjugatedSingleBond NonConjugatedSingleBondInRing NonConjugatedSingleBond NonConjugatedSingleBond NonConjugatedSingleBond NonConjugatedSingleBondInRing NonConjugatedSingleBond NonConjugatedSingleBond NonConjugatedSingleBond NonConjugatedSingleBond NonConjugatedSingleBond NonConjugatedSingleBond NonConjugatedSingleBond NonConjugatedSingleBond NonConjugatedSingleBond NonConjugatedSingleBond NonConjugatedSingleBond NonConjugatedSingleBond ConjugatedSingleBond NonConjugatedSingleBond ConjugatedSingleBond ConjugatedSingleBond ConjugatedDoubleBond ConjugatedSingleBond ConjugatedSingleBond ConjugatedSingleBond ConjugatedDoubleBond NonConjugatedSingleBond NonConjugatedSingleBond NonConjugatedSingleBond NonConjugatedSingleBond NonConjugatedSingleBond ConjugatedDoubleBond NonConjugatedSingleBond NonConjugatedSingleBond NonConjugatedSingleBond NonConjugatedSingleBond NonConjugatedSingleBond NonConjugatedSingleBond NonConjugatedSingleBond NonConjugatedSingleBond NonConjugatedSingleBond NonConjugatedSingleBond NonConjugatedSingleBond NonConjugatedSingleBond ConjugatedDoubleBond NonConjugatedSingleBond NonConjugatedSingleBond NonConjugatedSingleBond NonConjugatedSingleBond NonConjugatedSingleBond NonConjugatedSingleBond NonConjugatedSingleBond NonConjugatedSingleBond NonConjugatedSingleBond NonConjugatedSingleBond NonConjugatedSingleBond NonConjugatedSingleBond ConjugatedDoubleBond NonConjugatedSingleBond NonConjugatedSingleBond NonConjugatedSingleBond NonConjugatedSingleBond NonConjugatedSingleBond NonConjugatedSingleBond NonConjugatedSingleBond NonConjugatedSingleBond NonConjugatedSingleBond NonConjugatedSingleBond NonConjugatedSingleBond NonConjugatedSingleBond ConjugatedDoubleBond NonConjugatedSingleBond NonConjugatedSingleBond NonConjugatedSingleBond NonConjugatedSingleBond NonConjugatedSingleBond NonConjugatedSingleBond NonConjugatedSingleBond NonConjugatedSingleBond NonConjugatedSingleBond NonConjugatedSingleBond NonConjugatedSingleBond NonConjugatedSingleBond ConjugatedDoubleBond NonConjugatedSingleBond NonConjugatedSingleBond NonConjugatedSingleBond NonConjugatedSingleBond NonConjugatedSingleBond NonConjugatedSingleBond NonConjugatedSingleBond NonConjugatedSingleBond NonConjugatedSingleBond NonConjugatedSingleBond NonConjugatedSingleBond NonConjugatedSingleBond ConjugatedDoubleBond NonConjugatedSingleBond NonConjugatedSingleBond NonConjugatedSingleBond NonConjugatedSingleBond NonConjugatedSingleBond NonConjugatedSingleBond NonConjugatedSingleBond NonConjugatedSingleBond NonConjugatedSingleBond NonConjugatedSingleBond NonConjugatedSingleBond NonConjugatedSingleBond ConjugatedDoubleBond NonConjugatedSingleBond NonConjugatedSingleBond NonConjugatedSingleBond NonConjugatedSingleBond NonConjugatedSingleBond NonConjugatedSingleBond NonConjugatedSingleBond NonConjugatedSingleBond NonConjugatedSingleBond NonConjugatedSingleBond NonConjugatedSingleBond NonConjugatedSingleBond ConjugatedDoubleBond NonConjugatedSingleBond NonConjugatedSingleBond NonConjugatedSingleBond NonConjugatedSingleBond NonConjugatedSingleBond NonConjugatedSingleBond NonConjugatedSingleBond NonConjugatedSingleBond NonConjugatedSingleBond NonConjugatedSingleBond NonConjugatedSingleBond NonConjugatedSingleBond ConjugatedDoubleBond NonConjugatedSingleBond NonConjugatedSingleBond NonConjugatedSingleBond NonConjugatedSingleBond NonConjugatedSingleBond NonConjugatedSingleBond NonConjugatedSingleBond NonConjugatedSingleBond NonConjugatedSingleBond NonConjugatedSingleBond NonConjugatedSingleBond NonConjugatedSingleBond ConjugatedDoubleBond NonConjugatedSingleBond NonConjugatedSingleBond NonConjugatedSingleBond NonConjugatedSingleBond NonConjugatedSingleBond NonConjugatedSingleBond NonConjugatedSingleBond NonConjugatedSingleBond NonConjugatedSingleBond NonConjugatedSingleBondInRing NonConjugatedSingleBondInRing NonConjugatedSingleBond NonConjugatedSingleBond NonConjugatedSingleBondInRing NonConjugatedSingleBond NonConjugatedSingleBondInRing NonConjugatedSingleBond NonConjugatedSingleBondInRing NonConjugatedSingleBond NonConjugatedSingleBond NonConjugatedSingleBondInRing NonConjugatedSingleBond NonConjugatedSingleBond NonConjugatedSingleBond NonConjugatedSingleBond NonConjugatedSingleBond NonConjugatedSingleBond NonConjugatedSingleBond NonConjugatedSingleBond NonConjugatedSingleBond NonConjugatedSingleBondInRing NonConjugatedSingleBondInRing NonConjugatedSingleBond NonConjugatedSingleBondInRing NonConjugatedSingleBond NonConjugatedSingleBondInRing NonConjugatedSingleBond NonConjugatedSingleBondInRing NonConjugatedSingleBond NonConjugatedSingleBondInRing NonConjugatedSingleBond NonConjugatedSingleBond NonConjugatedSingleBond NonConjugatedSingleBond AmideSingleBond NonConjugatedSingleBond NonConjugatedSingleBond NonConjugatedSingleBond NonConjugatedSingleBond NonConjugatedSingleBond ConjugatedDoubleBond NonConjugatedSingleBond NonConjugatedSingleBond NonConjugatedSingleBond NonConjugatedSingleBond
M  BCL CHI   1   R   4   R   8   R  17   S  20   R  22   S  25   R  29   S  38   S  42   R  46   R  50   S 185   R 187   S 190   S 192   R 194   R 205   R 207   S 210   R 212   S 214   S
M  BCL DBI - - E E E E E E E E Z - -
M  END
> <ConfClashScore>
0.00853371 

> <ConfOneFourInteractionScore>
-0.972264 

> <ConfScore>
0.97596 

> <ConfScorePBest>
0.0101545 

> <ConfTolerance>
4.3535 

$$$$
L05.****
  PyMOL2.5          3D                             0

230233  0  0  0  0  0  0  0  0999 V2000
   11.9378   -3.1407   -2.4707 C   0  0  0  1  0  0  0  0  0  0  0  0
   11.5997   -3.9546   -3.0774 H   0  0  0  1  0  0  0  0  0  0  0  0
   11.8145   -1.9328   -3.1647 O   0  0  0  1  0  0  0  0  0  0  0  0
   11.0527   -3.0013   -1.2220 C   0  0  0  1  0  0  0  0  0  0  0  0
   11.5864   -2.5345   -0.4206 H   0  0  0  1  0  0  0  0  0  0  0  0
   10.5637   -4.2727   -0.7923 O   0  0  0  1  0  0  0  0  0  0  0  0
   10.3933   -4.8260   -1.5581 H   0  0  0  1  0  0  0  0  0  0  0  0
    9.9209   -2.1170   -1.7150 C   0  0  0  1  0  0  0  0  0  0  0  0
    9.1356   -2.7014   -2.1471 H   0  0  0  1  0  0  0  0  0  0  0  0
    9.3930   -1.3184   -0.6549 O   0  0  0  1  0  0  0  0  0  0  0  0
    9.9697   -0.5663   -0.5025 H   0  0  0  1  0  0  0  0  0  0  0  0
   10.1508    0.0774   -4.8962 C   0  0  0  1  0  0  0  0  0  0  0  0
   11.2053    0.0165   -5.0668 H   0  0  0  1  0  0  0  0  0  0  0  0
    9.6339    0.0222   -5.8315 H   0  0  0  1  0  0  0  0  0  0  0  0
    9.8346    1.3000   -4.2373 O   0  0  0  1  0  0  0  0  0  0  0  0
   10.4113    1.4134   -3.4783 H   0  0  0  1  0  0  0  0  0  0  0  0
    9.7051   -1.0590   -3.9888 C   0  0  0  1  0  0  0  0  0  0  0  0
    9.7077   -1.9673   -4.5546 H   0  0  0  1  0  0  0  0  0  0  0  0
    8.3804   -0.7552   -3.5678 O   0  0  0  1  0  0  0  0  0  0  0  0
   10.6142   -1.2368   -2.7842 C   0  0  0  1  0  0  0  0  0  0  0  0
   10.8560   -0.2784   -2.3746 H   0  0  0  1  0  0  0  0  0  0  0  0
    7.4948   -1.8405   -3.4636 C   0  0  0  1  0  0  0  0  0  0  0  0
    8.0498   -2.7553   -3.4602 H   0  0  0  1  0  0  0  0  0  0  0  0
    6.6938   -1.7287   -2.2657 O   0  0  0  1  0  0  0  0  0  0  0  0
    6.4888   -1.8263   -4.6184 C   0  0  0  1  0  0  0  0  0  0  0  0
    6.7821   -2.5059   -5.3912 H   0  0  0  1  0  0  0  0  0  0  0  0
    6.3539   -0.5132   -5.1642 O   0  0  0  1  0  0  0  0  0  0  0  0
    5.5005   -0.1496   -4.9169 H   0  0  0  1  0  0  0  0  0  0  0  0
    5.2084   -2.2733   -3.9632 C   0  0  0  1  0  0  0  0  0  0  0  0
    5.1474   -3.3408   -3.9240 H   0  0  0  1  0  0  0  0  0  0  0  0
    4.0723   -1.7569   -4.6504 O   0  0  0  1  0  0  0  0  0  0  0  0
    3.6942   -2.4431   -5.2052 H   0  0  0  1  0  0  0  0  0  0  0  0
    3.0625   -2.5969   -1.9344 C   0  0  0  1  0  0  0  0  0  0  0  0
    2.9908   -2.9419   -2.9447 H   0  0  0  1  0  0  0  0  0  0  0  0
    2.5913   -3.3021   -1.2819 H   0  0  0  1  0  0  0  0  0  0  0  0
    2.3840   -1.3537   -1.8280 O   0  0  0  1  0  0  0  0  0  0  0  0
    2.3419   -1.0894   -0.9061 H   0  0  0  1  0  0  0  0  0  0  0  0
    4.5325   -2.4905   -1.5581 C   0  0  0  1  0  0  0  0  0  0  0  0
    4.9440   -3.4780   -1.5359 H   0  0  0  1  0  0  0  0  0  0  0  0
    4.7319   -1.8644   -0.2936 O   0  0  0  1  0  0  0  0  0  0  0  0
    4.3163   -2.3905    0.3936 H   0  0  0  1  0  0  0  0  0  0  0  0
    5.3232   -1.6732   -2.5544 C   0  0  0  1  0  0  0  0  0  0  0  0
    4.9742   -0.6618   -2.5437 H   0  0  0  1  0  0  0  0  0  0  0  0
   13.2600   -3.3540   -2.1040 O   0  0  0  1  0  0  0  0  0  0  0  0
   22.4136  -11.0867    0.2976 O   0  0  0  1  0  0  0  0  0  0  0  0
   21.5489  -10.9303   -1.0721 P   0  0  0  1  0  0  0  0  0  0  0  0
   22.2004   -9.6686   -1.8141 O   0  0  0  1  0  0  0  0  0  0  0  0
   20.1472  -10.5392   -0.7896 O   0  0  0  0  0  0  0  0  0  0  0  0
   21.8155  -12.1630   -1.7900 O   0  0  0  1  0  0  0  0  0  0  0  0
   21.9433   -8.1132   -2.0998 P   0  0  0  1  0  0  0  0  0  0  0  0
   20.3915   -8.0346   -2.3392 O   0  0  0  1  0  0  0  0  0  0  0  0
   22.7160   -7.8634   -3.3371 O   0  0  0  0  0  0  0  0  0  0  0  0
   22.1615   -7.2960   -0.8963 O   0  0  0  1  0  0  0  0  0  0  0  0
   22.0909  -10.3135    1.4645 C   0  0  0  1  0  0  0  0  0  0  0  0
   21.0283  -10.2550    1.5756 H   0  0  0  1  0  0  0  0  0  0  0  0
   22.4947   -9.3275    1.3666 H   0  0  0  1  0  0  0  0  0  0  0  0
   22.6881  -10.9873    2.6648 C   0  0  0  1  0  0  0  0  0  0  0  0
   23.7015  -11.2191    2.6320 H   0  0  0  1  0  0  0  0  0  0  0  0
   22.0189  -11.3099    3.7664 C   0  0  0  1  0  0  0  0  0  0  0  0
   22.6783  -11.6816    5.0627 C   0  0  0  1  0  0  0  0  0  0  0  0
   23.7410  -11.6729    4.9383 H   0  0  0  1  0  0  0  0  0  0  0  0
   22.3618  -12.6609    5.3556 H   0  0  0  1  0  0  0  0  0  0  0  0
   22.4021  -10.9761    5.8183 H   0  0  0  1  0  0  0  0  0  0  0  0
   20.5187  -11.3271    3.7972 C   0  0  0  1  0  0  0  0  0  0  0  0
   20.1571  -10.3208    3.8368 H   0  0  0  1  0  0  0  0  0  0  0  0
   20.1916  -11.8586    4.6664 H   0  0  0  1  0  0  0  0  0  0  0  0
   19.9619  -12.0083    2.5577 C   0  0  0  1  0  0  0  0  0  0  0  0
   20.2595  -13.0360    2.5712 H   0  0  0  1  0  0  0  0  0  0  0  0
   20.3713  -11.5292    1.6929 H   0  0  0  1  0  0  0  0  0  0  0  0
   18.4602  -11.9453    2.4745 C   0  0  0  1  0  0  0  0  0  0  0  0
   18.0380  -11.1094    2.0222 H   0  0  0  1  0  0  0  0  0  0  0  0
   17.6384  -12.8731    2.9332 C   0  0  0  1  0  0  0  0  0  0  0  0
   16.1842  -12.9549    2.5644 C   0  0  0  1  0  0  0  0  0  0  0  0
   15.7020  -12.0307    2.8057 H   0  0  0  1  0  0  0  0  0  0  0  0
   15.7223  -13.7510    3.1102 H   0  0  0  1  0  0  0  0  0  0  0  0
   16.0926  -13.1413    1.5148 H   0  0  0  1  0  0  0  0  0  0  0  0
   18.1074  -13.9392    3.8790 C   0  0  0  1  0  0  0  0  0  0  0  0
   17.5786  -13.8181    4.8013 H   0  0  0  1  0  0  0  0  0  0  0  0
   19.1544  -13.7950    4.0460 H   0  0  0  1  0  0  0  0  0  0  0  0
   17.9008  -15.3682    3.4041 C   0  0  0  1  0  0  0  0  0  0  0  0
   18.3954  -15.4893    2.4630 H   0  0  0  1  0  0  0  0  0  0  0  0
   16.8516  -15.5377    3.2806 H   0  0  0  1  0  0  0  0  0  0  0  0
   18.4418  -16.3929    4.3650 C   0  0  0  1  0  0  0  0  0  0  0  0
   19.1785  -16.0679    5.0232 H   0  0  0  1  0  0  0  0  0  0  0  0
   18.0805  -17.6667    4.4634 C   0  0  0  1  0  0  0  0  0  0  0  0
   16.8233  -18.1736    3.8184 C   0  0  0  1  0  0  0  0  0  0  0  0
   16.8588  -17.9419    2.7744 H   0  0  0  1  0  0  0  0  0  0  0  0
   15.9872  -17.6780    4.2660 H   0  0  0  1  0  0  0  0  0  0  0  0
   18.8670  -18.7054    5.2079 C   0  0  0  1  0  0  0  0  0  0  0  0
   19.8796  -18.7026    4.8620 H   0  0  0  1  0  0  0  0  0  0  0  0
   18.4350  -19.6694    5.0378 H   0  0  0  1  0  0  0  0  0  0  0  0
   18.8474  -18.4849    6.2548 H   0  0  0  1  0  0  0  0  0  0  0  0
   16.6369  -19.6739    3.9750 C   0  0  0  1  0  0  0  0  0  0  0  0
   15.6263  -19.9196    3.7236 H   0  0  0  1  0  0  0  0  0  0  0  0
   16.8249  -19.9358    4.9953 H   0  0  0  1  0  0  0  0  0  0  0  0
   17.5522  -20.4723    3.1021 C   0  0  0  1  0  0  0  0  0  0  0  0
   18.0499  -21.2653    3.5549 H   0  0  0  1  0  0  0  0  0  0  0  0
   17.7986  -20.2781    1.8096 C   0  0  0  1  0  0  0  0  0  0  0  0
   16.8857  -19.3894    1.0132 C   0  0  0  1  0  0  0  0  0  0  0  0
   17.1790  -18.3699    1.1526 H   0  0  0  1  0  0  0  0  0  0  0  0
   15.8806  -19.5219    1.3556 H   0  0  0  1  0  0  0  0  0  0  0  0
   18.9370  -20.8776    1.0371 C   0  0  0  1  0  0  0  0  0  0  0  0
   18.6512  -20.9939    0.0125 H   0  0  0  1  0  0  0  0  0  0  0  0
   19.1829  -21.8339    1.4493 H   0  0  0  1  0  0  0  0  0  0  0  0
   19.7884  -20.2325    1.0986 H   0  0  0  1  0  0  0  0  0  0  0  0
   16.9572  -19.7307   -0.4663 C   0  0  0  1  0  0  0  0  0  0  0  0
   16.5413  -20.7058   -0.6114 H   0  0  0  1  0  0  0  0  0  0  0  0
   17.9843  -19.7321   -0.7662 H   0  0  0  1  0  0  0  0  0  0  0  0
   16.2134  -18.7650   -1.3251 C   0  0  0  1  0  0  0  0  0  0  0  0
   15.1848  -18.7385   -1.1737 H   0  0  0  1  0  0  0  0  0  0  0  0
   16.6701  -17.9331   -2.2552 C   0  0  0  1  0  0  0  0  0  0  0  0
   18.1289  -17.7155   -2.5341 C   0  0  0  1  0  0  0  0  0  0  0  0
   18.2893  -17.7940   -3.5891 H   0  0  0  1  0  0  0  0  0  0  0  0
   18.6891  -18.4753   -2.0302 H   0  0  0  1  0  0  0  0  0  0  0  0
   15.7380  -17.1293   -3.1174 C   0  0  0  1  0  0  0  0  0  0  0  0
   15.5448  -17.6602   -4.0261 H   0  0  0  1  0  0  0  0  0  0  0  0
   16.1877  -16.1854   -3.3448 H   0  0  0  1  0  0  0  0  0  0  0  0
   14.8177  -16.9699   -2.5952 H   0  0  0  1  0  0  0  0  0  0  0  0
   18.6281  -16.3574   -2.0686 C   0  0  0  1  0  0  0  0  0  0  0  0
   19.5769  -16.1786   -2.5298 H   0  0  0  1  0  0  0  0  0  0  0  0
   18.7490  -16.3966   -1.0062 H   0  0  0  1  0  0  0  0  0  0  0  0
   17.7356  -15.2033   -2.3884 C   0  0  0  1  0  0  0  0  0  0  0  0
   16.7514  -15.2317   -2.0534 H   0  0  0  1  0  0  0  0  0  0  0  0
   18.1384  -14.1383   -3.0823 C   0  0  0  1  0  0  0  0  0  0  0  0
   19.4207  -14.1949   -3.8635 C   0  0  0  1  0  0  0  0  0  0  0  0
   20.0971  -14.8539   -3.3604 H   0  0  0  1  0  0  0  0  0  0  0  0
   19.8409  -13.2116   -3.9002 H   0  0  0  1  0  0  0  0  0  0  0  0
   17.3125  -12.8766   -3.2203 C   0  0  0  1  0  0  0  0  0  0  0  0
   17.8536  -12.1569   -3.7983 H   0  0  0  1  0  0  0  0  0  0  0  0
   17.1105  -12.4748   -2.2494 H   0  0  0  1  0  0  0  0  0  0  0  0
   16.3897  -13.1065   -3.7108 H   0  0  0  1  0  0  0  0  0  0  0  0
   19.2288  -14.6936   -5.2898 C   0  0  0  1  0  0  0  0  0  0  0  0
   18.4323  -14.1461   -5.7487 H   0  0  0  1  0  0  0  0  0  0  0  0
   18.9803  -15.7341   -5.2672 H   0  0  0  1  0  0  0  0  0  0  0  0
   20.4783  -14.5051   -6.0901 C   0  0  0  1  0  0  0  0  0  0  0  0
   21.0590  -13.6669   -5.8855 H   0  0  0  1  0  0  0  0  0  0  0  0
   20.8963  -15.3181   -7.0307 C   0  0  0  1  0  0  0  0  0  0  0  0
   19.9743  -16.3532   -7.6177 C   0  0  0  1  0  0  0  0  0  0  0  0
   19.1492  -16.4918   -6.9507 H   0  0  0  1  0  0  0  0  0  0  0  0
   20.5128  -17.2726   -7.7157 H   0  0  0  1  0  0  0  0  0  0  0  0
   22.3122  -15.3600   -7.5291 C   0  0  0  1  0  0  0  0  0  0  0  0
   22.3801  -14.8313   -8.4568 H   0  0  0  1  0  0  0  0  0  0  0  0
   22.6082  -16.3777   -7.6764 H   0  0  0  1  0  0  0  0  0  0  0  0
   22.9572  -14.9010   -6.8092 H   0  0  0  1  0  0  0  0  0  0  0  0
   19.4323  -15.9621   -8.9829 C   0  0  0  1  0  0  0  0  0  0  0  0
   20.2513  -15.7965   -9.6512 H   0  0  0  1  0  0  0  0  0  0  0  0
   18.8605  -15.0626   -8.8888 H   0  0  0  1  0  0  0  0  0  0  0  0
   18.5532  -17.0498   -9.5397 C   0  0  0  1  0  0  0  0  0  0  0  0
   17.6661  -17.2559   -9.0375 H   0  0  0  1  0  0  0  0  0  0  0  0
   18.8258  -17.7656  -10.6241 C   0  0  0  1  0  0  0  0  0  0  0  0
   19.8894  -17.3382  -11.5955 C   0  0  0  1  0  0  0  0  0  0  0  0
   19.8259  -17.9727  -12.4547 H   0  0  0  1  0  0  0  0  0  0  0  0
   20.8403  -17.4706  -11.1231 H   0  0  0  1  0  0  0  0  0  0  0  0
   18.1215  -19.0407  -10.9851 C   0  0  0  1  0  0  0  0  0  0  0  0
   17.3776  -19.2589  -10.2476 H   0  0  0  1  0  0  0  0  0  0  0  0
   18.8307  -19.8409  -11.0237 H   0  0  0  1  0  0  0  0  0  0  0  0
   17.6540  -18.9312  -11.9413 H   0  0  0  1  0  0  0  0  0  0  0  0
   19.7978  -15.8968  -12.0693 C   0  0  0  1  0  0  0  0  0  0  0  0
   20.6591  -15.6915  -12.6701 H   0  0  0  1  0  0  0  0  0  0  0  0
   19.8056  -15.2645  -11.2061 H   0  0  0  1  0  0  0  0  0  0  0  0
   18.5761  -15.5609  -12.8795 C   0  0  0  1  0  0  0  0  0  0  0  0
   17.7044  -15.3285  -12.3620 H   0  0  0  1  0  0  0  0  0  0  0  0
   18.5269  -15.5386  -14.2185 C   0  0  0  1  0  0  0  0  0  0  0  0
   17.2213  -15.1807  -14.8928 C   0  0  0  1  0  0  0  0  0  0  0  0
   17.3751  -14.3333  -15.5278 H   0  0  0  1  0  0  0  0  0  0  0  0
   16.4948  -14.9396  -14.1451 H   0  0  0  1  0  0  0  0  0  0  0  0
   19.7009  -15.8506  -15.0664 C   0  0  0  1  0  0  0  0  0  0  0  0
   19.4477  -16.7516  -15.5850 H   0  0  0  1  0  0  0  0  0  0  0  0
   20.5704  -15.9997  -14.4607 H   0  0  0  1  0  0  0  0  0  0  0  0
   19.8815  -15.0574  -15.7614 H   0  0  0  1  0  0  0  0  0  0  0  0
   16.7098  -16.3430  -15.7282 C   0  0  0  1  0  0  0  0  0  0  0  0
   16.2786  -15.9531  -16.6265 H   0  0  0  1  0  0  0  0  0  0  0  0
   15.9600  -16.8612  -15.1677 H   0  0  0  1  0  0  0  0  0  0  0  0
   17.7841  -17.3155  -16.0989 C   0  0  0  1  0  0  0  0  0  0  0  0
   18.2079  -17.8947  -15.3462 H   0  0  0  1  0  0  0  0  0  0  0  0
   18.2233  -17.4757  -17.3415 C   0  0  0  1  0  0  0  0  0  0  0  0
   19.2672  -18.5018  -17.6743 C   0  0  0  1  0  0  0  0  0  0  0  0
   18.8328  -19.2699  -18.2794 H   0  0  0  1  0  0  0  0  0  0  0  0
   19.6455  -18.9314  -16.7703 H   0  0  0  1  0  0  0  0  0  0  0  0
   20.0672  -18.0354  -18.2103 H   0  0  0  1  0  0  0  0  0  0  0  0
   17.7346  -16.6672  -18.5187 C   0  0  0  1  0  0  0  0  0  0  0  0
   18.5507  -16.5766  -19.2048 H   0  0  0  1  0  0  0  0  0  0  0  0
   17.4222  -15.6974  -18.1919 H   0  0  0  1  0  0  0  0  0  0  0  0
   16.9141  -17.1667  -18.9901 H   0  0  0  1  0  0  0  0  0  0  0  0
   16.2297   -5.1546   -1.6953 C   0  0  0  1  0  0  0  0  0  0  0  0
   16.5600   -5.6491   -0.8058 H   0  0  0  1  0  0  0  0  0  0  0  0
   14.9697   -5.8108   -2.1996 C   0  0  0  1  0  0  0  0  0  0  0  0
   15.1917   -6.8141   -2.4981 H   0  0  0  1  0  0  0  0  0  0  0  0
   15.9583   -3.7849   -1.4074 O   0  0  0  1  0  0  0  0  0  0  0  0
   14.4042   -5.0484   -3.3914 C   0  0  0  1  0  0  0  0  0  0  0  0
   13.4367   -5.4398   -3.6273 H   0  0  0  1  0  0  0  0  0  0  0  0
   15.5939   -3.0143   -2.5677 C   0  0  0  1  0  0  0  0  0  0  0  0
   16.3490   -3.1105   -3.3197 H   0  0  0  1  0  0  0  0  0  0  0  0
   14.2758   -3.5525   -3.0896 C   0  0  0  1  0  0  0  0  0  0  0  0
   14.0104   -3.0318   -3.9859 H   0  0  0  1  0  0  0  0  0  0  0  0
   17.2429   -5.2406   -2.6906 O   0  0  0  1  0  0  0  0  0  0  0  0
   13.9989   -5.8289   -1.1514 O   0  0  0  1  0  0  0  0  0  0  0  0
   13.2036   -5.3774   -1.4434 H   0  0  0  1  0  0  0  0  0  0  0  0
   15.2701   -5.2222   -4.5035 O   0  0  0  1  0  0  0  0  0  0  0  0
   15.7430   -4.4040   -4.6724 H   0  0  0  1  0  0  0  0  0  0  0  0
   15.4406   -1.5585   -2.1898 C   0  0  0  1  0  0  0  0  0  0  0  0
   16.1346   -1.3163   -1.4122 H   0  0  0  1  0  0  0  0  0  0  0  0
   14.4431   -1.3830   -1.8445 H   0  0  0  1  0  0  0  0  0  0  0  0
   15.6355   -0.9458   -3.0450 H   0  0  0  1  0  0  0  0  0  0  0  0
   19.6173   -6.9319   -2.8440 C   0  0  0  1  0  0  0  0  0  0  0  0
   18.7151   -7.3013   -3.2850 H   0  0  0  1  0  0  0  0  0  0  0  0
   19.2781   -5.9981   -1.7145 C   0  0  0  1  0  0  0  0  0  0  0  0
   20.1806   -5.6651   -1.2460 H   0  0  0  1  0  0  0  0  0  0  0  0
   20.3685   -6.2350   -3.8192 O   0  0  0  1  0  0  0  0  0  0  0  0
   18.5246   -4.8121   -2.2430 C   0  0  0  1  0  0  0  0  0  0  0  0
   18.4073   -4.0962   -1.4565 H   0  0  0  1  0  0  0  0  0  0  0  0
   19.5856   -5.2029   -4.4453 C   0  0  0  1  0  0  0  0  0  0  0  0
   20.1460   -4.7531   -5.2380 H   0  0  0  1  0  0  0  0  0  0  0  0
   19.2544   -4.1611   -3.3947 C   0  0  0  1  0  0  0  0  0  0  0  0
   18.6330   -3.4051   -3.8273 H   0  0  0  1  0  0  0  0  0  0  0  0
   18.4528   -6.6996   -0.7380 N   0  0  0  1  0  0  0  0  0  0  0  0
   17.8393   -7.3967   -1.0510 H   0  0  0  1  0  0  0  0  0  0  0  0
   20.4643   -3.5681   -2.9159 O   0  0  0  1  0  0  0  0  0  0  0  0
   20.2214   -3.0271   -2.1609 H   0  0  0  1  0  0  0  0  0  0  0  0
   18.3164   -5.7905   -4.9983 C   0  0  0  1  0  0  0  0  0  0  0  0
   17.7637   -6.2313   -4.1952 H   0  0  0  1  0  0  0  0  0  0  0  0
   18.5704   -6.5448   -5.7134 H   0  0  0  1  0  0  0  0  0  0  0  0
   17.5049   -4.8232   -5.6293 O   0  0  0  1  0  0  0  0  0  0  0  0
   16.9093   -5.2768   -6.2303 H   0  0  0  1  0  0  0  0  0  0  0  0
   18.5041   -6.4249    0.5685 C   0  0  0  1  0  0  0  0  0  0  0  0
   19.1986   -5.5363    1.0338 O   0  0  0  1  0  0  0  0  0  0  0  0
   17.6366   -7.2933    1.4588 C   0  0  0  1  0  0  0  0  0  0  0  0
   18.1769   -7.3534    2.3804 H   0  0  0  1  0  0  0  0  0  0  0  0
   17.5091   -8.2656    1.0307 H   0  0  0  1  0  0  0  0  0  0  0  0
   16.6786   -6.8414    1.6105 H   0  0  0  1  0  0  0  0  0  0  0  0
  1  2  1  0  0  0  0
  1  3  1  0  0  0  0
  1  4  1  0  0  0  0
  1 44  1  0  0  0  0
  3 20  1  0  0  0  0
  4  5  1  0  0  0  0
  4  6  1  0  0  0  0
  4  8  1  0  0  0  0
  6  7  1  0  0  0  0
  8  9  1  0  0  0  0
  8 10  1  0  0  0  0
  8 20  1  0  0  0  0
 10 11  1  0  0  0  0
 12 13  1  0  0  0  0
 12 14  1  0  0  0  0
 12 15  1  0  0  0  0
 12 17  1  0  0  0  0
 15 16  1  0  0  0  0
 17 18  1  0  0  0  0
 17 19  1  0  0  0  0
 17 20  1  0  0  0  0
 19 22  1  0  0  0  0
 20 21  1  0  0  0  0
 22 23  1  0  0  0  0
 22 24  1  0  0  0  0
 22 25  1  0  0  0  0
 24 42  1  0  0  0  0
 25 26  1  0  0  0  0
 25 27  1  0  0  0  0
 25 29  1  0  0  0  0
 27 28  1  0  0  0  0
 29 30  1  0  0  0  0
 29 31  1  0  0  0  0
 29 42  1  0  0  0  0
 31 32  1  0  0  0  0
 33 34  1  0  0  0  0
 33 35  1  0  0  0  0
 33 36  1  0  0  0  0
 33 38  1  0  0  0  0
 36 37  1  0  0  0  0
 38 39  1  0  0  0  0
 38 40  1  0  0  0  0
 38 42  1  0  0  0  0
 40 41  1  0  0  0  0
 42 43  1  0  0  0  0
 44194  1  0  0  0  0
 45 46  1  0  0  0  0
 45 54  1  0  0  0  0
 46 47  1  0  0  0  0
 46 48  1  0  0  0  0
 46 49  2  0  0  0  0
 47 50  1  0  0  0  0
 50 51  1  0  0  0  0
 50 52  1  0  0  0  0
 50 53  2  0  0  0  0
 51205  1  0  0  0  0
 54 55  1  0  0  0  0
 54 56  1  0  0  0  0
 54 57  1  0  0  0  0
 57 58  1  0  0  0  0
 57 59  2  0  0  0  0
 59 60  1  0  0  0  0
 59 64  1  0  0  0  0
 60 61  1  0  0  0  0
 60 62  1  0  0  0  0
 60 63  1  0  0  0  0
 64 65  1  0  0  0  0
 64 66  1  0  0  0  0
 64 67  1  0  0  0  0
 67 68  1  0  0  0  0
 67 69  1  0  0  0  0
 67 70  1  0  0  0  0
 70 71  1  0  0  0  0
 70 72  2  0  0  0  0
 72 73  1  0  0  0  0
 72 77  1  0  0  0  0
 73 74  1  0  0  0  0
 73 75  1  0  0  0  0
 73 76  1  0  0  0  0
 77 78  1  0  0  0  0
 77 79  1  0  0  0  0
 77 80  1  0  0  0  0
 80 81  1  0  0  0  0
 80 82  1  0  0  0  0
 80 83  1  0  0  0  0
 83 84  1  0  0  0  0
 83 85  2  0  0  0  0
 85 86  1  0  0  0  0
 85 89  1  0  0  0  0
 86 87  1  0  0  0  0
 86 88  1  0  0  0  0
 86 93  1  0  0  0  0
 89 90  1  0  0  0  0
 89 91  1  0  0  0  0
 89 92  1  0  0  0  0
 93 94  1  0  0  0  0
 93 95  1  0  0  0  0
 93 96  1  0  0  0  0
 96 97  1  0  0  0  0
 96 98  2  0  0  0  0
 98 99  1  0  0  0  0
 98102  1  0  0  0  0
 99100  1  0  0  0  0
 99101  1  0  0  0  0
 99106  1  0  0  0  0
102103  1  0  0  0  0
102104  1  0  0  0  0
102105  1  0  0  0  0
106107  1  0  0  0  0
106108  1  0  0  0  0
106109  1  0  0  0  0
109110  1  0  0  0  0
109111  2  0  0  0  0
111112  1  0  0  0  0
111115  1  0  0  0  0
112113  1  0  0  0  0
112114  1  0  0  0  0
112119  1  0  0  0  0
115116  1  0  0  0  0
115117  1  0  0  0  0
115118  1  0  0  0  0
119120  1  0  0  0  0
119121  1  0  0  0  0
119122  1  0  0  0  0
122123  1  0  0  0  0
122124  2  0  0  0  0
124125  1  0  0  0  0
124128  1  0  0  0  0
125126  1  0  0  0  0
125127  1  0  0  0  0
125132  1  0  0  0  0
128129  1  0  0  0  0
128130  1  0  0  0  0
128131  1  0  0  0  0
132133  1  0  0  0  0
132134  1  0  0  0  0
132135  1  0  0  0  0
135136  1  0  0  0  0
135137  2  0  0  0  0
137138  1  0  0  0  0
137141  1  0  0  0  0
138139  1  0  0  0  0
138140  1  0  0  0  0
138145  1  0  0  0  0
141142  1  0  0  0  0
141143  1  0  0  0  0
141144  1  0  0  0  0
145146  1  0  0  0  0
145147  1  0  0  0  0
145148  1  0  0  0  0
148149  1  0  0  0  0
148150  2  0  0  0  0
150151  1  0  0  0  0
150154  1  0  0  0  0
151152  1  0  0  0  0
151153  1  0  0  0  0
151158  1  0  0  0  0
154155  1  0  0  0  0
154156  1  0  0  0  0
154157  1  0  0  0  0
158159  1  0  0  0  0
158160  1  0  0  0  0
158161  1  0  0  0  0
161162  1  0  0  0  0
161163  2  0  0  0  0
163164  1  0  0  0  0
163167  1  0  0  0  0
164165  1  0  0  0  0
164166  1  0  0  0  0
164171  1  0  0  0  0
167168  1  0  0  0  0
167169  1  0  0  0  0
167170  1  0  0  0  0
171172  1  0  0  0  0
171173  1  0  0  0  0
171174  1  0  0  0  0
174175  1  0  0  0  0
174176  2  0  0  0  0
176177  1  0  0  0  0
176181  1  0  0  0  0
177178  1  0  0  0  0
177179  1  0  0  0  0
177180  1  0  0  0  0
181182  1  0  0  0  0
181183  1  0  0  0  0
181184  1  0  0  0  0
185186  1  0  0  0  0
185187  1  0  0  0  0
185189  1  0  0  0  0
185196  1  0  0  0  0
187188  1  0  0  0  0
187190  1  0  0  0  0
187197  1  0  0  0  0
189192  1  0  0  0  0
190191  1  0  0  0  0
190194  1  0  0  0  0
190199  1  0  0  0  0
192193  1  0  0  0  0
192194  1  0  0  0  0
192201  1  0  0  0  0
194195  1  0  0  0  0
196210  1  0  0  0  0
197198  1  0  0  0  0
199200  1  0  0  0  0
201202  1  0  0  0  0
201203  1  0  0  0  0
201204  1  0  0  0  0
205206  1  0  0  0  0
205207  1  0  0  0  0
205209  1  0  0  0  0
207208  1  0  0  0  0
207210  1  0  0  0  0
207216  1  0  0  0  0
209212  1  0  0  0  0
210211  1  0  0  0  0
210214  1  0  0  0  0
212213  1  0  0  0  0
212214  1  0  0  0  0
212220  1  0  0  0  0
214215  1  0  0  0  0
214218  1  0  0  0  0
216217  1  0  0  0  0
216225  1  0  0  0  0
218219  1  0  0  0  0
220221  1  0  0  0  0
220222  1  0  0  0  0
220223  1  0  0  0  0
223224  1  0  0  0  0
225226  2  0  0  0  0
225227  1  0  0  0  0
227228  1  0  0  0  0
227229  1  0  0  0  0
227230  1  0  0  0  0
M  BCL ATM C_TeTeTeTe H_S O_Te2Te2TeTe C_TeTeTeTe H_S O_Te2Te2TeTe H_S C_TeTeTeTe H_S O_Te2Te2TeTe H_S C_TeTeTeTe H_S H_S O_Te2Te2TeTe H_S C_TeTeTeTe H_S O_Te2Te2TeTe C_TeTeTeTe H_S C_TeTeTeTe H_S O_Te2Te2TeTe C_TeTeTeTe H_S O_Te2Te2TeTe H_S C_TeTeTeTe H_S O_Te2Te2TeTe H_S C_TeTeTeTe H_S H_S O_Te2Te2TeTe H_S C_TeTeTeTe H_S O_Te2Te2TeTe H_S C_TeTeTeTe H_S O_Te2Te2TeTe O_Tr2TrTrPi2 P_TeTeTeTePi O_Tr2TrTrPi2 O_Te2Te2TeTe O_Tr2Tr2TrPi P_TeTeTeTePi O_Tr2TrTrPi2 O_Te2Te2TeTe O_Tr2Tr2TrPi C_TeTeTeTe H_S H_S C_TrTrTrPi H_S C_TrTrTrPi C_TeTeTeTe H_S H_S H_S C_TeTeTeTe H_S H_S C_TeTeTeTe H_S H_S C_TrTrTrPi H_S C_TrTrTrPi C_TeTeTeTe H_S H_S H_S C_TeTeTeTe H_S H_S C_TeTeTeTe H_S H_S C_TrTrTrPi H_S C_TrTrTrPi C_TeTeTeTe H_S H_S C_TeTeTeTe H_S H_S H_S C_TeTeTeTe H_S H_S C_TrTrTrPi H_S C_TrTrTrPi C_TeTeTeTe H_S H_S C_TeTeTeTe H_S H_S H_S C_TeTeTeTe H_S H_S C_TrTrTrPi H_S C_TrTrTrPi C_TeTeTeTe H_S H_S C_TeTeTeTe H_S H_S H_S C_TeTeTeTe H_S H_S C_TrTrTrPi H_S C_TrTrTrPi C_TeTeTeTe H_S H_S C_TeTeTeTe H_S H_S H_S C_TeTeTeTe H_S H_S C_TrTrTrPi H_S C_TrTrTrPi C_TeTeTeTe H_S H_S C_TeTeTeTe H_S H_S H_S C_TeTeTeTe H_S H_S C_TrTrTrPi H_S C_TrTrTrPi C_TeTeTeTe H_S H_S C_TeTeTeTe H_S H_S H_S C_TeTeTeTe H_S H_S C_TrTrTrPi H_S C_TrTrTrPi C_TeTeTeTe H_S H_S C_TeTeTeTe H_S H_S H_S C_TeTeTeTe H_S H_S C_TrTrTrPi H_S C_TrTrTrPi C_TeTeTeTe H_S H_S H_S C_TeTeTeTe H_S H_S H_S C_TeTeTeTe H_S C_TeTeTeTe H_S O_Te2Te2TeTe C_TeTeTeTe H_S C_TeTeTeTe H_S C_TeTeTeTe H_S O_Te2Te2TeTe O_Te2Te2TeTe H_S O_Te2Te2TeTe H_S C_TeTeTeTe H_S H_S H_S C_TeTeTeTe H_S C_TeTeTeTe H_S O_Te2Te2TeTe C_TeTeTeTe H_S C_TeTeTeTe H_S C_TeTeTeTe H_S N_TrTrTrPi2 H_S O_Te2Te2TeTe H_S C_TeTeTeTe H_S H_S O_Te2Te2TeTe H_S C_TrTrTrPi O_Tr2Tr2TrPi C_TeTeTeTe H_S H_S H_S
M  BCL BND NonConjugatedSingleBond NonConjugatedSingleBondInRing NonConjugatedSingleBondInRing NonConjugatedSingleBond NonConjugatedSingleBondInRing NonConjugatedSingleBond NonConjugatedSingleBond NonConjugatedSingleBondInRing NonConjugatedSingleBond NonConjugatedSingleBond NonConjugatedSingleBond NonConjugatedSingleBondInRing NonConjugatedSingleBond NonConjugatedSingleBond NonConjugatedSingleBond NonConjugatedSingleBond NonConjugatedSingleBond NonConjugatedSingleBond NonConjugatedSingleBond NonConjugatedSingleBond NonConjugatedSingleBond NonConjugatedSingleBond NonConjugatedSingleBond NonConjugatedSingleBond NonConjugatedSingleBondInRing NonConjugatedSingleBondInRing NonConjugatedSingleBondInRing NonConjugatedSingleBond NonConjugatedSingleBond NonConjugatedSingleBondInRing NonConjugatedSingleBond NonConjugatedSingleBond NonConjugatedSingleBond NonConjugatedSingleBondInRing NonConjugatedSingleBond NonConjugatedSingleBond NonConjugatedSingleBond NonConjugatedSingleBond NonConjugatedSingleBond NonConjugatedSingleBond NonConjugatedSingleBond NonConjugatedSingleBond NonConjugatedSingleBond NonConjugatedSingleBond NonConjugatedSingleBond NonConjugatedSingleBond ConjugatedSingleBond NonConjugatedSingleBond ConjugatedSingleBond ConjugatedSingleBond ConjugatedDoubleBond ConjugatedSingleBond ConjugatedSingleBond ConjugatedSingleBond ConjugatedDoubleBond NonConjugatedSingleBond NonConjugatedSingleBond NonConjugatedSingleBond NonConjugatedSingleBond NonConjugatedSingleBond ConjugatedDoubleBond NonConjugatedSingleBond NonConjugatedSingleBond NonConjugatedSingleBond NonConjugatedSingleBond NonConjugatedSingleBond NonConjugatedSingleBond NonConjugatedSingleBond NonConjugatedSingleBond NonConjugatedSingleBond NonConjugatedSingleBond NonConjugatedSingleBond NonConjugatedSingleBond ConjugatedDoubleBond NonConjugatedSingleBond NonConjugatedSingleBond NonConjugatedSingleBond NonConjugatedSingleBond NonConjugatedSingleBond NonConjugatedSingleBond NonConjugatedSingleBond NonConjugatedSingleBond NonConjugatedSingleBond NonConjugatedSingleBond NonConjugatedSingleBond NonConjugatedSingleBond ConjugatedDoubleBond NonConjugatedSingleBond NonConjugatedSingleBond NonConjugatedSingleBond NonConjugatedSingleBond NonConjugatedSingleBond NonConjugatedSingleBond NonConjugatedSingleBond NonConjugatedSingleBond NonConjugatedSingleBond NonConjugatedSingleBond NonConjugatedSingleBond NonConjugatedSingleBond ConjugatedDoubleBond NonConjugatedSingleBond NonConjugatedSingleBond NonConjugatedSingleBond NonConjugatedSingleBond NonConjugatedSingleBond NonConjugatedSingleBond NonConjugatedSingleBond NonConjugatedSingleBond NonConjugatedSingleBond NonConjugatedSingleBond NonConjugatedSingleBond NonConjugatedSingleBond ConjugatedDoubleBond NonConjugatedSingleBond NonConjugatedSingleBond NonConjugatedSingleBond NonConjugatedSingleBond NonConjugatedSingleBond NonConjugatedSingleBond NonConjugatedSingleBond NonConjugatedSingleBond NonConjugatedSingleBond NonConjugatedSingleBond NonConjugatedSingleBond NonConjugatedSingleBond ConjugatedDoubleBond NonConjugatedSingleBond NonConjugatedSingleBond NonConjugatedSingleBond NonConjugatedSingleBond NonConjugatedSingleBond NonConjugatedSingleBond NonConjugatedSingleBond NonConjugatedSingleBond NonConjugatedSingleBond NonConjugatedSingleBond NonConjugatedSingleBond NonConjugatedSingleBond ConjugatedDoubleBond NonConjugatedSingleBond NonConjugatedSingleBond NonConjugatedSingleBond NonConjugatedSingleBond NonConjugatedSingleBond NonConjugatedSingleBond NonConjugatedSingleBond NonConjugatedSingleBond NonConjugatedSingleBond NonConjugatedSingleBond NonConjugatedSingleBond NonConjugatedSingleBond ConjugatedDoubleBond NonConjugatedSingleBond NonConjugatedSingleBond NonConjugatedSingleBond NonConjugatedSingleBond NonConjugatedSingleBond NonConjugatedSingleBond NonConjugatedSingleBond NonConjugatedSingleBond NonConjugatedSingleBond NonConjugatedSingleBond NonConjugatedSingleBond NonConjugatedSingleBond ConjugatedDoubleBond NonConjugatedSingleBond NonConjugatedSingleBond NonConjugatedSingleBond NonConjugatedSingleBond NonConjugatedSingleBond NonConjugatedSingleBond NonConjugatedSingleBond NonConjugatedSingleBond NonConjugatedSingleBond NonConjugatedSingleBond NonConjugatedSingleBond NonConjugatedSingleBond ConjugatedDoubleBond NonConjugatedSingleBond NonConjugatedSingleBond NonConjugatedSingleBond NonConjugatedSingleBond NonConjugatedSingleBond NonConjugatedSingleBond NonConjugatedSingleBond NonConjugatedSingleBond NonConjugatedSingleBond NonConjugatedSingleBondInRing NonConjugatedSingleBondInRing NonConjugatedSingleBond NonConjugatedSingleBond NonConjugatedSingleBondInRing NonConjugatedSingleBond NonConjugatedSingleBondInRing NonConjugatedSingleBond NonConjugatedSingleBondInRing NonConjugatedSingleBond NonConjugatedSingleBond NonConjugatedSingleBondInRing NonConjugatedSingleBond NonConjugatedSingleBond NonConjugatedSingleBond NonConjugatedSingleBond NonConjugatedSingleBond NonConjugatedSingleBond NonConjugatedSingleBond NonConjugatedSingleBond NonConjugatedSingleBond NonConjugatedSingleBondInRing NonConjugatedSingleBondInRing NonConjugatedSingleBond NonConjugatedSingleBondInRing NonConjugatedSingleBond NonConjugatedSingleBondInRing NonConjugatedSingleBond NonConjugatedSingleBondInRing NonConjugatedSingleBond NonConjugatedSingleBondInRing NonConjugatedSingleBond NonConjugatedSingleBond NonConjugatedSingleBond NonConjugatedSingleBond AmideSingleBond NonConjugatedSingleBond NonConjugatedSingleBond NonConjugatedSingleBond NonConjugatedSingleBond NonConjugatedSingleBond ConjugatedDoubleBond NonConjugatedSingleBond NonConjugatedSingleBond NonConjugatedSingleBond NonConjugatedSingleBond
M  BCL CHI   1   R   4   R   8   R  17   S  20   R  22   S  25   R  29   S  38   S  42   R  46   R  50   S 185   R 187   S 190   S 192   R 194   R 205   R 207   S 210   R 212   S 214   S
M  BCL DBI - - E E E E E E E E Z - -
M  END
> <ConfClashScore>
0.00820661 

> <ConfOneFourInteractionScore>
-0.970577 

> <ConfScore>
0.976949 

> <ConfScorePBest>
0.0100515 

> <ConfTolerance>
3.92626 

$$$$
L05.****
  PyMOL2.5          3D                             0

230233  0  0  0  0  0  0  0  0999 V2000
   12.4459   -2.1211   -3.1910 C   0  0  0  1  0  0  0  0  0  0  0  0
   13.0147   -1.2234   -3.3157 H   0  0  0  1  0  0  0  0  0  0  0  0
   11.2561   -1.8637   -2.4116 O   0  0  0  1  0  0  0  0  0  0  0  0
   11.9347   -2.6259   -4.5436 C   0  0  0  1  0  0  0  0  0  0  0  0
   12.5574   -3.4100   -4.9208 H   0  0  0  1  0  0  0  0  0  0  0  0
   11.8748   -1.5641   -5.4973 O   0  0  0  1  0  0  0  0  0  0  0  0
   11.7792   -0.7263   -5.0385 H   0  0  0  1  0  0  0  0  0  0  0  0
   10.5564   -3.1392   -4.2193 C   0  0  0  1  0  0  0  0  0  0  0  0
    9.9154   -3.0903   -5.0747 H   0  0  0  1  0  0  0  0  0  0  0  0
   10.6074   -4.4831   -3.7380 O   0  0  0  1  0  0  0  0  0  0  0  0
    9.8829   -4.6320   -3.1260 H   0  0  0  1  0  0  0  0  0  0  0  0
    8.8595    0.0472   -2.7237 C   0  0  0  1  0  0  0  0  0  0  0  0
    8.3427    0.8158   -3.2594 H   0  0  0  1  0  0  0  0  0  0  0  0
    8.1657   -0.4895   -2.1110 H   0  0  0  1  0  0  0  0  0  0  0  0
    9.8350    0.6525   -1.8853 O   0  0  0  1  0  0  0  0  0  0  0  0
    9.6081    0.4968   -0.9656 H   0  0  0  1  0  0  0  0  0  0  0  0
    9.4751   -0.9203   -3.7285 C   0  0  0  1  0  0  0  0  0  0  0  0
   10.2447   -0.4002   -4.2596 H   0  0  0  1  0  0  0  0  0  0  0  0
    8.4528   -1.3034   -4.6425 O   0  0  0  1  0  0  0  0  0  0  0  0
   10.0873   -2.1750   -3.1202 C   0  0  0  1  0  0  0  0  0  0  0  0
    9.3713   -2.6481   -2.4812 H   0  0  0  1  0  0  0  0  0  0  0  0
    7.1785   -0.8906   -4.2023 C   0  0  0  1  0  0  0  0  0  0  0  0
    7.0642   -1.1292   -3.1655 H   0  0  0  1  0  0  0  0  0  0  0  0
    6.9921    0.5400   -4.4273 O   0  0  0  1  0  0  0  0  0  0  0  0
    6.0909   -1.5427   -5.0248 C   0  0  0  1  0  0  0  0  0  0  0  0
    5.1787   -1.6080   -4.4693 H   0  0  0  1  0  0  0  0  0  0  0  0
    6.4853   -2.8484   -5.4491 O   0  0  0  1  0  0  0  0  0  0  0  0
    6.8267   -3.3398   -4.6984 H   0  0  0  1  0  0  0  0  0  0  0  0
    5.9355   -0.5996   -6.2253 C   0  0  0  1  0  0  0  0  0  0  0  0
    4.9269   -0.5935   -6.5828 H   0  0  0  1  0  0  0  0  0  0  0  0
    6.8133   -0.9686   -7.2850 O   0  0  0  1  0  0  0  0  0  0  0  0
    7.7232   -0.8425   -7.0060 H   0  0  0  1  0  0  0  0  0  0  0  0
    4.2220    1.8616   -6.6193 C   0  0  0  1  0  0  0  0  0  0  0  0
    4.8268    2.2970   -7.3871 H   0  0  0  1  0  0  0  0  0  0  0  0
    3.8017    0.9435   -6.9733 H   0  0  0  1  0  0  0  0  0  0  0  0
    3.1755    2.7588   -6.2769 O   0  0  0  1  0  0  0  0  0  0  0  0
    2.3327    2.3853   -6.5448 H   0  0  0  1  0  0  0  0  0  0  0  0
    5.0856    1.5838   -5.3883 C   0  0  0  1  0  0  0  0  0  0  0  0
    4.4873    1.1109   -4.6377 H   0  0  0  1  0  0  0  0  0  0  0  0
    5.5682    2.8591   -4.9179 O   0  0  0  1  0  0  0  0  0  0  0  0
    4.9703    3.2011   -4.2491 H   0  0  0  1  0  0  0  0  0  0  0  0
    6.3224    0.7659   -5.6356 C   0  0  0  1  0  0  0  0  0  0  0  0
    6.9647    1.2861   -6.3151 H   0  0  0  1  0  0  0  0  0  0  0  0
   13.2520   -3.1108   -2.5604 O   0  0  0  1  0  0  0  0  0  0  0  0
   24.4496   -9.3505   -3.0264 O   0  0  0  1  0  0  0  0  0  0  0  0
   23.7021   -8.4823   -1.8697 P   0  0  0  1  0  0  0  0  0  0  0  0
   22.2495   -8.8586   -2.4351 O   0  0  0  1  0  0  0  0  0  0  0  0
   23.9680   -7.0453   -2.0663 O   0  0  0  0  0  0  0  0  0  0  0  0
   23.9106   -9.0901   -0.5365 O   0  0  0  1  0  0  0  0  0  0  0  0
   21.2745   -8.0514   -3.4589 P   0  0  0  1  0  0  0  0  0  0  0  0
   20.9447   -6.9569   -2.3825 O   0  0  0  1  0  0  0  0  0  0  0  0
   20.0658   -8.8606   -3.7532 O   0  0  0  0  0  0  0  0  0  0  0  0
   22.0478   -7.4651   -4.5683 O   0  0  0  1  0  0  0  0  0  0  0  0
   25.4834  -10.3076   -2.7457 C   0  0  0  1  0  0  0  0  0  0  0  0
   25.1605  -10.9697   -1.9696 H   0  0  0  1  0  0  0  0  0  0  0  0
   26.3713   -9.7982   -2.4342 H   0  0  0  1  0  0  0  0  0  0  0  0
   25.7599  -11.0854   -3.9861 C   0  0  0  1  0  0  0  0  0  0  0  0
   26.7308  -11.0680   -4.3586 H   0  0  0  1  0  0  0  0  0  0  0  0
   24.8549  -11.8028   -4.6545 C   0  0  0  1  0  0  0  0  0  0  0  0
   25.1202  -12.2803   -6.0515 C   0  0  0  1  0  0  0  0  0  0  0  0
   24.3783  -11.8823   -6.7119 H   0  0  0  1  0  0  0  0  0  0  0  0
   25.0824  -13.3493   -6.0759 H   0  0  0  1  0  0  0  0  0  0  0  0
   26.0890  -11.9499   -6.3632 H   0  0  0  1  0  0  0  0  0  0  0  0
   23.5358  -12.1606   -4.0358 C   0  0  0  1  0  0  0  0  0  0  0  0
   23.6412  -12.1794   -2.9712 H   0  0  0  1  0  0  0  0  0  0  0  0
   23.2367  -13.1278   -4.3823 H   0  0  0  1  0  0  0  0  0  0  0  0
   22.4702  -11.1445   -4.4133 C   0  0  0  1  0  0  0  0  0  0  0  0
   22.4322  -11.0712   -5.4801 H   0  0  0  1  0  0  0  0  0  0  0  0
   22.7423  -10.1960   -3.9995 H   0  0  0  1  0  0  0  0  0  0  0  0
   21.1002  -11.5119   -3.9092 C   0  0  0  1  0  0  0  0  0  0  0  0
   21.0554  -11.9546   -2.9692 H   0  0  0  1  0  0  0  0  0  0  0  0
   19.9420  -11.3320   -4.5350 C   0  0  0  1  0  0  0  0  0  0  0  0
   18.6059  -11.4218   -3.8565 C   0  0  0  1  0  0  0  0  0  0  0  0
   18.3061  -12.4469   -3.7923 H   0  0  0  1  0  0  0  0  0  0  0  0
   17.8816  -10.8733   -4.4216 H   0  0  0  1  0  0  0  0  0  0  0  0
   18.6778  -11.0092   -2.8718 H   0  0  0  1  0  0  0  0  0  0  0  0
   19.8821  -11.0184   -6.0009 C   0  0  0  1  0  0  0  0  0  0  0  0
   20.8211  -10.6007   -6.2984 H   0  0  0  1  0  0  0  0  0  0  0  0
   19.1045  -10.3017   -6.1643 H   0  0  0  1  0  0  0  0  0  0  0  0
   19.6021  -12.2404   -6.8603 C   0  0  0  1  0  0  0  0  0  0  0  0
   18.7121  -12.7062   -6.4918 H   0  0  0  1  0  0  0  0  0  0  0  0
   20.4272  -12.9136   -6.7556 H   0  0  0  1  0  0  0  0  0  0  0  0
   19.4115  -11.9697   -8.3121 C   0  0  0  1  0  0  0  0  0  0  0  0
   19.3740  -10.9575   -8.5481 H   0  0  0  1  0  0  0  0  0  0  0  0
   19.2800  -12.7700   -9.3645 C   0  0  0  1  0  0  0  0  0  0  0  0
   19.3012  -14.2686   -9.2792 C   0  0  0  1  0  0  0  0  0  0  0  0
   18.4499  -14.6515   -9.8023 H   0  0  0  1  0  0  0  0  0  0  0  0
   19.2445  -14.5518   -8.2489 H   0  0  0  1  0  0  0  0  0  0  0  0
   19.0960  -12.2214  -10.7515 C   0  0  0  1  0  0  0  0  0  0  0  0
   19.4911  -11.2281  -10.7981 H   0  0  0  1  0  0  0  0  0  0  0  0
   18.0535  -12.2019  -10.9916 H   0  0  0  1  0  0  0  0  0  0  0  0
   19.6124  -12.8436  -11.4523 H   0  0  0  1  0  0  0  0  0  0  0  0
   20.5550  -14.8816   -9.8813 C   0  0  0  1  0  0  0  0  0  0  0  0
   21.4077  -14.4779   -9.3764 H   0  0  0  1  0  0  0  0  0  0  0  0
   20.5974  -14.6210  -10.9182 H   0  0  0  1  0  0  0  0  0  0  0  0
   20.5936  -16.3817   -9.7623 C   0  0  0  1  0  0  0  0  0  0  0  0
   21.0425  -16.7675   -8.9071 H   0  0  0  1  0  0  0  0  0  0  0  0
   20.1163  -17.2663  -10.6312 C   0  0  0  1  0  0  0  0  0  0  0  0
   19.4376  -16.8889  -11.9175 C   0  0  0  1  0  0  0  0  0  0  0  0
   19.2846  -17.7765  -12.4951 H   0  0  0  1  0  0  0  0  0  0  0  0
   20.0753  -16.2185  -12.4551 H   0  0  0  1  0  0  0  0  0  0  0  0
   20.2222  -18.7432  -10.3867 C   0  0  0  1  0  0  0  0  0  0  0  0
   20.8907  -18.9231   -9.5708 H   0  0  0  1  0  0  0  0  0  0  0  0
   20.5959  -19.2242  -11.2664 H   0  0  0  1  0  0  0  0  0  0  0  0
   19.2555  -19.1352  -10.1485 H   0  0  0  1  0  0  0  0  0  0  0  0
   18.0933  -16.2121  -11.7051 C   0  0  0  1  0  0  0  0  0  0  0  0
   18.2427  -15.3387  -11.1053 H   0  0  0  1  0  0  0  0  0  0  0  0
   17.4470  -16.8923  -11.1908 H   0  0  0  1  0  0  0  0  0  0  0  0
   17.4299  -15.8014  -12.9925 C   0  0  0  1  0  0  0  0  0  0  0  0
   17.0193  -16.5525  -13.5832 H   0  0  0  1  0  0  0  0  0  0  0  0
   17.3298  -14.5510  -13.4304 C   0  0  0  1  0  0  0  0  0  0  0  0
   17.8724  -13.3632  -12.6899 C   0  0  0  1  0  0  0  0  0  0  0  0
   18.7430  -13.0109  -13.2026 H   0  0  0  1  0  0  0  0  0  0  0  0
   18.1406  -13.6717  -11.7011 H   0  0  0  1  0  0  0  0  0  0  0  0
   16.6498  -14.2250  -14.7303 C   0  0  0  1  0  0  0  0  0  0  0  0
   16.6987  -13.1704  -14.9043 H   0  0  0  1  0  0  0  0  0  0  0  0
   15.6257  -14.5314  -14.6834 H   0  0  0  1  0  0  0  0  0  0  0  0
   17.1408  -14.7411  -15.5286 H   0  0  0  1  0  0  0  0  0  0  0  0
   16.8760  -12.2200  -12.5865 C   0  0  0  1  0  0  0  0  0  0  0  0
   16.6838  -11.8457  -13.5703 H   0  0  0  1  0  0  0  0  0  0  0  0
   17.3075  -11.4453  -11.9876 H   0  0  0  1  0  0  0  0  0  0  0  0
   15.5760  -12.6297  -11.9706 C   0  0  0  1  0  0  0  0  0  0  0  0
   15.6259  -13.3376  -11.2103 H   0  0  0  1  0  0  0  0  0  0  0  0
   14.3643  -12.1873  -12.2895 C   0  0  0  1  0  0  0  0  0  0  0  0
   14.1167  -10.9563  -13.1145 C   0  0  0  1  0  0  0  0  0  0  0  0
   14.9486  -10.2939  -12.9961 H   0  0  0  1  0  0  0  0  0  0  0  0
   13.2274  -10.4802  -12.7575 H   0  0  0  1  0  0  0  0  0  0  0  0
   13.1238  -12.9014  -11.8385 C   0  0  0  1  0  0  0  0  0  0  0  0
   12.8252  -12.5286  -10.8810 H   0  0  0  1  0  0  0  0  0  0  0  0
   13.3226  -13.9503  -11.7664 H   0  0  0  1  0  0  0  0  0  0  0  0
   12.3391  -12.7344  -12.5465 H   0  0  0  1  0  0  0  0  0  0  0  0
   13.9439  -11.2563  -14.5946 C   0  0  0  1  0  0  0  0  0  0  0  0
   13.0150  -11.7660  -14.7431 H   0  0  0  1  0  0  0  0  0  0  0  0
   14.7497  -11.8792  -14.9226 H   0  0  0  1  0  0  0  0  0  0  0  0
   13.9435   -9.9947  -15.3941 C   0  0  0  1  0  0  0  0  0  0  0  0
   13.0366   -9.5122  -15.5559 H   0  0  0  1  0  0  0  0  0  0  0  0
   15.0460   -9.4579  -15.9093 C   0  0  0  1  0  0  0  0  0  0  0  0
   16.3772  -10.0814  -15.6049 C   0  0  0  1  0  0  0  0  0  0  0  0
   16.8693  -10.3017  -16.5291 H   0  0  0  1  0  0  0  0  0  0  0  0
   16.2122  -10.9890  -15.0628 H   0  0  0  1  0  0  0  0  0  0  0  0
   15.0972   -8.2468  -16.7975 C   0  0  0  1  0  0  0  0  0  0  0  0
   14.1055   -7.9854  -17.1027 H   0  0  0  1  0  0  0  0  0  0  0  0
   15.6906   -8.4630  -17.6612 H   0  0  0  1  0  0  0  0  0  0  0  0
   15.5321   -7.4295  -16.2610 H   0  0  0  1  0  0  0  0  0  0  0  0
   17.2810   -9.1815  -14.7780 C   0  0  0  1  0  0  0  0  0  0  0  0
   16.7335   -8.8683  -13.9137 H   0  0  0  1  0  0  0  0  0  0  0  0
   17.5294   -8.3272  -15.3725 H   0  0  0  1  0  0  0  0  0  0  0  0
   18.5658   -9.8115  -14.3107 C   0  0  0  1  0  0  0  0  0  0  0  0
   18.6638  -10.8413  -14.4182 H   0  0  0  1  0  0  0  0  0  0  0  0
   19.5710   -9.1585  -13.7780 C   0  0  0  1  0  0  0  0  0  0  0  0
   19.5049   -7.6693  -13.5895 C   0  0  0  1  0  0  0  0  0  0  0  0
   19.7792   -7.4412  -12.5808 H   0  0  0  1  0  0  0  0  0  0  0  0
   18.5000   -7.3478  -13.7678 H   0  0  0  1  0  0  0  0  0  0  0  0
   20.8773   -9.7970  -13.4066 C   0  0  0  1  0  0  0  0  0  0  0  0
   21.5740   -9.6784  -14.2100 H   0  0  0  1  0  0  0  0  0  0  0  0
   20.7239  -10.8391  -13.2187 H   0  0  0  1  0  0  0  0  0  0  0  0
   21.2653   -9.3286  -12.5263 H   0  0  0  1  0  0  0  0  0  0  0  0
   20.4295   -6.9090  -14.5262 C   0  0  0  1  0  0  0  0  0  0  0  0
   20.1488   -7.1293  -15.5349 H   0  0  0  1  0  0  0  0  0  0  0  0
   21.4332   -7.2377  -14.3548 H   0  0  0  1  0  0  0  0  0  0  0  0
   20.3738   -5.4319  -14.3299 C   0  0  0  1  0  0  0  0  0  0  0  0
   19.4794   -4.9812  -14.6101 H   0  0  0  1  0  0  0  0  0  0  0  0
   21.2969   -4.6069  -13.8505 C   0  0  0  1  0  0  0  0  0  0  0  0
   21.0401   -3.1297  -13.7321 C   0  0  0  1  0  0  0  0  0  0  0  0
   21.8275   -2.6059  -14.2326 H   0  0  0  1  0  0  0  0  0  0  0  0
   21.0387   -2.8663  -12.6950 H   0  0  0  1  0  0  0  0  0  0  0  0
   22.6554   -5.0470  -13.3891 C   0  0  0  1  0  0  0  0  0  0  0  0
   23.2589   -4.1634  -13.3932 H   0  0  0  1  0  0  0  0  0  0  0  0
   23.0587   -5.7782  -14.0580 H   0  0  0  1  0  0  0  0  0  0  0  0
   22.6002   -5.4574  -12.4024 H   0  0  0  1  0  0  0  0  0  0  0  0
   19.7135   -2.7054  -14.3408 C   0  0  0  1  0  0  0  0  0  0  0  0
   18.9374   -3.3118  -13.9227 H   0  0  0  1  0  0  0  0  0  0  0  0
   19.7585   -2.8618  -15.3983 H   0  0  0  1  0  0  0  0  0  0  0  0
   19.3826   -1.2595  -14.0840 C   0  0  0  1  0  0  0  0  0  0  0  0
   19.4306   -0.9415  -13.0950 H   0  0  0  1  0  0  0  0  0  0  0  0
   19.0358   -0.3455  -14.9840 C   0  0  0  1  0  0  0  0  0  0  0  0
   18.9246   -0.6248  -16.4546 C   0  0  0  1  0  0  0  0  0  0  0  0
   18.7510    0.2910  -16.9800 H   0  0  0  1  0  0  0  0  0  0  0  0
   18.1098   -1.2960  -16.6293 H   0  0  0  1  0  0  0  0  0  0  0  0
   19.8339   -1.0686  -16.8028 H   0  0  0  1  0  0  0  0  0  0  0  0
   18.7202    1.0757  -14.5851 C   0  0  0  1  0  0  0  0  0  0  0  0
   19.6290    1.5182  -14.2341 H   0  0  0  1  0  0  0  0  0  0  0  0
   17.9857    1.0827  -13.8072 H   0  0  0  1  0  0  0  0  0  0  0  0
   18.3512    1.6192  -15.4297 H   0  0  0  1  0  0  0  0  0  0  0  0
   15.8626   -5.0631   -1.4649 C   0  0  0  1  0  0  0  0  0  0  0  0
   15.8636   -5.5744   -0.5250 H   0  0  0  1  0  0  0  0  0  0  0  0
   14.7683   -5.6432   -2.3407 C   0  0  0  1  0  0  0  0  0  0  0  0
   15.0380   -6.6430   -2.6099 H   0  0  0  1  0  0  0  0  0  0  0  0
   15.6635   -3.6820   -1.2366 O   0  0  0  1  0  0  0  0  0  0  0  0
   14.5529   -4.8377   -3.6110 C   0  0  0  1  0  0  0  0  0  0  0  0
   13.6462   -5.1571   -4.0809 H   0  0  0  1  0  0  0  0  0  0  0  0
   15.6493   -2.9144   -2.4540 C   0  0  0  1  0  0  0  0  0  0  0  0
   16.5542   -3.0852   -2.9988 H   0  0  0  1  0  0  0  0  0  0  0  0
   14.4549   -3.3560   -3.2908 C   0  0  0  1  0  0  0  0  0  0  0  0
   14.4384   -2.7982   -4.2037 H   0  0  0  1  0  0  0  0  0  0  0  0
   17.1186   -5.2496   -2.1088 O   0  0  0  1  0  0  0  0  0  0  0  0
   13.5481   -5.6620   -1.5976 O   0  0  0  1  0  0  0  0  0  0  0  0
   13.2852   -6.5710   -1.4363 H   0  0  0  1  0  0  0  0  0  0  0  0
   15.6453   -5.0540   -4.4923 O   0  0  0  1  0  0  0  0  0  0  0  0
   15.9925   -5.9394   -4.3610 H   0  0  0  1  0  0  0  0  0  0  0  0
   15.5262   -1.4354   -2.1258 C   0  0  0  1  0  0  0  0  0  0  0  0
   15.4344   -0.8747   -3.0325 H   0  0  0  1  0  0  0  0  0  0  0  0
   16.3980   -1.1144   -1.5949 H   0  0  0  1  0  0  0  0  0  0  0  0
   14.6595   -1.2759   -1.5188 H   0  0  0  1  0  0  0  0  0  0  0  0
   19.9035   -6.0157   -2.5324 C   0  0  0  1  0  0  0  0  0  0  0  0
   19.1742   -6.3959   -3.2168 H   0  0  0  1  0  0  0  0  0  0  0  0
   19.2567   -5.7659   -1.1974 C   0  0  0  1  0  0  0  0  0  0  0  0
   19.9967   -5.4287   -0.5020 H   0  0  0  1  0  0  0  0  0  0  0  0
   20.4322   -4.8024   -3.0318 O   0  0  0  1  0  0  0  0  0  0  0  0
   18.1901   -4.7187   -1.3362 C   0  0  0  1  0  0  0  0  0  0  0  0
   17.8323   -4.4557   -0.3627 H   0  0  0  1  0  0  0  0  0  0  0  0
   19.3883   -3.8562   -3.3234 C   0  0  0  1  0  0  0  0  0  0  0  0
   19.8065   -2.9847   -3.7823 H   0  0  0  1  0  0  0  0  0  0  0  0
   18.7182   -3.4776   -2.0171 C   0  0  0  1  0  0  0  0  0  0  0  0
   17.9071   -2.8082   -2.2146 H   0  0  0  1  0  0  0  0  0  0  0  0
   18.6589   -7.0036   -0.7102 N   0  0  0  1  0  0  0  0  0  0  0  0
   17.8818   -7.3709   -1.1809 H   0  0  0  1  0  0  0  0  0  0  0  0
   19.6653   -2.8388   -1.1674 O   0  0  0  1  0  0  0  0  0  0  0  0
   19.1905   -2.1446   -0.7047 H   0  0  0  1  0  0  0  0  0  0  0  0
   18.3828   -4.4771   -4.2499 C   0  0  0  1  0  0  0  0  0  0  0  0
   17.5320   -3.8337   -4.3341 H   0  0  0  1  0  0  0  0  0  0  0  0
   18.0767   -5.4248   -3.8590 H   0  0  0  1  0  0  0  0  0  0  0  0
   18.9659   -4.6616   -5.5363 O   0  0  0  1  0  0  0  0  0  0  0  0
   19.8592   -4.3107   -5.5142 H   0  0  0  1  0  0  0  0  0  0  0  0
   19.1339   -7.6544    0.3556 C   0  0  0  1  0  0  0  0  0  0  0  0
   20.1978   -7.3800    0.9093 O   0  0  0  1  0  0  0  0  0  0  0  0
   18.3153   -8.7998    0.9186 C   0  0  0  1  0  0  0  0  0  0  0  0
   18.2213   -9.4861    0.1031 H   0  0  0  1  0  0  0  0  0  0  0  0
   17.3532   -8.4566    1.2372 H   0  0  0  1  0  0  0  0  0  0  0  0
   18.8218   -9.2579    1.7423 H   0  0  0  1  0  0  0  0  0  0  0  0
  1  2  1  0  0  0  0
  1  3  1  0  0  0  0
  1  4  1  0  0  0  0
  1 44  1  0  0  0  0
  3 20  1  0  0  0  0
  4  5  1  0  0  0  0
  4  6  1  0  0  0  0
  4  8  1  0  0  0  0
  6  7  1  0  0  0  0
  8  9  1  0  0  0  0
  8 10  1  0  0  0  0
  8 20  1  0  0  0  0
 10 11  1  0  0  0  0
 12 13  1  0  0  0  0
 12 14  1  0  0  0  0
 12 15  1  0  0  0  0
 12 17  1  0  0  0  0
 15 16  1  0  0  0  0
 17 18  1  0  0  0  0
 17 19  1  0  0  0  0
 17 20  1  0  0  0  0
 19 22  1  0  0  0  0
 20 21  1  0  0  0  0
 22 23  1  0  0  0  0
 22 24  1  0  0  0  0
 22 25  1  0  0  0  0
 24 42  1  0  0  0  0
 25 26  1  0  0  0  0
 25 27  1  0  0  0  0
 25 29  1  0  0  0  0
 27 28  1  0  0  0  0
 29 30  1  0  0  0  0
 29 31  1  0  0  0  0
 29 42  1  0  0  0  0
 31 32  1  0  0  0  0
 33 34  1  0  0  0  0
 33 35  1  0  0  0  0
 33 36  1  0  0  0  0
 33 38  1  0  0  0  0
 36 37  1  0  0  0  0
 38 39  1  0  0  0  0
 38 40  1  0  0  0  0
 38 42  1  0  0  0  0
 40 41  1  0  0  0  0
 42 43  1  0  0  0  0
 44194  1  0  0  0  0
 45 46  1  0  0  0  0
 45 54  1  0  0  0  0
 46 47  1  0  0  0  0
 46 48  1  0  0  0  0
 46 49  2  0  0  0  0
 47 50  1  0  0  0  0
 50 51  1  0  0  0  0
 50 52  1  0  0  0  0
 50 53  2  0  0  0  0
 51205  1  0  0  0  0
 54 55  1  0  0  0  0
 54 56  1  0  0  0  0
 54 57  1  0  0  0  0
 57 58  1  0  0  0  0
 57 59  2  0  0  0  0
 59 60  1  0  0  0  0
 59 64  1  0  0  0  0
 60 61  1  0  0  0  0
 60 62  1  0  0  0  0
 60 63  1  0  0  0  0
 64 65  1  0  0  0  0
 64 66  1  0  0  0  0
 64 67  1  0  0  0  0
 67 68  1  0  0  0  0
 67 69  1  0  0  0  0
 67 70  1  0  0  0  0
 70 71  1  0  0  0  0
 70 72  2  0  0  0  0
 72 73  1  0  0  0  0
 72 77  1  0  0  0  0
 73 74  1  0  0  0  0
 73 75  1  0  0  0  0
 73 76  1  0  0  0  0
 77 78  1  0  0  0  0
 77 79  1  0  0  0  0
 77 80  1  0  0  0  0
 80 81  1  0  0  0  0
 80 82  1  0  0  0  0
 80 83  1  0  0  0  0
 83 84  1  0  0  0  0
 83 85  2  0  0  0  0
 85 86  1  0  0  0  0
 85 89  1  0  0  0  0
 86 87  1  0  0  0  0
 86 88  1  0  0  0  0
 86 93  1  0  0  0  0
 89 90  1  0  0  0  0
 89 91  1  0  0  0  0
 89 92  1  0  0  0  0
 93 94  1  0  0  0  0
 93 95  1  0  0  0  0
 93 96  1  0  0  0  0
 96 97  1  0  0  0  0
 96 98  2  0  0  0  0
 98 99  1  0  0  0  0
 98102  1  0  0  0  0
 99100  1  0  0  0  0
 99101  1  0  0  0  0
 99106  1  0  0  0  0
102103  1  0  0  0  0
102104  1  0  0  0  0
102105  1  0  0  0  0
106107  1  0  0  0  0
106108  1  0  0  0  0
106109  1  0  0  0  0
109110  1  0  0  0  0
109111  2  0  0  0  0
111112  1  0  0  0  0
111115  1  0  0  0  0
112113  1  0  0  0  0
112114  1  0  0  0  0
112119  1  0  0  0  0
115116  1  0  0  0  0
115117  1  0  0  0  0
115118  1  0  0  0  0
119120  1  0  0  0  0
119121  1  0  0  0  0
119122  1  0  0  0  0
122123  1  0  0  0  0
122124  2  0  0  0  0
124125  1  0  0  0  0
124128  1  0  0  0  0
125126  1  0  0  0  0
125127  1  0  0  0  0
125132  1  0  0  0  0
128129  1  0  0  0  0
128130  1  0  0  0  0
128131  1  0  0  0  0
132133  1  0  0  0  0
132134  1  0  0  0  0
132135  1  0  0  0  0
135136  1  0  0  0  0
135137  2  0  0  0  0
137138  1  0  0  0  0
137141  1  0  0  0  0
138139  1  0  0  0  0
138140  1  0  0  0  0
138145  1  0  0  0  0
141142  1  0  0  0  0
141143  1  0  0  0  0
141144  1  0  0  0  0
145146  1  0  0  0  0
145147  1  0  0  0  0
145148  1  0  0  0  0
148149  1  0  0  0  0
148150  2  0  0  0  0
150151  1  0  0  0  0
150154  1  0  0  0  0
151152  1  0  0  0  0
151153  1  0  0  0  0
151158  1  0  0  0  0
154155  1  0  0  0  0
154156  1  0  0  0  0
154157  1  0  0  0  0
158159  1  0  0  0  0
158160  1  0  0  0  0
158161  1  0  0  0  0
161162  1  0  0  0  0
161163  2  0  0  0  0
163164  1  0  0  0  0
163167  1  0  0  0  0
164165  1  0  0  0  0
164166  1  0  0  0  0
164171  1  0  0  0  0
167168  1  0  0  0  0
167169  1  0  0  0  0
167170  1  0  0  0  0
171172  1  0  0  0  0
171173  1  0  0  0  0
171174  1  0  0  0  0
174175  1  0  0  0  0
174176  2  0  0  0  0
176177  1  0  0  0  0
176181  1  0  0  0  0
177178  1  0  0  0  0
177179  1  0  0  0  0
177180  1  0  0  0  0
181182  1  0  0  0  0
181183  1  0  0  0  0
181184  1  0  0  0  0
185186  1  0  0  0  0
185187  1  0  0  0  0
185189  1  0  0  0  0
185196  1  0  0  0  0
187188  1  0  0  0  0
187190  1  0  0  0  0
187197  1  0  0  0  0
189192  1  0  0  0  0
190191  1  0  0  0  0
190194  1  0  0  0  0
190199  1  0  0  0  0
192193  1  0  0  0  0
192194  1  0  0  0  0
192201  1  0  0  0  0
194195  1  0  0  0  0
196210  1  0  0  0  0
197198  1  0  0  0  0
199200  1  0  0  0  0
201202  1  0  0  0  0
201203  1  0  0  0  0
201204  1  0  0  0  0
205206  1  0  0  0  0
205207  1  0  0  0  0
205209  1  0  0  0  0
207208  1  0  0  0  0
207210  1  0  0  0  0
207216  1  0  0  0  0
209212  1  0  0  0  0
210211  1  0  0  0  0
210214  1  0  0  0  0
212213  1  0  0  0  0
212214  1  0  0  0  0
212220  1  0  0  0  0
214215  1  0  0  0  0
214218  1  0  0  0  0
216217  1  0  0  0  0
216225  1  0  0  0  0
218219  1  0  0  0  0
220221  1  0  0  0  0
220222  1  0  0  0  0
220223  1  0  0  0  0
223224  1  0  0  0  0
225226  2  0  0  0  0
225227  1  0  0  0  0
227228  1  0  0  0  0
227229  1  0  0  0  0
227230  1  0  0  0  0
M  BCL ATM C_TeTeTeTe H_S O_Te2Te2TeTe C_TeTeTeTe H_S O_Te2Te2TeTe H_S C_TeTeTeTe H_S O_Te2Te2TeTe H_S C_TeTeTeTe H_S H_S O_Te2Te2TeTe H_S C_TeTeTeTe H_S O_Te2Te2TeTe C_TeTeTeTe H_S C_TeTeTeTe H_S O_Te2Te2TeTe C_TeTeTeTe H_S O_Te2Te2TeTe H_S C_TeTeTeTe H_S O_Te2Te2TeTe H_S C_TeTeTeTe H_S H_S O_Te2Te2TeTe H_S C_TeTeTeTe H_S O_Te2Te2TeTe H_S C_TeTeTeTe H_S O_Te2Te2TeTe O_Tr2TrTrPi2 P_TeTeTeTePi O_Tr2TrTrPi2 O_Te2Te2TeTe O_Tr2Tr2TrPi P_TeTeTeTePi O_Tr2TrTrPi2 O_Te2Te2TeTe O_Tr2Tr2TrPi C_TeTeTeTe H_S H_S C_TrTrTrPi H_S C_TrTrTrPi C_TeTeTeTe H_S H_S H_S C_TeTeTeTe H_S H_S C_TeTeTeTe H_S H_S C_TrTrTrPi H_S C_TrTrTrPi C_TeTeTeTe H_S H_S H_S C_TeTeTeTe H_S H_S C_TeTeTeTe H_S H_S C_TrTrTrPi H_S C_TrTrTrPi C_TeTeTeTe H_S H_S C_TeTeTeTe H_S H_S H_S C_TeTeTeTe H_S H_S C_TrTrTrPi H_S C_TrTrTrPi C_TeTeTeTe H_S H_S C_TeTeTeTe H_S H_S H_S C_TeTeTeTe H_S H_S C_TrTrTrPi H_S C_TrTrTrPi C_TeTeTeTe H_S H_S C_TeTeTeTe H_S H_S H_S C_TeTeTeTe H_S H_S C_TrTrTrPi H_S C_TrTrTrPi C_TeTeTeTe H_S H_S C_TeTeTeTe H_S H_S H_S C_TeTeTeTe H_S H_S C_TrTrTrPi H_S C_TrTrTrPi C_TeTeTeTe H_S H_S C_TeTeTeTe H_S H_S H_S C_TeTeTeTe H_S H_S C_TrTrTrPi H_S C_TrTrTrPi C_TeTeTeTe H_S H_S C_TeTeTeTe H_S H_S H_S C_TeTeTeTe H_S H_S C_TrTrTrPi H_S C_TrTrTrPi C_TeTeTeTe H_S H_S C_TeTeTeTe H_S H_S H_S C_TeTeTeTe H_S H_S C_TrTrTrPi H_S C_TrTrTrPi C_TeTeTeTe H_S H_S H_S C_TeTeTeTe H_S H_S H_S C_TeTeTeTe H_S C_TeTeTeTe H_S O_Te2Te2TeTe C_TeTeTeTe H_S C_TeTeTeTe H_S C_TeTeTeTe H_S O_Te2Te2TeTe O_Te2Te2TeTe H_S O_Te2Te2TeTe H_S C_TeTeTeTe H_S H_S H_S C_TeTeTeTe H_S C_TeTeTeTe H_S O_Te2Te2TeTe C_TeTeTeTe H_S C_TeTeTeTe H_S C_TeTeTeTe H_S N_TrTrTrPi2 H_S O_Te2Te2TeTe H_S C_TeTeTeTe H_S H_S O_Te2Te2TeTe H_S C_TrTrTrPi O_Tr2Tr2TrPi C_TeTeTeTe H_S H_S H_S
M  BCL BND NonConjugatedSingleBond NonConjugatedSingleBondInRing NonConjugatedSingleBondInRing NonConjugatedSingleBond NonConjugatedSingleBondInRing NonConjugatedSingleBond NonConjugatedSingleBond NonConjugatedSingleBondInRing NonConjugatedSingleBond NonConjugatedSingleBond NonConjugatedSingleBond NonConjugatedSingleBondInRing NonConjugatedSingleBond NonConjugatedSingleBond NonConjugatedSingleBond NonConjugatedSingleBond NonConjugatedSingleBond NonConjugatedSingleBond NonConjugatedSingleBond NonConjugatedSingleBond NonConjugatedSingleBond NonConjugatedSingleBond NonConjugatedSingleBond NonConjugatedSingleBond NonConjugatedSingleBondInRing NonConjugatedSingleBondInRing NonConjugatedSingleBondInRing NonConjugatedSingleBond NonConjugatedSingleBond NonConjugatedSingleBondInRing NonConjugatedSingleBond NonConjugatedSingleBond NonConjugatedSingleBond NonConjugatedSingleBondInRing NonConjugatedSingleBond NonConjugatedSingleBond NonConjugatedSingleBond NonConjugatedSingleBond NonConjugatedSingleBond NonConjugatedSingleBond NonConjugatedSingleBond NonConjugatedSingleBond NonConjugatedSingleBond NonConjugatedSingleBond NonConjugatedSingleBond NonConjugatedSingleBond ConjugatedSingleBond NonConjugatedSingleBond ConjugatedSingleBond ConjugatedSingleBond ConjugatedDoubleBond ConjugatedSingleBond ConjugatedSingleBond ConjugatedSingleBond ConjugatedDoubleBond NonConjugatedSingleBond NonConjugatedSingleBond NonConjugatedSingleBond NonConjugatedSingleBond NonConjugatedSingleBond ConjugatedDoubleBond NonConjugatedSingleBond NonConjugatedSingleBond NonConjugatedSingleBond NonConjugatedSingleBond NonConjugatedSingleBond NonConjugatedSingleBond NonConjugatedSingleBond NonConjugatedSingleBond NonConjugatedSingleBond NonConjugatedSingleBond NonConjugatedSingleBond NonConjugatedSingleBond ConjugatedDoubleBond NonConjugatedSingleBond NonConjugatedSingleBond NonConjugatedSingleBond NonConjugatedSingleBond NonConjugatedSingleBond NonConjugatedSingleBond NonConjugatedSingleBond NonConjugatedSingleBond NonConjugatedSingleBond NonConjugatedSingleBond NonConjugatedSingleBond NonConjugatedSingleBond ConjugatedDoubleBond NonConjugatedSingleBond NonConjugatedSingleBond NonConjugatedSingleBond NonConjugatedSingleBond NonConjugatedSingleBond NonConjugatedSingleBond NonConjugatedSingleBond NonConjugatedSingleBond NonConjugatedSingleBond NonConjugatedSingleBond NonConjugatedSingleBond NonConjugatedSingleBond ConjugatedDoubleBond NonConjugatedSingleBond NonConjugatedSingleBond NonConjugatedSingleBond NonConjugatedSingleBond NonConjugatedSingleBond NonConjugatedSingleBond NonConjugatedSingleBond NonConjugatedSingleBond NonConjugatedSingleBond NonConjugatedSingleBond NonConjugatedSingleBond NonConjugatedSingleBond ConjugatedDoubleBond NonConjugatedSingleBond NonConjugatedSingleBond NonConjugatedSingleBond NonConjugatedSingleBond NonConjugatedSingleBond NonConjugatedSingleBond NonConjugatedSingleBond NonConjugatedSingleBond NonConjugatedSingleBond NonConjugatedSingleBond NonConjugatedSingleBond NonConjugatedSingleBond ConjugatedDoubleBond NonConjugatedSingleBond NonConjugatedSingleBond NonConjugatedSingleBond NonConjugatedSingleBond NonConjugatedSingleBond NonConjugatedSingleBond NonConjugatedSingleBond NonConjugatedSingleBond NonConjugatedSingleBond NonConjugatedSingleBond NonConjugatedSingleBond NonConjugatedSingleBond ConjugatedDoubleBond NonConjugatedSingleBond NonConjugatedSingleBond NonConjugatedSingleBond NonConjugatedSingleBond NonConjugatedSingleBond NonConjugatedSingleBond NonConjugatedSingleBond NonConjugatedSingleBond NonConjugatedSingleBond NonConjugatedSingleBond NonConjugatedSingleBond NonConjugatedSingleBond ConjugatedDoubleBond NonConjugatedSingleBond NonConjugatedSingleBond NonConjugatedSingleBond NonConjugatedSingleBond NonConjugatedSingleBond NonConjugatedSingleBond NonConjugatedSingleBond NonConjugatedSingleBond NonConjugatedSingleBond NonConjugatedSingleBond NonConjugatedSingleBond NonConjugatedSingleBond ConjugatedDoubleBond NonConjugatedSingleBond NonConjugatedSingleBond NonConjugatedSingleBond NonConjugatedSingleBond NonConjugatedSingleBond NonConjugatedSingleBond NonConjugatedSingleBond NonConjugatedSingleBond NonConjugatedSingleBond NonConjugatedSingleBond NonConjugatedSingleBond NonConjugatedSingleBond ConjugatedDoubleBond NonConjugatedSingleBond NonConjugatedSingleBond NonConjugatedSingleBond NonConjugatedSingleBond NonConjugatedSingleBond NonConjugatedSingleBond NonConjugatedSingleBond NonConjugatedSingleBond NonConjugatedSingleBond NonConjugatedSingleBondInRing NonConjugatedSingleBondInRing NonConjugatedSingleBond NonConjugatedSingleBond NonConjugatedSingleBondInRing NonConjugatedSingleBond NonConjugatedSingleBondInRing NonConjugatedSingleBond NonConjugatedSingleBondInRing NonConjugatedSingleBond NonConjugatedSingleBond NonConjugatedSingleBondInRing NonConjugatedSingleBond NonConjugatedSingleBond NonConjugatedSingleBond NonConjugatedSingleBond NonConjugatedSingleBond NonConjugatedSingleBond NonConjugatedSingleBond NonConjugatedSingleBond NonConjugatedSingleBond NonConjugatedSingleBondInRing NonConjugatedSingleBondInRing NonConjugatedSingleBond NonConjugatedSingleBondInRing NonConjugatedSingleBond NonConjugatedSingleBondInRing NonConjugatedSingleBond NonConjugatedSingleBondInRing NonConjugatedSingleBond NonConjugatedSingleBondInRing NonConjugatedSingleBond NonConjugatedSingleBond NonConjugatedSingleBond NonConjugatedSingleBond AmideSingleBond NonConjugatedSingleBond NonConjugatedSingleBond NonConjugatedSingleBond NonConjugatedSingleBond NonConjugatedSingleBond ConjugatedDoubleBond NonConjugatedSingleBond NonConjugatedSingleBond NonConjugatedSingleBond NonConjugatedSingleBond
M  BCL CHI   1   R   4   R   8   R  17   S  20   R  22   S  25   R  29   S  38   S  42   R  46   R  50   S 185   R 187   S 190   S 192   R 194   R 205   R 207   S 210   R 212   S 214   S
M  BCL DBI - - E E E E E E E E Z - -
M  END
> <ConfClashScore>
0.00950489 

> <ConfOneFourInteractionScore>
-0.968556 

> <ConfScore>
1.01473 

> <ConfScorePBest>
0.0099485 

> <ConfTolerance>
3.58125 

$$$$
L05.****
  PyMOL2.5          3D                             0

230233  0  0  0  0  0  0  0  0999 V2000
   12.0199   -2.6971   -2.6894 C   0  0  0  1  0  0  0  0  0  0  0  0
   12.2203   -1.7585   -3.1624 H   0  0  0  1  0  0  0  0  0  0  0  0
   11.0268   -2.5402   -1.6510 O   0  0  0  1  0  0  0  0  0  0  0  0
   11.4012   -3.6807   -3.6872 C   0  0  0  1  0  0  0  0  0  0  0  0
   12.1393   -4.3539   -4.0704 H   0  0  0  1  0  0  0  0  0  0  0  0
   10.7792   -2.9881   -4.7706 O   0  0  0  1  0  0  0  0  0  0  0  0
   10.1459   -2.3549   -4.4248 H   0  0  0  1  0  0  0  0  0  0  0  0
   10.3801   -4.4138   -2.8575 C   0  0  0  1  0  0  0  0  0  0  0  0
    9.5778   -4.7768   -3.4654 H   0  0  0  1  0  0  0  0  0  0  0  0
   10.9758   -5.5044   -2.1532 O   0  0  0  1  0  0  0  0  0  0  0  0
   11.3677   -6.1156   -2.7812 H   0  0  0  1  0  0  0  0  0  0  0  0
    8.1312   -3.2071   -3.7031 C   0  0  0  1  0  0  0  0  0  0  0  0
    8.8811   -3.4528   -4.4258 H   0  0  0  1  0  0  0  0  0  0  0  0
    7.6543   -4.1031   -3.3644 H   0  0  0  1  0  0  0  0  0  0  0  0
    7.1615   -2.3510   -4.2995 O   0  0  0  1  0  0  0  0  0  0  0  0
    7.6009   -1.7224   -4.8768 H   0  0  0  1  0  0  0  0  0  0  0  0
    8.7813   -2.5000   -2.5186 C   0  0  0  1  0  0  0  0  0  0  0  0
    8.0302   -2.3188   -1.7783 H   0  0  0  1  0  0  0  0  0  0  0  0
    9.3463   -1.2658   -2.9454 O   0  0  0  1  0  0  0  0  0  0  0  0
    9.8920   -3.3286   -1.8870 C   0  0  0  1  0  0  0  0  0  0  0  0
    9.5381   -3.7656   -0.9766 H   0  0  0  1  0  0  0  0  0  0  0  0
    8.4190   -0.2130   -3.0156 C   0  0  0  1  0  0  0  0  0  0  0  0
    7.5319   -0.5508   -3.5095 H   0  0  0  1  0  0  0  0  0  0  0  0
    8.1126    0.2615   -1.7214 O   0  0  0  1  0  0  0  0  0  0  0  0
    9.0171    0.9721   -3.7519 C   0  0  0  1  0  0  0  0  0  0  0  0
    8.8434    0.9012   -4.8053 H   0  0  0  1  0  0  0  0  0  0  0  0
   10.4201    1.0787   -3.5060 O   0  0  0  1  0  0  0  0  0  0  0  0
   10.8667    1.3516   -4.3108 H   0  0  0  1  0  0  0  0  0  0  0  0
    8.2685    2.1348   -3.1528 C   0  0  0  1  0  0  0  0  0  0  0  0
    7.2996    2.2440   -3.5935 H   0  0  0  1  0  0  0  0  0  0  0  0
    8.9983    3.3546   -3.2970 O   0  0  0  1  0  0  0  0  0  0  0  0
    8.4048    4.0993   -3.1760 H   0  0  0  1  0  0  0  0  0  0  0  0
    6.7505    1.7127    0.3461 C   0  0  0  1  0  0  0  0  0  0  0  0
    6.3205    2.4695    0.9684 H   0  0  0  1  0  0  0  0  0  0  0  0
    6.0848    0.8770    0.2883 H   0  0  0  1  0  0  0  0  0  0  0  0
    7.9589    1.2754    0.9510 O   0  0  0  1  0  0  0  0  0  0  0  0
    7.9010    1.3906    1.9023 H   0  0  0  1  0  0  0  0  0  0  0  0
    6.9143    2.2844   -1.0493 C   0  0  0  1  0  0  0  0  0  0  0  0
    7.0459    3.3422   -0.9569 H   0  0  0  1  0  0  0  0  0  0  0  0
    5.8078    2.0254   -1.8903 O   0  0  0  1  0  0  0  0  0  0  0  0
    5.8477    1.1183   -2.2021 H   0  0  0  1  0  0  0  0  0  0  0  0
    8.1703    1.7136   -1.6872 C   0  0  0  1  0  0  0  0  0  0  0  0
    9.0296    2.0439   -1.1419 H   0  0  0  1  0  0  0  0  0  0  0  0
   13.2266   -3.2249   -2.1508 O   0  0  0  1  0  0  0  0  0  0  0  0
   20.8674   -6.3074   -6.9678 O   0  0  0  1  0  0  0  0  0  0  0  0
   21.3997   -7.8348   -6.8935 P   0  0  0  1  0  0  0  0  0  0  0  0
   22.1011   -7.9521   -5.4578 O   0  0  0  1  0  0  0  0  0  0  0  0
   22.3894   -7.9405   -7.9933 O   0  0  0  0  0  0  0  0  0  0  0  0
   20.2877   -8.8140   -6.8568 O   0  0  0  1  0  0  0  0  0  0  0  0
   21.8763   -7.5551   -3.8951 P   0  0  0  1  0  0  0  0  0  0  0  0
   20.3258   -7.8072   -3.9882 O   0  0  0  1  0  0  0  0  0  0  0  0
   22.1489   -6.1103   -3.6940 O   0  0  0  0  0  0  0  0  0  0  0  0
   22.5060   -8.5472   -3.0053 O   0  0  0  1  0  0  0  0  0  0  0  0
   20.3998   -5.7498   -8.2064 C   0  0  0  1  0  0  0  0  0  0  0  0
   19.4745   -5.2375   -8.0444 H   0  0  0  1  0  0  0  0  0  0  0  0
   20.2545   -6.5322   -8.9217 H   0  0  0  1  0  0  0  0  0  0  0  0
   21.4296   -4.7846   -8.7153 C   0  0  0  1  0  0  0  0  0  0  0  0
   21.8354   -4.1107   -8.0349 H   0  0  0  1  0  0  0  0  0  0  0  0
   21.8618   -4.7265   -9.9704 C   0  0  0  1  0  0  0  0  0  0  0  0
   23.1008   -3.9910  -10.3914 C   0  0  0  1  0  0  0  0  0  0  0  0
   23.5845   -4.5284  -11.1802 H   0  0  0  1  0  0  0  0  0  0  0  0
   23.7660   -3.9067   -9.5575 H   0  0  0  1  0  0  0  0  0  0  0  0
   22.8352   -3.0137  -10.7367 H   0  0  0  1  0  0  0  0  0  0  0  0
   21.1236   -5.4100  -11.0901 C   0  0  0  1  0  0  0  0  0  0  0  0
   21.3716   -6.4508  -11.0761 H   0  0  0  1  0  0  0  0  0  0  0  0
   21.4386   -4.9802  -12.0180 H   0  0  0  1  0  0  0  0  0  0  0  0
   19.6140   -5.2709  -10.9803 C   0  0  0  1  0  0  0  0  0  0  0  0
   19.3615   -4.2335  -11.0515 H   0  0  0  1  0  0  0  0  0  0  0  0
   19.3055   -5.6490  -10.0281 H   0  0  0  1  0  0  0  0  0  0  0  0
   18.8730   -6.0192  -12.0559 C   0  0  0  1  0  0  0  0  0  0  0  0
   18.4893   -6.9550  -11.8140 H   0  0  0  1  0  0  0  0  0  0  0  0
   18.6729   -5.5736  -13.2905 C   0  0  0  1  0  0  0  0  0  0  0  0
   17.6589   -6.2122  -14.1969 C   0  0  0  1  0  0  0  0  0  0  0  0
   17.9448   -6.0593  -15.2165 H   0  0  0  1  0  0  0  0  0  0  0  0
   16.6995   -5.7705  -14.0256 H   0  0  0  1  0  0  0  0  0  0  0  0
   17.6103   -7.2616  -13.9939 H   0  0  0  1  0  0  0  0  0  0  0  0
   19.4161   -4.4184  -13.8949 C   0  0  0  1  0  0  0  0  0  0  0  0
   19.4800   -4.5703  -14.9521 H   0  0  0  1  0  0  0  0  0  0  0  0
   20.4010   -4.3914  -13.4777 H   0  0  0  1  0  0  0  0  0  0  0  0
   18.7451   -3.0789  -13.6382 C   0  0  0  1  0  0  0  0  0  0  0  0
   18.7381   -2.8980  -12.5837 H   0  0  0  1  0  0  0  0  0  0  0  0
   17.7388   -3.1274  -13.9989 H   0  0  0  1  0  0  0  0  0  0  0  0
   19.4270   -1.9560  -14.3018 C   0  0  0  1  0  0  0  0  0  0  0  0
   20.4326   -1.7627  -14.1202 H   0  0  0  1  0  0  0  0  0  0  0  0
   18.7300   -1.1951  -15.1373 C   0  0  0  1  0  0  0  0  0  0  0  0
   17.3926   -1.6372  -15.6681 C   0  0  0  1  0  0  0  0  0  0  0  0
   17.4803   -2.6690  -15.9376 H   0  0  0  1  0  0  0  0  0  0  0  0
   17.1872   -1.0559  -16.5426 H   0  0  0  1  0  0  0  0  0  0  0  0
   19.1881    0.1494  -15.6281 C   0  0  0  1  0  0  0  0  0  0  0  0
   20.0505    0.4569  -15.0743 H   0  0  0  1  0  0  0  0  0  0  0  0
   18.4038    0.8645  -15.4926 H   0  0  0  1  0  0  0  0  0  0  0  0
   19.4363    0.0840  -16.6669 H   0  0  0  1  0  0  0  0  0  0  0  0
   16.1923   -1.5088  -14.7444 C   0  0  0  1  0  0  0  0  0  0  0  0
   16.1963   -0.5287  -14.3151 H   0  0  0  1  0  0  0  0  0  0  0  0
   16.2807   -2.2394  -13.9676 H   0  0  0  1  0  0  0  0  0  0  0  0
   14.8795   -1.7172  -15.4509 C   0  0  0  1  0  0  0  0  0  0  0  0
   14.9272   -2.1210  -16.4081 H   0  0  0  1  0  0  0  0  0  0  0  0
   13.6675   -1.4412  -14.9847 C   0  0  0  1  0  0  0  0  0  0  0  0
   13.4716   -0.8538  -13.6126 C   0  0  0  1  0  0  0  0  0  0  0  0
   14.0605   -1.4127  -12.9156 H   0  0  0  1  0  0  0  0  0  0  0  0
   12.4370   -0.9351  -13.3519 H   0  0  0  1  0  0  0  0  0  0  0  0
   12.4004   -1.6783  -15.7530 C   0  0  0  1  0  0  0  0  0  0  0  0
   12.6133   -1.6788  -16.8016 H   0  0  0  1  0  0  0  0  0  0  0  0
   11.6989   -0.9012  -15.5320 H   0  0  0  1  0  0  0  0  0  0  0  0
   11.9855   -2.6241  -15.4731 H   0  0  0  1  0  0  0  0  0  0  0  0
   13.8786    0.6081  -13.5271 C   0  0  0  1  0  0  0  0  0  0  0  0
   14.0309    0.9779  -14.5195 H   0  0  0  1  0  0  0  0  0  0  0  0
   14.7937    0.6752  -12.9766 H   0  0  0  1  0  0  0  0  0  0  0  0
   12.8469    1.4688  -12.8483 C   0  0  0  1  0  0  0  0  0  0  0  0
   11.8698    1.1140  -12.8164 H   0  0  0  1  0  0  0  0  0  0  0  0
   13.0901    2.6416  -12.2897 C   0  0  0  1  0  0  0  0  0  0  0  0
   14.4626    3.2525  -12.1938 C   0  0  0  1  0  0  0  0  0  0  0  0
   14.3672    4.3041  -12.0206 H   0  0  0  1  0  0  0  0  0  0  0  0
   14.9848    3.0879  -13.1131 H   0  0  0  1  0  0  0  0  0  0  0  0
   11.9901    3.4716  -11.6954 C   0  0  0  1  0  0  0  0  0  0  0  0
   11.1722    2.8380  -11.4226 H   0  0  0  1  0  0  0  0  0  0  0  0
   11.6589    4.1917  -12.4141 H   0  0  0  1  0  0  0  0  0  0  0  0
   12.3551    3.9769  -10.8257 H   0  0  0  1  0  0  0  0  0  0  0  0
   15.2560    2.6255  -11.0473 C   0  0  0  1  0  0  0  0  0  0  0  0
   14.7603    2.8692  -10.1309 H   0  0  0  1  0  0  0  0  0  0  0  0
   16.2354    3.0566  -11.0492 H   0  0  0  1  0  0  0  0  0  0  0  0
   15.4062    1.1386  -11.1094 C   0  0  0  1  0  0  0  0  0  0  0  0
   14.5361    0.5798  -10.9987 H   0  0  0  1  0  0  0  0  0  0  0  0
   16.5307    0.4544  -11.2908 C   0  0  0  1  0  0  0  0  0  0  0  0
   17.8152    1.0711  -11.7862 C   0  0  0  1  0  0  0  0  0  0  0  0
   17.6270    2.0811  -12.0851 H   0  0  0  1  0  0  0  0  0  0  0  0
   18.1726    0.5111  -12.6249 H   0  0  0  1  0  0  0  0  0  0  0  0
   16.6081   -1.0173  -11.0096 C   0  0  0  1  0  0  0  0  0  0  0  0
   17.0795   -1.1757  -10.0622 H   0  0  0  1  0  0  0  0  0  0  0  0
   17.1794   -1.4971  -11.7767 H   0  0  0  1  0  0  0  0  0  0  0  0
   15.6206   -1.4288  -10.9896 H   0  0  0  1  0  0  0  0  0  0  0  0
   18.8729    1.0633  -10.6945 C   0  0  0  1  0  0  0  0  0  0  0  0
   18.8606    0.1068  -10.2152 H   0  0  0  1  0  0  0  0  0  0  0  0
   18.6317    1.8234   -9.9811 H   0  0  0  1  0  0  0  0  0  0  0  0
   20.2524    1.3180  -11.2135 C   0  0  0  1  0  0  0  0  0  0  0  0
   20.5925    0.6782  -11.9595 H   0  0  0  1  0  0  0  0  0  0  0  0
   21.0905    2.2730  -10.8246 C   0  0  0  1  0  0  0  0  0  0  0  0
   20.9162    3.0724   -9.5661 C   0  0  0  1  0  0  0  0  0  0  0  0
   21.8378    3.0387   -9.0235 H   0  0  0  1  0  0  0  0  0  0  0  0
   20.1435    2.6117   -8.9868 H   0  0  0  1  0  0  0  0  0  0  0  0
   22.3092    2.6339  -11.6388 C   0  0  0  1  0  0  0  0  0  0  0  0
   22.1413    2.3806  -12.6647 H   0  0  0  1  0  0  0  0  0  0  0  0
   23.1560    2.0923  -11.2720 H   0  0  0  1  0  0  0  0  0  0  0  0
   22.4943    3.6846  -11.5567 H   0  0  0  1  0  0  0  0  0  0  0  0
   20.5439    4.5322   -9.7679 C   0  0  0  1  0  0  0  0  0  0  0  0
   19.7058    4.5814  -10.4312 H   0  0  0  1  0  0  0  0  0  0  0  0
   21.3776    5.0387  -10.2075 H   0  0  0  1  0  0  0  0  0  0  0  0
   20.1812    5.2309   -8.4848 C   0  0  0  1  0  0  0  0  0  0  0  0
   20.9012    5.2650   -7.7352 H   0  0  0  1  0  0  0  0  0  0  0  0
   19.0096    5.8074   -8.2386 C   0  0  0  1  0  0  0  0  0  0  0  0
   17.8745    5.8396   -9.2204 C   0  0  0  1  0  0  0  0  0  0  0  0
   16.9542    5.6810   -8.6981 H   0  0  0  1  0  0  0  0  0  0  0  0
   18.0135    5.0629   -9.9430 H   0  0  0  1  0  0  0  0  0  0  0  0
   18.7275    6.4851   -6.9297 C   0  0  0  1  0  0  0  0  0  0  0  0
   19.5330    6.2993   -6.2504 H   0  0  0  1  0  0  0  0  0  0  0  0
   17.8180    6.1003   -6.5179 H   0  0  0  1  0  0  0  0  0  0  0  0
   18.6303    7.5389   -7.0877 H   0  0  0  1  0  0  0  0  0  0  0  0
   17.8172    7.1880   -9.9387 C   0  0  0  1  0  0  0  0  0  0  0  0
   18.7547    7.3682  -10.4218 H   0  0  0  1  0  0  0  0  0  0  0  0
   17.6308    7.9599   -9.2215 H   0  0  0  1  0  0  0  0  0  0  0  0
   16.7276    7.1972  -10.9634 C   0  0  0  1  0  0  0  0  0  0  0  0
   15.7726    6.9269  -10.6528 H   0  0  0  1  0  0  0  0  0  0  0  0
   16.8889    7.5248  -12.2409 C   0  0  0  1  0  0  0  0  0  0  0  0
   15.8802    7.2251  -13.3114 C   0  0  0  1  0  0  0  0  0  0  0  0
   16.3022    7.5113  -14.2521 H   0  0  0  1  0  0  0  0  0  0  0  0
   15.0081    7.8139  -13.1173 H   0  0  0  1  0  0  0  0  0  0  0  0
   18.1225    8.2367  -12.7205 C   0  0  0  1  0  0  0  0  0  0  0  0
   17.7846    8.9199  -13.4715 H   0  0  0  1  0  0  0  0  0  0  0  0
   18.8190    7.5389  -13.1361 H   0  0  0  1  0  0  0  0  0  0  0  0
   18.5856    8.7665  -11.9144 H   0  0  0  1  0  0  0  0  0  0  0  0
   15.4508    5.7706  -13.4132 C   0  0  0  1  0  0  0  0  0  0  0  0
   15.0627    5.4629  -12.4648 H   0  0  0  1  0  0  0  0  0  0  0  0
   16.3081    5.1787  -13.6574 H   0  0  0  1  0  0  0  0  0  0  0  0
   14.3954    5.5395  -14.4603 C   0  0  0  1  0  0  0  0  0  0  0  0
   13.5378    5.0256  -14.1740 H   0  0  0  1  0  0  0  0  0  0  0  0
   14.4773    5.9431  -15.7236 C   0  0  0  1  0  0  0  0  0  0  0  0
   13.4095    5.6934  -16.7486 C   0  0  0  1  0  0  0  0  0  0  0  0
   13.3704    4.6487  -16.9765 H   0  0  0  1  0  0  0  0  0  0  0  0
   13.6336    6.2441  -17.6382 H   0  0  0  1  0  0  0  0  0  0  0  0
   12.4632    6.0095  -16.3618 H   0  0  0  1  0  0  0  0  0  0  0  0
   15.6787    6.7007  -16.2345 C   0  0  0  1  0  0  0  0  0  0  0  0
   16.1001    6.1292  -17.0349 H   0  0  0  1  0  0  0  0  0  0  0  0
   16.3977    6.8178  -15.4507 H   0  0  0  1  0  0  0  0  0  0  0  0
   15.3791    7.6640  -16.5911 H   0  0  0  1  0  0  0  0  0  0  0  0
   16.1361   -5.2332   -1.8923 C   0  0  0  1  0  0  0  0  0  0  0  0
   16.5105   -5.8099   -1.0725 H   0  0  0  1  0  0  0  0  0  0  0  0
   14.7975   -5.8026   -2.3441 C   0  0  0  1  0  0  0  0  0  0  0  0
   14.9300   -6.8074   -2.6872 H   0  0  0  1  0  0  0  0  0  0  0  0
   15.9612   -3.8758   -1.4794 O   0  0  0  1  0  0  0  0  0  0  0  0
   14.2604   -4.9334   -3.4856 C   0  0  0  1  0  0  0  0  0  0  0  0
   13.2626   -5.2449   -3.7142 H   0  0  0  1  0  0  0  0  0  0  0  0
   15.5851   -3.0185   -2.5683 C   0  0  0  1  0  0  0  0  0  0  0  0
   16.3266   -3.0756   -3.3376 H   0  0  0  1  0  0  0  0  0  0  0  0
   14.2407   -3.4569   -3.1296 C   0  0  0  1  0  0  0  0  0  0  0  0
   14.0252   -2.8870   -4.0092 H   0  0  0  1  0  0  0  0  0  0  0  0
   17.0619   -5.2851   -2.9716 O   0  0  0  1  0  0  0  0  0  0  0  0
   13.8751   -5.7889   -1.2530 O   0  0  0  1  0  0  0  0  0  0  0  0
   14.2073   -5.2139   -0.5597 H   0  0  0  1  0  0  0  0  0  0  0  0
   15.0938   -5.1179   -4.6348 O   0  0  0  1  0  0  0  0  0  0  0  0
   15.9998   -4.8899   -4.4136 H   0  0  0  1  0  0  0  0  0  0  0  0
   15.4812   -1.5959   -2.0730 C   0  0  0  1  0  0  0  0  0  0  0  0
   15.2972   -1.5973   -1.0190 H   0  0  0  1  0  0  0  0  0  0  0  0
   14.6757   -1.1017   -2.5749 H   0  0  0  1  0  0  0  0  0  0  0  0
   16.3972   -1.0807   -2.2743 H   0  0  0  1  0  0  0  0  0  0  0  0
   19.4145   -6.7226   -4.0283 C   0  0  0  1  0  0  0  0  0  0  0  0
   18.4553   -7.0736   -4.3470 H   0  0  0  1  0  0  0  0  0  0  0  0
   19.2897   -6.1204   -2.6316 C   0  0  0  1  0  0  0  0  0  0  0  0
   20.2602   -5.8438   -2.2762 H   0  0  0  1  0  0  0  0  0  0  0  0
   19.8865   -5.7494   -4.9512 O   0  0  0  1  0  0  0  0  0  0  0  0
   18.3960   -4.8830   -2.6796 C   0  0  0  1  0  0  0  0  0  0  0  0
   18.4220   -4.3968   -1.7267 H   0  0  0  1  0  0  0  0  0  0  0  0
   19.0054   -4.6237   -5.0891 C   0  0  0  1  0  0  0  0  0  0  0  0
   19.4080   -3.9438   -5.8106 H   0  0  0  1  0  0  0  0  0  0  0  0
   18.8625   -3.9102   -3.7432 C   0  0  0  1  0  0  0  0  0  0  0  0
   18.1472   -3.1200   -3.8368 H   0  0  0  1  0  0  0  0  0  0  0  0
   18.7049   -7.1038   -1.7323 N   0  0  0  1  0  0  0  0  0  0  0  0
   17.8136   -7.4463   -1.9530 H   0  0  0  1  0  0  0  0  0  0  0  0
   20.1283   -3.3654   -3.3614 O   0  0  0  1  0  0  0  0  0  0  0  0
   19.9418   -2.6380   -2.7634 H   0  0  0  1  0  0  0  0  0  0  0  0
   17.6564   -5.0996   -5.5468 C   0  0  0  1  0  0  0  0  0  0  0  0
   16.9604   -4.2869   -5.5389 H   0  0  0  1  0  0  0  0  0  0  0  0
   17.3050   -5.8771   -4.9012 H   0  0  0  1  0  0  0  0  0  0  0  0
   17.8056   -5.5973   -6.8687 O   0  0  0  1  0  0  0  0  0  0  0  0
   17.3379   -5.0087   -7.4657 H   0  0  0  1  0  0  0  0  0  0  0  0
   19.2905   -7.5740   -0.6305 C   0  0  0  1  0  0  0  0  0  0  0  0
   20.3286   -7.1011   -0.1698 O   0  0  0  1  0  0  0  0  0  0  0  0
   18.5951   -8.7447    0.0366 C   0  0  0  1  0  0  0  0  0  0  0  0
   19.3191   -9.5322    0.0146 H   0  0  0  1  0  0  0  0  0  0  0  0
   17.7166   -9.0229   -0.5072 H   0  0  0  1  0  0  0  0  0  0  0  0
   18.3296   -8.5028    1.0445 H   0  0  0  1  0  0  0  0  0  0  0  0
  1  2  1  0  0  0  0
  1  3  1  0  0  0  0
  1  4  1  0  0  0  0
  1 44  1  0  0  0  0
  3 20  1  0  0  0  0
  4  5  1  0  0  0  0
  4  6  1  0  0  0  0
  4  8  1  0  0  0  0
  6  7  1  0  0  0  0
  8  9  1  0  0  0  0
  8 10  1  0  0  0  0
  8 20  1  0  0  0  0
 10 11  1  0  0  0  0
 12 13  1  0  0  0  0
 12 14  1  0  0  0  0
 12 15  1  0  0  0  0
 12 17  1  0  0  0  0
 15 16  1  0  0  0  0
 17 18  1  0  0  0  0
 17 19  1  0  0  0  0
 17 20  1  0  0  0  0
 19 22  1  0  0  0  0
 20 21  1  0  0  0  0
 22 23  1  0  0  0  0
 22 24  1  0  0  0  0
 22 25  1  0  0  0  0
 24 42  1  0  0  0  0
 25 26  1  0  0  0  0
 25 27  1  0  0  0  0
 25 29  1  0  0  0  0
 27 28  1  0  0  0  0
 29 30  1  0  0  0  0
 29 31  1  0  0  0  0
 29 42  1  0  0  0  0
 31 32  1  0  0  0  0
 33 34  1  0  0  0  0
 33 35  1  0  0  0  0
 33 36  1  0  0  0  0
 33 38  1  0  0  0  0
 36 37  1  0  0  0  0
 38 39  1  0  0  0  0
 38 40  1  0  0  0  0
 38 42  1  0  0  0  0
 40 41  1  0  0  0  0
 42 43  1  0  0  0  0
 44194  1  0  0  0  0
 45 46  1  0  0  0  0
 45 54  1  0  0  0  0
 46 47  1  0  0  0  0
 46 48  1  0  0  0  0
 46 49  2  0  0  0  0
 47 50  1  0  0  0  0
 50 51  1  0  0  0  0
 50 52  1  0  0  0  0
 50 53  2  0  0  0  0
 51205  1  0  0  0  0
 54 55  1  0  0  0  0
 54 56  1  0  0  0  0
 54 57  1  0  0  0  0
 57 58  1  0  0  0  0
 57 59  2  0  0  0  0
 59 60  1  0  0  0  0
 59 64  1  0  0  0  0
 60 61  1  0  0  0  0
 60 62  1  0  0  0  0
 60 63  1  0  0  0  0
 64 65  1  0  0  0  0
 64 66  1  0  0  0  0
 64 67  1  0  0  0  0
 67 68  1  0  0  0  0
 67 69  1  0  0  0  0
 67 70  1  0  0  0  0
 70 71  1  0  0  0  0
 70 72  2  0  0  0  0
 72 73  1  0  0  0  0
 72 77  1  0  0  0  0
 73 74  1  0  0  0  0
 73 75  1  0  0  0  0
 73 76  1  0  0  0  0
 77 78  1  0  0  0  0
 77 79  1  0  0  0  0
 77 80  1  0  0  0  0
 80 81  1  0  0  0  0
 80 82  1  0  0  0  0
 80 83  1  0  0  0  0
 83 84  1  0  0  0  0
 83 85  2  0  0  0  0
 85 86  1  0  0  0  0
 85 89  1  0  0  0  0
 86 87  1  0  0  0  0
 86 88  1  0  0  0  0
 86 93  1  0  0  0  0
 89 90  1  0  0  0  0
 89 91  1  0  0  0  0
 89 92  1  0  0  0  0
 93 94  1  0  0  0  0
 93 95  1  0  0  0  0
 93 96  1  0  0  0  0
 96 97  1  0  0  0  0
 96 98  2  0  0  0  0
 98 99  1  0  0  0  0
 98102  1  0  0  0  0
 99100  1  0  0  0  0
 99101  1  0  0  0  0
 99106  1  0  0  0  0
102103  1  0  0  0  0
102104  1  0  0  0  0
102105  1  0  0  0  0
106107  1  0  0  0  0
106108  1  0  0  0  0
106109  1  0  0  0  0
109110  1  0  0  0  0
109111  2  0  0  0  0
111112  1  0  0  0  0
111115  1  0  0  0  0
112113  1  0  0  0  0
112114  1  0  0  0  0
112119  1  0  0  0  0
115116  1  0  0  0  0
115117  1  0  0  0  0
115118  1  0  0  0  0
119120  1  0  0  0  0
119121  1  0  0  0  0
119122  1  0  0  0  0
122123  1  0  0  0  0
122124  2  0  0  0  0
124125  1  0  0  0  0
124128  1  0  0  0  0
125126  1  0  0  0  0
125127  1  0  0  0  0
125132  1  0  0  0  0
128129  1  0  0  0  0
128130  1  0  0  0  0
128131  1  0  0  0  0
132133  1  0  0  0  0
132134  1  0  0  0  0
132135  1  0  0  0  0
135136  1  0  0  0  0
135137  2  0  0  0  0
137138  1  0  0  0  0
137141  1  0  0  0  0
138139  1  0  0  0  0
138140  1  0  0  0  0
138145  1  0  0  0  0
141142  1  0  0  0  0
141143  1  0  0  0  0
141144  1  0  0  0  0
145146  1  0  0  0  0
145147  1  0  0  0  0
145148  1  0  0  0  0
148149  1  0  0  0  0
148150  2  0  0  0  0
150151  1  0  0  0  0
150154  1  0  0  0  0
151152  1  0  0  0  0
151153  1  0  0  0  0
151158  1  0  0  0  0
154155  1  0  0  0  0
154156  1  0  0  0  0
154157  1  0  0  0  0
158159  1  0  0  0  0
158160  1  0  0  0  0
158161  1  0  0  0  0
161162  1  0  0  0  0
161163  2  0  0  0  0
163164  1  0  0  0  0
163167  1  0  0  0  0
164165  1  0  0  0  0
164166  1  0  0  0  0
164171  1  0  0  0  0
167168  1  0  0  0  0
167169  1  0  0  0  0
167170  1  0  0  0  0
171172  1  0  0  0  0
171173  1  0  0  0  0
171174  1  0  0  0  0
174175  1  0  0  0  0
174176  2  0  0  0  0
176177  1  0  0  0  0
176181  1  0  0  0  0
177178  1  0  0  0  0
177179  1  0  0  0  0
177180  1  0  0  0  0
181182  1  0  0  0  0
181183  1  0  0  0  0
181184  1  0  0  0  0
185186  1  0  0  0  0
185187  1  0  0  0  0
185189  1  0  0  0  0
185196  1  0  0  0  0
187188  1  0  0  0  0
187190  1  0  0  0  0
187197  1  0  0  0  0
189192  1  0  0  0  0
190191  1  0  0  0  0
190194  1  0  0  0  0
190199  1  0  0  0  0
192193  1  0  0  0  0
192194  1  0  0  0  0
192201  1  0  0  0  0
194195  1  0  0  0  0
196210  1  0  0  0  0
197198  1  0  0  0  0
199200  1  0  0  0  0
201202  1  0  0  0  0
201203  1  0  0  0  0
201204  1  0  0  0  0
205206  1  0  0  0  0
205207  1  0  0  0  0
205209  1  0  0  0  0
207208  1  0  0  0  0
207210  1  0  0  0  0
207216  1  0  0  0  0
209212  1  0  0  0  0
210211  1  0  0  0  0
210214  1  0  0  0  0
212213  1  0  0  0  0
212214  1  0  0  0  0
212220  1  0  0  0  0
214215  1  0  0  0  0
214218  1  0  0  0  0
216217  1  0  0  0  0
216225  1  0  0  0  0
218219  1  0  0  0  0
220221  1  0  0  0  0
220222  1  0  0  0  0
220223  1  0  0  0  0
223224  1  0  0  0  0
225226  2  0  0  0  0
225227  1  0  0  0  0
227228  1  0  0  0  0
227229  1  0  0  0  0
227230  1  0  0  0  0
M  BCL ATM C_TeTeTeTe H_S O_Te2Te2TeTe C_TeTeTeTe H_S O_Te2Te2TeTe H_S C_TeTeTeTe H_S O_Te2Te2TeTe H_S C_TeTeTeTe H_S H_S O_Te2Te2TeTe H_S C_TeTeTeTe H_S O_Te2Te2TeTe C_TeTeTeTe H_S C_TeTeTeTe H_S O_Te2Te2TeTe C_TeTeTeTe H_S O_Te2Te2TeTe H_S C_TeTeTeTe H_S O_Te2Te2TeTe H_S C_TeTeTeTe H_S H_S O_Te2Te2TeTe H_S C_TeTeTeTe H_S O_Te2Te2TeTe H_S C_TeTeTeTe H_S O_Te2Te2TeTe O_Tr2TrTrPi2 P_TeTeTeTePi O_Tr2TrTrPi2 O_Te2Te2TeTe O_Tr2Tr2TrPi P_TeTeTeTePi O_Tr2TrTrPi2 O_Te2Te2TeTe O_Tr2Tr2TrPi C_TeTeTeTe H_S H_S C_TrTrTrPi H_S C_TrTrTrPi C_TeTeTeTe H_S H_S H_S C_TeTeTeTe H_S H_S C_TeTeTeTe H_S H_S C_TrTrTrPi H_S C_TrTrTrPi C_TeTeTeTe H_S H_S H_S C_TeTeTeTe H_S H_S C_TeTeTeTe H_S H_S C_TrTrTrPi H_S C_TrTrTrPi C_TeTeTeTe H_S H_S C_TeTeTeTe H_S H_S H_S C_TeTeTeTe H_S H_S C_TrTrTrPi H_S C_TrTrTrPi C_TeTeTeTe H_S H_S C_TeTeTeTe H_S H_S H_S C_TeTeTeTe H_S H_S C_TrTrTrPi H_S C_TrTrTrPi C_TeTeTeTe H_S H_S C_TeTeTeTe H_S H_S H_S C_TeTeTeTe H_S H_S C_TrTrTrPi H_S C_TrTrTrPi C_TeTeTeTe H_S H_S C_TeTeTeTe H_S H_S H_S C_TeTeTeTe H_S H_S C_TrTrTrPi H_S C_TrTrTrPi C_TeTeTeTe H_S H_S C_TeTeTeTe H_S H_S H_S C_TeTeTeTe H_S H_S C_TrTrTrPi H_S C_TrTrTrPi C_TeTeTeTe H_S H_S C_TeTeTeTe H_S H_S H_S C_TeTeTeTe H_S H_S C_TrTrTrPi H_S C_TrTrTrPi C_TeTeTeTe H_S H_S C_TeTeTeTe H_S H_S H_S C_TeTeTeTe H_S H_S C_TrTrTrPi H_S C_TrTrTrPi C_TeTeTeTe H_S H_S H_S C_TeTeTeTe H_S H_S H_S C_TeTeTeTe H_S C_TeTeTeTe H_S O_Te2Te2TeTe C_TeTeTeTe H_S C_TeTeTeTe H_S C_TeTeTeTe H_S O_Te2Te2TeTe O_Te2Te2TeTe H_S O_Te2Te2TeTe H_S C_TeTeTeTe H_S H_S H_S C_TeTeTeTe H_S C_TeTeTeTe H_S O_Te2Te2TeTe C_TeTeTeTe H_S C_TeTeTeTe H_S C_TeTeTeTe H_S N_TrTrTrPi2 H_S O_Te2Te2TeTe H_S C_TeTeTeTe H_S H_S O_Te2Te2TeTe H_S C_TrTrTrPi O_Tr2Tr2TrPi C_TeTeTeTe H_S H_S H_S
M  BCL BND NonConjugatedSingleBond NonConjugatedSingleBondInRing NonConjugatedSingleBondInRing NonConjugatedSingleBond NonConjugatedSingleBondInRing NonConjugatedSingleBond NonConjugatedSingleBond NonConjugatedSingleBondInRing NonConjugatedSingleBond NonConjugatedSingleBond NonConjugatedSingleBond NonConjugatedSingleBondInRing NonConjugatedSingleBond NonConjugatedSingleBond NonConjugatedSingleBond NonConjugatedSingleBond NonConjugatedSingleBond NonConjugatedSingleBond NonConjugatedSingleBond NonConjugatedSingleBond NonConjugatedSingleBond NonConjugatedSingleBond NonConjugatedSingleBond NonConjugatedSingleBond NonConjugatedSingleBondInRing NonConjugatedSingleBondInRing NonConjugatedSingleBondInRing NonConjugatedSingleBond NonConjugatedSingleBond NonConjugatedSingleBondInRing NonConjugatedSingleBond NonConjugatedSingleBond NonConjugatedSingleBond NonConjugatedSingleBondInRing NonConjugatedSingleBond NonConjugatedSingleBond NonConjugatedSingleBond NonConjugatedSingleBond NonConjugatedSingleBond NonConjugatedSingleBond NonConjugatedSingleBond NonConjugatedSingleBond NonConjugatedSingleBond NonConjugatedSingleBond NonConjugatedSingleBond NonConjugatedSingleBond ConjugatedSingleBond NonConjugatedSingleBond ConjugatedSingleBond ConjugatedSingleBond ConjugatedDoubleBond ConjugatedSingleBond ConjugatedSingleBond ConjugatedSingleBond ConjugatedDoubleBond NonConjugatedSingleBond NonConjugatedSingleBond NonConjugatedSingleBond NonConjugatedSingleBond NonConjugatedSingleBond ConjugatedDoubleBond NonConjugatedSingleBond NonConjugatedSingleBond NonConjugatedSingleBond NonConjugatedSingleBond NonConjugatedSingleBond NonConjugatedSingleBond NonConjugatedSingleBond NonConjugatedSingleBond NonConjugatedSingleBond NonConjugatedSingleBond NonConjugatedSingleBond NonConjugatedSingleBond ConjugatedDoubleBond NonConjugatedSingleBond NonConjugatedSingleBond NonConjugatedSingleBond NonConjugatedSingleBond NonConjugatedSingleBond NonConjugatedSingleBond NonConjugatedSingleBond NonConjugatedSingleBond NonConjugatedSingleBond NonConjugatedSingleBond NonConjugatedSingleBond NonConjugatedSingleBond ConjugatedDoubleBond NonConjugatedSingleBond NonConjugatedSingleBond NonConjugatedSingleBond NonConjugatedSingleBond NonConjugatedSingleBond NonConjugatedSingleBond NonConjugatedSingleBond NonConjugatedSingleBond NonConjugatedSingleBond NonConjugatedSingleBond NonConjugatedSingleBond NonConjugatedSingleBond ConjugatedDoubleBond NonConjugatedSingleBond NonConjugatedSingleBond NonConjugatedSingleBond NonConjugatedSingleBond NonConjugatedSingleBond NonConjugatedSingleBond NonConjugatedSingleBond NonConjugatedSingleBond NonConjugatedSingleBond NonConjugatedSingleBond NonConjugatedSingleBond NonConjugatedSingleBond ConjugatedDoubleBond NonConjugatedSingleBond NonConjugatedSingleBond NonConjugatedSingleBond NonConjugatedSingleBond NonConjugatedSingleBond NonConjugatedSingleBond NonConjugatedSingleBond NonConjugatedSingleBond NonConjugatedSingleBond NonConjugatedSingleBond NonConjugatedSingleBond NonConjugatedSingleBond ConjugatedDoubleBond NonConjugatedSingleBond NonConjugatedSingleBond NonConjugatedSingleBond NonConjugatedSingleBond NonConjugatedSingleBond NonConjugatedSingleBond NonConjugatedSingleBond NonConjugatedSingleBond NonConjugatedSingleBond NonConjugatedSingleBond NonConjugatedSingleBond NonConjugatedSingleBond ConjugatedDoubleBond NonConjugatedSingleBond NonConjugatedSingleBond NonConjugatedSingleBond NonConjugatedSingleBond NonConjugatedSingleBond NonConjugatedSingleBond NonConjugatedSingleBond NonConjugatedSingleBond NonConjugatedSingleBond NonConjugatedSingleBond NonConjugatedSingleBond NonConjugatedSingleBond ConjugatedDoubleBond NonConjugatedSingleBond NonConjugatedSingleBond NonConjugatedSingleBond NonConjugatedSingleBond NonConjugatedSingleBond NonConjugatedSingleBond NonConjugatedSingleBond NonConjugatedSingleBond NonConjugatedSingleBond NonConjugatedSingleBond NonConjugatedSingleBond NonConjugatedSingleBond ConjugatedDoubleBond NonConjugatedSingleBond NonConjugatedSingleBond NonConjugatedSingleBond NonConjugatedSingleBond NonConjugatedSingleBond NonConjugatedSingleBond NonConjugatedSingleBond NonConjugatedSingleBond NonConjugatedSingleBond NonConjugatedSingleBond NonConjugatedSingleBond NonConjugatedSingleBond ConjugatedDoubleBond NonConjugatedSingleBond NonConjugatedSingleBond NonConjugatedSingleBond NonConjugatedSingleBond NonConjugatedSingleBond NonConjugatedSingleBond NonConjugatedSingleBond NonConjugatedSingleBond NonConjugatedSingleBond NonConjugatedSingleBondInRing NonConjugatedSingleBondInRing NonConjugatedSingleBond NonConjugatedSingleBond NonConjugatedSingleBondInRing NonConjugatedSingleBond NonConjugatedSingleBondInRing NonConjugatedSingleBond NonConjugatedSingleBondInRing NonConjugatedSingleBond NonConjugatedSingleBond NonConjugatedSingleBondInRing NonConjugatedSingleBond NonConjugatedSingleBond NonConjugatedSingleBond NonConjugatedSingleBond NonConjugatedSingleBond NonConjugatedSingleBond NonConjugatedSingleBond NonConjugatedSingleBond NonConjugatedSingleBond NonConjugatedSingleBondInRing NonConjugatedSingleBondInRing NonConjugatedSingleBond NonConjugatedSingleBondInRing NonConjugatedSingleBond NonConjugatedSingleBondInRing NonConjugatedSingleBond NonConjugatedSingleBondInRing NonConjugatedSingleBond NonConjugatedSingleBondInRing NonConjugatedSingleBond NonConjugatedSingleBond NonConjugatedSingleBond NonConjugatedSingleBond AmideSingleBond NonConjugatedSingleBond NonConjugatedSingleBond NonConjugatedSingleBond NonConjugatedSingleBond NonConjugatedSingleBond ConjugatedDoubleBond NonConjugatedSingleBond NonConjugatedSingleBond NonConjugatedSingleBond NonConjugatedSingleBond
M  BCL CHI   1   R   4   R   8   R  17   S  20   R  22   S  25   R  29   S  38   S  42   R  46   R  50   S 185   R 187   S 190   S 192   R 194   R 205   R 207   S 210   R 212   S 214   S
M  BCL DBI - - E E E E E E E E Z - -
M  END
> <ConfClashScore>
0.00854476 

> <ConfOneFourInteractionScore>
-0.977669 

> <ConfScore>
1.01668 

> <ConfScorePBest>
0.0098455 

> <ConfTolerance>
4.05543 

$$$$
L05.****
  PyMOL2.5          3D                             0

230233  0  0  0  0  0  0  0  0999 V2000
   12.0616   -2.7754   -2.7719 C   0  0  0  1  0  0  0  0  0  0  0  0
   11.2472   -3.1429   -2.1831 H   0  0  0  1  0  0  0  0  0  0  0  0
   11.9687   -3.2662   -4.1370 O   0  0  0  1  0  0  0  0  0  0  0  0
   11.9907   -1.2543   -2.8985 C   0  0  0  1  0  0  0  0  0  0  0  0
   12.5399   -0.7714   -2.1174 H   0  0  0  1  0  0  0  0  0  0  0  0
   10.6390   -0.7927   -2.8867 O   0  0  0  1  0  0  0  0  0  0  0  0
   10.0448   -1.5381   -2.9999 H   0  0  0  1  0  0  0  0  0  0  0  0
   12.6358   -1.0325   -4.2423 C   0  0  0  1  0  0  0  0  0  0  0  0
   12.3344   -0.0978   -4.6669 H   0  0  0  1  0  0  0  0  0  0  0  0
   14.0603   -1.0749   -4.1451 O   0  0  0  1  0  0  0  0  0  0  0  0
   14.3472   -0.5343   -3.4055 H   0  0  0  1  0  0  0  0  0  0  0  0
    9.8977   -3.0928   -5.9820 C   0  0  0  1  0  0  0  0  0  0  0  0
    9.0017   -2.7646   -6.4662 H   0  0  0  1  0  0  0  0  0  0  0  0
   10.4515   -3.7239   -6.6453 H   0  0  0  1  0  0  0  0  0  0  0  0
    9.5332   -3.8547   -4.8512 O   0  0  0  1  0  0  0  0  0  0  0  0
    9.3576   -4.7600   -5.1178 H   0  0  0  1  0  0  0  0  0  0  0  0
   10.7571   -1.8523   -5.6694 C   0  0  0  1  0  0  0  0  0  0  0  0
   10.2164   -1.2085   -5.0076 H   0  0  0  1  0  0  0  0  0  0  0  0
   10.9316   -1.2385   -6.9412 O   0  0  0  1  0  0  0  0  0  0  0  0
   12.1056   -2.2008   -5.0536 C   0  0  0  1  0  0  0  0  0  0  0  0
   12.7957   -2.4612   -5.8288 H   0  0  0  1  0  0  0  0  0  0  0  0
   10.9830    0.1577   -6.8397 C   0  0  0  1  0  0  0  0  0  0  0  0
   10.3050    0.4858   -6.0796 H   0  0  0  1  0  0  0  0  0  0  0  0
   12.3359    0.6001   -6.5446 O   0  0  0  1  0  0  0  0  0  0  0  0
   10.6437    0.8076   -8.1804 C   0  0  0  1  0  0  0  0  0  0  0  0
    9.5957    1.0066   -8.2638 H   0  0  0  1  0  0  0  0  0  0  0  0
   11.0598   -0.0021   -9.2681 O   0  0  0  1  0  0  0  0  0  0  0  0
   11.0998   -0.9194   -8.9877 H   0  0  0  1  0  0  0  0  0  0  0  0
   11.4418    2.0838   -8.1082 C   0  0  0  1  0  0  0  0  0  0  0  0
   10.9370    2.8235   -7.5226 H   0  0  0  1  0  0  0  0  0  0  0  0
   11.7022    2.6033   -9.4089 O   0  0  0  1  0  0  0  0  0  0  0  0
   12.1217    1.9271   -9.9460 H   0  0  0  1  0  0  0  0  0  0  0  0
   14.4808    2.3141   -5.7580 C   0  0  0  1  0  0  0  0  0  0  0  0
   14.0896    2.1205   -4.7811 H   0  0  0  1  0  0  0  0  0  0  0  0
   14.9178    1.4202   -6.1514 H   0  0  0  1  0  0  0  0  0  0  0  0
   15.4720    3.3282   -5.6772 O   0  0  0  1  0  0  0  0  0  0  0  0
   15.1219    4.1477   -6.0341 H   0  0  0  1  0  0  0  0  0  0  0  0
   13.3535    2.7711   -6.6729 C   0  0  0  1  0  0  0  0  0  0  0  0
   13.7724    3.4447   -7.3910 H   0  0  0  1  0  0  0  0  0  0  0  0
   12.3816    3.4692   -5.8989 O   0  0  0  1  0  0  0  0  0  0  0  0
   12.3762    4.3955   -6.1511 H   0  0  0  1  0  0  0  0  0  0  0  0
   12.7223    1.6281   -7.4322 C   0  0  0  1  0  0  0  0  0  0  0  0
   13.4152    1.2551   -8.1572 H   0  0  0  1  0  0  0  0  0  0  0  0
   13.2930   -3.1721   -2.1795 O   0  0  0  1  0  0  0  0  0  0  0  0
   19.4236  -10.0779   -9.0882 O   0  0  0  1  0  0  0  0  0  0  0  0
   19.2517   -8.7569   -8.2347 P   0  0  0  1  0  0  0  0  0  0  0  0
   18.4362   -9.2538   -6.9516 O   0  0  0  1  0  0  0  0  0  0  0  0
   18.3158   -7.9136   -9.0141 O   0  0  0  0  0  0  0  0  0  0  0  0
   20.5622   -8.2100   -7.8372 O   0  0  0  1  0  0  0  0  0  0  0  0
   18.8702  -10.0300   -5.6481 P   0  0  0  1  0  0  0  0  0  0  0  0
   18.5118   -8.9747   -4.5373 O   0  0  0  1  0  0  0  0  0  0  0  0
   20.3280  -10.4118   -5.7061 O   0  0  0  0  0  0  0  0  0  0  0  0
   17.9080  -11.1272   -5.5378 O   0  0  0  1  0  0  0  0  0  0  0  0
   18.2379  -10.8161   -9.4704 C   0  0  0  1  0  0  0  0  0  0  0  0
   17.3608  -10.2388   -9.2643 H   0  0  0  1  0  0  0  0  0  0  0  0
   18.1903  -11.7414   -8.9352 H   0  0  0  1  0  0  0  0  0  0  0  0
   18.3531  -11.0753  -10.9437 C   0  0  0  1  0  0  0  0  0  0  0  0
   19.3140  -11.0715  -11.3414 H   0  0  0  1  0  0  0  0  0  0  0  0
   17.3563  -11.3101  -11.7992 C   0  0  0  1  0  0  0  0  0  0  0  0
   17.6095  -11.4285  -13.2741 C   0  0  0  1  0  0  0  0  0  0  0  0
   17.3494  -12.4128  -13.6032 H   0  0  0  1  0  0  0  0  0  0  0  0
   18.6451  -11.2480  -13.4735 H   0  0  0  1  0  0  0  0  0  0  0  0
   17.0144  -10.7090  -13.7967 H   0  0  0  1  0  0  0  0  0  0  0  0
   15.9402  -11.4654  -11.3207 C   0  0  0  1  0  0  0  0  0  0  0  0
   15.9579  -11.7267  -10.2833 H   0  0  0  1  0  0  0  0  0  0  0  0
   15.4763  -12.2515  -11.8791 H   0  0  0  1  0  0  0  0  0  0  0  0
   15.1134  -10.2008  -11.4870 C   0  0  0  1  0  0  0  0  0  0  0  0
   15.2596   -9.8133  -12.4736 H   0  0  0  1  0  0  0  0  0  0  0  0
   15.4325   -9.4759  -10.7676 H   0  0  0  1  0  0  0  0  0  0  0  0
   13.6595  -10.4871  -11.2831 C   0  0  0  1  0  0  0  0  0  0  0  0
   13.3257  -11.4261  -11.5806 H   0  0  0  1  0  0  0  0  0  0  0  0
   12.7482   -9.6719  -10.7632 C   0  0  0  1  0  0  0  0  0  0  0  0
   11.3012  -10.0392  -10.5928 C   0  0  0  1  0  0  0  0  0  0  0  0
   11.0739  -10.1211   -9.5505 H   0  0  0  1  0  0  0  0  0  0  0  0
   11.1124  -10.9763  -11.0735 H   0  0  0  1  0  0  0  0  0  0  0  0
   10.6870   -9.2818  -11.0332 H   0  0  0  1  0  0  0  0  0  0  0  0
   13.1048   -8.2913  -10.2966 C   0  0  0  1  0  0  0  0  0  0  0  0
   14.1474   -8.1301  -10.4752 H   0  0  0  1  0  0  0  0  0  0  0  0
   12.9078   -8.2251   -9.2469 H   0  0  0  1  0  0  0  0  0  0  0  0
   12.3182   -7.2012  -11.0061 C   0  0  0  1  0  0  0  0  0  0  0  0
   12.0196   -6.4712  -10.2831 H   0  0  0  1  0  0  0  0  0  0  0  0
   11.4494   -7.6416  -11.4490 H   0  0  0  1  0  0  0  0  0  0  0  0
   13.1001   -6.5186  -12.0737 C   0  0  0  1  0  0  0  0  0  0  0  0
   13.4430   -5.5497  -11.9146 H   0  0  0  1  0  0  0  0  0  0  0  0
   13.3681   -7.1241  -13.2257 C   0  0  0  1  0  0  0  0  0  0  0  0
   12.6368   -8.3669  -13.6430 C   0  0  0  1  0  0  0  0  0  0  0  0
   12.8511   -9.1415  -12.9367 H   0  0  0  1  0  0  0  0  0  0  0  0
   12.9868   -8.6592  -14.6109 H   0  0  0  1  0  0  0  0  0  0  0  0
   14.4015   -6.6437  -14.2053 C   0  0  0  1  0  0  0  0  0  0  0  0
   13.9167   -6.2891  -15.0908 H   0  0  0  1  0  0  0  0  0  0  0  0
   15.0567   -7.4514  -14.4569 H   0  0  0  1  0  0  0  0  0  0  0  0
   14.9670   -5.8488  -13.7658 H   0  0  0  1  0  0  0  0  0  0  0  0
   11.1302   -8.1768  -13.7104 C   0  0  0  1  0  0  0  0  0  0  0  0
   10.9193   -7.4894  -14.5028 H   0  0  0  1  0  0  0  0  0  0  0  0
   10.8083   -7.7586  -12.7796 H   0  0  0  1  0  0  0  0  0  0  0  0
   10.3399   -9.4173  -13.9551 C   0  0  0  1  0  0  0  0  0  0  0  0
   10.6970  -10.0268  -14.7184 H   0  0  0  1  0  0  0  0  0  0  0  0
    9.2477   -9.8591  -13.3429 C   0  0  0  1  0  0  0  0  0  0  0  0
    8.6149   -9.0868  -12.2201 C   0  0  0  1  0  0  0  0  0  0  0  0
    9.3711   -8.5000  -11.7418 H   0  0  0  1  0  0  0  0  0  0  0  0
    8.2045   -9.7818  -11.5177 H   0  0  0  1  0  0  0  0  0  0  0  0
    8.5491  -11.1393  -13.6965 C   0  0  0  1  0  0  0  0  0  0  0  0
    7.5984  -10.9181  -14.1350 H   0  0  0  1  0  0  0  0  0  0  0  0
    8.4060  -11.7234  -12.8115 H   0  0  0  1  0  0  0  0  0  0  0  0
    9.1445  -11.6891  -14.3950 H   0  0  0  1  0  0  0  0  0  0  0  0
    7.5054   -8.1587  -12.6870 C   0  0  0  1  0  0  0  0  0  0  0  0
    7.8862   -7.5417  -13.4739 H   0  0  0  1  0  0  0  0  0  0  0  0
    7.2067   -7.5439  -11.8638 H   0  0  0  1  0  0  0  0  0  0  0  0
    6.2964   -8.8955  -13.1982 C   0  0  0  1  0  0  0  0  0  0  0  0
    6.4671   -9.6163  -13.9282 H   0  0  0  1  0  0  0  0  0  0  0  0
    5.0334   -8.7247  -12.8175 C   0  0  0  1  0  0  0  0  0  0  0  0
    4.5569   -7.7455  -11.7843 C   0  0  0  1  0  0  0  0  0  0  0  0
    5.4021   -7.4017  -11.2255 H   0  0  0  1  0  0  0  0  0  0  0  0
    3.8753   -8.2464  -11.1291 H   0  0  0  1  0  0  0  0  0  0  0  0
    3.9554   -9.5609  -13.4475 C   0  0  0  1  0  0  0  0  0  0  0  0
    4.1769  -10.5976  -13.3025 H   0  0  0  1  0  0  0  0  0  0  0  0
    3.9072   -9.3499  -14.4954 H   0  0  0  1  0  0  0  0  0  0  0  0
    3.0144   -9.3306  -12.9932 H   0  0  0  1  0  0  0  0  0  0  0  0
    3.8523   -6.5406  -12.3862 C   0  0  0  1  0  0  0  0  0  0  0  0
    2.9866   -6.8812  -12.9148 H   0  0  0  1  0  0  0  0  0  0  0  0
    4.5218   -6.0605  -13.0690 H   0  0  0  1  0  0  0  0  0  0  0  0
    3.4224   -5.5443  -11.3634 C   0  0  0  1  0  0  0  0  0  0  0  0
    2.6607   -5.8604  -10.7298 H   0  0  0  1  0  0  0  0  0  0  0  0
    3.8683   -4.3124  -11.1417 C   0  0  0  1  0  0  0  0  0  0  0  0
    5.1537   -3.7769  -11.7060 C   0  0  0  1  0  0  0  0  0  0  0  0
    5.1481   -3.9245  -12.7658 H   0  0  0  1  0  0  0  0  0  0  0  0
    5.9679   -4.3205  -11.2740 H   0  0  0  1  0  0  0  0  0  0  0  0
    3.1030   -3.3415  -10.2911 C   0  0  0  1  0  0  0  0  0  0  0  0
    3.6573   -3.1332   -9.3999 H   0  0  0  1  0  0  0  0  0  0  0  0
    2.1557   -3.7654  -10.0307 H   0  0  0  1  0  0  0  0  0  0  0  0
    2.9502   -2.4335  -10.8362 H   0  0  0  1  0  0  0  0  0  0  0  0
    5.3567   -2.2971  -11.4247 C   0  0  0  1  0  0  0  0  0  0  0  0
    5.4004   -2.1547  -10.3651 H   0  0  0  1  0  0  0  0  0  0  0  0
    4.5235   -1.7571  -11.8236 H   0  0  0  1  0  0  0  0  0  0  0  0
    6.6111   -1.7522  -12.0304 C   0  0  0  1  0  0  0  0  0  0  0  0
    7.4953   -2.2414  -11.7843 H   0  0  0  1  0  0  0  0  0  0  0  0
    6.7184   -0.7109  -12.8488 C   0  0  0  1  0  0  0  0  0  0  0  0
    5.5418    0.0519  -13.3848 C   0  0  0  1  0  0  0  0  0  0  0  0
    5.6945    1.0932  -13.1918 H   0  0  0  1  0  0  0  0  0  0  0  0
    4.6606   -0.2801  -12.8766 H   0  0  0  1  0  0  0  0  0  0  0  0
    8.0573   -0.2075  -13.3095 C   0  0  0  1  0  0  0  0  0  0  0  0
    7.9431    0.3136  -14.2371 H   0  0  0  1  0  0  0  0  0  0  0  0
    8.7218   -1.0351  -13.4452 H   0  0  0  1  0  0  0  0  0  0  0  0
    8.4603    0.4574  -12.5744 H   0  0  0  1  0  0  0  0  0  0  0  0
    5.3394   -0.1387  -14.8791 C   0  0  0  1  0  0  0  0  0  0  0  0
    6.1778    0.2942  -15.3836 H   0  0  0  1  0  0  0  0  0  0  0  0
    4.4467    0.3800  -15.1601 H   0  0  0  1  0  0  0  0  0  0  0  0
    5.2097   -1.5659  -15.3353 C   0  0  0  1  0  0  0  0  0  0  0  0
    4.6487   -2.2113  -14.7433 H   0  0  0  1  0  0  0  0  0  0  0  0
    5.7580   -2.0635  -16.4373 C   0  0  0  1  0  0  0  0  0  0  0  0
    6.5851   -1.2070  -17.3538 C   0  0  0  1  0  0  0  0  0  0  0  0
    6.6989   -0.2525  -16.8839 H   0  0  0  1  0  0  0  0  0  0  0  0
    6.0377   -1.0930  -18.2661 H   0  0  0  1  0  0  0  0  0  0  0  0
    5.6146   -3.4924  -16.8727 C   0  0  0  1  0  0  0  0  0  0  0  0
    4.6536   -3.6344  -17.3213 H   0  0  0  1  0  0  0  0  0  0  0  0
    5.7096   -4.1353  -16.0227 H   0  0  0  1  0  0  0  0  0  0  0  0
    6.3783   -3.7265  -17.5846 H   0  0  0  1  0  0  0  0  0  0  0  0
    7.9750   -1.7041  -17.7165 C   0  0  0  1  0  0  0  0  0  0  0  0
    8.3549   -1.1010  -18.5145 H   0  0  0  1  0  0  0  0  0  0  0  0
    7.8990   -2.7205  -18.0419 H   0  0  0  1  0  0  0  0  0  0  0  0
    8.9429   -1.6406  -16.5653 C   0  0  0  1  0  0  0  0  0  0  0  0
    9.1016   -2.5262  -16.0437 H   0  0  0  1  0  0  0  0  0  0  0  0
    9.6159   -0.5766  -16.1437 C   0  0  0  1  0  0  0  0  0  0  0  0
   10.5540   -0.6592  -14.9747 C   0  0  0  1  0  0  0  0  0  0  0  0
   10.6755   -1.6881  -14.7076 H   0  0  0  1  0  0  0  0  0  0  0  0
   10.1228   -0.1255  -14.1537 H   0  0  0  1  0  0  0  0  0  0  0  0
    9.5137    0.7842  -16.7730 C   0  0  0  1  0  0  0  0  0  0  0  0
   10.5212    1.0816  -16.9766 H   0  0  0  1  0  0  0  0  0  0  0  0
    9.0493    1.4737  -16.0993 H   0  0  0  1  0  0  0  0  0  0  0  0
    8.9479    0.7351  -17.6799 H   0  0  0  1  0  0  0  0  0  0  0  0
   11.9243   -0.0705  -15.2682 C   0  0  0  1  0  0  0  0  0  0  0  0
   12.3929    0.1810  -14.3398 H   0  0  0  1  0  0  0  0  0  0  0  0
   11.7960    0.8150  -15.8550 H   0  0  0  1  0  0  0  0  0  0  0  0
   12.8182   -1.0100  -16.0135 C   0  0  0  1  0  0  0  0  0  0  0  0
   12.7021   -2.0226  -15.8068 H   0  0  0  1  0  0  0  0  0  0  0  0
   13.7446   -0.6912  -16.9111 C   0  0  0  1  0  0  0  0  0  0  0  0
   13.9824    0.7073  -17.4019 C   0  0  0  1  0  0  0  0  0  0  0  0
   13.1103    1.0600  -17.9117 H   0  0  0  1  0  0  0  0  0  0  0  0
   14.8148    0.7123  -18.0743 H   0  0  0  1  0  0  0  0  0  0  0  0
   14.1917    1.3463  -16.5697 H   0  0  0  1  0  0  0  0  0  0  0  0
   14.6485   -1.7363  -17.5187 C   0  0  0  1  0  0  0  0  0  0  0  0
   14.0882   -2.2410  -18.2778 H   0  0  0  1  0  0  0  0  0  0  0  0
   14.9578   -2.4334  -16.7681 H   0  0  0  1  0  0  0  0  0  0  0  0
   15.5097   -1.2695  -17.9491 H   0  0  0  1  0  0  0  0  0  0  0  0
   16.1445   -5.0882   -1.7309 C   0  0  0  1  0  0  0  0  0  0  0  0
   16.4498   -5.6224   -0.8555 H   0  0  0  1  0  0  0  0  0  0  0  0
   14.8603   -5.6832   -2.2452 C   0  0  0  1  0  0  0  0  0  0  0  0
   15.0330   -6.6984   -2.5356 H   0  0  0  1  0  0  0  0  0  0  0  0
   15.9833   -3.7165   -1.4025 O   0  0  0  1  0  0  0  0  0  0  0  0
   14.3627   -4.9029   -3.4361 C   0  0  0  1  0  0  0  0  0  0  0  0
   13.3744   -5.2302   -3.6831 H   0  0  0  1  0  0  0  0  0  0  0  0
   15.6514   -2.9388   -2.5502 C   0  0  0  1  0  0  0  0  0  0  0  0
   16.4221   -3.0413   -3.2854 H   0  0  0  1  0  0  0  0  0  0  0  0
   14.3333   -3.4251   -3.1273 C   0  0  0  1  0  0  0  0  0  0  0  0
   14.1322   -2.8874   -4.0303 H   0  0  0  1  0  0  0  0  0  0  0  0
   17.1457   -5.2096   -2.7347 O   0  0  0  1  0  0  0  0  0  0  0  0
   13.8752   -5.6440   -1.2110 O   0  0  0  1  0  0  0  0  0  0  0  0
   13.0771   -6.0845   -1.5118 H   0  0  0  1  0  0  0  0  0  0  0  0
   15.2276   -5.1322   -4.5389 O   0  0  0  1  0  0  0  0  0  0  0  0
   15.9877   -5.6421   -4.2494 H   0  0  0  1  0  0  0  0  0  0  0  0
   15.5225   -1.4877   -2.1544 C   0  0  0  1  0  0  0  0  0  0  0  0
   16.2418   -1.2591   -1.3960 H   0  0  0  1  0  0  0  0  0  0  0  0
   14.5375   -1.3073   -1.7774 H   0  0  0  1  0  0  0  0  0  0  0  0
   15.6967   -0.8683   -3.0093 H   0  0  0  1  0  0  0  0  0  0  0  0
   19.2997   -7.8228   -4.3553 C   0  0  0  1  0  0  0  0  0  0  0  0
   19.9558   -7.7030   -5.1920 H   0  0  0  1  0  0  0  0  0  0  0  0
   18.3720   -6.6003   -4.2797 C   0  0  0  1  0  0  0  0  0  0  0  0
   17.6633   -6.6531   -5.0796 H   0  0  0  1  0  0  0  0  0  0  0  0
   20.0756   -7.9884   -3.1970 O   0  0  0  1  0  0  0  0  0  0  0  0
   17.6040   -6.5433   -2.9295 C   0  0  0  1  0  0  0  0  0  0  0  0
   16.7645   -7.2035   -2.9945 H   0  0  0  1  0  0  0  0  0  0  0  0
   19.2794   -8.1362   -2.0127 C   0  0  0  1  0  0  0  0  0  0  0  0
   18.6457   -8.9900   -2.1322 H   0  0  0  1  0  0  0  0  0  0  0  0
   18.4204   -6.9387   -1.7316 C   0  0  0  1  0  0  0  0  0  0  0  0
   19.0496   -6.1185   -1.4555 H   0  0  0  1  0  0  0  0  0  0  0  0
   19.1712   -5.3934   -4.4182 N   0  0  0  1  0  0  0  0  0  0  0  0
   19.9123   -5.2241   -3.7998 H   0  0  0  1  0  0  0  0  0  0  0  0
   17.5364   -7.2471   -0.6508 O   0  0  0  1  0  0  0  0  0  0  0  0
   16.6984   -6.8264   -0.8567 H   0  0  0  1  0  0  0  0  0  0  0  0
   20.1967   -8.3523   -0.8432 C   0  0  0  1  0  0  0  0  0  0  0  0
   20.7907   -9.2280   -1.0019 H   0  0  0  1  0  0  0  0  0  0  0  0
   19.6243   -8.4666    0.0536 H   0  0  0  1  0  0  0  0  0  0  0  0
   21.0369   -7.2067   -0.7411 O   0  0  0  1  0  0  0  0  0  0  0  0
   21.5571   -7.1433   -1.5454 H   0  0  0  1  0  0  0  0  0  0  0  0
   18.8972   -4.5148   -5.3868 C   0  0  0  1  0  0  0  0  0  0  0  0
   17.9375   -4.6254   -6.1319 O   0  0  0  1  0  0  0  0  0  0  0  0
   19.8610   -3.3511   -5.5125 C   0  0  0  1  0  0  0  0  0  0  0  0
   20.2240   -3.4132   -6.5172 H   0  0  0  1  0  0  0  0  0  0  0  0
   20.6649   -3.4482   -4.8131 H   0  0  0  1  0  0  0  0  0  0  0  0
   19.3560   -2.4220   -5.3494 H   0  0  0  1  0  0  0  0  0  0  0  0
  1  2  1  0  0  0  0
  1  3  1  0  0  0  0
  1  4  1  0  0  0  0
  1 44  1  0  0  0  0
  3 20  1  0  0  0  0
  4  5  1  0  0  0  0
  4  6  1  0  0  0  0
  4  8  1  0  0  0  0
  6  7  1  0  0  0  0
  8  9  1  0  0  0  0
  8 10  1  0  0  0  0
  8 20  1  0  0  0  0
 10 11  1  0  0  0  0
 12 13  1  0  0  0  0
 12 14  1  0  0  0  0
 12 15  1  0  0  0  0
 12 17  1  0  0  0  0
 15 16  1  0  0  0  0
 17 18  1  0  0  0  0
 17 19  1  0  0  0  0
 17 20  1  0  0  0  0
 19 22  1  0  0  0  0
 20 21  1  0  0  0  0
 22 23  1  0  0  0  0
 22 24  1  0  0  0  0
 22 25  1  0  0  0  0
 24 42  1  0  0  0  0
 25 26  1  0  0  0  0
 25 27  1  0  0  0  0
 25 29  1  0  0  0  0
 27 28  1  0  0  0  0
 29 30  1  0  0  0  0
 29 31  1  0  0  0  0
 29 42  1  0  0  0  0
 31 32  1  0  0  0  0
 33 34  1  0  0  0  0
 33 35  1  0  0  0  0
 33 36  1  0  0  0  0
 33 38  1  0  0  0  0
 36 37  1  0  0  0  0
 38 39  1  0  0  0  0
 38 40  1  0  0  0  0
 38 42  1  0  0  0  0
 40 41  1  0  0  0  0
 42 43  1  0  0  0  0
 44194  1  0  0  0  0
 45 46  1  0  0  0  0
 45 54  1  0  0  0  0
 46 47  1  0  0  0  0
 46 48  1  0  0  0  0
 46 49  2  0  0  0  0
 47 50  1  0  0  0  0
 50 51  1  0  0  0  0
 50 52  1  0  0  0  0
 50 53  2  0  0  0  0
 51205  1  0  0  0  0
 54 55  1  0  0  0  0
 54 56  1  0  0  0  0
 54 57  1  0  0  0  0
 57 58  1  0  0  0  0
 57 59  2  0  0  0  0
 59 60  1  0  0  0  0
 59 64  1  0  0  0  0
 60 61  1  0  0  0  0
 60 62  1  0  0  0  0
 60 63  1  0  0  0  0
 64 65  1  0  0  0  0
 64 66  1  0  0  0  0
 64 67  1  0  0  0  0
 67 68  1  0  0  0  0
 67 69  1  0  0  0  0
 67 70  1  0  0  0  0
 70 71  1  0  0  0  0
 70 72  2  0  0  0  0
 72 73  1  0  0  0  0
 72 77  1  0  0  0  0
 73 74  1  0  0  0  0
 73 75  1  0  0  0  0
 73 76  1  0  0  0  0
 77 78  1  0  0  0  0
 77 79  1  0  0  0  0
 77 80  1  0  0  0  0
 80 81  1  0  0  0  0
 80 82  1  0  0  0  0
 80 83  1  0  0  0  0
 83 84  1  0  0  0  0
 83 85  2  0  0  0  0
 85 86  1  0  0  0  0
 85 89  1  0  0  0  0
 86 87  1  0  0  0  0
 86 88  1  0  0  0  0
 86 93  1  0  0  0  0
 89 90  1  0  0  0  0
 89 91  1  0  0  0  0
 89 92  1  0  0  0  0
 93 94  1  0  0  0  0
 93 95  1  0  0  0  0
 93 96  1  0  0  0  0
 96 97  1  0  0  0  0
 96 98  2  0  0  0  0
 98 99  1  0  0  0  0
 98102  1  0  0  0  0
 99100  1  0  0  0  0
 99101  1  0  0  0  0
 99106  1  0  0  0  0
102103  1  0  0  0  0
102104  1  0  0  0  0
102105  1  0  0  0  0
106107  1  0  0  0  0
106108  1  0  0  0  0
106109  1  0  0  0  0
109110  1  0  0  0  0
109111  2  0  0  0  0
111112  1  0  0  0  0
111115  1  0  0  0  0
112113  1  0  0  0  0
112114  1  0  0  0  0
112119  1  0  0  0  0
115116  1  0  0  0  0
115117  1  0  0  0  0
115118  1  0  0  0  0
119120  1  0  0  0  0
119121  1  0  0  0  0
119122  1  0  0  0  0
122123  1  0  0  0  0
122124  2  0  0  0  0
124125  1  0  0  0  0
124128  1  0  0  0  0
125126  1  0  0  0  0
125127  1  0  0  0  0
125132  1  0  0  0  0
128129  1  0  0  0  0
128130  1  0  0  0  0
128131  1  0  0  0  0
132133  1  0  0  0  0
132134  1  0  0  0  0
132135  1  0  0  0  0
135136  1  0  0  0  0
135137  2  0  0  0  0
137138  1  0  0  0  0
137141  1  0  0  0  0
138139  1  0  0  0  0
138140  1  0  0  0  0
138145  1  0  0  0  0
141142  1  0  0  0  0
141143  1  0  0  0  0
141144  1  0  0  0  0
145146  1  0  0  0  0
145147  1  0  0  0  0
145148  1  0  0  0  0
148149  1  0  0  0  0
148150  2  0  0  0  0
150151  1  0  0  0  0
150154  1  0  0  0  0
151152  1  0  0  0  0
151153  1  0  0  0  0
151158  1  0  0  0  0
154155  1  0  0  0  0
154156  1  0  0  0  0
154157  1  0  0  0  0
158159  1  0  0  0  0
158160  1  0  0  0  0
158161  1  0  0  0  0
161162  1  0  0  0  0
161163  2  0  0  0  0
163164  1  0  0  0  0
163167  1  0  0  0  0
164165  1  0  0  0  0
164166  1  0  0  0  0
164171  1  0  0  0  0
167168  1  0  0  0  0
167169  1  0  0  0  0
167170  1  0  0  0  0
171172  1  0  0  0  0
171173  1  0  0  0  0
171174  1  0  0  0  0
174175  1  0  0  0  0
174176  2  0  0  0  0
176177  1  0  0  0  0
176181  1  0  0  0  0
177178  1  0  0  0  0
177179  1  0  0  0  0
177180  1  0  0  0  0
181182  1  0  0  0  0
181183  1  0  0  0  0
181184  1  0  0  0  0
185186  1  0  0  0  0
185187  1  0  0  0  0
185189  1  0  0  0  0
185196  1  0  0  0  0
187188  1  0  0  0  0
187190  1  0  0  0  0
187197  1  0  0  0  0
189192  1  0  0  0  0
190191  1  0  0  0  0
190194  1  0  0  0  0
190199  1  0  0  0  0
192193  1  0  0  0  0
192194  1  0  0  0  0
192201  1  0  0  0  0
194195  1  0  0  0  0
196210  1  0  0  0  0
197198  1  0  0  0  0
199200  1  0  0  0  0
201202  1  0  0  0  0
201203  1  0  0  0  0
201204  1  0  0  0  0
205206  1  0  0  0  0
205207  1  0  0  0  0
205209  1  0  0  0  0
207208  1  0  0  0  0
207210  1  0  0  0  0
207216  1  0  0  0  0
209212  1  0  0  0  0
210211  1  0  0  0  0
210214  1  0  0  0  0
212213  1  0  0  0  0
212214  1  0  0  0  0
212220  1  0  0  0  0
214215  1  0  0  0  0
214218  1  0  0  0  0
216217  1  0  0  0  0
216225  1  0  0  0  0
218219  1  0  0  0  0
220221  1  0  0  0  0
220222  1  0  0  0  0
220223  1  0  0  0  0
223224  1  0  0  0  0
225226  2  0  0  0  0
225227  1  0  0  0  0
227228  1  0  0  0  0
227229  1  0  0  0  0
227230  1  0  0  0  0
M  BCL ATM C_TeTeTeTe H_S O_Te2Te2TeTe C_TeTeTeTe H_S O_Te2Te2TeTe H_S C_TeTeTeTe H_S O_Te2Te2TeTe H_S C_TeTeTeTe H_S H_S O_Te2Te2TeTe H_S C_TeTeTeTe H_S O_Te2Te2TeTe C_TeTeTeTe H_S C_TeTeTeTe H_S O_Te2Te2TeTe C_TeTeTeTe H_S O_Te2Te2TeTe H_S C_TeTeTeTe H_S O_Te2Te2TeTe H_S C_TeTeTeTe H_S H_S O_Te2Te2TeTe H_S C_TeTeTeTe H_S O_Te2Te2TeTe H_S C_TeTeTeTe H_S O_Te2Te2TeTe O_Tr2TrTrPi2 P_TeTeTeTePi O_Tr2TrTrPi2 O_Te2Te2TeTe O_Tr2Tr2TrPi P_TeTeTeTePi O_Tr2TrTrPi2 O_Te2Te2TeTe O_Tr2Tr2TrPi C_TeTeTeTe H_S H_S C_TrTrTrPi H_S C_TrTrTrPi C_TeTeTeTe H_S H_S H_S C_TeTeTeTe H_S H_S C_TeTeTeTe H_S H_S C_TrTrTrPi H_S C_TrTrTrPi C_TeTeTeTe H_S H_S H_S C_TeTeTeTe H_S H_S C_TeTeTeTe H_S H_S C_TrTrTrPi H_S C_TrTrTrPi C_TeTeTeTe H_S H_S C_TeTeTeTe H_S H_S H_S C_TeTeTeTe H_S H_S C_TrTrTrPi H_S C_TrTrTrPi C_TeTeTeTe H_S H_S C_TeTeTeTe H_S H_S H_S C_TeTeTeTe H_S H_S C_TrTrTrPi H_S C_TrTrTrPi C_TeTeTeTe H_S H_S C_TeTeTeTe H_S H_S H_S C_TeTeTeTe H_S H_S C_TrTrTrPi H_S C_TrTrTrPi C_TeTeTeTe H_S H_S C_TeTeTeTe H_S H_S H_S C_TeTeTeTe H_S H_S C_TrTrTrPi H_S C_TrTrTrPi C_TeTeTeTe H_S H_S C_TeTeTeTe H_S H_S H_S C_TeTeTeTe H_S H_S C_TrTrTrPi H_S C_TrTrTrPi C_TeTeTeTe H_S H_S C_TeTeTeTe H_S H_S H_S C_TeTeTeTe H_S H_S C_TrTrTrPi H_S C_TrTrTrPi C_TeTeTeTe H_S H_S C_TeTeTeTe H_S H_S H_S C_TeTeTeTe H_S H_S C_TrTrTrPi H_S C_TrTrTrPi C_TeTeTeTe H_S H_S H_S C_TeTeTeTe H_S H_S H_S C_TeTeTeTe H_S C_TeTeTeTe H_S O_Te2Te2TeTe C_TeTeTeTe H_S C_TeTeTeTe H_S C_TeTeTeTe H_S O_Te2Te2TeTe O_Te2Te2TeTe H_S O_Te2Te2TeTe H_S C_TeTeTeTe H_S H_S H_S C_TeTeTeTe H_S C_TeTeTeTe H_S O_Te2Te2TeTe C_TeTeTeTe H_S C_TeTeTeTe H_S C_TeTeTeTe H_S N_TrTrTrPi2 H_S O_Te2Te2TeTe H_S C_TeTeTeTe H_S H_S O_Te2Te2TeTe H_S C_TrTrTrPi O_Tr2Tr2TrPi C_TeTeTeTe H_S H_S H_S
M  BCL BND NonConjugatedSingleBond NonConjugatedSingleBondInRing NonConjugatedSingleBondInRing NonConjugatedSingleBond NonConjugatedSingleBondInRing NonConjugatedSingleBond NonConjugatedSingleBond NonConjugatedSingleBondInRing NonConjugatedSingleBond NonConjugatedSingleBond NonConjugatedSingleBond NonConjugatedSingleBondInRing NonConjugatedSingleBond NonConjugatedSingleBond NonConjugatedSingleBond NonConjugatedSingleBond NonConjugatedSingleBond NonConjugatedSingleBond NonConjugatedSingleBond NonConjugatedSingleBond NonConjugatedSingleBond NonConjugatedSingleBond NonConjugatedSingleBond NonConjugatedSingleBond NonConjugatedSingleBondInRing NonConjugatedSingleBondInRing NonConjugatedSingleBondInRing NonConjugatedSingleBond NonConjugatedSingleBond NonConjugatedSingleBondInRing NonConjugatedSingleBond NonConjugatedSingleBond NonConjugatedSingleBond NonConjugatedSingleBondInRing NonConjugatedSingleBond NonConjugatedSingleBond NonConjugatedSingleBond NonConjugatedSingleBond NonConjugatedSingleBond NonConjugatedSingleBond NonConjugatedSingleBond NonConjugatedSingleBond NonConjugatedSingleBond NonConjugatedSingleBond NonConjugatedSingleBond NonConjugatedSingleBond ConjugatedSingleBond NonConjugatedSingleBond ConjugatedSingleBond ConjugatedSingleBond ConjugatedDoubleBond ConjugatedSingleBond ConjugatedSingleBond ConjugatedSingleBond ConjugatedDoubleBond NonConjugatedSingleBond NonConjugatedSingleBond NonConjugatedSingleBond NonConjugatedSingleBond NonConjugatedSingleBond ConjugatedDoubleBond NonConjugatedSingleBond NonConjugatedSingleBond NonConjugatedSingleBond NonConjugatedSingleBond NonConjugatedSingleBond NonConjugatedSingleBond NonConjugatedSingleBond NonConjugatedSingleBond NonConjugatedSingleBond NonConjugatedSingleBond NonConjugatedSingleBond NonConjugatedSingleBond ConjugatedDoubleBond NonConjugatedSingleBond NonConjugatedSingleBond NonConjugatedSingleBond NonConjugatedSingleBond NonConjugatedSingleBond NonConjugatedSingleBond NonConjugatedSingleBond NonConjugatedSingleBond NonConjugatedSingleBond NonConjugatedSingleBond NonConjugatedSingleBond NonConjugatedSingleBond ConjugatedDoubleBond NonConjugatedSingleBond NonConjugatedSingleBond NonConjugatedSingleBond NonConjugatedSingleBond NonConjugatedSingleBond NonConjugatedSingleBond NonConjugatedSingleBond NonConjugatedSingleBond NonConjugatedSingleBond NonConjugatedSingleBond NonConjugatedSingleBond NonConjugatedSingleBond ConjugatedDoubleBond NonConjugatedSingleBond NonConjugatedSingleBond NonConjugatedSingleBond NonConjugatedSingleBond NonConjugatedSingleBond NonConjugatedSingleBond NonConjugatedSingleBond NonConjugatedSingleBond NonConjugatedSingleBond NonConjugatedSingleBond NonConjugatedSingleBond NonConjugatedSingleBond ConjugatedDoubleBond NonConjugatedSingleBond NonConjugatedSingleBond NonConjugatedSingleBond NonConjugatedSingleBond NonConjugatedSingleBond NonConjugatedSingleBond NonConjugatedSingleBond NonConjugatedSingleBond NonConjugatedSingleBond NonConjugatedSingleBond NonConjugatedSingleBond NonConjugatedSingleBond ConjugatedDoubleBond NonConjugatedSingleBond NonConjugatedSingleBond NonConjugatedSingleBond NonConjugatedSingleBond NonConjugatedSingleBond NonConjugatedSingleBond NonConjugatedSingleBond NonConjugatedSingleBond NonConjugatedSingleBond NonConjugatedSingleBond NonConjugatedSingleBond NonConjugatedSingleBond ConjugatedDoubleBond NonConjugatedSingleBond NonConjugatedSingleBond NonConjugatedSingleBond NonConjugatedSingleBond NonConjugatedSingleBond NonConjugatedSingleBond NonConjugatedSingleBond NonConjugatedSingleBond NonConjugatedSingleBond NonConjugatedSingleBond NonConjugatedSingleBond NonConjugatedSingleBond ConjugatedDoubleBond NonConjugatedSingleBond NonConjugatedSingleBond NonConjugatedSingleBond NonConjugatedSingleBond NonConjugatedSingleBond NonConjugatedSingleBond NonConjugatedSingleBond NonConjugatedSingleBond NonConjugatedSingleBond NonConjugatedSingleBond NonConjugatedSingleBond NonConjugatedSingleBond ConjugatedDoubleBond NonConjugatedSingleBond NonConjugatedSingleBond NonConjugatedSingleBond NonConjugatedSingleBond NonConjugatedSingleBond NonConjugatedSingleBond NonConjugatedSingleBond NonConjugatedSingleBond NonConjugatedSingleBond NonConjugatedSingleBond NonConjugatedSingleBond NonConjugatedSingleBond ConjugatedDoubleBond NonConjugatedSingleBond NonConjugatedSingleBond NonConjugatedSingleBond NonConjugatedSingleBond NonConjugatedSingleBond NonConjugatedSingleBond NonConjugatedSingleBond NonConjugatedSingleBond NonConjugatedSingleBond NonConjugatedSingleBondInRing NonConjugatedSingleBondInRing NonConjugatedSingleBond NonConjugatedSingleBond NonConjugatedSingleBondInRing NonConjugatedSingleBond NonConjugatedSingleBondInRing NonConjugatedSingleBond NonConjugatedSingleBondInRing NonConjugatedSingleBond NonConjugatedSingleBond NonConjugatedSingleBondInRing NonConjugatedSingleBond NonConjugatedSingleBond NonConjugatedSingleBond NonConjugatedSingleBond NonConjugatedSingleBond NonConjugatedSingleBond NonConjugatedSingleBond NonConjugatedSingleBond NonConjugatedSingleBond NonConjugatedSingleBondInRing NonConjugatedSingleBondInRing NonConjugatedSingleBond NonConjugatedSingleBondInRing NonConjugatedSingleBond NonConjugatedSingleBondInRing NonConjugatedSingleBond NonConjugatedSingleBondInRing NonConjugatedSingleBond NonConjugatedSingleBondInRing NonConjugatedSingleBond NonConjugatedSingleBond NonConjugatedSingleBond NonConjugatedSingleBond AmideSingleBond NonConjugatedSingleBond NonConjugatedSingleBond NonConjugatedSingleBond NonConjugatedSingleBond NonConjugatedSingleBond ConjugatedDoubleBond NonConjugatedSingleBond NonConjugatedSingleBond NonConjugatedSingleBond NonConjugatedSingleBond
M  BCL CHI   1   R   4   R   8   R  17   S  20   R  22   S  25   R  29   S  38   S  42   R  46   R  50   S 185   R 187   S 190   S 192   R 194   R 205   R 207   S 210   R 212   S 214   S
M  BCL DBI - - E E E E E E E E Z - -
M  END
> <ConfClashScore>
0.00837209 

> <ConfOneFourInteractionScore>
-0.966691 

> <ConfScore>
1.04373 

> <ConfScorePBest>
0.0097425 

> <ConfTolerance>
3.55184 

$$$$
L05.****
  PyMOL2.5          3D                             0

230233  0  0  0  0  0  0  0  0999 V2000
   12.1254   -2.7532   -3.0399 C   0  0  0  1  0  0  0  0  0  0  0  0
   11.3341   -2.5479   -2.3495 H   0  0  0  1  0  0  0  0  0  0  0  0
   11.6544   -3.6058   -4.1275 O   0  0  0  1  0  0  0  0  0  0  0  0
   12.5776   -1.4857   -3.7280 C   0  0  0  1  0  0  0  0  0  0  0  0
   13.5924   -1.5703   -4.0567 H   0  0  0  1  0  0  0  0  0  0  0  0
   12.4502   -0.3593   -2.8584 O   0  0  0  1  0  0  0  0  0  0  0  0
   12.5957   -0.6369   -1.9510 H   0  0  0  1  0  0  0  0  0  0  0  0
   11.6223   -1.3666   -4.9231 C   0  0  0  1  0  0  0  0  0  0  0  0
   10.7428   -0.8169   -4.6603 H   0  0  0  1  0  0  0  0  0  0  0  0
   12.2635   -0.7378   -6.0339 O   0  0  0  1  0  0  0  0  0  0  0  0
   12.9952   -0.2014   -5.7200 H   0  0  0  1  0  0  0  0  0  0  0  0
    8.9612   -2.7434   -4.2351 C   0  0  0  1  0  0  0  0  0  0  0  0
    9.1268   -1.7421   -3.8959 H   0  0  0  1  0  0  0  0  0  0  0  0
    7.9271   -2.8718   -4.4781 H   0  0  0  1  0  0  0  0  0  0  0  0
    9.2983   -3.6418   -3.1864 O   0  0  0  1  0  0  0  0  0  0  0  0
    8.5130   -4.1187   -2.9082 H   0  0  0  1  0  0  0  0  0  0  0  0
    9.7920   -2.9777   -5.4923 C   0  0  0  1  0  0  0  0  0  0  0  0
    9.5031   -2.2571   -6.2286 H   0  0  0  1  0  0  0  0  0  0  0  0
    9.5588   -4.2926   -5.9858 O   0  0  0  1  0  0  0  0  0  0  0  0
   11.2861   -2.8334   -5.2353 C   0  0  0  1  0  0  0  0  0  0  0  0
   11.8297   -3.1547   -6.0991 H   0  0  0  1  0  0  0  0  0  0  0  0
    9.0778   -4.3254   -7.3177 C   0  0  0  1  0  0  0  0  0  0  0  0
    8.6191   -3.3883   -7.5551 H   0  0  0  1  0  0  0  0  0  0  0  0
   10.1172   -4.6106   -8.2141 O   0  0  0  1  0  0  0  0  0  0  0  0
    8.0849   -5.4810   -7.5092 C   0  0  0  1  0  0  0  0  0  0  0  0
    7.0880   -5.1772   -7.2668 H   0  0  0  1  0  0  0  0  0  0  0  0
    8.4471   -6.6088   -6.7108 O   0  0  0  1  0  0  0  0  0  0  0  0
    9.2401   -7.0139   -7.0694 H   0  0  0  1  0  0  0  0  0  0  0  0
    8.2165   -5.7904   -8.9774 C   0  0  0  1  0  0  0  0  0  0  0  0
    7.5883   -5.1514   -9.5620 H   0  0  0  1  0  0  0  0  0  0  0  0
    7.8903   -7.1513   -9.2440 O   0  0  0  1  0  0  0  0  0  0  0  0
    7.2407   -7.4561   -8.6063 H   0  0  0  1  0  0  0  0  0  0  0  0
    9.7931   -3.3505  -10.5334 C   0  0  0  1  0  0  0  0  0  0  0  0
   10.6824   -2.9777  -10.0696 H   0  0  0  1  0  0  0  0  0  0  0  0
    9.7056   -2.9416  -11.5183 H   0  0  0  1  0  0  0  0  0  0  0  0
    8.6630   -2.9694   -9.7619 O   0  0  0  1  0  0  0  0  0  0  0  0
    8.7524   -2.0518   -9.4943 H   0  0  0  1  0  0  0  0  0  0  0  0
    9.8661   -4.8695  -10.6204 C   0  0  0  1  0  0  0  0  0  0  0  0
   10.8190   -5.1472  -11.0201 H   0  0  0  1  0  0  0  0  0  0  0  0
    8.8217   -5.3303  -11.4736 O   0  0  0  1  0  0  0  0  0  0  0  0
    7.9891   -4.9369  -11.2022 H   0  0  0  1  0  0  0  0  0  0  0  0
    9.6962   -5.5145   -9.2605 C   0  0  0  1  0  0  0  0  0  0  0  0
   10.2614   -6.4223   -9.2226 H   0  0  0  1  0  0  0  0  0  0  0  0
   13.2096   -3.3674   -2.3511 O   0  0  0  1  0  0  0  0  0  0  0  0
   23.3070   -8.6786   -2.3961 O   0  0  0  1  0  0  0  0  0  0  0  0
   22.5503   -7.4387   -1.7660 P   0  0  0  1  0  0  0  0  0  0  0  0
   23.3528   -6.1201   -2.2500 O   0  0  0  1  0  0  0  0  0  0  0  0
   22.4682   -7.6610   -0.3078 O   0  0  0  0  0  0  0  0  0  0  0  0
   21.1929   -7.2953   -2.3644 O   0  0  0  1  0  0  0  0  0  0  0  0
   22.6797   -4.6903   -2.5296 P   0  0  0  1  0  0  0  0  0  0  0  0
   21.3794   -4.7854   -1.6485 O   0  0  0  1  0  0  0  0  0  0  0  0
   22.3447   -4.5972   -3.9716 O   0  0  0  0  0  0  0  0  0  0  0  0
   23.5152   -3.6468   -1.9343 O   0  0  0  1  0  0  0  0  0  0  0  0
   23.6106   -8.9343   -3.7767 C   0  0  0  1  0  0  0  0  0  0  0  0
   24.1113   -8.0812   -4.1846 H   0  0  0  1  0  0  0  0  0  0  0  0
   22.6961   -9.0992   -4.3072 H   0  0  0  1  0  0  0  0  0  0  0  0
   24.4908  -10.1381   -3.9416 C   0  0  0  1  0  0  0  0  0  0  0  0
   24.6301  -10.7497   -3.1121 H   0  0  0  1  0  0  0  0  0  0  0  0
   25.1083  -10.4826   -5.0732 C   0  0  0  1  0  0  0  0  0  0  0  0
   25.6927  -11.8535   -5.2536 C   0  0  0  1  0  0  0  0  0  0  0  0
   26.7602  -11.7952   -5.2101 H   0  0  0  1  0  0  0  0  0  0  0  0
   25.3955  -12.2454   -6.2038 H   0  0  0  1  0  0  0  0  0  0  0  0
   25.3389  -12.4969   -4.4753 H   0  0  0  1  0  0  0  0  0  0  0  0
   25.2435   -9.5121   -6.2127 C   0  0  0  1  0  0  0  0  0  0  0  0
   25.7274   -8.6369   -5.8322 H   0  0  0  1  0  0  0  0  0  0  0  0
   24.2557   -9.2611   -6.5384 H   0  0  0  1  0  0  0  0  0  0  0  0
   26.0234   -9.9678   -7.4353 C   0  0  0  1  0  0  0  0  0  0  0  0
   25.5589   -9.5580   -8.3077 H   0  0  0  1  0  0  0  0  0  0  0  0
   25.9904  -11.0362   -7.4815 H   0  0  0  1  0  0  0  0  0  0  0  0
   27.4645   -9.5335   -7.4109 C   0  0  0  1  0  0  0  0  0  0  0  0
   28.0231   -9.8264   -6.5840 H   0  0  0  1  0  0  0  0  0  0  0  0
   28.0998   -8.8171   -8.3306 C   0  0  0  1  0  0  0  0  0  0  0  0
   29.5482   -8.4547   -8.1747 C   0  0  0  1  0  0  0  0  0  0  0  0
   30.1209   -9.3408   -7.9962 H   0  0  0  1  0  0  0  0  0  0  0  0
   29.6610   -7.7848   -7.3480 H   0  0  0  1  0  0  0  0  0  0  0  0
   29.8951   -7.9803   -9.0688 H   0  0  0  1  0  0  0  0  0  0  0  0
   27.4560   -8.3072   -9.5892 C   0  0  0  1  0  0  0  0  0  0  0  0
   27.5315   -7.2400   -9.6021 H   0  0  0  1  0  0  0  0  0  0  0  0
   26.4247   -8.5923   -9.5838 H   0  0  0  1  0  0  0  0  0  0  0  0
   28.1023   -8.8533  -10.8519 C   0  0  0  1  0  0  0  0  0  0  0  0
   28.2182   -9.9116  -10.7449 H   0  0  0  1  0  0  0  0  0  0  0  0
   29.0640   -8.3984  -10.9664 H   0  0  0  1  0  0  0  0  0  0  0  0
   27.2999   -8.5850  -12.0828 C   0  0  0  1  0  0  0  0  0  0  0  0
   26.3734   -8.1243  -11.9783 H   0  0  0  1  0  0  0  0  0  0  0  0
   27.7116   -8.9060  -13.3047 C   0  0  0  1  0  0  0  0  0  0  0  0
   28.8499   -9.8450  -13.5803 C   0  0  0  1  0  0  0  0  0  0  0  0
   29.2445  -10.1853  -12.6458 H   0  0  0  1  0  0  0  0  0  0  0  0
   29.6082   -9.3130  -14.1158 H   0  0  0  1  0  0  0  0  0  0  0  0
   27.0526   -8.3393  -14.5307 C   0  0  0  1  0  0  0  0  0  0  0  0
   26.3383   -7.5970  -14.2415 H   0  0  0  1  0  0  0  0  0  0  0  0
   26.5560   -9.1234  -15.0631 H   0  0  0  1  0  0  0  0  0  0  0  0
   27.7943   -7.8940  -15.1604 H   0  0  0  1  0  0  0  0  0  0  0  0
   28.4373  -11.0561  -14.4010 C   0  0  0  1  0  0  0  0  0  0  0  0
   27.6440  -10.7575  -15.0541 H   0  0  0  1  0  0  0  0  0  0  0  0
   28.0813  -11.8063  -13.7263 H   0  0  0  1  0  0  0  0  0  0  0  0
   29.5252  -11.6663  -15.2413 C   0  0  0  1  0  0  0  0  0  0  0  0
   30.4176  -11.8875  -14.7551 H   0  0  0  1  0  0  0  0  0  0  0  0
   29.4698  -11.9536  -16.5374 C   0  0  0  1  0  0  0  0  0  0  0  0
   28.2628  -11.7024  -17.3962 C   0  0  0  1  0  0  0  0  0  0  0  0
   28.4549  -12.0623  -18.3853 H   0  0  0  1  0  0  0  0  0  0  0  0
   28.0692  -10.6506  -17.4302 H   0  0  0  1  0  0  0  0  0  0  0  0
   30.6364  -12.5647  -17.2568 C   0  0  0  1  0  0  0  0  0  0  0  0
   30.4200  -13.5877  -17.4839 H   0  0  0  1  0  0  0  0  0  0  0  0
   31.5053  -12.5139  -16.6345 H   0  0  0  1  0  0  0  0  0  0  0  0
   30.8158  -12.0283  -18.1651 H   0  0  0  1  0  0  0  0  0  0  0  0
   27.0437  -12.4156  -16.8343 C   0  0  0  1  0  0  0  0  0  0  0  0
   26.7472  -11.9078  -15.9404 H   0  0  0  1  0  0  0  0  0  0  0  0
   27.3287  -13.4193  -16.5972 H   0  0  0  1  0  0  0  0  0  0  0  0
   25.8516  -12.4757  -17.7515 C   0  0  0  1  0  0  0  0  0  0  0  0
   26.0208  -12.8476  -18.7079 H   0  0  0  1  0  0  0  0  0  0  0  0
   24.6067  -12.1050  -17.4717 C   0  0  0  1  0  0  0  0  0  0  0  0
   24.2163  -11.3762  -16.2188 C   0  0  0  1  0  0  0  0  0  0  0  0
   25.0885  -11.2510  -15.6118 H   0  0  0  1  0  0  0  0  0  0  0  0
   23.4960  -11.9664  -15.6919 H   0  0  0  1  0  0  0  0  0  0  0  0
   23.4700  -12.3948  -18.4111 C   0  0  0  1  0  0  0  0  0  0  0  0
   23.0179  -11.4753  -18.7192 H   0  0  0  1  0  0  0  0  0  0  0  0
   22.7419  -13.0007  -17.9133 H   0  0  0  1  0  0  0  0  0  0  0  0
   23.8408  -12.9149  -19.2695 H   0  0  0  1  0  0  0  0  0  0  0  0
   23.6147  -10.0068  -16.4895 C   0  0  0  1  0  0  0  0  0  0  0  0
   22.7686  -10.1495  -17.1288 H   0  0  0  1  0  0  0  0  0  0  0  0
   24.3548   -9.4273  -17.0007 H   0  0  0  1  0  0  0  0  0  0  0  0
   23.1572   -9.2102  -15.3150 C   0  0  0  1  0  0  0  0  0  0  0  0
   23.8197   -9.1819  -14.5138 H   0  0  0  1  0  0  0  0  0  0  0  0
   22.0295   -8.5316  -15.1406 C   0  0  0  1  0  0  0  0  0  0  0  0
   21.1309   -8.1988  -16.2979 C   0  0  0  1  0  0  0  0  0  0  0  0
   21.7126   -8.2549  -17.1942 H   0  0  0  1  0  0  0  0  0  0  0  0
   20.7770   -7.1979  -16.1638 H   0  0  0  1  0  0  0  0  0  0  0  0
   21.5458   -8.0390  -13.8082 C   0  0  0  1  0  0  0  0  0  0  0  0
   20.4979   -7.8296  -13.8637 H   0  0  0  1  0  0  0  0  0  0  0  0
   22.0741   -7.1466  -13.5449 H   0  0  0  1  0  0  0  0  0  0  0  0
   21.7204   -8.7896  -13.0658 H   0  0  0  1  0  0  0  0  0  0  0  0
   19.9221   -9.1049  -16.4659 C   0  0  0  1  0  0  0  0  0  0  0  0
   19.2967   -9.0017  -15.6038 H   0  0  0  1  0  0  0  0  0  0  0  0
   20.2626  -10.1165  -16.5410 H   0  0  0  1  0  0  0  0  0  0  0  0
   19.1132   -8.7832  -17.6822 C   0  0  0  1  0  0  0  0  0  0  0  0
   18.6416   -7.8564  -17.6935 H   0  0  0  1  0  0  0  0  0  0  0  0
   18.9320   -9.5526  -18.7489 C   0  0  0  1  0  0  0  0  0  0  0  0
   19.7443  -10.7955  -18.9613 C   0  0  0  1  0  0  0  0  0  0  0  0
   20.4603  -10.8738  -18.1700 H   0  0  0  1  0  0  0  0  0  0  0  0
   20.2548  -10.7128  -19.8980 H   0  0  0  1  0  0  0  0  0  0  0  0
   17.9233   -9.2689  -19.8262 C   0  0  0  1  0  0  0  0  0  0  0  0
   17.1858  -10.0440  -19.8380 H   0  0  0  1  0  0  0  0  0  0  0  0
   18.4162   -9.2315  -20.7751 H   0  0  0  1  0  0  0  0  0  0  0  0
   17.4496   -8.3292  -19.6324 H   0  0  0  1  0  0  0  0  0  0  0  0
   18.8994  -12.0659  -18.9791 C   0  0  0  1  0  0  0  0  0  0  0  0
   18.1840  -11.9755  -19.7696 H   0  0  0  1  0  0  0  0  0  0  0  0
   18.3888  -12.1359  -18.0415 H   0  0  0  1  0  0  0  0  0  0  0  0
   19.6585  -13.3378  -19.1871 C   0  0  0  1  0  0  0  0  0  0  0  0
   20.6589  -13.2619  -19.4612 H   0  0  0  1  0  0  0  0  0  0  0  0
   19.1566  -14.5419  -19.0496 C   0  0  0  1  0  0  0  0  0  0  0  0
   17.6827  -14.8327  -18.9787 C   0  0  0  1  0  0  0  0  0  0  0  0
   17.5498  -15.8360  -18.6314 H   0  0  0  1  0  0  0  0  0  0  0  0
   17.2690  -14.7369  -19.9608 H   0  0  0  1  0  0  0  0  0  0  0  0
   20.0457  -15.7508  -19.0463 C   0  0  0  1  0  0  0  0  0  0  0  0
   20.0237  -16.2077  -18.0790 H   0  0  0  1  0  0  0  0  0  0  0  0
   21.0478  -15.4568  -19.2790 H   0  0  0  1  0  0  0  0  0  0  0  0
   19.6994  -16.4499  -19.7786 H   0  0  0  1  0  0  0  0  0  0  0  0
   16.9349  -13.8946  -18.0452 C   0  0  0  1  0  0  0  0  0  0  0  0
   16.9218  -12.9181  -18.4824 H   0  0  0  1  0  0  0  0  0  0  0  0
   17.4534  -13.8603  -17.1098 H   0  0  0  1  0  0  0  0  0  0  0  0
   15.5160  -14.3243  -17.7906 C   0  0  0  1  0  0  0  0  0  0  0  0
   14.7672  -13.8679  -18.3497 H   0  0  0  1  0  0  0  0  0  0  0  0
   15.1482  -15.2428  -16.9052 C   0  0  0  1  0  0  0  0  0  0  0  0
   13.7760  -15.8507  -16.9353 C   0  0  0  1  0  0  0  0  0  0  0  0
   13.8575  -16.8879  -16.6854 H   0  0  0  1  0  0  0  0  0  0  0  0
   13.3812  -15.7517  -17.9249 H   0  0  0  1  0  0  0  0  0  0  0  0
   16.0399  -15.7571  -15.8104 C   0  0  0  1  0  0  0  0  0  0  0  0
   16.9425  -15.1874  -15.8854 H   0  0  0  1  0  0  0  0  0  0  0  0
   16.2422  -16.7983  -15.9512 H   0  0  0  1  0  0  0  0  0  0  0  0
   15.5823  -15.6082  -14.8547 H   0  0  0  1  0  0  0  0  0  0  0  0
   12.8118  -15.1928  -15.9617 C   0  0  0  1  0  0  0  0  0  0  0  0
   12.8279  -14.1384  -16.1430 H   0  0  0  1  0  0  0  0  0  0  0  0
   13.1592  -15.3899  -14.9691 H   0  0  0  1  0  0  0  0  0  0  0  0
   11.3832  -15.6582  -16.0547 C   0  0  0  1  0  0  0  0  0  0  0  0
   10.9020  -15.4992  -16.9628 H   0  0  0  1  0  0  0  0  0  0  0  0
   10.6704  -16.2502  -15.1023 C   0  0  0  1  0  0  0  0  0  0  0  0
   11.2010  -16.5524  -13.7310 C   0  0  0  1  0  0  0  0  0  0  0  0
   11.2876  -15.6434  -13.1732 H   0  0  0  1  0  0  0  0  0  0  0  0
   12.1635  -17.0123  -13.8147 H   0  0  0  1  0  0  0  0  0  0  0  0
   10.5301  -17.2169  -13.2278 H   0  0  0  1  0  0  0  0  0  0  0  0
    9.2400  -16.6729  -15.3337 C   0  0  0  1  0  0  0  0  0  0  0  0
    8.6179  -16.0291  -14.7477 H   0  0  0  1  0  0  0  0  0  0  0  0
    9.1050  -17.6894  -15.0279 H   0  0  0  1  0  0  0  0  0  0  0  0
    8.9931  -16.5760  -16.3703 H   0  0  0  1  0  0  0  0  0  0  0  0
   16.0920   -5.2015   -1.6163 C   0  0  0  1  0  0  0  0  0  0  0  0
   16.3009   -5.7287   -0.7089 H   0  0  0  1  0  0  0  0  0  0  0  0
   14.9077   -5.8311   -2.3046 C   0  0  0  1  0  0  0  0  0  0  0  0
   15.1646   -6.8250   -2.6063 H   0  0  0  1  0  0  0  0  0  0  0  0
   15.7885   -3.8407   -1.3188 O   0  0  0  1  0  0  0  0  0  0  0  0
   14.5061   -5.0241   -3.5330 C   0  0  0  1  0  0  0  0  0  0  0  0
   13.5772   -5.4003   -3.9078 H   0  0  0  1  0  0  0  0  0  0  0  0
   15.5822   -3.0281   -2.4892 C   0  0  0  1  0  0  0  0  0  0  0  0
   16.4295   -3.1038   -3.1382 H   0  0  0  1  0  0  0  0  0  0  0  0
   14.3429   -3.5386   -3.1986 C   0  0  0  1  0  0  0  0  0  0  0  0
   14.1993   -2.9855   -4.1032 H   0  0  0  1  0  0  0  0  0  0  0  0
   17.2273   -5.2605   -2.4720 O   0  0  0  1  0  0  0  0  0  0  0  0
   13.8073   -5.8783   -1.3946 O   0  0  0  1  0  0  0  0  0  0  0  0
   13.8626   -5.1378   -0.7861 H   0  0  0  1  0  0  0  0  0  0  0  0
   15.5106   -5.1658   -4.5269 O   0  0  0  1  0  0  0  0  0  0  0  0
   15.4516   -4.4365   -5.1484 H   0  0  0  1  0  0  0  0  0  0  0  0
   15.3830   -1.5773   -2.0819 C   0  0  0  1  0  0  0  0  0  0  0  0
   14.4714   -1.2095   -2.5045 H   0  0  0  1  0  0  0  0  0  0  0  0
   16.2036   -0.9909   -2.4391 H   0  0  0  1  0  0  0  0  0  0  0  0
   15.3338   -1.5102   -1.0151 H   0  0  0  1  0  0  0  0  0  0  0  0
   20.4954   -3.6574   -1.6046 C   0  0  0  1  0  0  0  0  0  0  0  0
   20.9874   -2.8018   -2.0179 H   0  0  0  1  0  0  0  0  0  0  0  0
   19.2388   -3.9647   -2.4218 C   0  0  0  1  0  0  0  0  0  0  0  0
   19.5229   -4.2382   -3.4165 H   0  0  0  1  0  0  0  0  0  0  0  0
   20.1343   -3.3873   -0.2411 O   0  0  0  1  0  0  0  0  0  0  0  0
   18.4678   -5.1060   -1.7907 C   0  0  0  1  0  0  0  0  0  0  0  0
   19.0397   -6.0057   -1.8817 H   0  0  0  1  0  0  0  0  0  0  0  0
   19.4968   -4.4851    0.3993 C   0  0  0  1  0  0  0  0  0  0  0  0
   20.1498   -5.3325    0.3778 H   0  0  0  1  0  0  0  0  0  0  0  0
   18.1938   -4.8377   -0.3125 C   0  0  0  1  0  0  0  0  0  0  0  0
   17.5073   -4.0220   -0.2210 H   0  0  0  1  0  0  0  0  0  0  0  0
   18.3918   -2.7784   -2.4661 N   0  0  0  1  0  0  0  0  0  0  0  0
   17.5813   -2.7552   -1.9157 H   0  0  0  1  0  0  0  0  0  0  0  0
   17.6281   -6.0068    0.2849 O   0  0  0  1  0  0  0  0  0  0  0  0
   18.1976   -6.7398    0.0398 H   0  0  0  1  0  0  0  0  0  0  0  0
   19.1973   -4.1192    1.8246 C   0  0  0  1  0  0  0  0  0  0  0  0
   20.1150   -4.0056    2.3629 H   0  0  0  1  0  0  0  0  0  0  0  0
   18.6124   -4.8936    2.2752 H   0  0  0  1  0  0  0  0  0  0  0  0
   18.4713   -2.8944    1.8629 O   0  0  0  1  0  0  0  0  0  0  0  0
   19.0050   -2.2433    2.3242 H   0  0  0  1  0  0  0  0  0  0  0  0
   18.6852   -1.7118   -3.2384 C   0  0  0  1  0  0  0  0  0  0  0  0
   19.4787   -1.8036   -4.1737 O   0  0  0  1  0  0  0  0  0  0  0  0
   18.0075   -0.3933   -2.9201 C   0  0  0  1  0  0  0  0  0  0  0  0
   18.7596    0.3446   -3.1065 H   0  0  0  1  0  0  0  0  0  0  0  0
   17.6954   -0.3654   -1.8970 H   0  0  0  1  0  0  0  0  0  0  0  0
   17.1608   -0.2397   -3.5561 H   0  0  0  1  0  0  0  0  0  0  0  0
  1  2  1  0  0  0  0
  1  3  1  0  0  0  0
  1  4  1  0  0  0  0
  1 44  1  0  0  0  0
  3 20  1  0  0  0  0
  4  5  1  0  0  0  0
  4  6  1  0  0  0  0
  4  8  1  0  0  0  0
  6  7  1  0  0  0  0
  8  9  1  0  0  0  0
  8 10  1  0  0  0  0
  8 20  1  0  0  0  0
 10 11  1  0  0  0  0
 12 13  1  0  0  0  0
 12 14  1  0  0  0  0
 12 15  1  0  0  0  0
 12 17  1  0  0  0  0
 15 16  1  0  0  0  0
 17 18  1  0  0  0  0
 17 19  1  0  0  0  0
 17 20  1  0  0  0  0
 19 22  1  0  0  0  0
 20 21  1  0  0  0  0
 22 23  1  0  0  0  0
 22 24  1  0  0  0  0
 22 25  1  0  0  0  0
 24 42  1  0  0  0  0
 25 26  1  0  0  0  0
 25 27  1  0  0  0  0
 25 29  1  0  0  0  0
 27 28  1  0  0  0  0
 29 30  1  0  0  0  0
 29 31  1  0  0  0  0
 29 42  1  0  0  0  0
 31 32  1  0  0  0  0
 33 34  1  0  0  0  0
 33 35  1  0  0  0  0
 33 36  1  0  0  0  0
 33 38  1  0  0  0  0
 36 37  1  0  0  0  0
 38 39  1  0  0  0  0
 38 40  1  0  0  0  0
 38 42  1  0  0  0  0
 40 41  1  0  0  0  0
 42 43  1  0  0  0  0
 44194  1  0  0  0  0
 45 46  1  0  0  0  0
 45 54  1  0  0  0  0
 46 47  1  0  0  0  0
 46 48  1  0  0  0  0
 46 49  2  0  0  0  0
 47 50  1  0  0  0  0
 50 51  1  0  0  0  0
 50 52  1  0  0  0  0
 50 53  2  0  0  0  0
 51205  1  0  0  0  0
 54 55  1  0  0  0  0
 54 56  1  0  0  0  0
 54 57  1  0  0  0  0
 57 58  1  0  0  0  0
 57 59  2  0  0  0  0
 59 60  1  0  0  0  0
 59 64  1  0  0  0  0
 60 61  1  0  0  0  0
 60 62  1  0  0  0  0
 60 63  1  0  0  0  0
 64 65  1  0  0  0  0
 64 66  1  0  0  0  0
 64 67  1  0  0  0  0
 67 68  1  0  0  0  0
 67 69  1  0  0  0  0
 67 70  1  0  0  0  0
 70 71  1  0  0  0  0
 70 72  2  0  0  0  0
 72 73  1  0  0  0  0
 72 77  1  0  0  0  0
 73 74  1  0  0  0  0
 73 75  1  0  0  0  0
 73 76  1  0  0  0  0
 77 78  1  0  0  0  0
 77 79  1  0  0  0  0
 77 80  1  0  0  0  0
 80 81  1  0  0  0  0
 80 82  1  0  0  0  0
 80 83  1  0  0  0  0
 83 84  1  0  0  0  0
 83 85  2  0  0  0  0
 85 86  1  0  0  0  0
 85 89  1  0  0  0  0
 86 87  1  0  0  0  0
 86 88  1  0  0  0  0
 86 93  1  0  0  0  0
 89 90  1  0  0  0  0
 89 91  1  0  0  0  0
 89 92  1  0  0  0  0
 93 94  1  0  0  0  0
 93 95  1  0  0  0  0
 93 96  1  0  0  0  0
 96 97  1  0  0  0  0
 96 98  2  0  0  0  0
 98 99  1  0  0  0  0
 98102  1  0  0  0  0
 99100  1  0  0  0  0
 99101  1  0  0  0  0
 99106  1  0  0  0  0
102103  1  0  0  0  0
102104  1  0  0  0  0
102105  1  0  0  0  0
106107  1  0  0  0  0
106108  1  0  0  0  0
106109  1  0  0  0  0
109110  1  0  0  0  0
109111  2  0  0  0  0
111112  1  0  0  0  0
111115  1  0  0  0  0
112113  1  0  0  0  0
112114  1  0  0  0  0
112119  1  0  0  0  0
115116  1  0  0  0  0
115117  1  0  0  0  0
115118  1  0  0  0  0
119120  1  0  0  0  0
119121  1  0  0  0  0
119122  1  0  0  0  0
122123  1  0  0  0  0
122124  2  0  0  0  0
124125  1  0  0  0  0
124128  1  0  0  0  0
125126  1  0  0  0  0
125127  1  0  0  0  0
125132  1  0  0  0  0
128129  1  0  0  0  0
128130  1  0  0  0  0
128131  1  0  0  0  0
132133  1  0  0  0  0
132134  1  0  0  0  0
132135  1  0  0  0  0
135136  1  0  0  0  0
135137  2  0  0  0  0
137138  1  0  0  0  0
137141  1  0  0  0  0
138139  1  0  0  0  0
138140  1  0  0  0  0
138145  1  0  0  0  0
141142  1  0  0  0  0
141143  1  0  0  0  0
141144  1  0  0  0  0
145146  1  0  0  0  0
145147  1  0  0  0  0
145148  1  0  0  0  0
148149  1  0  0  0  0
148150  2  0  0  0  0
150151  1  0  0  0  0
150154  1  0  0  0  0
151152  1  0  0  0  0
151153  1  0  0  0  0
151158  1  0  0  0  0
154155  1  0  0  0  0
154156  1  0  0  0  0
154157  1  0  0  0  0
158159  1  0  0  0  0
158160  1  0  0  0  0
158161  1  0  0  0  0
161162  1  0  0  0  0
161163  2  0  0  0  0
163164  1  0  0  0  0
163167  1  0  0  0  0
164165  1  0  0  0  0
164166  1  0  0  0  0
164171  1  0  0  0  0
167168  1  0  0  0  0
167169  1  0  0  0  0
167170  1  0  0  0  0
171172  1  0  0  0  0
171173  1  0  0  0  0
171174  1  0  0  0  0
174175  1  0  0  0  0
174176  2  0  0  0  0
176177  1  0  0  0  0
176181  1  0  0  0  0
177178  1  0  0  0  0
177179  1  0  0  0  0
177180  1  0  0  0  0
181182  1  0  0  0  0
181183  1  0  0  0  0
181184  1  0  0  0  0
185186  1  0  0  0  0
185187  1  0  0  0  0
185189  1  0  0  0  0
185196  1  0  0  0  0
187188  1  0  0  0  0
187190  1  0  0  0  0
187197  1  0  0  0  0
189192  1  0  0  0  0
190191  1  0  0  0  0
190194  1  0  0  0  0
190199  1  0  0  0  0
192193  1  0  0  0  0
192194  1  0  0  0  0
192201  1  0  0  0  0
194195  1  0  0  0  0
196210  1  0  0  0  0
197198  1  0  0  0  0
199200  1  0  0  0  0
201202  1  0  0  0  0
201203  1  0  0  0  0
201204  1  0  0  0  0
205206  1  0  0  0  0
205207  1  0  0  0  0
205209  1  0  0  0  0
207208  1  0  0  0  0
207210  1  0  0  0  0
207216  1  0  0  0  0
209212  1  0  0  0  0
210211  1  0  0  0  0
210214  1  0  0  0  0
212213  1  0  0  0  0
212214  1  0  0  0  0
212220  1  0  0  0  0
214215  1  0  0  0  0
214218  1  0  0  0  0
216217  1  0  0  0  0
216225  1  0  0  0  0
218219  1  0  0  0  0
220221  1  0  0  0  0
220222  1  0  0  0  0
220223  1  0  0  0  0
223224  1  0  0  0  0
225226  2  0  0  0  0
225227  1  0  0  0  0
227228  1  0  0  0  0
227229  1  0  0  0  0
227230  1  0  0  0  0
M  BCL ATM C_TeTeTeTe H_S O_Te2Te2TeTe C_TeTeTeTe H_S O_Te2Te2TeTe H_S C_TeTeTeTe H_S O_Te2Te2TeTe H_S C_TeTeTeTe H_S H_S O_Te2Te2TeTe H_S C_TeTeTeTe H_S O_Te2Te2TeTe C_TeTeTeTe H_S C_TeTeTeTe H_S O_Te2Te2TeTe C_TeTeTeTe H_S O_Te2Te2TeTe H_S C_TeTeTeTe H_S O_Te2Te2TeTe H_S C_TeTeTeTe H_S H_S O_Te2Te2TeTe H_S C_TeTeTeTe H_S O_Te2Te2TeTe H_S C_TeTeTeTe H_S O_Te2Te2TeTe O_Tr2TrTrPi2 P_TeTeTeTePi O_Tr2TrTrPi2 O_Te2Te2TeTe O_Tr2Tr2TrPi P_TeTeTeTePi O_Tr2TrTrPi2 O_Te2Te2TeTe O_Tr2Tr2TrPi C_TeTeTeTe H_S H_S C_TrTrTrPi H_S C_TrTrTrPi C_TeTeTeTe H_S H_S H_S C_TeTeTeTe H_S H_S C_TeTeTeTe H_S H_S C_TrTrTrPi H_S C_TrTrTrPi C_TeTeTeTe H_S H_S H_S C_TeTeTeTe H_S H_S C_TeTeTeTe H_S H_S C_TrTrTrPi H_S C_TrTrTrPi C_TeTeTeTe H_S H_S C_TeTeTeTe H_S H_S H_S C_TeTeTeTe H_S H_S C_TrTrTrPi H_S C_TrTrTrPi C_TeTeTeTe H_S H_S C_TeTeTeTe H_S H_S H_S C_TeTeTeTe H_S H_S C_TrTrTrPi H_S C_TrTrTrPi C_TeTeTeTe H_S H_S C_TeTeTeTe H_S H_S H_S C_TeTeTeTe H_S H_S C_TrTrTrPi H_S C_TrTrTrPi C_TeTeTeTe H_S H_S C_TeTeTeTe H_S H_S H_S C_TeTeTeTe H_S H_S C_TrTrTrPi H_S C_TrTrTrPi C_TeTeTeTe H_S H_S C_TeTeTeTe H_S H_S H_S C_TeTeTeTe H_S H_S C_TrTrTrPi H_S C_TrTrTrPi C_TeTeTeTe H_S H_S C_TeTeTeTe H_S H_S H_S C_TeTeTeTe H_S H_S C_TrTrTrPi H_S C_TrTrTrPi C_TeTeTeTe H_S H_S C_TeTeTeTe H_S H_S H_S C_TeTeTeTe H_S H_S C_TrTrTrPi H_S C_TrTrTrPi C_TeTeTeTe H_S H_S H_S C_TeTeTeTe H_S H_S H_S C_TeTeTeTe H_S C_TeTeTeTe H_S O_Te2Te2TeTe C_TeTeTeTe H_S C_TeTeTeTe H_S C_TeTeTeTe H_S O_Te2Te2TeTe O_Te2Te2TeTe H_S O_Te2Te2TeTe H_S C_TeTeTeTe H_S H_S H_S C_TeTeTeTe H_S C_TeTeTeTe H_S O_Te2Te2TeTe C_TeTeTeTe H_S C_TeTeTeTe H_S C_TeTeTeTe H_S N_TrTrTrPi2 H_S O_Te2Te2TeTe H_S C_TeTeTeTe H_S H_S O_Te2Te2TeTe H_S C_TrTrTrPi O_Tr2Tr2TrPi C_TeTeTeTe H_S H_S H_S
M  BCL BND NonConjugatedSingleBond NonConjugatedSingleBondInRing NonConjugatedSingleBondInRing NonConjugatedSingleBond NonConjugatedSingleBondInRing NonConjugatedSingleBond NonConjugatedSingleBond NonConjugatedSingleBondInRing NonConjugatedSingleBond NonConjugatedSingleBond NonConjugatedSingleBond NonConjugatedSingleBondInRing NonConjugatedSingleBond NonConjugatedSingleBond NonConjugatedSingleBond NonConjugatedSingleBond NonConjugatedSingleBond NonConjugatedSingleBond NonConjugatedSingleBond NonConjugatedSingleBond NonConjugatedSingleBond NonConjugatedSingleBond NonConjugatedSingleBond NonConjugatedSingleBond NonConjugatedSingleBondInRing NonConjugatedSingleBondInRing NonConjugatedSingleBondInRing NonConjugatedSingleBond NonConjugatedSingleBond NonConjugatedSingleBondInRing NonConjugatedSingleBond NonConjugatedSingleBond NonConjugatedSingleBond NonConjugatedSingleBondInRing NonConjugatedSingleBond NonConjugatedSingleBond NonConjugatedSingleBond NonConjugatedSingleBond NonConjugatedSingleBond NonConjugatedSingleBond NonConjugatedSingleBond NonConjugatedSingleBond NonConjugatedSingleBond NonConjugatedSingleBond NonConjugatedSingleBond NonConjugatedSingleBond ConjugatedSingleBond NonConjugatedSingleBond ConjugatedSingleBond ConjugatedSingleBond ConjugatedDoubleBond ConjugatedSingleBond ConjugatedSingleBond ConjugatedSingleBond ConjugatedDoubleBond NonConjugatedSingleBond NonConjugatedSingleBond NonConjugatedSingleBond NonConjugatedSingleBond NonConjugatedSingleBond ConjugatedDoubleBond NonConjugatedSingleBond NonConjugatedSingleBond NonConjugatedSingleBond NonConjugatedSingleBond NonConjugatedSingleBond NonConjugatedSingleBond NonConjugatedSingleBond NonConjugatedSingleBond NonConjugatedSingleBond NonConjugatedSingleBond NonConjugatedSingleBond NonConjugatedSingleBond ConjugatedDoubleBond NonConjugatedSingleBond NonConjugatedSingleBond NonConjugatedSingleBond NonConjugatedSingleBond NonConjugatedSingleBond NonConjugatedSingleBond NonConjugatedSingleBond NonConjugatedSingleBond NonConjugatedSingleBond NonConjugatedSingleBond NonConjugatedSingleBond NonConjugatedSingleBond ConjugatedDoubleBond NonConjugatedSingleBond NonConjugatedSingleBond NonConjugatedSingleBond NonConjugatedSingleBond NonConjugatedSingleBond NonConjugatedSingleBond NonConjugatedSingleBond NonConjugatedSingleBond NonConjugatedSingleBond NonConjugatedSingleBond NonConjugatedSingleBond NonConjugatedSingleBond ConjugatedDoubleBond NonConjugatedSingleBond NonConjugatedSingleBond NonConjugatedSingleBond NonConjugatedSingleBond NonConjugatedSingleBond NonConjugatedSingleBond NonConjugatedSingleBond NonConjugatedSingleBond NonConjugatedSingleBond NonConjugatedSingleBond NonConjugatedSingleBond NonConjugatedSingleBond ConjugatedDoubleBond NonConjugatedSingleBond NonConjugatedSingleBond NonConjugatedSingleBond NonConjugatedSingleBond NonConjugatedSingleBond NonConjugatedSingleBond NonConjugatedSingleBond NonConjugatedSingleBond NonConjugatedSingleBond NonConjugatedSingleBond NonConjugatedSingleBond NonConjugatedSingleBond ConjugatedDoubleBond NonConjugatedSingleBond NonConjugatedSingleBond NonConjugatedSingleBond NonConjugatedSingleBond NonConjugatedSingleBond NonConjugatedSingleBond NonConjugatedSingleBond NonConjugatedSingleBond NonConjugatedSingleBond NonConjugatedSingleBond NonConjugatedSingleBond NonConjugatedSingleBond ConjugatedDoubleBond NonConjugatedSingleBond NonConjugatedSingleBond NonConjugatedSingleBond NonConjugatedSingleBond NonConjugatedSingleBond NonConjugatedSingleBond NonConjugatedSingleBond NonConjugatedSingleBond NonConjugatedSingleBond NonConjugatedSingleBond NonConjugatedSingleBond NonConjugatedSingleBond ConjugatedDoubleBond NonConjugatedSingleBond NonConjugatedSingleBond NonConjugatedSingleBond NonConjugatedSingleBond NonConjugatedSingleBond NonConjugatedSingleBond NonConjugatedSingleBond NonConjugatedSingleBond NonConjugatedSingleBond NonConjugatedSingleBond NonConjugatedSingleBond NonConjugatedSingleBond ConjugatedDoubleBond NonConjugatedSingleBond NonConjugatedSingleBond NonConjugatedSingleBond NonConjugatedSingleBond NonConjugatedSingleBond NonConjugatedSingleBond NonConjugatedSingleBond NonConjugatedSingleBond NonConjugatedSingleBond NonConjugatedSingleBond NonConjugatedSingleBond NonConjugatedSingleBond ConjugatedDoubleBond NonConjugatedSingleBond NonConjugatedSingleBond NonConjugatedSingleBond NonConjugatedSingleBond NonConjugatedSingleBond NonConjugatedSingleBond NonConjugatedSingleBond NonConjugatedSingleBond NonConjugatedSingleBond NonConjugatedSingleBondInRing NonConjugatedSingleBondInRing NonConjugatedSingleBond NonConjugatedSingleBond NonConjugatedSingleBondInRing NonConjugatedSingleBond NonConjugatedSingleBondInRing NonConjugatedSingleBond NonConjugatedSingleBondInRing NonConjugatedSingleBond NonConjugatedSingleBond NonConjugatedSingleBondInRing NonConjugatedSingleBond NonConjugatedSingleBond NonConjugatedSingleBond NonConjugatedSingleBond NonConjugatedSingleBond NonConjugatedSingleBond NonConjugatedSingleBond NonConjugatedSingleBond NonConjugatedSingleBond NonConjugatedSingleBondInRing NonConjugatedSingleBondInRing NonConjugatedSingleBond NonConjugatedSingleBondInRing NonConjugatedSingleBond NonConjugatedSingleBondInRing NonConjugatedSingleBond NonConjugatedSingleBondInRing NonConjugatedSingleBond NonConjugatedSingleBondInRing NonConjugatedSingleBond NonConjugatedSingleBond NonConjugatedSingleBond NonConjugatedSingleBond AmideSingleBond NonConjugatedSingleBond NonConjugatedSingleBond NonConjugatedSingleBond NonConjugatedSingleBond NonConjugatedSingleBond ConjugatedDoubleBond NonConjugatedSingleBond NonConjugatedSingleBond NonConjugatedSingleBond NonConjugatedSingleBond
M  BCL CHI   1   R   4   R   8   R  17   S  20   R  22   S  25   R  29   S  38   S  42   R  46   R  50   S 185   R 187   S 190   S 192   R 194   R 205   R 207   S 210   R 212   S 214   S
M  BCL DBI - - E E E E E E E E Z - -
M  END
> <ConfClashScore>
0.00564906 

> <ConfOneFourInteractionScore>
-0.960734 

> <ConfScore>
1.04672 

> <ConfScorePBest>
0.0096395 

> <ConfTolerance>
3.62624 

$$$$
L05.****
  PyMOL2.5          3D                             0

230233  0  0  0  0  0  0  0  0999 V2000
   12.0472   -3.6946   -3.2461 C   0  0  0  1  0  0  0  0  0  0  0  0
   12.1245   -4.7561   -3.3561 H   0  0  0  1  0  0  0  0  0  0  0  0
   11.8527   -3.0792   -4.4905 O   0  0  0  1  0  0  0  0  0  0  0  0
   10.7952   -3.3211   -2.4392 C   0  0  0  1  0  0  0  0  0  0  0  0
   11.0019   -3.3105   -1.3894 H   0  0  0  1  0  0  0  0  0  0  0  0
    9.7224   -4.2260   -2.7049 O   0  0  0  1  0  0  0  0  0  0  0  0
    9.5303   -4.7361   -1.9147 H   0  0  0  1  0  0  0  0  0  0  0  0
   10.4768   -1.9382   -2.9439 C   0  0  0  1  0  0  0  0  0  0  0  0
    9.4322   -1.7264   -2.8499 H   0  0  0  1  0  0  0  0  0  0  0  0
   11.2291   -0.9496   -2.2388 O   0  0  0  1  0  0  0  0  0  0  0  0
   12.0101   -1.3548   -1.8548 H   0  0  0  1  0  0  0  0  0  0  0  0
   10.0953   -2.4809   -6.7587 C   0  0  0  1  0  0  0  0  0  0  0  0
   10.2916   -1.5262   -7.2001 H   0  0  0  1  0  0  0  0  0  0  0  0
   10.9772   -3.0849   -6.8072 H   0  0  0  1  0  0  0  0  0  0  0  0
    9.0438   -3.1224   -7.4683 O   0  0  0  1  0  0  0  0  0  0  0  0
    9.1714   -4.0734   -7.4397 H   0  0  0  1  0  0  0  0  0  0  0  0
    9.6904   -2.2918   -5.3016 C   0  0  0  1  0  0  0  0  0  0  0  0
    9.2644   -3.2144   -4.9668 H   0  0  0  1  0  0  0  0  0  0  0  0
    8.7140   -1.2646   -5.1646 O   0  0  0  1  0  0  0  0  0  0  0  0
   10.8944   -1.9997   -4.4162 C   0  0  0  1  0  0  0  0  0  0  0  0
   11.3442   -1.0768   -4.7178 H   0  0  0  1  0  0  0  0  0  0  0  0
    7.6701   -1.5157   -4.2676 C   0  0  0  1  0  0  0  0  0  0  0  0
    7.9812   -1.2589   -3.2765 H   0  0  0  1  0  0  0  0  0  0  0  0
    6.4822   -0.7660   -4.6416 O   0  0  0  1  0  0  0  0  0  0  0  0
    7.2435   -2.9815   -4.3349 C   0  0  0  1  0  0  0  0  0  0  0  0
    7.7854   -3.5785   -3.6314 H   0  0  0  1  0  0  0  0  0  0  0  0
    7.4186   -3.5155   -5.6481 O   0  0  0  1  0  0  0  0  0  0  0  0
    6.8390   -3.0567   -6.2605 H   0  0  0  1  0  0  0  0  0  0  0  0
    5.7846   -2.8888   -3.9689 C   0  0  0  1  0  0  0  0  0  0  0  0
    5.6554   -2.8091   -2.9098 H   0  0  0  1  0  0  0  0  0  0  0  0
    5.0591   -4.0153   -4.4530 O   0  0  0  1  0  0  0  0  0  0  0  0
    4.1766   -3.7407   -4.7126 H   0  0  0  1  0  0  0  0  0  0  0  0
    4.6381   -0.0050   -2.8557 C   0  0  0  1  0  0  0  0  0  0  0  0
    5.5036   -0.4089   -2.3733 H   0  0  0  1  0  0  0  0  0  0  0  0
    4.8872    0.9302   -3.3119 H   0  0  0  1  0  0  0  0  0  0  0  0
    3.6335    0.2187   -1.8768 O   0  0  0  1  0  0  0  0  0  0  0  0
    2.7737    0.0021   -2.2447 H   0  0  0  1  0  0  0  0  0  0  0  0
    4.1873   -0.9728   -3.9404 C   0  0  0  1  0  0  0  0  0  0  0  0
    3.6216   -0.4152   -4.6573 H   0  0  0  1  0  0  0  0  0  0  0  0
    3.3395   -1.9657   -3.3560 O   0  0  0  1  0  0  0  0  0  0  0  0
    3.7991   -2.8084   -3.3367 H   0  0  0  1  0  0  0  0  0  0  0  0
    5.3538   -1.6145   -4.6723 C   0  0  0  1  0  0  0  0  0  0  0  0
    5.0704   -1.8229   -5.6828 H   0  0  0  1  0  0  0  0  0  0  0  0
   13.2209   -3.1958   -2.6151 O   0  0  0  1  0  0  0  0  0  0  0  0
   22.5126   -2.5317   -0.8402 O   0  0  0  1  0  0  0  0  0  0  0  0
   21.5607   -3.7002   -0.8760 P   0  0  0  1  0  0  0  0  0  0  0  0
   22.1959   -4.9075   -1.7083 O   0  0  0  1  0  0  0  0  0  0  0  0
   20.2418   -3.3429   -1.6306 O   0  0  0  0  0  0  0  0  0  0  0  0
   21.2267   -4.2730    0.4709 O   0  0  0  1  0  0  0  0  0  0  0  0
   22.0141   -5.3015   -3.1555 P   0  0  0  1  0  0  0  0  0  0  0  0
   21.0532   -6.5470   -3.1947 O   0  0  0  1  0  0  0  0  0  0  0  0
   23.2861   -5.8835   -3.7516 O   0  0  0  0  0  0  0  0  0  0  0  0
   21.3702   -4.2455   -4.0185 O   0  0  0  1  0  0  0  0  0  0  0  0
   22.2047   -1.2871   -0.1923 C   0  0  0  1  0  0  0  0  0  0  0  0
   22.0608   -1.4520    0.8551 H   0  0  0  1  0  0  0  0  0  0  0  0
   21.3135   -0.8719   -0.6144 H   0  0  0  1  0  0  0  0  0  0  0  0
   23.3511   -0.3422   -0.4023 C   0  0  0  1  0  0  0  0  0  0  0  0
   23.2700    0.5922    0.0470 H   0  0  0  1  0  0  0  0  0  0  0  0
   24.4588   -0.5697   -1.1000 C   0  0  0  1  0  0  0  0  0  0  0  0
   25.4055    0.5097   -1.5341 C   0  0  0  1  0  0  0  0  0  0  0  0
   26.2859    0.4782   -0.9268 H   0  0  0  1  0  0  0  0  0  0  0  0
   24.9322    1.4633   -1.4265 H   0  0  0  1  0  0  0  0  0  0  0  0
   25.6737    0.3577   -2.5588 H   0  0  0  1  0  0  0  0  0  0  0  0
   24.8541   -1.9562   -1.5153 C   0  0  0  1  0  0  0  0  0  0  0  0
   24.5096   -2.6280   -0.7571 H   0  0  0  1  0  0  0  0  0  0  0  0
   25.9229   -1.9847   -1.5591 H   0  0  0  1  0  0  0  0  0  0  0  0
   24.3305   -2.4671   -2.8477 C   0  0  0  1  0  0  0  0  0  0  0  0
   24.7201   -1.8463   -3.6273 H   0  0  0  1  0  0  0  0  0  0  0  0
   23.2624   -2.4037   -2.8408 H   0  0  0  1  0  0  0  0  0  0  0  0
   24.7153   -3.8609   -3.1222 C   0  0  0  1  0  0  0  0  0  0  0  0
   24.5190   -4.6125   -2.4307 H   0  0  0  1  0  0  0  0  0  0  0  0
   25.3186   -4.1377   -4.2720 C   0  0  0  1  0  0  0  0  0  0  0  0
   26.0437   -5.4237   -4.5439 C   0  0  0  1  0  0  0  0  0  0  0  0
   26.8473   -5.2431   -5.2269 H   0  0  0  1  0  0  0  0  0  0  0  0
   25.3650   -6.1320   -4.9712 H   0  0  0  1  0  0  0  0  0  0  0  0
   26.4355   -5.8125   -3.6273 H   0  0  0  1  0  0  0  0  0  0  0  0
   25.3206   -3.1625   -5.4122 C   0  0  0  1  0  0  0  0  0  0  0  0
   26.2840   -2.6997   -5.4628 H   0  0  0  1  0  0  0  0  0  0  0  0
   24.5758   -2.4175   -5.2244 H   0  0  0  1  0  0  0  0  0  0  0  0
   25.0257   -3.8140   -6.7534 C   0  0  0  1  0  0  0  0  0  0  0  0
   23.9884   -4.0706   -6.8091 H   0  0  0  1  0  0  0  0  0  0  0  0
   25.6187   -4.6980   -6.8627 H   0  0  0  1  0  0  0  0  0  0  0  0
   25.3636   -2.8433   -7.8401 C   0  0  0  1  0  0  0  0  0  0  0  0
   26.3017   -2.3954   -7.8107 H   0  0  0  1  0  0  0  0  0  0  0  0
   24.5552   -2.5110   -8.8395 C   0  0  0  1  0  0  0  0  0  0  0  0
   23.3272   -3.3316   -9.1637 C   0  0  0  1  0  0  0  0  0  0  0  0
   23.5842   -4.3684   -9.1014 H   0  0  0  1  0  0  0  0  0  0  0  0
   23.0164   -3.1001  -10.1611 H   0  0  0  1  0  0  0  0  0  0  0  0
   24.7677   -1.3187   -9.7293 C   0  0  0  1  0  0  0  0  0  0  0  0
   23.9746   -0.6160   -9.5804 H   0  0  0  1  0  0  0  0  0  0  0  0
   24.7771   -1.6342  -10.7517 H   0  0  0  1  0  0  0  0  0  0  0  0
   25.7027   -0.8571   -9.4894 H   0  0  0  1  0  0  0  0  0  0  0  0
   22.1658   -3.0635   -8.2205 C   0  0  0  1  0  0  0  0  0  0  0  0
   21.9144   -2.0250   -8.2764 H   0  0  0  1  0  0  0  0  0  0  0  0
   22.4738   -3.3033   -7.2242 H   0  0  0  1  0  0  0  0  0  0  0  0
   20.9394   -3.8717   -8.5505 C   0  0  0  1  0  0  0  0  0  0  0  0
   21.0187   -4.9023   -8.4356 H   0  0  0  1  0  0  0  0  0  0  0  0
   19.7667   -3.4112   -8.9726 C   0  0  0  1  0  0  0  0  0  0  0  0
   19.4739   -1.9542   -9.1937 C   0  0  0  1  0  0  0  0  0  0  0  0
   19.3007   -1.8073  -10.2394 H   0  0  0  1  0  0  0  0  0  0  0  0
   20.3349   -1.3950   -8.8923 H   0  0  0  1  0  0  0  0  0  0  0  0
   18.6188   -4.3354   -9.2671 C   0  0  0  1  0  0  0  0  0  0  0  0
   18.8851   -5.3346   -8.9923 H   0  0  0  1  0  0  0  0  0  0  0  0
   18.3930   -4.3013  -10.3124 H   0  0  0  1  0  0  0  0  0  0  0  0
   17.7609   -4.0281   -8.7062 H   0  0  0  1  0  0  0  0  0  0  0  0
   18.2727   -1.4091   -8.4385 C   0  0  0  1  0  0  0  0  0  0  0  0
   18.4875   -1.4098   -7.3903 H   0  0  0  1  0  0  0  0  0  0  0  0
   17.4251   -2.0334   -8.6298 H   0  0  0  1  0  0  0  0  0  0  0  0
   17.9594   -0.0035   -8.8770 C   0  0  0  1  0  0  0  0  0  0  0  0
   18.7718    0.5968   -9.1246 H   0  0  0  1  0  0  0  0  0  0  0  0
   16.7576    0.5533   -8.9821 C   0  0  0  1  0  0  0  0  0  0  0  0
   15.4770   -0.1635   -8.6665 C   0  0  0  1  0  0  0  0  0  0  0  0
   15.7048   -1.1844   -8.4410 H   0  0  0  1  0  0  0  0  0  0  0  0
   14.8419   -0.1208   -9.5265 H   0  0  0  1  0  0  0  0  0  0  0  0
   16.5870    1.9759   -9.4354 C   0  0  0  1  0  0  0  0  0  0  0  0
   16.8830    2.0622  -10.4600 H   0  0  0  1  0  0  0  0  0  0  0  0
   17.1959    2.6174   -8.8332 H   0  0  0  1  0  0  0  0  0  0  0  0
   15.5605    2.2611   -9.3358 H   0  0  0  1  0  0  0  0  0  0  0  0
   14.7332    0.4384   -7.4855 C   0  0  0  1  0  0  0  0  0  0  0  0
   13.8281   -0.1126   -7.3364 H   0  0  0  1  0  0  0  0  0  0  0  0
   14.4978    1.4568   -7.7144 H   0  0  0  1  0  0  0  0  0  0  0  0
   15.5246    0.4064   -6.2166 C   0  0  0  1  0  0  0  0  0  0  0  0
   15.6009   -0.5041   -5.7199 H   0  0  0  1  0  0  0  0  0  0  0  0
   16.1369    1.4537   -5.6772 C   0  0  0  1  0  0  0  0  0  0  0  0
   16.3687    2.7133   -6.4628 C   0  0  0  1  0  0  0  0  0  0  0  0
   15.8426    2.6489   -7.3923 H   0  0  0  1  0  0  0  0  0  0  0  0
   17.4163    2.8210   -6.6520 H   0  0  0  1  0  0  0  0  0  0  0  0
   16.6479    1.4903   -4.2667 C   0  0  0  1  0  0  0  0  0  0  0  0
   16.3033    0.6254   -3.7394 H   0  0  0  1  0  0  0  0  0  0  0  0
   16.2869    2.3720   -3.7796 H   0  0  0  1  0  0  0  0  0  0  0  0
   17.7178    1.4998   -4.2753 H   0  0  0  1  0  0  0  0  0  0  0  0
   15.8739    3.9271   -5.6933 C   0  0  0  1  0  0  0  0  0  0  0  0
   16.2005    3.8306   -4.6789 H   0  0  0  1  0  0  0  0  0  0  0  0
   14.8044    3.9252   -5.7259 H   0  0  0  1  0  0  0  0  0  0  0  0
   16.3487    5.2492   -6.2070 C   0  0  0  1  0  0  0  0  0  0  0  0
   17.3782    5.3950   -6.2301 H   0  0  0  1  0  0  0  0  0  0  0  0
   15.5952    6.2612   -6.6385 C   0  0  0  1  0  0  0  0  0  0  0  0
   14.1463    6.0321   -6.9571 C   0  0  0  1  0  0  0  0  0  0  0  0
   13.7783    6.9003   -7.4628 H   0  0  0  1  0  0  0  0  0  0  0  0
   13.6210    5.9073   -6.0334 H   0  0  0  1  0  0  0  0  0  0  0  0
   16.0955    7.6875   -6.7319 C   0  0  0  1  0  0  0  0  0  0  0  0
   16.1313    7.9869   -7.7586 H   0  0  0  1  0  0  0  0  0  0  0  0
   17.0759    7.7498   -6.3081 H   0  0  0  1  0  0  0  0  0  0  0  0
   15.4326    8.3335   -6.1952 H   0  0  0  1  0  0  0  0  0  0  0  0
   13.8545    4.8222   -7.8297 C   0  0  0  1  0  0  0  0  0  0  0  0
   14.1476    3.9407   -7.2987 H   0  0  0  1  0  0  0  0  0  0  0  0
   14.4280    4.9047   -8.7292 H   0  0  0  1  0  0  0  0  0  0  0  0
   12.4003    4.6981   -8.1984 C   0  0  0  1  0  0  0  0  0  0  0  0
   12.1155    5.1142   -9.1080 H   0  0  0  1  0  0  0  0  0  0  0  0
   11.4411    4.1147   -7.4878 C   0  0  0  1  0  0  0  0  0  0  0  0
   11.6937    3.3334   -6.2294 C   0  0  0  1  0  0  0  0  0  0  0  0
   12.5505    2.7108   -6.3814 H   0  0  0  1  0  0  0  0  0  0  0  0
   10.8384    2.7219   -6.0308 H   0  0  0  1  0  0  0  0  0  0  0  0
   10.0000    4.1946   -7.8990 C   0  0  0  1  0  0  0  0  0  0  0  0
    9.9141    4.7866   -8.7861 H   0  0  0  1  0  0  0  0  0  0  0  0
    9.4297    4.6448   -7.1135 H   0  0  0  1  0  0  0  0  0  0  0  0
    9.6289    3.2095   -8.0905 H   0  0  0  1  0  0  0  0  0  0  0  0
   11.9471    4.2184   -5.0199 C   0  0  0  1  0  0  0  0  0  0  0  0
   11.2128    4.9967   -5.0207 H   0  0  0  1  0  0  0  0  0  0  0  0
   12.9220    4.6471   -5.1230 H   0  0  0  1  0  0  0  0  0  0  0  0
   11.8845    3.5224   -3.6866 C   0  0  0  1  0  0  0  0  0  0  0  0
   12.4476    2.6533   -3.5905 H   0  0  0  1  0  0  0  0  0  0  0  0
   11.1853    3.8992   -2.6156 C   0  0  0  1  0  0  0  0  0  0  0  0
   11.2407    3.0773   -1.3572 C   0  0  0  1  0  0  0  0  0  0  0  0
   11.0910    3.7262   -0.5197 H   0  0  0  1  0  0  0  0  0  0  0  0
   12.2074    2.6236   -1.2891 H   0  0  0  1  0  0  0  0  0  0  0  0
   10.3994    5.1920   -2.5501 C   0  0  0  1  0  0  0  0  0  0  0  0
    9.3718    4.9067   -2.6371 H   0  0  0  1  0  0  0  0  0  0  0  0
   10.6771    5.8394   -3.3554 H   0  0  0  1  0  0  0  0  0  0  0  0
   10.5721    5.6876   -1.6176 H   0  0  0  1  0  0  0  0  0  0  0  0
   10.1879    1.9818   -1.3148 C   0  0  0  1  0  0  0  0  0  0  0  0
   10.3931    1.2680   -2.0850 H   0  0  0  1  0  0  0  0  0  0  0  0
    9.2235    2.4156   -1.4775 H   0  0  0  1  0  0  0  0  0  0  0  0
   10.1967    1.2911    0.0067 C   0  0  0  1  0  0  0  0  0  0  0  0
   11.1334    1.1885    0.4467 H   0  0  0  1  0  0  0  0  0  0  0  0
    9.1857    0.7877    0.7048 C   0  0  0  1  0  0  0  0  0  0  0  0
    7.7665    0.9315    0.2376 C   0  0  0  1  0  0  0  0  0  0  0  0
    7.7552    1.1387   -0.8120 H   0  0  0  1  0  0  0  0  0  0  0  0
    7.2975    1.7359    0.7648 H   0  0  0  1  0  0  0  0  0  0  0  0
    7.2350    0.0223    0.4272 H   0  0  0  1  0  0  0  0  0  0  0  0
    9.3499    0.0388    2.0050 C   0  0  0  1  0  0  0  0  0  0  0  0
    8.7766   -0.8615    1.9296 H   0  0  0  1  0  0  0  0  0  0  0  0
    8.9905    0.6344    2.8180 H   0  0  0  1  0  0  0  0  0  0  0  0
   10.3816   -0.1968    2.1636 H   0  0  0  1  0  0  0  0  0  0  0  0
   15.9327   -5.2428   -1.6309 C   0  0  0  1  0  0  0  0  0  0  0  0
   16.0962   -5.7955   -0.7294 H   0  0  0  1  0  0  0  0  0  0  0  0
   14.7173   -5.8043   -2.3572 C   0  0  0  1  0  0  0  0  0  0  0  0
   14.8981   -6.8233   -2.6289 H   0  0  0  1  0  0  0  0  0  0  0  0
   15.7040   -3.8681   -1.3122 O   0  0  0  1  0  0  0  0  0  0  0  0
   14.4760   -4.9684   -3.6182 C   0  0  0  1  0  0  0  0  0  0  0  0
   13.5485   -5.2702   -4.0580 H   0  0  0  1  0  0  0  0  0  0  0  0
   15.6072   -3.0450   -2.4850 C   0  0  0  1  0  0  0  0  0  0  0  0
   16.5022   -3.1439   -3.0629 H   0  0  0  1  0  0  0  0  0  0  0  0
   14.4143   -3.4797   -3.3234 C   0  0  0  1  0  0  0  0  0  0  0  0
   14.4190   -2.9389   -4.2467 H   0  0  0  1  0  0  0  0  0  0  0  0
   17.0777   -5.3512   -2.4687 O   0  0  0  1  0  0  0  0  0  0  0  0
   13.5720   -5.7337   -1.5059 O   0  0  0  1  0  0  0  0  0  0  0  0
   13.7885   -5.2284   -0.7188 H   0  0  0  1  0  0  0  0  0  0  0  0
   15.5350   -5.2084   -4.5336 O   0  0  0  1  0  0  0  0  0  0  0  0
   16.2500   -4.5902   -4.3656 H   0  0  0  1  0  0  0  0  0  0  0  0
   15.4293   -1.5938   -2.0692 C   0  0  0  1  0  0  0  0  0  0  0  0
   16.3882   -1.1524   -1.8941 H   0  0  0  1  0  0  0  0  0  0  0  0
   14.8471   -1.5487   -1.1727 H   0  0  0  1  0  0  0  0  0  0  0  0
   14.9276   -1.0588   -2.8483 H   0  0  0  1  0  0  0  0  0  0  0  0
   19.7611   -6.4944   -2.5881 C   0  0  0  1  0  0  0  0  0  0  0  0
   19.6418   -5.5591   -2.0823 H   0  0  0  1  0  0  0  0  0  0  0  0
   18.7028   -6.6301   -3.6485 C   0  0  0  1  0  0  0  0  0  0  0  0
   18.8512   -7.5451   -4.1830 H   0  0  0  1  0  0  0  0  0  0  0  0
   19.6325   -7.5532   -1.6589 O   0  0  0  1  0  0  0  0  0  0  0  0
   17.3430   -6.6398   -3.0127 C   0  0  0  1  0  0  0  0  0  0  0  0
   16.6118   -6.8698   -3.7593 H   0  0  0  1  0  0  0  0  0  0  0  0
   18.3959   -7.4629   -0.9289 C   0  0  0  1  0  0  0  0  0  0  0  0
   18.3647   -8.2199   -0.1733 H   0  0  0  1  0  0  0  0  0  0  0  0
   17.2559   -7.6664   -1.9076 C   0  0  0  1  0  0  0  0  0  0  0  0
   16.3233   -7.5580   -1.3944 H   0  0  0  1  0  0  0  0  0  0  0  0
   18.7967   -5.5082   -4.5706 N   0  0  0  1  0  0  0  0  0  0  0  0
   18.2689   -4.7024   -4.3903 H   0  0  0  1  0  0  0  0  0  0  0  0
   17.3411   -8.9726   -2.4678 O   0  0  0  1  0  0  0  0  0  0  0  0
   17.3509   -8.8592   -3.4210 H   0  0  0  1  0  0  0  0  0  0  0  0
   18.2809   -6.1099   -0.2879 C   0  0  0  1  0  0  0  0  0  0  0  0
   17.3574   -6.0480    0.2490 H   0  0  0  1  0  0  0  0  0  0  0  0
   18.3051   -5.3544   -1.0452 H   0  0  0  1  0  0  0  0  0  0  0  0
   19.3664   -5.9121    0.6130 O   0  0  0  1  0  0  0  0  0  0  0  0
   19.3006   -6.5679    1.3110 H   0  0  0  1  0  0  0  0  0  0  0  0
   19.5773   -5.5385   -5.6545 C   0  0  0  1  0  0  0  0  0  0  0  0
   20.2470   -6.5249   -5.9582 O   0  0  0  1  0  0  0  0  0  0  0  0
   19.6783   -4.2498   -6.4470 C   0  0  0  1  0  0  0  0  0  0  0  0
   19.2967   -4.5014   -7.4144 H   0  0  0  1  0  0  0  0  0  0  0  0
   20.6958   -3.9255   -6.5142 H   0  0  0  1  0  0  0  0  0  0  0  0
   19.0874   -3.4805   -5.9954 H   0  0  0  1  0  0  0  0  0  0  0  0
  1  2  1  0  0  0  0
  1  3  1  0  0  0  0
  1  4  1  0  0  0  0
  1 44  1  0  0  0  0
  3 20  1  0  0  0  0
  4  5  1  0  0  0  0
  4  6  1  0  0  0  0
  4  8  1  0  0  0  0
  6  7  1  0  0  0  0
  8  9  1  0  0  0  0
  8 10  1  0  0  0  0
  8 20  1  0  0  0  0
 10 11  1  0  0  0  0
 12 13  1  0  0  0  0
 12 14  1  0  0  0  0
 12 15  1  0  0  0  0
 12 17  1  0  0  0  0
 15 16  1  0  0  0  0
 17 18  1  0  0  0  0
 17 19  1  0  0  0  0
 17 20  1  0  0  0  0
 19 22  1  0  0  0  0
 20 21  1  0  0  0  0
 22 23  1  0  0  0  0
 22 24  1  0  0  0  0
 22 25  1  0  0  0  0
 24 42  1  0  0  0  0
 25 26  1  0  0  0  0
 25 27  1  0  0  0  0
 25 29  1  0  0  0  0
 27 28  1  0  0  0  0
 29 30  1  0  0  0  0
 29 31  1  0  0  0  0
 29 42  1  0  0  0  0
 31 32  1  0  0  0  0
 33 34  1  0  0  0  0
 33 35  1  0  0  0  0
 33 36  1  0  0  0  0
 33 38  1  0  0  0  0
 36 37  1  0  0  0  0
 38 39  1  0  0  0  0
 38 40  1  0  0  0  0
 38 42  1  0  0  0  0
 40 41  1  0  0  0  0
 42 43  1  0  0  0  0
 44194  1  0  0  0  0
 45 46  1  0  0  0  0
 45 54  1  0  0  0  0
 46 47  1  0  0  0  0
 46 48  1  0  0  0  0
 46 49  2  0  0  0  0
 47 50  1  0  0  0  0
 50 51  1  0  0  0  0
 50 52  1  0  0  0  0
 50 53  2  0  0  0  0
 51205  1  0  0  0  0
 54 55  1  0  0  0  0
 54 56  1  0  0  0  0
 54 57  1  0  0  0  0
 57 58  1  0  0  0  0
 57 59  2  0  0  0  0
 59 60  1  0  0  0  0
 59 64  1  0  0  0  0
 60 61  1  0  0  0  0
 60 62  1  0  0  0  0
 60 63  1  0  0  0  0
 64 65  1  0  0  0  0
 64 66  1  0  0  0  0
 64 67  1  0  0  0  0
 67 68  1  0  0  0  0
 67 69  1  0  0  0  0
 67 70  1  0  0  0  0
 70 71  1  0  0  0  0
 70 72  2  0  0  0  0
 72 73  1  0  0  0  0
 72 77  1  0  0  0  0
 73 74  1  0  0  0  0
 73 75  1  0  0  0  0
 73 76  1  0  0  0  0
 77 78  1  0  0  0  0
 77 79  1  0  0  0  0
 77 80  1  0  0  0  0
 80 81  1  0  0  0  0
 80 82  1  0  0  0  0
 80 83  1  0  0  0  0
 83 84  1  0  0  0  0
 83 85  2  0  0  0  0
 85 86  1  0  0  0  0
 85 89  1  0  0  0  0
 86 87  1  0  0  0  0
 86 88  1  0  0  0  0
 86 93  1  0  0  0  0
 89 90  1  0  0  0  0
 89 91  1  0  0  0  0
 89 92  1  0  0  0  0
 93 94  1  0  0  0  0
 93 95  1  0  0  0  0
 93 96  1  0  0  0  0
 96 97  1  0  0  0  0
 96 98  2  0  0  0  0
 98 99  1  0  0  0  0
 98102  1  0  0  0  0
 99100  1  0  0  0  0
 99101  1  0  0  0  0
 99106  1  0  0  0  0
102103  1  0  0  0  0
102104  1  0  0  0  0
102105  1  0  0  0  0
106107  1  0  0  0  0
106108  1  0  0  0  0
106109  1  0  0  0  0
109110  1  0  0  0  0
109111  2  0  0  0  0
111112  1  0  0  0  0
111115  1  0  0  0  0
112113  1  0  0  0  0
112114  1  0  0  0  0
112119  1  0  0  0  0
115116  1  0  0  0  0
115117  1  0  0  0  0
115118  1  0  0  0  0
119120  1  0  0  0  0
119121  1  0  0  0  0
119122  1  0  0  0  0
122123  1  0  0  0  0
122124  2  0  0  0  0
124125  1  0  0  0  0
124128  1  0  0  0  0
125126  1  0  0  0  0
125127  1  0  0  0  0
125132  1  0  0  0  0
128129  1  0  0  0  0
128130  1  0  0  0  0
128131  1  0  0  0  0
132133  1  0  0  0  0
132134  1  0  0  0  0
132135  1  0  0  0  0
135136  1  0  0  0  0
135137  2  0  0  0  0
137138  1  0  0  0  0
137141  1  0  0  0  0
138139  1  0  0  0  0
138140  1  0  0  0  0
138145  1  0  0  0  0
141142  1  0  0  0  0
141143  1  0  0  0  0
141144  1  0  0  0  0
145146  1  0  0  0  0
145147  1  0  0  0  0
145148  1  0  0  0  0
148149  1  0  0  0  0
148150  2  0  0  0  0
150151  1  0  0  0  0
150154  1  0  0  0  0
151152  1  0  0  0  0
151153  1  0  0  0  0
151158  1  0  0  0  0
154155  1  0  0  0  0
154156  1  0  0  0  0
154157  1  0  0  0  0
158159  1  0  0  0  0
158160  1  0  0  0  0
158161  1  0  0  0  0
161162  1  0  0  0  0
161163  2  0  0  0  0
163164  1  0  0  0  0
163167  1  0  0  0  0
164165  1  0  0  0  0
164166  1  0  0  0  0
164171  1  0  0  0  0
167168  1  0  0  0  0
167169  1  0  0  0  0
167170  1  0  0  0  0
171172  1  0  0  0  0
171173  1  0  0  0  0
171174  1  0  0  0  0
174175  1  0  0  0  0
174176  2  0  0  0  0
176177  1  0  0  0  0
176181  1  0  0  0  0
177178  1  0  0  0  0
177179  1  0  0  0  0
177180  1  0  0  0  0
181182  1  0  0  0  0
181183  1  0  0  0  0
181184  1  0  0  0  0
185186  1  0  0  0  0
185187  1  0  0  0  0
185189  1  0  0  0  0
185196  1  0  0  0  0
187188  1  0  0  0  0
187190  1  0  0  0  0
187197  1  0  0  0  0
189192  1  0  0  0  0
190191  1  0  0  0  0
190194  1  0  0  0  0
190199  1  0  0  0  0
192193  1  0  0  0  0
192194  1  0  0  0  0
192201  1  0  0  0  0
194195  1  0  0  0  0
196210  1  0  0  0  0
197198  1  0  0  0  0
199200  1  0  0  0  0
201202  1  0  0  0  0
201203  1  0  0  0  0
201204  1  0  0  0  0
205206  1  0  0  0  0
205207  1  0  0  0  0
205209  1  0  0  0  0
207208  1  0  0  0  0
207210  1  0  0  0  0
207216  1  0  0  0  0
209212  1  0  0  0  0
210211  1  0  0  0  0
210214  1  0  0  0  0
212213  1  0  0  0  0
212214  1  0  0  0  0
212220  1  0  0  0  0
214215  1  0  0  0  0
214218  1  0  0  0  0
216217  1  0  0  0  0
216225  1  0  0  0  0
218219  1  0  0  0  0
220221  1  0  0  0  0
220222  1  0  0  0  0
220223  1  0  0  0  0
223224  1  0  0  0  0
225226  2  0  0  0  0
225227  1  0  0  0  0
227228  1  0  0  0  0
227229  1  0  0  0  0
227230  1  0  0  0  0
M  BCL ATM C_TeTeTeTe H_S O_Te2Te2TeTe C_TeTeTeTe H_S O_Te2Te2TeTe H_S C_TeTeTeTe H_S O_Te2Te2TeTe H_S C_TeTeTeTe H_S H_S O_Te2Te2TeTe H_S C_TeTeTeTe H_S O_Te2Te2TeTe C_TeTeTeTe H_S C_TeTeTeTe H_S O_Te2Te2TeTe C_TeTeTeTe H_S O_Te2Te2TeTe H_S C_TeTeTeTe H_S O_Te2Te2TeTe H_S C_TeTeTeTe H_S H_S O_Te2Te2TeTe H_S C_TeTeTeTe H_S O_Te2Te2TeTe H_S C_TeTeTeTe H_S O_Te2Te2TeTe O_Tr2TrTrPi2 P_TeTeTeTePi O_Tr2TrTrPi2 O_Te2Te2TeTe O_Tr2Tr2TrPi P_TeTeTeTePi O_Tr2TrTrPi2 O_Te2Te2TeTe O_Tr2Tr2TrPi C_TeTeTeTe H_S H_S C_TrTrTrPi H_S C_TrTrTrPi C_TeTeTeTe H_S H_S H_S C_TeTeTeTe H_S H_S C_TeTeTeTe H_S H_S C_TrTrTrPi H_S C_TrTrTrPi C_TeTeTeTe H_S H_S H_S C_TeTeTeTe H_S H_S C_TeTeTeTe H_S H_S C_TrTrTrPi H_S C_TrTrTrPi C_TeTeTeTe H_S H_S C_TeTeTeTe H_S H_S H_S C_TeTeTeTe H_S H_S C_TrTrTrPi H_S C_TrTrTrPi C_TeTeTeTe H_S H_S C_TeTeTeTe H_S H_S H_S C_TeTeTeTe H_S H_S C_TrTrTrPi H_S C_TrTrTrPi C_TeTeTeTe H_S H_S C_TeTeTeTe H_S H_S H_S C_TeTeTeTe H_S H_S C_TrTrTrPi H_S C_TrTrTrPi C_TeTeTeTe H_S H_S C_TeTeTeTe H_S H_S H_S C_TeTeTeTe H_S H_S C_TrTrTrPi H_S C_TrTrTrPi C_TeTeTeTe H_S H_S C_TeTeTeTe H_S H_S H_S C_TeTeTeTe H_S H_S C_TrTrTrPi H_S C_TrTrTrPi C_TeTeTeTe H_S H_S C_TeTeTeTe H_S H_S H_S C_TeTeTeTe H_S H_S C_TrTrTrPi H_S C_TrTrTrPi C_TeTeTeTe H_S H_S C_TeTeTeTe H_S H_S H_S C_TeTeTeTe H_S H_S C_TrTrTrPi H_S C_TrTrTrPi C_TeTeTeTe H_S H_S H_S C_TeTeTeTe H_S H_S H_S C_TeTeTeTe H_S C_TeTeTeTe H_S O_Te2Te2TeTe C_TeTeTeTe H_S C_TeTeTeTe H_S C_TeTeTeTe H_S O_Te2Te2TeTe O_Te2Te2TeTe H_S O_Te2Te2TeTe H_S C_TeTeTeTe H_S H_S H_S C_TeTeTeTe H_S C_TeTeTeTe H_S O_Te2Te2TeTe C_TeTeTeTe H_S C_TeTeTeTe H_S C_TeTeTeTe H_S N_TrTrTrPi2 H_S O_Te2Te2TeTe H_S C_TeTeTeTe H_S H_S O_Te2Te2TeTe H_S C_TrTrTrPi O_Tr2Tr2TrPi C_TeTeTeTe H_S H_S H_S
M  BCL BND NonConjugatedSingleBond NonConjugatedSingleBondInRing NonConjugatedSingleBondInRing NonConjugatedSingleBond NonConjugatedSingleBondInRing NonConjugatedSingleBond NonConjugatedSingleBond NonConjugatedSingleBondInRing NonConjugatedSingleBond NonConjugatedSingleBond NonConjugatedSingleBond NonConjugatedSingleBondInRing NonConjugatedSingleBond NonConjugatedSingleBond NonConjugatedSingleBond NonConjugatedSingleBond NonConjugatedSingleBond NonConjugatedSingleBond NonConjugatedSingleBond NonConjugatedSingleBond NonConjugatedSingleBond NonConjugatedSingleBond NonConjugatedSingleBond NonConjugatedSingleBond NonConjugatedSingleBondInRing NonConjugatedSingleBondInRing NonConjugatedSingleBondInRing NonConjugatedSingleBond NonConjugatedSingleBond NonConjugatedSingleBondInRing NonConjugatedSingleBond NonConjugatedSingleBond NonConjugatedSingleBond NonConjugatedSingleBondInRing NonConjugatedSingleBond NonConjugatedSingleBond NonConjugatedSingleBond NonConjugatedSingleBond NonConjugatedSingleBond NonConjugatedSingleBond NonConjugatedSingleBond NonConjugatedSingleBond NonConjugatedSingleBond NonConjugatedSingleBond NonConjugatedSingleBond NonConjugatedSingleBond ConjugatedSingleBond NonConjugatedSingleBond ConjugatedSingleBond ConjugatedSingleBond ConjugatedDoubleBond ConjugatedSingleBond ConjugatedSingleBond ConjugatedSingleBond ConjugatedDoubleBond NonConjugatedSingleBond NonConjugatedSingleBond NonConjugatedSingleBond NonConjugatedSingleBond NonConjugatedSingleBond ConjugatedDoubleBond NonConjugatedSingleBond NonConjugatedSingleBond NonConjugatedSingleBond NonConjugatedSingleBond NonConjugatedSingleBond NonConjugatedSingleBond NonConjugatedSingleBond NonConjugatedSingleBond NonConjugatedSingleBond NonConjugatedSingleBond NonConjugatedSingleBond NonConjugatedSingleBond ConjugatedDoubleBond NonConjugatedSingleBond NonConjugatedSingleBond NonConjugatedSingleBond NonConjugatedSingleBond NonConjugatedSingleBond NonConjugatedSingleBond NonConjugatedSingleBond NonConjugatedSingleBond NonConjugatedSingleBond NonConjugatedSingleBond NonConjugatedSingleBond NonConjugatedSingleBond ConjugatedDoubleBond NonConjugatedSingleBond NonConjugatedSingleBond NonConjugatedSingleBond NonConjugatedSingleBond NonConjugatedSingleBond NonConjugatedSingleBond NonConjugatedSingleBond NonConjugatedSingleBond NonConjugatedSingleBond NonConjugatedSingleBond NonConjugatedSingleBond NonConjugatedSingleBond ConjugatedDoubleBond NonConjugatedSingleBond NonConjugatedSingleBond NonConjugatedSingleBond NonConjugatedSingleBond NonConjugatedSingleBond NonConjugatedSingleBond NonConjugatedSingleBond NonConjugatedSingleBond NonConjugatedSingleBond NonConjugatedSingleBond NonConjugatedSingleBond NonConjugatedSingleBond ConjugatedDoubleBond NonConjugatedSingleBond NonConjugatedSingleBond NonConjugatedSingleBond NonConjugatedSingleBond NonConjugatedSingleBond NonConjugatedSingleBond NonConjugatedSingleBond NonConjugatedSingleBond NonConjugatedSingleBond NonConjugatedSingleBond NonConjugatedSingleBond NonConjugatedSingleBond ConjugatedDoubleBond NonConjugatedSingleBond NonConjugatedSingleBond NonConjugatedSingleBond NonConjugatedSingleBond NonConjugatedSingleBond NonConjugatedSingleBond NonConjugatedSingleBond NonConjugatedSingleBond NonConjugatedSingleBond NonConjugatedSingleBond NonConjugatedSingleBond NonConjugatedSingleBond ConjugatedDoubleBond NonConjugatedSingleBond NonConjugatedSingleBond NonConjugatedSingleBond NonConjugatedSingleBond NonConjugatedSingleBond NonConjugatedSingleBond NonConjugatedSingleBond NonConjugatedSingleBond NonConjugatedSingleBond NonConjugatedSingleBond NonConjugatedSingleBond NonConjugatedSingleBond ConjugatedDoubleBond NonConjugatedSingleBond NonConjugatedSingleBond NonConjugatedSingleBond NonConjugatedSingleBond NonConjugatedSingleBond NonConjugatedSingleBond NonConjugatedSingleBond NonConjugatedSingleBond NonConjugatedSingleBond NonConjugatedSingleBond NonConjugatedSingleBond NonConjugatedSingleBond ConjugatedDoubleBond NonConjugatedSingleBond NonConjugatedSingleBond NonConjugatedSingleBond NonConjugatedSingleBond NonConjugatedSingleBond NonConjugatedSingleBond NonConjugatedSingleBond NonConjugatedSingleBond NonConjugatedSingleBond NonConjugatedSingleBond NonConjugatedSingleBond NonConjugatedSingleBond ConjugatedDoubleBond NonConjugatedSingleBond NonConjugatedSingleBond NonConjugatedSingleBond NonConjugatedSingleBond NonConjugatedSingleBond NonConjugatedSingleBond NonConjugatedSingleBond NonConjugatedSingleBond NonConjugatedSingleBond NonConjugatedSingleBondInRing NonConjugatedSingleBondInRing NonConjugatedSingleBond NonConjugatedSingleBond NonConjugatedSingleBondInRing NonConjugatedSingleBond NonConjugatedSingleBondInRing NonConjugatedSingleBond NonConjugatedSingleBondInRing NonConjugatedSingleBond NonConjugatedSingleBond NonConjugatedSingleBondInRing NonConjugatedSingleBond NonConjugatedSingleBond NonConjugatedSingleBond NonConjugatedSingleBond NonConjugatedSingleBond NonConjugatedSingleBond NonConjugatedSingleBond NonConjugatedSingleBond NonConjugatedSingleBond NonConjugatedSingleBondInRing NonConjugatedSingleBondInRing NonConjugatedSingleBond NonConjugatedSingleBondInRing NonConjugatedSingleBond NonConjugatedSingleBondInRing NonConjugatedSingleBond NonConjugatedSingleBondInRing NonConjugatedSingleBond NonConjugatedSingleBondInRing NonConjugatedSingleBond NonConjugatedSingleBond NonConjugatedSingleBond NonConjugatedSingleBond AmideSingleBond NonConjugatedSingleBond NonConjugatedSingleBond NonConjugatedSingleBond NonConjugatedSingleBond NonConjugatedSingleBond ConjugatedDoubleBond NonConjugatedSingleBond NonConjugatedSingleBond NonConjugatedSingleBond NonConjugatedSingleBond
M  BCL CHI   1   R   4   R   8   R  17   S  20   R  22   S  25   R  29   S  38   S  42   R  46   R  50   S 185   R 187   S 190   S 192   R 194   R 205   R 207   S 210   R 212   S 214   S
M  BCL DBI - - E E E E E E E E Z - -
M  END
> <ConfClashScore>
0.0100775 

> <ConfOneFourInteractionScore>
-0.97904 

> <ConfScore>
1.08325 

> <ConfScorePBest>
0.0095365 

> <ConfTolerance>
2.73672 

$$$$
L05.****
  PyMOL2.5          3D                             0

230233  0  0  0  0  0  0  0  0999 V2000
   12.1229   -3.7740   -3.1703 C   0  0  0  1  0  0  0  0  0  0  0  0
   12.1684   -4.8337   -3.0289 H   0  0  0  1  0  0  0  0  0  0  0  0
   12.0419   -3.4629   -4.5453 O   0  0  0  1  0  0  0  0  0  0  0  0
   10.8568   -3.2105   -2.5509 C   0  0  0  1  0  0  0  0  0  0  0  0
   11.0102   -2.9516   -1.5241 H   0  0  0  1  0  0  0  0  0  0  0  0
    9.7811   -4.1321   -2.6520 O   0  0  0  1  0  0  0  0  0  0  0  0
    9.7491   -4.6752   -1.8611 H   0  0  0  1  0  0  0  0  0  0  0  0
   10.6054   -1.9846   -3.3906 C   0  0  0  1  0  0  0  0  0  0  0  0
    9.5769   -1.6916   -3.3556 H   0  0  0  1  0  0  0  0  0  0  0  0
   11.4268   -0.8918   -2.9766 O   0  0  0  1  0  0  0  0  0  0  0  0
   12.3263   -1.0338   -3.2806 H   0  0  0  1  0  0  0  0  0  0  0  0
    9.7463   -4.6233   -5.2192 C   0  0  0  1  0  0  0  0  0  0  0  0
   10.7246   -4.9931   -4.9934 H   0  0  0  1  0  0  0  0  0  0  0  0
    9.0892   -4.8279   -4.3999 H   0  0  0  1  0  0  0  0  0  0  0  0
    9.2549   -5.2413   -6.4013 O   0  0  0  1  0  0  0  0  0  0  0  0
    8.3026   -5.3444   -6.3369 H   0  0  0  1  0  0  0  0  0  0  0  0
    9.8042   -3.1233   -5.4774 C   0  0  0  1  0  0  0  0  0  0  0  0
    8.9054   -2.6737   -5.1101 H   0  0  0  1  0  0  0  0  0  0  0  0
    9.9265   -2.9035   -6.8837 O   0  0  0  1  0  0  0  0  0  0  0  0
   10.9968   -2.4806   -4.7819 C   0  0  0  1  0  0  0  0  0  0  0  0
   11.3665   -1.6736   -5.3795 H   0  0  0  1  0  0  0  0  0  0  0  0
   11.1196   -3.4125   -7.4366 C   0  0  0  1  0  0  0  0  0  0  0  0
   11.3264   -4.3743   -7.0160 H   0  0  0  1  0  0  0  0  0  0  0  0
   11.0132   -3.5013   -8.8419 O   0  0  0  1  0  0  0  0  0  0  0  0
   12.2729   -2.4607   -7.1759 C   0  0  0  1  0  0  0  0  0  0  0  0
   12.7489   -2.6758   -6.2420 H   0  0  0  1  0  0  0  0  0  0  0  0
   11.8335   -1.1009   -7.1852 O   0  0  0  1  0  0  0  0  0  0  0  0
   11.2515   -0.9471   -6.4375 H   0  0  0  1  0  0  0  0  0  0  0  0
   13.1932   -2.7443   -8.3351 C   0  0  0  1  0  0  0  0  0  0  0  0
   13.7741   -3.6268   -8.1655 H   0  0  0  1  0  0  0  0  0  0  0  0
   14.0622   -1.6446   -8.5901 O   0  0  0  1  0  0  0  0  0  0  0  0
   13.5596   -0.8270   -8.5671 H   0  0  0  1  0  0  0  0  0  0  0  0
   14.0611   -3.4200  -11.1070 C   0  0  0  1  0  0  0  0  0  0  0  0
   14.8685   -3.6795  -10.4546 H   0  0  0  1  0  0  0  0  0  0  0  0
   14.2074   -3.8859  -12.0591 H   0  0  0  1  0  0  0  0  0  0  0  0
   14.0225   -2.0098  -11.2725 O   0  0  0  1  0  0  0  0  0  0  0  0
   14.4903   -1.5891  -10.5474 H   0  0  0  1  0  0  0  0  0  0  0  0
   12.7499   -3.9011  -10.5048 C   0  0  0  1  0  0  0  0  0  0  0  0
   12.9178   -4.8472  -10.0341 H   0  0  0  1  0  0  0  0  0  0  0  0
   11.8300   -4.0539  -11.5853 O   0  0  0  1  0  0  0  0  0  0  0  0
   11.9986   -3.3796  -12.2475 H   0  0  0  1  0  0  0  0  0  0  0  0
   12.1964   -2.9436   -9.4760 C   0  0  0  1  0  0  0  0  0  0  0  0
   11.9679   -2.0090   -9.9443 H   0  0  0  1  0  0  0  0  0  0  0  0
   13.2722   -3.1678   -2.5905 O   0  0  0  1  0  0  0  0  0  0  0  0
   18.8126    2.4053    0.6894 O   0  0  0  1  0  0  0  0  0  0  0  0
   19.1675    1.2850    1.7756 P   0  0  0  1  0  0  0  0  0  0  0  0
   19.1685   -0.0925    0.9487 O   0  0  0  1  0  0  0  0  0  0  0  0
   18.0682    1.1236    2.7493 O   0  0  0  0  0  0  0  0  0  0  0  0
   20.5257    1.6153    2.2365 O   0  0  0  1  0  0  0  0  0  0  0  0
   20.2210   -1.3182    0.8695 P   0  0  0  1  0  0  0  0  0  0  0  0
   19.5201   -2.3029   -0.1381 O   0  0  0  1  0  0  0  0  0  0  0  0
   20.3611   -1.8715    2.2604 O   0  0  0  0  0  0  0  0  0  0  0  0
   21.4605   -0.8001    0.3227 O   0  0  0  1  0  0  0  0  0  0  0  0
   18.0802    3.6003    1.0653 C   0  0  0  1  0  0  0  0  0  0  0  0
   18.5451    4.4666    0.6431 H   0  0  0  1  0  0  0  0  0  0  0  0
   18.0493    3.6949    2.1306 H   0  0  0  1  0  0  0  0  0  0  0  0
   16.6883    3.4389    0.5176 C   0  0  0  1  0  0  0  0  0  0  0  0
   16.1443    2.6241    0.8667 H   0  0  0  1  0  0  0  0  0  0  0  0
   16.0791    4.2237   -0.3631 C   0  0  0  1  0  0  0  0  0  0  0  0
   14.5955    4.1501   -0.5793 C   0  0  0  1  0  0  0  0  0  0  0  0
   14.3171    4.8102   -1.3741 H   0  0  0  1  0  0  0  0  0  0  0  0
   14.0897    4.4396    0.3181 H   0  0  0  1  0  0  0  0  0  0  0  0
   14.3220    3.1480   -0.8360 H   0  0  0  1  0  0  0  0  0  0  0  0
   16.7887    5.2400   -1.2129 C   0  0  0  1  0  0  0  0  0  0  0  0
   17.0640    6.0757   -0.6040 H   0  0  0  1  0  0  0  0  0  0  0  0
   16.1315    5.5666   -1.9915 H   0  0  0  1  0  0  0  0  0  0  0  0
   18.0404    4.6429   -1.8349 C   0  0  0  1  0  0  0  0  0  0  0  0
   17.7654    3.7595   -2.3725 H   0  0  0  1  0  0  0  0  0  0  0  0
   18.7214    4.3862   -1.0505 H   0  0  0  1  0  0  0  0  0  0  0  0
   18.7300    5.5780   -2.7769 C   0  0  0  1  0  0  0  0  0  0  0  0
   19.0414    6.4965   -2.4012 H   0  0  0  1  0  0  0  0  0  0  0  0
   18.9764    5.3207   -4.0687 C   0  0  0  1  0  0  0  0  0  0  0  0
   19.9667    6.1924   -4.8083 C   0  0  0  1  0  0  0  0  0  0  0  0
   19.8442    7.2105   -4.5028 H   0  0  0  1  0  0  0  0  0  0  0  0
   19.7944    6.1131   -5.8613 H   0  0  0  1  0  0  0  0  0  0  0  0
   20.9621    5.8703   -4.5840 H   0  0  0  1  0  0  0  0  0  0  0  0
   18.3067    4.1978   -4.8149 C   0  0  0  1  0  0  0  0  0  0  0  0
   17.9867    4.5652   -5.7676 H   0  0  0  1  0  0  0  0  0  0  0  0
   17.4558    3.8749   -4.2524 H   0  0  0  1  0  0  0  0  0  0  0  0
   19.2202    3.0037   -5.0389 C   0  0  0  1  0  0  0  0  0  0  0  0
   19.6986    2.7625   -4.1127 H   0  0  0  1  0  0  0  0  0  0  0  0
   19.9600    3.2721   -5.7638 H   0  0  0  1  0  0  0  0  0  0  0  0
   18.4870    1.7847   -5.5312 C   0  0  0  1  0  0  0  0  0  0  0  0
   17.6544    1.4732   -4.9915 H   0  0  0  1  0  0  0  0  0  0  0  0
   18.8273    1.0706   -6.6133 C   0  0  0  1  0  0  0  0  0  0  0  0
   20.0093    1.4186   -7.4758 C   0  0  0  1  0  0  0  0  0  0  0  0
   20.6229    0.5463   -7.5624 H   0  0  0  1  0  0  0  0  0  0  0  0
   20.5589    2.1945   -6.9852 H   0  0  0  1  0  0  0  0  0  0  0  0
   17.9956   -0.1259   -6.9809 C   0  0  0  1  0  0  0  0  0  0  0  0
   18.2746   -0.9569   -6.3673 H   0  0  0  1  0  0  0  0  0  0  0  0
   18.1592   -0.3714   -8.0094 H   0  0  0  1  0  0  0  0  0  0  0  0
   16.9607    0.0988   -6.8276 H   0  0  0  1  0  0  0  0  0  0  0  0
   19.6736    1.8970   -8.8790 C   0  0  0  1  0  0  0  0  0  0  0  0
   20.5579    2.3261   -9.3018 H   0  0  0  1  0  0  0  0  0  0  0  0
   18.9153    2.6477   -8.7992 H   0  0  0  1  0  0  0  0  0  0  0  0
   19.1809    0.8419   -9.8143 C   0  0  0  1  0  0  0  0  0  0  0  0
   19.4036   -0.1512   -9.6008 H   0  0  0  1  0  0  0  0  0  0  0  0
   18.4690    1.1109  -10.9103 C   0  0  0  1  0  0  0  0  0  0  0  0
   17.8293    2.4584  -11.1131 C   0  0  0  1  0  0  0  0  0  0  0  0
   17.8473    2.9765  -10.1770 H   0  0  0  1  0  0  0  0  0  0  0  0
   16.8148    2.3002  -11.4143 H   0  0  0  1  0  0  0  0  0  0  0  0
   18.2774    0.0811  -11.9849 C   0  0  0  1  0  0  0  0  0  0  0  0
   17.4010    0.3156  -12.5523 H   0  0  0  1  0  0  0  0  0  0  0  0
   18.1645   -0.8843  -11.5374 H   0  0  0  1  0  0  0  0  0  0  0  0
   19.1301    0.0776  -12.6313 H   0  0  0  1  0  0  0  0  0  0  0  0
   18.4943    3.3455  -12.1529 C   0  0  0  1  0  0  0  0  0  0  0  0
   17.9211    4.2436  -12.2511 H   0  0  0  1  0  0  0  0  0  0  0  0
   18.5056    2.8249  -13.0876 H   0  0  0  1  0  0  0  0  0  0  0  0
   19.9084    3.7164  -11.7940 C   0  0  0  1  0  0  0  0  0  0  0  0
   20.0798    4.0925  -10.8396 H   0  0  0  1  0  0  0  0  0  0  0  0
   20.9550    3.5991  -12.6065 C   0  0  0  1  0  0  0  0  0  0  0  0
   20.9144    3.0805  -14.0146 C   0  0  0  1  0  0  0  0  0  0  0  0
   20.0881    2.4054  -14.0940 H   0  0  0  1  0  0  0  0  0  0  0  0
   21.8264    2.5519  -14.1981 H   0  0  0  1  0  0  0  0  0  0  0  0
   22.3158    4.0082  -12.1174 C   0  0  0  1  0  0  0  0  0  0  0  0
   22.6939    4.7978  -12.7325 H   0  0  0  1  0  0  0  0  0  0  0  0
   22.9789    3.1698  -12.1660 H   0  0  0  1  0  0  0  0  0  0  0  0
   22.2435    4.3481  -11.1054 H   0  0  0  1  0  0  0  0  0  0  0  0
   20.7606    4.1390  -15.0946 C   0  0  0  1  0  0  0  0  0  0  0  0
   21.6106    4.1173  -15.7441 H   0  0  0  1  0  0  0  0  0  0  0  0
   20.6809    5.1057  -14.6428 H   0  0  0  1  0  0  0  0  0  0  0  0
   19.5224    3.8456  -15.8766 C   0  0  0  1  0  0  0  0  0  0  0  0
   19.3554    2.8680  -16.1896 H   0  0  0  1  0  0  0  0  0  0  0  0
   18.6245    4.7714  -16.1918 C   0  0  0  1  0  0  0  0  0  0  0  0
   18.7816    6.1969  -15.7438 C   0  0  0  1  0  0  0  0  0  0  0  0
   18.5914    6.8391  -16.5783 H   0  0  0  1  0  0  0  0  0  0  0  0
   19.7868    6.3388  -15.4057 H   0  0  0  1  0  0  0  0  0  0  0  0
   17.3928    4.5010  -17.0054 C   0  0  0  1  0  0  0  0  0  0  0  0
   16.9730    5.4278  -17.3368 H   0  0  0  1  0  0  0  0  0  0  0  0
   16.6766    3.9797  -16.4053 H   0  0  0  1  0  0  0  0  0  0  0  0
   17.6506    3.9028  -17.8543 H   0  0  0  1  0  0  0  0  0  0  0  0
   17.8343    6.5747  -14.6168 C   0  0  0  1  0  0  0  0  0  0  0  0
   18.0498    5.9710  -13.7601 H   0  0  0  1  0  0  0  0  0  0  0  0
   16.8267    6.4005  -14.9322 H   0  0  0  1  0  0  0  0  0  0  0  0
   17.9925    8.0249  -14.2507 C   0  0  0  1  0  0  0  0  0  0  0  0
   18.0278    8.7011  -15.0400 H   0  0  0  1  0  0  0  0  0  0  0  0
   18.0921    8.5353  -13.0291 C   0  0  0  1  0  0  0  0  0  0  0  0
   17.7297    7.7306  -11.8149 C   0  0  0  1  0  0  0  0  0  0  0  0
   18.6006    7.6282  -11.2017 H   0  0  0  1  0  0  0  0  0  0  0  0
   17.4011    6.7632  -12.1330 H   0  0  0  1  0  0  0  0  0  0  0  0
   18.5645    9.9323  -12.7397 C   0  0  0  1  0  0  0  0  0  0  0  0
   19.2483   10.2432  -13.5017 H   0  0  0  1  0  0  0  0  0  0  0  0
   19.0563    9.9525  -11.7896 H   0  0  0  1  0  0  0  0  0  0  0  0
   17.7253   10.5958  -12.7217 H   0  0  0  1  0  0  0  0  0  0  0  0
   16.6265    8.3678  -10.9858 C   0  0  0  1  0  0  0  0  0  0  0  0
   15.7594    8.4812  -11.6024 H   0  0  0  1  0  0  0  0  0  0  0  0
   16.9598    9.3301  -10.6576 H   0  0  0  1  0  0  0  0  0  0  0  0
   16.2515    7.5526   -9.7771 C   0  0  0  1  0  0  0  0  0  0  0  0
   17.0031    7.0002   -9.3172 H   0  0  0  1  0  0  0  0  0  0  0  0
   15.0329    7.4863   -9.2545 C   0  0  0  1  0  0  0  0  0  0  0  0
   13.8843    8.2495   -9.8509 C   0  0  0  1  0  0  0  0  0  0  0  0
   13.0670    7.5706   -9.9772 H   0  0  0  1  0  0  0  0  0  0  0  0
   14.1936    8.6179  -10.8066 H   0  0  0  1  0  0  0  0  0  0  0  0
   14.6826    6.6660   -8.0476 C   0  0  0  1  0  0  0  0  0  0  0  0
   15.2883    6.9714   -7.2201 H   0  0  0  1  0  0  0  0  0  0  0  0
   14.8594    5.6316   -8.2562 H   0  0  0  1  0  0  0  0  0  0  0  0
   13.6502    6.8103   -7.8060 H   0  0  0  1  0  0  0  0  0  0  0  0
   13.3906    9.4301   -9.0306 C   0  0  0  1  0  0  0  0  0  0  0  0
   12.9503   10.1452   -9.6937 H   0  0  0  1  0  0  0  0  0  0  0  0
   14.2280    9.8729   -8.5329 H   0  0  0  1  0  0  0  0  0  0  0  0
   12.3792    9.0471   -8.0072 C   0  0  0  1  0  0  0  0  0  0  0  0
   12.2044    9.7841   -7.2945 H   0  0  0  1  0  0  0  0  0  0  0  0
   11.6535    7.9420   -7.8268 C   0  0  0  1  0  0  0  0  0  0  0  0
   10.9457    7.6807   -6.5304 C   0  0  0  1  0  0  0  0  0  0  0  0
    9.9133    7.4912   -6.7382 H   0  0  0  1  0  0  0  0  0  0  0  0
   11.0320    8.5509   -5.9138 H   0  0  0  1  0  0  0  0  0  0  0  0
   11.5162    6.9165   -8.9132 C   0  0  0  1  0  0  0  0  0  0  0  0
   12.4874    6.4802   -9.0190 H   0  0  0  1  0  0  0  0  0  0  0  0
   11.2129    7.3800   -9.8286 H   0  0  0  1  0  0  0  0  0  0  0  0
   10.8000    6.1715   -8.6356 H   0  0  0  1  0  0  0  0  0  0  0  0
   11.5126    6.4919   -5.7715 C   0  0  0  1  0  0  0  0  0  0  0  0
   11.4722    5.6318   -6.4067 H   0  0  0  1  0  0  0  0  0  0  0  0
   10.9103    6.3234   -4.9034 H   0  0  0  1  0  0  0  0  0  0  0  0
   12.9289    6.6962   -5.3361 C   0  0  0  1  0  0  0  0  0  0  0  0
   13.1265    7.5597   -4.7912 H   0  0  0  1  0  0  0  0  0  0  0  0
   13.9657    5.8912   -5.5707 C   0  0  0  1  0  0  0  0  0  0  0  0
   13.7773    4.6491   -6.3923 C   0  0  0  1  0  0  0  0  0  0  0  0
   14.2353    3.8194   -5.8956 H   0  0  0  1  0  0  0  0  0  0  0  0
   14.2307    4.7844   -7.3520 H   0  0  0  1  0  0  0  0  0  0  0  0
   12.7317    4.4581   -6.5150 H   0  0  0  1  0  0  0  0  0  0  0  0
   15.3759    6.2109   -5.1378 C   0  0  0  1  0  0  0  0  0  0  0  0
   15.3723    6.2897   -4.0707 H   0  0  0  1  0  0  0  0  0  0  0  0
   15.6907    7.1368   -5.5718 H   0  0  0  1  0  0  0  0  0  0  0  0
   16.0388    5.4289   -5.4445 H   0  0  0  1  0  0  0  0  0  0  0  0
   16.0633   -5.0475   -1.4810 C   0  0  0  1  0  0  0  0  0  0  0  0
   16.2673   -5.5435   -0.5551 H   0  0  0  1  0  0  0  0  0  0  0  0
   14.8844   -5.7156   -2.1594 C   0  0  0  1  0  0  0  0  0  0  0  0
   15.1258   -6.7349   -2.3778 H   0  0  0  1  0  0  0  0  0  0  0  0
   15.7648   -3.6777   -1.2271 O   0  0  0  1  0  0  0  0  0  0  0  0
   14.5777   -4.9756   -3.4514 C   0  0  0  1  0  0  0  0  0  0  0  0
   13.6451   -5.3330   -3.8354 H   0  0  0  1  0  0  0  0  0  0  0  0
   15.6479   -2.9298   -2.4566 C   0  0  0  1  0  0  0  0  0  0  0  0
   16.5508   -3.0293   -3.0222 H   0  0  0  1  0  0  0  0  0  0  0  0
   14.4796   -3.4704   -3.2666 C   0  0  0  1  0  0  0  0  0  0  0  0
   14.4775   -3.0017   -4.2285 H   0  0  0  1  0  0  0  0  0  0  0  0
   17.2051   -5.1326   -2.3273 O   0  0  0  1  0  0  0  0  0  0  0  0
   13.7455   -5.6691   -1.2979 O   0  0  0  1  0  0  0  0  0  0  0  0
   13.2479   -6.4859   -1.3803 H   0  0  0  1  0  0  0  0  0  0  0  0
   15.6114   -5.2499   -4.3857 O   0  0  0  1  0  0  0  0  0  0  0  0
   15.3150   -5.0177   -5.2688 H   0  0  0  1  0  0  0  0  0  0  0  0
   15.4098   -1.4730   -2.1395 C   0  0  0  1  0  0  0  0  0  0  0  0
   14.9563   -0.9936   -2.9817 H   0  0  0  1  0  0  0  0  0  0  0  0
   16.3435   -0.9989   -1.9195 H   0  0  0  1  0  0  0  0  0  0  0  0
   14.7609   -1.3941   -1.2924 H   0  0  0  1  0  0  0  0  0  0  0  0
   19.9663   -3.6531   -0.2725 C   0  0  0  1  0  0  0  0  0  0  0  0
   20.4050   -3.9776    0.6479 H   0  0  0  1  0  0  0  0  0  0  0  0
   18.7743   -4.5506   -0.6113 C   0  0  0  1  0  0  0  0  0  0  0  0
   18.0181   -4.4299    0.1360 H   0  0  0  1  0  0  0  0  0  0  0  0
   20.9455   -3.7296   -1.3204 O   0  0  0  1  0  0  0  0  0  0  0  0
   18.2038   -4.1780   -1.9643 C   0  0  0  1  0  0  0  0  0  0  0  0
   17.7620   -3.2055   -1.9008 H   0  0  0  1  0  0  0  0  0  0  0  0
   20.4556   -3.2889   -2.5804 C   0  0  0  1  0  0  0  0  0  0  0  0
   20.1231   -2.2756   -2.4937 H   0  0  0  1  0  0  0  0  0  0  0  0
   19.2903   -4.1620   -3.0373 C   0  0  0  1  0  0  0  0  0  0  0  0
   19.6386   -5.1597   -3.2049 H   0  0  0  1  0  0  0  0  0  0  0  0
   19.2124   -5.9413   -0.6404 N   0  0  0  1  0  0  0  0  0  0  0  0
   19.3682   -6.3700   -1.5078 H   0  0  0  1  0  0  0  0  0  0  0  0
   18.7508   -3.6353   -4.2504 O   0  0  0  1  0  0  0  0  0  0  0  0
   17.8795   -3.2947   -4.0349 H   0  0  0  1  0  0  0  0  0  0  0  0
   21.5599   -3.3690   -3.5948 C   0  0  0  1  0  0  0  0  0  0  0  0
   21.5134   -2.5161   -4.2393 H   0  0  0  1  0  0  0  0  0  0  0  0
   21.4464   -4.2613   -4.1744 H   0  0  0  1  0  0  0  0  0  0  0  0
   22.8175   -3.3927   -2.9325 O   0  0  0  1  0  0  0  0  0  0  0  0
   23.0267   -4.3047   -2.7180 H   0  0  0  1  0  0  0  0  0  0  0  0
   19.4085   -6.6513    0.4743 C   0  0  0  1  0  0  0  0  0  0  0  0
   19.3296   -6.1684    1.5919 O   0  0  0  1  0  0  0  0  0  0  0  0
   19.7408   -8.1168    0.2719 C   0  0  0  1  0  0  0  0  0  0  0  0
   18.8259   -8.6292    0.4846 H   0  0  0  1  0  0  0  0  0  0  0  0
   20.5131   -8.4262    0.9448 H   0  0  0  1  0  0  0  0  0  0  0  0
   20.0511   -8.2989   -0.7358 H   0  0  0  1  0  0  0  0  0  0  0  0
  1  2  1  0  0  0  0
  1  3  1  0  0  0  0
  1  4  1  0  0  0  0
  1 44  1  0  0  0  0
  3 20  1  0  0  0  0
  4  5  1  0  0  0  0
  4  6  1  0  0  0  0
  4  8  1  0  0  0  0
  6  7  1  0  0  0  0
  8  9  1  0  0  0  0
  8 10  1  0  0  0  0
  8 20  1  0  0  0  0
 10 11  1  0  0  0  0
 12 13  1  0  0  0  0
 12 14  1  0  0  0  0
 12 15  1  0  0  0  0
 12 17  1  0  0  0  0
 15 16  1  0  0  0  0
 17 18  1  0  0  0  0
 17 19  1  0  0  0  0
 17 20  1  0  0  0  0
 19 22  1  0  0  0  0
 20 21  1  0  0  0  0
 22 23  1  0  0  0  0
 22 24  1  0  0  0  0
 22 25  1  0  0  0  0
 24 42  1  0  0  0  0
 25 26  1  0  0  0  0
 25 27  1  0  0  0  0
 25 29  1  0  0  0  0
 27 28  1  0  0  0  0
 29 30  1  0  0  0  0
 29 31  1  0  0  0  0
 29 42  1  0  0  0  0
 31 32  1  0  0  0  0
 33 34  1  0  0  0  0
 33 35  1  0  0  0  0
 33 36  1  0  0  0  0
 33 38  1  0  0  0  0
 36 37  1  0  0  0  0
 38 39  1  0  0  0  0
 38 40  1  0  0  0  0
 38 42  1  0  0  0  0
 40 41  1  0  0  0  0
 42 43  1  0  0  0  0
 44194  1  0  0  0  0
 45 46  1  0  0  0  0
 45 54  1  0  0  0  0
 46 47  1  0  0  0  0
 46 48  1  0  0  0  0
 46 49  2  0  0  0  0
 47 50  1  0  0  0  0
 50 51  1  0  0  0  0
 50 52  1  0  0  0  0
 50 53  2  0  0  0  0
 51205  1  0  0  0  0
 54 55  1  0  0  0  0
 54 56  1  0  0  0  0
 54 57  1  0  0  0  0
 57 58  1  0  0  0  0
 57 59  2  0  0  0  0
 59 60  1  0  0  0  0
 59 64  1  0  0  0  0
 60 61  1  0  0  0  0
 60 62  1  0  0  0  0
 60 63  1  0  0  0  0
 64 65  1  0  0  0  0
 64 66  1  0  0  0  0
 64 67  1  0  0  0  0
 67 68  1  0  0  0  0
 67 69  1  0  0  0  0
 67 70  1  0  0  0  0
 70 71  1  0  0  0  0
 70 72  2  0  0  0  0
 72 73  1  0  0  0  0
 72 77  1  0  0  0  0
 73 74  1  0  0  0  0
 73 75  1  0  0  0  0
 73 76  1  0  0  0  0
 77 78  1  0  0  0  0
 77 79  1  0  0  0  0
 77 80  1  0  0  0  0
 80 81  1  0  0  0  0
 80 82  1  0  0  0  0
 80 83  1  0  0  0  0
 83 84  1  0  0  0  0
 83 85  2  0  0  0  0
 85 86  1  0  0  0  0
 85 89  1  0  0  0  0
 86 87  1  0  0  0  0
 86 88  1  0  0  0  0
 86 93  1  0  0  0  0
 89 90  1  0  0  0  0
 89 91  1  0  0  0  0
 89 92  1  0  0  0  0
 93 94  1  0  0  0  0
 93 95  1  0  0  0  0
 93 96  1  0  0  0  0
 96 97  1  0  0  0  0
 96 98  2  0  0  0  0
 98 99  1  0  0  0  0
 98102  1  0  0  0  0
 99100  1  0  0  0  0
 99101  1  0  0  0  0
 99106  1  0  0  0  0
102103  1  0  0  0  0
102104  1  0  0  0  0
102105  1  0  0  0  0
106107  1  0  0  0  0
106108  1  0  0  0  0
106109  1  0  0  0  0
109110  1  0  0  0  0
109111  2  0  0  0  0
111112  1  0  0  0  0
111115  1  0  0  0  0
112113  1  0  0  0  0
112114  1  0  0  0  0
112119  1  0  0  0  0
115116  1  0  0  0  0
115117  1  0  0  0  0
115118  1  0  0  0  0
119120  1  0  0  0  0
119121  1  0  0  0  0
119122  1  0  0  0  0
122123  1  0  0  0  0
122124  2  0  0  0  0
124125  1  0  0  0  0
124128  1  0  0  0  0
125126  1  0  0  0  0
125127  1  0  0  0  0
125132  1  0  0  0  0
128129  1  0  0  0  0
128130  1  0  0  0  0
128131  1  0  0  0  0
132133  1  0  0  0  0
132134  1  0  0  0  0
132135  1  0  0  0  0
135136  1  0  0  0  0
135137  2  0  0  0  0
137138  1  0  0  0  0
137141  1  0  0  0  0
138139  1  0  0  0  0
138140  1  0  0  0  0
138145  1  0  0  0  0
141142  1  0  0  0  0
141143  1  0  0  0  0
141144  1  0  0  0  0
145146  1  0  0  0  0
145147  1  0  0  0  0
145148  1  0  0  0  0
148149  1  0  0  0  0
148150  2  0  0  0  0
150151  1  0  0  0  0
150154  1  0  0  0  0
151152  1  0  0  0  0
151153  1  0  0  0  0
151158  1  0  0  0  0
154155  1  0  0  0  0
154156  1  0  0  0  0
154157  1  0  0  0  0
158159  1  0  0  0  0
158160  1  0  0  0  0
158161  1  0  0  0  0
161162  1  0  0  0  0
161163  2  0  0  0  0
163164  1  0  0  0  0
163167  1  0  0  0  0
164165  1  0  0  0  0
164166  1  0  0  0  0
164171  1  0  0  0  0
167168  1  0  0  0  0
167169  1  0  0  0  0
167170  1  0  0  0  0
171172  1  0  0  0  0
171173  1  0  0  0  0
171174  1  0  0  0  0
174175  1  0  0  0  0
174176  2  0  0  0  0
176177  1  0  0  0  0
176181  1  0  0  0  0
177178  1  0  0  0  0
177179  1  0  0  0  0
177180  1  0  0  0  0
181182  1  0  0  0  0
181183  1  0  0  0  0
181184  1  0  0  0  0
185186  1  0  0  0  0
185187  1  0  0  0  0
185189  1  0  0  0  0
185196  1  0  0  0  0
187188  1  0  0  0  0
187190  1  0  0  0  0
187197  1  0  0  0  0
189192  1  0  0  0  0
190191  1  0  0  0  0
190194  1  0  0  0  0
190199  1  0  0  0  0
192193  1  0  0  0  0
192194  1  0  0  0  0
192201  1  0  0  0  0
194195  1  0  0  0  0
196210  1  0  0  0  0
197198  1  0  0  0  0
199200  1  0  0  0  0
201202  1  0  0  0  0
201203  1  0  0  0  0
201204  1  0  0  0  0
205206  1  0  0  0  0
205207  1  0  0  0  0
205209  1  0  0  0  0
207208  1  0  0  0  0
207210  1  0  0  0  0
207216  1  0  0  0  0
209212  1  0  0  0  0
210211  1  0  0  0  0
210214  1  0  0  0  0
212213  1  0  0  0  0
212214  1  0  0  0  0
212220  1  0  0  0  0
214215  1  0  0  0  0
214218  1  0  0  0  0
216217  1  0  0  0  0
216225  1  0  0  0  0
218219  1  0  0  0  0
220221  1  0  0  0  0
220222  1  0  0  0  0
220223  1  0  0  0  0
223224  1  0  0  0  0
225226  2  0  0  0  0
225227  1  0  0  0  0
227228  1  0  0  0  0
227229  1  0  0  0  0
227230  1  0  0  0  0
M  BCL ATM C_TeTeTeTe H_S O_Te2Te2TeTe C_TeTeTeTe H_S O_Te2Te2TeTe H_S C_TeTeTeTe H_S O_Te2Te2TeTe H_S C_TeTeTeTe H_S H_S O_Te2Te2TeTe H_S C_TeTeTeTe H_S O_Te2Te2TeTe C_TeTeTeTe H_S C_TeTeTeTe H_S O_Te2Te2TeTe C_TeTeTeTe H_S O_Te2Te2TeTe H_S C_TeTeTeTe H_S O_Te2Te2TeTe H_S C_TeTeTeTe H_S H_S O_Te2Te2TeTe H_S C_TeTeTeTe H_S O_Te2Te2TeTe H_S C_TeTeTeTe H_S O_Te2Te2TeTe O_Tr2TrTrPi2 P_TeTeTeTePi O_Tr2TrTrPi2 O_Te2Te2TeTe O_Tr2Tr2TrPi P_TeTeTeTePi O_Tr2TrTrPi2 O_Te2Te2TeTe O_Tr2Tr2TrPi C_TeTeTeTe H_S H_S C_TrTrTrPi H_S C_TrTrTrPi C_TeTeTeTe H_S H_S H_S C_TeTeTeTe H_S H_S C_TeTeTeTe H_S H_S C_TrTrTrPi H_S C_TrTrTrPi C_TeTeTeTe H_S H_S H_S C_TeTeTeTe H_S H_S C_TeTeTeTe H_S H_S C_TrTrTrPi H_S C_TrTrTrPi C_TeTeTeTe H_S H_S C_TeTeTeTe H_S H_S H_S C_TeTeTeTe H_S H_S C_TrTrTrPi H_S C_TrTrTrPi C_TeTeTeTe H_S H_S C_TeTeTeTe H_S H_S H_S C_TeTeTeTe H_S H_S C_TrTrTrPi H_S C_TrTrTrPi C_TeTeTeTe H_S H_S C_TeTeTeTe H_S H_S H_S C_TeTeTeTe H_S H_S C_TrTrTrPi H_S C_TrTrTrPi C_TeTeTeTe H_S H_S C_TeTeTeTe H_S H_S H_S C_TeTeTeTe H_S H_S C_TrTrTrPi H_S C_TrTrTrPi C_TeTeTeTe H_S H_S C_TeTeTeTe H_S H_S H_S C_TeTeTeTe H_S H_S C_TrTrTrPi H_S C_TrTrTrPi C_TeTeTeTe H_S H_S C_TeTeTeTe H_S H_S H_S C_TeTeTeTe H_S H_S C_TrTrTrPi H_S C_TrTrTrPi C_TeTeTeTe H_S H_S C_TeTeTeTe H_S H_S H_S C_TeTeTeTe H_S H_S C_TrTrTrPi H_S C_TrTrTrPi C_TeTeTeTe H_S H_S H_S C_TeTeTeTe H_S H_S H_S C_TeTeTeTe H_S C_TeTeTeTe H_S O_Te2Te2TeTe C_TeTeTeTe H_S C_TeTeTeTe H_S C_TeTeTeTe H_S O_Te2Te2TeTe O_Te2Te2TeTe H_S O_Te2Te2TeTe H_S C_TeTeTeTe H_S H_S H_S C_TeTeTeTe H_S C_TeTeTeTe H_S O_Te2Te2TeTe C_TeTeTeTe H_S C_TeTeTeTe H_S C_TeTeTeTe H_S N_TrTrTrPi2 H_S O_Te2Te2TeTe H_S C_TeTeTeTe H_S H_S O_Te2Te2TeTe H_S C_TrTrTrPi O_Tr2Tr2TrPi C_TeTeTeTe H_S H_S H_S
M  BCL BND NonConjugatedSingleBond NonConjugatedSingleBondInRing NonConjugatedSingleBondInRing NonConjugatedSingleBond NonConjugatedSingleBondInRing NonConjugatedSingleBond NonConjugatedSingleBond NonConjugatedSingleBondInRing NonConjugatedSingleBond NonConjugatedSingleBond NonConjugatedSingleBond NonConjugatedSingleBondInRing NonConjugatedSingleBond NonConjugatedSingleBond NonConjugatedSingleBond NonConjugatedSingleBond NonConjugatedSingleBond NonConjugatedSingleBond NonConjugatedSingleBond NonConjugatedSingleBond NonConjugatedSingleBond NonConjugatedSingleBond NonConjugatedSingleBond NonConjugatedSingleBond NonConjugatedSingleBondInRing NonConjugatedSingleBondInRing NonConjugatedSingleBondInRing NonConjugatedSingleBond NonConjugatedSingleBond NonConjugatedSingleBondInRing NonConjugatedSingleBond NonConjugatedSingleBond NonConjugatedSingleBond NonConjugatedSingleBondInRing NonConjugatedSingleBond NonConjugatedSingleBond NonConjugatedSingleBond NonConjugatedSingleBond NonConjugatedSingleBond NonConjugatedSingleBond NonConjugatedSingleBond NonConjugatedSingleBond NonConjugatedSingleBond NonConjugatedSingleBond NonConjugatedSingleBond NonConjugatedSingleBond ConjugatedSingleBond NonConjugatedSingleBond ConjugatedSingleBond ConjugatedSingleBond ConjugatedDoubleBond ConjugatedSingleBond ConjugatedSingleBond ConjugatedSingleBond ConjugatedDoubleBond NonConjugatedSingleBond NonConjugatedSingleBond NonConjugatedSingleBond NonConjugatedSingleBond NonConjugatedSingleBond ConjugatedDoubleBond NonConjugatedSingleBond NonConjugatedSingleBond NonConjugatedSingleBond NonConjugatedSingleBond NonConjugatedSingleBond NonConjugatedSingleBond NonConjugatedSingleBond NonConjugatedSingleBond NonConjugatedSingleBond NonConjugatedSingleBond NonConjugatedSingleBond NonConjugatedSingleBond ConjugatedDoubleBond NonConjugatedSingleBond NonConjugatedSingleBond NonConjugatedSingleBond NonConjugatedSingleBond NonConjugatedSingleBond NonConjugatedSingleBond NonConjugatedSingleBond NonConjugatedSingleBond NonConjugatedSingleBond NonConjugatedSingleBond NonConjugatedSingleBond NonConjugatedSingleBond ConjugatedDoubleBond NonConjugatedSingleBond NonConjugatedSingleBond NonConjugatedSingleBond NonConjugatedSingleBond NonConjugatedSingleBond NonConjugatedSingleBond NonConjugatedSingleBond NonConjugatedSingleBond NonConjugatedSingleBond NonConjugatedSingleBond NonConjugatedSingleBond NonConjugatedSingleBond ConjugatedDoubleBond NonConjugatedSingleBond NonConjugatedSingleBond NonConjugatedSingleBond NonConjugatedSingleBond NonConjugatedSingleBond NonConjugatedSingleBond NonConjugatedSingleBond NonConjugatedSingleBond NonConjugatedSingleBond NonConjugatedSingleBond NonConjugatedSingleBond NonConjugatedSingleBond ConjugatedDoubleBond NonConjugatedSingleBond NonConjugatedSingleBond NonConjugatedSingleBond NonConjugatedSingleBond NonConjugatedSingleBond NonConjugatedSingleBond NonConjugatedSingleBond NonConjugatedSingleBond NonConjugatedSingleBond NonConjugatedSingleBond NonConjugatedSingleBond NonConjugatedSingleBond ConjugatedDoubleBond NonConjugatedSingleBond NonConjugatedSingleBond NonConjugatedSingleBond NonConjugatedSingleBond NonConjugatedSingleBond NonConjugatedSingleBond NonConjugatedSingleBond NonConjugatedSingleBond NonConjugatedSingleBond NonConjugatedSingleBond NonConjugatedSingleBond NonConjugatedSingleBond ConjugatedDoubleBond NonConjugatedSingleBond NonConjugatedSingleBond NonConjugatedSingleBond NonConjugatedSingleBond NonConjugatedSingleBond NonConjugatedSingleBond NonConjugatedSingleBond NonConjugatedSingleBond NonConjugatedSingleBond NonConjugatedSingleBond NonConjugatedSingleBond NonConjugatedSingleBond ConjugatedDoubleBond NonConjugatedSingleBond NonConjugatedSingleBond NonConjugatedSingleBond NonConjugatedSingleBond NonConjugatedSingleBond NonConjugatedSingleBond NonConjugatedSingleBond NonConjugatedSingleBond NonConjugatedSingleBond NonConjugatedSingleBond NonConjugatedSingleBond NonConjugatedSingleBond ConjugatedDoubleBond NonConjugatedSingleBond NonConjugatedSingleBond NonConjugatedSingleBond NonConjugatedSingleBond NonConjugatedSingleBond NonConjugatedSingleBond NonConjugatedSingleBond NonConjugatedSingleBond NonConjugatedSingleBond NonConjugatedSingleBond NonConjugatedSingleBond NonConjugatedSingleBond ConjugatedDoubleBond NonConjugatedSingleBond NonConjugatedSingleBond NonConjugatedSingleBond NonConjugatedSingleBond NonConjugatedSingleBond NonConjugatedSingleBond NonConjugatedSingleBond NonConjugatedSingleBond NonConjugatedSingleBond NonConjugatedSingleBondInRing NonConjugatedSingleBondInRing NonConjugatedSingleBond NonConjugatedSingleBond NonConjugatedSingleBondInRing NonConjugatedSingleBond NonConjugatedSingleBondInRing NonConjugatedSingleBond NonConjugatedSingleBondInRing NonConjugatedSingleBond NonConjugatedSingleBond NonConjugatedSingleBondInRing NonConjugatedSingleBond NonConjugatedSingleBond NonConjugatedSingleBond NonConjugatedSingleBond NonConjugatedSingleBond NonConjugatedSingleBond NonConjugatedSingleBond NonConjugatedSingleBond NonConjugatedSingleBond NonConjugatedSingleBondInRing NonConjugatedSingleBondInRing NonConjugatedSingleBond NonConjugatedSingleBondInRing NonConjugatedSingleBond NonConjugatedSingleBondInRing NonConjugatedSingleBond NonConjugatedSingleBondInRing NonConjugatedSingleBond NonConjugatedSingleBondInRing NonConjugatedSingleBond NonConjugatedSingleBond NonConjugatedSingleBond NonConjugatedSingleBond AmideSingleBond NonConjugatedSingleBond NonConjugatedSingleBond NonConjugatedSingleBond NonConjugatedSingleBond NonConjugatedSingleBond ConjugatedDoubleBond NonConjugatedSingleBond NonConjugatedSingleBond NonConjugatedSingleBond NonConjugatedSingleBond
M  BCL CHI   1   R   4   R   8   R  17   S  20   R  22   S  25   R  29   S  38   S  42   R  46   R  50   S 185   R 187   S 190   S 192   R 194   R 205   R 207   S 210   R 212   S 214   S
M  BCL DBI - - E E E E E E E E Z - -
M  END
> <ConfClashScore>
0.0088236 

> <ConfOneFourInteractionScore>
-0.967739 

> <ConfScore>
1.09448 

> <ConfScorePBest>
0.00943349 

> <ConfTolerance>
4.15967 

$$$$
L05.****
  PyMOL2.5          3D                             0

230233  0  0  0  0  0  0  0  0999 V2000
   12.3040   -2.3862   -3.5979 C   0  0  0  1  0  0  0  0  0  0  0  0
   12.3979   -2.7395   -4.6035 H   0  0  0  1  0  0  0  0  0  0  0  0
   12.4501   -0.9824   -3.5526 O   0  0  0  1  0  0  0  0  0  0  0  0
   10.9106   -2.6671   -3.0652 C   0  0  0  1  0  0  0  0  0  0  0  0
   10.8580   -3.6336   -2.6092 H   0  0  0  1  0  0  0  0  0  0  0  0
    9.9405   -2.5760   -4.0940 O   0  0  0  1  0  0  0  0  0  0  0  0
   10.3415   -2.1981   -4.8801 H   0  0  0  1  0  0  0  0  0  0  0  0
   10.7286   -1.5724   -2.0456 C   0  0  0  1  0  0  0  0  0  0  0  0
    9.6926   -1.3806   -1.8594 H   0  0  0  1  0  0  0  0  0  0  0  0
   11.3832   -1.8909   -0.8162 O   0  0  0  1  0  0  0  0  0  0  0  0
   11.4153   -1.1101   -0.2586 H   0  0  0  1  0  0  0  0  0  0  0  0
   11.0726    1.2086   -4.6820 C   0  0  0  1  0  0  0  0  0  0  0  0
   10.3273    1.7367   -5.2391 H   0  0  0  1  0  0  0  0  0  0  0  0
   11.7278    1.9094   -4.2082 H   0  0  0  1  0  0  0  0  0  0  0  0
   11.8224    0.3813   -5.5618 O   0  0  0  1  0  0  0  0  0  0  0  0
   11.2541   -0.3057   -5.9179 H   0  0  0  1  0  0  0  0  0  0  0  0
   10.3984    0.3507   -3.6223 C   0  0  0  1  0  0  0  0  0  0  0  0
    9.7772   -0.3698   -4.1120 H   0  0  0  1  0  0  0  0  0  0  0  0
    9.5975    1.2239   -2.8329 O   0  0  0  1  0  0  0  0  0  0  0  0
   11.3981   -0.3893   -2.7435 C   0  0  0  1  0  0  0  0  0  0  0  0
   11.8115    0.2873   -2.0251 H   0  0  0  1  0  0  0  0  0  0  0  0
    8.3428    1.4386   -3.4112 C   0  0  0  1  0  0  0  0  0  0  0  0
    7.9595    2.3851   -3.0916 H   0  0  0  1  0  0  0  0  0  0  0  0
    8.4244    1.3824   -4.8095 O   0  0  0  1  0  0  0  0  0  0  0  0
    7.3731    0.3065   -3.0426 C   0  0  0  1  0  0  0  0  0  0  0  0
    6.8690    0.5147   -2.1221 H   0  0  0  1  0  0  0  0  0  0  0  0
    8.0562   -0.9437   -2.9400 O   0  0  0  1  0  0  0  0  0  0  0  0
    7.8858   -1.4675   -3.7263 H   0  0  0  1  0  0  0  0  0  0  0  0
    6.4101    0.3057   -4.2008 C   0  0  0  1  0  0  0  0  0  0  0  0
    5.6309    1.0238   -4.0526 H   0  0  0  1  0  0  0  0  0  0  0  0
    5.8376   -0.9853   -4.3884 O   0  0  0  1  0  0  0  0  0  0  0  0
    5.3604   -1.2425   -3.5961 H   0  0  0  1  0  0  0  0  0  0  0  0
    7.4101    1.9091   -7.5404 C   0  0  0  1  0  0  0  0  0  0  0  0
    8.3004    2.4011   -7.2085 H   0  0  0  1  0  0  0  0  0  0  0  0
    7.6686    0.9884   -8.0204 H   0  0  0  1  0  0  0  0  0  0  0  0
    6.7515    2.7445   -8.4815 O   0  0  0  1  0  0  0  0  0  0  0  0
    6.1439    3.3284   -8.0217 H   0  0  0  1  0  0  0  0  0  0  0  0
    6.5455    1.6025   -6.3341 C   0  0  0  1  0  0  0  0  0  0  0  0
    5.6463    1.1197   -6.6555 H   0  0  0  1  0  0  0  0  0  0  0  0
    6.2557    2.8667   -5.7492 O   0  0  0  1  0  0  0  0  0  0  0  0
    6.8784    3.5207   -6.0748 H   0  0  0  1  0  0  0  0  0  0  0  0
    7.2947    0.6924   -5.3898 C   0  0  0  1  0  0  0  0  0  0  0  0
    7.6183   -0.1808   -5.9169 H   0  0  0  1  0  0  0  0  0  0  0  0
   13.2785   -3.0107   -2.7853 O   0  0  0  1  0  0  0  0  0  0  0  0
   17.9940   -9.2838   -2.5631 O   0  0  0  1  0  0  0  0  0  0  0  0
   17.9340   -8.3934   -3.8876 P   0  0  0  1  0  0  0  0  0  0  0  0
   19.4067   -8.5741   -4.5323 O   0  0  0  1  0  0  0  0  0  0  0  0
   17.7125   -7.0258   -3.3670 O   0  0  0  0  0  0  0  0  0  0  0  0
   17.0323   -8.9723   -4.8897 O   0  0  0  1  0  0  0  0  0  0  0  0
   20.7361   -8.6726   -3.6211 P   0  0  0  1  0  0  0  0  0  0  0  0
   20.5602   -7.5515   -2.5360 O   0  0  0  1  0  0  0  0  0  0  0  0
   21.8573   -8.3598   -4.5551 O   0  0  0  0  0  0  0  0  0  0  0  0
   20.7975   -9.9476   -2.8503 O   0  0  0  1  0  0  0  0  0  0  0  0
   16.9062  -10.1526   -2.2101 C   0  0  0  1  0  0  0  0  0  0  0  0
   16.3972  -10.4501   -3.1030 H   0  0  0  1  0  0  0  0  0  0  0  0
   16.2303   -9.6198   -1.5743 H   0  0  0  1  0  0  0  0  0  0  0  0
   17.3824  -11.3804   -1.4912 C   0  0  0  1  0  0  0  0  0  0  0  0
   18.0515  -11.2492   -0.7059 H   0  0  0  1  0  0  0  0  0  0  0  0
   17.0098  -12.6336   -1.7856 C   0  0  0  1  0  0  0  0  0  0  0  0
   17.8124  -13.7834   -1.2188 C   0  0  0  1  0  0  0  0  0  0  0  0
   18.1899  -14.3845   -2.0195 H   0  0  0  1  0  0  0  0  0  0  0  0
   17.1851  -14.3803   -0.5902 H   0  0  0  1  0  0  0  0  0  0  0  0
   18.6301  -13.3990   -0.6457 H   0  0  0  1  0  0  0  0  0  0  0  0
   15.8209  -12.9447   -2.6605 C   0  0  0  1  0  0  0  0  0  0  0  0
   15.3585  -12.0283   -2.9629 H   0  0  0  1  0  0  0  0  0  0  0  0
   15.1202  -13.5318   -2.1045 H   0  0  0  1  0  0  0  0  0  0  0  0
   16.2492  -13.7184   -3.8968 C   0  0  0  1  0  0  0  0  0  0  0  0
   15.3719  -14.0400   -4.4182 H   0  0  0  1  0  0  0  0  0  0  0  0
   16.8130  -14.5728   -3.5854 H   0  0  0  1  0  0  0  0  0  0  0  0
   17.0947  -12.9036   -4.8387 C   0  0  0  1  0  0  0  0  0  0  0  0
   18.0930  -12.7585   -4.5861 H   0  0  0  1  0  0  0  0  0  0  0  0
   16.6601  -12.3555   -5.9701 C   0  0  0  1  0  0  0  0  0  0  0  0
   17.3732  -11.2950   -6.7577 C   0  0  0  1  0  0  0  0  0  0  0  0
   17.1314  -10.3315   -6.3601 H   0  0  0  1  0  0  0  0  0  0  0  0
   17.0670  -11.3451   -7.7817 H   0  0  0  1  0  0  0  0  0  0  0  0
   18.4295  -11.4525   -6.6927 H   0  0  0  1  0  0  0  0  0  0  0  0
   15.3498  -12.8033   -6.5475 C   0  0  0  1  0  0  0  0  0  0  0  0
   14.5681  -12.4376   -5.9150 H   0  0  0  1  0  0  0  0  0  0  0  0
   15.3378  -13.8732   -6.5480 H   0  0  0  1  0  0  0  0  0  0  0  0
   15.0665  -12.3306   -7.9641 C   0  0  0  1  0  0  0  0  0  0  0  0
   15.1791  -11.2670   -7.9971 H   0  0  0  1  0  0  0  0  0  0  0  0
   14.0596  -12.5912   -8.2151 H   0  0  0  1  0  0  0  0  0  0  0  0
   15.9876  -12.9413   -8.9842 C   0  0  0  1  0  0  0  0  0  0  0  0
   16.9824  -13.0779   -8.7137 H   0  0  0  1  0  0  0  0  0  0  0  0
   15.6253  -13.3191  -10.2044 C   0  0  0  1  0  0  0  0  0  0  0  0
   14.2113  -13.1608  -10.6829 C   0  0  0  1  0  0  0  0  0  0  0  0
   13.6138  -12.8070   -9.8688 H   0  0  0  1  0  0  0  0  0  0  0  0
   13.8507  -14.1164  -11.0017 H   0  0  0  1  0  0  0  0  0  0  0  0
   16.5642  -13.9277  -11.2075 C   0  0  0  1  0  0  0  0  0  0  0  0
   16.6337  -13.2904  -12.0643 H   0  0  0  1  0  0  0  0  0  0  0  0
   16.1947  -14.8866  -11.5056 H   0  0  0  1  0  0  0  0  0  0  0  0
   17.5329  -14.0394  -10.7670 H   0  0  0  1  0  0  0  0  0  0  0  0
   14.0801  -12.1837  -11.8398 C   0  0  0  1  0  0  0  0  0  0  0  0
   13.0903  -12.2728  -12.2365 H   0  0  0  1  0  0  0  0  0  0  0  0
   14.7915  -12.4617  -12.5890 H   0  0  0  1  0  0  0  0  0  0  0  0
   14.3108  -10.7488  -11.4951 C   0  0  0  1  0  0  0  0  0  0  0  0
   14.0367  -10.4175  -10.5482 H   0  0  0  1  0  0  0  0  0  0  0  0
   14.8488   -9.8755  -12.3381 C   0  0  0  1  0  0  0  0  0  0  0  0
   15.2451  -10.2762  -13.7309 C   0  0  0  1  0  0  0  0  0  0  0  0
   15.0991  -11.3320  -13.8248 H   0  0  0  1  0  0  0  0  0  0  0  0
   16.2824  -10.0464  -13.8579 H   0  0  0  1  0  0  0  0  0  0  0  0
   15.1107   -8.4371  -12.0000 C   0  0  0  1  0  0  0  0  0  0  0  0
   15.4595   -7.9231  -12.8713 H   0  0  0  1  0  0  0  0  0  0  0  0
   15.8535   -8.3810  -11.2319 H   0  0  0  1  0  0  0  0  0  0  0  0
   14.2059   -7.9814  -11.6557 H   0  0  0  1  0  0  0  0  0  0  0  0
   14.4736   -9.5948  -14.8494 C   0  0  0  1  0  0  0  0  0  0  0  0
   14.3777   -8.5586  -14.6005 H   0  0  0  1  0  0  0  0  0  0  0  0
   13.5026  -10.0414  -14.9001 H   0  0  0  1  0  0  0  0  0  0  0  0
   15.0992   -9.6883  -16.2139 C   0  0  0  1  0  0  0  0  0  0  0  0
   16.0820   -9.3639  -16.3160 H   0  0  0  1  0  0  0  0  0  0  0  0
   14.4844  -10.1585  -17.3083 C   0  0  0  1  0  0  0  0  0  0  0  0
   13.2058  -10.9503  -17.2440 C   0  0  0  1  0  0  0  0  0  0  0  0
   13.0866  -11.3246  -16.2487 H   0  0  0  1  0  0  0  0  0  0  0  0
   13.2782  -11.7702  -17.9277 H   0  0  0  1  0  0  0  0  0  0  0  0
   15.0948   -9.8852  -18.6540 C   0  0  0  1  0  0  0  0  0  0  0  0
   14.3883   -9.3668  -19.2681 H   0  0  0  1  0  0  0  0  0  0  0  0
   15.3600  -10.8113  -19.1198 H   0  0  0  1  0  0  0  0  0  0  0  0
   15.9708   -9.2829  -18.5324 H   0  0  0  1  0  0  0  0  0  0  0  0
   11.9781  -10.1288  -17.6021 C   0  0  0  1  0  0  0  0  0  0  0  0
   11.1060  -10.7414  -17.5068 H   0  0  0  1  0  0  0  0  0  0  0  0
   12.0665   -9.7881  -18.6126 H   0  0  0  1  0  0  0  0  0  0  0  0
   11.8488   -8.9517  -16.6996 C   0  0  0  1  0  0  0  0  0  0  0  0
   12.1807   -9.0236  -15.7165 H   0  0  0  1  0  0  0  0  0  0  0  0
   11.3175   -7.8111  -17.1264 C   0  0  0  1  0  0  0  0  0  0  0  0
   11.0774   -7.5639  -18.5889 C   0  0  0  1  0  0  0  0  0  0  0  0
   10.0989   -7.1476  -18.7078 H   0  0  0  1  0  0  0  0  0  0  0  0
   11.1330   -8.4990  -19.1059 H   0  0  0  1  0  0  0  0  0  0  0  0
   10.9357   -6.7237  -16.1652 C   0  0  0  1  0  0  0  0  0  0  0  0
   10.8665   -5.7928  -16.6882 H   0  0  0  1  0  0  0  0  0  0  0  0
   11.6790   -6.6479  -15.3993 H   0  0  0  1  0  0  0  0  0  0  0  0
    9.9893   -6.9551  -15.7228 H   0  0  0  1  0  0  0  0  0  0  0  0
   12.0873   -6.6096  -19.2051 C   0  0  0  1  0  0  0  0  0  0  0  0
   11.8270   -5.6056  -18.9421 H   0  0  0  1  0  0  0  0  0  0  0  0
   12.0671   -6.7167  -20.2695 H   0  0  0  1  0  0  0  0  0  0  0  0
   13.4651   -6.9041  -18.7094 C   0  0  0  1  0  0  0  0  0  0  0  0
   13.9724   -7.7173  -19.1131 H   0  0  0  1  0  0  0  0  0  0  0  0
   14.0771   -6.1753  -17.7741 C   0  0  0  1  0  0  0  0  0  0  0  0
   13.4175   -4.9689  -17.1746 C   0  0  0  1  0  0  0  0  0  0  0  0
   13.4800   -5.0410  -16.1088 H   0  0  0  1  0  0  0  0  0  0  0  0
   12.3898   -4.9594  -17.4723 H   0  0  0  1  0  0  0  0  0  0  0  0
   15.4517   -6.5337  -17.2838 C   0  0  0  1  0  0  0  0  0  0  0  0
   15.4334   -7.5134  -16.8539 H   0  0  0  1  0  0  0  0  0  0  0  0
   15.7621   -5.8256  -16.5441 H   0  0  0  1  0  0  0  0  0  0  0  0
   16.1383   -6.5173  -18.1043 H   0  0  0  1  0  0  0  0  0  0  0  0
   14.0594   -3.6615  -17.6095 C   0  0  0  1  0  0  0  0  0  0  0  0
   13.8833   -3.5274  -18.6564 H   0  0  0  1  0  0  0  0  0  0  0  0
   15.1124   -3.7226  -17.4294 H   0  0  0  1  0  0  0  0  0  0  0  0
   13.5163   -2.4650  -16.8751 C   0  0  0  1  0  0  0  0  0  0  0  0
   13.6676   -2.4445  -15.8464 H   0  0  0  1  0  0  0  0  0  0  0  0
   12.8652   -1.4330  -17.3982 C   0  0  0  1  0  0  0  0  0  0  0  0
   12.2970   -1.4907  -18.7880 C   0  0  0  1  0  0  0  0  0  0  0  0
   11.6049   -0.6819  -18.8955 H   0  0  0  1  0  0  0  0  0  0  0  0
   11.7788   -2.4208  -18.8944 H   0  0  0  1  0  0  0  0  0  0  0  0
   12.6337   -0.1366  -16.6786 C   0  0  0  1  0  0  0  0  0  0  0  0
   12.5824   -0.3171  -15.6252 H   0  0  0  1  0  0  0  0  0  0  0  0
   11.7136    0.2964  -17.0114 H   0  0  0  1  0  0  0  0  0  0  0  0
   13.4402    0.5352  -16.8863 H   0  0  0  1  0  0  0  0  0  0  0  0
   13.3147   -1.3897  -19.9126 C   0  0  0  1  0  0  0  0  0  0  0  0
   14.1127   -2.0738  -19.7123 H   0  0  0  1  0  0  0  0  0  0  0  0
   13.6979   -0.3910  -19.9364 H   0  0  0  1  0  0  0  0  0  0  0  0
   12.7345   -1.7127  -21.2636 C   0  0  0  1  0  0  0  0  0  0  0  0
   12.4231   -2.6938  -21.4119 H   0  0  0  1  0  0  0  0  0  0  0  0
   12.5770   -0.8793  -22.2882 C   0  0  0  1  0  0  0  0  0  0  0  0
   11.9736   -1.3920  -23.5668 C   0  0  0  1  0  0  0  0  0  0  0  0
   11.4939   -0.5772  -24.0677 H   0  0  0  1  0  0  0  0  0  0  0  0
   11.2475   -2.1398  -23.3249 H   0  0  0  1  0  0  0  0  0  0  0  0
   12.9537    0.5733  -22.2993 C   0  0  0  1  0  0  0  0  0  0  0  0
   12.1760    1.0744  -21.7617 H   0  0  0  1  0  0  0  0  0  0  0  0
   13.0083    0.9375  -23.3039 H   0  0  0  1  0  0  0  0  0  0  0  0
   13.8966    0.7187  -21.8149 H   0  0  0  1  0  0  0  0  0  0  0  0
   13.0004   -2.0011  -24.5076 C   0  0  0  1  0  0  0  0  0  0  0  0
   13.5724   -1.2100  -24.9457 H   0  0  0  1  0  0  0  0  0  0  0  0
   12.4829   -2.5359  -25.2764 H   0  0  0  1  0  0  0  0  0  0  0  0
   13.9351   -2.9399  -23.8232 C   0  0  0  1  0  0  0  0  0  0  0  0
   14.0505   -2.7838  -22.8015 H   0  0  0  1  0  0  0  0  0  0  0  0
   14.6425   -3.9463  -24.3255 C   0  0  0  1  0  0  0  0  0  0  0  0
   15.5820   -4.7904  -23.5142 C   0  0  0  1  0  0  0  0  0  0  0  0
   15.6718   -4.3799  -22.5302 H   0  0  0  1  0  0  0  0  0  0  0  0
   16.5436   -4.8049  -23.9835 H   0  0  0  1  0  0  0  0  0  0  0  0
   15.2005   -5.7880  -23.4508 H   0  0  0  1  0  0  0  0  0  0  0  0
   14.5520   -4.3250  -25.7838 C   0  0  0  1  0  0  0  0  0  0  0  0
   13.8175   -3.6901  -26.2337 H   0  0  0  1  0  0  0  0  0  0  0  0
   14.2571   -5.3493  -25.8781 H   0  0  0  1  0  0  0  0  0  0  0  0
   15.5000   -4.1811  -26.2586 H   0  0  0  1  0  0  0  0  0  0  0  0
   15.8649   -5.0796   -1.5122 C   0  0  0  1  0  0  0  0  0  0  0  0
   15.9670   -5.6239   -0.5967 H   0  0  0  1  0  0  0  0  0  0  0  0
   14.7123   -5.6557   -2.3246 C   0  0  0  1  0  0  0  0  0  0  0  0
   14.9108   -6.6814   -2.5558 H   0  0  0  1  0  0  0  0  0  0  0  0
   15.5863   -3.7118   -1.2274 O   0  0  0  1  0  0  0  0  0  0  0  0
   14.5833   -4.8551   -3.6115 C   0  0  0  1  0  0  0  0  0  0  0  0
   13.6815   -5.1473   -4.1077 H   0  0  0  1  0  0  0  0  0  0  0  0
   15.6578   -2.9174   -2.4183 C   0  0  0  1  0  0  0  0  0  0  0  0
   16.6065   -3.0626   -2.8915 H   0  0  0  1  0  0  0  0  0  0  0  0
   14.5394   -3.3519   -3.3649 C   0  0  0  1  0  0  0  0  0  0  0  0
   14.6534   -2.8411   -4.2982 H   0  0  0  1  0  0  0  0  0  0  0  0
   17.0719   -5.1762   -2.2594 O   0  0  0  1  0  0  0  0  0  0  0  0
   13.4997   -5.5618   -1.5748 O   0  0  0  1  0  0  0  0  0  0  0  0
   13.1391   -6.4409   -1.4374 H   0  0  0  1  0  0  0  0  0  0  0  0
   15.7089   -5.1501   -4.4507 O   0  0  0  1  0  0  0  0  0  0  0  0
   16.0641   -6.0114   -4.2193 H   0  0  0  1  0  0  0  0  0  0  0  0
   15.4867   -1.4491   -2.0645 C   0  0  0  1  0  0  0  0  0  0  0  0
   15.7142   -0.8469   -2.9192 H   0  0  0  1  0  0  0  0  0  0  0  0
   16.1493   -1.1959   -1.2635 H   0  0  0  1  0  0  0  0  0  0  0  0
   14.4760   -1.2708   -1.7619 H   0  0  0  1  0  0  0  0  0  0  0  0
   19.6738   -6.4235   -2.7023 C   0  0  0  1  0  0  0  0  0  0  0  0
   18.8760   -6.6906   -3.3634 H   0  0  0  1  0  0  0  0  0  0  0  0
   19.1073   -6.0290   -1.3657 C   0  0  0  1  0  0  0  0  0  0  0  0
   19.9085   -5.8058   -0.6925 H   0  0  0  1  0  0  0  0  0  0  0  0
   20.3934   -5.3341   -3.2468 O   0  0  0  1  0  0  0  0  0  0  0  0
   18.2345   -4.8175   -1.5201 C   0  0  0  1  0  0  0  0  0  0  0  0
   17.9475   -4.4698   -0.5497 H   0  0  0  1  0  0  0  0  0  0  0  0
   19.5223   -4.2301   -3.5511 C   0  0  0  1  0  0  0  0  0  0  0  0
   20.0750   -3.4570   -4.0430 H   0  0  0  1  0  0  0  0  0  0  0  0
   18.9545   -3.7055   -2.2468 C   0  0  0  1  0  0  0  0  0  0  0  0
   18.2670   -2.9117   -2.4522 H   0  0  0  1  0  0  0  0  0  0  0  0
   18.3154   -7.1309   -0.8316 N   0  0  0  1  0  0  0  0  0  0  0  0
   17.5378   -7.4236   -1.3513 H   0  0  0  1  0  0  0  0  0  0  0  0
   20.0148   -3.2169   -1.4319 O   0  0  0  1  0  0  0  0  0  0  0  0
   19.6522   -3.1104   -0.5494 H   0  0  0  1  0  0  0  0  0  0  0  0
   18.3996   -4.6958   -4.4477 C   0  0  0  1  0  0  0  0  0  0  0  0
   17.8472   -5.4678   -3.9540 H   0  0  0  1  0  0  0  0  0  0  0  0
   18.8081   -5.0768   -5.3603 H   0  0  0  1  0  0  0  0  0  0  0  0
   17.5322   -3.6037   -4.7368 O   0  0  0  1  0  0  0  0  0  0  0  0
   18.0725   -2.8396   -4.9507 H   0  0  0  1  0  0  0  0  0  0  0  0
   18.5702   -7.7716    0.3128 C   0  0  0  1  0  0  0  0  0  0  0  0
   19.5411   -7.5138    1.0230 O   0  0  0  1  0  0  0  0  0  0  0  0
   17.5798   -8.8537    0.6966 C   0  0  0  1  0  0  0  0  0  0  0  0
   16.6534   -8.3337    0.8244 H   0  0  0  1  0  0  0  0  0  0  0  0
   17.8748   -9.3309    1.6077 H   0  0  0  1  0  0  0  0  0  0  0  0
   17.4990   -9.5854   -0.0800 H   0  0  0  1  0  0  0  0  0  0  0  0
  1  2  1  0  0  0  0
  1  3  1  0  0  0  0
  1  4  1  0  0  0  0
  1 44  1  0  0  0  0
  3 20  1  0  0  0  0
  4  5  1  0  0  0  0
  4  6  1  0  0  0  0
  4  8  1  0  0  0  0
  6  7  1  0  0  0  0
  8  9  1  0  0  0  0
  8 10  1  0  0  0  0
  8 20  1  0  0  0  0
 10 11  1  0  0  0  0
 12 13  1  0  0  0  0
 12 14  1  0  0  0  0
 12 15  1  0  0  0  0
 12 17  1  0  0  0  0
 15 16  1  0  0  0  0
 17 18  1  0  0  0  0
 17 19  1  0  0  0  0
 17 20  1  0  0  0  0
 19 22  1  0  0  0  0
 20 21  1  0  0  0  0
 22 23  1  0  0  0  0
 22 24  1  0  0  0  0
 22 25  1  0  0  0  0
 24 42  1  0  0  0  0
 25 26  1  0  0  0  0
 25 27  1  0  0  0  0
 25 29  1  0  0  0  0
 27 28  1  0  0  0  0
 29 30  1  0  0  0  0
 29 31  1  0  0  0  0
 29 42  1  0  0  0  0
 31 32  1  0  0  0  0
 33 34  1  0  0  0  0
 33 35  1  0  0  0  0
 33 36  1  0  0  0  0
 33 38  1  0  0  0  0
 36 37  1  0  0  0  0
 38 39  1  0  0  0  0
 38 40  1  0  0  0  0
 38 42  1  0  0  0  0
 40 41  1  0  0  0  0
 42 43  1  0  0  0  0
 44194  1  0  0  0  0
 45 46  1  0  0  0  0
 45 54  1  0  0  0  0
 46 47  1  0  0  0  0
 46 48  1  0  0  0  0
 46 49  2  0  0  0  0
 47 50  1  0  0  0  0
 50 51  1  0  0  0  0
 50 52  1  0  0  0  0
 50 53  2  0  0  0  0
 51205  1  0  0  0  0
 54 55  1  0  0  0  0
 54 56  1  0  0  0  0
 54 57  1  0  0  0  0
 57 58  1  0  0  0  0
 57 59  2  0  0  0  0
 59 60  1  0  0  0  0
 59 64  1  0  0  0  0
 60 61  1  0  0  0  0
 60 62  1  0  0  0  0
 60 63  1  0  0  0  0
 64 65  1  0  0  0  0
 64 66  1  0  0  0  0
 64 67  1  0  0  0  0
 67 68  1  0  0  0  0
 67 69  1  0  0  0  0
 67 70  1  0  0  0  0
 70 71  1  0  0  0  0
 70 72  2  0  0  0  0
 72 73  1  0  0  0  0
 72 77  1  0  0  0  0
 73 74  1  0  0  0  0
 73 75  1  0  0  0  0
 73 76  1  0  0  0  0
 77 78  1  0  0  0  0
 77 79  1  0  0  0  0
 77 80  1  0  0  0  0
 80 81  1  0  0  0  0
 80 82  1  0  0  0  0
 80 83  1  0  0  0  0
 83 84  1  0  0  0  0
 83 85  2  0  0  0  0
 85 86  1  0  0  0  0
 85 89  1  0  0  0  0
 86 87  1  0  0  0  0
 86 88  1  0  0  0  0
 86 93  1  0  0  0  0
 89 90  1  0  0  0  0
 89 91  1  0  0  0  0
 89 92  1  0  0  0  0
 93 94  1  0  0  0  0
 93 95  1  0  0  0  0
 93 96  1  0  0  0  0
 96 97  1  0  0  0  0
 96 98  2  0  0  0  0
 98 99  1  0  0  0  0
 98102  1  0  0  0  0
 99100  1  0  0  0  0
 99101  1  0  0  0  0
 99106  1  0  0  0  0
102103  1  0  0  0  0
102104  1  0  0  0  0
102105  1  0  0  0  0
106107  1  0  0  0  0
106108  1  0  0  0  0
106109  1  0  0  0  0
109110  1  0  0  0  0
109111  2  0  0  0  0
111112  1  0  0  0  0
111115  1  0  0  0  0
112113  1  0  0  0  0
112114  1  0  0  0  0
112119  1  0  0  0  0
115116  1  0  0  0  0
115117  1  0  0  0  0
115118  1  0  0  0  0
119120  1  0  0  0  0
119121  1  0  0  0  0
119122  1  0  0  0  0
122123  1  0  0  0  0
122124  2  0  0  0  0
124125  1  0  0  0  0
124128  1  0  0  0  0
125126  1  0  0  0  0
125127  1  0  0  0  0
125132  1  0  0  0  0
128129  1  0  0  0  0
128130  1  0  0  0  0
128131  1  0  0  0  0
132133  1  0  0  0  0
132134  1  0  0  0  0
132135  1  0  0  0  0
135136  1  0  0  0  0
135137  2  0  0  0  0
137138  1  0  0  0  0
137141  1  0  0  0  0
138139  1  0  0  0  0
138140  1  0  0  0  0
138145  1  0  0  0  0
141142  1  0  0  0  0
141143  1  0  0  0  0
141144  1  0  0  0  0
145146  1  0  0  0  0
145147  1  0  0  0  0
145148  1  0  0  0  0
148149  1  0  0  0  0
148150  2  0  0  0  0
150151  1  0  0  0  0
150154  1  0  0  0  0
151152  1  0  0  0  0
151153  1  0  0  0  0
151158  1  0  0  0  0
154155  1  0  0  0  0
154156  1  0  0  0  0
154157  1  0  0  0  0
158159  1  0  0  0  0
158160  1  0  0  0  0
158161  1  0  0  0  0
161162  1  0  0  0  0
161163  2  0  0  0  0
163164  1  0  0  0  0
163167  1  0  0  0  0
164165  1  0  0  0  0
164166  1  0  0  0  0
164171  1  0  0  0  0
167168  1  0  0  0  0
167169  1  0  0  0  0
167170  1  0  0  0  0
171172  1  0  0  0  0
171173  1  0  0  0  0
171174  1  0  0  0  0
174175  1  0  0  0  0
174176  2  0  0  0  0
176177  1  0  0  0  0
176181  1  0  0  0  0
177178  1  0  0  0  0
177179  1  0  0  0  0
177180  1  0  0  0  0
181182  1  0  0  0  0
181183  1  0  0  0  0
181184  1  0  0  0  0
185186  1  0  0  0  0
185187  1  0  0  0  0
185189  1  0  0  0  0
185196  1  0  0  0  0
187188  1  0  0  0  0
187190  1  0  0  0  0
187197  1  0  0  0  0
189192  1  0  0  0  0
190191  1  0  0  0  0
190194  1  0  0  0  0
190199  1  0  0  0  0
192193  1  0  0  0  0
192194  1  0  0  0  0
192201  1  0  0  0  0
194195  1  0  0  0  0
196210  1  0  0  0  0
197198  1  0  0  0  0
199200  1  0  0  0  0
201202  1  0  0  0  0
201203  1  0  0  0  0
201204  1  0  0  0  0
205206  1  0  0  0  0
205207  1  0  0  0  0
205209  1  0  0  0  0
207208  1  0  0  0  0
207210  1  0  0  0  0
207216  1  0  0  0  0
209212  1  0  0  0  0
210211  1  0  0  0  0
210214  1  0  0  0  0
212213  1  0  0  0  0
212214  1  0  0  0  0
212220  1  0  0  0  0
214215  1  0  0  0  0
214218  1  0  0  0  0
216217  1  0  0  0  0
216225  1  0  0  0  0
218219  1  0  0  0  0
220221  1  0  0  0  0
220222  1  0  0  0  0
220223  1  0  0  0  0
223224  1  0  0  0  0
225226  2  0  0  0  0
225227  1  0  0  0  0
227228  1  0  0  0  0
227229  1  0  0  0  0
227230  1  0  0  0  0
M  BCL ATM C_TeTeTeTe H_S O_Te2Te2TeTe C_TeTeTeTe H_S O_Te2Te2TeTe H_S C_TeTeTeTe H_S O_Te2Te2TeTe H_S C_TeTeTeTe H_S H_S O_Te2Te2TeTe H_S C_TeTeTeTe H_S O_Te2Te2TeTe C_TeTeTeTe H_S C_TeTeTeTe H_S O_Te2Te2TeTe C_TeTeTeTe H_S O_Te2Te2TeTe H_S C_TeTeTeTe H_S O_Te2Te2TeTe H_S C_TeTeTeTe H_S H_S O_Te2Te2TeTe H_S C_TeTeTeTe H_S O_Te2Te2TeTe H_S C_TeTeTeTe H_S O_Te2Te2TeTe O_Tr2TrTrPi2 P_TeTeTeTePi O_Tr2TrTrPi2 O_Te2Te2TeTe O_Tr2Tr2TrPi P_TeTeTeTePi O_Tr2TrTrPi2 O_Te2Te2TeTe O_Tr2Tr2TrPi C_TeTeTeTe H_S H_S C_TrTrTrPi H_S C_TrTrTrPi C_TeTeTeTe H_S H_S H_S C_TeTeTeTe H_S H_S C_TeTeTeTe H_S H_S C_TrTrTrPi H_S C_TrTrTrPi C_TeTeTeTe H_S H_S H_S C_TeTeTeTe H_S H_S C_TeTeTeTe H_S H_S C_TrTrTrPi H_S C_TrTrTrPi C_TeTeTeTe H_S H_S C_TeTeTeTe H_S H_S H_S C_TeTeTeTe H_S H_S C_TrTrTrPi H_S C_TrTrTrPi C_TeTeTeTe H_S H_S C_TeTeTeTe H_S H_S H_S C_TeTeTeTe H_S H_S C_TrTrTrPi H_S C_TrTrTrPi C_TeTeTeTe H_S H_S C_TeTeTeTe H_S H_S H_S C_TeTeTeTe H_S H_S C_TrTrTrPi H_S C_TrTrTrPi C_TeTeTeTe H_S H_S C_TeTeTeTe H_S H_S H_S C_TeTeTeTe H_S H_S C_TrTrTrPi H_S C_TrTrTrPi C_TeTeTeTe H_S H_S C_TeTeTeTe H_S H_S H_S C_TeTeTeTe H_S H_S C_TrTrTrPi H_S C_TrTrTrPi C_TeTeTeTe H_S H_S C_TeTeTeTe H_S H_S H_S C_TeTeTeTe H_S H_S C_TrTrTrPi H_S C_TrTrTrPi C_TeTeTeTe H_S H_S C_TeTeTeTe H_S H_S H_S C_TeTeTeTe H_S H_S C_TrTrTrPi H_S C_TrTrTrPi C_TeTeTeTe H_S H_S H_S C_TeTeTeTe H_S H_S H_S C_TeTeTeTe H_S C_TeTeTeTe H_S O_Te2Te2TeTe C_TeTeTeTe H_S C_TeTeTeTe H_S C_TeTeTeTe H_S O_Te2Te2TeTe O_Te2Te2TeTe H_S O_Te2Te2TeTe H_S C_TeTeTeTe H_S H_S H_S C_TeTeTeTe H_S C_TeTeTeTe H_S O_Te2Te2TeTe C_TeTeTeTe H_S C_TeTeTeTe H_S C_TeTeTeTe H_S N_TrTrTrPi2 H_S O_Te2Te2TeTe H_S C_TeTeTeTe H_S H_S O_Te2Te2TeTe H_S C_TrTrTrPi O_Tr2Tr2TrPi C_TeTeTeTe H_S H_S H_S
M  BCL BND NonConjugatedSingleBond NonConjugatedSingleBondInRing NonConjugatedSingleBondInRing NonConjugatedSingleBond NonConjugatedSingleBondInRing NonConjugatedSingleBond NonConjugatedSingleBond NonConjugatedSingleBondInRing NonConjugatedSingleBond NonConjugatedSingleBond NonConjugatedSingleBond NonConjugatedSingleBondInRing NonConjugatedSingleBond NonConjugatedSingleBond NonConjugatedSingleBond NonConjugatedSingleBond NonConjugatedSingleBond NonConjugatedSingleBond NonConjugatedSingleBond NonConjugatedSingleBond NonConjugatedSingleBond NonConjugatedSingleBond NonConjugatedSingleBond NonConjugatedSingleBond NonConjugatedSingleBondInRing NonConjugatedSingleBondInRing NonConjugatedSingleBondInRing NonConjugatedSingleBond NonConjugatedSingleBond NonConjugatedSingleBondInRing NonConjugatedSingleBond NonConjugatedSingleBond NonConjugatedSingleBond NonConjugatedSingleBondInRing NonConjugatedSingleBond NonConjugatedSingleBond NonConjugatedSingleBond NonConjugatedSingleBond NonConjugatedSingleBond NonConjugatedSingleBond NonConjugatedSingleBond NonConjugatedSingleBond NonConjugatedSingleBond NonConjugatedSingleBond NonConjugatedSingleBond NonConjugatedSingleBond ConjugatedSingleBond NonConjugatedSingleBond ConjugatedSingleBond ConjugatedSingleBond ConjugatedDoubleBond ConjugatedSingleBond ConjugatedSingleBond ConjugatedSingleBond ConjugatedDoubleBond NonConjugatedSingleBond NonConjugatedSingleBond NonConjugatedSingleBond NonConjugatedSingleBond NonConjugatedSingleBond ConjugatedDoubleBond NonConjugatedSingleBond NonConjugatedSingleBond NonConjugatedSingleBond NonConjugatedSingleBond NonConjugatedSingleBond NonConjugatedSingleBond NonConjugatedSingleBond NonConjugatedSingleBond NonConjugatedSingleBond NonConjugatedSingleBond NonConjugatedSingleBond NonConjugatedSingleBond ConjugatedDoubleBond NonConjugatedSingleBond NonConjugatedSingleBond NonConjugatedSingleBond NonConjugatedSingleBond NonConjugatedSingleBond NonConjugatedSingleBond NonConjugatedSingleBond NonConjugatedSingleBond NonConjugatedSingleBond NonConjugatedSingleBond NonConjugatedSingleBond NonConjugatedSingleBond ConjugatedDoubleBond NonConjugatedSingleBond NonConjugatedSingleBond NonConjugatedSingleBond NonConjugatedSingleBond NonConjugatedSingleBond NonConjugatedSingleBond NonConjugatedSingleBond NonConjugatedSingleBond NonConjugatedSingleBond NonConjugatedSingleBond NonConjugatedSingleBond NonConjugatedSingleBond ConjugatedDoubleBond NonConjugatedSingleBond NonConjugatedSingleBond NonConjugatedSingleBond NonConjugatedSingleBond NonConjugatedSingleBond NonConjugatedSingleBond NonConjugatedSingleBond NonConjugatedSingleBond NonConjugatedSingleBond NonConjugatedSingleBond NonConjugatedSingleBond NonConjugatedSingleBond ConjugatedDoubleBond NonConjugatedSingleBond NonConjugatedSingleBond NonConjugatedSingleBond NonConjugatedSingleBond NonConjugatedSingleBond NonConjugatedSingleBond NonConjugatedSingleBond NonConjugatedSingleBond NonConjugatedSingleBond NonConjugatedSingleBond NonConjugatedSingleBond NonConjugatedSingleBond ConjugatedDoubleBond NonConjugatedSingleBond NonConjugatedSingleBond NonConjugatedSingleBond NonConjugatedSingleBond NonConjugatedSingleBond NonConjugatedSingleBond NonConjugatedSingleBond NonConjugatedSingleBond NonConjugatedSingleBond NonConjugatedSingleBond NonConjugatedSingleBond NonConjugatedSingleBond ConjugatedDoubleBond NonConjugatedSingleBond NonConjugatedSingleBond NonConjugatedSingleBond NonConjugatedSingleBond NonConjugatedSingleBond NonConjugatedSingleBond NonConjugatedSingleBond NonConjugatedSingleBond NonConjugatedSingleBond NonConjugatedSingleBond NonConjugatedSingleBond NonConjugatedSingleBond ConjugatedDoubleBond NonConjugatedSingleBond NonConjugatedSingleBond NonConjugatedSingleBond NonConjugatedSingleBond NonConjugatedSingleBond NonConjugatedSingleBond NonConjugatedSingleBond NonConjugatedSingleBond NonConjugatedSingleBond NonConjugatedSingleBond NonConjugatedSingleBond NonConjugatedSingleBond ConjugatedDoubleBond NonConjugatedSingleBond NonConjugatedSingleBond NonConjugatedSingleBond NonConjugatedSingleBond NonConjugatedSingleBond NonConjugatedSingleBond NonConjugatedSingleBond NonConjugatedSingleBond NonConjugatedSingleBond NonConjugatedSingleBond NonConjugatedSingleBond NonConjugatedSingleBond ConjugatedDoubleBond NonConjugatedSingleBond NonConjugatedSingleBond NonConjugatedSingleBond NonConjugatedSingleBond NonConjugatedSingleBond NonConjugatedSingleBond NonConjugatedSingleBond NonConjugatedSingleBond NonConjugatedSingleBond NonConjugatedSingleBondInRing NonConjugatedSingleBondInRing NonConjugatedSingleBond NonConjugatedSingleBond NonConjugatedSingleBondInRing NonConjugatedSingleBond NonConjugatedSingleBondInRing NonConjugatedSingleBond NonConjugatedSingleBondInRing NonConjugatedSingleBond NonConjugatedSingleBond NonConjugatedSingleBondInRing NonConjugatedSingleBond NonConjugatedSingleBond NonConjugatedSingleBond NonConjugatedSingleBond NonConjugatedSingleBond NonConjugatedSingleBond NonConjugatedSingleBond NonConjugatedSingleBond NonConjugatedSingleBond NonConjugatedSingleBondInRing NonConjugatedSingleBondInRing NonConjugatedSingleBond NonConjugatedSingleBondInRing NonConjugatedSingleBond NonConjugatedSingleBondInRing NonConjugatedSingleBond NonConjugatedSingleBondInRing NonConjugatedSingleBond NonConjugatedSingleBondInRing NonConjugatedSingleBond NonConjugatedSingleBond NonConjugatedSingleBond NonConjugatedSingleBond AmideSingleBond NonConjugatedSingleBond NonConjugatedSingleBond NonConjugatedSingleBond NonConjugatedSingleBond NonConjugatedSingleBond ConjugatedDoubleBond NonConjugatedSingleBond NonConjugatedSingleBond NonConjugatedSingleBond NonConjugatedSingleBond
M  BCL CHI   1   R   4   R   8   R  17   S  20   R  22   S  25   R  29   S  38   S  42   R  46   R  50   S 185   R 187   S 190   S 192   R 194   R 205   R 207   S 210   R 212   S 214   S
M  BCL DBI - - E E E E E E E E Z - -
M  END
> <ConfClashScore>
0.00979041 

> <ConfOneFourInteractionScore>
-0.970013 

> <ConfScore>
1.12789 

> <ConfScorePBest>
0.00933049 

> <ConfTolerance>
2.93148 

$$$$
L05.****
  PyMOL2.5          3D                             0

230233  0  0  0  0  0  0  0  0999 V2000
   12.0796   -3.0898   -3.3012 C   0  0  0  1  0  0  0  0  0  0  0  0
   12.3224   -3.2878   -4.3243 H   0  0  0  1  0  0  0  0  0  0  0  0
   11.4182   -1.8601   -3.1768 O   0  0  0  1  0  0  0  0  0  0  0  0
   11.0691   -4.1184   -2.7731 C   0  0  0  1  0  0  0  0  0  0  0  0
   11.5660   -4.9806   -2.3801 H   0  0  0  1  0  0  0  0  0  0  0  0
   10.1584   -4.5187   -3.7981 O   0  0  0  1  0  0  0  0  0  0  0  0
   10.6468   -4.7224   -4.5991 H   0  0  0  1  0  0  0  0  0  0  0  0
   10.3603   -3.3567   -1.6841 C   0  0  0  1  0  0  0  0  0  0  0  0
    9.3678   -3.7292   -1.5388 H   0  0  0  1  0  0  0  0  0  0  0  0
   11.0822   -3.4307   -0.4538 O   0  0  0  1  0  0  0  0  0  0  0  0
   11.0820   -4.3366   -0.1361 H   0  0  0  1  0  0  0  0  0  0  0  0
    8.2540   -2.9304   -3.1208 C   0  0  0  1  0  0  0  0  0  0  0  0
    8.2528   -3.4848   -2.2057 H   0  0  0  1  0  0  0  0  0  0  0  0
    7.2470   -2.7025   -3.4017 H   0  0  0  1  0  0  0  0  0  0  0  0
    8.8413   -3.7308   -4.1383 O   0  0  0  1  0  0  0  0  0  0  0  0
    8.3531   -4.5533   -4.2207 H   0  0  0  1  0  0  0  0  0  0  0  0
    9.0049   -1.6292   -2.9011 C   0  0  0  1  0  0  0  0  0  0  0  0
    8.4252   -1.0342   -2.2266 H   0  0  0  1  0  0  0  0  0  0  0  0
    9.1526   -0.9175   -4.1243 O   0  0  0  1  0  0  0  0  0  0  0  0
   10.3356   -1.9225   -2.2212 C   0  0  0  1  0  0  0  0  0  0  0  0
   10.4937   -1.2218   -1.4282 H   0  0  0  1  0  0  0  0  0  0  0  0
    9.9657    0.2297   -4.0196 C   0  0  0  1  0  0  0  0  0  0  0  0
    9.6189    0.8408   -3.2127 H   0  0  0  1  0  0  0  0  0  0  0  0
   11.3357   -0.1535   -3.7967 O   0  0  0  1  0  0  0  0  0  0  0  0
    9.9322    1.0124   -5.3178 C   0  0  0  1  0  0  0  0  0  0  0  0
    9.9815    2.0654   -5.1343 H   0  0  0  1  0  0  0  0  0  0  0  0
    8.7541    0.7138   -6.0683 O   0  0  0  1  0  0  0  0  0  0  0  0
    8.9502    0.0315   -6.7146 H   0  0  0  1  0  0  0  0  0  0  0  0
   11.1779    0.5235   -6.0373 C   0  0  0  1  0  0  0  0  0  0  0  0
   11.5437    1.2568   -6.7253 H   0  0  0  1  0  0  0  0  0  0  0  0
   10.9321   -0.6972   -6.7295 O   0  0  0  1  0  0  0  0  0  0  0  0
   11.7574   -1.1750   -6.8396 H   0  0  0  1  0  0  0  0  0  0  0  0
   11.8422    2.6466   -3.9283 C   0  0  0  1  0  0  0  0  0  0  0  0
   11.2858    3.0875   -4.7289 H   0  0  0  1  0  0  0  0  0  0  0  0
   11.1730    2.1383   -3.2658 H   0  0  0  1  0  0  0  0  0  0  0  0
   12.5005    3.6798   -3.2073 O   0  0  0  1  0  0  0  0  0  0  0  0
   13.2970    3.3299   -2.8014 H   0  0  0  1  0  0  0  0  0  0  0  0
   12.8164    1.6328   -4.5109 C   0  0  0  1  0  0  0  0  0  0  0  0
   13.5495    1.4204   -3.7610 H   0  0  0  1  0  0  0  0  0  0  0  0
   13.4667    2.2097   -5.6401 O   0  0  0  1  0  0  0  0  0  0  0  0
   14.2749    2.6438   -5.3573 H   0  0  0  1  0  0  0  0  0  0  0  0
   12.1425    0.3196   -4.8811 C   0  0  0  1  0  0  0  0  0  0  0  0
   12.8876   -0.4043   -5.1376 H   0  0  0  1  0  0  0  0  0  0  0  0
   13.2685   -3.1040   -2.5196 O   0  0  0  1  0  0  0  0  0  0  0  0
   24.1879   -6.7460   -3.8295 O   0  0  0  1  0  0  0  0  0  0  0  0
   23.7791   -7.2825   -2.3485 P   0  0  0  1  0  0  0  0  0  0  0  0
   22.2781   -7.8290   -2.5205 O   0  0  0  1  0  0  0  0  0  0  0  0
   23.6829   -6.1699   -1.3737 O   0  0  0  0  0  0  0  0  0  0  0  0
   24.7131   -8.3663   -2.1053 O   0  0  0  1  0  0  0  0  0  0  0  0
   21.3135   -8.7344   -1.6632 P   0  0  0  1  0  0  0  0  0  0  0  0
   20.4173   -7.6154   -1.0228 O   0  0  0  1  0  0  0  0  0  0  0  0
   22.1916   -9.3410   -0.6456 O   0  0  0  0  0  0  0  0  0  0  0  0
   20.4520   -9.6140   -2.4729 O   0  0  0  1  0  0  0  0  0  0  0  0
   25.5251   -6.4207   -4.1990 C   0  0  0  1  0  0  0  0  0  0  0  0
   26.0889   -6.2538   -3.3050 H   0  0  0  1  0  0  0  0  0  0  0  0
   25.5035   -5.5228   -4.7806 H   0  0  0  1  0  0  0  0  0  0  0  0
   26.2173   -7.4838   -5.0002 C   0  0  0  1  0  0  0  0  0  0  0  0
   27.0539   -7.9356   -4.5790 H   0  0  0  1  0  0  0  0  0  0  0  0
   25.8413   -7.8906   -6.2067 C   0  0  0  1  0  0  0  0  0  0  0  0
   26.7545   -8.7061   -7.0753 C   0  0  0  1  0  0  0  0  0  0  0  0
   27.0142   -8.1435   -7.9477 H   0  0  0  1  0  0  0  0  0  0  0  0
   26.2577   -9.6076   -7.3674 H   0  0  0  1  0  0  0  0  0  0  0  0
   27.6427   -8.9484   -6.5300 H   0  0  0  1  0  0  0  0  0  0  0  0
   24.5006   -7.5873   -6.8143 C   0  0  0  1  0  0  0  0  0  0  0  0
   24.6484   -6.9645   -7.6718 H   0  0  0  1  0  0  0  0  0  0  0  0
   23.9093   -7.0653   -6.0913 H   0  0  0  1  0  0  0  0  0  0  0  0
   23.7468   -8.8346   -7.2464 C   0  0  0  1  0  0  0  0  0  0  0  0
   24.4490   -9.5348   -7.6483 H   0  0  0  1  0  0  0  0  0  0  0  0
   23.0418   -8.5613   -8.0034 H   0  0  0  1  0  0  0  0  0  0  0  0
   23.0089   -9.4916   -6.1234 C   0  0  0  1  0  0  0  0  0  0  0  0
   23.5023   -9.6740   -5.2263 H   0  0  0  1  0  0  0  0  0  0  0  0
   21.7358   -9.8463   -6.2505 C   0  0  0  1  0  0  0  0  0  0  0  0
   20.8133  -10.2134   -5.1228 C   0  0  0  1  0  0  0  0  0  0  0  0
   19.8341   -9.8317   -5.3236 H   0  0  0  1  0  0  0  0  0  0  0  0
   21.1801   -9.7915   -4.2105 H   0  0  0  1  0  0  0  0  0  0  0  0
   20.7687  -11.2786   -5.0311 H   0  0  0  1  0  0  0  0  0  0  0  0
   21.1209   -9.8998   -7.6183 C   0  0  0  1  0  0  0  0  0  0  0  0
   20.6635  -10.8598   -7.7373 H   0  0  0  1  0  0  0  0  0  0  0  0
   21.9050   -9.7861   -8.3374 H   0  0  0  1  0  0  0  0  0  0  0  0
   20.0680   -8.8406   -7.9012 C   0  0  0  1  0  0  0  0  0  0  0  0
   20.5350   -7.8813   -7.8206 H   0  0  0  1  0  0  0  0  0  0  0  0
   19.3030   -8.9291   -7.1584 H   0  0  0  1  0  0  0  0  0  0  0  0
   19.4287   -8.9244   -9.2233 C   0  0  0  1  0  0  0  0  0  0  0  0
   19.6626   -8.1131   -9.8304 H   0  0  0  1  0  0  0  0  0  0  0  0
   18.6217   -9.7939   -9.8248 C   0  0  0  1  0  0  0  0  0  0  0  0
   18.1865  -11.0250   -9.0841 C   0  0  0  1  0  0  0  0  0  0  0  0
   17.7103  -10.7039   -8.1814 H   0  0  0  1  0  0  0  0  0  0  0  0
   19.0677  -11.5825   -8.8443 H   0  0  0  1  0  0  0  0  0  0  0  0
   18.0812   -9.6654  -11.2211 C   0  0  0  1  0  0  0  0  0  0  0  0
   17.1719  -10.2231  -11.3049 H   0  0  0  1  0  0  0  0  0  0  0  0
   18.7986  -10.0465  -11.9175 H   0  0  0  1  0  0  0  0  0  0  0  0
   17.8882   -8.6349  -11.4352 H   0  0  0  1  0  0  0  0  0  0  0  0
   17.2292  -11.9697   -9.7922 C   0  0  0  1  0  0  0  0  0  0  0  0
   17.6607  -12.2737  -10.7230 H   0  0  0  1  0  0  0  0  0  0  0  0
   16.3059  -11.4611   -9.9757 H   0  0  0  1  0  0  0  0  0  0  0  0
   16.9648  -13.1773   -8.9584 C   0  0  0  1  0  0  0  0  0  0  0  0
   17.8008  -13.7555   -8.7385 H   0  0  0  1  0  0  0  0  0  0  0  0
   15.8144  -13.6259   -8.4526 C   0  0  0  1  0  0  0  0  0  0  0  0
   14.5221  -12.8933   -8.6877 C   0  0  0  1  0  0  0  0  0  0  0  0
   13.8830  -13.5283   -9.2649 H   0  0  0  1  0  0  0  0  0  0  0  0
   14.7420  -12.0065   -9.2447 H   0  0  0  1  0  0  0  0  0  0  0  0
   15.7637  -14.8793   -7.6289 C   0  0  0  1  0  0  0  0  0  0  0  0
   16.6281  -15.4760   -7.8331 H   0  0  0  1  0  0  0  0  0  0  0  0
   14.8820  -15.4328   -7.8762 H   0  0  0  1  0  0  0  0  0  0  0  0
   15.7449  -14.6227   -6.5903 H   0  0  0  1  0  0  0  0  0  0  0  0
   13.7676  -12.4841   -7.4332 C   0  0  0  1  0  0  0  0  0  0  0  0
   14.3406  -11.7305   -6.9345 H   0  0  0  1  0  0  0  0  0  0  0  0
   13.6839  -13.3447   -6.8029 H   0  0  0  1  0  0  0  0  0  0  0  0
   12.3918  -11.9429   -7.6603 C   0  0  0  1  0  0  0  0  0  0  0  0
   12.2977  -11.1114   -8.2778 H   0  0  0  1  0  0  0  0  0  0  0  0
   11.2763  -12.4474   -7.1298 C   0  0  0  1  0  0  0  0  0  0  0  0
   11.3309  -13.5079   -6.0687 C   0  0  0  1  0  0  0  0  0  0  0  0
   12.3532  -13.6612   -5.7928 H   0  0  0  1  0  0  0  0  0  0  0  0
   10.9300  -14.4142   -6.4722 H   0  0  0  1  0  0  0  0  0  0  0  0
    9.9205  -11.9744   -7.5730 C   0  0  0  1  0  0  0  0  0  0  0  0
    9.6173  -12.5218   -8.4409 H   0  0  0  1  0  0  0  0  0  0  0  0
    9.9659  -10.9314   -7.8073 H   0  0  0  1  0  0  0  0  0  0  0  0
    9.2129  -12.1332   -6.7862 H   0  0  0  1  0  0  0  0  0  0  0  0
   10.5425  -13.1432   -4.8214 C   0  0  0  1  0  0  0  0  0  0  0  0
    9.5072  -13.0710   -5.0818 H   0  0  0  1  0  0  0  0  0  0  0  0
   10.8882  -12.1954   -4.4650 H   0  0  0  1  0  0  0  0  0  0  0  0
   10.6888  -14.1526   -3.7160 C   0  0  0  1  0  0  0  0  0  0  0  0
   11.4511  -14.0021   -3.0247 H   0  0  0  1  0  0  0  0  0  0  0  0
    9.9167  -15.2222   -3.5568 C   0  0  0  1  0  0  0  0  0  0  0  0
    9.0001  -15.7547   -4.6216 C   0  0  0  1  0  0  0  0  0  0  0  0
    9.4097  -16.6690   -4.9975 H   0  0  0  1  0  0  0  0  0  0  0  0
    8.9439  -15.0366   -5.4129 H   0  0  0  1  0  0  0  0  0  0  0  0
    9.9024  -15.9960   -2.2711 C   0  0  0  1  0  0  0  0  0  0  0  0
   10.0742  -15.3300   -1.4514 H   0  0  0  1  0  0  0  0  0  0  0  0
   10.6719  -16.7391   -2.2938 H   0  0  0  1  0  0  0  0  0  0  0  0
    8.9510  -16.4707   -2.1513 H   0  0  0  1  0  0  0  0  0  0  0  0
    7.5933  -16.0271   -4.1147 C   0  0  0  1  0  0  0  0  0  0  0  0
    7.1471  -15.0967   -3.8319 H   0  0  0  1  0  0  0  0  0  0  0  0
    7.6575  -16.6670   -3.2595 H   0  0  0  1  0  0  0  0  0  0  0  0
    6.7206  -16.6824   -5.1343 C   0  0  0  1  0  0  0  0  0  0  0  0
    7.1154  -17.4658   -5.6930 H   0  0  0  1  0  0  0  0  0  0  0  0
    5.4647  -16.3139   -5.3629 C   0  0  0  1  0  0  0  0  0  0  0  0
    4.8615  -15.0362   -4.8436 C   0  0  0  1  0  0  0  0  0  0  0  0
    4.8142  -14.3219   -5.6389 H   0  0  0  1  0  0  0  0  0  0  0  0
    5.4757  -14.6531   -4.0556 H   0  0  0  1  0  0  0  0  0  0  0  0
    4.5308  -17.1654   -6.1761 C   0  0  0  1  0  0  0  0  0  0  0  0
    4.5341  -16.8292   -7.1919 H   0  0  0  1  0  0  0  0  0  0  0  0
    3.5405  -17.0882   -5.7783 H   0  0  0  1  0  0  0  0  0  0  0  0
    4.8529  -18.1850   -6.1370 H   0  0  0  1  0  0  0  0  0  0  0  0
    3.4597  -15.2802   -4.3089 C   0  0  0  1  0  0  0  0  0  0  0  0
    3.4543  -16.2315   -3.8191 H   0  0  0  1  0  0  0  0  0  0  0  0
    2.7882  -15.3035   -5.1417 H   0  0  0  1  0  0  0  0  0  0  0  0
    2.9582  -14.2621   -3.3419 C   0  0  0  1  0  0  0  0  0  0  0  0
    3.4762  -14.2134   -2.4414 H   0  0  0  1  0  0  0  0  0  0  0  0
    1.9465  -13.4068   -3.4604 C   0  0  0  1  0  0  0  0  0  0  0  0
    1.3524  -13.1544   -4.8188 C   0  0  0  1  0  0  0  0  0  0  0  0
    0.3010  -13.0066   -4.6860 H   0  0  0  1  0  0  0  0  0  0  0  0
    1.5181  -14.0315   -5.4088 H   0  0  0  1  0  0  0  0  0  0  0  0
    1.3142  -12.6401   -2.3365 C   0  0  0  1  0  0  0  0  0  0  0  0
    0.5957  -11.9532   -2.7326 H   0  0  0  1  0  0  0  0  0  0  0  0
    2.0690  -12.0993   -1.8050 H   0  0  0  1  0  0  0  0  0  0  0  0
    0.8268  -13.3211   -1.6704 H   0  0  0  1  0  0  0  0  0  0  0  0
    1.8821  -11.9684   -5.6084 C   0  0  0  1  0  0  0  0  0  0  0  0
    2.8644  -12.2144   -5.9542 H   0  0  0  1  0  0  0  0  0  0  0  0
    1.9362  -11.1291   -4.9469 H   0  0  0  1  0  0  0  0  0  0  0  0
    1.0574  -11.5674   -6.8004 C   0  0  0  1  0  0  0  0  0  0  0  0
    0.0248  -11.5902   -6.6786 H   0  0  0  1  0  0  0  0  0  0  0  0
    1.5046  -11.1873   -7.9913 C   0  0  0  1  0  0  0  0  0  0  0  0
    0.5658  -10.9421   -9.1352 C   0  0  0  1  0  0  0  0  0  0  0  0
    0.5778   -9.8977   -9.3677 H   0  0  0  1  0  0  0  0  0  0  0  0
   -0.4199  -11.2297   -8.8344 H   0  0  0  1  0  0  0  0  0  0  0  0
    2.9565  -10.9686   -8.3115 C   0  0  0  1  0  0  0  0  0  0  0  0
    3.4804  -11.1382   -7.3940 H   0  0  0  1  0  0  0  0  0  0  0  0
    3.1171   -9.9677   -8.6540 H   0  0  0  1  0  0  0  0  0  0  0  0
    3.2822  -11.6592   -9.0611 H   0  0  0  1  0  0  0  0  0  0  0  0
    0.9362  -11.7207  -10.3869 C   0  0  0  1  0  0  0  0  0  0  0  0
    0.6672  -12.7477  -10.2537 H   0  0  0  1  0  0  0  0  0  0  0  0
    1.9915  -11.6458  -10.5472 H   0  0  0  1  0  0  0  0  0  0  0  0
    0.2200  -11.1777  -11.5797 C   0  0  0  1  0  0  0  0  0  0  0  0
   -0.8172  -11.2486  -11.6083 H   0  0  0  1  0  0  0  0  0  0  0  0
    0.8426  -10.6083  -12.6062 C   0  0  0  1  0  0  0  0  0  0  0  0
    2.3361  -10.5475  -12.7447 C   0  0  0  1  0  0  0  0  0  0  0  0
    2.6043  -10.6617  -13.7742 H   0  0  0  1  0  0  0  0  0  0  0  0
    2.7795  -11.3346  -12.1714 H   0  0  0  1  0  0  0  0  0  0  0  0
    2.6889   -9.6027  -12.3871 H   0  0  0  1  0  0  0  0  0  0  0  0
    0.0765   -9.9650  -13.7365 C   0  0  0  1  0  0  0  0  0  0  0  0
    0.7826   -9.4312  -14.3378 H   0  0  0  1  0  0  0  0  0  0  0  0
   -0.6548   -9.2894  -13.3447 H   0  0  0  1  0  0  0  0  0  0  0  0
   -0.4093  -10.7164  -14.3233 H   0  0  0  1  0  0  0  0  0  0  0  0
   15.9538   -5.0983   -1.5208 C   0  0  0  1  0  0  0  0  0  0  0  0
   16.0584   -5.6125   -0.5883 H   0  0  0  1  0  0  0  0  0  0  0  0
   14.7853   -5.6688   -2.2836 C   0  0  0  1  0  0  0  0  0  0  0  0
   14.9974   -6.6853   -2.5420 H   0  0  0  1  0  0  0  0  0  0  0  0
   15.7200   -3.7130   -1.2785 O   0  0  0  1  0  0  0  0  0  0  0  0
   14.5317   -4.8719   -3.5572 C   0  0  0  1  0  0  0  0  0  0  0  0
   13.6106   -5.1975   -3.9935 H   0  0  0  1  0  0  0  0  0  0  0  0
   15.6566   -2.9215   -2.4794 C   0  0  0  1  0  0  0  0  0  0  0  0
   16.5434   -3.0696   -3.0595 H   0  0  0  1  0  0  0  0  0  0  0  0
   14.4430   -3.3703   -3.2701 C   0  0  0  1  0  0  0  0  0  0  0  0
   14.4048   -2.8343   -4.1953 H   0  0  0  1  0  0  0  0  0  0  0  0
   17.1437   -5.2541   -2.2853 O   0  0  0  1  0  0  0  0  0  0  0  0
   13.6189   -5.6196   -1.4599 O   0  0  0  1  0  0  0  0  0  0  0  0
   13.6462   -6.3370   -0.8226 H   0  0  0  1  0  0  0  0  0  0  0  0
   15.6049   -5.1075   -4.4749 O   0  0  0  1  0  0  0  0  0  0  0  0
   15.3602   -5.8113   -5.0802 H   0  0  0  1  0  0  0  0  0  0  0  0
   15.5244   -1.4501   -2.1215 C   0  0  0  1  0  0  0  0  0  0  0  0
   16.4969   -1.0077   -2.0642 H   0  0  0  1  0  0  0  0  0  0  0  0
   15.0337   -1.3562   -1.1753 H   0  0  0  1  0  0  0  0  0  0  0  0
   14.9494   -0.9508   -2.8732 H   0  0  0  1  0  0  0  0  0  0  0  0
   19.6471   -6.6767   -1.8045 C   0  0  0  1  0  0  0  0  0  0  0  0
   18.8720   -7.1979   -2.3266 H   0  0  0  1  0  0  0  0  0  0  0  0
   19.0347   -5.6483   -0.8933 C   0  0  0  1  0  0  0  0  0  0  0  0
   19.8084   -5.1594   -0.3390 H   0  0  0  1  0  0  0  0  0  0  0  0
   20.4936   -6.0325   -2.7369 O   0  0  0  1  0  0  0  0  0  0  0  0
   18.2845   -4.6317   -1.7041 C   0  0  0  1  0  0  0  0  0  0  0  0
   17.9689   -3.8376   -1.0601 H   0  0  0  1  0  0  0  0  0  0  0  0
   19.7452   -5.1833   -3.6252 C   0  0  0  1  0  0  0  0  0  0  0  0
   20.3943   -4.7802   -4.3742 H   0  0  0  1  0  0  0  0  0  0  0  0
   19.1450   -4.0578   -2.8055 C   0  0  0  1  0  0  0  0  0  0  0  0
   18.5452   -3.4379   -3.4386 H   0  0  0  1  0  0  0  0  0  0  0  0
   18.1157   -6.3051    0.0291 N   0  0  0  1  0  0  0  0  0  0  0  0
   17.3119   -6.7353   -0.3303 H   0  0  0  1  0  0  0  0  0  0  0  0
   20.1944   -3.2780   -2.2302 O   0  0  0  1  0  0  0  0  0  0  0  0
   20.1830   -2.4314   -2.6826 H   0  0  0  1  0  0  0  0  0  0  0  0
   18.6506   -5.9737   -4.2831 C   0  0  0  1  0  0  0  0  0  0  0  0
   17.9987   -6.3834   -3.5400 H   0  0  0  1  0  0  0  0  0  0  0  0
   19.0717   -6.7667   -4.8651 H   0  0  0  1  0  0  0  0  0  0  0  0
   17.9272   -5.0827   -5.1266 O   0  0  0  1  0  0  0  0  0  0  0  0
   17.4045   -4.5004   -4.5703 H   0  0  0  1  0  0  0  0  0  0  0  0
   18.3315   -6.3407    1.3471 C   0  0  0  1  0  0  0  0  0  0  0  0
   19.3877   -5.9774    1.8630 O   0  0  0  1  0  0  0  0  0  0  0  0
   17.1833   -6.8626    2.1888 C   0  0  0  1  0  0  0  0  0  0  0  0
   16.6015   -5.9933    2.4139 H   0  0  0  1  0  0  0  0  0  0  0  0
   17.5479   -7.3169    3.0863 H   0  0  0  1  0  0  0  0  0  0  0  0
   16.6035   -7.5740    1.6385 H   0  0  0  1  0  0  0  0  0  0  0  0
  1  2  1  0  0  0  0
  1  3  1  0  0  0  0
  1  4  1  0  0  0  0
  1 44  1  0  0  0  0
  3 20  1  0  0  0  0
  4  5  1  0  0  0  0
  4  6  1  0  0  0  0
  4  8  1  0  0  0  0
  6  7  1  0  0  0  0
  8  9  1  0  0  0  0
  8 10  1  0  0  0  0
  8 20  1  0  0  0  0
 10 11  1  0  0  0  0
 12 13  1  0  0  0  0
 12 14  1  0  0  0  0
 12 15  1  0  0  0  0
 12 17  1  0  0  0  0
 15 16  1  0  0  0  0
 17 18  1  0  0  0  0
 17 19  1  0  0  0  0
 17 20  1  0  0  0  0
 19 22  1  0  0  0  0
 20 21  1  0  0  0  0
 22 23  1  0  0  0  0
 22 24  1  0  0  0  0
 22 25  1  0  0  0  0
 24 42  1  0  0  0  0
 25 26  1  0  0  0  0
 25 27  1  0  0  0  0
 25 29  1  0  0  0  0
 27 28  1  0  0  0  0
 29 30  1  0  0  0  0
 29 31  1  0  0  0  0
 29 42  1  0  0  0  0
 31 32  1  0  0  0  0
 33 34  1  0  0  0  0
 33 35  1  0  0  0  0
 33 36  1  0  0  0  0
 33 38  1  0  0  0  0
 36 37  1  0  0  0  0
 38 39  1  0  0  0  0
 38 40  1  0  0  0  0
 38 42  1  0  0  0  0
 40 41  1  0  0  0  0
 42 43  1  0  0  0  0
 44194  1  0  0  0  0
 45 46  1  0  0  0  0
 45 54  1  0  0  0  0
 46 47  1  0  0  0  0
 46 48  1  0  0  0  0
 46 49  2  0  0  0  0
 47 50  1  0  0  0  0
 50 51  1  0  0  0  0
 50 52  1  0  0  0  0
 50 53  2  0  0  0  0
 51205  1  0  0  0  0
 54 55  1  0  0  0  0
 54 56  1  0  0  0  0
 54 57  1  0  0  0  0
 57 58  1  0  0  0  0
 57 59  2  0  0  0  0
 59 60  1  0  0  0  0
 59 64  1  0  0  0  0
 60 61  1  0  0  0  0
 60 62  1  0  0  0  0
 60 63  1  0  0  0  0
 64 65  1  0  0  0  0
 64 66  1  0  0  0  0
 64 67  1  0  0  0  0
 67 68  1  0  0  0  0
 67 69  1  0  0  0  0
 67 70  1  0  0  0  0
 70 71  1  0  0  0  0
 70 72  2  0  0  0  0
 72 73  1  0  0  0  0
 72 77  1  0  0  0  0
 73 74  1  0  0  0  0
 73 75  1  0  0  0  0
 73 76  1  0  0  0  0
 77 78  1  0  0  0  0
 77 79  1  0  0  0  0
 77 80  1  0  0  0  0
 80 81  1  0  0  0  0
 80 82  1  0  0  0  0
 80 83  1  0  0  0  0
 83 84  1  0  0  0  0
 83 85  2  0  0  0  0
 85 86  1  0  0  0  0
 85 89  1  0  0  0  0
 86 87  1  0  0  0  0
 86 88  1  0  0  0  0
 86 93  1  0  0  0  0
 89 90  1  0  0  0  0
 89 91  1  0  0  0  0
 89 92  1  0  0  0  0
 93 94  1  0  0  0  0
 93 95  1  0  0  0  0
 93 96  1  0  0  0  0
 96 97  1  0  0  0  0
 96 98  2  0  0  0  0
 98 99  1  0  0  0  0
 98102  1  0  0  0  0
 99100  1  0  0  0  0
 99101  1  0  0  0  0
 99106  1  0  0  0  0
102103  1  0  0  0  0
102104  1  0  0  0  0
102105  1  0  0  0  0
106107  1  0  0  0  0
106108  1  0  0  0  0
106109  1  0  0  0  0
109110  1  0  0  0  0
109111  2  0  0  0  0
111112  1  0  0  0  0
111115  1  0  0  0  0
112113  1  0  0  0  0
112114  1  0  0  0  0
112119  1  0  0  0  0
115116  1  0  0  0  0
115117  1  0  0  0  0
115118  1  0  0  0  0
119120  1  0  0  0  0
119121  1  0  0  0  0
119122  1  0  0  0  0
122123  1  0  0  0  0
122124  2  0  0  0  0
124125  1  0  0  0  0
124128  1  0  0  0  0
125126  1  0  0  0  0
125127  1  0  0  0  0
125132  1  0  0  0  0
128129  1  0  0  0  0
128130  1  0  0  0  0
128131  1  0  0  0  0
132133  1  0  0  0  0
132134  1  0  0  0  0
132135  1  0  0  0  0
135136  1  0  0  0  0
135137  2  0  0  0  0
137138  1  0  0  0  0
137141  1  0  0  0  0
138139  1  0  0  0  0
138140  1  0  0  0  0
138145  1  0  0  0  0
141142  1  0  0  0  0
141143  1  0  0  0  0
141144  1  0  0  0  0
145146  1  0  0  0  0
145147  1  0  0  0  0
145148  1  0  0  0  0
148149  1  0  0  0  0
148150  2  0  0  0  0
150151  1  0  0  0  0
150154  1  0  0  0  0
151152  1  0  0  0  0
151153  1  0  0  0  0
151158  1  0  0  0  0
154155  1  0  0  0  0
154156  1  0  0  0  0
154157  1  0  0  0  0
158159  1  0  0  0  0
158160  1  0  0  0  0
158161  1  0  0  0  0
161162  1  0  0  0  0
161163  2  0  0  0  0
163164  1  0  0  0  0
163167  1  0  0  0  0
164165  1  0  0  0  0
164166  1  0  0  0  0
164171  1  0  0  0  0
167168  1  0  0  0  0
167169  1  0  0  0  0
167170  1  0  0  0  0
171172  1  0  0  0  0
171173  1  0  0  0  0
171174  1  0  0  0  0
174175  1  0  0  0  0
174176  2  0  0  0  0
176177  1  0  0  0  0
176181  1  0  0  0  0
177178  1  0  0  0  0
177179  1  0  0  0  0
177180  1  0  0  0  0
181182  1  0  0  0  0
181183  1  0  0  0  0
181184  1  0  0  0  0
185186  1  0  0  0  0
185187  1  0  0  0  0
185189  1  0  0  0  0
185196  1  0  0  0  0
187188  1  0  0  0  0
187190  1  0  0  0  0
187197  1  0  0  0  0
189192  1  0  0  0  0
190191  1  0  0  0  0
190194  1  0  0  0  0
190199  1  0  0  0  0
192193  1  0  0  0  0
192194  1  0  0  0  0
192201  1  0  0  0  0
194195  1  0  0  0  0
196210  1  0  0  0  0
197198  1  0  0  0  0
199200  1  0  0  0  0
201202  1  0  0  0  0
201203  1  0  0  0  0
201204  1  0  0  0  0
205206  1  0  0  0  0
205207  1  0  0  0  0
205209  1  0  0  0  0
207208  1  0  0  0  0
207210  1  0  0  0  0
207216  1  0  0  0  0
209212  1  0  0  0  0
210211  1  0  0  0  0
210214  1  0  0  0  0
212213  1  0  0  0  0
212214  1  0  0  0  0
212220  1  0  0  0  0
214215  1  0  0  0  0
214218  1  0  0  0  0
216217  1  0  0  0  0
216225  1  0  0  0  0
218219  1  0  0  0  0
220221  1  0  0  0  0
220222  1  0  0  0  0
220223  1  0  0  0  0
223224  1  0  0  0  0
225226  2  0  0  0  0
225227  1  0  0  0  0
227228  1  0  0  0  0
227229  1  0  0  0  0
227230  1  0  0  0  0
M  BCL ATM C_TeTeTeTe H_S O_Te2Te2TeTe C_TeTeTeTe H_S O_Te2Te2TeTe H_S C_TeTeTeTe H_S O_Te2Te2TeTe H_S C_TeTeTeTe H_S H_S O_Te2Te2TeTe H_S C_TeTeTeTe H_S O_Te2Te2TeTe C_TeTeTeTe H_S C_TeTeTeTe H_S O_Te2Te2TeTe C_TeTeTeTe H_S O_Te2Te2TeTe H_S C_TeTeTeTe H_S O_Te2Te2TeTe H_S C_TeTeTeTe H_S H_S O_Te2Te2TeTe H_S C_TeTeTeTe H_S O_Te2Te2TeTe H_S C_TeTeTeTe H_S O_Te2Te2TeTe O_Tr2TrTrPi2 P_TeTeTeTePi O_Tr2TrTrPi2 O_Te2Te2TeTe O_Tr2Tr2TrPi P_TeTeTeTePi O_Tr2TrTrPi2 O_Te2Te2TeTe O_Tr2Tr2TrPi C_TeTeTeTe H_S H_S C_TrTrTrPi H_S C_TrTrTrPi C_TeTeTeTe H_S H_S H_S C_TeTeTeTe H_S H_S C_TeTeTeTe H_S H_S C_TrTrTrPi H_S C_TrTrTrPi C_TeTeTeTe H_S H_S H_S C_TeTeTeTe H_S H_S C_TeTeTeTe H_S H_S C_TrTrTrPi H_S C_TrTrTrPi C_TeTeTeTe H_S H_S C_TeTeTeTe H_S H_S H_S C_TeTeTeTe H_S H_S C_TrTrTrPi H_S C_TrTrTrPi C_TeTeTeTe H_S H_S C_TeTeTeTe H_S H_S H_S C_TeTeTeTe H_S H_S C_TrTrTrPi H_S C_TrTrTrPi C_TeTeTeTe H_S H_S C_TeTeTeTe H_S H_S H_S C_TeTeTeTe H_S H_S C_TrTrTrPi H_S C_TrTrTrPi C_TeTeTeTe H_S H_S C_TeTeTeTe H_S H_S H_S C_TeTeTeTe H_S H_S C_TrTrTrPi H_S C_TrTrTrPi C_TeTeTeTe H_S H_S C_TeTeTeTe H_S H_S H_S C_TeTeTeTe H_S H_S C_TrTrTrPi H_S C_TrTrTrPi C_TeTeTeTe H_S H_S C_TeTeTeTe H_S H_S H_S C_TeTeTeTe H_S H_S C_TrTrTrPi H_S C_TrTrTrPi C_TeTeTeTe H_S H_S C_TeTeTeTe H_S H_S H_S C_TeTeTeTe H_S H_S C_TrTrTrPi H_S C_TrTrTrPi C_TeTeTeTe H_S H_S H_S C_TeTeTeTe H_S H_S H_S C_TeTeTeTe H_S C_TeTeTeTe H_S O_Te2Te2TeTe C_TeTeTeTe H_S C_TeTeTeTe H_S C_TeTeTeTe H_S O_Te2Te2TeTe O_Te2Te2TeTe H_S O_Te2Te2TeTe H_S C_TeTeTeTe H_S H_S H_S C_TeTeTeTe H_S C_TeTeTeTe H_S O_Te2Te2TeTe C_TeTeTeTe H_S C_TeTeTeTe H_S C_TeTeTeTe H_S N_TrTrTrPi2 H_S O_Te2Te2TeTe H_S C_TeTeTeTe H_S H_S O_Te2Te2TeTe H_S C_TrTrTrPi O_Tr2Tr2TrPi C_TeTeTeTe H_S H_S H_S
M  BCL BND NonConjugatedSingleBond NonConjugatedSingleBondInRing NonConjugatedSingleBondInRing NonConjugatedSingleBond NonConjugatedSingleBondInRing NonConjugatedSingleBond NonConjugatedSingleBond NonConjugatedSingleBondInRing NonConjugatedSingleBond NonConjugatedSingleBond NonConjugatedSingleBond NonConjugatedSingleBondInRing NonConjugatedSingleBond NonConjugatedSingleBond NonConjugatedSingleBond NonConjugatedSingleBond NonConjugatedSingleBond NonConjugatedSingleBond NonConjugatedSingleBond NonConjugatedSingleBond NonConjugatedSingleBond NonConjugatedSingleBond NonConjugatedSingleBond NonConjugatedSingleBond NonConjugatedSingleBondInRing NonConjugatedSingleBondInRing NonConjugatedSingleBondInRing NonConjugatedSingleBond NonConjugatedSingleBond NonConjugatedSingleBondInRing NonConjugatedSingleBond NonConjugatedSingleBond NonConjugatedSingleBond NonConjugatedSingleBondInRing NonConjugatedSingleBond NonConjugatedSingleBond NonConjugatedSingleBond NonConjugatedSingleBond NonConjugatedSingleBond NonConjugatedSingleBond NonConjugatedSingleBond NonConjugatedSingleBond NonConjugatedSingleBond NonConjugatedSingleBond NonConjugatedSingleBond NonConjugatedSingleBond ConjugatedSingleBond NonConjugatedSingleBond ConjugatedSingleBond ConjugatedSingleBond ConjugatedDoubleBond ConjugatedSingleBond ConjugatedSingleBond ConjugatedSingleBond ConjugatedDoubleBond NonConjugatedSingleBond NonConjugatedSingleBond NonConjugatedSingleBond NonConjugatedSingleBond NonConjugatedSingleBond ConjugatedDoubleBond NonConjugatedSingleBond NonConjugatedSingleBond NonConjugatedSingleBond NonConjugatedSingleBond NonConjugatedSingleBond NonConjugatedSingleBond NonConjugatedSingleBond NonConjugatedSingleBond NonConjugatedSingleBond NonConjugatedSingleBond NonConjugatedSingleBond NonConjugatedSingleBond ConjugatedDoubleBond NonConjugatedSingleBond NonConjugatedSingleBond NonConjugatedSingleBond NonConjugatedSingleBond NonConjugatedSingleBond NonConjugatedSingleBond NonConjugatedSingleBond NonConjugatedSingleBond NonConjugatedSingleBond NonConjugatedSingleBond NonConjugatedSingleBond NonConjugatedSingleBond ConjugatedDoubleBond NonConjugatedSingleBond NonConjugatedSingleBond NonConjugatedSingleBond NonConjugatedSingleBond NonConjugatedSingleBond NonConjugatedSingleBond NonConjugatedSingleBond NonConjugatedSingleBond NonConjugatedSingleBond NonConjugatedSingleBond NonConjugatedSingleBond NonConjugatedSingleBond ConjugatedDoubleBond NonConjugatedSingleBond NonConjugatedSingleBond NonConjugatedSingleBond NonConjugatedSingleBond NonConjugatedSingleBond NonConjugatedSingleBond NonConjugatedSingleBond NonConjugatedSingleBond NonConjugatedSingleBond NonConjugatedSingleBond NonConjugatedSingleBond NonConjugatedSingleBond ConjugatedDoubleBond NonConjugatedSingleBond NonConjugatedSingleBond NonConjugatedSingleBond NonConjugatedSingleBond NonConjugatedSingleBond NonConjugatedSingleBond NonConjugatedSingleBond NonConjugatedSingleBond NonConjugatedSingleBond NonConjugatedSingleBond NonConjugatedSingleBond NonConjugatedSingleBond ConjugatedDoubleBond NonConjugatedSingleBond NonConjugatedSingleBond NonConjugatedSingleBond NonConjugatedSingleBond NonConjugatedSingleBond NonConjugatedSingleBond NonConjugatedSingleBond NonConjugatedSingleBond NonConjugatedSingleBond NonConjugatedSingleBond NonConjugatedSingleBond NonConjugatedSingleBond ConjugatedDoubleBond NonConjugatedSingleBond NonConjugatedSingleBond NonConjugatedSingleBond NonConjugatedSingleBond NonConjugatedSingleBond NonConjugatedSingleBond NonConjugatedSingleBond NonConjugatedSingleBond NonConjugatedSingleBond NonConjugatedSingleBond NonConjugatedSingleBond NonConjugatedSingleBond ConjugatedDoubleBond NonConjugatedSingleBond NonConjugatedSingleBond NonConjugatedSingleBond NonConjugatedSingleBond NonConjugatedSingleBond NonConjugatedSingleBond NonConjugatedSingleBond NonConjugatedSingleBond NonConjugatedSingleBond NonConjugatedSingleBond NonConjugatedSingleBond NonConjugatedSingleBond ConjugatedDoubleBond NonConjugatedSingleBond NonConjugatedSingleBond NonConjugatedSingleBond NonConjugatedSingleBond NonConjugatedSingleBond NonConjugatedSingleBond NonConjugatedSingleBond NonConjugatedSingleBond NonConjugatedSingleBond NonConjugatedSingleBond NonConjugatedSingleBond NonConjugatedSingleBond ConjugatedDoubleBond NonConjugatedSingleBond NonConjugatedSingleBond NonConjugatedSingleBond NonConjugatedSingleBond NonConjugatedSingleBond NonConjugatedSingleBond NonConjugatedSingleBond NonConjugatedSingleBond NonConjugatedSingleBond NonConjugatedSingleBondInRing NonConjugatedSingleBondInRing NonConjugatedSingleBond NonConjugatedSingleBond NonConjugatedSingleBondInRing NonConjugatedSingleBond NonConjugatedSingleBondInRing NonConjugatedSingleBond NonConjugatedSingleBondInRing NonConjugatedSingleBond NonConjugatedSingleBond NonConjugatedSingleBondInRing NonConjugatedSingleBond NonConjugatedSingleBond NonConjugatedSingleBond NonConjugatedSingleBond NonConjugatedSingleBond NonConjugatedSingleBond NonConjugatedSingleBond NonConjugatedSingleBond NonConjugatedSingleBond NonConjugatedSingleBondInRing NonConjugatedSingleBondInRing NonConjugatedSingleBond NonConjugatedSingleBondInRing NonConjugatedSingleBond NonConjugatedSingleBondInRing NonConjugatedSingleBond NonConjugatedSingleBondInRing NonConjugatedSingleBond NonConjugatedSingleBondInRing NonConjugatedSingleBond NonConjugatedSingleBond NonConjugatedSingleBond NonConjugatedSingleBond AmideSingleBond NonConjugatedSingleBond NonConjugatedSingleBond NonConjugatedSingleBond NonConjugatedSingleBond NonConjugatedSingleBond ConjugatedDoubleBond NonConjugatedSingleBond NonConjugatedSingleBond NonConjugatedSingleBond NonConjugatedSingleBond
M  BCL CHI   1   R   4   R   8   R  17   S  20   R  22   S  25   R  29   S  38   S  42   R  46   R  50   S 185   R 187   S 190   S 192   R 194   R 205   R 207   S 210   R 212   S 214   S
M  BCL DBI - - E E E E E E E E Z - -
M  END
> <ConfClashScore>
0.0100858 

> <ConfOneFourInteractionScore>
-0.96369 

> <ConfScore>
1.14675 

> <ConfScorePBest>
0.00922749 

> <ConfTolerance>
2.93317 

$$$$
L05.****
  PyMOL2.5          3D                             0

230233  0  0  0  0  0  0  0  0999 V2000
   11.8936   -3.2013   -2.6223 C   0  0  0  1  0  0  0  0  0  0  0  0
   11.4205   -2.3031   -2.2843 H   0  0  0  1  0  0  0  0  0  0  0  0
   11.1605   -4.3525   -2.1694 O   0  0  0  1  0  0  0  0  0  0  0  0
   11.8810   -3.2639   -4.1156 C   0  0  0  1  0  0  0  0  0  0  0  0
   12.7155   -3.8239   -4.4827 H   0  0  0  1  0  0  0  0  0  0  0  0
   11.8999   -1.9530   -4.6826 O   0  0  0  1  0  0  0  0  0  0  0  0
   12.3740   -1.9716   -5.5172 H   0  0  0  1  0  0  0  0  0  0  0  0
   10.5897   -3.9623   -4.4209 C   0  0  0  1  0  0  0  0  0  0  0  0
    9.7735   -3.2709   -4.4472 H   0  0  0  1  0  0  0  0  0  0  0  0
   10.6629   -4.6610   -5.6646 O   0  0  0  1  0  0  0  0  0  0  0  0
   10.4928   -4.0505   -6.3857 H   0  0  0  1  0  0  0  0  0  0  0  0
    8.2221   -3.7767   -2.8536 C   0  0  0  1  0  0  0  0  0  0  0  0
    7.9357   -3.4695   -3.8377 H   0  0  0  1  0  0  0  0  0  0  0  0
    7.3481   -3.8933   -2.2473 H   0  0  0  1  0  0  0  0  0  0  0  0
    9.0878   -2.8086   -2.2757 O   0  0  0  1  0  0  0  0  0  0  0  0
    9.3629   -3.1040   -1.4047 H   0  0  0  1  0  0  0  0  0  0  0  0
    8.9854   -5.0892   -2.9213 C   0  0  0  1  0  0  0  0  0  0  0  0
    8.5382   -5.6816   -3.6919 H   0  0  0  1  0  0  0  0  0  0  0  0
    8.9106   -5.8049   -1.6938 O   0  0  0  1  0  0  0  0  0  0  0  0
   10.4552   -4.9107   -3.2777 C   0  0  0  1  0  0  0  0  0  0  0  0
   10.8772   -5.8587   -3.5386 H   0  0  0  1  0  0  0  0  0  0  0  0
    7.6520   -6.1586   -1.1982 C   0  0  0  1  0  0  0  0  0  0  0  0
    7.0230   -5.2934   -1.1705 H   0  0  0  1  0  0  0  0  0  0  0  0
    7.0750   -7.1670   -1.9825 O   0  0  0  1  0  0  0  0  0  0  0  0
    7.7739   -6.7873    0.1974 C   0  0  0  1  0  0  0  0  0  0  0  0
    7.7493   -6.0385    0.9613 H   0  0  0  1  0  0  0  0  0  0  0  0
    8.9761   -7.5496    0.3155 O   0  0  0  1  0  0  0  0  0  0  0  0
    9.3158   -7.4759    1.2104 H   0  0  0  1  0  0  0  0  0  0  0  0
    6.5591   -7.6749    0.2676 C   0  0  0  1  0  0  0  0  0  0  0  0
    5.6996   -7.1243    0.5888 H   0  0  0  1  0  0  0  0  0  0  0  0
    6.7780   -8.7719    1.1498 O   0  0  0  1  0  0  0  0  0  0  0  0
    6.8406   -8.4500    2.0520 H   0  0  0  1  0  0  0  0  0  0  0  0
    3.9399   -8.0444   -0.4343 C   0  0  0  1  0  0  0  0  0  0  0  0
    4.2249   -8.6697    0.3858 H   0  0  0  1  0  0  0  0  0  0  0  0
    3.9565   -7.0202   -0.1252 H   0  0  0  1  0  0  0  0  0  0  0  0
    2.6129   -8.3820   -0.8268 O   0  0  0  1  0  0  0  0  0  0  0  0
    2.6433   -9.0035   -1.5578 H   0  0  0  1  0  0  0  0  0  0  0  0
    4.9328   -8.2282   -1.5489 C   0  0  0  1  0  0  0  0  0  0  0  0
    4.7444   -7.4792   -2.2895 H   0  0  0  1  0  0  0  0  0  0  0  0
    4.7705   -9.5170   -2.1351 O   0  0  0  1  0  0  0  0  0  0  0  0
    5.3670  -10.1389   -1.7120 H   0  0  0  1  0  0  0  0  0  0  0  0
    6.3949   -8.1560   -1.1771 C   0  0  0  1  0  0  0  0  0  0  0  0
    6.8441   -9.1186   -1.3058 H   0  0  0  1  0  0  0  0  0  0  0  0
   13.2307   -3.2453   -2.1376 O   0  0  0  1  0  0  0  0  0  0  0  0
   23.4405   -5.7433   -4.9610 O   0  0  0  1  0  0  0  0  0  0  0  0
   23.2190   -6.1622   -6.4863 P   0  0  0  1  0  0  0  0  0  0  0  0
   21.6490   -6.4879   -6.4745 O   0  0  0  1  0  0  0  0  0  0  0  0
   24.0425   -7.3702   -6.8175 O   0  0  0  0  0  0  0  0  0  0  0  0
   23.4155   -4.9734   -7.3758 O   0  0  0  1  0  0  0  0  0  0  0  0
   20.8476   -7.7693   -5.8934 P   0  0  0  1  0  0  0  0  0  0  0  0
   20.4150   -7.3454   -4.4411 O   0  0  0  1  0  0  0  0  0  0  0  0
   21.8535   -8.8591   -5.8656 O   0  0  0  0  0  0  0  0  0  0  0  0
   19.5799   -8.0087   -6.6141 O   0  0  0  1  0  0  0  0  0  0  0  0
   22.7735   -4.6287   -4.3475 C   0  0  0  1  0  0  0  0  0  0  0  0
   21.8257   -4.9431   -3.9630 H   0  0  0  1  0  0  0  0  0  0  0  0
   22.6263   -3.8541   -5.0708 H   0  0  0  1  0  0  0  0  0  0  0  0
   23.6293   -4.1173   -3.2262 C   0  0  0  1  0  0  0  0  0  0  0  0
   24.6342   -3.9866   -3.4601 H   0  0  0  1  0  0  0  0  0  0  0  0
   23.2938   -3.8069   -1.9798 C   0  0  0  1  0  0  0  0  0  0  0  0
   24.3360   -3.4946   -0.9455 C   0  0  0  1  0  0  0  0  0  0  0  0
   24.2040   -2.4916   -0.5969 H   0  0  0  1  0  0  0  0  0  0  0  0
   25.3093   -3.5964   -1.3783 H   0  0  0  1  0  0  0  0  0  0  0  0
   24.2376   -4.1732   -0.1241 H   0  0  0  1  0  0  0  0  0  0  0  0
   21.8764   -3.7368   -1.4853 C   0  0  0  1  0  0  0  0  0  0  0  0
   21.3732   -4.6388   -1.7648 H   0  0  0  1  0  0  0  0  0  0  0  0
   21.3950   -2.9010   -1.9484 H   0  0  0  1  0  0  0  0  0  0  0  0
   21.7792   -3.5763    0.0231 C   0  0  0  1  0  0  0  0  0  0  0  0
   20.7837   -3.2715    0.2698 H   0  0  0  1  0  0  0  0  0  0  0  0
   22.4708   -2.8198    0.3303 H   0  0  0  1  0  0  0  0  0  0  0  0
   22.0884   -4.8302    0.7643 C   0  0  0  1  0  0  0  0  0  0  0  0
   23.0855   -5.1190    0.7016 H   0  0  0  1  0  0  0  0  0  0  0  0
   21.3384   -5.6512    1.4896 C   0  0  0  1  0  0  0  0  0  0  0  0
   21.8197   -7.0248    1.8627 C   0  0  0  1  0  0  0  0  0  0  0  0
   22.4721   -6.9573    2.7081 H   0  0  0  1  0  0  0  0  0  0  0  0
   22.3489   -7.4534    1.0374 H   0  0  0  1  0  0  0  0  0  0  0  0
   20.9808   -7.6419    2.1083 H   0  0  0  1  0  0  0  0  0  0  0  0
   19.9704   -5.3055    1.9994 C   0  0  0  1  0  0  0  0  0  0  0  0
   19.7907   -4.2669    1.8151 H   0  0  0  1  0  0  0  0  0  0  0  0
   19.9424   -5.4914    3.0527 H   0  0  0  1  0  0  0  0  0  0  0  0
   18.8663   -6.1125    1.3361 C   0  0  0  1  0  0  0  0  0  0  0  0
   19.1669   -7.1389    1.3041 H   0  0  0  1  0  0  0  0  0  0  0  0
   18.7306   -5.7488    0.3390 H   0  0  0  1  0  0  0  0  0  0  0  0
   17.5511   -6.0209    2.0626 C   0  0  0  1  0  0  0  0  0  0  0  0
   17.0866   -5.0912    2.1016 H   0  0  0  1  0  0  0  0  0  0  0  0
   16.9394   -7.0393    2.6578 C   0  0  0  1  0  0  0  0  0  0  0  0
   17.3062   -8.4816    2.4315 C   0  0  0  1  0  0  0  0  0  0  0  0
   17.6702   -8.5764    1.4299 H   0  0  0  1  0  0  0  0  0  0  0  0
   16.4196   -9.0696    2.5465 H   0  0  0  1  0  0  0  0  0  0  0  0
   15.8090   -6.8218    3.6239 C   0  0  0  1  0  0  0  0  0  0  0  0
   14.8822   -7.0730    3.1518 H   0  0  0  1  0  0  0  0  0  0  0  0
   15.7893   -5.7949    3.9240 H   0  0  0  1  0  0  0  0  0  0  0  0
   15.9507   -7.4425    4.4839 H   0  0  0  1  0  0  0  0  0  0  0  0
   18.3639   -9.0398    3.3697 C   0  0  0  1  0  0  0  0  0  0  0  0
   18.0421   -8.8824    4.3779 H   0  0  0  1  0  0  0  0  0  0  0  0
   19.2804   -8.5139    3.2010 H   0  0  0  1  0  0  0  0  0  0  0  0
   18.6118  -10.5097    3.1702 C   0  0  0  1  0  0  0  0  0  0  0  0
   17.7867  -11.1427    3.1808 H   0  0  0  1  0  0  0  0  0  0  0  0
   19.8064  -11.0599    2.9813 C   0  0  0  1  0  0  0  0  0  0  0  0
   21.0859  -10.2781    2.9410 C   0  0  0  1  0  0  0  0  0  0  0  0
   21.1164   -9.6308    3.7925 H   0  0  0  1  0  0  0  0  0  0  0  0
   21.0987   -9.6918    2.0460 H   0  0  0  1  0  0  0  0  0  0  0  0
   19.9680  -12.5392    2.7897 C   0  0  0  1  0  0  0  0  0  0  0  0
   20.6321  -12.7229    1.9711 H   0  0  0  1  0  0  0  0  0  0  0  0
   19.0147  -12.9777    2.5807 H   0  0  0  1  0  0  0  0  0  0  0  0
   20.3726  -12.9718    3.6808 H   0  0  0  1  0  0  0  0  0  0  0  0
   22.3236  -11.1603    2.9593 C   0  0  0  1  0  0  0  0  0  0  0  0
   22.2639  -11.8131    2.1137 H   0  0  0  1  0  0  0  0  0  0  0  0
   22.2917  -11.7379    3.8595 H   0  0  0  1  0  0  0  0  0  0  0  0
   23.6637  -10.4795    2.9087 C   0  0  0  1  0  0  0  0  0  0  0  0
   23.9015   -9.9894    2.0228 H   0  0  0  1  0  0  0  0  0  0  0  0
   24.5768  -10.4364    3.8730 C   0  0  0  1  0  0  0  0  0  0  0  0
   24.5605  -11.3338    5.0763 C   0  0  0  1  0  0  0  0  0  0  0  0
   23.6042  -11.8105    5.1326 H   0  0  0  1  0  0  0  0  0  0  0  0
   24.7131  -10.7350    5.9498 H   0  0  0  1  0  0  0  0  0  0  0  0
   25.7209   -9.4629    3.8297 C   0  0  0  1  0  0  0  0  0  0  0  0
   26.4173   -9.7635    3.0751 H   0  0  0  1  0  0  0  0  0  0  0  0
   26.2109   -9.4463    4.7808 H   0  0  0  1  0  0  0  0  0  0  0  0
   25.3489   -8.4857    3.6025 H   0  0  0  1  0  0  0  0  0  0  0  0
   25.6349  -12.4081    5.0324 C   0  0  0  1  0  0  0  0  0  0  0  0
   26.5811  -11.9368    4.8668 H   0  0  0  1  0  0  0  0  0  0  0  0
   25.4197  -13.0720    4.2213 H   0  0  0  1  0  0  0  0  0  0  0  0
   25.7161  -13.2130    6.3019 C   0  0  0  1  0  0  0  0  0  0  0  0
   25.7486  -12.6915    7.2011 H   0  0  0  1  0  0  0  0  0  0  0  0
   25.7492  -14.5401    6.3592 C   0  0  0  1  0  0  0  0  0  0  0  0
   25.9440  -15.4210    5.1594 C   0  0  0  1  0  0  0  0  0  0  0  0
   26.1334  -16.4151    5.5070 H   0  0  0  1  0  0  0  0  0  0  0  0
   26.7965  -15.0622    4.6214 H   0  0  0  1  0  0  0  0  0  0  0  0
   25.5905  -15.2752    7.6603 C   0  0  0  1  0  0  0  0  0  0  0  0
   24.6654  -14.9943    8.1187 H   0  0  0  1  0  0  0  0  0  0  0  0
   26.4015  -15.0255    8.3120 H   0  0  0  1  0  0  0  0  0  0  0  0
   25.5916  -16.3293    7.4765 H   0  0  0  1  0  0  0  0  0  0  0  0
   24.7704  -15.4771    4.1950 C   0  0  0  1  0  0  0  0  0  0  0  0
   24.4850  -14.4761    3.9472 H   0  0  0  1  0  0  0  0  0  0  0  0
   23.9546  -15.9715    4.6797 H   0  0  0  1  0  0  0  0  0  0  0  0
   25.0866  -16.2091    2.9295 C   0  0  0  1  0  0  0  0  0  0  0  0
   25.4955  -15.6611    2.1459 H   0  0  0  1  0  0  0  0  0  0  0  0
   24.8830  -17.5128    2.7310 C   0  0  0  1  0  0  0  0  0  0  0  0
   24.3893  -18.3997    3.8369 C   0  0  0  1  0  0  0  0  0  0  0  0
   24.5418  -17.8774    4.7583 H   0  0  0  1  0  0  0  0  0  0  0  0
   24.9867  -19.2873    3.8264 H   0  0  0  1  0  0  0  0  0  0  0  0
   25.1396  -18.1458    1.3923 C   0  0  0  1  0  0  0  0  0  0  0  0
   26.1785  -18.3862    1.3042 H   0  0  0  1  0  0  0  0  0  0  0  0
   24.8650  -17.4622    0.6163 H   0  0  0  1  0  0  0  0  0  0  0  0
   24.5581  -19.0396    1.3033 H   0  0  0  1  0  0  0  0  0  0  0  0
   22.9325  -18.8314    3.7945 C   0  0  0  1  0  0  0  0  0  0  0  0
   22.8221  -19.7161    4.3862 H   0  0  0  1  0  0  0  0  0  0  0  0
   22.6701  -19.0455    2.7795 H   0  0  0  1  0  0  0  0  0  0  0  0
   21.9969  -17.7886    4.3183 C   0  0  0  1  0  0  0  0  0  0  0  0
   22.3360  -16.8075    4.3826 H   0  0  0  1  0  0  0  0  0  0  0  0
   20.7526  -18.0542    4.7059 C   0  0  0  1  0  0  0  0  0  0  0  0
   20.2423  -19.4648    4.6217 C   0  0  0  1  0  0  0  0  0  0  0  0
   20.1108  -19.8284    5.6194 H   0  0  0  1  0  0  0  0  0  0  0  0
   20.9821  -20.0541    4.1214 H   0  0  0  1  0  0  0  0  0  0  0  0
   19.7703  -17.0523    5.2383 C   0  0  0  1  0  0  0  0  0  0  0  0
   19.2387  -16.6058    4.4240 H   0  0  0  1  0  0  0  0  0  0  0  0
   20.2940  -16.2933    5.7810 H   0  0  0  1  0  0  0  0  0  0  0  0
   19.0777  -17.5436    5.8894 H   0  0  0  1  0  0  0  0  0  0  0  0
   18.9257  -19.6383    3.8821 C   0  0  0  1  0  0  0  0  0  0  0  0
   18.7612  -18.7876    3.2544 H   0  0  0  1  0  0  0  0  0  0  0  0
   18.1309  -19.7158    4.5943 H   0  0  0  1  0  0  0  0  0  0  0  0
   18.9501  -20.8712    3.0395 C   0  0  0  1  0  0  0  0  0  0  0  0
   19.3601  -20.8101    2.0856 H   0  0  0  1  0  0  0  0  0  0  0  0
   18.4739  -22.0423    3.4484 C   0  0  0  1  0  0  0  0  0  0  0  0
   18.4932  -23.2878    2.6106 C   0  0  0  1  0  0  0  0  0  0  0  0
   19.4231  -23.7921    2.7715 H   0  0  0  1  0  0  0  0  0  0  0  0
   18.4125  -23.0071    1.5813 H   0  0  0  1  0  0  0  0  0  0  0  0
   17.8661  -22.2111    4.8125 C   0  0  0  1  0  0  0  0  0  0  0  0
   18.2790  -23.1193    5.1991 H   0  0  0  1  0  0  0  0  0  0  0  0
   16.8011  -22.2855    4.7405 H   0  0  0  1  0  0  0  0  0  0  0  0
   18.1247  -21.3852    5.4417 H   0  0  0  1  0  0  0  0  0  0  0  0
   17.3600  -24.2453    2.9412 C   0  0  0  1  0  0  0  0  0  0  0  0
   16.4803  -23.6729    3.1496 H   0  0  0  1  0  0  0  0  0  0  0  0
   17.6328  -24.8095    3.8084 H   0  0  0  1  0  0  0  0  0  0  0  0
   17.0553  -25.1986    1.8295 C   0  0  0  1  0  0  0  0  0  0  0  0
   17.7311  -25.9763    1.6875 H   0  0  0  1  0  0  0  0  0  0  0  0
   16.0107  -25.1594    1.0004 C   0  0  0  1  0  0  0  0  0  0  0  0
   15.8751  -26.1425   -0.1260 C   0  0  0  1  0  0  0  0  0  0  0  0
   16.7090  -26.0432   -0.7891 H   0  0  0  1  0  0  0  0  0  0  0  0
   14.9691  -25.9485   -0.6612 H   0  0  0  1  0  0  0  0  0  0  0  0
   15.8505  -27.1364    0.2694 H   0  0  0  1  0  0  0  0  0  0  0  0
   14.9231  -24.1252    1.1613 C   0  0  0  1  0  0  0  0  0  0  0  0
   14.0134  -24.5599    0.8029 H   0  0  0  1  0  0  0  0  0  0  0  0
   15.1611  -23.2522    0.5902 H   0  0  0  1  0  0  0  0  0  0  0  0
   14.8202  -23.8601    2.1928 H   0  0  0  1  0  0  0  0  0  0  0  0
   16.1647   -5.2194   -1.8932 C   0  0  0  1  0  0  0  0  0  0  0  0
   16.5424   -5.8034   -1.0800 H   0  0  0  1  0  0  0  0  0  0  0  0
   14.8360   -5.7993   -2.3605 C   0  0  0  1  0  0  0  0  0  0  0  0
   14.9834   -6.7971   -2.7177 H   0  0  0  1  0  0  0  0  0  0  0  0
   15.9701   -3.8707   -1.4612 O   0  0  0  1  0  0  0  0  0  0  0  0
   14.2936   -4.9203   -3.4919 C   0  0  0  1  0  0  0  0  0  0  0  0
   13.3012   -5.2413   -3.7305 H   0  0  0  1  0  0  0  0  0  0  0  0
   15.5885   -3.0022   -2.5393 C   0  0  0  1  0  0  0  0  0  0  0  0
   16.3347   -3.0383   -3.3053 H   0  0  0  1  0  0  0  0  0  0  0  0
   14.2528   -3.4496   -3.1142 C   0  0  0  1  0  0  0  0  0  0  0  0
   14.0345   -2.8696   -3.9865 H   0  0  0  1  0  0  0  0  0  0  0  0
   17.0973   -5.2433   -2.9687 O   0  0  0  1  0  0  0  0  0  0  0  0
   13.9082   -5.8137   -1.2746 O   0  0  0  1  0  0  0  0  0  0  0  0
   13.8958   -4.9517   -0.8522 H   0  0  0  1  0  0  0  0  0  0  0  0
   15.1372   -5.0772   -4.6417 O   0  0  0  1  0  0  0  0  0  0  0  0
   16.0148   -5.3465   -4.3609 H   0  0  0  1  0  0  0  0  0  0  0  0
   15.4636   -1.5886   -2.0236 C   0  0  0  1  0  0  0  0  0  0  0  0
   14.5542   -1.4901   -1.4684 H   0  0  0  1  0  0  0  0  0  0  0  0
   15.4528   -0.9078   -2.8490 H   0  0  0  1  0  0  0  0  0  0  0  0
   16.2951   -1.3663   -1.3880 H   0  0  0  1  0  0  0  0  0  0  0  0
   19.5100   -6.2873   -4.2379 C   0  0  0  1  0  0  0  0  0  0  0  0
   18.5686   -6.5318   -4.6839 H   0  0  0  1  0  0  0  0  0  0  0  0
   19.3231   -6.0631   -2.7622 C   0  0  0  1  0  0  0  0  0  0  0  0
   20.2722   -5.8631   -2.3105 H   0  0  0  1  0  0  0  0  0  0  0  0
   20.0211   -5.1088   -4.8303 O   0  0  0  1  0  0  0  0  0  0  0  0
   18.4082   -4.8945   -2.5365 C   0  0  0  1  0  0  0  0  0  0  0  0
   18.3902   -4.6638   -1.4918 H   0  0  0  1  0  0  0  0  0  0  0  0
   19.0696   -4.0318   -4.7606 C   0  0  0  1  0  0  0  0  0  0  0  0
   19.4435   -3.1824   -5.2932 H   0  0  0  1  0  0  0  0  0  0  0  0
   18.8688   -3.6752   -3.3007 C   0  0  0  1  0  0  0  0  0  0  0  0
   18.1296   -2.9057   -3.2211 H   0  0  0  1  0  0  0  0  0  0  0  0
   18.7400   -7.2571   -2.1614 N   0  0  0  1  0  0  0  0  0  0  0  0
   18.0109   -7.7146   -2.6301 H   0  0  0  1  0  0  0  0  0  0  0  0
   20.1040   -3.2090   -2.7514 O   0  0  0  1  0  0  0  0  0  0  0  0
   20.5936   -2.8168   -3.4780 H   0  0  0  1  0  0  0  0  0  0  0  0
   17.7642   -4.4660   -5.3626 C   0  0  0  1  0  0  0  0  0  0  0  0
   17.4139   -5.3422   -4.8581 H   0  0  0  1  0  0  0  0  0  0  0  0
   17.9064   -4.6843   -6.4004 H   0  0  0  1  0  0  0  0  0  0  0  0
   16.8045   -3.4264   -5.2255 O   0  0  0  1  0  0  0  0  0  0  0  0
   17.0575   -2.7057   -5.8070 H   0  0  0  1  0  0  0  0  0  0  0  0
   19.1643   -7.7483   -0.9961 C   0  0  0  1  0  0  0  0  0  0  0  0
   20.1370   -7.2967   -0.3931 O   0  0  0  1  0  0  0  0  0  0  0  0
   18.3710   -8.9118   -0.4458 C   0  0  0  1  0  0  0  0  0  0  0  0
   18.4640   -9.6739   -1.1911 H   0  0  0  1  0  0  0  0  0  0  0  0
   17.3453   -8.6395   -0.3090 H   0  0  0  1  0  0  0  0  0  0  0  0
   18.7803   -9.2419    0.4861 H   0  0  0  1  0  0  0  0  0  0  0  0
  1  2  1  0  0  0  0
  1  3  1  0  0  0  0
  1  4  1  0  0  0  0
  1 44  1  0  0  0  0
  3 20  1  0  0  0  0
  4  5  1  0  0  0  0
  4  6  1  0  0  0  0
  4  8  1  0  0  0  0
  6  7  1  0  0  0  0
  8  9  1  0  0  0  0
  8 10  1  0  0  0  0
  8 20  1  0  0  0  0
 10 11  1  0  0  0  0
 12 13  1  0  0  0  0
 12 14  1  0  0  0  0
 12 15  1  0  0  0  0
 12 17  1  0  0  0  0
 15 16  1  0  0  0  0
 17 18  1  0  0  0  0
 17 19  1  0  0  0  0
 17 20  1  0  0  0  0
 19 22  1  0  0  0  0
 20 21  1  0  0  0  0
 22 23  1  0  0  0  0
 22 24  1  0  0  0  0
 22 25  1  0  0  0  0
 24 42  1  0  0  0  0
 25 26  1  0  0  0  0
 25 27  1  0  0  0  0
 25 29  1  0  0  0  0
 27 28  1  0  0  0  0
 29 30  1  0  0  0  0
 29 31  1  0  0  0  0
 29 42  1  0  0  0  0
 31 32  1  0  0  0  0
 33 34  1  0  0  0  0
 33 35  1  0  0  0  0
 33 36  1  0  0  0  0
 33 38  1  0  0  0  0
 36 37  1  0  0  0  0
 38 39  1  0  0  0  0
 38 40  1  0  0  0  0
 38 42  1  0  0  0  0
 40 41  1  0  0  0  0
 42 43  1  0  0  0  0
 44194  1  0  0  0  0
 45 46  1  0  0  0  0
 45 54  1  0  0  0  0
 46 47  1  0  0  0  0
 46 48  1  0  0  0  0
 46 49  2  0  0  0  0
 47 50  1  0  0  0  0
 50 51  1  0  0  0  0
 50 52  1  0  0  0  0
 50 53  2  0  0  0  0
 51205  1  0  0  0  0
 54 55  1  0  0  0  0
 54 56  1  0  0  0  0
 54 57  1  0  0  0  0
 57 58  1  0  0  0  0
 57 59  2  0  0  0  0
 59 60  1  0  0  0  0
 59 64  1  0  0  0  0
 60 61  1  0  0  0  0
 60 62  1  0  0  0  0
 60 63  1  0  0  0  0
 64 65  1  0  0  0  0
 64 66  1  0  0  0  0
 64 67  1  0  0  0  0
 67 68  1  0  0  0  0
 67 69  1  0  0  0  0
 67 70  1  0  0  0  0
 70 71  1  0  0  0  0
 70 72  2  0  0  0  0
 72 73  1  0  0  0  0
 72 77  1  0  0  0  0
 73 74  1  0  0  0  0
 73 75  1  0  0  0  0
 73 76  1  0  0  0  0
 77 78  1  0  0  0  0
 77 79  1  0  0  0  0
 77 80  1  0  0  0  0
 80 81  1  0  0  0  0
 80 82  1  0  0  0  0
 80 83  1  0  0  0  0
 83 84  1  0  0  0  0
 83 85  2  0  0  0  0
 85 86  1  0  0  0  0
 85 89  1  0  0  0  0
 86 87  1  0  0  0  0
 86 88  1  0  0  0  0
 86 93  1  0  0  0  0
 89 90  1  0  0  0  0
 89 91  1  0  0  0  0
 89 92  1  0  0  0  0
 93 94  1  0  0  0  0
 93 95  1  0  0  0  0
 93 96  1  0  0  0  0
 96 97  1  0  0  0  0
 96 98  2  0  0  0  0
 98 99  1  0  0  0  0
 98102  1  0  0  0  0
 99100  1  0  0  0  0
 99101  1  0  0  0  0
 99106  1  0  0  0  0
102103  1  0  0  0  0
102104  1  0  0  0  0
102105  1  0  0  0  0
106107  1  0  0  0  0
106108  1  0  0  0  0
106109  1  0  0  0  0
109110  1  0  0  0  0
109111  2  0  0  0  0
111112  1  0  0  0  0
111115  1  0  0  0  0
112113  1  0  0  0  0
112114  1  0  0  0  0
112119  1  0  0  0  0
115116  1  0  0  0  0
115117  1  0  0  0  0
115118  1  0  0  0  0
119120  1  0  0  0  0
119121  1  0  0  0  0
119122  1  0  0  0  0
122123  1  0  0  0  0
122124  2  0  0  0  0
124125  1  0  0  0  0
124128  1  0  0  0  0
125126  1  0  0  0  0
125127  1  0  0  0  0
125132  1  0  0  0  0
128129  1  0  0  0  0
128130  1  0  0  0  0
128131  1  0  0  0  0
132133  1  0  0  0  0
132134  1  0  0  0  0
132135  1  0  0  0  0
135136  1  0  0  0  0
135137  2  0  0  0  0
137138  1  0  0  0  0
137141  1  0  0  0  0
138139  1  0  0  0  0
138140  1  0  0  0  0
138145  1  0  0  0  0
141142  1  0  0  0  0
141143  1  0  0  0  0
141144  1  0  0  0  0
145146  1  0  0  0  0
145147  1  0  0  0  0
145148  1  0  0  0  0
148149  1  0  0  0  0
148150  2  0  0  0  0
150151  1  0  0  0  0
150154  1  0  0  0  0
151152  1  0  0  0  0
151153  1  0  0  0  0
151158  1  0  0  0  0
154155  1  0  0  0  0
154156  1  0  0  0  0
154157  1  0  0  0  0
158159  1  0  0  0  0
158160  1  0  0  0  0
158161  1  0  0  0  0
161162  1  0  0  0  0
161163  2  0  0  0  0
163164  1  0  0  0  0
163167  1  0  0  0  0
164165  1  0  0  0  0
164166  1  0  0  0  0
164171  1  0  0  0  0
167168  1  0  0  0  0
167169  1  0  0  0  0
167170  1  0  0  0  0
171172  1  0  0  0  0
171173  1  0  0  0  0
171174  1  0  0  0  0
174175  1  0  0  0  0
174176  2  0  0  0  0
176177  1  0  0  0  0
176181  1  0  0  0  0
177178  1  0  0  0  0
177179  1  0  0  0  0
177180  1  0  0  0  0
181182  1  0  0  0  0
181183  1  0  0  0  0
181184  1  0  0  0  0
185186  1  0  0  0  0
185187  1  0  0  0  0
185189  1  0  0  0  0
185196  1  0  0  0  0
187188  1  0  0  0  0
187190  1  0  0  0  0
187197  1  0  0  0  0
189192  1  0  0  0  0
190191  1  0  0  0  0
190194  1  0  0  0  0
190199  1  0  0  0  0
192193  1  0  0  0  0
192194  1  0  0  0  0
192201  1  0  0  0  0
194195  1  0  0  0  0
196210  1  0  0  0  0
197198  1  0  0  0  0
199200  1  0  0  0  0
201202  1  0  0  0  0
201203  1  0  0  0  0
201204  1  0  0  0  0
205206  1  0  0  0  0
205207  1  0  0  0  0
205209  1  0  0  0  0
207208  1  0  0  0  0
207210  1  0  0  0  0
207216  1  0  0  0  0
209212  1  0  0  0  0
210211  1  0  0  0  0
210214  1  0  0  0  0
212213  1  0  0  0  0
212214  1  0  0  0  0
212220  1  0  0  0  0
214215  1  0  0  0  0
214218  1  0  0  0  0
216217  1  0  0  0  0
216225  1  0  0  0  0
218219  1  0  0  0  0
220221  1  0  0  0  0
220222  1  0  0  0  0
220223  1  0  0  0  0
223224  1  0  0  0  0
225226  2  0  0  0  0
225227  1  0  0  0  0
227228  1  0  0  0  0
227229  1  0  0  0  0
227230  1  0  0  0  0
M  BCL ATM C_TeTeTeTe H_S O_Te2Te2TeTe C_TeTeTeTe H_S O_Te2Te2TeTe H_S C_TeTeTeTe H_S O_Te2Te2TeTe H_S C_TeTeTeTe H_S H_S O_Te2Te2TeTe H_S C_TeTeTeTe H_S O_Te2Te2TeTe C_TeTeTeTe H_S C_TeTeTeTe H_S O_Te2Te2TeTe C_TeTeTeTe H_S O_Te2Te2TeTe H_S C_TeTeTeTe H_S O_Te2Te2TeTe H_S C_TeTeTeTe H_S H_S O_Te2Te2TeTe H_S C_TeTeTeTe H_S O_Te2Te2TeTe H_S C_TeTeTeTe H_S O_Te2Te2TeTe O_Tr2TrTrPi2 P_TeTeTeTePi O_Tr2TrTrPi2 O_Te2Te2TeTe O_Tr2Tr2TrPi P_TeTeTeTePi O_Tr2TrTrPi2 O_Te2Te2TeTe O_Tr2Tr2TrPi C_TeTeTeTe H_S H_S C_TrTrTrPi H_S C_TrTrTrPi C_TeTeTeTe H_S H_S H_S C_TeTeTeTe H_S H_S C_TeTeTeTe H_S H_S C_TrTrTrPi H_S C_TrTrTrPi C_TeTeTeTe H_S H_S H_S C_TeTeTeTe H_S H_S C_TeTeTeTe H_S H_S C_TrTrTrPi H_S C_TrTrTrPi C_TeTeTeTe H_S H_S C_TeTeTeTe H_S H_S H_S C_TeTeTeTe H_S H_S C_TrTrTrPi H_S C_TrTrTrPi C_TeTeTeTe H_S H_S C_TeTeTeTe H_S H_S H_S C_TeTeTeTe H_S H_S C_TrTrTrPi H_S C_TrTrTrPi C_TeTeTeTe H_S H_S C_TeTeTeTe H_S H_S H_S C_TeTeTeTe H_S H_S C_TrTrTrPi H_S C_TrTrTrPi C_TeTeTeTe H_S H_S C_TeTeTeTe H_S H_S H_S C_TeTeTeTe H_S H_S C_TrTrTrPi H_S C_TrTrTrPi C_TeTeTeTe H_S H_S C_TeTeTeTe H_S H_S H_S C_TeTeTeTe H_S H_S C_TrTrTrPi H_S C_TrTrTrPi C_TeTeTeTe H_S H_S C_TeTeTeTe H_S H_S H_S C_TeTeTeTe H_S H_S C_TrTrTrPi H_S C_TrTrTrPi C_TeTeTeTe H_S H_S C_TeTeTeTe H_S H_S H_S C_TeTeTeTe H_S H_S C_TrTrTrPi H_S C_TrTrTrPi C_TeTeTeTe H_S H_S H_S C_TeTeTeTe H_S H_S H_S C_TeTeTeTe H_S C_TeTeTeTe H_S O_Te2Te2TeTe C_TeTeTeTe H_S C_TeTeTeTe H_S C_TeTeTeTe H_S O_Te2Te2TeTe O_Te2Te2TeTe H_S O_Te2Te2TeTe H_S C_TeTeTeTe H_S H_S H_S C_TeTeTeTe H_S C_TeTeTeTe H_S O_Te2Te2TeTe C_TeTeTeTe H_S C_TeTeTeTe H_S C_TeTeTeTe H_S N_TrTrTrPi2 H_S O_Te2Te2TeTe H_S C_TeTeTeTe H_S H_S O_Te2Te2TeTe H_S C_TrTrTrPi O_Tr2Tr2TrPi C_TeTeTeTe H_S H_S H_S
M  BCL BND NonConjugatedSingleBond NonConjugatedSingleBondInRing NonConjugatedSingleBondInRing NonConjugatedSingleBond NonConjugatedSingleBondInRing NonConjugatedSingleBond NonConjugatedSingleBond NonConjugatedSingleBondInRing NonConjugatedSingleBond NonConjugatedSingleBond NonConjugatedSingleBond NonConjugatedSingleBondInRing NonConjugatedSingleBond NonConjugatedSingleBond NonConjugatedSingleBond NonConjugatedSingleBond NonConjugatedSingleBond NonConjugatedSingleBond NonConjugatedSingleBond NonConjugatedSingleBond NonConjugatedSingleBond NonConjugatedSingleBond NonConjugatedSingleBond NonConjugatedSingleBond NonConjugatedSingleBondInRing NonConjugatedSingleBondInRing NonConjugatedSingleBondInRing NonConjugatedSingleBond NonConjugatedSingleBond NonConjugatedSingleBondInRing NonConjugatedSingleBond NonConjugatedSingleBond NonConjugatedSingleBond NonConjugatedSingleBondInRing NonConjugatedSingleBond NonConjugatedSingleBond NonConjugatedSingleBond NonConjugatedSingleBond NonConjugatedSingleBond NonConjugatedSingleBond NonConjugatedSingleBond NonConjugatedSingleBond NonConjugatedSingleBond NonConjugatedSingleBond NonConjugatedSingleBond NonConjugatedSingleBond ConjugatedSingleBond NonConjugatedSingleBond ConjugatedSingleBond ConjugatedSingleBond ConjugatedDoubleBond ConjugatedSingleBond ConjugatedSingleBond ConjugatedSingleBond ConjugatedDoubleBond NonConjugatedSingleBond NonConjugatedSingleBond NonConjugatedSingleBond NonConjugatedSingleBond NonConjugatedSingleBond ConjugatedDoubleBond NonConjugatedSingleBond NonConjugatedSingleBond NonConjugatedSingleBond NonConjugatedSingleBond NonConjugatedSingleBond NonConjugatedSingleBond NonConjugatedSingleBond NonConjugatedSingleBond NonConjugatedSingleBond NonConjugatedSingleBond NonConjugatedSingleBond NonConjugatedSingleBond ConjugatedDoubleBond NonConjugatedSingleBond NonConjugatedSingleBond NonConjugatedSingleBond NonConjugatedSingleBond NonConjugatedSingleBond NonConjugatedSingleBond NonConjugatedSingleBond NonConjugatedSingleBond NonConjugatedSingleBond NonConjugatedSingleBond NonConjugatedSingleBond NonConjugatedSingleBond ConjugatedDoubleBond NonConjugatedSingleBond NonConjugatedSingleBond NonConjugatedSingleBond NonConjugatedSingleBond NonConjugatedSingleBond NonConjugatedSingleBond NonConjugatedSingleBond NonConjugatedSingleBond NonConjugatedSingleBond NonConjugatedSingleBond NonConjugatedSingleBond NonConjugatedSingleBond ConjugatedDoubleBond NonConjugatedSingleBond NonConjugatedSingleBond NonConjugatedSingleBond NonConjugatedSingleBond NonConjugatedSingleBond NonConjugatedSingleBond NonConjugatedSingleBond NonConjugatedSingleBond NonConjugatedSingleBond NonConjugatedSingleBond NonConjugatedSingleBond NonConjugatedSingleBond ConjugatedDoubleBond NonConjugatedSingleBond NonConjugatedSingleBond NonConjugatedSingleBond NonConjugatedSingleBond NonConjugatedSingleBond NonConjugatedSingleBond NonConjugatedSingleBond NonConjugatedSingleBond NonConjugatedSingleBond NonConjugatedSingleBond NonConjugatedSingleBond NonConjugatedSingleBond ConjugatedDoubleBond NonConjugatedSingleBond NonConjugatedSingleBond NonConjugatedSingleBond NonConjugatedSingleBond NonConjugatedSingleBond NonConjugatedSingleBond NonConjugatedSingleBond NonConjugatedSingleBond NonConjugatedSingleBond NonConjugatedSingleBond NonConjugatedSingleBond NonConjugatedSingleBond ConjugatedDoubleBond NonConjugatedSingleBond NonConjugatedSingleBond NonConjugatedSingleBond NonConjugatedSingleBond NonConjugatedSingleBond NonConjugatedSingleBond NonConjugatedSingleBond NonConjugatedSingleBond NonConjugatedSingleBond NonConjugatedSingleBond NonConjugatedSingleBond NonConjugatedSingleBond ConjugatedDoubleBond NonConjugatedSingleBond NonConjugatedSingleBond NonConjugatedSingleBond NonConjugatedSingleBond NonConjugatedSingleBond NonConjugatedSingleBond NonConjugatedSingleBond NonConjugatedSingleBond NonConjugatedSingleBond NonConjugatedSingleBond NonConjugatedSingleBond NonConjugatedSingleBond ConjugatedDoubleBond NonConjugatedSingleBond NonConjugatedSingleBond NonConjugatedSingleBond NonConjugatedSingleBond NonConjugatedSingleBond NonConjugatedSingleBond NonConjugatedSingleBond NonConjugatedSingleBond NonConjugatedSingleBond NonConjugatedSingleBond NonConjugatedSingleBond NonConjugatedSingleBond ConjugatedDoubleBond NonConjugatedSingleBond NonConjugatedSingleBond NonConjugatedSingleBond NonConjugatedSingleBond NonConjugatedSingleBond NonConjugatedSingleBond NonConjugatedSingleBond NonConjugatedSingleBond NonConjugatedSingleBond NonConjugatedSingleBondInRing NonConjugatedSingleBondInRing NonConjugatedSingleBond NonConjugatedSingleBond NonConjugatedSingleBondInRing NonConjugatedSingleBond NonConjugatedSingleBondInRing NonConjugatedSingleBond NonConjugatedSingleBondInRing NonConjugatedSingleBond NonConjugatedSingleBond NonConjugatedSingleBondInRing NonConjugatedSingleBond NonConjugatedSingleBond NonConjugatedSingleBond NonConjugatedSingleBond NonConjugatedSingleBond NonConjugatedSingleBond NonConjugatedSingleBond NonConjugatedSingleBond NonConjugatedSingleBond NonConjugatedSingleBondInRing NonConjugatedSingleBondInRing NonConjugatedSingleBond NonConjugatedSingleBondInRing NonConjugatedSingleBond NonConjugatedSingleBondInRing NonConjugatedSingleBond NonConjugatedSingleBondInRing NonConjugatedSingleBond NonConjugatedSingleBondInRing NonConjugatedSingleBond NonConjugatedSingleBond NonConjugatedSingleBond NonConjugatedSingleBond AmideSingleBond NonConjugatedSingleBond NonConjugatedSingleBond NonConjugatedSingleBond NonConjugatedSingleBond NonConjugatedSingleBond ConjugatedDoubleBond NonConjugatedSingleBond NonConjugatedSingleBond NonConjugatedSingleBond NonConjugatedSingleBond
M  BCL CHI   1   R   4   R   8   R  17   S  20   R  22   S  25   R  29   S  38   S  42   R  46   R  50   S 185   R 187   S 190   S 192   R 194   R 205   R 207   S 210   R 212   S 214   S
M  BCL DBI - - E E E E E E E E Z - -
M  END
> <ConfClashScore>
0.010026 

> <ConfOneFourInteractionScore>
-0.956508 

> <ConfScore>
1.14751 

> <ConfScorePBest>
0.00912449 

> <ConfTolerance>
3.63269 

$$$$
L05.****
  PyMOL2.5          3D                             0

230233  0  0  0  0  0  0  0  0999 V2000
   11.9781   -2.8488   -2.5766 C   0  0  0  1  0  0  0  0  0  0  0  0
   11.3320   -2.5637   -1.7727 H   0  0  0  1  0  0  0  0  0  0  0  0
   11.4456   -3.9584   -3.2434 O   0  0  0  1  0  0  0  0  0  0  0  0
   12.0914   -1.6975   -3.5883 C   0  0  0  1  0  0  0  0  0  0  0  0
   13.1015   -1.5718   -3.9179 H   0  0  0  1  0  0  0  0  0  0  0  0
   11.6165   -0.4720   -3.0288 O   0  0  0  1  0  0  0  0  0  0  0  0
   12.3546    0.0202   -2.6621 H   0  0  0  1  0  0  0  0  0  0  0  0
   11.1891   -2.1671   -4.7373 C   0  0  0  1  0  0  0  0  0  0  0  0
   10.1812   -1.8393   -4.5904 H   0  0  0  1  0  0  0  0  0  0  0  0
   11.6682   -1.6856   -5.9905 O   0  0  0  1  0  0  0  0  0  0  0  0
   12.2159   -2.3571   -6.4036 H   0  0  0  1  0  0  0  0  0  0  0  0
    8.8084   -3.4559   -4.8564 C   0  0  0  1  0  0  0  0  0  0  0  0
    8.9236   -2.5012   -5.3255 H   0  0  0  1  0  0  0  0  0  0  0  0
    7.9260   -3.9328   -5.2291 H   0  0  0  1  0  0  0  0  0  0  0  0
    8.6647   -3.2614   -3.4556 O   0  0  0  1  0  0  0  0  0  0  0  0
    7.7561   -3.4358   -3.1994 H   0  0  0  1  0  0  0  0  0  0  0  0
   10.0131   -4.3188   -5.2028 C   0  0  0  1  0  0  0  0  0  0  0  0
   10.0878   -4.3999   -6.2671 H   0  0  0  1  0  0  0  0  0  0  0  0
    9.9078   -5.6104   -4.6151 O   0  0  0  1  0  0  0  0  0  0  0  0
   11.2828   -3.6740   -4.6662 C   0  0  0  1  0  0  0  0  0  0  0  0
   12.1256   -4.0279   -5.2223 H   0  0  0  1  0  0  0  0  0  0  0  0
   10.0046   -6.6615   -5.5393 C   0  0  0  1  0  0  0  0  0  0  0  0
   11.0331   -6.8313   -5.7807 H   0  0  0  1  0  0  0  0  0  0  0  0
    9.4119   -7.8563   -5.0030 O   0  0  0  1  0  0  0  0  0  0  0  0
    9.2173   -6.3395   -6.7869 C   0  0  0  1  0  0  0  0  0  0  0  0
    9.8391   -5.8778   -7.5252 H   0  0  0  1  0  0  0  0  0  0  0  0
    8.1132   -5.4833   -6.4901 O   0  0  0  1  0  0  0  0  0  0  0  0
    7.8375   -5.0274   -7.2887 H   0  0  0  1  0  0  0  0  0  0  0  0
    8.7455   -7.6880   -7.2464 C   0  0  0  1  0  0  0  0  0  0  0  0
    9.4963   -8.1780   -7.8305 H   0  0  0  1  0  0  0  0  0  0  0  0
    7.5473   -7.5764   -8.0091 O   0  0  0  1  0  0  0  0  0  0  0  0
    7.1909   -8.4521   -8.1758 H   0  0  0  1  0  0  0  0  0  0  0  0
    8.6757  -10.2881   -7.6152 C   0  0  0  1  0  0  0  0  0  0  0  0
    8.4805  -11.3375   -7.6899 H   0  0  0  1  0  0  0  0  0  0  0  0
    7.8797   -9.7428   -8.0777 H   0  0  0  1  0  0  0  0  0  0  0  0
    9.8983   -9.9874   -8.2728 O   0  0  0  1  0  0  0  0  0  0  0  0
    9.7147   -9.6587   -9.1559 H   0  0  0  1  0  0  0  0  0  0  0  0
    8.7727   -9.8950   -6.1490 C   0  0  0  1  0  0  0  0  0  0  0  0
    9.7663  -10.1006   -5.8094 H   0  0  0  1  0  0  0  0  0  0  0  0
    7.8390  -10.6609   -5.3925 O   0  0  0  1  0  0  0  0  0  0  0  0
    8.2063  -10.8488   -4.5257 H   0  0  0  1  0  0  0  0  0  0  0  0
    8.4996   -8.4205   -5.9688 C   0  0  0  1  0  0  0  0  0  0  0  0
    7.4879   -8.2810   -5.6496 H   0  0  0  1  0  0  0  0  0  0  0  0
   13.2656   -3.1672   -2.0611 O   0  0  0  1  0  0  0  0  0  0  0  0
   18.3105  -11.8311   -1.6986 O   0  0  0  1  0  0  0  0  0  0  0  0
   19.8615  -11.4312   -1.7987 P   0  0  0  1  0  0  0  0  0  0  0  0
   19.8089   -9.8621   -1.4088 O   0  0  0  1  0  0  0  0  0  0  0  0
   20.3110  -11.6208   -3.1988 O   0  0  0  0  0  0  0  0  0  0  0  0
   20.6009  -12.1096   -0.7220 O   0  0  0  1  0  0  0  0  0  0  0  0
   21.0790   -8.9040   -1.3235 P   0  0  0  1  0  0  0  0  0  0  0  0
   20.3338   -7.5994   -1.8190 O   0  0  0  1  0  0  0  0  0  0  0  0
   22.1076   -9.2870   -2.3083 O   0  0  0  0  0  0  0  0  0  0  0  0
   21.4667   -8.7365    0.0882 O   0  0  0  1  0  0  0  0  0  0  0  0
   17.6432  -11.8801   -0.4274 C   0  0  0  1  0  0  0  0  0  0  0  0
   17.7337  -10.9338    0.0639 H   0  0  0  1  0  0  0  0  0  0  0  0
   18.0831  -12.6421    0.1815 H   0  0  0  1  0  0  0  0  0  0  0  0
   16.1942  -12.1925   -0.6596 C   0  0  0  1  0  0  0  0  0  0  0  0
   15.6699  -12.6477    0.1147 H   0  0  0  1  0  0  0  0  0  0  0  0
   15.5314  -11.9311   -1.7799 C   0  0  0  1  0  0  0  0  0  0  0  0
   14.1958  -12.5589   -2.0621 C   0  0  0  1  0  0  0  0  0  0  0  0
   13.4577  -11.7926   -2.1755 H   0  0  0  1  0  0  0  0  0  0  0  0
   13.9235  -13.1985   -1.2486 H   0  0  0  1  0  0  0  0  0  0  0  0
   14.2550  -13.1328   -2.9632 H   0  0  0  1  0  0  0  0  0  0  0  0
   16.0320  -11.0051   -2.8559 C   0  0  0  1  0  0  0  0  0  0  0  0
   16.9746  -10.6031   -2.5478 H   0  0  0  1  0  0  0  0  0  0  0  0
   15.3265  -10.2096   -2.9760 H   0  0  0  1  0  0  0  0  0  0  0  0
   16.2158  -11.6954   -4.1975 C   0  0  0  1  0  0  0  0  0  0  0  0
   16.6213  -10.9741   -4.8759 H   0  0  0  1  0  0  0  0  0  0  0  0
   15.2475  -11.9995   -4.5364 H   0  0  0  1  0  0  0  0  0  0  0  0
   17.1089  -12.9064   -4.2408 C   0  0  0  1  0  0  0  0  0  0  0  0
   18.0346  -12.8386   -3.7717 H   0  0  0  1  0  0  0  0  0  0  0  0
   16.8026  -14.0555   -4.8336 C   0  0  0  1  0  0  0  0  0  0  0  0
   17.8080  -15.1256   -5.1456 C   0  0  0  1  0  0  0  0  0  0  0  0
   18.6478  -15.0290   -4.4895 H   0  0  0  1  0  0  0  0  0  0  0  0
   18.1343  -15.0235   -6.1595 H   0  0  0  1  0  0  0  0  0  0  0  0
   17.3587  -16.0872   -5.0101 H   0  0  0  1  0  0  0  0  0  0  0  0
   15.3959  -14.3763   -5.2448 C   0  0  0  1  0  0  0  0  0  0  0  0
   15.0051  -13.5473   -5.7970 H   0  0  0  1  0  0  0  0  0  0  0  0
   14.8091  -14.5264   -4.3628 H   0  0  0  1  0  0  0  0  0  0  0  0
   15.2978  -15.6228   -6.1091 C   0  0  0  1  0  0  0  0  0  0  0  0
   15.3234  -16.4819   -5.4719 H   0  0  0  1  0  0  0  0  0  0  0  0
   16.1375  -15.6445   -6.7720 H   0  0  0  1  0  0  0  0  0  0  0  0
   14.0472  -15.6726   -6.9242 C   0  0  0  1  0  0  0  0  0  0  0  0
   13.7348  -14.8043   -7.4038 H   0  0  0  1  0  0  0  0  0  0  0  0
   13.3078  -16.7813   -7.0680 C   0  0  0  1  0  0  0  0  0  0  0  0
   13.6704  -18.0880   -6.4177 C   0  0  0  1  0  0  0  0  0  0  0  0
   12.8553  -18.3817   -5.7899 H   0  0  0  1  0  0  0  0  0  0  0  0
   14.5427  -17.9279   -5.8191 H   0  0  0  1  0  0  0  0  0  0  0  0
   12.0664  -16.7177   -7.9126 C   0  0  0  1  0  0  0  0  0  0  0  0
   12.3303  -16.8242   -8.9441 H   0  0  0  1  0  0  0  0  0  0  0  0
   11.5821  -15.7752   -7.7641 H   0  0  0  1  0  0  0  0  0  0  0  0
   11.4029  -17.5085   -7.6310 H   0  0  0  1  0  0  0  0  0  0  0  0
   13.9618  -19.2330   -7.3741 C   0  0  0  1  0  0  0  0  0  0  0  0
   13.2454  -19.1905   -8.1677 H   0  0  0  1  0  0  0  0  0  0  0  0
   13.8447  -20.1504   -6.8360 H   0  0  0  1  0  0  0  0  0  0  0  0
   15.3349  -19.2269   -7.9877 C   0  0  0  1  0  0  0  0  0  0  0  0
   16.1443  -19.0685   -7.3543 H   0  0  0  1  0  0  0  0  0  0  0  0
   15.5907  -19.4088   -9.2777 C   0  0  0  1  0  0  0  0  0  0  0  0
   14.4991  -19.3148  -10.3148 C   0  0  0  1  0  0  0  0  0  0  0  0
   13.7973  -20.1041  -10.1432 H   0  0  0  1  0  0  0  0  0  0  0  0
   14.9385  -19.4319  -11.2834 H   0  0  0  1  0  0  0  0  0  0  0  0
   16.9529  -19.7183   -9.8261 C   0  0  0  1  0  0  0  0  0  0  0  0
   17.2202  -18.9820  -10.5550 H   0  0  0  1  0  0  0  0  0  0  0  0
   16.9415  -20.6854  -10.2838 H   0  0  0  1  0  0  0  0  0  0  0  0
   17.6681  -19.7081   -9.0304 H   0  0  0  1  0  0  0  0  0  0  0  0
   13.7554  -17.9897  -10.2780 C   0  0  0  1  0  0  0  0  0  0  0  0
   14.4249  -17.2146  -10.5878 H   0  0  0  1  0  0  0  0  0  0  0  0
   13.4366  -17.8058   -9.2733 H   0  0  0  1  0  0  0  0  0  0  0  0
   12.5587  -17.9666  -11.1673 C   0  0  0  1  0  0  0  0  0  0  0  0
   12.3119  -18.8788  -11.6016 H   0  0  0  1  0  0  0  0  0  0  0  0
   11.7617  -16.9540  -11.4869 C   0  0  0  1  0  0  0  0  0  0  0  0
   11.9926  -15.5721  -10.9363 C   0  0  0  1  0  0  0  0  0  0  0  0
   12.5343  -15.6687  -10.0187 H   0  0  0  1  0  0  0  0  0  0  0  0
   11.0376  -15.1302  -10.7426 H   0  0  0  1  0  0  0  0  0  0  0  0
   10.5785  -17.0753  -12.4055 C   0  0  0  1  0  0  0  0  0  0  0  0
   10.7136  -16.4310  -13.2490 H   0  0  0  1  0  0  0  0  0  0  0  0
    9.6896  -16.7938  -11.8807 H   0  0  0  1  0  0  0  0  0  0  0  0
   10.4899  -18.0876  -12.7408 H   0  0  0  1  0  0  0  0  0  0  0  0
   12.7694  -14.6311  -11.8426 C   0  0  0  1  0  0  0  0  0  0  0  0
   12.1911  -14.4742  -12.7291 H   0  0  0  1  0  0  0  0  0  0  0  0
   13.6931  -15.1068  -12.0984 H   0  0  0  1  0  0  0  0  0  0  0  0
   13.0868  -13.2924  -11.2558 C   0  0  0  1  0  0  0  0  0  0  0  0
   12.5729  -13.0321  -10.3900 H   0  0  0  1  0  0  0  0  0  0  0  0
   13.9496  -12.4044  -11.7183 C   0  0  0  1  0  0  0  0  0  0  0  0
   14.9738  -12.7932  -12.7466 C   0  0  0  1  0  0  0  0  0  0  0  0
   15.6209  -13.5167  -12.2963 H   0  0  0  1  0  0  0  0  0  0  0  0
   15.5342  -11.9143  -12.9884 H   0  0  0  1  0  0  0  0  0  0  0  0
   14.0503  -10.9965  -11.2099 C   0  0  0  1  0  0  0  0  0  0  0  0
   15.0657  -10.7828  -10.9488 H   0  0  0  1  0  0  0  0  0  0  0  0
   13.4290  -10.8842  -10.3461 H   0  0  0  1  0  0  0  0  0  0  0  0
   13.7281  -10.3183  -11.9723 H   0  0  0  1  0  0  0  0  0  0  0  0
   14.4693  -13.3846  -14.0527 C   0  0  0  1  0  0  0  0  0  0  0  0
   13.8132  -14.1960  -13.8160 H   0  0  0  1  0  0  0  0  0  0  0  0
   15.3139  -13.7548  -14.5955 H   0  0  0  1  0  0  0  0  0  0  0  0
   13.7311  -12.4398  -14.9392 C   0  0  0  1  0  0  0  0  0  0  0  0
   12.9943  -11.8757  -14.4695 H   0  0  0  1  0  0  0  0  0  0  0  0
   13.8751  -12.2118  -16.2402 C   0  0  0  1  0  0  0  0  0  0  0  0
   14.9440  -12.8488  -17.0861 C   0  0  0  1  0  0  0  0  0  0  0  0
   15.5207  -13.5054  -16.4686 H   0  0  0  1  0  0  0  0  0  0  0  0
   15.5756  -12.0775  -17.4747 H   0  0  0  1  0  0  0  0  0  0  0  0
   12.9594  -11.2787  -16.9812 C   0  0  0  1  0  0  0  0  0  0  0  0
   11.9420  -11.5420  -16.7799 H   0  0  0  1  0  0  0  0  0  0  0  0
   13.1462  -11.3556  -18.0320 H   0  0  0  1  0  0  0  0  0  0  0  0
   13.1378  -10.2739  -16.6593 H   0  0  0  1  0  0  0  0  0  0  0  0
   14.3837  -13.6482  -18.2512 C   0  0  0  1  0  0  0  0  0  0  0  0
   13.8102  -12.9830  -18.8623 H   0  0  0  1  0  0  0  0  0  0  0  0
   13.7444  -14.4082  -17.8530 H   0  0  0  1  0  0  0  0  0  0  0  0
   15.4026  -14.3120  -19.1222 C   0  0  0  1  0  0  0  0  0  0  0  0
   15.9218  -15.1208  -18.7248 H   0  0  0  1  0  0  0  0  0  0  0  0
   15.6936  -13.9458  -20.3647 C   0  0  0  1  0  0  0  0  0  0  0  0
   15.2553  -12.6133  -20.9110 C   0  0  0  1  0  0  0  0  0  0  0  0
   14.1966  -12.5159  -20.7908 H   0  0  0  1  0  0  0  0  0  0  0  0
   15.5030  -12.5617  -21.9506 H   0  0  0  1  0  0  0  0  0  0  0  0
   16.4677  -14.7959  -21.3291 C   0  0  0  1  0  0  0  0  0  0  0  0
   16.1533  -14.5789  -22.3286 H   0  0  0  1  0  0  0  0  0  0  0  0
   16.2895  -15.8292  -21.1158 H   0  0  0  1  0  0  0  0  0  0  0  0
   17.5122  -14.5859  -21.2305 H   0  0  0  1  0  0  0  0  0  0  0  0
   15.9469  -11.4761  -20.1769 C   0  0  0  1  0  0  0  0  0  0  0  0
   17.0055  -11.5708  -20.3010 H   0  0  0  1  0  0  0  0  0  0  0  0
   15.7030  -11.5303  -19.1365 H   0  0  0  1  0  0  0  0  0  0  0  0
   15.5066  -10.1519  -20.7154 C   0  0  0  1  0  0  0  0  0  0  0  0
   14.8023   -9.6335  -20.1526 H   0  0  0  1  0  0  0  0  0  0  0  0
   15.9181   -9.5655  -21.8361 C   0  0  0  1  0  0  0  0  0  0  0  0
   15.3548   -8.2214  -22.2130 C   0  0  0  1  0  0  0  0  0  0  0  0
   14.5574   -8.3699  -22.9109 H   0  0  0  1  0  0  0  0  0  0  0  0
   16.1295   -7.6444  -22.6734 H   0  0  0  1  0  0  0  0  0  0  0  0
   16.9248  -10.1280  -22.7997 C   0  0  0  1  0  0  0  0  0  0  0  0
   17.7957  -10.3365  -22.2141 H   0  0  0  1  0  0  0  0  0  0  0  0
   17.1504   -9.4139  -23.5639 H   0  0  0  1  0  0  0  0  0  0  0  0
   16.5523  -11.0253  -23.2481 H   0  0  0  1  0  0  0  0  0  0  0  0
   14.8169   -7.4458  -21.0216 C   0  0  0  1  0  0  0  0  0  0  0  0
   15.6309   -7.2257  -20.3629 H   0  0  0  1  0  0  0  0  0  0  0  0
   14.1008   -8.0567  -20.5128 H   0  0  0  1  0  0  0  0  0  0  0  0
   14.1526   -6.1524  -21.4112 C   0  0  0  1  0  0  0  0  0  0  0  0
   14.2506   -5.8393  -22.3981 H   0  0  0  1  0  0  0  0  0  0  0  0
   13.4503   -5.3810  -20.5882 C   0  0  0  1  0  0  0  0  0  0  0  0
   13.2759   -5.6666  -19.1223 C   0  0  0  1  0  0  0  0  0  0  0  0
   13.6601   -4.8478  -18.5507 H   0  0  0  1  0  0  0  0  0  0  0  0
   13.8073   -6.5596  -18.8675 H   0  0  0  1  0  0  0  0  0  0  0  0
   12.2360   -5.7957  -18.9057 H   0  0  0  1  0  0  0  0  0  0  0  0
   12.7589   -4.1307  -21.0750 C   0  0  0  1  0  0  0  0  0  0  0  0
   11.7055   -4.2873  -20.9715 H   0  0  0  1  0  0  0  0  0  0  0  0
   13.0032   -3.9537  -22.1016 H   0  0  0  1  0  0  0  0  0  0  0  0
   13.0635   -3.2912  -20.4856 H   0  0  0  1  0  0  0  0  0  0  0  0
   16.2356   -5.1029   -1.8773 C   0  0  0  1  0  0  0  0  0  0  0  0
   16.6932   -5.6448   -1.0762 H   0  0  0  1  0  0  0  0  0  0  0  0
   14.8936   -5.7355   -2.2224 C   0  0  0  1  0  0  0  0  0  0  0  0
   15.0414   -6.7484   -2.5341 H   0  0  0  1  0  0  0  0  0  0  0  0
   16.0169   -3.7529   -1.4786 O   0  0  0  1  0  0  0  0  0  0  0  0
   14.2621   -4.9376   -3.3531 C   0  0  0  1  0  0  0  0  0  0  0  0
   13.2559   -5.2748   -3.4898 H   0  0  0  1  0  0  0  0  0  0  0  0
   15.6072   -2.9510   -2.5938 C   0  0  0  1  0  0  0  0  0  0  0  0
   16.3208   -3.0442   -3.3856 H   0  0  0  1  0  0  0  0  0  0  0  0
   14.2409   -3.4398   -3.0729 C   0  0  0  1  0  0  0  0  0  0  0  0
   13.9789   -2.9200   -3.9708 H   0  0  0  1  0  0  0  0  0  0  0  0
   17.0859   -5.1330   -3.0178 O   0  0  0  1  0  0  0  0  0  0  0  0
   14.0480   -5.7088   -1.0894 O   0  0  0  1  0  0  0  0  0  0  0  0
   13.5222   -6.5116   -1.0629 H   0  0  0  1  0  0  0  0  0  0  0  0
   15.0103   -5.1690   -4.5504 O   0  0  0  1  0  0  0  0  0  0  0  0
   15.9065   -4.8445   -4.4361 H   0  0  0  1  0  0  0  0  0  0  0  0
   15.5090   -1.4951   -2.1681 C   0  0  0  1  0  0  0  0  0  0  0  0
   14.8654   -1.4145   -1.3171 H   0  0  0  1  0  0  0  0  0  0  0  0
   15.1097   -0.9145   -2.9733 H   0  0  0  1  0  0  0  0  0  0  0  0
   16.4828   -1.1316   -1.9141 H   0  0  0  1  0  0  0  0  0  0  0  0
   19.9890   -7.4955   -3.1796 C   0  0  0  1  0  0  0  0  0  0  0  0
   20.0871   -8.4529   -3.6471 H   0  0  0  1  0  0  0  0  0  0  0  0
   18.5408   -7.0168   -3.3014 C   0  0  0  1  0  0  0  0  0  0  0  0
   17.9028   -7.6798   -2.7553 H   0  0  0  1  0  0  0  0  0  0  0  0
   20.8663   -6.5584   -3.8235 O   0  0  0  1  0  0  0  0  0  0  0  0
   18.4016   -5.6157   -2.7421 C   0  0  0  1  0  0  0  0  0  0  0  0
   18.5566   -5.6457   -1.6838 H   0  0  0  1  0  0  0  0  0  0  0  0
   20.8223   -5.2595   -3.2466 C   0  0  0  1  0  0  0  0  0  0  0  0
   21.0882   -5.3249   -2.2122 H   0  0  0  1  0  0  0  0  0  0  0  0
   19.4213   -4.6666   -3.3679 C   0  0  0  1  0  0  0  0  0  0  0  0
   19.1849   -4.5228   -4.4015 H   0  0  0  1  0  0  0  0  0  0  0  0
   18.1517   -7.0144   -4.7069 N   0  0  0  1  0  0  0  0  0  0  0  0
   18.8305   -7.2107   -5.3859 H   0  0  0  1  0  0  0  0  0  0  0  0
   19.3780   -3.4103   -2.6896 O   0  0  0  1  0  0  0  0  0  0  0  0
   19.1971   -3.6056   -1.7672 H   0  0  0  1  0  0  0  0  0  0  0  0
   21.7988   -4.3689   -3.9600 C   0  0  0  1  0  0  0  0  0  0  0  0
   21.7649   -3.3833   -3.5449 H   0  0  0  1  0  0  0  0  0  0  0  0
   21.5601   -4.3260   -5.0021 H   0  0  0  1  0  0  0  0  0  0  0  0
   23.0968   -4.9275   -3.7811 O   0  0  0  1  0  0  0  0  0  0  0  0
   23.6062   -4.7646   -4.5783 H   0  0  0  1  0  0  0  0  0  0  0  0
   16.9019   -6.7541   -5.1009 C   0  0  0  1  0  0  0  0  0  0  0  0
   15.9784   -6.5955   -4.3196 O   0  0  0  1  0  0  0  0  0  0  0  0
   16.6888   -6.6646   -6.5995 C   0  0  0  1  0  0  0  0  0  0  0  0
   15.8118   -7.2505   -6.7794 H   0  0  0  1  0  0  0  0  0  0  0  0
   17.5283   -7.0684   -7.1259 H   0  0  0  1  0  0  0  0  0  0  0  0
   16.5338   -5.6493   -6.8997 H   0  0  0  1  0  0  0  0  0  0  0  0
  1  2  1  0  0  0  0
  1  3  1  0  0  0  0
  1  4  1  0  0  0  0
  1 44  1  0  0  0  0
  3 20  1  0  0  0  0
  4  5  1  0  0  0  0
  4  6  1  0  0  0  0
  4  8  1  0  0  0  0
  6  7  1  0  0  0  0
  8  9  1  0  0  0  0
  8 10  1  0  0  0  0
  8 20  1  0  0  0  0
 10 11  1  0  0  0  0
 12 13  1  0  0  0  0
 12 14  1  0  0  0  0
 12 15  1  0  0  0  0
 12 17  1  0  0  0  0
 15 16  1  0  0  0  0
 17 18  1  0  0  0  0
 17 19  1  0  0  0  0
 17 20  1  0  0  0  0
 19 22  1  0  0  0  0
 20 21  1  0  0  0  0
 22 23  1  0  0  0  0
 22 24  1  0  0  0  0
 22 25  1  0  0  0  0
 24 42  1  0  0  0  0
 25 26  1  0  0  0  0
 25 27  1  0  0  0  0
 25 29  1  0  0  0  0
 27 28  1  0  0  0  0
 29 30  1  0  0  0  0
 29 31  1  0  0  0  0
 29 42  1  0  0  0  0
 31 32  1  0  0  0  0
 33 34  1  0  0  0  0
 33 35  1  0  0  0  0
 33 36  1  0  0  0  0
 33 38  1  0  0  0  0
 36 37  1  0  0  0  0
 38 39  1  0  0  0  0
 38 40  1  0  0  0  0
 38 42  1  0  0  0  0
 40 41  1  0  0  0  0
 42 43  1  0  0  0  0
 44194  1  0  0  0  0
 45 46  1  0  0  0  0
 45 54  1  0  0  0  0
 46 47  1  0  0  0  0
 46 48  1  0  0  0  0
 46 49  2  0  0  0  0
 47 50  1  0  0  0  0
 50 51  1  0  0  0  0
 50 52  1  0  0  0  0
 50 53  2  0  0  0  0
 51205  1  0  0  0  0
 54 55  1  0  0  0  0
 54 56  1  0  0  0  0
 54 57  1  0  0  0  0
 57 58  1  0  0  0  0
 57 59  2  0  0  0  0
 59 60  1  0  0  0  0
 59 64  1  0  0  0  0
 60 61  1  0  0  0  0
 60 62  1  0  0  0  0
 60 63  1  0  0  0  0
 64 65  1  0  0  0  0
 64 66  1  0  0  0  0
 64 67  1  0  0  0  0
 67 68  1  0  0  0  0
 67 69  1  0  0  0  0
 67 70  1  0  0  0  0
 70 71  1  0  0  0  0
 70 72  2  0  0  0  0
 72 73  1  0  0  0  0
 72 77  1  0  0  0  0
 73 74  1  0  0  0  0
 73 75  1  0  0  0  0
 73 76  1  0  0  0  0
 77 78  1  0  0  0  0
 77 79  1  0  0  0  0
 77 80  1  0  0  0  0
 80 81  1  0  0  0  0
 80 82  1  0  0  0  0
 80 83  1  0  0  0  0
 83 84  1  0  0  0  0
 83 85  2  0  0  0  0
 85 86  1  0  0  0  0
 85 89  1  0  0  0  0
 86 87  1  0  0  0  0
 86 88  1  0  0  0  0
 86 93  1  0  0  0  0
 89 90  1  0  0  0  0
 89 91  1  0  0  0  0
 89 92  1  0  0  0  0
 93 94  1  0  0  0  0
 93 95  1  0  0  0  0
 93 96  1  0  0  0  0
 96 97  1  0  0  0  0
 96 98  2  0  0  0  0
 98 99  1  0  0  0  0
 98102  1  0  0  0  0
 99100  1  0  0  0  0
 99101  1  0  0  0  0
 99106  1  0  0  0  0
102103  1  0  0  0  0
102104  1  0  0  0  0
102105  1  0  0  0  0
106107  1  0  0  0  0
106108  1  0  0  0  0
106109  1  0  0  0  0
109110  1  0  0  0  0
109111  2  0  0  0  0
111112  1  0  0  0  0
111115  1  0  0  0  0
112113  1  0  0  0  0
112114  1  0  0  0  0
112119  1  0  0  0  0
115116  1  0  0  0  0
115117  1  0  0  0  0
115118  1  0  0  0  0
119120  1  0  0  0  0
119121  1  0  0  0  0
119122  1  0  0  0  0
122123  1  0  0  0  0
122124  2  0  0  0  0
124125  1  0  0  0  0
124128  1  0  0  0  0
125126  1  0  0  0  0
125127  1  0  0  0  0
125132  1  0  0  0  0
128129  1  0  0  0  0
128130  1  0  0  0  0
128131  1  0  0  0  0
132133  1  0  0  0  0
132134  1  0  0  0  0
132135  1  0  0  0  0
135136  1  0  0  0  0
135137  2  0  0  0  0
137138  1  0  0  0  0
137141  1  0  0  0  0
138139  1  0  0  0  0
138140  1  0  0  0  0
138145  1  0  0  0  0
141142  1  0  0  0  0
141143  1  0  0  0  0
141144  1  0  0  0  0
145146  1  0  0  0  0
145147  1  0  0  0  0
145148  1  0  0  0  0
148149  1  0  0  0  0
148150  2  0  0  0  0
150151  1  0  0  0  0
150154  1  0  0  0  0
151152  1  0  0  0  0
151153  1  0  0  0  0
151158  1  0  0  0  0
154155  1  0  0  0  0
154156  1  0  0  0  0
154157  1  0  0  0  0
158159  1  0  0  0  0
158160  1  0  0  0  0
158161  1  0  0  0  0
161162  1  0  0  0  0
161163  2  0  0  0  0
163164  1  0  0  0  0
163167  1  0  0  0  0
164165  1  0  0  0  0
164166  1  0  0  0  0
164171  1  0  0  0  0
167168  1  0  0  0  0
167169  1  0  0  0  0
167170  1  0  0  0  0
171172  1  0  0  0  0
171173  1  0  0  0  0
171174  1  0  0  0  0
174175  1  0  0  0  0
174176  2  0  0  0  0
176177  1  0  0  0  0
176181  1  0  0  0  0
177178  1  0  0  0  0
177179  1  0  0  0  0
177180  1  0  0  0  0
181182  1  0  0  0  0
181183  1  0  0  0  0
181184  1  0  0  0  0
185186  1  0  0  0  0
185187  1  0  0  0  0
185189  1  0  0  0  0
185196  1  0  0  0  0
187188  1  0  0  0  0
187190  1  0  0  0  0
187197  1  0  0  0  0
189192  1  0  0  0  0
190191  1  0  0  0  0
190194  1  0  0  0  0
190199  1  0  0  0  0
192193  1  0  0  0  0
192194  1  0  0  0  0
192201  1  0  0  0  0
194195  1  0  0  0  0
196210  1  0  0  0  0
197198  1  0  0  0  0
199200  1  0  0  0  0
201202  1  0  0  0  0
201203  1  0  0  0  0
201204  1  0  0  0  0
205206  1  0  0  0  0
205207  1  0  0  0  0
205209  1  0  0  0  0
207208  1  0  0  0  0
207210  1  0  0  0  0
207216  1  0  0  0  0
209212  1  0  0  0  0
210211  1  0  0  0  0
210214  1  0  0  0  0
212213  1  0  0  0  0
212214  1  0  0  0  0
212220  1  0  0  0  0
214215  1  0  0  0  0
214218  1  0  0  0  0
216217  1  0  0  0  0
216225  1  0  0  0  0
218219  1  0  0  0  0
220221  1  0  0  0  0
220222  1  0  0  0  0
220223  1  0  0  0  0
223224  1  0  0  0  0
225226  2  0  0  0  0
225227  1  0  0  0  0
227228  1  0  0  0  0
227229  1  0  0  0  0
227230  1  0  0  0  0
M  BCL ATM C_TeTeTeTe H_S O_Te2Te2TeTe C_TeTeTeTe H_S O_Te2Te2TeTe H_S C_TeTeTeTe H_S O_Te2Te2TeTe H_S C_TeTeTeTe H_S H_S O_Te2Te2TeTe H_S C_TeTeTeTe H_S O_Te2Te2TeTe C_TeTeTeTe H_S C_TeTeTeTe H_S O_Te2Te2TeTe C_TeTeTeTe H_S O_Te2Te2TeTe H_S C_TeTeTeTe H_S O_Te2Te2TeTe H_S C_TeTeTeTe H_S H_S O_Te2Te2TeTe H_S C_TeTeTeTe H_S O_Te2Te2TeTe H_S C_TeTeTeTe H_S O_Te2Te2TeTe O_Tr2TrTrPi2 P_TeTeTeTePi O_Tr2TrTrPi2 O_Te2Te2TeTe O_Tr2Tr2TrPi P_TeTeTeTePi O_Tr2TrTrPi2 O_Te2Te2TeTe O_Tr2Tr2TrPi C_TeTeTeTe H_S H_S C_TrTrTrPi H_S C_TrTrTrPi C_TeTeTeTe H_S H_S H_S C_TeTeTeTe H_S H_S C_TeTeTeTe H_S H_S C_TrTrTrPi H_S C_TrTrTrPi C_TeTeTeTe H_S H_S H_S C_TeTeTeTe H_S H_S C_TeTeTeTe H_S H_S C_TrTrTrPi H_S C_TrTrTrPi C_TeTeTeTe H_S H_S C_TeTeTeTe H_S H_S H_S C_TeTeTeTe H_S H_S C_TrTrTrPi H_S C_TrTrTrPi C_TeTeTeTe H_S H_S C_TeTeTeTe H_S H_S H_S C_TeTeTeTe H_S H_S C_TrTrTrPi H_S C_TrTrTrPi C_TeTeTeTe H_S H_S C_TeTeTeTe H_S H_S H_S C_TeTeTeTe H_S H_S C_TrTrTrPi H_S C_TrTrTrPi C_TeTeTeTe H_S H_S C_TeTeTeTe H_S H_S H_S C_TeTeTeTe H_S H_S C_TrTrTrPi H_S C_TrTrTrPi C_TeTeTeTe H_S H_S C_TeTeTeTe H_S H_S H_S C_TeTeTeTe H_S H_S C_TrTrTrPi H_S C_TrTrTrPi C_TeTeTeTe H_S H_S C_TeTeTeTe H_S H_S H_S C_TeTeTeTe H_S H_S C_TrTrTrPi H_S C_TrTrTrPi C_TeTeTeTe H_S H_S C_TeTeTeTe H_S H_S H_S C_TeTeTeTe H_S H_S C_TrTrTrPi H_S C_TrTrTrPi C_TeTeTeTe H_S H_S H_S C_TeTeTeTe H_S H_S H_S C_TeTeTeTe H_S C_TeTeTeTe H_S O_Te2Te2TeTe C_TeTeTeTe H_S C_TeTeTeTe H_S C_TeTeTeTe H_S O_Te2Te2TeTe O_Te2Te2TeTe H_S O_Te2Te2TeTe H_S C_TeTeTeTe H_S H_S H_S C_TeTeTeTe H_S C_TeTeTeTe H_S O_Te2Te2TeTe C_TeTeTeTe H_S C_TeTeTeTe H_S C_TeTeTeTe H_S N_TrTrTrPi2 H_S O_Te2Te2TeTe H_S C_TeTeTeTe H_S H_S O_Te2Te2TeTe H_S C_TrTrTrPi O_Tr2Tr2TrPi C_TeTeTeTe H_S H_S H_S
M  BCL BND NonConjugatedSingleBond NonConjugatedSingleBondInRing NonConjugatedSingleBondInRing NonConjugatedSingleBond NonConjugatedSingleBondInRing NonConjugatedSingleBond NonConjugatedSingleBond NonConjugatedSingleBondInRing NonConjugatedSingleBond NonConjugatedSingleBond NonConjugatedSingleBond NonConjugatedSingleBondInRing NonConjugatedSingleBond NonConjugatedSingleBond NonConjugatedSingleBond NonConjugatedSingleBond NonConjugatedSingleBond NonConjugatedSingleBond NonConjugatedSingleBond NonConjugatedSingleBond NonConjugatedSingleBond NonConjugatedSingleBond NonConjugatedSingleBond NonConjugatedSingleBond NonConjugatedSingleBondInRing NonConjugatedSingleBondInRing NonConjugatedSingleBondInRing NonConjugatedSingleBond NonConjugatedSingleBond NonConjugatedSingleBondInRing NonConjugatedSingleBond NonConjugatedSingleBond NonConjugatedSingleBond NonConjugatedSingleBondInRing NonConjugatedSingleBond NonConjugatedSingleBond NonConjugatedSingleBond NonConjugatedSingleBond NonConjugatedSingleBond NonConjugatedSingleBond NonConjugatedSingleBond NonConjugatedSingleBond NonConjugatedSingleBond NonConjugatedSingleBond NonConjugatedSingleBond NonConjugatedSingleBond ConjugatedSingleBond NonConjugatedSingleBond ConjugatedSingleBond ConjugatedSingleBond ConjugatedDoubleBond ConjugatedSingleBond ConjugatedSingleBond ConjugatedSingleBond ConjugatedDoubleBond NonConjugatedSingleBond NonConjugatedSingleBond NonConjugatedSingleBond NonConjugatedSingleBond NonConjugatedSingleBond ConjugatedDoubleBond NonConjugatedSingleBond NonConjugatedSingleBond NonConjugatedSingleBond NonConjugatedSingleBond NonConjugatedSingleBond NonConjugatedSingleBond NonConjugatedSingleBond NonConjugatedSingleBond NonConjugatedSingleBond NonConjugatedSingleBond NonConjugatedSingleBond NonConjugatedSingleBond ConjugatedDoubleBond NonConjugatedSingleBond NonConjugatedSingleBond NonConjugatedSingleBond NonConjugatedSingleBond NonConjugatedSingleBond NonConjugatedSingleBond NonConjugatedSingleBond NonConjugatedSingleBond NonConjugatedSingleBond NonConjugatedSingleBond NonConjugatedSingleBond NonConjugatedSingleBond ConjugatedDoubleBond NonConjugatedSingleBond NonConjugatedSingleBond NonConjugatedSingleBond NonConjugatedSingleBond NonConjugatedSingleBond NonConjugatedSingleBond NonConjugatedSingleBond NonConjugatedSingleBond NonConjugatedSingleBond NonConjugatedSingleBond NonConjugatedSingleBond NonConjugatedSingleBond ConjugatedDoubleBond NonConjugatedSingleBond NonConjugatedSingleBond NonConjugatedSingleBond NonConjugatedSingleBond NonConjugatedSingleBond NonConjugatedSingleBond NonConjugatedSingleBond NonConjugatedSingleBond NonConjugatedSingleBond NonConjugatedSingleBond NonConjugatedSingleBond NonConjugatedSingleBond ConjugatedDoubleBond NonConjugatedSingleBond NonConjugatedSingleBond NonConjugatedSingleBond NonConjugatedSingleBond NonConjugatedSingleBond NonConjugatedSingleBond NonConjugatedSingleBond NonConjugatedSingleBond NonConjugatedSingleBond NonConjugatedSingleBond NonConjugatedSingleBond NonConjugatedSingleBond ConjugatedDoubleBond NonConjugatedSingleBond NonConjugatedSingleBond NonConjugatedSingleBond NonConjugatedSingleBond NonConjugatedSingleBond NonConjugatedSingleBond NonConjugatedSingleBond NonConjugatedSingleBond NonConjugatedSingleBond NonConjugatedSingleBond NonConjugatedSingleBond NonConjugatedSingleBond ConjugatedDoubleBond NonConjugatedSingleBond NonConjugatedSingleBond NonConjugatedSingleBond NonConjugatedSingleBond NonConjugatedSingleBond NonConjugatedSingleBond NonConjugatedSingleBond NonConjugatedSingleBond NonConjugatedSingleBond NonConjugatedSingleBond NonConjugatedSingleBond NonConjugatedSingleBond ConjugatedDoubleBond NonConjugatedSingleBond NonConjugatedSingleBond NonConjugatedSingleBond NonConjugatedSingleBond NonConjugatedSingleBond NonConjugatedSingleBond NonConjugatedSingleBond NonConjugatedSingleBond NonConjugatedSingleBond NonConjugatedSingleBond NonConjugatedSingleBond NonConjugatedSingleBond ConjugatedDoubleBond NonConjugatedSingleBond NonConjugatedSingleBond NonConjugatedSingleBond NonConjugatedSingleBond NonConjugatedSingleBond NonConjugatedSingleBond NonConjugatedSingleBond NonConjugatedSingleBond NonConjugatedSingleBond NonConjugatedSingleBond NonConjugatedSingleBond NonConjugatedSingleBond ConjugatedDoubleBond NonConjugatedSingleBond NonConjugatedSingleBond NonConjugatedSingleBond NonConjugatedSingleBond NonConjugatedSingleBond NonConjugatedSingleBond NonConjugatedSingleBond NonConjugatedSingleBond NonConjugatedSingleBond NonConjugatedSingleBondInRing NonConjugatedSingleBondInRing NonConjugatedSingleBond NonConjugatedSingleBond NonConjugatedSingleBondInRing NonConjugatedSingleBond NonConjugatedSingleBondInRing NonConjugatedSingleBond NonConjugatedSingleBondInRing NonConjugatedSingleBond NonConjugatedSingleBond NonConjugatedSingleBondInRing NonConjugatedSingleBond NonConjugatedSingleBond NonConjugatedSingleBond NonConjugatedSingleBond NonConjugatedSingleBond NonConjugatedSingleBond NonConjugatedSingleBond NonConjugatedSingleBond NonConjugatedSingleBond NonConjugatedSingleBondInRing NonConjugatedSingleBondInRing NonConjugatedSingleBond NonConjugatedSingleBondInRing NonConjugatedSingleBond NonConjugatedSingleBondInRing NonConjugatedSingleBond NonConjugatedSingleBondInRing NonConjugatedSingleBond NonConjugatedSingleBondInRing NonConjugatedSingleBond NonConjugatedSingleBond NonConjugatedSingleBond NonConjugatedSingleBond AmideSingleBond NonConjugatedSingleBond NonConjugatedSingleBond NonConjugatedSingleBond NonConjugatedSingleBond NonConjugatedSingleBond ConjugatedDoubleBond NonConjugatedSingleBond NonConjugatedSingleBond NonConjugatedSingleBond NonConjugatedSingleBond
M  BCL CHI   1   R   4   R   8   R  17   S  20   R  22   S  25   R  29   S  38   S  42   R  46   R  50   S 185   R 187   S 190   S 192   R 194   R 205   R 207   S 210   R 212   S 214   S
M  BCL DBI - - E E E E E E E E Z - -
M  END
> <ConfClashScore>
0.00957592 

> <ConfOneFourInteractionScore>
-0.96048 

> <ConfScore>
1.14971 

> <ConfScorePBest>
0.00902149 

> <ConfTolerance>
3.87494 

$$$$
L05.****
  PyMOL2.5          3D                             0

230233  0  0  0  0  0  0  0  0999 V2000
   12.3362   -2.2739   -3.0749 C   0  0  0  1  0  0  0  0  0  0  0  0
   11.4855   -2.1161   -2.4454 H   0  0  0  1  0  0  0  0  0  0  0  0
   11.9289   -2.8141   -4.3687 O   0  0  0  1  0  0  0  0  0  0  0  0
   13.0037   -0.9604   -3.4121 C   0  0  0  1  0  0  0  0  0  0  0  0
   14.0390   -1.1052   -3.6402 H   0  0  0  1  0  0  0  0  0  0  0  0
   12.8783   -0.0324   -2.3335 O   0  0  0  1  0  0  0  0  0  0  0  0
   13.3387   -0.3727   -1.5628 H   0  0  0  1  0  0  0  0  0  0  0  0
   12.2331   -0.4736   -4.6466 C   0  0  0  1  0  0  0  0  0  0  0  0
   11.3875    0.1184   -4.3647 H   0  0  0  1  0  0  0  0  0  0  0  0
   13.0774    0.2839   -5.5148 O   0  0  0  1  0  0  0  0  0  0  0  0
   13.5452   -0.3106   -6.1058 H   0  0  0  1  0  0  0  0  0  0  0  0
    9.3886   -1.4459   -4.5884 C   0  0  0  1  0  0  0  0  0  0  0  0
    9.4428   -2.2733   -3.9121 H   0  0  0  1  0  0  0  0  0  0  0  0
    9.6677   -0.5481   -4.0776 H   0  0  0  1  0  0  0  0  0  0  0  0
    8.0587   -1.3192   -5.0743 O   0  0  0  1  0  0  0  0  0  0  0  0
    7.9328   -1.9092   -5.8211 H   0  0  0  1  0  0  0  0  0  0  0  0
   10.3388   -1.6815   -5.7524 C   0  0  0  1  0  0  0  0  0  0  0  0
   10.2499   -0.8630   -6.4358 H   0  0  0  1  0  0  0  0  0  0  0  0
    9.9252   -2.8872   -6.3848 O   0  0  0  1  0  0  0  0  0  0  0  0
   11.7924   -1.7877   -5.3106 C   0  0  0  1  0  0  0  0  0  0  0  0
   12.4101   -1.9902   -6.1605 H   0  0  0  1  0  0  0  0  0  0  0  0
    9.6501   -2.8074   -7.7600 C   0  0  0  1  0  0  0  0  0  0  0  0
    8.8692   -3.4954   -8.0086 H   0  0  0  1  0  0  0  0  0  0  0  0
    9.2589   -1.5048   -8.0915 O   0  0  0  1  0  0  0  0  0  0  0  0
   10.9157   -3.1415   -8.5655 C   0  0  0  1  0  0  0  0  0  0  0  0
   10.6871   -3.7732   -9.3983 H   0  0  0  1  0  0  0  0  0  0  0  0
   11.8975   -3.7736   -7.7427 O   0  0  0  1  0  0  0  0  0  0  0  0
   11.7889   -3.4836   -6.8340 H   0  0  0  1  0  0  0  0  0  0  0  0
   11.3928   -1.7602   -9.0338 C   0  0  0  1  0  0  0  0  0  0  0  0
   11.8852   -1.8268   -9.9814 H   0  0  0  1  0  0  0  0  0  0  0  0
   12.2779   -1.1738   -8.0763 O   0  0  0  1  0  0  0  0  0  0  0  0
   11.8909   -0.3638   -7.7362 H   0  0  0  1  0  0  0  0  0  0  0  0
    8.0490   -1.8217  -10.2265 C   0  0  0  1  0  0  0  0  0  0  0  0
    7.5206   -1.3100   -9.4494 H   0  0  0  1  0  0  0  0  0  0  0  0
    7.4735   -1.7937  -11.1281 H   0  0  0  1  0  0  0  0  0  0  0  0
    8.2600   -3.1730   -9.8430 O   0  0  0  1  0  0  0  0  0  0  0  0
    7.6161   -3.4210   -9.1756 H   0  0  0  1  0  0  0  0  0  0  0  0
    9.3894   -1.1401  -10.4605 C   0  0  0  1  0  0  0  0  0  0  0  0
    9.2178   -0.1781  -10.8962 H   0  0  0  1  0  0  0  0  0  0  0  0
   10.2256   -1.9234  -11.3079 O   0  0  0  1  0  0  0  0  0  0  0  0
   10.7780   -1.3437  -11.8375 H   0  0  0  1  0  0  0  0  0  0  0  0
   10.1130   -0.9637   -9.1448 C   0  0  0  1  0  0  0  0  0  0  0  0
   10.3125    0.0735   -8.9742 H   0  0  0  1  0  0  0  0  0  0  0  0
   13.2504   -3.1523   -2.4270 O   0  0  0  1  0  0  0  0  0  0  0  0
   19.5913   -0.5213    0.3104 O   0  0  0  1  0  0  0  0  0  0  0  0
   19.4660   -1.0913    1.8295 P   0  0  0  1  0  0  0  0  0  0  0  0
   20.7371   -2.0780    1.9963 O   0  0  0  1  0  0  0  0  0  0  0  0
   18.2732   -1.9567    1.9898 O   0  0  0  0  0  0  0  0  0  0  0  0
   19.6039    0.0946    2.6545 O   0  0  0  1  0  0  0  0  0  0  0  0
   20.5726   -3.6865    2.0809 P   0  0  0  1  0  0  0  0  0  0  0  0
   19.9734   -4.0937    0.6840 O   0  0  0  1  0  0  0  0  0  0  0  0
   19.5470   -4.0773    3.0774 O   0  0  0  0  0  0  0  0  0  0  0  0
   21.9345   -4.1642    2.2329 O   0  0  0  1  0  0  0  0  0  0  0  0
   20.3609    0.6516   -0.0321 C   0  0  0  1  0  0  0  0  0  0  0  0
   21.3903    0.4687    0.1958 H   0  0  0  1  0  0  0  0  0  0  0  0
   20.0081    1.4784    0.5482 H   0  0  0  1  0  0  0  0  0  0  0  0
   20.2399    0.9939   -1.4879 C   0  0  0  1  0  0  0  0  0  0  0  0
   20.7203    0.3573   -2.1553 H   0  0  0  1  0  0  0  0  0  0  0  0
   19.5860    2.0215   -2.0164 C   0  0  0  1  0  0  0  0  0  0  0  0
   19.2644    2.0717   -3.4818 C   0  0  0  1  0  0  0  0  0  0  0  0
   18.4183    2.7072   -3.6402 H   0  0  0  1  0  0  0  0  0  0  0  0
   19.0399    1.0856   -3.8314 H   0  0  0  1  0  0  0  0  0  0  0  0
   20.1057    2.4579   -4.0184 H   0  0  0  1  0  0  0  0  0  0  0  0
   19.1118    3.2094   -1.2275 C   0  0  0  1  0  0  0  0  0  0  0  0
   19.3799    3.0778   -0.2000 H   0  0  0  1  0  0  0  0  0  0  0  0
   18.0479    3.2848   -1.3123 H   0  0  0  1  0  0  0  0  0  0  0  0
   19.7476    4.4944   -1.7497 C   0  0  0  1  0  0  0  0  0  0  0  0
   19.6947    4.4906   -2.8184 H   0  0  0  1  0  0  0  0  0  0  0  0
   20.7724    4.5164   -1.4429 H   0  0  0  1  0  0  0  0  0  0  0  0
   19.0725    5.7296   -1.2440 C   0  0  0  1  0  0  0  0  0  0  0  0
   18.0759    5.8563   -1.5127 H   0  0  0  1  0  0  0  0  0  0  0  0
   19.6081    6.6826   -0.4887 C   0  0  0  1  0  0  0  0  0  0  0  0
   18.9853    8.0333   -0.2861 C   0  0  0  1  0  0  0  0  0  0  0  0
   17.9760    7.9147    0.0488 H   0  0  0  1  0  0  0  0  0  0  0  0
   18.9931    8.5717   -1.2108 H   0  0  0  1  0  0  0  0  0  0  0  0
   19.5429    8.5764    0.4481 H   0  0  0  1  0  0  0  0  0  0  0  0
   20.9101    6.4737    0.2373 C   0  0  0  1  0  0  0  0  0  0  0  0
   21.4149    7.4158    0.2875 H   0  0  0  1  0  0  0  0  0  0  0  0
   21.4979    5.7834   -0.3310 H   0  0  0  1  0  0  0  0  0  0  0  0
   20.7875    5.9315    1.6520 C   0  0  0  1  0  0  0  0  0  0  0  0
   21.3110    4.9999    1.7062 H   0  0  0  1  0  0  0  0  0  0  0  0
   19.7516    5.7721    1.8671 H   0  0  0  1  0  0  0  0  0  0  0  0
   21.3489    6.8510    2.6798 C   0  0  0  1  0  0  0  0  0  0  0  0
   22.3435    6.7498    2.9662 H   0  0  0  1  0  0  0  0  0  0  0  0
   20.6035    7.7978    3.2374 C   0  0  0  1  0  0  0  0  0  0  0  0
   19.1593    7.9833    2.8558 C   0  0  0  1  0  0  0  0  0  0  0  0
   18.9345    7.2936    2.0692 H   0  0  0  1  0  0  0  0  0  0  0  0
   19.0384    8.9846    2.4983 H   0  0  0  1  0  0  0  0  0  0  0  0
   21.1070    8.7573    4.2787 C   0  0  0  1  0  0  0  0  0  0  0  0
   20.3618    8.8864    5.0356 H   0  0  0  1  0  0  0  0  0  0  0  0
   21.3177    9.7014    3.8213 H   0  0  0  1  0  0  0  0  0  0  0  0
   22.0001    8.3673    4.7207 H   0  0  0  1  0  0  0  0  0  0  0  0
   18.1557    7.7609    3.9755 C   0  0  0  1  0  0  0  0  0  0  0  0
   18.2244    8.5788    4.6619 H   0  0  0  1  0  0  0  0  0  0  0  0
   18.4038    6.8500    4.4792 H   0  0  0  1  0  0  0  0  0  0  0  0
   16.7449    7.6661    3.4876 C   0  0  0  1  0  0  0  0  0  0  0  0
   16.5334    7.0067    2.7117 H   0  0  0  1  0  0  0  0  0  0  0  0
   15.7583    8.3758    3.9919 C   0  0  0  1  0  0  0  0  0  0  0  0
   15.9173    9.0856    5.3083 C   0  0  0  1  0  0  0  0  0  0  0  0
   14.9517    9.4018    5.6435 H   0  0  0  1  0  0  0  0  0  0  0  0
   16.5421    9.9415    5.1604 H   0  0  0  1  0  0  0  0  0  0  0  0
   14.3943    8.4650    3.3734 C   0  0  0  1  0  0  0  0  0  0  0  0
   14.4267    8.0718    2.3788 H   0  0  0  1  0  0  0  0  0  0  0  0
   14.0834    9.4883    3.3421 H   0  0  0  1  0  0  0  0  0  0  0  0
   13.7001    7.8985    3.9582 H   0  0  0  1  0  0  0  0  0  0  0  0
   16.5408    8.2116    6.3844 C   0  0  0  1  0  0  0  0  0  0  0  0
   17.5111    7.9047    6.0540 H   0  0  0  1  0  0  0  0  0  0  0  0
   15.9219    7.3500    6.5242 H   0  0  0  1  0  0  0  0  0  0  0  0
   16.6845    8.9116    7.6959 C   0  0  0  1  0  0  0  0  0  0  0  0
   16.5071    9.9357    7.7319 H   0  0  0  1  0  0  0  0  0  0  0  0
   17.0280    8.2902    8.8191 C   0  0  0  1  0  0  0  0  0  0  0  0
   17.3115    6.8171    8.9038 C   0  0  0  1  0  0  0  0  0  0  0  0
   18.2693    6.6803    9.3607 H   0  0  0  1  0  0  0  0  0  0  0  0
   17.3283    6.4160    7.9119 H   0  0  0  1  0  0  0  0  0  0  0  0
   17.1616    9.0323   10.1191 C   0  0  0  1  0  0  0  0  0  0  0  0
   17.9829    8.6320   10.6761 H   0  0  0  1  0  0  0  0  0  0  0  0
   16.2603    8.9241   10.6855 H   0  0  0  1  0  0  0  0  0  0  0  0
   17.3368   10.0692    9.9212 H   0  0  0  1  0  0  0  0  0  0  0  0
   16.2752    6.0571    9.7155 C   0  0  0  1  0  0  0  0  0  0  0  0
   15.3251    6.1313    9.2290 H   0  0  0  1  0  0  0  0  0  0  0  0
   16.2106    6.4875   10.6930 H   0  0  0  1  0  0  0  0  0  0  0  0
   16.6538    4.6068    9.8394 C   0  0  0  1  0  0  0  0  0  0  0  0
   17.5450    4.4010   10.3345 H   0  0  0  1  0  0  0  0  0  0  0  0
   15.9726    3.5590    9.3845 C   0  0  0  1  0  0  0  0  0  0  0  0
   14.5403    3.7387    8.9677 C   0  0  0  1  0  0  0  0  0  0  0  0
   14.4113    3.3073    7.9971 H   0  0  0  1  0  0  0  0  0  0  0  0
   14.3272    4.7864    8.9241 H   0  0  0  1  0  0  0  0  0  0  0  0
   16.5078    2.1645    9.2396 C   0  0  0  1  0  0  0  0  0  0  0  0
   15.6944    1.4693    9.2269 H   0  0  0  1  0  0  0  0  0  0  0  0
   17.1531    1.9429   10.0638 H   0  0  0  1  0  0  0  0  0  0  0  0
   17.0573    2.0869    8.3248 H   0  0  0  1  0  0  0  0  0  0  0  0
   13.5556    3.0841    9.9228 C   0  0  0  1  0  0  0  0  0  0  0  0
   13.7903    3.3945   10.9196 H   0  0  0  1  0  0  0  0  0  0  0  0
   13.6608    2.0221    9.8454 H   0  0  0  1  0  0  0  0  0  0  0  0
   12.1248    3.4458    9.6333 C   0  0  0  1  0  0  0  0  0  0  0  0
   11.7385    4.2916   10.0990 H   0  0  0  1  0  0  0  0  0  0  0  0
   11.3181    2.7658    8.8273 C   0  0  0  1  0  0  0  0  0  0  0  0
   11.6601    1.3652    8.3712 C   0  0  0  1  0  0  0  0  0  0  0  0
   12.7222    1.2767    8.2764 H   0  0  0  1  0  0  0  0  0  0  0  0
   11.2003    1.1832    7.4224 H   0  0  0  1  0  0  0  0  0  0  0  0
   10.0169    3.2996    8.2975 C   0  0  0  1  0  0  0  0  0  0  0  0
    9.2141    2.6718    8.6236 H   0  0  0  1  0  0  0  0  0  0  0  0
   10.0465    3.3137    7.2280 H   0  0  0  1  0  0  0  0  0  0  0  0
    9.8637    4.2932    8.6638 H   0  0  0  1  0  0  0  0  0  0  0  0
   11.1615    0.3357    9.3722 C   0  0  0  1  0  0  0  0  0  0  0  0
   10.1106    0.4790    9.5134 H   0  0  0  1  0  0  0  0  0  0  0  0
   11.6708    0.4890   10.3007 H   0  0  0  1  0  0  0  0  0  0  0  0
   11.3945   -1.0736    8.9285 C   0  0  0  1  0  0  0  0  0  0  0  0
   12.3862   -1.3696    8.8265 H   0  0  0  1  0  0  0  0  0  0  0  0
   10.4725   -1.9876    8.6507 C   0  0  0  1  0  0  0  0  0  0  0  0
    9.0079   -1.6658    8.7216 C   0  0  0  1  0  0  0  0  0  0  0  0
    8.4964   -2.2409    7.9784 H   0  0  0  1  0  0  0  0  0  0  0  0
    8.8781   -0.6233    8.5185 H   0  0  0  1  0  0  0  0  0  0  0  0
   10.7864   -3.3987    8.2479 C   0  0  0  1  0  0  0  0  0  0  0  0
    9.9429   -4.0245    8.4520 H   0  0  0  1  0  0  0  0  0  0  0  0
   11.6319   -3.7480    8.8029 H   0  0  0  1  0  0  0  0  0  0  0  0
   11.0084   -3.4297    7.2016 H   0  0  0  1  0  0  0  0  0  0  0  0
    8.3956   -1.9743   10.0782 C   0  0  0  1  0  0  0  0  0  0  0  0
    8.9216   -1.4160   10.8242 H   0  0  0  1  0  0  0  0  0  0  0  0
    8.5057   -3.0209   10.2715 H   0  0  0  1  0  0  0  0  0  0  0  0
    6.9347   -1.6235   10.1589 C   0  0  0  1  0  0  0  0  0  0  0  0
    6.6625   -0.6862    9.7999 H   0  0  0  1  0  0  0  0  0  0  0  0
    5.9554   -2.3808   10.6387 C   0  0  0  1  0  0  0  0  0  0  0  0
    4.5540   -1.8502   10.7819 C   0  0  0  1  0  0  0  0  0  0  0  0
    3.8751   -2.5646   10.3651 H   0  0  0  1  0  0  0  0  0  0  0  0
    4.4812   -0.9302   10.2405 H   0  0  0  1  0  0  0  0  0  0  0  0
    6.1358   -3.8068   11.0774 C   0  0  0  1  0  0  0  0  0  0  0  0
    5.3222   -4.3459   10.6390 H   0  0  0  1  0  0  0  0  0  0  0  0
    6.0990   -3.8771   12.1445 H   0  0  0  1  0  0  0  0  0  0  0  0
    7.0709   -4.1904   10.7262 H   0  0  0  1  0  0  0  0  0  0  0  0
    4.1592   -1.5937   12.2271 C   0  0  0  1  0  0  0  0  0  0  0  0
    4.9545   -1.0639   12.7085 H   0  0  0  1  0  0  0  0  0  0  0  0
    4.0125   -2.5359   12.7125 H   0  0  0  1  0  0  0  0  0  0  0  0
    2.9083   -0.7927   12.3575 C   0  0  0  1  0  0  0  0  0  0  0  0
    3.0287    0.2358   12.2612 H   0  0  0  1  0  0  0  0  0  0  0  0
    1.6634   -1.1981   12.5783 C   0  0  0  1  0  0  0  0  0  0  0  0
    0.5293   -0.2195   12.6745 C   0  0  0  1  0  0  0  0  0  0  0  0
    0.9154    0.7781   12.6513 H   0  0  0  1  0  0  0  0  0  0  0  0
    0.0005   -0.3758   13.5915 H   0  0  0  1  0  0  0  0  0  0  0  0
   -0.1365   -0.3633   11.8493 H   0  0  0  1  0  0  0  0  0  0  0  0
    1.2664   -2.6441   12.7513 C   0  0  0  1  0  0  0  0  0  0  0  0
    0.3483   -2.7889   12.2211 H   0  0  0  1  0  0  0  0  0  0  0  0
    1.1277   -2.8636   13.7894 H   0  0  0  1  0  0  0  0  0  0  0  0
    2.0254   -3.2823   12.3496 H   0  0  0  1  0  0  0  0  0  0  0  0
   16.0254   -5.0843   -1.5373 C   0  0  0  1  0  0  0  0  0  0  0  0
   16.1753   -5.5995   -0.6116 H   0  0  0  1  0  0  0  0  0  0  0  0
   14.8457   -5.6808   -2.2619 C   0  0  0  1  0  0  0  0  0  0  0  0
   15.0740   -6.6905   -2.5326 H   0  0  0  1  0  0  0  0  0  0  0  0
   15.7657   -3.7063   -1.2801 O   0  0  0  1  0  0  0  0  0  0  0  0
   14.5280   -4.8852   -3.5219 C   0  0  0  1  0  0  0  0  0  0  0  0
   13.6007   -5.2320   -3.9276 H   0  0  0  1  0  0  0  0  0  0  0  0
   15.6408   -2.9116   -2.4741 C   0  0  0  1  0  0  0  0  0  0  0  0
   16.5103   -3.0351   -3.0854 H   0  0  0  1  0  0  0  0  0  0  0  0
   14.4119   -3.3875   -3.2243 C   0  0  0  1  0  0  0  0  0  0  0  0
   14.3282   -2.8488   -4.1450 H   0  0  0  1  0  0  0  0  0  0  0  0
   17.1915   -5.2070   -2.3434 O   0  0  0  1  0  0  0  0  0  0  0  0
   13.7195   -5.6645   -1.4068 O   0  0  0  1  0  0  0  0  0  0  0  0
   12.9803   -6.0953   -1.8422 H   0  0  0  1  0  0  0  0  0  0  0  0
   15.5658   -5.0883   -4.4699 O   0  0  0  1  0  0  0  0  0  0  0  0
   15.9061   -5.9821   -4.3859 H   0  0  0  1  0  0  0  0  0  0  0  0
   15.4855   -1.4556   -2.1070 C   0  0  0  1  0  0  0  0  0  0  0  0
   14.9427   -0.9490   -2.8774 H   0  0  0  1  0  0  0  0  0  0  0  0
   16.4524   -1.0099   -2.0002 H   0  0  0  1  0  0  0  0  0  0  0  0
   14.9515   -1.3759   -1.1832 H   0  0  0  1  0  0  0  0  0  0  0  0
   19.7890   -5.4726    0.3371 C   0  0  0  1  0  0  0  0  0  0  0  0
   19.8224   -6.0715    1.2232 H   0  0  0  1  0  0  0  0  0  0  0  0
   18.4299   -5.6478   -0.3435 C   0  0  0  1  0  0  0  0  0  0  0  0
   17.7026   -5.1923    0.2957 H   0  0  0  1  0  0  0  0  0  0  0  0
   20.8361   -5.8837   -0.5559 O   0  0  0  1  0  0  0  0  0  0  0  0
   18.3988   -4.8939   -1.6572 C   0  0  0  1  0  0  0  0  0  0  0  0
   18.4339   -3.8433   -1.4573 H   0  0  0  1  0  0  0  0  0  0  0  0
   20.8849   -5.1197   -1.7541 C   0  0  0  1  0  0  0  0  0  0  0  0
   21.0279   -4.0882   -1.5080 H   0  0  0  1  0  0  0  0  0  0  0  0
   19.5859   -5.2725   -2.5402 C   0  0  0  1  0  0  0  0  0  0  0  0
   19.4813   -6.2885   -2.8592 H   0  0  0  1  0  0  0  0  0  0  0  0
   18.0997   -7.0779   -0.4540 N   0  0  0  1  0  0  0  0  0  0  0  0
   17.2000   -7.3912   -0.2244 H   0  0  0  1  0  0  0  0  0  0  0  0
   19.6194   -4.4153   -3.6823 O   0  0  0  1  0  0  0  0  0  0  0  0
   18.8535   -3.8406   -3.6132 H   0  0  0  1  0  0  0  0  0  0  0  0
   22.0334   -5.5980   -2.5991 C   0  0  0  1  0  0  0  0  0  0  0  0
   22.0672   -5.0139   -3.4949 H   0  0  0  1  0  0  0  0  0  0  0  0
   21.8712   -6.6258   -2.8488 H   0  0  0  1  0  0  0  0  0  0  0  0
   23.2858   -5.4824   -1.9305 O   0  0  0  1  0  0  0  0  0  0  0  0
   23.1893   -5.8458   -1.0472 H   0  0  0  1  0  0  0  0  0  0  0  0
   19.0339   -7.9590   -0.8708 C   0  0  0  1  0  0  0  0  0  0  0  0
   20.0369   -7.6245   -1.4999 O   0  0  0  1  0  0  0  0  0  0  0  0
   18.7764   -9.4061   -0.5165 C   0  0  0  1  0  0  0  0  0  0  0  0
   19.0846   -9.9517   -1.3838 H   0  0  0  1  0  0  0  0  0  0  0  0
   17.7376   -9.5678   -0.3170 H   0  0  0  1  0  0  0  0  0  0  0  0
   19.3532   -9.6951    0.3372 H   0  0  0  1  0  0  0  0  0  0  0  0
  1  2  1  0  0  0  0
  1  3  1  0  0  0  0
  1  4  1  0  0  0  0
  1 44  1  0  0  0  0
  3 20  1  0  0  0  0
  4  5  1  0  0  0  0
  4  6  1  0  0  0  0
  4  8  1  0  0  0  0
  6  7  1  0  0  0  0
  8  9  1  0  0  0  0
  8 10  1  0  0  0  0
  8 20  1  0  0  0  0
 10 11  1  0  0  0  0
 12 13  1  0  0  0  0
 12 14  1  0  0  0  0
 12 15  1  0  0  0  0
 12 17  1  0  0  0  0
 15 16  1  0  0  0  0
 17 18  1  0  0  0  0
 17 19  1  0  0  0  0
 17 20  1  0  0  0  0
 19 22  1  0  0  0  0
 20 21  1  0  0  0  0
 22 23  1  0  0  0  0
 22 24  1  0  0  0  0
 22 25  1  0  0  0  0
 24 42  1  0  0  0  0
 25 26  1  0  0  0  0
 25 27  1  0  0  0  0
 25 29  1  0  0  0  0
 27 28  1  0  0  0  0
 29 30  1  0  0  0  0
 29 31  1  0  0  0  0
 29 42  1  0  0  0  0
 31 32  1  0  0  0  0
 33 34  1  0  0  0  0
 33 35  1  0  0  0  0
 33 36  1  0  0  0  0
 33 38  1  0  0  0  0
 36 37  1  0  0  0  0
 38 39  1  0  0  0  0
 38 40  1  0  0  0  0
 38 42  1  0  0  0  0
 40 41  1  0  0  0  0
 42 43  1  0  0  0  0
 44194  1  0  0  0  0
 45 46  1  0  0  0  0
 45 54  1  0  0  0  0
 46 47  1  0  0  0  0
 46 48  1  0  0  0  0
 46 49  2  0  0  0  0
 47 50  1  0  0  0  0
 50 51  1  0  0  0  0
 50 52  1  0  0  0  0
 50 53  2  0  0  0  0
 51205  1  0  0  0  0
 54 55  1  0  0  0  0
 54 56  1  0  0  0  0
 54 57  1  0  0  0  0
 57 58  1  0  0  0  0
 57 59  2  0  0  0  0
 59 60  1  0  0  0  0
 59 64  1  0  0  0  0
 60 61  1  0  0  0  0
 60 62  1  0  0  0  0
 60 63  1  0  0  0  0
 64 65  1  0  0  0  0
 64 66  1  0  0  0  0
 64 67  1  0  0  0  0
 67 68  1  0  0  0  0
 67 69  1  0  0  0  0
 67 70  1  0  0  0  0
 70 71  1  0  0  0  0
 70 72  2  0  0  0  0
 72 73  1  0  0  0  0
 72 77  1  0  0  0  0
 73 74  1  0  0  0  0
 73 75  1  0  0  0  0
 73 76  1  0  0  0  0
 77 78  1  0  0  0  0
 77 79  1  0  0  0  0
 77 80  1  0  0  0  0
 80 81  1  0  0  0  0
 80 82  1  0  0  0  0
 80 83  1  0  0  0  0
 83 84  1  0  0  0  0
 83 85  2  0  0  0  0
 85 86  1  0  0  0  0
 85 89  1  0  0  0  0
 86 87  1  0  0  0  0
 86 88  1  0  0  0  0
 86 93  1  0  0  0  0
 89 90  1  0  0  0  0
 89 91  1  0  0  0  0
 89 92  1  0  0  0  0
 93 94  1  0  0  0  0
 93 95  1  0  0  0  0
 93 96  1  0  0  0  0
 96 97  1  0  0  0  0
 96 98  2  0  0  0  0
 98 99  1  0  0  0  0
 98102  1  0  0  0  0
 99100  1  0  0  0  0
 99101  1  0  0  0  0
 99106  1  0  0  0  0
102103  1  0  0  0  0
102104  1  0  0  0  0
102105  1  0  0  0  0
106107  1  0  0  0  0
106108  1  0  0  0  0
106109  1  0  0  0  0
109110  1  0  0  0  0
109111  2  0  0  0  0
111112  1  0  0  0  0
111115  1  0  0  0  0
112113  1  0  0  0  0
112114  1  0  0  0  0
112119  1  0  0  0  0
115116  1  0  0  0  0
115117  1  0  0  0  0
115118  1  0  0  0  0
119120  1  0  0  0  0
119121  1  0  0  0  0
119122  1  0  0  0  0
122123  1  0  0  0  0
122124  2  0  0  0  0
124125  1  0  0  0  0
124128  1  0  0  0  0
125126  1  0  0  0  0
125127  1  0  0  0  0
125132  1  0  0  0  0
128129  1  0  0  0  0
128130  1  0  0  0  0
128131  1  0  0  0  0
132133  1  0  0  0  0
132134  1  0  0  0  0
132135  1  0  0  0  0
135136  1  0  0  0  0
135137  2  0  0  0  0
137138  1  0  0  0  0
137141  1  0  0  0  0
138139  1  0  0  0  0
138140  1  0  0  0  0
138145  1  0  0  0  0
141142  1  0  0  0  0
141143  1  0  0  0  0
141144  1  0  0  0  0
145146  1  0  0  0  0
145147  1  0  0  0  0
145148  1  0  0  0  0
148149  1  0  0  0  0
148150  2  0  0  0  0
150151  1  0  0  0  0
150154  1  0  0  0  0
151152  1  0  0  0  0
151153  1  0  0  0  0
151158  1  0  0  0  0
154155  1  0  0  0  0
154156  1  0  0  0  0
154157  1  0  0  0  0
158159  1  0  0  0  0
158160  1  0  0  0  0
158161  1  0  0  0  0
161162  1  0  0  0  0
161163  2  0  0  0  0
163164  1  0  0  0  0
163167  1  0  0  0  0
164165  1  0  0  0  0
164166  1  0  0  0  0
164171  1  0  0  0  0
167168  1  0  0  0  0
167169  1  0  0  0  0
167170  1  0  0  0  0
171172  1  0  0  0  0
171173  1  0  0  0  0
171174  1  0  0  0  0
174175  1  0  0  0  0
174176  2  0  0  0  0
176177  1  0  0  0  0
176181  1  0  0  0  0
177178  1  0  0  0  0
177179  1  0  0  0  0
177180  1  0  0  0  0
181182  1  0  0  0  0
181183  1  0  0  0  0
181184  1  0  0  0  0
185186  1  0  0  0  0
185187  1  0  0  0  0
185189  1  0  0  0  0
185196  1  0  0  0  0
187188  1  0  0  0  0
187190  1  0  0  0  0
187197  1  0  0  0  0
189192  1  0  0  0  0
190191  1  0  0  0  0
190194  1  0  0  0  0
190199  1  0  0  0  0
192193  1  0  0  0  0
192194  1  0  0  0  0
192201  1  0  0  0  0
194195  1  0  0  0  0
196210  1  0  0  0  0
197198  1  0  0  0  0
199200  1  0  0  0  0
201202  1  0  0  0  0
201203  1  0  0  0  0
201204  1  0  0  0  0
205206  1  0  0  0  0
205207  1  0  0  0  0
205209  1  0  0  0  0
207208  1  0  0  0  0
207210  1  0  0  0  0
207216  1  0  0  0  0
209212  1  0  0  0  0
210211  1  0  0  0  0
210214  1  0  0  0  0
212213  1  0  0  0  0
212214  1  0  0  0  0
212220  1  0  0  0  0
214215  1  0  0  0  0
214218  1  0  0  0  0
216217  1  0  0  0  0
216225  1  0  0  0  0
218219  1  0  0  0  0
220221  1  0  0  0  0
220222  1  0  0  0  0
220223  1  0  0  0  0
223224  1  0  0  0  0
225226  2  0  0  0  0
225227  1  0  0  0  0
227228  1  0  0  0  0
227229  1  0  0  0  0
227230  1  0  0  0  0
M  BCL ATM C_TeTeTeTe H_S O_Te2Te2TeTe C_TeTeTeTe H_S O_Te2Te2TeTe H_S C_TeTeTeTe H_S O_Te2Te2TeTe H_S C_TeTeTeTe H_S H_S O_Te2Te2TeTe H_S C_TeTeTeTe H_S O_Te2Te2TeTe C_TeTeTeTe H_S C_TeTeTeTe H_S O_Te2Te2TeTe C_TeTeTeTe H_S O_Te2Te2TeTe H_S C_TeTeTeTe H_S O_Te2Te2TeTe H_S C_TeTeTeTe H_S H_S O_Te2Te2TeTe H_S C_TeTeTeTe H_S O_Te2Te2TeTe H_S C_TeTeTeTe H_S O_Te2Te2TeTe O_Tr2TrTrPi2 P_TeTeTeTePi O_Tr2TrTrPi2 O_Te2Te2TeTe O_Tr2Tr2TrPi P_TeTeTeTePi O_Tr2TrTrPi2 O_Te2Te2TeTe O_Tr2Tr2TrPi C_TeTeTeTe H_S H_S C_TrTrTrPi H_S C_TrTrTrPi C_TeTeTeTe H_S H_S H_S C_TeTeTeTe H_S H_S C_TeTeTeTe H_S H_S C_TrTrTrPi H_S C_TrTrTrPi C_TeTeTeTe H_S H_S H_S C_TeTeTeTe H_S H_S C_TeTeTeTe H_S H_S C_TrTrTrPi H_S C_TrTrTrPi C_TeTeTeTe H_S H_S C_TeTeTeTe H_S H_S H_S C_TeTeTeTe H_S H_S C_TrTrTrPi H_S C_TrTrTrPi C_TeTeTeTe H_S H_S C_TeTeTeTe H_S H_S H_S C_TeTeTeTe H_S H_S C_TrTrTrPi H_S C_TrTrTrPi C_TeTeTeTe H_S H_S C_TeTeTeTe H_S H_S H_S C_TeTeTeTe H_S H_S C_TrTrTrPi H_S C_TrTrTrPi C_TeTeTeTe H_S H_S C_TeTeTeTe H_S H_S H_S C_TeTeTeTe H_S H_S C_TrTrTrPi H_S C_TrTrTrPi C_TeTeTeTe H_S H_S C_TeTeTeTe H_S H_S H_S C_TeTeTeTe H_S H_S C_TrTrTrPi H_S C_TrTrTrPi C_TeTeTeTe H_S H_S C_TeTeTeTe H_S H_S H_S C_TeTeTeTe H_S H_S C_TrTrTrPi H_S C_TrTrTrPi C_TeTeTeTe H_S H_S C_TeTeTeTe H_S H_S H_S C_TeTeTeTe H_S H_S C_TrTrTrPi H_S C_TrTrTrPi C_TeTeTeTe H_S H_S H_S C_TeTeTeTe H_S H_S H_S C_TeTeTeTe H_S C_TeTeTeTe H_S O_Te2Te2TeTe C_TeTeTeTe H_S C_TeTeTeTe H_S C_TeTeTeTe H_S O_Te2Te2TeTe O_Te2Te2TeTe H_S O_Te2Te2TeTe H_S C_TeTeTeTe H_S H_S H_S C_TeTeTeTe H_S C_TeTeTeTe H_S O_Te2Te2TeTe C_TeTeTeTe H_S C_TeTeTeTe H_S C_TeTeTeTe H_S N_TrTrTrPi2 H_S O_Te2Te2TeTe H_S C_TeTeTeTe H_S H_S O_Te2Te2TeTe H_S C_TrTrTrPi O_Tr2Tr2TrPi C_TeTeTeTe H_S H_S H_S
M  BCL BND NonConjugatedSingleBond NonConjugatedSingleBondInRing NonConjugatedSingleBondInRing NonConjugatedSingleBond NonConjugatedSingleBondInRing NonConjugatedSingleBond NonConjugatedSingleBond NonConjugatedSingleBondInRing NonConjugatedSingleBond NonConjugatedSingleBond NonConjugatedSingleBond NonConjugatedSingleBondInRing NonConjugatedSingleBond NonConjugatedSingleBond NonConjugatedSingleBond NonConjugatedSingleBond NonConjugatedSingleBond NonConjugatedSingleBond NonConjugatedSingleBond NonConjugatedSingleBond NonConjugatedSingleBond NonConjugatedSingleBond NonConjugatedSingleBond NonConjugatedSingleBond NonConjugatedSingleBondInRing NonConjugatedSingleBondInRing NonConjugatedSingleBondInRing NonConjugatedSingleBond NonConjugatedSingleBond NonConjugatedSingleBondInRing NonConjugatedSingleBond NonConjugatedSingleBond NonConjugatedSingleBond NonConjugatedSingleBondInRing NonConjugatedSingleBond NonConjugatedSingleBond NonConjugatedSingleBond NonConjugatedSingleBond NonConjugatedSingleBond NonConjugatedSingleBond NonConjugatedSingleBond NonConjugatedSingleBond NonConjugatedSingleBond NonConjugatedSingleBond NonConjugatedSingleBond NonConjugatedSingleBond ConjugatedSingleBond NonConjugatedSingleBond ConjugatedSingleBond ConjugatedSingleBond ConjugatedDoubleBond ConjugatedSingleBond ConjugatedSingleBond ConjugatedSingleBond ConjugatedDoubleBond NonConjugatedSingleBond NonConjugatedSingleBond NonConjugatedSingleBond NonConjugatedSingleBond NonConjugatedSingleBond ConjugatedDoubleBond NonConjugatedSingleBond NonConjugatedSingleBond NonConjugatedSingleBond NonConjugatedSingleBond NonConjugatedSingleBond NonConjugatedSingleBond NonConjugatedSingleBond NonConjugatedSingleBond NonConjugatedSingleBond NonConjugatedSingleBond NonConjugatedSingleBond NonConjugatedSingleBond ConjugatedDoubleBond NonConjugatedSingleBond NonConjugatedSingleBond NonConjugatedSingleBond NonConjugatedSingleBond NonConjugatedSingleBond NonConjugatedSingleBond NonConjugatedSingleBond NonConjugatedSingleBond NonConjugatedSingleBond NonConjugatedSingleBond NonConjugatedSingleBond NonConjugatedSingleBond ConjugatedDoubleBond NonConjugatedSingleBond NonConjugatedSingleBond NonConjugatedSingleBond NonConjugatedSingleBond NonConjugatedSingleBond NonConjugatedSingleBond NonConjugatedSingleBond NonConjugatedSingleBond NonConjugatedSingleBond NonConjugatedSingleBond NonConjugatedSingleBond NonConjugatedSingleBond ConjugatedDoubleBond NonConjugatedSingleBond NonConjugatedSingleBond NonConjugatedSingleBond NonConjugatedSingleBond NonConjugatedSingleBond NonConjugatedSingleBond NonConjugatedSingleBond NonConjugatedSingleBond NonConjugatedSingleBond NonConjugatedSingleBond NonConjugatedSingleBond NonConjugatedSingleBond ConjugatedDoubleBond NonConjugatedSingleBond NonConjugatedSingleBond NonConjugatedSingleBond NonConjugatedSingleBond NonConjugatedSingleBond NonConjugatedSingleBond NonConjugatedSingleBond NonConjugatedSingleBond NonConjugatedSingleBond NonConjugatedSingleBond NonConjugatedSingleBond NonConjugatedSingleBond ConjugatedDoubleBond NonConjugatedSingleBond NonConjugatedSingleBond NonConjugatedSingleBond NonConjugatedSingleBond NonConjugatedSingleBond NonConjugatedSingleBond NonConjugatedSingleBond NonConjugatedSingleBond NonConjugatedSingleBond NonConjugatedSingleBond NonConjugatedSingleBond NonConjugatedSingleBond ConjugatedDoubleBond NonConjugatedSingleBond NonConjugatedSingleBond NonConjugatedSingleBond NonConjugatedSingleBond NonConjugatedSingleBond NonConjugatedSingleBond NonConjugatedSingleBond NonConjugatedSingleBond NonConjugatedSingleBond NonConjugatedSingleBond NonConjugatedSingleBond NonConjugatedSingleBond ConjugatedDoubleBond NonConjugatedSingleBond NonConjugatedSingleBond NonConjugatedSingleBond NonConjugatedSingleBond NonConjugatedSingleBond NonConjugatedSingleBond NonConjugatedSingleBond NonConjugatedSingleBond NonConjugatedSingleBond NonConjugatedSingleBond NonConjugatedSingleBond NonConjugatedSingleBond ConjugatedDoubleBond NonConjugatedSingleBond NonConjugatedSingleBond NonConjugatedSingleBond NonConjugatedSingleBond NonConjugatedSingleBond NonConjugatedSingleBond NonConjugatedSingleBond NonConjugatedSingleBond NonConjugatedSingleBond NonConjugatedSingleBond NonConjugatedSingleBond NonConjugatedSingleBond ConjugatedDoubleBond NonConjugatedSingleBond NonConjugatedSingleBond NonConjugatedSingleBond NonConjugatedSingleBond NonConjugatedSingleBond NonConjugatedSingleBond NonConjugatedSingleBond NonConjugatedSingleBond NonConjugatedSingleBond NonConjugatedSingleBondInRing NonConjugatedSingleBondInRing NonConjugatedSingleBond NonConjugatedSingleBond NonConjugatedSingleBondInRing NonConjugatedSingleBond NonConjugatedSingleBondInRing NonConjugatedSingleBond NonConjugatedSingleBondInRing NonConjugatedSingleBond NonConjugatedSingleBond NonConjugatedSingleBondInRing NonConjugatedSingleBond NonConjugatedSingleBond NonConjugatedSingleBond NonConjugatedSingleBond NonConjugatedSingleBond NonConjugatedSingleBond NonConjugatedSingleBond NonConjugatedSingleBond NonConjugatedSingleBond NonConjugatedSingleBondInRing NonConjugatedSingleBondInRing NonConjugatedSingleBond NonConjugatedSingleBondInRing NonConjugatedSingleBond NonConjugatedSingleBondInRing NonConjugatedSingleBond NonConjugatedSingleBondInRing NonConjugatedSingleBond NonConjugatedSingleBondInRing NonConjugatedSingleBond NonConjugatedSingleBond NonConjugatedSingleBond NonConjugatedSingleBond AmideSingleBond NonConjugatedSingleBond NonConjugatedSingleBond NonConjugatedSingleBond NonConjugatedSingleBond NonConjugatedSingleBond ConjugatedDoubleBond NonConjugatedSingleBond NonConjugatedSingleBond NonConjugatedSingleBond NonConjugatedSingleBond
M  BCL CHI   1   R   4   R   8   R  17   S  20   R  22   S  25   R  29   S  38   S  42   R  46   R  50   S 185   R 187   S 190   S 192   R 194   R 205   R 207   S 210   R 212   S 214   S
M  BCL DBI - - E E E E E E E E Z - -
M  END
> <ConfClashScore>
0.00542057 

> <ConfOneFourInteractionScore>
-0.975817 

> <ConfScore>
1.24096 

> <ConfScorePBest>
0.00891849 

> <ConfTolerance>
4.58806 

$$$$
L05.****
  PyMOL2.5          3D                             0

230233  0  0  0  0  0  0  0  0999 V2000
   12.3983   -2.3172   -3.4854 C   0  0  0  1  0  0  0  0  0  0  0  0
   11.5459   -2.0389   -2.9016 H   0  0  0  1  0  0  0  0  0  0  0  0
   11.9780   -3.0095   -4.6759 O   0  0  0  1  0  0  0  0  0  0  0  0
   13.1477   -1.0787   -3.9367 C   0  0  0  1  0  0  0  0  0  0  0  0
   14.2030   -1.2539   -3.9595 H   0  0  0  1  0  0  0  0  0  0  0  0
   12.8671    0.0318   -3.0833 O   0  0  0  1  0  0  0  0  0  0  0  0
   11.9170    0.1492   -3.0120 H   0  0  0  1  0  0  0  0  0  0  0  0
   12.6012   -0.8460   -5.3351 C   0  0  0  1  0  0  0  0  0  0  0  0
   11.6775   -0.3066   -5.3079 H   0  0  0  1  0  0  0  0  0  0  0  0
   13.5400   -0.1429   -6.1503 O   0  0  0  1  0  0  0  0  0  0  0  0
   13.7674   -0.6797   -6.9130 H   0  0  0  1  0  0  0  0  0  0  0  0
   11.6881   -1.4985   -8.1414 C   0  0  0  1  0  0  0  0  0  0  0  0
   12.7338   -1.5945   -8.3469 H   0  0  0  1  0  0  0  0  0  0  0  0
   11.1254   -1.8422   -8.9841 H   0  0  0  1  0  0  0  0  0  0  0  0
   11.3696   -0.1377   -7.8665 O   0  0  0  1  0  0  0  0  0  0  0  0
   11.1986   -0.0319   -6.9278 H   0  0  0  1  0  0  0  0  0  0  0  0
   11.3246   -2.3108   -6.9082 C   0  0  0  1  0  0  0  0  0  0  0  0
   11.1840   -3.3294   -7.2043 H   0  0  0  1  0  0  0  0  0  0  0  0
   10.1322   -1.8161   -6.3096 O   0  0  0  1  0  0  0  0  0  0  0  0
   12.3970   -2.2689   -5.8277 C   0  0  0  1  0  0  0  0  0  0  0  0
   13.3114   -2.6660   -6.2165 H   0  0  0  1  0  0  0  0  0  0  0  0
    8.9775   -2.4446   -6.8435 C   0  0  0  1  0  0  0  0  0  0  0  0
    8.1059   -1.8956   -6.5539 H   0  0  0  1  0  0  0  0  0  0  0  0
    9.0671   -2.4877   -8.2549 O   0  0  0  1  0  0  0  0  0  0  0  0
    8.8877   -3.7891   -6.3521 C   0  0  0  1  0  0  0  0  0  0  0  0
    8.0093   -3.8969   -5.7507 H   0  0  0  1  0  0  0  0  0  0  0  0
   10.0423   -4.0956   -5.5688 O   0  0  0  1  0  0  0  0  0  0  0  0
   10.5119   -4.8331   -5.9653 H   0  0  0  1  0  0  0  0  0  0  0  0
    8.8169   -4.6684   -7.4715 C   0  0  0  1  0  0  0  0  0  0  0  0
    7.9661   -5.3115   -7.3854 H   0  0  0  1  0  0  0  0  0  0  0  0
   10.0012   -5.4555   -7.5578 O   0  0  0  1  0  0  0  0  0  0  0  0
   10.4183   -5.3145   -8.4108 H   0  0  0  1  0  0  0  0  0  0  0  0
    6.6434   -5.1807   -9.2299 C   0  0  0  1  0  0  0  0  0  0  0  0
    7.4146   -5.9036   -9.3957 H   0  0  0  1  0  0  0  0  0  0  0  0
    6.1500   -5.3909   -8.3040 H   0  0  0  1  0  0  0  0  0  0  0  0
    5.7017   -5.2432  -10.2914 O   0  0  0  1  0  0  0  0  0  0  0  0
    4.8379   -5.4719   -9.9405 H   0  0  0  1  0  0  0  0  0  0  0  0
    7.2576   -3.7907   -9.1712 C   0  0  0  1  0  0  0  0  0  0  0  0
    6.6720   -3.1904   -8.5066 H   0  0  0  1  0  0  0  0  0  0  0  0
    7.2813   -3.1919  -10.4642 O   0  0  0  1  0  0  0  0  0  0  0  0
    7.3130   -3.8783  -11.1347 H   0  0  0  1  0  0  0  0  0  0  0  0
    8.6863   -3.7938   -8.6765 C   0  0  0  1  0  0  0  0  0  0  0  0
    9.3336   -4.1364   -9.4566 H   0  0  0  1  0  0  0  0  0  0  0  0
   13.2527   -3.1508   -2.7110 O   0  0  0  1  0  0  0  0  0  0  0  0
   20.2027  -10.2531   -5.4876 O   0  0  0  1  0  0  0  0  0  0  0  0
   19.6754   -9.1755   -6.5740 P   0  0  0  1  0  0  0  0  0  0  0  0
   19.7000   -7.7733   -5.7967 O   0  0  0  1  0  0  0  0  0  0  0  0
   18.2273   -9.4256   -6.8345 O   0  0  0  0  0  0  0  0  0  0  0  0
   20.6598   -9.2385   -7.6802 O   0  0  0  1  0  0  0  0  0  0  0  0
   20.8825   -6.8064   -5.4980 P   0  0  0  1  0  0  0  0  0  0  0  0
   20.8362   -6.4151   -3.9761 O   0  0  0  1  0  0  0  0  0  0  0  0
   20.6726   -5.4869   -6.2468 O   0  0  0  0  0  0  0  0  0  0  0  0
   22.1356   -7.5050   -5.8677 O   0  0  0  1  0  0  0  0  0  0  0  0
   21.5945  -10.3989   -5.2195 C   0  0  0  1  0  0  0  0  0  0  0  0
   22.0338   -9.4238   -5.1866 H   0  0  0  1  0  0  0  0  0  0  0  0
   22.0328  -10.9613   -6.0174 H   0  0  0  1  0  0  0  0  0  0  0  0
   21.9018  -11.0973   -3.9276 C   0  0  0  1  0  0  0  0  0  0  0  0
   21.5893  -10.5994   -3.0697 H   0  0  0  1  0  0  0  0  0  0  0  0
   22.5135  -12.2567   -3.7175 C   0  0  0  1  0  0  0  0  0  0  0  0
   23.0206  -12.6364   -2.3565 C   0  0  0  1  0  0  0  0  0  0  0  0
   24.0532  -12.3688   -2.2727 H   0  0  0  1  0  0  0  0  0  0  0  0
   22.9135  -13.6920   -2.2180 H   0  0  0  1  0  0  0  0  0  0  0  0
   22.4565  -12.1190   -1.6089 H   0  0  0  1  0  0  0  0  0  0  0  0
   22.7567  -13.2831   -4.7880 C   0  0  0  1  0  0  0  0  0  0  0  0
   22.9351  -14.2283   -4.3193 H   0  0  0  1  0  0  0  0  0  0  0  0
   23.6213  -12.9931   -5.3477 H   0  0  0  1  0  0  0  0  0  0  0  0
   21.5869  -13.4317   -5.7471 C   0  0  0  1  0  0  0  0  0  0  0  0
   21.5546  -12.5595   -6.3660 H   0  0  0  1  0  0  0  0  0  0  0  0
   20.6899  -13.4913   -5.1668 H   0  0  0  1  0  0  0  0  0  0  0  0
   21.6388  -14.6300   -6.6407 C   0  0  0  1  0  0  0  0  0  0  0  0
   22.1314  -15.4662   -6.2669 H   0  0  0  1  0  0  0  0  0  0  0  0
   21.1238  -14.7420   -7.8605 C   0  0  0  1  0  0  0  0  0  0  0  0
   21.2209  -15.9876   -8.6952 C   0  0  0  1  0  0  0  0  0  0  0  0
   21.8507  -15.8029   -9.5404 H   0  0  0  1  0  0  0  0  0  0  0  0
   20.2448  -16.2676   -9.0325 H   0  0  0  1  0  0  0  0  0  0  0  0
   21.6364  -16.7791   -8.1073 H   0  0  0  1  0  0  0  0  0  0  0  0
   20.3898  -13.6062   -8.5101 C   0  0  0  1  0  0  0  0  0  0  0  0
   20.1555  -12.8792   -7.7608 H   0  0  0  1  0  0  0  0  0  0  0  0
   19.4842  -13.9851   -8.9358 H   0  0  0  1  0  0  0  0  0  0  0  0
   21.1935  -12.9281   -9.6076 C   0  0  0  1  0  0  0  0  0  0  0  0
   21.5483  -13.6783  -10.2830 H   0  0  0  1  0  0  0  0  0  0  0  0
   22.0267  -12.4277   -9.1599 H   0  0  0  1  0  0  0  0  0  0  0  0
   20.4002  -11.9301  -10.3809 C   0  0  0  1  0  0  0  0  0  0  0  0
   19.8950  -11.2251   -9.8070 H   0  0  0  1  0  0  0  0  0  0  0  0
   20.2431  -11.8083  -11.6936 C   0  0  0  1  0  0  0  0  0  0  0  0
   20.6223  -12.9174  -12.6315 C   0  0  0  1  0  0  0  0  0  0  0  0
   21.1814  -13.6485  -12.0859 H   0  0  0  1  0  0  0  0  0  0  0  0
   21.2317  -12.5106  -13.4113 H   0  0  0  1  0  0  0  0  0  0  0  0
   19.6853  -10.5831  -12.3616 C   0  0  0  1  0  0  0  0  0  0  0  0
   20.3768   -9.7732  -12.2572 H   0  0  0  1  0  0  0  0  0  0  0  0
   18.7554  -10.3191  -11.9028 H   0  0  0  1  0  0  0  0  0  0  0  0
   19.5266  -10.7845  -13.4004 H   0  0  0  1  0  0  0  0  0  0  0  0
   19.4201  -13.6001  -13.2632 C   0  0  0  1  0  0  0  0  0  0  0  0
   18.7394  -13.8787  -12.4861 H   0  0  0  1  0  0  0  0  0  0  0  0
   19.7567  -14.4775  -13.7748 H   0  0  0  1  0  0  0  0  0  0  0  0
   18.6980  -12.7290  -14.2380 C   0  0  0  1  0  0  0  0  0  0  0  0
   19.2025  -11.9135  -14.6406 H   0  0  0  1  0  0  0  0  0  0  0  0
   17.4436  -12.9444  -14.6160 C   0  0  0  1  0  0  0  0  0  0  0  0
   16.6529  -14.1025  -14.0765 C   0  0  0  1  0  0  0  0  0  0  0  0
   16.5316  -13.9701  -13.0216 H   0  0  0  1  0  0  0  0  0  0  0  0
   17.1985  -15.0038  -14.2629 H   0  0  0  1  0  0  0  0  0  0  0  0
   16.7031  -12.0797  -15.5938 C   0  0  0  1  0  0  0  0  0  0  0  0
   15.9995  -11.4683  -15.0684 H   0  0  0  1  0  0  0  0  0  0  0  0
   16.1836  -12.6989  -16.2950 H   0  0  0  1  0  0  0  0  0  0  0  0
   17.3983  -11.4554  -16.1152 H   0  0  0  1  0  0  0  0  0  0  0  0
   15.2768  -14.2303  -14.7093 C   0  0  0  1  0  0  0  0  0  0  0  0
   15.3967  -14.3282  -15.7681 H   0  0  0  1  0  0  0  0  0  0  0  0
   14.7190  -13.3431  -14.4935 H   0  0  0  1  0  0  0  0  0  0  0  0
   14.5078  -15.4104  -14.2061 C   0  0  0  1  0  0  0  0  0  0  0  0
   14.8767  -16.3481  -14.4634 H   0  0  0  1  0  0  0  0  0  0  0  0
   13.3949  -15.3905  -13.4598 C   0  0  0  1  0  0  0  0  0  0  0  0
   13.0026  -14.1015  -12.7727 C   0  0  0  1  0  0  0  0  0  0  0  0
   12.7251  -13.4039  -13.5351 H   0  0  0  1  0  0  0  0  0  0  0  0
   13.8659  -13.7394  -12.2543 H   0  0  0  1  0  0  0  0  0  0  0  0
   12.5321  -16.5812  -13.2800 C   0  0  0  1  0  0  0  0  0  0  0  0
   12.1371  -16.8825  -14.2277 H   0  0  0  1  0  0  0  0  0  0  0  0
   11.7263  -16.3408  -12.6182 H   0  0  0  1  0  0  0  0  0  0  0  0
   13.1095  -17.3803  -12.8641 H   0  0  0  1  0  0  0  0  0  0  0  0
   11.8611  -14.1582  -11.7708 C   0  0  0  1  0  0  0  0  0  0  0  0
   12.2151  -14.6287  -10.8774 H   0  0  0  1  0  0  0  0  0  0  0  0
   11.0678  -14.7406  -12.1909 H   0  0  0  1  0  0  0  0  0  0  0  0
   11.3267  -12.8137  -11.4186 C   0  0  0  1  0  0  0  0  0  0  0  0
   12.0275  -12.1881  -10.9722 H   0  0  0  1  0  0  0  0  0  0  0  0
   10.1286  -12.2578  -11.5639 C   0  0  0  1  0  0  0  0  0  0  0  0
    9.0532  -12.8153  -12.4529 C   0  0  0  1  0  0  0  0  0  0  0  0
    8.2450  -13.1535  -11.8387 H   0  0  0  1  0  0  0  0  0  0  0  0
    9.4573  -13.6421  -12.9988 H   0  0  0  1  0  0  0  0  0  0  0  0
    9.7511  -11.0005  -10.8325 C   0  0  0  1  0  0  0  0  0  0  0  0
    9.0273  -10.4583  -11.4043 H   0  0  0  1  0  0  0  0  0  0  0  0
   10.6218  -10.3943  -10.6929 H   0  0  0  1  0  0  0  0  0  0  0  0
    9.3356  -11.2536   -9.8795 H   0  0  0  1  0  0  0  0  0  0  0  0
    8.5140  -11.7978  -13.4449 C   0  0  0  1  0  0  0  0  0  0  0  0
    9.2672  -11.6278  -14.1857 H   0  0  0  1  0  0  0  0  0  0  0  0
    8.3232  -10.8884  -12.9143 H   0  0  0  1  0  0  0  0  0  0  0  0
    7.2483  -12.1959  -14.1531 C   0  0  0  1  0  0  0  0  0  0  0  0
    6.4099  -12.3444  -13.5558 H   0  0  0  1  0  0  0  0  0  0  0  0
    7.0850  -12.3786  -15.4590 C   0  0  0  1  0  0  0  0  0  0  0  0
    8.0674  -11.9072  -16.4976 C   0  0  0  1  0  0  0  0  0  0  0  0
    8.3149  -12.7327  -17.1318 H   0  0  0  1  0  0  0  0  0  0  0  0
    8.9496  -11.5620  -16.0001 H   0  0  0  1  0  0  0  0  0  0  0  0
    5.8804  -13.0854  -16.0087 C   0  0  0  1  0  0  0  0  0  0  0  0
    6.1155  -14.1160  -16.1742 H   0  0  0  1  0  0  0  0  0  0  0  0
    5.5928  -12.6323  -16.9344 H   0  0  0  1  0  0  0  0  0  0  0  0
    5.0740  -13.0117  -15.3093 H   0  0  0  1  0  0  0  0  0  0  0  0
    7.5260  -10.7793  -17.3608 C   0  0  0  1  0  0  0  0  0  0  0  0
    6.5115  -11.0193  -17.6018 H   0  0  0  1  0  0  0  0  0  0  0  0
    8.1097  -10.7537  -18.2572 H   0  0  0  1  0  0  0  0  0  0  0  0
    7.5343   -9.3920  -16.7784 C   0  0  0  1  0  0  0  0  0  0  0  0
    8.4655   -8.9444  -16.6602 H   0  0  0  1  0  0  0  0  0  0  0  0
    6.4716   -8.6704  -16.3955 C   0  0  0  1  0  0  0  0  0  0  0  0
    5.0606   -9.0257  -16.7942 C   0  0  0  1  0  0  0  0  0  0  0  0
    5.0310  -10.0491  -17.1051 H   0  0  0  1  0  0  0  0  0  0  0  0
    4.7563   -8.3971  -17.6049 H   0  0  0  1  0  0  0  0  0  0  0  0
    6.6942   -7.4510  -15.5291 C   0  0  0  1  0  0  0  0  0  0  0  0
    7.6463   -7.5248  -15.0465 H   0  0  0  1  0  0  0  0  0  0  0  0
    5.9231   -7.3937  -14.7895 H   0  0  0  1  0  0  0  0  0  0  0  0
    6.6707   -6.5718  -16.1385 H   0  0  0  1  0  0  0  0  0  0  0  0
    4.1058   -8.8315  -15.6275 C   0  0  0  1  0  0  0  0  0  0  0  0
    3.1926   -9.3381  -15.8604 H   0  0  0  1  0  0  0  0  0  0  0  0
    3.9170   -7.7831  -15.5265 H   0  0  0  1  0  0  0  0  0  0  0  0
    4.5957   -9.3445  -14.3013 C   0  0  0  1  0  0  0  0  0  0  0  0
    5.4097   -8.8621  -13.8696 H   0  0  0  1  0  0  0  0  0  0  0  0
    4.0661  -10.3681  -13.6400 C   0  0  0  1  0  0  0  0  0  0  0  0
    4.6757  -10.9675  -12.4061 C   0  0  0  1  0  0  0  0  0  0  0  0
    4.6951  -12.0314  -12.5182 H   0  0  0  1  0  0  0  0  0  0  0  0
    4.0671  -10.7080  -11.5651 H   0  0  0  1  0  0  0  0  0  0  0  0
    2.7872  -11.0172  -14.0889 C   0  0  0  1  0  0  0  0  0  0  0  0
    2.3371  -10.3230  -14.7674 H   0  0  0  1  0  0  0  0  0  0  0  0
    2.1436  -11.1931  -13.2524 H   0  0  0  1  0  0  0  0  0  0  0  0
    2.9918  -11.9439  -14.5832 H   0  0  0  1  0  0  0  0  0  0  0  0
    6.0925  -10.4825  -12.1460 C   0  0  0  1  0  0  0  0  0  0  0  0
    6.0904   -9.4125  -12.1395 H   0  0  0  1  0  0  0  0  0  0  0  0
    6.7231  -10.8336  -12.9360 H   0  0  0  1  0  0  0  0  0  0  0  0
    6.6473  -10.9653  -10.8436 C   0  0  0  1  0  0  0  0  0  0  0  0
    7.4619  -11.6097  -10.8971 H   0  0  0  1  0  0  0  0  0  0  0  0
    6.2127  -10.6605   -9.6267 C   0  0  0  1  0  0  0  0  0  0  0  0
    5.0602   -9.7209   -9.4220 C   0  0  0  1  0  0  0  0  0  0  0  0
    4.1591  -10.1792   -9.7725 H   0  0  0  1  0  0  0  0  0  0  0  0
    5.2359   -8.8172   -9.9675 H   0  0  0  1  0  0  0  0  0  0  0  0
    4.9641   -9.4963   -8.3803 H   0  0  0  1  0  0  0  0  0  0  0  0
    6.8131  -11.2100   -8.3554 C   0  0  0  1  0  0  0  0  0  0  0  0
    7.4121  -10.4353   -7.9242 H   0  0  0  1  0  0  0  0  0  0  0  0
    7.4212  -12.0621   -8.5767 H   0  0  0  1  0  0  0  0  0  0  0  0
    6.0360  -11.4923   -7.6763 H   0  0  0  1  0  0  0  0  0  0  0  0
   15.8940   -5.2063   -1.5501 C   0  0  0  1  0  0  0  0  0  0  0  0
   15.9928   -5.7633   -0.6418 H   0  0  0  1  0  0  0  0  0  0  0  0
   14.7328   -5.7634   -2.3634 C   0  0  0  1  0  0  0  0  0  0  0  0
   14.9320   -6.7813   -2.6263 H   0  0  0  1  0  0  0  0  0  0  0  0
   15.6439   -3.8329   -1.2419 O   0  0  0  1  0  0  0  0  0  0  0  0
   14.5821   -4.9214   -3.6344 C   0  0  0  1  0  0  0  0  0  0  0  0
   13.6880   -5.2204   -4.1403 H   0  0  0  1  0  0  0  0  0  0  0  0
   15.6309   -3.0043   -2.4147 C   0  0  0  1  0  0  0  0  0  0  0  0
   16.5647   -3.1012   -2.9281 H   0  0  0  1  0  0  0  0  0  0  0  0
   14.5004   -3.4340   -3.3377 C   0  0  0  1  0  0  0  0  0  0  0  0
   14.5708   -2.8889   -4.2558 H   0  0  0  1  0  0  0  0  0  0  0  0
   17.0955   -5.3117   -2.3050 O   0  0  0  1  0  0  0  0  0  0  0  0
   13.5301   -5.6958   -1.5952 O   0  0  0  1  0  0  0  0  0  0  0  0
   13.1867   -4.7995   -1.6157 H   0  0  0  1  0  0  0  0  0  0  0  0
   15.7116   -5.1597   -4.4796 O   0  0  0  1  0  0  0  0  0  0  0  0
   16.2886   -5.8074   -4.0684 H   0  0  0  1  0  0  0  0  0  0  0  0
   15.4248   -1.5549   -2.0058 C   0  0  0  1  0  0  0  0  0  0  0  0
   15.9804   -0.9166   -2.6606 H   0  0  0  1  0  0  0  0  0  0  0  0
   15.7641   -1.4164   -1.0005 H   0  0  0  1  0  0  0  0  0  0  0  0
   14.3848   -1.3114   -2.0685 H   0  0  0  1  0  0  0  0  0  0  0  0
   19.7932   -5.6116   -3.4669 C   0  0  0  1  0  0  0  0  0  0  0  0
   18.9726   -5.6142   -4.1536 H   0  0  0  1  0  0  0  0  0  0  0  0
   19.3295   -6.1802   -2.1288 C   0  0  0  1  0  0  0  0  0  0  0  0
   20.1662   -6.2563   -1.4663 H   0  0  0  1  0  0  0  0  0  0  0  0
   20.2647   -4.2797   -3.3069 O   0  0  0  1  0  0  0  0  0  0  0  0
   18.2771   -5.2609   -1.5126 C   0  0  0  1  0  0  0  0  0  0  0  0
   18.0571   -5.5980   -0.5212 H   0  0  0  1  0  0  0  0  0  0  0  0
   19.2579   -3.3752   -2.8265 C   0  0  0  1  0  0  0  0  0  0  0  0
   19.6717   -2.3914   -2.7497 H   0  0  0  1  0  0  0  0  0  0  0  0
   18.7684   -3.8292   -1.4498 C   0  0  0  1  0  0  0  0  0  0  0  0
   17.9671   -3.1947   -1.1333 H   0  0  0  1  0  0  0  0  0  0  0  0
   18.7530   -7.5032   -2.3389 N   0  0  0  1  0  0  0  0  0  0  0  0
   18.1308   -7.6350   -3.0845 H   0  0  0  1  0  0  0  0  0  0  0  0
   19.8455   -3.7409   -0.5136 O   0  0  0  1  0  0  0  0  0  0  0  0
   20.3599   -2.9697   -0.7632 H   0  0  0  1  0  0  0  0  0  0  0  0
   18.1027   -3.3596   -3.7863 C   0  0  0  1  0  0  0  0  0  0  0  0
   17.3145   -2.7483   -3.3992 H   0  0  0  1  0  0  0  0  0  0  0  0
   17.7409   -4.3550   -3.9385 H   0  0  0  1  0  0  0  0  0  0  0  0
   18.5762   -2.8209   -5.0169 O   0  0  0  1  0  0  0  0  0  0  0  0
   17.9980   -3.1253   -5.7201 H   0  0  0  1  0  0  0  0  0  0  0  0
   19.0437   -8.5418   -1.5503 C   0  0  0  1  0  0  0  0  0  0  0  0
   19.8512   -8.4952   -0.6370 O   0  0  0  1  0  0  0  0  0  0  0  0
   18.2165   -9.7997   -1.8056 C   0  0  0  1  0  0  0  0  0  0  0  0
   18.6176  -10.5243   -1.1282 H   0  0  0  1  0  0  0  0  0  0  0  0
   18.3273  -10.1264   -2.8185 H   0  0  0  1  0  0  0  0  0  0  0  0
   17.1819   -9.6206   -1.5992 H   0  0  0  1  0  0  0  0  0  0  0  0
  1  2  1  0  0  0  0
  1  3  1  0  0  0  0
  1  4  1  0  0  0  0
  1 44  1  0  0  0  0
  3 20  1  0  0  0  0
  4  5  1  0  0  0  0
  4  6  1  0  0  0  0
  4  8  1  0  0  0  0
  6  7  1  0  0  0  0
  8  9  1  0  0  0  0
  8 10  1  0  0  0  0
  8 20  1  0  0  0  0
 10 11  1  0  0  0  0
 12 13  1  0  0  0  0
 12 14  1  0  0  0  0
 12 15  1  0  0  0  0
 12 17  1  0  0  0  0
 15 16  1  0  0  0  0
 17 18  1  0  0  0  0
 17 19  1  0  0  0  0
 17 20  1  0  0  0  0
 19 22  1  0  0  0  0
 20 21  1  0  0  0  0
 22 23  1  0  0  0  0
 22 24  1  0  0  0  0
 22 25  1  0  0  0  0
 24 42  1  0  0  0  0
 25 26  1  0  0  0  0
 25 27  1  0  0  0  0
 25 29  1  0  0  0  0
 27 28  1  0  0  0  0
 29 30  1  0  0  0  0
 29 31  1  0  0  0  0
 29 42  1  0  0  0  0
 31 32  1  0  0  0  0
 33 34  1  0  0  0  0
 33 35  1  0  0  0  0
 33 36  1  0  0  0  0
 33 38  1  0  0  0  0
 36 37  1  0  0  0  0
 38 39  1  0  0  0  0
 38 40  1  0  0  0  0
 38 42  1  0  0  0  0
 40 41  1  0  0  0  0
 42 43  1  0  0  0  0
 44194  1  0  0  0  0
 45 46  1  0  0  0  0
 45 54  1  0  0  0  0
 46 47  1  0  0  0  0
 46 48  1  0  0  0  0
 46 49  2  0  0  0  0
 47 50  1  0  0  0  0
 50 51  1  0  0  0  0
 50 52  1  0  0  0  0
 50 53  2  0  0  0  0
 51205  1  0  0  0  0
 54 55  1  0  0  0  0
 54 56  1  0  0  0  0
 54 57  1  0  0  0  0
 57 58  1  0  0  0  0
 57 59  2  0  0  0  0
 59 60  1  0  0  0  0
 59 64  1  0  0  0  0
 60 61  1  0  0  0  0
 60 62  1  0  0  0  0
 60 63  1  0  0  0  0
 64 65  1  0  0  0  0
 64 66  1  0  0  0  0
 64 67  1  0  0  0  0
 67 68  1  0  0  0  0
 67 69  1  0  0  0  0
 67 70  1  0  0  0  0
 70 71  1  0  0  0  0
 70 72  2  0  0  0  0
 72 73  1  0  0  0  0
 72 77  1  0  0  0  0
 73 74  1  0  0  0  0
 73 75  1  0  0  0  0
 73 76  1  0  0  0  0
 77 78  1  0  0  0  0
 77 79  1  0  0  0  0
 77 80  1  0  0  0  0
 80 81  1  0  0  0  0
 80 82  1  0  0  0  0
 80 83  1  0  0  0  0
 83 84  1  0  0  0  0
 83 85  2  0  0  0  0
 85 86  1  0  0  0  0
 85 89  1  0  0  0  0
 86 87  1  0  0  0  0
 86 88  1  0  0  0  0
 86 93  1  0  0  0  0
 89 90  1  0  0  0  0
 89 91  1  0  0  0  0
 89 92  1  0  0  0  0
 93 94  1  0  0  0  0
 93 95  1  0  0  0  0
 93 96  1  0  0  0  0
 96 97  1  0  0  0  0
 96 98  2  0  0  0  0
 98 99  1  0  0  0  0
 98102  1  0  0  0  0
 99100  1  0  0  0  0
 99101  1  0  0  0  0
 99106  1  0  0  0  0
102103  1  0  0  0  0
102104  1  0  0  0  0
102105  1  0  0  0  0
106107  1  0  0  0  0
106108  1  0  0  0  0
106109  1  0  0  0  0
109110  1  0  0  0  0
109111  2  0  0  0  0
111112  1  0  0  0  0
111115  1  0  0  0  0
112113  1  0  0  0  0
112114  1  0  0  0  0
112119  1  0  0  0  0
115116  1  0  0  0  0
115117  1  0  0  0  0
115118  1  0  0  0  0
119120  1  0  0  0  0
119121  1  0  0  0  0
119122  1  0  0  0  0
122123  1  0  0  0  0
122124  2  0  0  0  0
124125  1  0  0  0  0
124128  1  0  0  0  0
125126  1  0  0  0  0
125127  1  0  0  0  0
125132  1  0  0  0  0
128129  1  0  0  0  0
128130  1  0  0  0  0
128131  1  0  0  0  0
132133  1  0  0  0  0
132134  1  0  0  0  0
132135  1  0  0  0  0
135136  1  0  0  0  0
135137  2  0  0  0  0
137138  1  0  0  0  0
137141  1  0  0  0  0
138139  1  0  0  0  0
138140  1  0  0  0  0
138145  1  0  0  0  0
141142  1  0  0  0  0
141143  1  0  0  0  0
141144  1  0  0  0  0
145146  1  0  0  0  0
145147  1  0  0  0  0
145148  1  0  0  0  0
148149  1  0  0  0  0
148150  2  0  0  0  0
150151  1  0  0  0  0
150154  1  0  0  0  0
151152  1  0  0  0  0
151153  1  0  0  0  0
151158  1  0  0  0  0
154155  1  0  0  0  0
154156  1  0  0  0  0
154157  1  0  0  0  0
158159  1  0  0  0  0
158160  1  0  0  0  0
158161  1  0  0  0  0
161162  1  0  0  0  0
161163  2  0  0  0  0
163164  1  0  0  0  0
163167  1  0  0  0  0
164165  1  0  0  0  0
164166  1  0  0  0  0
164171  1  0  0  0  0
167168  1  0  0  0  0
167169  1  0  0  0  0
167170  1  0  0  0  0
171172  1  0  0  0  0
171173  1  0  0  0  0
171174  1  0  0  0  0
174175  1  0  0  0  0
174176  2  0  0  0  0
176177  1  0  0  0  0
176181  1  0  0  0  0
177178  1  0  0  0  0
177179  1  0  0  0  0
177180  1  0  0  0  0
181182  1  0  0  0  0
181183  1  0  0  0  0
181184  1  0  0  0  0
185186  1  0  0  0  0
185187  1  0  0  0  0
185189  1  0  0  0  0
185196  1  0  0  0  0
187188  1  0  0  0  0
187190  1  0  0  0  0
187197  1  0  0  0  0
189192  1  0  0  0  0
190191  1  0  0  0  0
190194  1  0  0  0  0
190199  1  0  0  0  0
192193  1  0  0  0  0
192194  1  0  0  0  0
192201  1  0  0  0  0
194195  1  0  0  0  0
196210  1  0  0  0  0
197198  1  0  0  0  0
199200  1  0  0  0  0
201202  1  0  0  0  0
201203  1  0  0  0  0
201204  1  0  0  0  0
205206  1  0  0  0  0
205207  1  0  0  0  0
205209  1  0  0  0  0
207208  1  0  0  0  0
207210  1  0  0  0  0
207216  1  0  0  0  0
209212  1  0  0  0  0
210211  1  0  0  0  0
210214  1  0  0  0  0
212213  1  0  0  0  0
212214  1  0  0  0  0
212220  1  0  0  0  0
214215  1  0  0  0  0
214218  1  0  0  0  0
216217  1  0  0  0  0
216225  1  0  0  0  0
218219  1  0  0  0  0
220221  1  0  0  0  0
220222  1  0  0  0  0
220223  1  0  0  0  0
223224  1  0  0  0  0
225226  2  0  0  0  0
225227  1  0  0  0  0
227228  1  0  0  0  0
227229  1  0  0  0  0
227230  1  0  0  0  0
M  BCL ATM C_TeTeTeTe H_S O_Te2Te2TeTe C_TeTeTeTe H_S O_Te2Te2TeTe H_S C_TeTeTeTe H_S O_Te2Te2TeTe H_S C_TeTeTeTe H_S H_S O_Te2Te2TeTe H_S C_TeTeTeTe H_S O_Te2Te2TeTe C_TeTeTeTe H_S C_TeTeTeTe H_S O_Te2Te2TeTe C_TeTeTeTe H_S O_Te2Te2TeTe H_S C_TeTeTeTe H_S O_Te2Te2TeTe H_S C_TeTeTeTe H_S H_S O_Te2Te2TeTe H_S C_TeTeTeTe H_S O_Te2Te2TeTe H_S C_TeTeTeTe H_S O_Te2Te2TeTe O_Tr2TrTrPi2 P_TeTeTeTePi O_Tr2TrTrPi2 O_Te2Te2TeTe O_Tr2Tr2TrPi P_TeTeTeTePi O_Tr2TrTrPi2 O_Te2Te2TeTe O_Tr2Tr2TrPi C_TeTeTeTe H_S H_S C_TrTrTrPi H_S C_TrTrTrPi C_TeTeTeTe H_S H_S H_S C_TeTeTeTe H_S H_S C_TeTeTeTe H_S H_S C_TrTrTrPi H_S C_TrTrTrPi C_TeTeTeTe H_S H_S H_S C_TeTeTeTe H_S H_S C_TeTeTeTe H_S H_S C_TrTrTrPi H_S C_TrTrTrPi C_TeTeTeTe H_S H_S C_TeTeTeTe H_S H_S H_S C_TeTeTeTe H_S H_S C_TrTrTrPi H_S C_TrTrTrPi C_TeTeTeTe H_S H_S C_TeTeTeTe H_S H_S H_S C_TeTeTeTe H_S H_S C_TrTrTrPi H_S C_TrTrTrPi C_TeTeTeTe H_S H_S C_TeTeTeTe H_S H_S H_S C_TeTeTeTe H_S H_S C_TrTrTrPi H_S C_TrTrTrPi C_TeTeTeTe H_S H_S C_TeTeTeTe H_S H_S H_S C_TeTeTeTe H_S H_S C_TrTrTrPi H_S C_TrTrTrPi C_TeTeTeTe H_S H_S C_TeTeTeTe H_S H_S H_S C_TeTeTeTe H_S H_S C_TrTrTrPi H_S C_TrTrTrPi C_TeTeTeTe H_S H_S C_TeTeTeTe H_S H_S H_S C_TeTeTeTe H_S H_S C_TrTrTrPi H_S C_TrTrTrPi C_TeTeTeTe H_S H_S C_TeTeTeTe H_S H_S H_S C_TeTeTeTe H_S H_S C_TrTrTrPi H_S C_TrTrTrPi C_TeTeTeTe H_S H_S H_S C_TeTeTeTe H_S H_S H_S C_TeTeTeTe H_S C_TeTeTeTe H_S O_Te2Te2TeTe C_TeTeTeTe H_S C_TeTeTeTe H_S C_TeTeTeTe H_S O_Te2Te2TeTe O_Te2Te2TeTe H_S O_Te2Te2TeTe H_S C_TeTeTeTe H_S H_S H_S C_TeTeTeTe H_S C_TeTeTeTe H_S O_Te2Te2TeTe C_TeTeTeTe H_S C_TeTeTeTe H_S C_TeTeTeTe H_S N_TrTrTrPi2 H_S O_Te2Te2TeTe H_S C_TeTeTeTe H_S H_S O_Te2Te2TeTe H_S C_TrTrTrPi O_Tr2Tr2TrPi C_TeTeTeTe H_S H_S H_S
M  BCL BND NonConjugatedSingleBond NonConjugatedSingleBondInRing NonConjugatedSingleBondInRing NonConjugatedSingleBond NonConjugatedSingleBondInRing NonConjugatedSingleBond NonConjugatedSingleBond NonConjugatedSingleBondInRing NonConjugatedSingleBond NonConjugatedSingleBond NonConjugatedSingleBond NonConjugatedSingleBondInRing NonConjugatedSingleBond NonConjugatedSingleBond NonConjugatedSingleBond NonConjugatedSingleBond NonConjugatedSingleBond NonConjugatedSingleBond NonConjugatedSingleBond NonConjugatedSingleBond NonConjugatedSingleBond NonConjugatedSingleBond NonConjugatedSingleBond NonConjugatedSingleBond NonConjugatedSingleBondInRing NonConjugatedSingleBondInRing NonConjugatedSingleBondInRing NonConjugatedSingleBond NonConjugatedSingleBond NonConjugatedSingleBondInRing NonConjugatedSingleBond NonConjugatedSingleBond NonConjugatedSingleBond NonConjugatedSingleBondInRing NonConjugatedSingleBond NonConjugatedSingleBond NonConjugatedSingleBond NonConjugatedSingleBond NonConjugatedSingleBond NonConjugatedSingleBond NonConjugatedSingleBond NonConjugatedSingleBond NonConjugatedSingleBond NonConjugatedSingleBond NonConjugatedSingleBond NonConjugatedSingleBond ConjugatedSingleBond NonConjugatedSingleBond ConjugatedSingleBond ConjugatedSingleBond ConjugatedDoubleBond ConjugatedSingleBond ConjugatedSingleBond ConjugatedSingleBond ConjugatedDoubleBond NonConjugatedSingleBond NonConjugatedSingleBond NonConjugatedSingleBond NonConjugatedSingleBond NonConjugatedSingleBond ConjugatedDoubleBond NonConjugatedSingleBond NonConjugatedSingleBond NonConjugatedSingleBond NonConjugatedSingleBond NonConjugatedSingleBond NonConjugatedSingleBond NonConjugatedSingleBond NonConjugatedSingleBond NonConjugatedSingleBond NonConjugatedSingleBond NonConjugatedSingleBond NonConjugatedSingleBond ConjugatedDoubleBond NonConjugatedSingleBond NonConjugatedSingleBond NonConjugatedSingleBond NonConjugatedSingleBond NonConjugatedSingleBond NonConjugatedSingleBond NonConjugatedSingleBond NonConjugatedSingleBond NonConjugatedSingleBond NonConjugatedSingleBond NonConjugatedSingleBond NonConjugatedSingleBond ConjugatedDoubleBond NonConjugatedSingleBond NonConjugatedSingleBond NonConjugatedSingleBond NonConjugatedSingleBond NonConjugatedSingleBond NonConjugatedSingleBond NonConjugatedSingleBond NonConjugatedSingleBond NonConjugatedSingleBond NonConjugatedSingleBond NonConjugatedSingleBond NonConjugatedSingleBond ConjugatedDoubleBond NonConjugatedSingleBond NonConjugatedSingleBond NonConjugatedSingleBond NonConjugatedSingleBond NonConjugatedSingleBond NonConjugatedSingleBond NonConjugatedSingleBond NonConjugatedSingleBond NonConjugatedSingleBond NonConjugatedSingleBond NonConjugatedSingleBond NonConjugatedSingleBond ConjugatedDoubleBond NonConjugatedSingleBond NonConjugatedSingleBond NonConjugatedSingleBond NonConjugatedSingleBond NonConjugatedSingleBond NonConjugatedSingleBond NonConjugatedSingleBond NonConjugatedSingleBond NonConjugatedSingleBond NonConjugatedSingleBond NonConjugatedSingleBond NonConjugatedSingleBond ConjugatedDoubleBond NonConjugatedSingleBond NonConjugatedSingleBond NonConjugatedSingleBond NonConjugatedSingleBond NonConjugatedSingleBond NonConjugatedSingleBond NonConjugatedSingleBond NonConjugatedSingleBond NonConjugatedSingleBond NonConjugatedSingleBond NonConjugatedSingleBond NonConjugatedSingleBond ConjugatedDoubleBond NonConjugatedSingleBond NonConjugatedSingleBond NonConjugatedSingleBond NonConjugatedSingleBond NonConjugatedSingleBond NonConjugatedSingleBond NonConjugatedSingleBond NonConjugatedSingleBond NonConjugatedSingleBond NonConjugatedSingleBond NonConjugatedSingleBond NonConjugatedSingleBond ConjugatedDoubleBond NonConjugatedSingleBond NonConjugatedSingleBond NonConjugatedSingleBond NonConjugatedSingleBond NonConjugatedSingleBond NonConjugatedSingleBond NonConjugatedSingleBond NonConjugatedSingleBond NonConjugatedSingleBond NonConjugatedSingleBond NonConjugatedSingleBond NonConjugatedSingleBond ConjugatedDoubleBond NonConjugatedSingleBond NonConjugatedSingleBond NonConjugatedSingleBond NonConjugatedSingleBond NonConjugatedSingleBond NonConjugatedSingleBond NonConjugatedSingleBond NonConjugatedSingleBond NonConjugatedSingleBond NonConjugatedSingleBond NonConjugatedSingleBond NonConjugatedSingleBond ConjugatedDoubleBond NonConjugatedSingleBond NonConjugatedSingleBond NonConjugatedSingleBond NonConjugatedSingleBond NonConjugatedSingleBond NonConjugatedSingleBond NonConjugatedSingleBond NonConjugatedSingleBond NonConjugatedSingleBond NonConjugatedSingleBondInRing NonConjugatedSingleBondInRing NonConjugatedSingleBond NonConjugatedSingleBond NonConjugatedSingleBondInRing NonConjugatedSingleBond NonConjugatedSingleBondInRing NonConjugatedSingleBond NonConjugatedSingleBondInRing NonConjugatedSingleBond NonConjugatedSingleBond NonConjugatedSingleBondInRing NonConjugatedSingleBond NonConjugatedSingleBond NonConjugatedSingleBond NonConjugatedSingleBond NonConjugatedSingleBond NonConjugatedSingleBond NonConjugatedSingleBond NonConjugatedSingleBond NonConjugatedSingleBond NonConjugatedSingleBondInRing NonConjugatedSingleBondInRing NonConjugatedSingleBond NonConjugatedSingleBondInRing NonConjugatedSingleBond NonConjugatedSingleBondInRing NonConjugatedSingleBond NonConjugatedSingleBondInRing NonConjugatedSingleBond NonConjugatedSingleBondInRing NonConjugatedSingleBond NonConjugatedSingleBond NonConjugatedSingleBond NonConjugatedSingleBond AmideSingleBond NonConjugatedSingleBond NonConjugatedSingleBond NonConjugatedSingleBond NonConjugatedSingleBond NonConjugatedSingleBond ConjugatedDoubleBond NonConjugatedSingleBond NonConjugatedSingleBond NonConjugatedSingleBond NonConjugatedSingleBond
M  BCL CHI   1   R   4   R   8   R  17   S  20   R  22   S  25   R  29   S  38   S  42   R  46   R  50   S 185   R 187   S 190   S 192   R 194   R 205   R 207   S 210   R 212   S 214   S
M  BCL DBI - - E E E E E E E E Z - -
M  END
> <ConfClashScore>
0.0107417 

> <ConfOneFourInteractionScore>
-0.962837 

> <ConfScore>
1.25045 

> <ConfScorePBest>
0.00881549 

> <ConfTolerance>
3.45353 

$$$$
L05.****
  PyMOL2.5          3D                             0

230233  0  0  0  0  0  0  0  0999 V2000
   12.1314   -4.0062   -3.1424 C   0  0  0  1  0  0  0  0  0  0  0  0
   12.3382   -5.0536   -3.0714 H   0  0  0  1  0  0  0  0  0  0  0  0
   11.8938   -3.6360   -4.5115 O   0  0  0  1  0  0  0  0  0  0  0  0
   10.8774   -3.6736   -2.4002 C   0  0  0  1  0  0  0  0  0  0  0  0
   10.9034   -2.6681   -2.0354 H   0  0  0  1  0  0  0  0  0  0  0  0
   10.6759   -4.5720   -1.3081 O   0  0  0  1  0  0  0  0  0  0  0  0
   10.2693   -5.3803   -1.6290 H   0  0  0  1  0  0  0  0  0  0  0  0
    9.8077   -3.8409   -3.4375 C   0  0  0  1  0  0  0  0  0  0  0  0
    9.4918   -4.8609   -3.5056 H   0  0  0  1  0  0  0  0  0  0  0  0
    8.6805   -3.0106   -3.1542 O   0  0  0  1  0  0  0  0  0  0  0  0
    8.9720   -2.2212   -2.6923 H   0  0  0  1  0  0  0  0  0  0  0  0
    8.4914   -4.0391   -6.1007 C   0  0  0  1  0  0  0  0  0  0  0  0
    7.9617   -4.5005   -5.2936 H   0  0  0  1  0  0  0  0  0  0  0  0
    8.2650   -2.9936   -6.1252 H   0  0  0  1  0  0  0  0  0  0  0  0
    8.0636   -4.6270   -7.3222 O   0  0  0  1  0  0  0  0  0  0  0  0
    8.8258   -4.7945   -7.8814 H   0  0  0  1  0  0  0  0  0  0  0  0
    9.9842   -4.2097   -5.8655 C   0  0  0  1  0  0  0  0  0  0  0  0
   10.5028   -3.8886   -6.7447 H   0  0  0  1  0  0  0  0  0  0  0  0
   10.3014   -5.5695   -5.5920 O   0  0  0  1  0  0  0  0  0  0  0  0
   10.4961   -3.4060   -4.6871 C   0  0  0  1  0  0  0  0  0  0  0  0
   10.3164   -2.3654   -4.8594 H   0  0  0  1  0  0  0  0  0  0  0  0
   10.4296   -6.3635   -6.7437 C   0  0  0  1  0  0  0  0  0  0  0  0
    9.4897   -6.4085   -7.2530 H   0  0  0  1  0  0  0  0  0  0  0  0
   11.4279   -5.8570   -7.5873 O   0  0  0  1  0  0  0  0  0  0  0  0
   10.9196   -7.7729   -6.3809 C   0  0  0  1  0  0  0  0  0  0  0  0
   10.0986   -8.4199   -6.1526 H   0  0  0  1  0  0  0  0  0  0  0  0
   11.8198   -7.7356   -5.2726 O   0  0  0  1  0  0  0  0  0  0  0  0
   11.6030   -8.4421   -4.6598 H   0  0  0  1  0  0  0  0  0  0  0  0
   11.6238   -8.2120   -7.6379 C   0  0  0  1  0  0  0  0  0  0  0  0
   10.9322   -8.6309   -8.3388 H   0  0  0  1  0  0  0  0  0  0  0  0
   12.6419   -9.1650   -7.3468 O   0  0  0  1  0  0  0  0  0  0  0  0
   12.9299   -9.5849   -8.1607 H   0  0  0  1  0  0  0  0  0  0  0  0
   12.6669   -5.5639  -10.2708 C   0  0  0  1  0  0  0  0  0  0  0  0
   12.0921   -4.7386   -9.9056 H   0  0  0  1  0  0  0  0  0  0  0  0
   13.6941   -5.4304  -10.0022 H   0  0  0  1  0  0  0  0  0  0  0  0
   12.5428   -5.6541  -11.6828 O   0  0  0  1  0  0  0  0  0  0  0  0
   12.7388   -4.8010  -12.0769 H   0  0  0  1  0  0  0  0  0  0  0  0
   12.1405   -6.8651   -9.6814 C   0  0  0  1  0  0  0  0  0  0  0  0
   12.7305   -7.6683  -10.0708 H   0  0  0  1  0  0  0  0  0  0  0  0
   10.7957   -7.0058  -10.1314 O   0  0  0  1  0  0  0  0  0  0  0  0
   10.4930   -6.1734  -10.5018 H   0  0  0  1  0  0  0  0  0  0  0  0
   12.2269   -6.9097   -8.1726 C   0  0  0  1  0  0  0  0  0  0  0  0
   13.2492   -6.8174   -7.8705 H   0  0  0  1  0  0  0  0  0  0  0  0
   13.2279   -3.2687   -2.6146 O   0  0  0  1  0  0  0  0  0  0  0  0
   22.8052   -3.9746   -0.3142 O   0  0  0  1  0  0  0  0  0  0  0  0
   23.0925   -3.1952   -1.7021 P   0  0  0  1  0  0  0  0  0  0  0  0
   22.0659   -3.9121   -2.7235 O   0  0  0  1  0  0  0  0  0  0  0  0
   24.5402   -3.4162   -2.0421 O   0  0  0  0  0  0  0  0  0  0  0  0
   22.7487   -1.8001   -1.5035 O   0  0  0  1  0  0  0  0  0  0  0  0
   21.3165   -3.5426   -4.0906 P   0  0  0  1  0  0  0  0  0  0  0  0
   20.5868   -4.9073   -4.4216 O   0  0  0  1  0  0  0  0  0  0  0  0
   22.3339   -3.2174   -5.1155 O   0  0  0  0  0  0  0  0  0  0  0  0
   20.2670   -2.5627   -3.8079 O   0  0  0  1  0  0  0  0  0  0  0  0
   23.5535   -3.7382    0.8891 C   0  0  0  1  0  0  0  0  0  0  0  0
   24.3068   -3.0007    0.7060 H   0  0  0  1  0  0  0  0  0  0  0  0
   24.0153   -4.6481    1.2110 H   0  0  0  1  0  0  0  0  0  0  0  0
   22.6186   -3.2501    1.9416 C   0  0  0  1  0  0  0  0  0  0  0  0
   21.6819   -2.9170    1.6363 H   0  0  0  1  0  0  0  0  0  0  0  0
   22.8924   -3.2087    3.2411 C   0  0  0  1  0  0  0  0  0  0  0  0
   21.8624   -2.9480    4.3015 C   0  0  0  1  0  0  0  0  0  0  0  0
   22.2400   -3.2637    5.2516 H   0  0  0  1  0  0  0  0  0  0  0  0
   20.9703   -3.4931    4.0735 H   0  0  0  1  0  0  0  0  0  0  0  0
   21.6426   -1.9013    4.3352 H   0  0  0  1  0  0  0  0  0  0  0  0
   24.2868   -3.4249    3.7583 C   0  0  0  1  0  0  0  0  0  0  0  0
   24.4359   -4.4780    3.8753 H   0  0  0  1  0  0  0  0  0  0  0  0
   24.3634   -2.9452    4.7117 H   0  0  0  1  0  0  0  0  0  0  0  0
   25.4004   -2.8892    2.8731 C   0  0  0  1  0  0  0  0  0  0  0  0
   25.2015   -1.8593    2.6614 H   0  0  0  1  0  0  0  0  0  0  0  0
   25.4075   -3.4466    1.9598 H   0  0  0  1  0  0  0  0  0  0  0  0
   26.7609   -2.9937    3.5088 C   0  0  0  1  0  0  0  0  0  0  0  0
   27.1385   -2.1263    3.9409 H   0  0  0  1  0  0  0  0  0  0  0  0
   27.5327   -4.0754    3.5778 C   0  0  0  1  0  0  0  0  0  0  0  0
   28.9916   -4.0277    3.9342 C   0  0  0  1  0  0  0  0  0  0  0  0
   29.2367   -4.8683    4.5492 H   0  0  0  1  0  0  0  0  0  0  0  0
   29.1989   -3.1234    4.4674 H   0  0  0  1  0  0  0  0  0  0  0  0
   29.5781   -4.0574    3.0398 H   0  0  0  1  0  0  0  0  0  0  0  0
   26.9811   -5.4158    3.1907 C   0  0  0  1  0  0  0  0  0  0  0  0
   25.9372   -5.4461    3.4232 H   0  0  0  1  0  0  0  0  0  0  0  0
   27.4920   -6.1778    3.7414 H   0  0  0  1  0  0  0  0  0  0  0  0
   27.1678   -5.6662    1.7031 C   0  0  0  1  0  0  0  0  0  0  0  0
   28.2142   -5.7657    1.5031 H   0  0  0  1  0  0  0  0  0  0  0  0
   26.7797   -4.8266    1.1651 H   0  0  0  1  0  0  0  0  0  0  0  0
   26.4683   -6.9077    1.2222 C   0  0  0  1  0  0  0  0  0  0  0  0
   25.4657   -7.0046    1.4810 H   0  0  0  1  0  0  0  0  0  0  0  0
   26.9923   -7.8942    0.5027 C   0  0  0  1  0  0  0  0  0  0  0  0
   28.2992   -7.7886   -0.2283 C   0  0  0  1  0  0  0  0  0  0  0  0
   28.3238   -8.5378   -0.9919 H   0  0  0  1  0  0  0  0  0  0  0  0
   29.0935   -7.9615    0.4674 H   0  0  0  1  0  0  0  0  0  0  0  0
   26.2992   -9.2204    0.3639 C   0  0  0  1  0  0  0  0  0  0  0  0
   26.1383   -9.4325   -0.6725 H   0  0  0  1  0  0  0  0  0  0  0  0
   25.3576   -9.1852    0.8709 H   0  0  0  1  0  0  0  0  0  0  0  0
   26.9083   -9.9876    0.7943 H   0  0  0  1  0  0  0  0  0  0  0  0
   28.5109   -6.4301   -0.8764 C   0  0  0  1  0  0  0  0  0  0  0  0
   28.7474   -5.7208   -0.1110 H   0  0  0  1  0  0  0  0  0  0  0  0
   27.6036   -6.1403   -1.3640 H   0  0  0  1  0  0  0  0  0  0  0  0
   29.6136   -6.4279   -1.8838 C   0  0  0  1  0  0  0  0  0  0  0  0
   30.5872   -6.5803   -1.5514 H   0  0  0  1  0  0  0  0  0  0  0  0
   29.4120   -6.2407   -3.1837 C   0  0  0  1  0  0  0  0  0  0  0  0
   28.0554   -6.2912   -3.8343 C   0  0  0  1  0  0  0  0  0  0  0  0
   28.0402   -5.5928   -4.6448 H   0  0  0  1  0  0  0  0  0  0  0  0
   27.3194   -6.0131   -3.1092 H   0  0  0  1  0  0  0  0  0  0  0  0
   30.5574   -5.9563   -4.1293 C   0  0  0  1  0  0  0  0  0  0  0  0
   30.4814   -6.5947   -4.9846 H   0  0  0  1  0  0  0  0  0  0  0  0
   31.4858   -6.1388   -3.6296 H   0  0  0  1  0  0  0  0  0  0  0  0
   30.5154   -4.9341   -4.4427 H   0  0  0  1  0  0  0  0  0  0  0  0
   27.7054   -7.6679   -4.3754 C   0  0  0  1  0  0  0  0  0  0  0  0
   27.9164   -8.4030   -3.6270 H   0  0  0  1  0  0  0  0  0  0  0  0
   28.2970   -7.8638   -5.2452 H   0  0  0  1  0  0  0  0  0  0  0  0
   26.2568   -7.7416   -4.7406 C   0  0  0  1  0  0  0  0  0  0  0  0
   25.7886   -6.8403   -4.9642 H   0  0  0  1  0  0  0  0  0  0  0  0
   25.5039   -8.8329   -4.8104 C   0  0  0  1  0  0  0  0  0  0  0  0
   25.9525  -10.1309   -4.2041 C   0  0  0  1  0  0  0  0  0  0  0  0
   26.9279  -10.0029   -3.7833 H   0  0  0  1  0  0  0  0  0  0  0  0
   25.9880  -10.8805   -4.9668 H   0  0  0  1  0  0  0  0  0  0  0  0
   24.1615   -8.8842   -5.4840 C   0  0  0  1  0  0  0  0  0  0  0  0
   23.4485   -8.3392   -4.9014 H   0  0  0  1  0  0  0  0  0  0  0  0
   23.8456   -9.9027   -5.5722 H   0  0  0  1  0  0  0  0  0  0  0  0
   24.2345   -8.4473   -6.4580 H   0  0  0  1  0  0  0  0  0  0  0  0
   24.9930  -10.5758   -3.1123 C   0  0  0  1  0  0  0  0  0  0  0  0
   24.0009  -10.5832   -3.5131 H   0  0  0  1  0  0  0  0  0  0  0  0
   25.0470   -9.8752   -2.3053 H   0  0  0  1  0  0  0  0  0  0  0  0
   25.3038  -11.9467   -2.5777 C   0  0  0  1  0  0  0  0  0  0  0  0
   26.2675  -12.1195   -2.2271 H   0  0  0  1  0  0  0  0  0  0  0  0
   24.4388  -12.9537   -2.5200 C   0  0  0  1  0  0  0  0  0  0  0  0
   22.9537  -12.7871   -2.6767 C   0  0  0  1  0  0  0  0  0  0  0  0
   22.7328  -11.7419   -2.7371 H   0  0  0  1  0  0  0  0  0  0  0  0
   22.4716  -13.2051   -1.8177 H   0  0  0  1  0  0  0  0  0  0  0  0
   24.8915  -14.3656   -2.2884 C   0  0  0  1  0  0  0  0  0  0  0  0
   24.0763  -14.9441   -1.9069 H   0  0  0  1  0  0  0  0  0  0  0  0
   25.6943  -14.3710   -1.5809 H   0  0  0  1  0  0  0  0  0  0  0  0
   25.2269  -14.7884   -3.2124 H   0  0  0  1  0  0  0  0  0  0  0  0
   22.4058  -13.4700   -3.9192 C   0  0  0  1  0  0  0  0  0  0  0  0
   22.3450  -14.5194   -3.7194 H   0  0  0  1  0  0  0  0  0  0  0  0
   23.0936  -13.2983   -4.7206 H   0  0  0  1  0  0  0  0  0  0  0  0
   21.0476  -13.0032   -4.3654 C   0  0  0  1  0  0  0  0  0  0  0  0
   20.8893  -11.9775   -4.4326 H   0  0  0  1  0  0  0  0  0  0  0  0
   20.0347  -13.8035   -4.6803 C   0  0  0  1  0  0  0  0  0  0  0  0
   20.0100  -15.2738   -4.3786 C   0  0  0  1  0  0  0  0  0  0  0  0
   18.9920  -15.5603   -4.2161 H   0  0  0  1  0  0  0  0  0  0  0  0
   20.5741  -15.4367   -3.4842 H   0  0  0  1  0  0  0  0  0  0  0  0
   18.8094  -13.2838   -5.3782 C   0  0  0  1  0  0  0  0  0  0  0  0
   18.3297  -14.0845   -5.9013 H   0  0  0  1  0  0  0  0  0  0  0  0
   19.0920  -12.5220   -6.0744 H   0  0  0  1  0  0  0  0  0  0  0  0
   18.1342  -12.8749   -4.6559 H   0  0  0  1  0  0  0  0  0  0  0  0
   20.5821  -16.1712   -5.4639 C   0  0  0  1  0  0  0  0  0  0  0  0
   20.1410  -15.9106   -6.4033 H   0  0  0  1  0  0  0  0  0  0  0  0
   20.3538  -17.1906   -5.2326 H   0  0  0  1  0  0  0  0  0  0  0  0
   22.0662  -16.0101   -5.5575 C   0  0  0  1  0  0  0  0  0  0  0  0
   22.6469  -16.4655   -4.8247 H   0  0  0  1  0  0  0  0  0  0  0  0
   22.7007  -15.3257   -6.5111 C   0  0  0  1  0  0  0  0  0  0  0  0
   21.9980  -14.9193   -7.7756 C   0  0  0  1  0  0  0  0  0  0  0  0
   21.2028  -15.6109   -7.9605 H   0  0  0  1  0  0  0  0  0  0  0  0
   22.6997  -14.9577   -8.5825 H   0  0  0  1  0  0  0  0  0  0  0  0
   24.1414  -14.9342   -6.3593 C   0  0  0  1  0  0  0  0  0  0  0  0
   24.6569  -15.6817   -5.7931 H   0  0  0  1  0  0  0  0  0  0  0  0
   24.2039  -13.9952   -5.8501 H   0  0  0  1  0  0  0  0  0  0  0  0
   24.5908  -14.8467   -7.3264 H   0  0  0  1  0  0  0  0  0  0  0  0
   21.4144  -13.5175   -7.7083 C   0  0  0  1  0  0  0  0  0  0  0  0
   22.2170  -12.8196   -7.5919 H   0  0  0  1  0  0  0  0  0  0  0  0
   20.7648  -13.4594   -6.8600 H   0  0  0  1  0  0  0  0  0  0  0  0
   20.6311  -13.1458   -8.9372 C   0  0  0  1  0  0  0  0  0  0  0  0
   19.7199  -13.6291   -9.0700 H   0  0  0  1  0  0  0  0  0  0  0  0
   20.9829  -12.2523   -9.8874 C   0  0  0  1  0  0  0  0  0  0  0  0
   20.1928  -12.0288  -11.1737 C   0  0  0  1  0  0  0  0  0  0  0  0
   20.8339  -12.2838  -11.9916 H   0  0  0  1  0  0  0  0  0  0  0  0
   19.9482  -10.9883  -11.2225 H   0  0  0  1  0  0  0  0  0  0  0  0
   22.1949  -11.4011   -9.7451 C   0  0  0  1  0  0  0  0  0  0  0  0
   22.7712  -11.5739  -10.6299 H   0  0  0  1  0  0  0  0  0  0  0  0
   22.7507  -11.6844   -8.8757 H   0  0  0  1  0  0  0  0  0  0  0  0
   21.9208  -10.3693   -9.6731 H   0  0  0  1  0  0  0  0  0  0  0  0
   18.8999  -12.8087  -11.3490 C   0  0  0  1  0  0  0  0  0  0  0  0
   18.3045  -12.7036  -10.4662 H   0  0  0  1  0  0  0  0  0  0  0  0
   19.1316  -13.8419  -11.5027 H   0  0  0  1  0  0  0  0  0  0  0  0
   18.1234  -12.2956  -12.5320 C   0  0  0  1  0  0  0  0  0  0  0  0
   18.4532  -11.4028  -12.9512 H   0  0  0  1  0  0  0  0  0  0  0  0
   17.0578  -12.8621  -13.1013 C   0  0  0  1  0  0  0  0  0  0  0  0
   16.4741  -14.1359  -12.5629 C   0  0  0  1  0  0  0  0  0  0  0  0
   17.2644  -14.8051  -12.2935 H   0  0  0  1  0  0  0  0  0  0  0  0
   15.8610  -14.5917  -13.3121 H   0  0  0  1  0  0  0  0  0  0  0  0
   15.8809  -13.9190  -11.6992 H   0  0  0  1  0  0  0  0  0  0  0  0
   16.3962  -12.2452  -14.3096 C   0  0  0  1  0  0  0  0  0  0  0  0
   16.9582  -11.3730  -14.5710 H   0  0  0  1  0  0  0  0  0  0  0  0
   15.3879  -11.9741  -14.0760 H   0  0  0  1  0  0  0  0  0  0  0  0
   16.3999  -12.9400  -15.1233 H   0  0  0  1  0  0  0  0  0  0  0  0
   15.8607   -5.1339   -1.4246 C   0  0  0  1  0  0  0  0  0  0  0  0
   15.8502   -5.6341   -0.4788 H   0  0  0  1  0  0  0  0  0  0  0  0
   14.8075   -5.7546   -2.3227 C   0  0  0  1  0  0  0  0  0  0  0  0
   15.1123   -6.7495   -2.5721 H   0  0  0  1  0  0  0  0  0  0  0  0
   15.6171   -3.7565   -1.2189 O   0  0  0  1  0  0  0  0  0  0  0  0
   14.6047   -4.9703   -3.6081 C   0  0  0  1  0  0  0  0  0  0  0  0
   13.7205   -5.3206   -4.0985 H   0  0  0  1  0  0  0  0  0  0  0  0
   15.6149   -3.0036   -2.4456 C   0  0  0  1  0  0  0  0  0  0  0  0
   16.5389   -3.1552   -2.9635 H   0  0  0  1  0  0  0  0  0  0  0  0
   14.4567   -3.4883   -3.3089 C   0  0  0  1  0  0  0  0  0  0  0  0
   14.4497   -2.9419   -4.2288 H   0  0  0  1  0  0  0  0  0  0  0  0
   17.1216   -5.2902   -2.0238 O   0  0  0  1  0  0  0  0  0  0  0  0
   13.5775   -5.7989   -1.6179 O   0  0  0  1  0  0  0  0  0  0  0  0
   13.7473   -5.9585   -0.6866 H   0  0  0  1  0  0  0  0  0  0  0  0
   15.7355   -5.1675   -4.4636 O   0  0  0  1  0  0  0  0  0  0  0  0
   15.6642   -4.5902   -5.2273 H   0  0  0  1  0  0  0  0  0  0  0  0
   15.4416   -1.5250   -2.1390 C   0  0  0  1  0  0  0  0  0  0  0  0
   15.8469   -0.9441   -2.9410 H   0  0  0  1  0  0  0  0  0  0  0  0
   15.9554   -1.2866   -1.2312 H   0  0  0  1  0  0  0  0  0  0  0  0
   14.4006   -1.3034   -2.0290 H   0  0  0  1  0  0  0  0  0  0  0  0
   19.6100   -5.4589   -3.5206 C   0  0  0  1  0  0  0  0  0  0  0  0
   19.6261   -4.9145   -2.5996 H   0  0  0  1  0  0  0  0  0  0  0  0
   18.2277   -5.3527   -4.1467 C   0  0  0  1  0  0  0  0  0  0  0  0
   18.2266   -5.8398   -5.0994 H   0  0  0  1  0  0  0  0  0  0  0  0
   19.9172   -6.8229   -3.2684 O   0  0  0  1  0  0  0  0  0  0  0  0
   17.2152   -6.0269   -3.2259 C   0  0  0  1  0  0  0  0  0  0  0  0
   16.2606   -6.0450   -3.7090 H   0  0  0  1  0  0  0  0  0  0  0  0
   19.0383   -7.4291   -2.3035 C   0  0  0  1  0  0  0  0  0  0  0  0
   19.3581   -8.4289   -2.0959 H   0  0  0  1  0  0  0  0  0  0  0  0
   17.6350   -7.4453   -2.9059 C   0  0  0  1  0  0  0  0  0  0  0  0
   16.9491   -7.8718   -2.2040 H   0  0  0  1  0  0  0  0  0  0  0  0
   17.8751   -3.9511   -4.3172 N   0  0  0  1  0  0  0  0  0  0  0  0
   17.2951   -3.5250   -3.6521 H   0  0  0  1  0  0  0  0  0  0  0  0
   17.6380   -8.2244   -4.1031 O   0  0  0  1  0  0  0  0  0  0  0  0
   18.5453   -8.2372   -4.4166 H   0  0  0  1  0  0  0  0  0  0  0  0
   19.0414   -6.6281   -1.0333 C   0  0  0  1  0  0  0  0  0  0  0  0
   18.2161   -6.9279   -0.4218 H   0  0  0  1  0  0  0  0  0  0  0  0
   18.9524   -5.5881   -1.2686 H   0  0  0  1  0  0  0  0  0  0  0  0
   20.2587   -6.8514   -0.3283 O   0  0  0  1  0  0  0  0  0  0  0  0
   20.9676   -6.9309   -0.9709 H   0  0  0  1  0  0  0  0  0  0  0  0
   18.3146   -3.2251   -5.3491 C   0  0  0  1  0  0  0  0  0  0  0  0
   18.9960   -3.6959   -6.2560 O   0  0  0  1  0  0  0  0  0  0  0  0
   17.9175   -1.7531   -5.3402 C   0  0  0  1  0  0  0  0  0  0  0  0
   16.9932   -1.7299   -4.8017 H   0  0  0  1  0  0  0  0  0  0  0  0
   17.7832   -1.3914   -6.3382 H   0  0  0  1  0  0  0  0  0  0  0  0
   18.6597   -1.1639   -4.8436 H   0  0  0  1  0  0  0  0  0  0  0  0
  1  2  1  0  0  0  0
  1  3  1  0  0  0  0
  1  4  1  0  0  0  0
  1 44  1  0  0  0  0
  3 20  1  0  0  0  0
  4  5  1  0  0  0  0
  4  6  1  0  0  0  0
  4  8  1  0  0  0  0
  6  7  1  0  0  0  0
  8  9  1  0  0  0  0
  8 10  1  0  0  0  0
  8 20  1  0  0  0  0
 10 11  1  0  0  0  0
 12 13  1  0  0  0  0
 12 14  1  0  0  0  0
 12 15  1  0  0  0  0
 12 17  1  0  0  0  0
 15 16  1  0  0  0  0
 17 18  1  0  0  0  0
 17 19  1  0  0  0  0
 17 20  1  0  0  0  0
 19 22  1  0  0  0  0
 20 21  1  0  0  0  0
 22 23  1  0  0  0  0
 22 24  1  0  0  0  0
 22 25  1  0  0  0  0
 24 42  1  0  0  0  0
 25 26  1  0  0  0  0
 25 27  1  0  0  0  0
 25 29  1  0  0  0  0
 27 28  1  0  0  0  0
 29 30  1  0  0  0  0
 29 31  1  0  0  0  0
 29 42  1  0  0  0  0
 31 32  1  0  0  0  0
 33 34  1  0  0  0  0
 33 35  1  0  0  0  0
 33 36  1  0  0  0  0
 33 38  1  0  0  0  0
 36 37  1  0  0  0  0
 38 39  1  0  0  0  0
 38 40  1  0  0  0  0
 38 42  1  0  0  0  0
 40 41  1  0  0  0  0
 42 43  1  0  0  0  0
 44194  1  0  0  0  0
 45 46  1  0  0  0  0
 45 54  1  0  0  0  0
 46 47  1  0  0  0  0
 46 48  1  0  0  0  0
 46 49  2  0  0  0  0
 47 50  1  0  0  0  0
 50 51  1  0  0  0  0
 50 52  1  0  0  0  0
 50 53  2  0  0  0  0
 51205  1  0  0  0  0
 54 55  1  0  0  0  0
 54 56  1  0  0  0  0
 54 57  1  0  0  0  0
 57 58  1  0  0  0  0
 57 59  2  0  0  0  0
 59 60  1  0  0  0  0
 59 64  1  0  0  0  0
 60 61  1  0  0  0  0
 60 62  1  0  0  0  0
 60 63  1  0  0  0  0
 64 65  1  0  0  0  0
 64 66  1  0  0  0  0
 64 67  1  0  0  0  0
 67 68  1  0  0  0  0
 67 69  1  0  0  0  0
 67 70  1  0  0  0  0
 70 71  1  0  0  0  0
 70 72  2  0  0  0  0
 72 73  1  0  0  0  0
 72 77  1  0  0  0  0
 73 74  1  0  0  0  0
 73 75  1  0  0  0  0
 73 76  1  0  0  0  0
 77 78  1  0  0  0  0
 77 79  1  0  0  0  0
 77 80  1  0  0  0  0
 80 81  1  0  0  0  0
 80 82  1  0  0  0  0
 80 83  1  0  0  0  0
 83 84  1  0  0  0  0
 83 85  2  0  0  0  0
 85 86  1  0  0  0  0
 85 89  1  0  0  0  0
 86 87  1  0  0  0  0
 86 88  1  0  0  0  0
 86 93  1  0  0  0  0
 89 90  1  0  0  0  0
 89 91  1  0  0  0  0
 89 92  1  0  0  0  0
 93 94  1  0  0  0  0
 93 95  1  0  0  0  0
 93 96  1  0  0  0  0
 96 97  1  0  0  0  0
 96 98  2  0  0  0  0
 98 99  1  0  0  0  0
 98102  1  0  0  0  0
 99100  1  0  0  0  0
 99101  1  0  0  0  0
 99106  1  0  0  0  0
102103  1  0  0  0  0
102104  1  0  0  0  0
102105  1  0  0  0  0
106107  1  0  0  0  0
106108  1  0  0  0  0
106109  1  0  0  0  0
109110  1  0  0  0  0
109111  2  0  0  0  0
111112  1  0  0  0  0
111115  1  0  0  0  0
112113  1  0  0  0  0
112114  1  0  0  0  0
112119  1  0  0  0  0
115116  1  0  0  0  0
115117  1  0  0  0  0
115118  1  0  0  0  0
119120  1  0  0  0  0
119121  1  0  0  0  0
119122  1  0  0  0  0
122123  1  0  0  0  0
122124  2  0  0  0  0
124125  1  0  0  0  0
124128  1  0  0  0  0
125126  1  0  0  0  0
125127  1  0  0  0  0
125132  1  0  0  0  0
128129  1  0  0  0  0
128130  1  0  0  0  0
128131  1  0  0  0  0
132133  1  0  0  0  0
132134  1  0  0  0  0
132135  1  0  0  0  0
135136  1  0  0  0  0
135137  2  0  0  0  0
137138  1  0  0  0  0
137141  1  0  0  0  0
138139  1  0  0  0  0
138140  1  0  0  0  0
138145  1  0  0  0  0
141142  1  0  0  0  0
141143  1  0  0  0  0
141144  1  0  0  0  0
145146  1  0  0  0  0
145147  1  0  0  0  0
145148  1  0  0  0  0
148149  1  0  0  0  0
148150  2  0  0  0  0
150151  1  0  0  0  0
150154  1  0  0  0  0
151152  1  0  0  0  0
151153  1  0  0  0  0
151158  1  0  0  0  0
154155  1  0  0  0  0
154156  1  0  0  0  0
154157  1  0  0  0  0
158159  1  0  0  0  0
158160  1  0  0  0  0
158161  1  0  0  0  0
161162  1  0  0  0  0
161163  2  0  0  0  0
163164  1  0  0  0  0
163167  1  0  0  0  0
164165  1  0  0  0  0
164166  1  0  0  0  0
164171  1  0  0  0  0
167168  1  0  0  0  0
167169  1  0  0  0  0
167170  1  0  0  0  0
171172  1  0  0  0  0
171173  1  0  0  0  0
171174  1  0  0  0  0
174175  1  0  0  0  0
174176  2  0  0  0  0
176177  1  0  0  0  0
176181  1  0  0  0  0
177178  1  0  0  0  0
177179  1  0  0  0  0
177180  1  0  0  0  0
181182  1  0  0  0  0
181183  1  0  0  0  0
181184  1  0  0  0  0
185186  1  0  0  0  0
185187  1  0  0  0  0
185189  1  0  0  0  0
185196  1  0  0  0  0
187188  1  0  0  0  0
187190  1  0  0  0  0
187197  1  0  0  0  0
189192  1  0  0  0  0
190191  1  0  0  0  0
190194  1  0  0  0  0
190199  1  0  0  0  0
192193  1  0  0  0  0
192194  1  0  0  0  0
192201  1  0  0  0  0
194195  1  0  0  0  0
196210  1  0  0  0  0
197198  1  0  0  0  0
199200  1  0  0  0  0
201202  1  0  0  0  0
201203  1  0  0  0  0
201204  1  0  0  0  0
205206  1  0  0  0  0
205207  1  0  0  0  0
205209  1  0  0  0  0
207208  1  0  0  0  0
207210  1  0  0  0  0
207216  1  0  0  0  0
209212  1  0  0  0  0
210211  1  0  0  0  0
210214  1  0  0  0  0
212213  1  0  0  0  0
212214  1  0  0  0  0
212220  1  0  0  0  0
214215  1  0  0  0  0
214218  1  0  0  0  0
216217  1  0  0  0  0
216225  1  0  0  0  0
218219  1  0  0  0  0
220221  1  0  0  0  0
220222  1  0  0  0  0
220223  1  0  0  0  0
223224  1  0  0  0  0
225226  2  0  0  0  0
225227  1  0  0  0  0
227228  1  0  0  0  0
227229  1  0  0  0  0
227230  1  0  0  0  0
M  BCL ATM C_TeTeTeTe H_S O_Te2Te2TeTe C_TeTeTeTe H_S O_Te2Te2TeTe H_S C_TeTeTeTe H_S O_Te2Te2TeTe H_S C_TeTeTeTe H_S H_S O_Te2Te2TeTe H_S C_TeTeTeTe H_S O_Te2Te2TeTe C_TeTeTeTe H_S C_TeTeTeTe H_S O_Te2Te2TeTe C_TeTeTeTe H_S O_Te2Te2TeTe H_S C_TeTeTeTe H_S O_Te2Te2TeTe H_S C_TeTeTeTe H_S H_S O_Te2Te2TeTe H_S C_TeTeTeTe H_S O_Te2Te2TeTe H_S C_TeTeTeTe H_S O_Te2Te2TeTe O_Tr2TrTrPi2 P_TeTeTeTePi O_Tr2TrTrPi2 O_Te2Te2TeTe O_Tr2Tr2TrPi P_TeTeTeTePi O_Tr2TrTrPi2 O_Te2Te2TeTe O_Tr2Tr2TrPi C_TeTeTeTe H_S H_S C_TrTrTrPi H_S C_TrTrTrPi C_TeTeTeTe H_S H_S H_S C_TeTeTeTe H_S H_S C_TeTeTeTe H_S H_S C_TrTrTrPi H_S C_TrTrTrPi C_TeTeTeTe H_S H_S H_S C_TeTeTeTe H_S H_S C_TeTeTeTe H_S H_S C_TrTrTrPi H_S C_TrTrTrPi C_TeTeTeTe H_S H_S C_TeTeTeTe H_S H_S H_S C_TeTeTeTe H_S H_S C_TrTrTrPi H_S C_TrTrTrPi C_TeTeTeTe H_S H_S C_TeTeTeTe H_S H_S H_S C_TeTeTeTe H_S H_S C_TrTrTrPi H_S C_TrTrTrPi C_TeTeTeTe H_S H_S C_TeTeTeTe H_S H_S H_S C_TeTeTeTe H_S H_S C_TrTrTrPi H_S C_TrTrTrPi C_TeTeTeTe H_S H_S C_TeTeTeTe H_S H_S H_S C_TeTeTeTe H_S H_S C_TrTrTrPi H_S C_TrTrTrPi C_TeTeTeTe H_S H_S C_TeTeTeTe H_S H_S H_S C_TeTeTeTe H_S H_S C_TrTrTrPi H_S C_TrTrTrPi C_TeTeTeTe H_S H_S C_TeTeTeTe H_S H_S H_S C_TeTeTeTe H_S H_S C_TrTrTrPi H_S C_TrTrTrPi C_TeTeTeTe H_S H_S C_TeTeTeTe H_S H_S H_S C_TeTeTeTe H_S H_S C_TrTrTrPi H_S C_TrTrTrPi C_TeTeTeTe H_S H_S H_S C_TeTeTeTe H_S H_S H_S C_TeTeTeTe H_S C_TeTeTeTe H_S O_Te2Te2TeTe C_TeTeTeTe H_S C_TeTeTeTe H_S C_TeTeTeTe H_S O_Te2Te2TeTe O_Te2Te2TeTe H_S O_Te2Te2TeTe H_S C_TeTeTeTe H_S H_S H_S C_TeTeTeTe H_S C_TeTeTeTe H_S O_Te2Te2TeTe C_TeTeTeTe H_S C_TeTeTeTe H_S C_TeTeTeTe H_S N_TrTrTrPi2 H_S O_Te2Te2TeTe H_S C_TeTeTeTe H_S H_S O_Te2Te2TeTe H_S C_TrTrTrPi O_Tr2Tr2TrPi C_TeTeTeTe H_S H_S H_S
M  BCL BND NonConjugatedSingleBond NonConjugatedSingleBondInRing NonConjugatedSingleBondInRing NonConjugatedSingleBond NonConjugatedSingleBondInRing NonConjugatedSingleBond NonConjugatedSingleBond NonConjugatedSingleBondInRing NonConjugatedSingleBond NonConjugatedSingleBond NonConjugatedSingleBond NonConjugatedSingleBondInRing NonConjugatedSingleBond NonConjugatedSingleBond NonConjugatedSingleBond NonConjugatedSingleBond NonConjugatedSingleBond NonConjugatedSingleBond NonConjugatedSingleBond NonConjugatedSingleBond NonConjugatedSingleBond NonConjugatedSingleBond NonConjugatedSingleBond NonConjugatedSingleBond NonConjugatedSingleBondInRing NonConjugatedSingleBondInRing NonConjugatedSingleBondInRing NonConjugatedSingleBond NonConjugatedSingleBond NonConjugatedSingleBondInRing NonConjugatedSingleBond NonConjugatedSingleBond NonConjugatedSingleBond NonConjugatedSingleBondInRing NonConjugatedSingleBond NonConjugatedSingleBond NonConjugatedSingleBond NonConjugatedSingleBond NonConjugatedSingleBond NonConjugatedSingleBond NonConjugatedSingleBond NonConjugatedSingleBond NonConjugatedSingleBond NonConjugatedSingleBond NonConjugatedSingleBond NonConjugatedSingleBond ConjugatedSingleBond NonConjugatedSingleBond ConjugatedSingleBond ConjugatedSingleBond ConjugatedDoubleBond ConjugatedSingleBond ConjugatedSingleBond ConjugatedSingleBond ConjugatedDoubleBond NonConjugatedSingleBond NonConjugatedSingleBond NonConjugatedSingleBond NonConjugatedSingleBond NonConjugatedSingleBond ConjugatedDoubleBond NonConjugatedSingleBond NonConjugatedSingleBond NonConjugatedSingleBond NonConjugatedSingleBond NonConjugatedSingleBond NonConjugatedSingleBond NonConjugatedSingleBond NonConjugatedSingleBond NonConjugatedSingleBond NonConjugatedSingleBond NonConjugatedSingleBond NonConjugatedSingleBond ConjugatedDoubleBond NonConjugatedSingleBond NonConjugatedSingleBond NonConjugatedSingleBond NonConjugatedSingleBond NonConjugatedSingleBond NonConjugatedSingleBond NonConjugatedSingleBond NonConjugatedSingleBond NonConjugatedSingleBond NonConjugatedSingleBond NonConjugatedSingleBond NonConjugatedSingleBond ConjugatedDoubleBond NonConjugatedSingleBond NonConjugatedSingleBond NonConjugatedSingleBond NonConjugatedSingleBond NonConjugatedSingleBond NonConjugatedSingleBond NonConjugatedSingleBond NonConjugatedSingleBond NonConjugatedSingleBond NonConjugatedSingleBond NonConjugatedSingleBond NonConjugatedSingleBond ConjugatedDoubleBond NonConjugatedSingleBond NonConjugatedSingleBond NonConjugatedSingleBond NonConjugatedSingleBond NonConjugatedSingleBond NonConjugatedSingleBond NonConjugatedSingleBond NonConjugatedSingleBond NonConjugatedSingleBond NonConjugatedSingleBond NonConjugatedSingleBond NonConjugatedSingleBond ConjugatedDoubleBond NonConjugatedSingleBond NonConjugatedSingleBond NonConjugatedSingleBond NonConjugatedSingleBond NonConjugatedSingleBond NonConjugatedSingleBond NonConjugatedSingleBond NonConjugatedSingleBond NonConjugatedSingleBond NonConjugatedSingleBond NonConjugatedSingleBond NonConjugatedSingleBond ConjugatedDoubleBond NonConjugatedSingleBond NonConjugatedSingleBond NonConjugatedSingleBond NonConjugatedSingleBond NonConjugatedSingleBond NonConjugatedSingleBond NonConjugatedSingleBond NonConjugatedSingleBond NonConjugatedSingleBond NonConjugatedSingleBond NonConjugatedSingleBond NonConjugatedSingleBond ConjugatedDoubleBond NonConjugatedSingleBond NonConjugatedSingleBond NonConjugatedSingleBond NonConjugatedSingleBond NonConjugatedSingleBond NonConjugatedSingleBond NonConjugatedSingleBond NonConjugatedSingleBond NonConjugatedSingleBond NonConjugatedSingleBond NonConjugatedSingleBond NonConjugatedSingleBond ConjugatedDoubleBond NonConjugatedSingleBond NonConjugatedSingleBond NonConjugatedSingleBond NonConjugatedSingleBond NonConjugatedSingleBond NonConjugatedSingleBond NonConjugatedSingleBond NonConjugatedSingleBond NonConjugatedSingleBond NonConjugatedSingleBond NonConjugatedSingleBond NonConjugatedSingleBond ConjugatedDoubleBond NonConjugatedSingleBond NonConjugatedSingleBond NonConjugatedSingleBond NonConjugatedSingleBond NonConjugatedSingleBond NonConjugatedSingleBond NonConjugatedSingleBond NonConjugatedSingleBond NonConjugatedSingleBond NonConjugatedSingleBond NonConjugatedSingleBond NonConjugatedSingleBond ConjugatedDoubleBond NonConjugatedSingleBond NonConjugatedSingleBond NonConjugatedSingleBond NonConjugatedSingleBond NonConjugatedSingleBond NonConjugatedSingleBond NonConjugatedSingleBond NonConjugatedSingleBond NonConjugatedSingleBond NonConjugatedSingleBondInRing NonConjugatedSingleBondInRing NonConjugatedSingleBond NonConjugatedSingleBond NonConjugatedSingleBondInRing NonConjugatedSingleBond NonConjugatedSingleBondInRing NonConjugatedSingleBond NonConjugatedSingleBondInRing NonConjugatedSingleBond NonConjugatedSingleBond NonConjugatedSingleBondInRing NonConjugatedSingleBond NonConjugatedSingleBond NonConjugatedSingleBond NonConjugatedSingleBond NonConjugatedSingleBond NonConjugatedSingleBond NonConjugatedSingleBond NonConjugatedSingleBond NonConjugatedSingleBond NonConjugatedSingleBondInRing NonConjugatedSingleBondInRing NonConjugatedSingleBond NonConjugatedSingleBondInRing NonConjugatedSingleBond NonConjugatedSingleBondInRing NonConjugatedSingleBond NonConjugatedSingleBondInRing NonConjugatedSingleBond NonConjugatedSingleBondInRing NonConjugatedSingleBond NonConjugatedSingleBond NonConjugatedSingleBond NonConjugatedSingleBond AmideSingleBond NonConjugatedSingleBond NonConjugatedSingleBond NonConjugatedSingleBond NonConjugatedSingleBond NonConjugatedSingleBond ConjugatedDoubleBond NonConjugatedSingleBond NonConjugatedSingleBond NonConjugatedSingleBond NonConjugatedSingleBond
M  BCL CHI   1   R   4   R   8   R  17   S  20   R  22   S  25   R  29   S  38   S  42   R  46   R  50   S 185   R 187   S 190   S 192   R 194   R 205   R 207   S 210   R 212   S 214   S
M  BCL DBI - - E E E E E E E E Z - -
M  END
> <ConfClashScore>
0.0122658 

> <ConfOneFourInteractionScore>
-0.980611 

> <ConfScore>
1.2587 

> <ConfScorePBest>
0.00871249 

> <ConfTolerance>
3.16796 

$$$$
L05.****
  PyMOL2.5          3D                             0

230233  0  0  0  0  0  0  0  0999 V2000
   12.3914   -2.2516   -3.1613 C   0  0  0  1  0  0  0  0  0  0  0  0
   11.6807   -1.8955   -2.4451 H   0  0  0  1  0  0  0  0  0  0  0  0
   11.7229   -2.8338   -4.2834 O   0  0  0  1  0  0  0  0  0  0  0  0
   13.1972   -1.0970   -3.7303 C   0  0  0  1  0  0  0  0  0  0  0  0
   14.2084   -1.3952   -3.9134 H   0  0  0  1  0  0  0  0  0  0  0  0
   13.1831    0.0175   -2.8371 O   0  0  0  1  0  0  0  0  0  0  0  0
   14.0848    0.2668   -2.6214 H   0  0  0  1  0  0  0  0  0  0  0  0
   12.4953   -0.7511   -5.0316 C   0  0  0  1  0  0  0  0  0  0  0  0
   12.1216    0.2512   -5.0052 H   0  0  0  1  0  0  0  0  0  0  0  0
   13.3840   -0.8995   -6.1400 O   0  0  0  1  0  0  0  0  0  0  0  0
   12.9674   -0.5549   -6.9332 H   0  0  0  1  0  0  0  0  0  0  0  0
   10.1868   -0.6551   -3.1810 C   0  0  0  1  0  0  0  0  0  0  0  0
    9.9075   -1.4585   -2.5318 H   0  0  0  1  0  0  0  0  0  0  0  0
   11.1897   -0.3523   -2.9634 H   0  0  0  1  0  0  0  0  0  0  0  0
    9.2998    0.4417   -3.0052 O   0  0  0  1  0  0  0  0  0  0  0  0
    9.1013    0.5469   -2.0719 H   0  0  0  1  0  0  0  0  0  0  0  0
   10.0816   -1.1004   -4.6348 C   0  0  0  1  0  0  0  0  0  0  0  0
    9.9137   -0.2238   -5.2249 H   0  0  0  1  0  0  0  0  0  0  0  0
    8.9878   -1.9916   -4.8256 O   0  0  0  1  0  0  0  0  0  0  0  0
   11.3686   -1.7343   -5.1207 C   0  0  0  1  0  0  0  0  0  0  0  0
   11.2451   -2.0642   -6.1311 H   0  0  0  1  0  0  0  0  0  0  0  0
    7.7461   -1.3460   -4.9463 C   0  0  0  1  0  0  0  0  0  0  0  0
    7.6357   -0.6334   -4.1558 H   0  0  0  1  0  0  0  0  0  0  0  0
    7.6356   -0.6997   -6.2276 O   0  0  0  1  0  0  0  0  0  0  0  0
    6.6203   -2.3524   -4.9132 C   0  0  0  1  0  0  0  0  0  0  0  0
    6.3050   -2.5481   -3.9096 H   0  0  0  1  0  0  0  0  0  0  0  0
    7.0033   -3.5777   -5.5403 O   0  0  0  1  0  0  0  0  0  0  0  0
    7.8573   -3.4672   -5.9648 H   0  0  0  1  0  0  0  0  0  0  0  0
    5.5392   -1.6515   -5.6986 C   0  0  0  1  0  0  0  0  0  0  0  0
    4.9854   -0.9820   -5.0740 H   0  0  0  1  0  0  0  0  0  0  0  0
    4.6467   -2.5958   -6.2955 O   0  0  0  1  0  0  0  0  0  0  0  0
    4.4819   -3.3142   -5.6803 H   0  0  0  1  0  0  0  0  0  0  0  0
    6.3569    1.2204   -8.1349 C   0  0  0  1  0  0  0  0  0  0  0  0
    7.3506    1.4667   -7.8237 H   0  0  0  1  0  0  0  0  0  0  0  0
    6.3981    0.6193   -9.0191 H   0  0  0  1  0  0  0  0  0  0  0  0
    5.6378    2.4155   -8.4091 O   0  0  0  1  0  0  0  0  0  0  0  0
    4.7939    2.1967   -8.8109 H   0  0  0  1  0  0  0  0  0  0  0  0
    5.6561    0.4423   -7.0251 C   0  0  0  1  0  0  0  0  0  0  0  0
    4.6418    0.2719   -7.3201 H   0  0  0  1  0  0  0  0  0  0  0  0
    5.6891    1.3012   -5.8859 O   0  0  0  1  0  0  0  0  0  0  0  0
    5.6960    0.7715   -5.0853 H   0  0  0  1  0  0  0  0  0  0  0  0
    6.3107   -0.8916   -6.7569 C   0  0  0  1  0  0  0  0  0  0  0  0
    6.3522   -1.4579   -7.6638 H   0  0  0  1  0  0  0  0  0  0  0  0
   13.2511   -3.2031   -2.5446 O   0  0  0  1  0  0  0  0  0  0  0  0
   19.6404  -10.3427   -0.0432 O   0  0  0  1  0  0  0  0  0  0  0  0
   19.3918  -10.7706   -1.5941 P   0  0  0  1  0  0  0  0  0  0  0  0
   20.8840  -10.3192   -2.0263 O   0  0  0  1  0  0  0  0  0  0  0  0
   18.3886   -9.8752   -2.2118 O   0  0  0  0  0  0  0  0  0  0  0  0
   19.2403  -12.2315   -1.7181 O   0  0  0  1  0  0  0  0  0  0  0  0
   21.2027   -8.8476   -2.5816 P   0  0  0  1  0  0  0  0  0  0  0  0
   20.4312   -7.8822   -1.6075 O   0  0  0  1  0  0  0  0  0  0  0  0
   20.5629   -8.6266   -3.8943 O   0  0  0  0  0  0  0  0  0  0  0  0
   22.6576   -8.6873   -2.4278 O   0  0  0  1  0  0  0  0  0  0  0  0
   20.1959  -11.2328    0.9380 C   0  0  0  1  0  0  0  0  0  0  0  0
   21.1759  -11.5369    0.6350 H   0  0  0  1  0  0  0  0  0  0  0  0
   19.5696  -12.0945    1.0385 H   0  0  0  1  0  0  0  0  0  0  0  0
   20.2743  -10.5093    2.2501 C   0  0  0  1  0  0  0  0  0  0  0  0
   19.9769   -9.5127    2.2485 H   0  0  0  1  0  0  0  0  0  0  0  0
   20.6802  -11.0010    3.4075 C   0  0  0  1  0  0  0  0  0  0  0  0
   20.4367  -10.3363    4.7299 C   0  0  0  1  0  0  0  0  0  0  0  0
   19.4618  -10.5962    5.0862 H   0  0  0  1  0  0  0  0  0  0  0  0
   20.5021   -9.2748    4.6126 H   0  0  0  1  0  0  0  0  0  0  0  0
   21.1726  -10.6639    5.4343 H   0  0  0  1  0  0  0  0  0  0  0  0
   21.3503  -12.3413    3.4817 C   0  0  0  1  0  0  0  0  0  0  0  0
   21.4063  -12.6377    4.5083 H   0  0  0  1  0  0  0  0  0  0  0  0
   22.3386  -12.2505    3.0818 H   0  0  0  1  0  0  0  0  0  0  0  0
   20.6118  -13.4200    2.7063 C   0  0  0  1  0  0  0  0  0  0  0  0
   20.7638  -13.2391    1.6627 H   0  0  0  1  0  0  0  0  0  0  0  0
   19.5699  -13.3364    2.9352 H   0  0  0  1  0  0  0  0  0  0  0  0
   21.0397  -14.8331    2.9997 C   0  0  0  1  0  0  0  0  0  0  0  0
   21.9087  -14.9475    3.5595 H   0  0  0  1  0  0  0  0  0  0  0  0
   20.4251  -15.9547    2.6195 C   0  0  0  1  0  0  0  0  0  0  0  0
   21.1192  -17.2838    2.6904 C   0  0  0  1  0  0  0  0  0  0  0  0
   21.5444  -17.5160    1.7364 H   0  0  0  1  0  0  0  0  0  0  0  0
   20.4128  -18.0410    2.9596 H   0  0  0  1  0  0  0  0  0  0  0  0
   21.8953  -17.2418    3.4258 H   0  0  0  1  0  0  0  0  0  0  0  0
   19.0108  -15.9326    2.1043 C   0  0  0  1  0  0  0  0  0  0  0  0
   18.5045  -15.1103    2.5649 H   0  0  0  1  0  0  0  0  0  0  0  0
   18.5400  -16.8490    2.3931 H   0  0  0  1  0  0  0  0  0  0  0  0
   18.8684  -15.7867    0.5980 C   0  0  0  1  0  0  0  0  0  0  0  0
   19.2713  -14.8388    0.3081 H   0  0  0  1  0  0  0  0  0  0  0  0
   17.8285  -15.8240    0.3490 H   0  0  0  1  0  0  0  0  0  0  0  0
   19.5793  -16.8594   -0.1644 C   0  0  0  1  0  0  0  0  0  0  0  0
   19.3065  -17.8324    0.0812 H   0  0  0  1  0  0  0  0  0  0  0  0
   20.5091  -16.7530   -1.1104 C   0  0  0  1  0  0  0  0  0  0  0  0
   20.8087  -15.4694   -1.8346 C   0  0  0  1  0  0  0  0  0  0  0  0
   21.1428  -14.7380   -1.1286 H   0  0  0  1  0  0  0  0  0  0  0  0
   19.9181  -15.1214   -2.3148 H   0  0  0  1  0  0  0  0  0  0  0  0
   21.2487  -17.9752   -1.5771 C   0  0  0  1  0  0  0  0  0  0  0  0
   21.8686  -18.3415   -0.7856 H   0  0  0  1  0  0  0  0  0  0  0  0
   21.8583  -17.7229   -2.4195 H   0  0  0  1  0  0  0  0  0  0  0  0
   20.5459  -18.7313   -1.8585 H   0  0  0  1  0  0  0  0  0  0  0  0
   21.8896  -15.6811   -2.8821 C   0  0  0  1  0  0  0  0  0  0  0  0
   21.5909  -16.4851   -3.5219 H   0  0  0  1  0  0  0  0  0  0  0  0
   22.8004  -15.9405   -2.3841 H   0  0  0  1  0  0  0  0  0  0  0  0
   22.1371  -14.4615   -3.7289 C   0  0  0  1  0  0  0  0  0  0  0  0
   21.6081  -13.5973   -3.4944 H   0  0  0  1  0  0  0  0  0  0  0  0
   22.9810  -14.4066   -4.7538 C   0  0  0  1  0  0  0  0  0  0  0  0
   23.5674  -15.6207   -5.4168 C   0  0  0  1  0  0  0  0  0  0  0  0
   23.2248  -16.4913   -4.8974 H   0  0  0  1  0  0  0  0  0  0  0  0
   24.6338  -15.5626   -5.3517 H   0  0  0  1  0  0  0  0  0  0  0  0
   23.4216  -13.0968   -5.3390 C   0  0  0  1  0  0  0  0  0  0  0  0
   23.7082  -13.2402   -6.3599 H   0  0  0  1  0  0  0  0  0  0  0  0
   24.2556  -12.7210   -4.7840 H   0  0  0  1  0  0  0  0  0  0  0  0
   22.6150  -12.3954   -5.2904 H   0  0  0  1  0  0  0  0  0  0  0  0
   23.1781  -15.7462   -6.8807 C   0  0  0  1  0  0  0  0  0  0  0  0
   23.5979  -14.9207   -7.4167 H   0  0  0  1  0  0  0  0  0  0  0  0
   22.1111  -15.7137   -6.9533 H   0  0  0  1  0  0  0  0  0  0  0  0
   23.6622  -17.0226   -7.5118 C   0  0  0  1  0  0  0  0  0  0  0  0
   23.3676  -17.9183   -7.0730 H   0  0  0  1  0  0  0  0  0  0  0  0
   24.4383  -17.0913   -8.5881 C   0  0  0  1  0  0  0  0  0  0  0  0
   24.6820  -15.9355   -9.5144 C   0  0  0  1  0  0  0  0  0  0  0  0
   25.1358  -16.3063  -10.4096 H   0  0  0  1  0  0  0  0  0  0  0  0
   25.3477  -15.2489   -9.0344 H   0  0  0  1  0  0  0  0  0  0  0  0
   25.1467  -18.3614   -8.9671 C   0  0  0  1  0  0  0  0  0  0  0  0
   26.2036  -18.2216   -8.8764 H   0  0  0  1  0  0  0  0  0  0  0  0
   24.9062  -18.6155   -9.9782 H   0  0  0  1  0  0  0  0  0  0  0  0
   24.8346  -19.1514   -8.3164 H   0  0  0  1  0  0  0  0  0  0  0  0
   23.4091  -15.1938   -9.8886 C   0  0  0  1  0  0  0  0  0  0  0  0
   22.9786  -14.7854   -8.9983 H   0  0  0  1  0  0  0  0  0  0  0  0
   22.7262  -15.8900  -10.3288 H   0  0  0  1  0  0  0  0  0  0  0  0
   23.6436  -14.0811  -10.8569 C   0  0  0  1  0  0  0  0  0  0  0  0
   24.4025  -13.3999  -10.6530 H   0  0  0  1  0  0  0  0  0  0  0  0
   22.9308  -13.9187  -11.9652 C   0  0  0  1  0  0  0  0  0  0  0  0
   22.0548  -15.0195  -12.5009 C   0  0  0  1  0  0  0  0  0  0  0  0
   22.1413  -15.8682  -11.8551 H   0  0  0  1  0  0  0  0  0  0  0  0
   22.3962  -15.2800  -13.4809 H   0  0  0  1  0  0  0  0  0  0  0  0
   22.9224  -12.6576  -12.7786 C   0  0  0  1  0  0  0  0  0  0  0  0
   22.1017  -12.6805  -13.4647 H   0  0  0  1  0  0  0  0  0  0  0  0
   23.8401  -12.5786  -13.3231 H   0  0  0  1  0  0  0  0  0  0  0  0
   22.8195  -11.8145  -12.1278 H   0  0  0  1  0  0  0  0  0  0  0  0
   20.5894  -14.6252  -12.5880 C   0  0  0  1  0  0  0  0  0  0  0  0
   20.0048  -15.5126  -12.7127 H   0  0  0  1  0  0  0  0  0  0  0  0
   20.4580  -13.9885  -13.4379 H   0  0  0  1  0  0  0  0  0  0  0  0
   20.1008  -13.8975  -11.3642 C   0  0  0  1  0  0  0  0  0  0  0  0
   20.3320  -14.3276  -10.4459 H   0  0  0  1  0  0  0  0  0  0  0  0
   19.4067  -12.7663  -11.3299 C   0  0  0  1  0  0  0  0  0  0  0  0
   19.0982  -12.0014  -12.5841 C   0  0  0  1  0  0  0  0  0  0  0  0
   18.0401  -11.8526  -12.6407 H   0  0  0  1  0  0  0  0  0  0  0  0
   19.4230  -12.5793  -13.4240 H   0  0  0  1  0  0  0  0  0  0  0  0
   18.8713  -12.1485  -10.0688 C   0  0  0  1  0  0  0  0  0  0  0  0
   17.8255  -11.9531  -10.1829 H   0  0  0  1  0  0  0  0  0  0  0  0
   19.3863  -11.2308   -9.8750 H   0  0  0  1  0  0  0  0  0  0  0  0
   19.0210  -12.8217   -9.2507 H   0  0  0  1  0  0  0  0  0  0  0  0
   19.7810  -10.6445  -12.6372 C   0  0  0  1  0  0  0  0  0  0  0  0
   20.8302  -10.8079  -12.7694 H   0  0  0  1  0  0  0  0  0  0  0  0
   19.6112  -10.1526  -11.7023 H   0  0  0  1  0  0  0  0  0  0  0  0
   19.3154   -9.7357  -13.7272 C   0  0  0  1  0  0  0  0  0  0  0  0
   18.7535  -10.1412  -14.5027 H   0  0  0  1  0  0  0  0  0  0  0  0
   19.5838   -8.4346  -13.7548 C   0  0  0  1  0  0  0  0  0  0  0  0
   20.6319   -7.7812  -12.8993 C   0  0  0  1  0  0  0  0  0  0  0  0
   20.7426   -8.3519  -12.0010 H   0  0  0  1  0  0  0  0  0  0  0  0
   20.3047   -6.7919  -12.6559 H   0  0  0  1  0  0  0  0  0  0  0  0
   18.8423   -7.4991  -14.6642 C   0  0  0  1  0  0  0  0  0  0  0  0
   19.4471   -6.6388  -14.8617 H   0  0  0  1  0  0  0  0  0  0  0  0
   17.9306   -7.1936  -14.1948 H   0  0  0  1  0  0  0  0  0  0  0  0
   18.6205   -7.9977  -15.5846 H   0  0  0  1  0  0  0  0  0  0  0  0
   21.9860   -7.6883  -13.5834 C   0  0  0  1  0  0  0  0  0  0  0  0
   21.8313   -7.4385  -14.6123 H   0  0  0  1  0  0  0  0  0  0  0  0
   22.4679   -8.6412  -13.5157 H   0  0  0  1  0  0  0  0  0  0  0  0
   22.8872   -6.6509  -12.9689 C   0  0  0  1  0  0  0  0  0  0  0  0
   23.4055   -6.9353  -12.1133 H   0  0  0  1  0  0  0  0  0  0  0  0
   23.0922   -5.4123  -13.4007 C   0  0  0  1  0  0  0  0  0  0  0  0
   24.0270   -4.4783  -12.6825 C   0  0  0  1  0  0  0  0  0  0  0  0
   23.4550   -3.6719  -12.2734 H   0  0  0  1  0  0  0  0  0  0  0  0
   24.7328   -4.0933  -13.3886 H   0  0  0  1  0  0  0  0  0  0  0  0
   22.4325   -4.8288  -14.6157 C   0  0  0  1  0  0  0  0  0  0  0  0
   21.5835   -5.4513  -14.8069 H   0  0  0  1  0  0  0  0  0  0  0  0
   23.1031   -4.8450  -15.4493 H   0  0  0  1  0  0  0  0  0  0  0  0
   22.1229   -3.8223  -14.4260 H   0  0  0  1  0  0  0  0  0  0  0  0
   24.7903   -5.1515  -11.5535 C   0  0  0  1  0  0  0  0  0  0  0  0
   25.4373   -5.8984  -11.9640 H   0  0  0  1  0  0  0  0  0  0  0  0
   24.0934   -5.6113  -10.8843 H   0  0  0  1  0  0  0  0  0  0  0  0
   25.6099   -4.1537  -10.7986 C   0  0  0  1  0  0  0  0  0  0  0  0
   25.6129   -3.1816  -11.1682 H   0  0  0  1  0  0  0  0  0  0  0  0
   26.3345   -4.3746   -9.7070 C   0  0  0  1  0  0  0  0  0  0  0  0
   26.4466   -5.7153   -9.0379 C   0  0  0  1  0  0  0  0  0  0  0  0
   27.4136   -6.1310   -9.2308 H   0  0  0  1  0  0  0  0  0  0  0  0
   25.6937   -6.3703   -9.4239 H   0  0  0  1  0  0  0  0  0  0  0  0
   26.3125   -5.5994   -7.9827 H   0  0  0  1  0  0  0  0  0  0  0  0
   27.1131   -3.2754   -9.0455 C   0  0  0  1  0  0  0  0  0  0  0  0
   27.0454   -3.4274   -7.9885 H   0  0  0  1  0  0  0  0  0  0  0  0
   26.6969   -2.3247   -9.3058 H   0  0  0  1  0  0  0  0  0  0  0  0
   28.1364   -3.3143   -9.3558 H   0  0  0  1  0  0  0  0  0  0  0  0
   15.9567   -5.1483   -1.4855 C   0  0  0  1  0  0  0  0  0  0  0  0
   16.0428   -5.6714   -0.5561 H   0  0  0  1  0  0  0  0  0  0  0  0
   14.8278   -5.7363   -2.2932 C   0  0  0  1  0  0  0  0  0  0  0  0
   15.0723   -6.7442   -2.5562 H   0  0  0  1  0  0  0  0  0  0  0  0
   15.6825   -3.7719   -1.2350 O   0  0  0  1  0  0  0  0  0  0  0  0
   14.5974   -4.9297   -3.5651 C   0  0  0  1  0  0  0  0  0  0  0  0
   13.6991   -5.2712   -4.0356 H   0  0  0  1  0  0  0  0  0  0  0  0
   15.6399   -2.9672   -2.4281 C   0  0  0  1  0  0  0  0  0  0  0  0
   16.5486   -3.0875   -2.9801 H   0  0  0  1  0  0  0  0  0  0  0  0
   14.4639   -3.4343   -3.2637 C   0  0  0  1  0  0  0  0  0  0  0  0
   14.4435   -2.8879   -4.1834 H   0  0  0  1  0  0  0  0  0  0  0  0
   17.1745   -5.2669   -2.2119 O   0  0  0  1  0  0  0  0  0  0  0  0
   13.6341   -5.7244   -1.5081 O   0  0  0  1  0  0  0  0  0  0  0  0
   13.0883   -4.9780   -1.7661 H   0  0  0  1  0  0  0  0  0  0  0  0
   15.6966   -5.1274   -4.4424 O   0  0  0  1  0  0  0  0  0  0  0  0
   15.8085   -6.0661   -4.6094 H   0  0  0  1  0  0  0  0  0  0  0  0
   15.4625   -1.5139   -2.0602 C   0  0  0  1  0  0  0  0  0  0  0  0
   16.1268   -0.9135   -2.6460 H   0  0  0  1  0  0  0  0  0  0  0  0
   15.6828   -1.3796   -1.0218 H   0  0  0  1  0  0  0  0  0  0  0  0
   14.4522   -1.2185   -2.2522 H   0  0  0  1  0  0  0  0  0  0  0  0
   19.6708   -6.7773   -2.1166 C   0  0  0  1  0  0  0  0  0  0  0  0
   18.8934   -7.1426   -2.7546 H   0  0  0  1  0  0  0  0  0  0  0  0
   19.0632   -6.0156   -0.9705 C   0  0  0  1  0  0  0  0  0  0  0  0
   19.8391   -5.6899   -0.3097 H   0  0  0  1  0  0  0  0  0  0  0  0
   20.5207   -5.9185   -2.8523 O   0  0  0  1  0  0  0  0  0  0  0  0
   18.3182   -4.8208   -1.4910 C   0  0  0  1  0  0  0  0  0  0  0  0
   18.0063   -4.2181   -0.6638 H   0  0  0  1  0  0  0  0  0  0  0  0
   19.7767   -4.8655   -3.4909 C   0  0  0  1  0  0  0  0  0  0  0  0
   20.4280   -4.2860   -4.1113 H   0  0  0  1  0  0  0  0  0  0  0  0
   19.1817   -3.9865   -2.4081 C   0  0  0  1  0  0  0  0  0  0  0  0
   18.5851   -3.2214   -2.8594 H   0  0  0  1  0  0  0  0  0  0  0  0
   18.1427   -6.8818   -0.2492 N   0  0  0  1  0  0  0  0  0  0  0  0
   17.1876   -6.7183   -0.3954 H   0  0  0  1  0  0  0  0  0  0  0  0
   20.2314   -3.3884   -1.6548 O   0  0  0  1  0  0  0  0  0  0  0  0
   20.7355   -4.1096   -1.2712 H   0  0  0  1  0  0  0  0  0  0  0  0
   18.6874   -5.4495   -4.3223 C   0  0  0  1  0  0  0  0  0  0  0  0
   19.0855   -5.6623   -5.2924 H   0  0  0  1  0  0  0  0  0  0  0  0
   17.9068   -4.7227   -4.4081 H   0  0  0  1  0  0  0  0  0  0  0  0
   18.1275   -6.6378   -3.8059 O   0  0  0  1  0  0  0  0  0  0  0  0
   18.4013   -7.3672   -4.3669 H   0  0  0  1  0  0  0  0  0  0  0  0
   18.4522   -7.8759    0.5908 C   0  0  0  1  0  0  0  0  0  0  0  0
   19.6086   -8.2125    0.8314 O   0  0  0  1  0  0  0  0  0  0  0  0
   17.2767   -8.5780    1.2422 C   0  0  0  1  0  0  0  0  0  0  0  0
   17.0841   -9.4186    0.6087 H   0  0  0  1  0  0  0  0  0  0  0  0
   16.4249   -7.9317    1.2826 H   0  0  0  1  0  0  0  0  0  0  0  0
   17.5285   -8.8993    2.2312 H   0  0  0  1  0  0  0  0  0  0  0  0
  1  2  1  0  0  0  0
  1  3  1  0  0  0  0
  1  4  1  0  0  0  0
  1 44  1  0  0  0  0
  3 20  1  0  0  0  0
  4  5  1  0  0  0  0
  4  6  1  0  0  0  0
  4  8  1  0  0  0  0
  6  7  1  0  0  0  0
  8  9  1  0  0  0  0
  8 10  1  0  0  0  0
  8 20  1  0  0  0  0
 10 11  1  0  0  0  0
 12 13  1  0  0  0  0
 12 14  1  0  0  0  0
 12 15  1  0  0  0  0
 12 17  1  0  0  0  0
 15 16  1  0  0  0  0
 17 18  1  0  0  0  0
 17 19  1  0  0  0  0
 17 20  1  0  0  0  0
 19 22  1  0  0  0  0
 20 21  1  0  0  0  0
 22 23  1  0  0  0  0
 22 24  1  0  0  0  0
 22 25  1  0  0  0  0
 24 42  1  0  0  0  0
 25 26  1  0  0  0  0
 25 27  1  0  0  0  0
 25 29  1  0  0  0  0
 27 28  1  0  0  0  0
 29 30  1  0  0  0  0
 29 31  1  0  0  0  0
 29 42  1  0  0  0  0
 31 32  1  0  0  0  0
 33 34  1  0  0  0  0
 33 35  1  0  0  0  0
 33 36  1  0  0  0  0
 33 38  1  0  0  0  0
 36 37  1  0  0  0  0
 38 39  1  0  0  0  0
 38 40  1  0  0  0  0
 38 42  1  0  0  0  0
 40 41  1  0  0  0  0
 42 43  1  0  0  0  0
 44194  1  0  0  0  0
 45 46  1  0  0  0  0
 45 54  1  0  0  0  0
 46 47  1  0  0  0  0
 46 48  1  0  0  0  0
 46 49  2  0  0  0  0
 47 50  1  0  0  0  0
 50 51  1  0  0  0  0
 50 52  1  0  0  0  0
 50 53  2  0  0  0  0
 51205  1  0  0  0  0
 54 55  1  0  0  0  0
 54 56  1  0  0  0  0
 54 57  1  0  0  0  0
 57 58  1  0  0  0  0
 57 59  2  0  0  0  0
 59 60  1  0  0  0  0
 59 64  1  0  0  0  0
 60 61  1  0  0  0  0
 60 62  1  0  0  0  0
 60 63  1  0  0  0  0
 64 65  1  0  0  0  0
 64 66  1  0  0  0  0
 64 67  1  0  0  0  0
 67 68  1  0  0  0  0
 67 69  1  0  0  0  0
 67 70  1  0  0  0  0
 70 71  1  0  0  0  0
 70 72  2  0  0  0  0
 72 73  1  0  0  0  0
 72 77  1  0  0  0  0
 73 74  1  0  0  0  0
 73 75  1  0  0  0  0
 73 76  1  0  0  0  0
 77 78  1  0  0  0  0
 77 79  1  0  0  0  0
 77 80  1  0  0  0  0
 80 81  1  0  0  0  0
 80 82  1  0  0  0  0
 80 83  1  0  0  0  0
 83 84  1  0  0  0  0
 83 85  2  0  0  0  0
 85 86  1  0  0  0  0
 85 89  1  0  0  0  0
 86 87  1  0  0  0  0
 86 88  1  0  0  0  0
 86 93  1  0  0  0  0
 89 90  1  0  0  0  0
 89 91  1  0  0  0  0
 89 92  1  0  0  0  0
 93 94  1  0  0  0  0
 93 95  1  0  0  0  0
 93 96  1  0  0  0  0
 96 97  1  0  0  0  0
 96 98  2  0  0  0  0
 98 99  1  0  0  0  0
 98102  1  0  0  0  0
 99100  1  0  0  0  0
 99101  1  0  0  0  0
 99106  1  0  0  0  0
102103  1  0  0  0  0
102104  1  0  0  0  0
102105  1  0  0  0  0
106107  1  0  0  0  0
106108  1  0  0  0  0
106109  1  0  0  0  0
109110  1  0  0  0  0
109111  2  0  0  0  0
111112  1  0  0  0  0
111115  1  0  0  0  0
112113  1  0  0  0  0
112114  1  0  0  0  0
112119  1  0  0  0  0
115116  1  0  0  0  0
115117  1  0  0  0  0
115118  1  0  0  0  0
119120  1  0  0  0  0
119121  1  0  0  0  0
119122  1  0  0  0  0
122123  1  0  0  0  0
122124  2  0  0  0  0
124125  1  0  0  0  0
124128  1  0  0  0  0
125126  1  0  0  0  0
125127  1  0  0  0  0
125132  1  0  0  0  0
128129  1  0  0  0  0
128130  1  0  0  0  0
128131  1  0  0  0  0
132133  1  0  0  0  0
132134  1  0  0  0  0
132135  1  0  0  0  0
135136  1  0  0  0  0
135137  2  0  0  0  0
137138  1  0  0  0  0
137141  1  0  0  0  0
138139  1  0  0  0  0
138140  1  0  0  0  0
138145  1  0  0  0  0
141142  1  0  0  0  0
141143  1  0  0  0  0
141144  1  0  0  0  0
145146  1  0  0  0  0
145147  1  0  0  0  0
145148  1  0  0  0  0
148149  1  0  0  0  0
148150  2  0  0  0  0
150151  1  0  0  0  0
150154  1  0  0  0  0
151152  1  0  0  0  0
151153  1  0  0  0  0
151158  1  0  0  0  0
154155  1  0  0  0  0
154156  1  0  0  0  0
154157  1  0  0  0  0
158159  1  0  0  0  0
158160  1  0  0  0  0
158161  1  0  0  0  0
161162  1  0  0  0  0
161163  2  0  0  0  0
163164  1  0  0  0  0
163167  1  0  0  0  0
164165  1  0  0  0  0
164166  1  0  0  0  0
164171  1  0  0  0  0
167168  1  0  0  0  0
167169  1  0  0  0  0
167170  1  0  0  0  0
171172  1  0  0  0  0
171173  1  0  0  0  0
171174  1  0  0  0  0
174175  1  0  0  0  0
174176  2  0  0  0  0
176177  1  0  0  0  0
176181  1  0  0  0  0
177178  1  0  0  0  0
177179  1  0  0  0  0
177180  1  0  0  0  0
181182  1  0  0  0  0
181183  1  0  0  0  0
181184  1  0  0  0  0
185186  1  0  0  0  0
185187  1  0  0  0  0
185189  1  0  0  0  0
185196  1  0  0  0  0
187188  1  0  0  0  0
187190  1  0  0  0  0
187197  1  0  0  0  0
189192  1  0  0  0  0
190191  1  0  0  0  0
190194  1  0  0  0  0
190199  1  0  0  0  0
192193  1  0  0  0  0
192194  1  0  0  0  0
192201  1  0  0  0  0
194195  1  0  0  0  0
196210  1  0  0  0  0
197198  1  0  0  0  0
199200  1  0  0  0  0
201202  1  0  0  0  0
201203  1  0  0  0  0
201204  1  0  0  0  0
205206  1  0  0  0  0
205207  1  0  0  0  0
205209  1  0  0  0  0
207208  1  0  0  0  0
207210  1  0  0  0  0
207216  1  0  0  0  0
209212  1  0  0  0  0
210211  1  0  0  0  0
210214  1  0  0  0  0
212213  1  0  0  0  0
212214  1  0  0  0  0
212220  1  0  0  0  0
214215  1  0  0  0  0
214218  1  0  0  0  0
216217  1  0  0  0  0
216225  1  0  0  0  0
218219  1  0  0  0  0
220221  1  0  0  0  0
220222  1  0  0  0  0
220223  1  0  0  0  0
223224  1  0  0  0  0
225226  2  0  0  0  0
225227  1  0  0  0  0
227228  1  0  0  0  0
227229  1  0  0  0  0
227230  1  0  0  0  0
M  BCL ATM C_TeTeTeTe H_S O_Te2Te2TeTe C_TeTeTeTe H_S O_Te2Te2TeTe H_S C_TeTeTeTe H_S O_Te2Te2TeTe H_S C_TeTeTeTe H_S H_S O_Te2Te2TeTe H_S C_TeTeTeTe H_S O_Te2Te2TeTe C_TeTeTeTe H_S C_TeTeTeTe H_S O_Te2Te2TeTe C_TeTeTeTe H_S O_Te2Te2TeTe H_S C_TeTeTeTe H_S O_Te2Te2TeTe H_S C_TeTeTeTe H_S H_S O_Te2Te2TeTe H_S C_TeTeTeTe H_S O_Te2Te2TeTe H_S C_TeTeTeTe H_S O_Te2Te2TeTe O_Tr2TrTrPi2 P_TeTeTeTePi O_Tr2TrTrPi2 O_Te2Te2TeTe O_Tr2Tr2TrPi P_TeTeTeTePi O_Tr2TrTrPi2 O_Te2Te2TeTe O_Tr2Tr2TrPi C_TeTeTeTe H_S H_S C_TrTrTrPi H_S C_TrTrTrPi C_TeTeTeTe H_S H_S H_S C_TeTeTeTe H_S H_S C_TeTeTeTe H_S H_S C_TrTrTrPi H_S C_TrTrTrPi C_TeTeTeTe H_S H_S H_S C_TeTeTeTe H_S H_S C_TeTeTeTe H_S H_S C_TrTrTrPi H_S C_TrTrTrPi C_TeTeTeTe H_S H_S C_TeTeTeTe H_S H_S H_S C_TeTeTeTe H_S H_S C_TrTrTrPi H_S C_TrTrTrPi C_TeTeTeTe H_S H_S C_TeTeTeTe H_S H_S H_S C_TeTeTeTe H_S H_S C_TrTrTrPi H_S C_TrTrTrPi C_TeTeTeTe H_S H_S C_TeTeTeTe H_S H_S H_S C_TeTeTeTe H_S H_S C_TrTrTrPi H_S C_TrTrTrPi C_TeTeTeTe H_S H_S C_TeTeTeTe H_S H_S H_S C_TeTeTeTe H_S H_S C_TrTrTrPi H_S C_TrTrTrPi C_TeTeTeTe H_S H_S C_TeTeTeTe H_S H_S H_S C_TeTeTeTe H_S H_S C_TrTrTrPi H_S C_TrTrTrPi C_TeTeTeTe H_S H_S C_TeTeTeTe H_S H_S H_S C_TeTeTeTe H_S H_S C_TrTrTrPi H_S C_TrTrTrPi C_TeTeTeTe H_S H_S C_TeTeTeTe H_S H_S H_S C_TeTeTeTe H_S H_S C_TrTrTrPi H_S C_TrTrTrPi C_TeTeTeTe H_S H_S H_S C_TeTeTeTe H_S H_S H_S C_TeTeTeTe H_S C_TeTeTeTe H_S O_Te2Te2TeTe C_TeTeTeTe H_S C_TeTeTeTe H_S C_TeTeTeTe H_S O_Te2Te2TeTe O_Te2Te2TeTe H_S O_Te2Te2TeTe H_S C_TeTeTeTe H_S H_S H_S C_TeTeTeTe H_S C_TeTeTeTe H_S O_Te2Te2TeTe C_TeTeTeTe H_S C_TeTeTeTe H_S C_TeTeTeTe H_S N_TrTrTrPi2 H_S O_Te2Te2TeTe H_S C_TeTeTeTe H_S H_S O_Te2Te2TeTe H_S C_TrTrTrPi O_Tr2Tr2TrPi C_TeTeTeTe H_S H_S H_S
M  BCL BND NonConjugatedSingleBond NonConjugatedSingleBondInRing NonConjugatedSingleBondInRing NonConjugatedSingleBond NonConjugatedSingleBondInRing NonConjugatedSingleBond NonConjugatedSingleBond NonConjugatedSingleBondInRing NonConjugatedSingleBond NonConjugatedSingleBond NonConjugatedSingleBond NonConjugatedSingleBondInRing NonConjugatedSingleBond NonConjugatedSingleBond NonConjugatedSingleBond NonConjugatedSingleBond NonConjugatedSingleBond NonConjugatedSingleBond NonConjugatedSingleBond NonConjugatedSingleBond NonConjugatedSingleBond NonConjugatedSingleBond NonConjugatedSingleBond NonConjugatedSingleBond NonConjugatedSingleBondInRing NonConjugatedSingleBondInRing NonConjugatedSingleBondInRing NonConjugatedSingleBond NonConjugatedSingleBond NonConjugatedSingleBondInRing NonConjugatedSingleBond NonConjugatedSingleBond NonConjugatedSingleBond NonConjugatedSingleBondInRing NonConjugatedSingleBond NonConjugatedSingleBond NonConjugatedSingleBond NonConjugatedSingleBond NonConjugatedSingleBond NonConjugatedSingleBond NonConjugatedSingleBond NonConjugatedSingleBond NonConjugatedSingleBond NonConjugatedSingleBond NonConjugatedSingleBond NonConjugatedSingleBond ConjugatedSingleBond NonConjugatedSingleBond ConjugatedSingleBond ConjugatedSingleBond ConjugatedDoubleBond ConjugatedSingleBond ConjugatedSingleBond ConjugatedSingleBond ConjugatedDoubleBond NonConjugatedSingleBond NonConjugatedSingleBond NonConjugatedSingleBond NonConjugatedSingleBond NonConjugatedSingleBond ConjugatedDoubleBond NonConjugatedSingleBond NonConjugatedSingleBond NonConjugatedSingleBond NonConjugatedSingleBond NonConjugatedSingleBond NonConjugatedSingleBond NonConjugatedSingleBond NonConjugatedSingleBond NonConjugatedSingleBond NonConjugatedSingleBond NonConjugatedSingleBond NonConjugatedSingleBond ConjugatedDoubleBond NonConjugatedSingleBond NonConjugatedSingleBond NonConjugatedSingleBond NonConjugatedSingleBond NonConjugatedSingleBond NonConjugatedSingleBond NonConjugatedSingleBond NonConjugatedSingleBond NonConjugatedSingleBond NonConjugatedSingleBond NonConjugatedSingleBond NonConjugatedSingleBond ConjugatedDoubleBond NonConjugatedSingleBond NonConjugatedSingleBond NonConjugatedSingleBond NonConjugatedSingleBond NonConjugatedSingleBond NonConjugatedSingleBond NonConjugatedSingleBond NonConjugatedSingleBond NonConjugatedSingleBond NonConjugatedSingleBond NonConjugatedSingleBond NonConjugatedSingleBond ConjugatedDoubleBond NonConjugatedSingleBond NonConjugatedSingleBond NonConjugatedSingleBond NonConjugatedSingleBond NonConjugatedSingleBond NonConjugatedSingleBond NonConjugatedSingleBond NonConjugatedSingleBond NonConjugatedSingleBond NonConjugatedSingleBond NonConjugatedSingleBond NonConjugatedSingleBond ConjugatedDoubleBond NonConjugatedSingleBond NonConjugatedSingleBond NonConjugatedSingleBond NonConjugatedSingleBond NonConjugatedSingleBond NonConjugatedSingleBond NonConjugatedSingleBond NonConjugatedSingleBond NonConjugatedSingleBond NonConjugatedSingleBond NonConjugatedSingleBond NonConjugatedSingleBond ConjugatedDoubleBond NonConjugatedSingleBond NonConjugatedSingleBond NonConjugatedSingleBond NonConjugatedSingleBond NonConjugatedSingleBond NonConjugatedSingleBond NonConjugatedSingleBond NonConjugatedSingleBond NonConjugatedSingleBond NonConjugatedSingleBond NonConjugatedSingleBond NonConjugatedSingleBond ConjugatedDoubleBond NonConjugatedSingleBond NonConjugatedSingleBond NonConjugatedSingleBond NonConjugatedSingleBond NonConjugatedSingleBond NonConjugatedSingleBond NonConjugatedSingleBond NonConjugatedSingleBond NonConjugatedSingleBond NonConjugatedSingleBond NonConjugatedSingleBond NonConjugatedSingleBond ConjugatedDoubleBond NonConjugatedSingleBond NonConjugatedSingleBond NonConjugatedSingleBond NonConjugatedSingleBond NonConjugatedSingleBond NonConjugatedSingleBond NonConjugatedSingleBond NonConjugatedSingleBond NonConjugatedSingleBond NonConjugatedSingleBond NonConjugatedSingleBond NonConjugatedSingleBond ConjugatedDoubleBond NonConjugatedSingleBond NonConjugatedSingleBond NonConjugatedSingleBond NonConjugatedSingleBond NonConjugatedSingleBond NonConjugatedSingleBond NonConjugatedSingleBond NonConjugatedSingleBond NonConjugatedSingleBond NonConjugatedSingleBond NonConjugatedSingleBond NonConjugatedSingleBond ConjugatedDoubleBond NonConjugatedSingleBond NonConjugatedSingleBond NonConjugatedSingleBond NonConjugatedSingleBond NonConjugatedSingleBond NonConjugatedSingleBond NonConjugatedSingleBond NonConjugatedSingleBond NonConjugatedSingleBond NonConjugatedSingleBondInRing NonConjugatedSingleBondInRing NonConjugatedSingleBond NonConjugatedSingleBond NonConjugatedSingleBondInRing NonConjugatedSingleBond NonConjugatedSingleBondInRing NonConjugatedSingleBond NonConjugatedSingleBondInRing NonConjugatedSingleBond NonConjugatedSingleBond NonConjugatedSingleBondInRing NonConjugatedSingleBond NonConjugatedSingleBond NonConjugatedSingleBond NonConjugatedSingleBond NonConjugatedSingleBond NonConjugatedSingleBond NonConjugatedSingleBond NonConjugatedSingleBond NonConjugatedSingleBond NonConjugatedSingleBondInRing NonConjugatedSingleBondInRing NonConjugatedSingleBond NonConjugatedSingleBondInRing NonConjugatedSingleBond NonConjugatedSingleBondInRing NonConjugatedSingleBond NonConjugatedSingleBondInRing NonConjugatedSingleBond NonConjugatedSingleBondInRing NonConjugatedSingleBond NonConjugatedSingleBond NonConjugatedSingleBond NonConjugatedSingleBond AmideSingleBond NonConjugatedSingleBond NonConjugatedSingleBond NonConjugatedSingleBond NonConjugatedSingleBond NonConjugatedSingleBond ConjugatedDoubleBond NonConjugatedSingleBond NonConjugatedSingleBond NonConjugatedSingleBond NonConjugatedSingleBond
M  BCL CHI   1   R   4   R   8   R  17   S  20   R  22   S  25   R  29   S  38   S  42   R  46   R  50   S 185   R 187   S 190   S 192   R 194   R 205   R 207   S 210   R 212   S 214   S
M  BCL DBI - - E E E E E E E E Z - -
M  END
> <ConfClashScore>
0.0118253 

> <ConfOneFourInteractionScore>
-0.969088 

> <ConfScore>
1.32069 

> <ConfScorePBest>
0.00860949 

> <ConfTolerance>
3.27286 

$$$$
L05.****
  PyMOL2.5          3D                             0

230233  0  0  0  0  0  0  0  0999 V2000
   11.9677   -3.4265   -2.5678 C   0  0  0  1  0  0  0  0  0  0  0  0
   11.9384   -4.3368   -3.1295 H   0  0  0  1  0  0  0  0  0  0  0  0
   11.5723   -2.3406   -3.3612 O   0  0  0  1  0  0  0  0  0  0  0  0
   10.9390   -3.4572   -1.4282 C   0  0  0  1  0  0  0  0  0  0  0  0
   11.3552   -3.8942   -0.5445 H   0  0  0  1  0  0  0  0  0  0  0  0
    9.7665   -4.1804   -1.8114 O   0  0  0  1  0  0  0  0  0  0  0  0
    9.0773   -4.0432   -1.1573 H   0  0  0  1  0  0  0  0  0  0  0  0
   10.6327   -1.9974   -1.2196 C   0  0  0  1  0  0  0  0  0  0  0  0
    9.6488   -1.8649   -0.8206 H   0  0  0  1  0  0  0  0  0  0  0  0
   11.5871   -1.3935   -0.3451 O   0  0  0  1  0  0  0  0  0  0  0  0
   12.2436   -0.9224   -0.8634 H   0  0  0  1  0  0  0  0  0  0  0  0
    8.2947   -0.7088   -2.3620 C   0  0  0  1  0  0  0  0  0  0  0  0
    8.7281    0.0371   -1.7290 H   0  0  0  1  0  0  0  0  0  0  0  0
    7.5097   -0.2720   -2.9431 H   0  0  0  1  0  0  0  0  0  0  0  0
    7.7903   -1.8035   -1.5771 O   0  0  0  1  0  0  0  0  0  0  0  0
    6.8981   -1.6036   -1.2844 H   0  0  0  1  0  0  0  0  0  0  0  0
    9.3578   -1.3198   -3.2733 C   0  0  0  1  0  0  0  0  0  0  0  0
    9.4543   -0.6642   -4.1134 H   0  0  0  1  0  0  0  0  0  0  0  0
    8.9438   -2.5922   -3.7571 O   0  0  0  1  0  0  0  0  0  0  0  0
   10.7359   -1.4143   -2.6321 C   0  0  0  1  0  0  0  0  0  0  0  0
   11.1849   -0.4434   -2.6058 H   0  0  0  1  0  0  0  0  0  0  0  0
    7.8186   -3.0647   -3.0728 C   0  0  0  1  0  0  0  0  0  0  0  0
    7.9016   -2.8174   -2.0351 H   0  0  0  1  0  0  0  0  0  0  0  0
    6.6108   -2.5023   -3.6333 O   0  0  0  1  0  0  0  0  0  0  0  0
    7.6750   -4.5786   -3.2549 C   0  0  0  1  0  0  0  0  0  0  0  0
    8.0601   -5.1054   -2.4068 H   0  0  0  1  0  0  0  0  0  0  0  0
    8.3480   -5.0188   -4.4354 O   0  0  0  1  0  0  0  0  0  0  0  0
    9.0072   -5.6765   -4.2022 H   0  0  0  1  0  0  0  0  0  0  0  0
    6.1861   -4.7693   -3.3789 C   0  0  0  1  0  0  0  0  0  0  0  0
    5.7250   -4.8420   -2.4162 H   0  0  0  1  0  0  0  0  0  0  0  0
    5.8791   -5.9324   -4.1423 O   0  0  0  1  0  0  0  0  0  0  0  0
    6.0724   -5.7682   -5.0682 H   0  0  0  1  0  0  0  0  0  0  0  0
    3.3217   -3.8240   -4.7206 C   0  0  0  1  0  0  0  0  0  0  0  0
    3.2884   -3.2807   -5.6419 H   0  0  0  1  0  0  0  0  0  0  0  0
    3.6348   -4.8294   -4.9100 H   0  0  0  1  0  0  0  0  0  0  0  0
    2.0290   -3.8350   -4.1322 O   0  0  0  1  0  0  0  0  0  0  0  0
    1.7400   -4.7423   -4.0106 H   0  0  0  1  0  0  0  0  0  0  0  0
    4.3090   -3.1565   -3.7755 C   0  0  0  1  0  0  0  0  0  0  0  0
    4.1082   -3.5037   -2.7835 H   0  0  0  1  0  0  0  0  0  0  0  0
    4.2251   -1.7388   -3.8080 O   0  0  0  1  0  0  0  0  0  0  0  0
    4.7267   -1.4052   -4.5555 H   0  0  0  1  0  0  0  0  0  0  0  0
    5.7426   -3.4941   -4.1103 C   0  0  0  1  0  0  0  0  0  0  0  0
    5.8444   -3.6096   -5.1692 H   0  0  0  1  0  0  0  0  0  0  0  0
   13.2811   -3.2256   -2.0564 O   0  0  0  1  0  0  0  0  0  0  0  0
   16.6320  -11.1622   -3.1410 O   0  0  0  1  0  0  0  0  0  0  0  0
   18.1294  -11.2548   -2.5937 P   0  0  0  1  0  0  0  0  0  0  0  0
   18.6998   -9.7545   -2.7955 O   0  0  0  1  0  0  0  0  0  0  0  0
   18.7662  -12.2261   -3.5110 O   0  0  0  0  0  0  0  0  0  0  0  0
   18.1643  -11.4580   -1.1373 O   0  0  0  1  0  0  0  0  0  0  0  0
   19.9794   -9.4467   -3.7044 P   0  0  0  1  0  0  0  0  0  0  0  0
   20.3268   -7.9682   -3.3056 O   0  0  0  1  0  0  0  0  0  0  0  0
   19.5107   -9.4957   -5.1109 O   0  0  0  0  0  0  0  0  0  0  0  0
   21.1368  -10.2192   -3.2514 O   0  0  0  1  0  0  0  0  0  0  0  0
   15.8397  -12.3166   -3.4609 C   0  0  0  1  0  0  0  0  0  0  0  0
   14.8948  -12.2358   -2.9653 H   0  0  0  1  0  0  0  0  0  0  0  0
   16.3497  -13.1922   -3.1170 H   0  0  0  1  0  0  0  0  0  0  0  0
   15.6040  -12.4410   -4.9374 C   0  0  0  1  0  0  0  0  0  0  0  0
   16.4385  -12.5227   -5.5527 H   0  0  0  1  0  0  0  0  0  0  0  0
   14.4075  -12.4546   -5.5181 C   0  0  0  1  0  0  0  0  0  0  0  0
   14.2877  -12.9161   -6.9414 C   0  0  0  1  0  0  0  0  0  0  0  0
   15.0150  -13.6774   -7.1325 H   0  0  0  1  0  0  0  0  0  0  0  0
   14.4558  -12.0894   -7.5996 H   0  0  0  1  0  0  0  0  0  0  0  0
   13.3070  -13.3107   -7.1068 H   0  0  0  1  0  0  0  0  0  0  0  0
   13.1159  -12.0399   -4.8713 C   0  0  0  1  0  0  0  0  0  0  0  0
   12.7282  -11.1928   -5.3975 H   0  0  0  1  0  0  0  0  0  0  0  0
   13.3153  -11.7689   -3.8556 H   0  0  0  1  0  0  0  0  0  0  0  0
   12.0653  -13.1383   -4.8817 C   0  0  0  1  0  0  0  0  0  0  0  0
   12.4838  -14.0141   -4.4314 H   0  0  0  1  0  0  0  0  0  0  0  0
   11.8033  -13.3494   -5.8974 H   0  0  0  1  0  0  0  0  0  0  0  0
   10.8281  -12.7691   -4.1399 C   0  0  0  1  0  0  0  0  0  0  0  0
   11.0010  -12.4719   -3.1584 H   0  0  0  1  0  0  0  0  0  0  0  0
    9.5471  -12.7456   -4.4882 C   0  0  0  1  0  0  0  0  0  0  0  0
    8.5249  -12.0223   -3.6579 C   0  0  0  1  0  0  0  0  0  0  0  0
    8.4931  -12.4503   -2.6777 H   0  0  0  1  0  0  0  0  0  0  0  0
    7.5631  -12.1132   -4.1179 H   0  0  0  1  0  0  0  0  0  0  0  0
    8.7905  -10.9882   -3.5867 H   0  0  0  1  0  0  0  0  0  0  0  0
    8.9994  -13.4189   -5.7119 C   0  0  0  1  0  0  0  0  0  0  0  0
    9.1698  -12.7832   -6.5555 H   0  0  0  1  0  0  0  0  0  0  0  0
    7.9474  -13.5625   -5.5796 H   0  0  0  1  0  0  0  0  0  0  0  0
    9.6413  -14.7692   -5.9861 C   0  0  0  1  0  0  0  0  0  0  0  0
   10.6994  -14.6330   -6.0682 H   0  0  0  1  0  0  0  0  0  0  0  0
    9.2571  -15.1475   -6.9104 H   0  0  0  1  0  0  0  0  0  0  0  0
    9.3709  -15.7811   -4.9050 C   0  0  0  1  0  0  0  0  0  0  0  0
    8.4746  -15.7005   -4.3837 H   0  0  0  1  0  0  0  0  0  0  0  0
   10.1929  -16.7706   -4.5667 C   0  0  0  1  0  0  0  0  0  0  0  0
   11.5258  -17.0536   -5.1965 C   0  0  0  1  0  0  0  0  0  0  0  0
   12.2674  -17.1295   -4.4290 H   0  0  0  1  0  0  0  0  0  0  0  0
   11.7780  -16.2519   -5.8589 H   0  0  0  1  0  0  0  0  0  0  0  0
    9.7964  -17.7124   -3.4646 C   0  0  0  1  0  0  0  0  0  0  0  0
    9.2428  -18.5305   -3.8759 H   0  0  0  1  0  0  0  0  0  0  0  0
    9.1891  -17.1929   -2.7531 H   0  0  0  1  0  0  0  0  0  0  0  0
   10.6751  -18.0842   -2.9803 H   0  0  0  1  0  0  0  0  0  0  0  0
   11.4857  -18.3546   -5.9813 C   0  0  0  1  0  0  0  0  0  0  0  0
   11.1344  -19.1316   -5.3350 H   0  0  0  1  0  0  0  0  0  0  0  0
   12.4776  -18.5848   -6.3101 H   0  0  0  1  0  0  0  0  0  0  0  0
   10.5919  -18.2899   -7.1762 C   0  0  0  1  0  0  0  0  0  0  0  0
   10.8560  -17.6562   -7.9574 H   0  0  0  1  0  0  0  0  0  0  0  0
    9.4768  -19.0014   -7.2901 C   0  0  0  1  0  0  0  0  0  0  0  0
    9.1471  -20.0983   -6.3178 C   0  0  0  1  0  0  0  0  0  0  0  0
    9.8420  -20.0273   -5.5072 H   0  0  0  1  0  0  0  0  0  0  0  0
    9.2857  -21.0294   -6.8265 H   0  0  0  1  0  0  0  0  0  0  0  0
    8.4564  -18.7923   -8.3705 C   0  0  0  1  0  0  0  0  0  0  0  0
    8.9210  -18.9064   -9.3275 H   0  0  0  1  0  0  0  0  0  0  0  0
    8.0470  -17.8071   -8.2882 H   0  0  0  1  0  0  0  0  0  0  0  0
    7.6736  -19.5142   -8.2659 H   0  0  0  1  0  0  0  0  0  0  0  0
    7.7500  -20.1107   -5.7192 C   0  0  0  1  0  0  0  0  0  0  0  0
    7.0532  -19.8988   -6.5031 H   0  0  0  1  0  0  0  0  0  0  0  0
    7.7009  -19.3391   -4.9795 H   0  0  0  1  0  0  0  0  0  0  0  0
    7.3407  -21.3960   -5.0729 C   0  0  0  1  0  0  0  0  0  0  0  0
    6.6859  -22.0606   -5.5327 H   0  0  0  1  0  0  0  0  0  0  0  0
    7.8669  -21.6384   -3.8702 C   0  0  0  1  0  0  0  0  0  0  0  0
    8.8211  -20.6688   -3.2257 C   0  0  0  1  0  0  0  0  0  0  0  0
    8.4436  -20.4119   -2.2580 H   0  0  0  1  0  0  0  0  0  0  0  0
    8.8751  -19.7896   -3.8330 H   0  0  0  1  0  0  0  0  0  0  0  0
    7.4352  -22.8569   -3.0785 C   0  0  0  1  0  0  0  0  0  0  0  0
    6.7770  -22.5561   -2.2904 H   0  0  0  1  0  0  0  0  0  0  0  0
    8.2970  -23.3340   -2.6605 H   0  0  0  1  0  0  0  0  0  0  0  0
    6.9271  -23.5409   -3.7258 H   0  0  0  1  0  0  0  0  0  0  0  0
   10.2236  -21.2321   -3.0641 C   0  0  0  1  0  0  0  0  0  0  0  0
   10.5547  -21.6238   -4.0031 H   0  0  0  1  0  0  0  0  0  0  0  0
   10.2049  -22.0165   -2.3365 H   0  0  0  1  0  0  0  0  0  0  0  0
   11.1737  -20.1682   -2.6140 C   0  0  0  1  0  0  0  0  0  0  0  0
   11.7144  -19.6648   -3.3460 H   0  0  0  1  0  0  0  0  0  0  0  0
   11.3787  -19.8179   -1.3473 C   0  0  0  1  0  0  0  0  0  0  0  0
   10.9557  -20.6075   -0.1428 C   0  0  0  1  0  0  0  0  0  0  0  0
   10.1785  -21.2871   -0.4241 H   0  0  0  1  0  0  0  0  0  0  0  0
   10.5896  -19.9363    0.6058 H   0  0  0  1  0  0  0  0  0  0  0  0
   12.0900  -18.5311   -1.0466 C   0  0  0  1  0  0  0  0  0  0  0  0
   12.5551  -18.5964   -0.0852 H   0  0  0  1  0  0  0  0  0  0  0  0
   11.3855  -17.7258   -1.0479 H   0  0  0  1  0  0  0  0  0  0  0  0
   12.8365  -18.3538   -1.7924 H   0  0  0  1  0  0  0  0  0  0  0  0
   12.1258  -21.3952    0.4234 C   0  0  0  1  0  0  0  0  0  0  0  0
   12.9714  -20.7468    0.5198 H   0  0  0  1  0  0  0  0  0  0  0  0
   12.3647  -22.1969   -0.2438 H   0  0  0  1  0  0  0  0  0  0  0  0
   11.7850  -21.9597    1.7660 C   0  0  0  1  0  0  0  0  0  0  0  0
   10.9581  -22.5890    1.8080 H   0  0  0  1  0  0  0  0  0  0  0  0
   12.4242  -21.7443    2.9108 C   0  0  0  1  0  0  0  0  0  0  0  0
   13.6114  -20.8353    3.0436 C   0  0  0  1  0  0  0  0  0  0  0  0
   14.0246  -20.6872    2.0678 H   0  0  0  1  0  0  0  0  0  0  0  0
   14.3321  -21.3226    3.6665 H   0  0  0  1  0  0  0  0  0  0  0  0
   11.9959  -22.4104    4.1880 C   0  0  0  1  0  0  0  0  0  0  0  0
   11.4600  -21.7100    4.7939 H   0  0  0  1  0  0  0  0  0  0  0  0
   12.8597  -22.7529    4.7185 H   0  0  0  1  0  0  0  0  0  0  0  0
   11.3629  -23.2427    3.9610 H   0  0  0  1  0  0  0  0  0  0  0  0
   13.3218  -19.4686    3.6425 C   0  0  0  1  0  0  0  0  0  0  0  0
   14.2380  -18.9164    3.6633 H   0  0  0  1  0  0  0  0  0  0  0  0
   12.9697  -19.6142    4.6424 H   0  0  0  1  0  0  0  0  0  0  0  0
   12.2998  -18.6447    2.9057 C   0  0  0  1  0  0  0  0  0  0  0  0
   11.3019  -18.8407    3.1236 H   0  0  0  1  0  0  0  0  0  0  0  0
   12.5341  -17.6951    2.0080 C   0  0  0  1  0  0  0  0  0  0  0  0
   13.9314  -17.3688    1.5624 C   0  0  0  1  0  0  0  0  0  0  0  0
   14.0727  -17.7234    0.5628 H   0  0  0  1  0  0  0  0  0  0  0  0
   14.6293  -17.8512    2.2145 H   0  0  0  1  0  0  0  0  0  0  0  0
   11.4601  -16.8702    1.3614 C   0  0  0  1  0  0  0  0  0  0  0  0
   11.8334  -16.4469    0.4524 H   0  0  0  1  0  0  0  0  0  0  0  0
   11.1653  -16.0848    2.0256 H   0  0  0  1  0  0  0  0  0  0  0  0
   10.6157  -17.4908    1.1451 H   0  0  0  1  0  0  0  0  0  0  0  0
   14.1717  -15.8683    1.5975 C   0  0  0  1  0  0  0  0  0  0  0  0
   14.1396  -15.5420    2.6160 H   0  0  0  1  0  0  0  0  0  0  0  0
   13.3941  -15.3858    1.0431 H   0  0  0  1  0  0  0  0  0  0  0  0
   15.4899  -15.4722    1.0121 C   0  0  0  1  0  0  0  0  0  0  0  0
   15.5498  -15.3230   -0.0154 H   0  0  0  1  0  0  0  0  0  0  0  0
   16.5874  -15.3017    1.7396 C   0  0  0  1  0  0  0  0  0  0  0  0
   17.8431  -14.7404    1.1384 C   0  0  0  1  0  0  0  0  0  0  0  0
   17.5787  -13.9276    0.4946 H   0  0  0  1  0  0  0  0  0  0  0  0
   18.3198  -15.5087    0.5662 H   0  0  0  1  0  0  0  0  0  0  0  0
   16.6871  -15.6423    3.1999 C   0  0  0  1  0  0  0  0  0  0  0  0
   17.7349  -15.6902    3.4114 H   0  0  0  1  0  0  0  0  0  0  0  0
   16.2227  -16.5861    3.3961 H   0  0  0  1  0  0  0  0  0  0  0  0
   16.2202  -14.8842    3.7933 H   0  0  0  1  0  0  0  0  0  0  0  0
   18.8265  -14.2322    2.1801 C   0  0  0  1  0  0  0  0  0  0  0  0
   19.6930  -13.8577    1.6763 H   0  0  0  1  0  0  0  0  0  0  0  0
   19.1059  -15.0494    2.8118 H   0  0  0  1  0  0  0  0  0  0  0  0
   18.2635  -13.1410    3.0342 C   0  0  0  1  0  0  0  0  0  0  0  0
   17.7904  -12.3323    2.5827 H   0  0  0  1  0  0  0  0  0  0  0  0
   18.3564  -13.1853    4.3578 C   0  0  0  1  0  0  0  0  0  0  0  0
   17.8482  -12.0605    5.2101 C   0  0  0  1  0  0  0  0  0  0  0  0
   17.0499  -11.5603    4.7027 H   0  0  0  1  0  0  0  0  0  0  0  0
   18.6419  -11.3675    5.3961 H   0  0  0  1  0  0  0  0  0  0  0  0
   17.4902  -12.4513    6.1397 H   0  0  0  1  0  0  0  0  0  0  0  0
   18.9735  -14.3623    5.0548 C   0  0  0  1  0  0  0  0  0  0  0  0
   18.2063  -15.0976    5.1802 H   0  0  0  1  0  0  0  0  0  0  0  0
   19.3537  -14.0640    6.0095 H   0  0  0  1  0  0  0  0  0  0  0  0
   19.7698  -14.7620    4.4623 H   0  0  0  1  0  0  0  0  0  0  0  0
   16.2635   -5.1468   -1.9045 C   0  0  0  1  0  0  0  0  0  0  0  0
   16.6998   -5.7225   -1.1152 H   0  0  0  1  0  0  0  0  0  0  0  0
   14.9447   -5.7720   -2.3124 C   0  0  0  1  0  0  0  0  0  0  0  0
   15.1152   -6.7617   -2.6817 H   0  0  0  1  0  0  0  0  0  0  0  0
   16.0489   -3.8126   -1.4529 O   0  0  0  1  0  0  0  0  0  0  0  0
   14.3149   -4.9214   -3.4035 C   0  0  0  1  0  0  0  0  0  0  0  0
   13.3125   -5.2599   -3.5633 H   0  0  0  1  0  0  0  0  0  0  0  0
   15.6187   -2.9562   -2.5328 C   0  0  0  1  0  0  0  0  0  0  0  0
   16.3418   -2.9848   -3.3210 H   0  0  0  1  0  0  0  0  0  0  0  0
   14.2765   -3.4421   -3.0577 C   0  0  0  1  0  0  0  0  0  0  0  0
   14.0255   -2.8862   -3.9369 H   0  0  0  1  0  0  0  0  0  0  0  0
   17.1433   -5.1303   -3.0227 O   0  0  0  1  0  0  0  0  0  0  0  0
   14.0708   -5.8283   -1.1834 O   0  0  0  1  0  0  0  0  0  0  0  0
   13.5990   -4.9962   -1.1016 H   0  0  0  1  0  0  0  0  0  0  0  0
   15.0731   -5.0886   -4.6063 O   0  0  0  1  0  0  0  0  0  0  0  0
   15.4071   -5.9875   -4.6522 H   0  0  0  1  0  0  0  0  0  0  0  0
   15.4785   -1.5306   -2.0245 C   0  0  0  1  0  0  0  0  0  0  0  0
   14.7264   -1.4948   -1.2643 H   0  0  0  1  0  0  0  0  0  0  0  0
   15.1979   -0.8895   -2.8339 H   0  0  0  1  0  0  0  0  0  0  0  0
   16.4126   -1.2039   -1.6174 H   0  0  0  1  0  0  0  0  0  0  0  0
   19.4733   -6.8454   -3.6155 C   0  0  0  1  0  0  0  0  0  0  0  0
   18.5194   -7.2018   -3.9442 H   0  0  0  1  0  0  0  0  0  0  0  0
   19.2865   -5.9961   -2.3614 C   0  0  0  1  0  0  0  0  0  0  0  0
   20.2445   -5.7068   -1.9826 H   0  0  0  1  0  0  0  0  0  0  0  0
   20.0688   -6.0780   -4.6539 O   0  0  0  1  0  0  0  0  0  0  0  0
   18.4764   -4.7462   -2.6986 C   0  0  0  1  0  0  0  0  0  0  0  0
   18.4644   -4.0982   -1.8472 H   0  0  0  1  0  0  0  0  0  0  0  0
   19.2706   -4.9548   -5.0587 C   0  0  0  1  0  0  0  0  0  0  0  0
   19.7647   -4.4360   -5.8535 H   0  0  0  1  0  0  0  0  0  0  0  0
   19.0765   -4.0044   -3.8754 C   0  0  0  1  0  0  0  0  0  0  0  0
   18.4196   -3.2107   -4.1643 H   0  0  0  1  0  0  0  0  0  0  0  0
   18.5798   -6.7722   -1.3534 N   0  0  0  1  0  0  0  0  0  0  0  0
   17.8141   -7.3186   -1.6282 H   0  0  0  1  0  0  0  0  0  0  0  0
   20.3430   -3.4610   -3.4942 O   0  0  0  1  0  0  0  0  0  0  0  0
   20.8366   -4.1792   -3.0915 H   0  0  0  1  0  0  0  0  0  0  0  0
   17.9291   -5.4409   -5.5340 C   0  0  0  1  0  0  0  0  0  0  0  0
   17.6640   -4.9043   -6.4209 H   0  0  0  1  0  0  0  0  0  0  0  0
   17.2043   -5.2493   -4.7705 H   0  0  0  1  0  0  0  0  0  0  0  0
   17.9279   -6.8311   -5.8249 O   0  0  0  1  0  0  0  0  0  0  0  0
   18.1888   -6.9463   -6.7416 H   0  0  0  1  0  0  0  0  0  0  0  0
   18.9386   -6.7657   -0.0665 C   0  0  0  1  0  0  0  0  0  0  0  0
   19.9689   -6.2293    0.3391 O   0  0  0  1  0  0  0  0  0  0  0  0
   17.9929   -7.4663    0.8826 C   0  0  0  1  0  0  0  0  0  0  0  0
   18.1047   -6.9395    1.8072 H   0  0  0  1  0  0  0  0  0  0  0  0
   18.2650   -8.4947    0.9977 H   0  0  0  1  0  0  0  0  0  0  0  0
   16.9850   -7.4009    0.5294 H   0  0  0  1  0  0  0  0  0  0  0  0
  1  2  1  0  0  0  0
  1  3  1  0  0  0  0
  1  4  1  0  0  0  0
  1 44  1  0  0  0  0
  3 20  1  0  0  0  0
  4  5  1  0  0  0  0
  4  6  1  0  0  0  0
  4  8  1  0  0  0  0
  6  7  1  0  0  0  0
  8  9  1  0  0  0  0
  8 10  1  0  0  0  0
  8 20  1  0  0  0  0
 10 11  1  0  0  0  0
 12 13  1  0  0  0  0
 12 14  1  0  0  0  0
 12 15  1  0  0  0  0
 12 17  1  0  0  0  0
 15 16  1  0  0  0  0
 17 18  1  0  0  0  0
 17 19  1  0  0  0  0
 17 20  1  0  0  0  0
 19 22  1  0  0  0  0
 20 21  1  0  0  0  0
 22 23  1  0  0  0  0
 22 24  1  0  0  0  0
 22 25  1  0  0  0  0
 24 42  1  0  0  0  0
 25 26  1  0  0  0  0
 25 27  1  0  0  0  0
 25 29  1  0  0  0  0
 27 28  1  0  0  0  0
 29 30  1  0  0  0  0
 29 31  1  0  0  0  0
 29 42  1  0  0  0  0
 31 32  1  0  0  0  0
 33 34  1  0  0  0  0
 33 35  1  0  0  0  0
 33 36  1  0  0  0  0
 33 38  1  0  0  0  0
 36 37  1  0  0  0  0
 38 39  1  0  0  0  0
 38 40  1  0  0  0  0
 38 42  1  0  0  0  0
 40 41  1  0  0  0  0
 42 43  1  0  0  0  0
 44194  1  0  0  0  0
 45 46  1  0  0  0  0
 45 54  1  0  0  0  0
 46 47  1  0  0  0  0
 46 48  1  0  0  0  0
 46 49  2  0  0  0  0
 47 50  1  0  0  0  0
 50 51  1  0  0  0  0
 50 52  1  0  0  0  0
 50 53  2  0  0  0  0
 51205  1  0  0  0  0
 54 55  1  0  0  0  0
 54 56  1  0  0  0  0
 54 57  1  0  0  0  0
 57 58  1  0  0  0  0
 57 59  2  0  0  0  0
 59 60  1  0  0  0  0
 59 64  1  0  0  0  0
 60 61  1  0  0  0  0
 60 62  1  0  0  0  0
 60 63  1  0  0  0  0
 64 65  1  0  0  0  0
 64 66  1  0  0  0  0
 64 67  1  0  0  0  0
 67 68  1  0  0  0  0
 67 69  1  0  0  0  0
 67 70  1  0  0  0  0
 70 71  1  0  0  0  0
 70 72  2  0  0  0  0
 72 73  1  0  0  0  0
 72 77  1  0  0  0  0
 73 74  1  0  0  0  0
 73 75  1  0  0  0  0
 73 76  1  0  0  0  0
 77 78  1  0  0  0  0
 77 79  1  0  0  0  0
 77 80  1  0  0  0  0
 80 81  1  0  0  0  0
 80 82  1  0  0  0  0
 80 83  1  0  0  0  0
 83 84  1  0  0  0  0
 83 85  2  0  0  0  0
 85 86  1  0  0  0  0
 85 89  1  0  0  0  0
 86 87  1  0  0  0  0
 86 88  1  0  0  0  0
 86 93  1  0  0  0  0
 89 90  1  0  0  0  0
 89 91  1  0  0  0  0
 89 92  1  0  0  0  0
 93 94  1  0  0  0  0
 93 95  1  0  0  0  0
 93 96  1  0  0  0  0
 96 97  1  0  0  0  0
 96 98  2  0  0  0  0
 98 99  1  0  0  0  0
 98102  1  0  0  0  0
 99100  1  0  0  0  0
 99101  1  0  0  0  0
 99106  1  0  0  0  0
102103  1  0  0  0  0
102104  1  0  0  0  0
102105  1  0  0  0  0
106107  1  0  0  0  0
106108  1  0  0  0  0
106109  1  0  0  0  0
109110  1  0  0  0  0
109111  2  0  0  0  0
111112  1  0  0  0  0
111115  1  0  0  0  0
112113  1  0  0  0  0
112114  1  0  0  0  0
112119  1  0  0  0  0
115116  1  0  0  0  0
115117  1  0  0  0  0
115118  1  0  0  0  0
119120  1  0  0  0  0
119121  1  0  0  0  0
119122  1  0  0  0  0
122123  1  0  0  0  0
122124  2  0  0  0  0
124125  1  0  0  0  0
124128  1  0  0  0  0
125126  1  0  0  0  0
125127  1  0  0  0  0
125132  1  0  0  0  0
128129  1  0  0  0  0
128130  1  0  0  0  0
128131  1  0  0  0  0
132133  1  0  0  0  0
132134  1  0  0  0  0
132135  1  0  0  0  0
135136  1  0  0  0  0
135137  2  0  0  0  0
137138  1  0  0  0  0
137141  1  0  0  0  0
138139  1  0  0  0  0
138140  1  0  0  0  0
138145  1  0  0  0  0
141142  1  0  0  0  0
141143  1  0  0  0  0
141144  1  0  0  0  0
145146  1  0  0  0  0
145147  1  0  0  0  0
145148  1  0  0  0  0
148149  1  0  0  0  0
148150  2  0  0  0  0
150151  1  0  0  0  0
150154  1  0  0  0  0
151152  1  0  0  0  0
151153  1  0  0  0  0
151158  1  0  0  0  0
154155  1  0  0  0  0
154156  1  0  0  0  0
154157  1  0  0  0  0
158159  1  0  0  0  0
158160  1  0  0  0  0
158161  1  0  0  0  0
161162  1  0  0  0  0
161163  2  0  0  0  0
163164  1  0  0  0  0
163167  1  0  0  0  0
164165  1  0  0  0  0
164166  1  0  0  0  0
164171  1  0  0  0  0
167168  1  0  0  0  0
167169  1  0  0  0  0
167170  1  0  0  0  0
171172  1  0  0  0  0
171173  1  0  0  0  0
171174  1  0  0  0  0
174175  1  0  0  0  0
174176  2  0  0  0  0
176177  1  0  0  0  0
176181  1  0  0  0  0
177178  1  0  0  0  0
177179  1  0  0  0  0
177180  1  0  0  0  0
181182  1  0  0  0  0
181183  1  0  0  0  0
181184  1  0  0  0  0
185186  1  0  0  0  0
185187  1  0  0  0  0
185189  1  0  0  0  0
185196  1  0  0  0  0
187188  1  0  0  0  0
187190  1  0  0  0  0
187197  1  0  0  0  0
189192  1  0  0  0  0
190191  1  0  0  0  0
190194  1  0  0  0  0
190199  1  0  0  0  0
192193  1  0  0  0  0
192194  1  0  0  0  0
192201  1  0  0  0  0
194195  1  0  0  0  0
196210  1  0  0  0  0
197198  1  0  0  0  0
199200  1  0  0  0  0
201202  1  0  0  0  0
201203  1  0  0  0  0
201204  1  0  0  0  0
205206  1  0  0  0  0
205207  1  0  0  0  0
205209  1  0  0  0  0
207208  1  0  0  0  0
207210  1  0  0  0  0
207216  1  0  0  0  0
209212  1  0  0  0  0
210211  1  0  0  0  0
210214  1  0  0  0  0
212213  1  0  0  0  0
212214  1  0  0  0  0
212220  1  0  0  0  0
214215  1  0  0  0  0
214218  1  0  0  0  0
216217  1  0  0  0  0
216225  1  0  0  0  0
218219  1  0  0  0  0
220221  1  0  0  0  0
220222  1  0  0  0  0
220223  1  0  0  0  0
223224  1  0  0  0  0
225226  2  0  0  0  0
225227  1  0  0  0  0
227228  1  0  0  0  0
227229  1  0  0  0  0
227230  1  0  0  0  0
M  BCL ATM C_TeTeTeTe H_S O_Te2Te2TeTe C_TeTeTeTe H_S O_Te2Te2TeTe H_S C_TeTeTeTe H_S O_Te2Te2TeTe H_S C_TeTeTeTe H_S H_S O_Te2Te2TeTe H_S C_TeTeTeTe H_S O_Te2Te2TeTe C_TeTeTeTe H_S C_TeTeTeTe H_S O_Te2Te2TeTe C_TeTeTeTe H_S O_Te2Te2TeTe H_S C_TeTeTeTe H_S O_Te2Te2TeTe H_S C_TeTeTeTe H_S H_S O_Te2Te2TeTe H_S C_TeTeTeTe H_S O_Te2Te2TeTe H_S C_TeTeTeTe H_S O_Te2Te2TeTe O_Tr2TrTrPi2 P_TeTeTeTePi O_Tr2TrTrPi2 O_Te2Te2TeTe O_Tr2Tr2TrPi P_TeTeTeTePi O_Tr2TrTrPi2 O_Te2Te2TeTe O_Tr2Tr2TrPi C_TeTeTeTe H_S H_S C_TrTrTrPi H_S C_TrTrTrPi C_TeTeTeTe H_S H_S H_S C_TeTeTeTe H_S H_S C_TeTeTeTe H_S H_S C_TrTrTrPi H_S C_TrTrTrPi C_TeTeTeTe H_S H_S H_S C_TeTeTeTe H_S H_S C_TeTeTeTe H_S H_S C_TrTrTrPi H_S C_TrTrTrPi C_TeTeTeTe H_S H_S C_TeTeTeTe H_S H_S H_S C_TeTeTeTe H_S H_S C_TrTrTrPi H_S C_TrTrTrPi C_TeTeTeTe H_S H_S C_TeTeTeTe H_S H_S H_S C_TeTeTeTe H_S H_S C_TrTrTrPi H_S C_TrTrTrPi C_TeTeTeTe H_S H_S C_TeTeTeTe H_S H_S H_S C_TeTeTeTe H_S H_S C_TrTrTrPi H_S C_TrTrTrPi C_TeTeTeTe H_S H_S C_TeTeTeTe H_S H_S H_S C_TeTeTeTe H_S H_S C_TrTrTrPi H_S C_TrTrTrPi C_TeTeTeTe H_S H_S C_TeTeTeTe H_S H_S H_S C_TeTeTeTe H_S H_S C_TrTrTrPi H_S C_TrTrTrPi C_TeTeTeTe H_S H_S C_TeTeTeTe H_S H_S H_S C_TeTeTeTe H_S H_S C_TrTrTrPi H_S C_TrTrTrPi C_TeTeTeTe H_S H_S C_TeTeTeTe H_S H_S H_S C_TeTeTeTe H_S H_S C_TrTrTrPi H_S C_TrTrTrPi C_TeTeTeTe H_S H_S H_S C_TeTeTeTe H_S H_S H_S C_TeTeTeTe H_S C_TeTeTeTe H_S O_Te2Te2TeTe C_TeTeTeTe H_S C_TeTeTeTe H_S C_TeTeTeTe H_S O_Te2Te2TeTe O_Te2Te2TeTe H_S O_Te2Te2TeTe H_S C_TeTeTeTe H_S H_S H_S C_TeTeTeTe H_S C_TeTeTeTe H_S O_Te2Te2TeTe C_TeTeTeTe H_S C_TeTeTeTe H_S C_TeTeTeTe H_S N_TrTrTrPi2 H_S O_Te2Te2TeTe H_S C_TeTeTeTe H_S H_S O_Te2Te2TeTe H_S C_TrTrTrPi O_Tr2Tr2TrPi C_TeTeTeTe H_S H_S H_S
M  BCL BND NonConjugatedSingleBond NonConjugatedSingleBondInRing NonConjugatedSingleBondInRing NonConjugatedSingleBond NonConjugatedSingleBondInRing NonConjugatedSingleBond NonConjugatedSingleBond NonConjugatedSingleBondInRing NonConjugatedSingleBond NonConjugatedSingleBond NonConjugatedSingleBond NonConjugatedSingleBondInRing NonConjugatedSingleBond NonConjugatedSingleBond NonConjugatedSingleBond NonConjugatedSingleBond NonConjugatedSingleBond NonConjugatedSingleBond NonConjugatedSingleBond NonConjugatedSingleBond NonConjugatedSingleBond NonConjugatedSingleBond NonConjugatedSingleBond NonConjugatedSingleBond NonConjugatedSingleBondInRing NonConjugatedSingleBondInRing NonConjugatedSingleBondInRing NonConjugatedSingleBond NonConjugatedSingleBond NonConjugatedSingleBondInRing NonConjugatedSingleBond NonConjugatedSingleBond NonConjugatedSingleBond NonConjugatedSingleBondInRing NonConjugatedSingleBond NonConjugatedSingleBond NonConjugatedSingleBond NonConjugatedSingleBond NonConjugatedSingleBond NonConjugatedSingleBond NonConjugatedSingleBond NonConjugatedSingleBond NonConjugatedSingleBond NonConjugatedSingleBond NonConjugatedSingleBond NonConjugatedSingleBond ConjugatedSingleBond NonConjugatedSingleBond ConjugatedSingleBond ConjugatedSingleBond ConjugatedDoubleBond ConjugatedSingleBond ConjugatedSingleBond ConjugatedSingleBond ConjugatedDoubleBond NonConjugatedSingleBond NonConjugatedSingleBond NonConjugatedSingleBond NonConjugatedSingleBond NonConjugatedSingleBond ConjugatedDoubleBond NonConjugatedSingleBond NonConjugatedSingleBond NonConjugatedSingleBond NonConjugatedSingleBond NonConjugatedSingleBond NonConjugatedSingleBond NonConjugatedSingleBond NonConjugatedSingleBond NonConjugatedSingleBond NonConjugatedSingleBond NonConjugatedSingleBond NonConjugatedSingleBond ConjugatedDoubleBond NonConjugatedSingleBond NonConjugatedSingleBond NonConjugatedSingleBond NonConjugatedSingleBond NonConjugatedSingleBond NonConjugatedSingleBond NonConjugatedSingleBond NonConjugatedSingleBond NonConjugatedSingleBond NonConjugatedSingleBond NonConjugatedSingleBond NonConjugatedSingleBond ConjugatedDoubleBond NonConjugatedSingleBond NonConjugatedSingleBond NonConjugatedSingleBond NonConjugatedSingleBond NonConjugatedSingleBond NonConjugatedSingleBond NonConjugatedSingleBond NonConjugatedSingleBond NonConjugatedSingleBond NonConjugatedSingleBond NonConjugatedSingleBond NonConjugatedSingleBond ConjugatedDoubleBond NonConjugatedSingleBond NonConjugatedSingleBond NonConjugatedSingleBond NonConjugatedSingleBond NonConjugatedSingleBond NonConjugatedSingleBond NonConjugatedSingleBond NonConjugatedSingleBond NonConjugatedSingleBond NonConjugatedSingleBond NonConjugatedSingleBond NonConjugatedSingleBond ConjugatedDoubleBond NonConjugatedSingleBond NonConjugatedSingleBond NonConjugatedSingleBond NonConjugatedSingleBond NonConjugatedSingleBond NonConjugatedSingleBond NonConjugatedSingleBond NonConjugatedSingleBond NonConjugatedSingleBond NonConjugatedSingleBond NonConjugatedSingleBond NonConjugatedSingleBond ConjugatedDoubleBond NonConjugatedSingleBond NonConjugatedSingleBond NonConjugatedSingleBond NonConjugatedSingleBond NonConjugatedSingleBond NonConjugatedSingleBond NonConjugatedSingleBond NonConjugatedSingleBond NonConjugatedSingleBond NonConjugatedSingleBond NonConjugatedSingleBond NonConjugatedSingleBond ConjugatedDoubleBond NonConjugatedSingleBond NonConjugatedSingleBond NonConjugatedSingleBond NonConjugatedSingleBond NonConjugatedSingleBond NonConjugatedSingleBond NonConjugatedSingleBond NonConjugatedSingleBond NonConjugatedSingleBond NonConjugatedSingleBond NonConjugatedSingleBond NonConjugatedSingleBond ConjugatedDoubleBond NonConjugatedSingleBond NonConjugatedSingleBond NonConjugatedSingleBond NonConjugatedSingleBond NonConjugatedSingleBond NonConjugatedSingleBond NonConjugatedSingleBond NonConjugatedSingleBond NonConjugatedSingleBond NonConjugatedSingleBond NonConjugatedSingleBond NonConjugatedSingleBond ConjugatedDoubleBond NonConjugatedSingleBond NonConjugatedSingleBond NonConjugatedSingleBond NonConjugatedSingleBond NonConjugatedSingleBond NonConjugatedSingleBond NonConjugatedSingleBond NonConjugatedSingleBond NonConjugatedSingleBond NonConjugatedSingleBond NonConjugatedSingleBond NonConjugatedSingleBond ConjugatedDoubleBond NonConjugatedSingleBond NonConjugatedSingleBond NonConjugatedSingleBond NonConjugatedSingleBond NonConjugatedSingleBond NonConjugatedSingleBond NonConjugatedSingleBond NonConjugatedSingleBond NonConjugatedSingleBond NonConjugatedSingleBondInRing NonConjugatedSingleBondInRing NonConjugatedSingleBond NonConjugatedSingleBond NonConjugatedSingleBondInRing NonConjugatedSingleBond NonConjugatedSingleBondInRing NonConjugatedSingleBond NonConjugatedSingleBondInRing NonConjugatedSingleBond NonConjugatedSingleBond NonConjugatedSingleBondInRing NonConjugatedSingleBond NonConjugatedSingleBond NonConjugatedSingleBond NonConjugatedSingleBond NonConjugatedSingleBond NonConjugatedSingleBond NonConjugatedSingleBond NonConjugatedSingleBond NonConjugatedSingleBond NonConjugatedSingleBondInRing NonConjugatedSingleBondInRing NonConjugatedSingleBond NonConjugatedSingleBondInRing NonConjugatedSingleBond NonConjugatedSingleBondInRing NonConjugatedSingleBond NonConjugatedSingleBondInRing NonConjugatedSingleBond NonConjugatedSingleBondInRing NonConjugatedSingleBond NonConjugatedSingleBond NonConjugatedSingleBond NonConjugatedSingleBond AmideSingleBond NonConjugatedSingleBond NonConjugatedSingleBond NonConjugatedSingleBond NonConjugatedSingleBond NonConjugatedSingleBond ConjugatedDoubleBond NonConjugatedSingleBond NonConjugatedSingleBond NonConjugatedSingleBond NonConjugatedSingleBond
M  BCL CHI   1   R   4   R   8   R  17   S  20   R  22   S  25   R  29   S  38   S  42   R  46   R  50   S 185   R 187   S 190   S 192   R 194   R 205   R 207   S 210   R 212   S 214   S
M  BCL DBI - - E E E E E E E E Z - -
M  END
> <ConfClashScore>
0.011472 

> <ConfOneFourInteractionScore>
-0.96384 

> <ConfScore>
1.33857 

> <ConfScorePBest>
0.00850649 

> <ConfTolerance>
3.71145 

$$$$
L05.****
  PyMOL2.5          3D                             0

230233  0  0  0  0  0  0  0  0999 V2000
   11.9683   -3.2304   -2.9135 C   0  0  0  1  0  0  0  0  0  0  0  0
   11.2281   -3.4013   -2.1600 H   0  0  0  1  0  0  0  0  0  0  0  0
   11.8796   -4.2198   -3.8997 O   0  0  0  1  0  0  0  0  0  0  0  0
   11.7249   -1.8693   -3.5846 C   0  0  0  1  0  0  0  0  0  0  0  0
   12.6443   -1.3423   -3.7321 H   0  0  0  1  0  0  0  0  0  0  0  0
   10.8335   -1.0656   -2.8101 O   0  0  0  1  0  0  0  0  0  0  0  0
   10.0951   -0.7879   -3.3571 H   0  0  0  1  0  0  0  0  0  0  0  0
   11.0913   -2.2622   -4.9259 C   0  0  0  1  0  0  0  0  0  0  0  0
   10.0266   -2.3268   -4.8415 H   0  0  0  1  0  0  0  0  0  0  0  0
   11.4292   -1.3321   -5.9360 O   0  0  0  1  0  0  0  0  0  0  0  0
   11.9848   -0.6430   -5.5643 H   0  0  0  1  0  0  0  0  0  0  0  0
   10.8617   -4.1006   -7.5373 C   0  0  0  1  0  0  0  0  0  0  0  0
   11.8773   -4.2303   -7.8479 H   0  0  0  1  0  0  0  0  0  0  0  0
   10.2308   -4.7619   -8.0936 H   0  0  0  1  0  0  0  0  0  0  0  0
   10.4688   -2.7585   -7.8083 O   0  0  0  1  0  0  0  0  0  0  0  0
   10.0966   -2.3671   -7.0146 H   0  0  0  1  0  0  0  0  0  0  0  0
   10.7541   -4.4511   -6.0580 C   0  0  0  1  0  0  0  0  0  0  0  0
   11.0497   -5.4739   -5.9512 H   0  0  0  1  0  0  0  0  0  0  0  0
    9.4166   -4.3149   -5.5894 O   0  0  0  1  0  0  0  0  0  0  0  0
   11.6933   -3.6178   -5.2168 C   0  0  0  1  0  0  0  0  0  0  0  0
   12.6305   -3.5156   -5.7227 H   0  0  0  1  0  0  0  0  0  0  0  0
    9.0325   -5.3103   -4.6785 C   0  0  0  1  0  0  0  0  0  0  0  0
    9.3795   -6.2623   -5.0224 H   0  0  0  1  0  0  0  0  0  0  0  0
    9.5329   -5.0321   -3.3989 O   0  0  0  1  0  0  0  0  0  0  0  0
    7.5080   -5.3208   -4.4949 C   0  0  0  1  0  0  0  0  0  0  0  0
    7.0364   -5.9493   -5.2211 H   0  0  0  1  0  0  0  0  0  0  0  0
    6.9694   -4.0009   -4.5850 O   0  0  0  1  0  0  0  0  0  0  0  0
    6.2715   -3.9838   -5.2439 H   0  0  0  1  0  0  0  0  0  0  0  0
    7.3460   -5.8798   -3.1057 C   0  0  0  1  0  0  0  0  0  0  0  0
    7.3535   -6.9497   -3.1193 H   0  0  0  1  0  0  0  0  0  0  0  0
    6.1341   -5.4191   -2.5063 O   0  0  0  1  0  0  0  0  0  0  0  0
    6.3306   -5.0082   -1.6612 H   0  0  0  1  0  0  0  0  0  0  0  0
    8.6398   -6.1696    0.0216 C   0  0  0  1  0  0  0  0  0  0  0  0
    8.9087   -5.1847    0.3419 H   0  0  0  1  0  0  0  0  0  0  0  0
    7.5753   -6.2747    0.0453 H   0  0  0  1  0  0  0  0  0  0  0  0
    9.2108   -7.1120    0.9178 O   0  0  0  1  0  0  0  0  0  0  0  0
   10.0347   -7.4431    0.5527 H   0  0  0  1  0  0  0  0  0  0  0  0
    9.1183   -6.3652   -1.4103 C   0  0  0  1  0  0  0  0  0  0  0  0
    8.7908   -7.3288   -1.7408 H   0  0  0  1  0  0  0  0  0  0  0  0
   10.5444   -6.3378   -1.3751 O   0  0  0  1  0  0  0  0  0  0  0  0
   10.8697   -5.7277   -2.0410 H   0  0  0  1  0  0  0  0  0  0  0  0
    8.5687   -5.3312   -2.3644 C   0  0  0  1  0  0  0  0  0  0  0  0
    8.3127   -4.4451   -1.8220 H   0  0  0  1  0  0  0  0  0  0  0  0
   13.2507   -3.2525   -2.3271 O   0  0  0  1  0  0  0  0  0  0  0  0
   24.5874   -9.5486   -1.0831 O   0  0  0  1  0  0  0  0  0  0  0  0
   23.3994   -9.6033    0.0287 P   0  0  0  1  0  0  0  0  0  0  0  0
   22.2923   -9.1311   -1.0364 O   0  0  0  1  0  0  0  0  0  0  0  0
   23.6106   -8.5475    1.0499 O   0  0  0  0  0  0  0  0  0  0  0  0
   23.1433  -10.9906    0.4558 O   0  0  0  1  0  0  0  0  0  0  0  0
   21.7055   -7.6523   -1.2584 P   0  0  0  1  0  0  0  0  0  0  0  0
   20.4210   -7.8935   -2.1286 O   0  0  0  1  0  0  0  0  0  0  0  0
   22.7786   -6.9721   -2.0173 O   0  0  0  0  0  0  0  0  0  0  0  0
   21.1864   -7.0786   -0.0046 O   0  0  0  1  0  0  0  0  0  0  0  0
   25.4015   -8.3863   -1.3064 C   0  0  0  1  0  0  0  0  0  0  0  0
   25.9976   -8.1918   -0.4393 H   0  0  0  1  0  0  0  0  0  0  0  0
   24.7763   -7.5414   -1.5068 H   0  0  0  1  0  0  0  0  0  0  0  0
   26.2931   -8.6461   -2.4848 C   0  0  0  1  0  0  0  0  0  0  0  0
   27.1407   -9.2219   -2.3069 H   0  0  0  1  0  0  0  0  0  0  0  0
   26.1165   -8.2186   -3.7364 C   0  0  0  1  0  0  0  0  0  0  0  0
   26.9861   -8.7117   -4.8562 C   0  0  0  1  0  0  0  0  0  0  0  0
   28.0115   -8.5080   -4.6284 H   0  0  0  1  0  0  0  0  0  0  0  0
   26.7165   -8.2123   -5.7633 H   0  0  0  1  0  0  0  0  0  0  0  0
   26.8501   -9.7663   -4.9751 H   0  0  0  1  0  0  0  0  0  0  0  0
   25.0392   -7.2255   -4.0757 C   0  0  0  1  0  0  0  0  0  0  0  0
   24.2779   -7.2634   -3.3247 H   0  0  0  1  0  0  0  0  0  0  0  0
   24.6164   -7.4774   -5.0258 H   0  0  0  1  0  0  0  0  0  0  0  0
   25.6059   -5.8165   -4.1401 C   0  0  0  1  0  0  0  0  0  0  0  0
   26.3204   -5.7515   -4.9339 H   0  0  0  1  0  0  0  0  0  0  0  0
   26.0805   -5.5762   -3.2117 H   0  0  0  1  0  0  0  0  0  0  0  0
   24.4758   -4.8554   -4.3954 C   0  0  0  1  0  0  0  0  0  0  0  0
   23.8087   -4.9850   -5.1827 H   0  0  0  1  0  0  0  0  0  0  0  0
   24.3822   -3.8304   -3.5530 C   0  0  0  1  0  0  0  0  0  0  0  0
   23.1886   -2.9309   -3.3989 C   0  0  0  1  0  0  0  0  0  0  0  0
   23.4530   -1.9344   -3.6851 H   0  0  0  1  0  0  0  0  0  0  0  0
   22.8684   -2.9354   -2.3779 H   0  0  0  1  0  0  0  0  0  0  0  0
   22.3944   -3.2824   -4.0238 H   0  0  0  1  0  0  0  0  0  0  0  0
   25.5432   -3.5055   -2.6590 C   0  0  0  1  0  0  0  0  0  0  0  0
   26.2682   -4.2830   -2.7804 H   0  0  0  1  0  0  0  0  0  0  0  0
   25.1822   -3.5079   -1.6517 H   0  0  0  1  0  0  0  0  0  0  0  0
   26.2545   -2.1811   -2.8839 C   0  0  0  1  0  0  0  0  0  0  0  0
   25.6320   -1.4020   -2.4962 H   0  0  0  1  0  0  0  0  0  0  0  0
   26.3784   -2.0480   -3.9384 H   0  0  0  1  0  0  0  0  0  0  0  0
   27.6087   -2.0582   -2.2381 C   0  0  0  1  0  0  0  0  0  0  0  0
   27.6630   -2.1816   -1.2069 H   0  0  0  1  0  0  0  0  0  0  0  0
   28.7335   -1.8052   -2.8837 C   0  0  0  1  0  0  0  0  0  0  0  0
   28.7875   -1.2893   -4.2939 C   0  0  0  1  0  0  0  0  0  0  0  0
   28.7412   -2.1296   -4.9547 H   0  0  0  1  0  0  0  0  0  0  0  0
   29.7210   -0.7831   -4.4246 H   0  0  0  1  0  0  0  0  0  0  0  0
   30.0747   -2.0196   -2.2405 C   0  0  0  1  0  0  0  0  0  0  0  0
   30.6185   -1.0981   -2.2327 H   0  0  0  1  0  0  0  0  0  0  0  0
   30.6229   -2.7522   -2.7951 H   0  0  0  1  0  0  0  0  0  0  0  0
   29.9377   -2.3610   -1.2358 H   0  0  0  1  0  0  0  0  0  0  0  0
   27.6748   -0.3281   -4.6790 C   0  0  0  1  0  0  0  0  0  0  0  0
   27.1948    0.0128   -3.7855 H   0  0  0  1  0  0  0  0  0  0  0  0
   26.9672   -0.8521   -5.2869 H   0  0  0  1  0  0  0  0  0  0  0  0
   28.1654    0.8608   -5.4383 C   0  0  0  1  0  0  0  0  0  0  0  0
   29.1912    1.0236   -5.4931 H   0  0  0  1  0  0  0  0  0  0  0  0
   27.3560    1.7208   -6.0472 C   0  0  0  1  0  0  0  0  0  0  0  0
   25.8989    1.4495   -6.3175 C   0  0  0  1  0  0  0  0  0  0  0  0
   25.7976    0.4005   -6.5029 H   0  0  0  1  0  0  0  0  0  0  0  0
   25.6295    1.9954   -7.1975 H   0  0  0  1  0  0  0  0  0  0  0  0
   27.8453    3.0595   -6.5227 C   0  0  0  1  0  0  0  0  0  0  0  0
   27.2201    3.8307   -6.1236 H   0  0  0  1  0  0  0  0  0  0  0  0
   27.8127    3.0918   -7.5917 H   0  0  0  1  0  0  0  0  0  0  0  0
   28.8516    3.2094   -6.1914 H   0  0  0  1  0  0  0  0  0  0  0  0
   24.9020    1.8177   -5.2309 C   0  0  0  1  0  0  0  0  0  0  0  0
   25.2585    2.6892   -4.7227 H   0  0  0  1  0  0  0  0  0  0  0  0
   24.8353    1.0035   -4.5398 H   0  0  0  1  0  0  0  0  0  0  0  0
   23.5357    2.1030   -5.7626 C   0  0  0  1  0  0  0  0  0  0  0  0
   23.3846    2.9876   -6.2882 H   0  0  0  1  0  0  0  0  0  0  0  0
   22.5048    1.2830   -5.5974 C   0  0  0  1  0  0  0  0  0  0  0  0
   22.6457   -0.0055   -4.8403 C   0  0  0  1  0  0  0  0  0  0  0  0
   21.6680   -0.4203   -4.7098 H   0  0  0  1  0  0  0  0  0  0  0  0
   23.0693    0.2184   -3.8836 H   0  0  0  1  0  0  0  0  0  0  0  0
   21.1268    1.5490   -6.1349 C   0  0  0  1  0  0  0  0  0  0  0  0
   20.9048    0.8475   -6.9118 H   0  0  0  1  0  0  0  0  0  0  0  0
   21.0837    2.5428   -6.5291 H   0  0  0  1  0  0  0  0  0  0  0  0
   20.4107    1.4461   -5.3465 H   0  0  0  1  0  0  0  0  0  0  0  0
   23.5173   -1.0592   -5.5040 C   0  0  0  1  0  0  0  0  0  0  0  0
   23.2426   -2.0195   -5.1202 H   0  0  0  1  0  0  0  0  0  0  0  0
   24.5398   -0.8571   -5.2620 H   0  0  0  1  0  0  0  0  0  0  0  0
   23.3753   -1.0836   -7.0024 C   0  0  0  1  0  0  0  0  0  0  0  0
   24.1324   -0.6453   -7.5647 H   0  0  0  1  0  0  0  0  0  0  0  0
   22.3555   -1.6228   -7.6596 C   0  0  0  1  0  0  0  0  0  0  0  0
   21.0758   -1.9777   -6.9596 C   0  0  0  1  0  0  0  0  0  0  0  0
   21.1630   -1.6469   -5.9458 H   0  0  0  1  0  0  0  0  0  0  0  0
   20.9842   -3.0436   -6.9810 H   0  0  0  1  0  0  0  0  0  0  0  0
   22.3725   -1.9263   -9.1291 C   0  0  0  1  0  0  0  0  0  0  0  0
   21.4134   -1.7075   -9.5501 H   0  0  0  1  0  0  0  0  0  0  0  0
   22.5986   -2.9617   -9.2766 H   0  0  0  1  0  0  0  0  0  0  0  0
   23.1175   -1.3262   -9.6084 H   0  0  0  1  0  0  0  0  0  0  0  0
   19.7857   -1.3991   -7.5174 C   0  0  0  1  0  0  0  0  0  0  0  0
   19.6193   -1.8129   -8.4900 H   0  0  0  1  0  0  0  0  0  0  0  0
   19.8941   -0.3374   -7.5948 H   0  0  0  1  0  0  0  0  0  0  0  0
   18.5936   -1.6949   -6.6638 C   0  0  0  1  0  0  0  0  0  0  0  0
   18.6948   -1.4445   -5.6595 H   0  0  0  1  0  0  0  0  0  0  0  0
   17.4245   -2.2304   -6.9986 C   0  0  0  1  0  0  0  0  0  0  0  0
   16.9453   -2.3655   -8.4147 C   0  0  0  1  0  0  0  0  0  0  0  0
   16.6591   -3.3829   -8.5818 H   0  0  0  1  0  0  0  0  0  0  0  0
   17.7491   -2.1079   -9.0723 H   0  0  0  1  0  0  0  0  0  0  0  0
   16.4726   -2.7530   -5.9597 C   0  0  0  1  0  0  0  0  0  0  0  0
   15.9368   -3.5904   -6.3553 H   0  0  0  1  0  0  0  0  0  0  0  0
   15.7810   -1.9823   -5.6903 H   0  0  0  1  0  0  0  0  0  0  0  0
   17.0223   -3.0582   -5.0940 H   0  0  0  1  0  0  0  0  0  0  0  0
   15.7573   -1.4709   -8.7292 C   0  0  0  1  0  0  0  0  0  0  0  0
   16.0407   -0.4542   -8.5536 H   0  0  0  1  0  0  0  0  0  0  0  0
   14.9506   -1.7345   -8.0775 H   0  0  0  1  0  0  0  0  0  0  0  0
   15.2843   -1.5975  -10.1526 C   0  0  0  1  0  0  0  0  0  0  0  0
   15.0395   -2.5550  -10.4764 H   0  0  0  1  0  0  0  0  0  0  0  0
   15.1465   -0.6238  -11.0356 C   0  0  0  1  0  0  0  0  0  0  0  0
   15.1463    0.8138  -10.5987 C   0  0  0  1  0  0  0  0  0  0  0  0
   15.4430    1.4217  -11.4277 H   0  0  0  1  0  0  0  0  0  0  0  0
   15.8513    0.9276   -9.8018 H   0  0  0  1  0  0  0  0  0  0  0  0
   14.8887   -0.8528  -12.4971 C   0  0  0  1  0  0  0  0  0  0  0  0
   14.7293   -1.8963  -12.6725 H   0  0  0  1  0  0  0  0  0  0  0  0
   15.7333   -0.5211  -13.0642 H   0  0  0  1  0  0  0  0  0  0  0  0
   14.0200   -0.3043  -12.7961 H   0  0  0  1  0  0  0  0  0  0  0  0
   13.7864    1.2883  -10.1130 C   0  0  0  1  0  0  0  0  0  0  0  0
   13.5433    0.7413   -9.2261 H   0  0  0  1  0  0  0  0  0  0  0  0
   13.0686    1.0692  -10.8757 H   0  0  0  1  0  0  0  0  0  0  0  0
   13.6920    2.7470   -9.7959 C   0  0  0  1  0  0  0  0  0  0  0  0
   14.2405    3.0799   -8.9773 H   0  0  0  1  0  0  0  0  0  0  0  0
   12.9835    3.6636  -10.4465 C   0  0  0  1  0  0  0  0  0  0  0  0
   12.9435    5.1138  -10.0609 C   0  0  0  1  0  0  0  0  0  0  0  0
   13.1640    5.6934  -10.9329 H   0  0  0  1  0  0  0  0  0  0  0  0
   13.6989    5.2797   -9.3215 H   0  0  0  1  0  0  0  0  0  0  0  0
   12.1496    3.3082  -11.6452 C   0  0  0  1  0  0  0  0  0  0  0  0
   12.5959    2.4250  -12.0523 H   0  0  0  1  0  0  0  0  0  0  0  0
   12.1692    4.1017  -12.3627 H   0  0  0  1  0  0  0  0  0  0  0  0
   11.1384    3.1154  -11.3532 H   0  0  0  1  0  0  0  0  0  0  0  0
   11.6194    5.6016   -9.4961 C   0  0  0  1  0  0  0  0  0  0  0  0
   11.4073    5.0713   -8.5913 H   0  0  0  1  0  0  0  0  0  0  0  0
   10.8438    5.4154  -10.2094 H   0  0  0  1  0  0  0  0  0  0  0  0
   11.6752    7.0674   -9.2039 C   0  0  0  1  0  0  0  0  0  0  0  0
   12.6084    7.5263   -9.2208 H   0  0  0  1  0  0  0  0  0  0  0  0
   10.6223    7.8265   -8.9246 C   0  0  0  1  0  0  0  0  0  0  0  0
   10.7694    9.2950   -8.6504 C   0  0  0  1  0  0  0  0  0  0  0  0
   11.8071    9.5560   -8.6495 H   0  0  0  1  0  0  0  0  0  0  0  0
   10.3436    9.5237   -7.6958 H   0  0  0  1  0  0  0  0  0  0  0  0
   10.2624    9.8520   -9.4104 H   0  0  0  1  0  0  0  0  0  0  0  0
    9.2058    7.3097   -8.8548 C   0  0  0  1  0  0  0  0  0  0  0  0
    8.5601    8.1049   -9.1640 H   0  0  0  1  0  0  0  0  0  0  0  0
    8.9721    7.0176   -7.8523 H   0  0  0  1  0  0  0  0  0  0  0  0
    9.0903    6.4699   -9.5077 H   0  0  0  1  0  0  0  0  0  0  0  0
   16.1831   -5.1278   -1.6566 C   0  0  0  1  0  0  0  0  0  0  0  0
   16.4762   -5.6678   -0.7805 H   0  0  0  1  0  0  0  0  0  0  0  0
   14.9337   -5.7647   -2.2512 C   0  0  0  1  0  0  0  0  0  0  0  0
   15.1469   -6.7710   -2.5457 H   0  0  0  1  0  0  0  0  0  0  0  0
   15.9055   -3.7694   -1.3083 O   0  0  0  1  0  0  0  0  0  0  0  0
   14.5074   -4.9475   -3.4748 C   0  0  0  1  0  0  0  0  0  0  0  0
   13.5584   -5.3069   -3.8141 H   0  0  0  1  0  0  0  0  0  0  0  0
   15.6327   -2.9558   -2.4598 C   0  0  0  1  0  0  0  0  0  0  0  0
   16.4650   -3.0001   -3.1309 H   0  0  0  1  0  0  0  0  0  0  0  0
   14.3859   -3.4649   -3.1677 C   0  0  0  1  0  0  0  0  0  0  0  0
   14.2581   -2.9265   -4.0835 H   0  0  0  1  0  0  0  0  0  0  0  0
   17.2361   -5.1665   -2.6128 O   0  0  0  1  0  0  0  0  0  0  0  0
   13.8843   -5.7637   -1.2816 O   0  0  0  1  0  0  0  0  0  0  0  0
   13.2919   -5.0276   -1.4513 H   0  0  0  1  0  0  0  0  0  0  0  0
   15.4770   -5.1233   -4.5019 O   0  0  0  1  0  0  0  0  0  0  0  0
   15.2635   -5.9073   -5.0132 H   0  0  0  1  0  0  0  0  0  0  0  0
   15.4128   -1.5276   -2.0232 C   0  0  0  1  0  0  0  0  0  0  0  0
   14.4878   -1.1698   -2.4247 H   0  0  0  1  0  0  0  0  0  0  0  0
   16.2161   -0.9179   -2.3809 H   0  0  0  1  0  0  0  0  0  0  0  0
   15.3787   -1.4828   -0.9547 H   0  0  0  1  0  0  0  0  0  0  0  0
   19.6242   -6.8365   -2.6487 C   0  0  0  1  0  0  0  0  0  0  0  0
   18.7316   -7.2405   -3.0788 H   0  0  0  1  0  0  0  0  0  0  0  0
   19.2559   -5.8804   -1.5243 C   0  0  0  1  0  0  0  0  0  0  0  0
   20.1463   -5.5257   -1.0485 H   0  0  0  1  0  0  0  0  0  0  0  0
   20.3566   -6.1405   -3.6475 O   0  0  0  1  0  0  0  0  0  0  0  0
   18.4845   -4.7021   -2.1105 C   0  0  0  1  0  0  0  0  0  0  0  0
   18.3130   -3.9785   -1.3411 H   0  0  0  1  0  0  0  0  0  0  0  0
   19.5892   -5.1073   -4.2914 C   0  0  0  1  0  0  0  0  0  0  0  0
   20.1606   -4.6670   -5.0817 H   0  0  0  1  0  0  0  0  0  0  0  0
   19.2605   -4.0532   -3.2363 C   0  0  0  1  0  0  0  0  0  0  0  0
   18.6701   -3.2774   -3.6772 H   0  0  0  1  0  0  0  0  0  0  0  0
   18.4240   -6.5722   -0.5464 N   0  0  0  1  0  0  0  0  0  0  0  0
   17.6653   -7.1149   -0.8467 H   0  0  0  1  0  0  0  0  0  0  0  0
   20.4727   -3.4967   -2.7226 O   0  0  0  1  0  0  0  0  0  0  0  0
   20.9591   -4.2237   -2.3270 H   0  0  0  1  0  0  0  0  0  0  0  0
   18.3208   -5.6847   -4.8514 C   0  0  0  1  0  0  0  0  0  0  0  0
   17.8580   -6.3211   -4.1265 H   0  0  0  1  0  0  0  0  0  0  0  0
   18.5350   -6.2474   -5.7359 H   0  0  0  1  0  0  0  0  0  0  0  0
   17.4589   -4.5984   -5.1642 O   0  0  0  1  0  0  0  0  0  0  0  0
   17.8895   -4.0550   -5.8282 H   0  0  0  1  0  0  0  0  0  0  0  0
   18.6940   -6.4675    0.7578 C   0  0  0  1  0  0  0  0  0  0  0  0
   19.6565   -5.8300    1.1831 O   0  0  0  1  0  0  0  0  0  0  0  0
   17.6910   -7.0906    1.7291 C   0  0  0  1  0  0  0  0  0  0  0  0
   17.0036   -7.6173    1.1007 H   0  0  0  1  0  0  0  0  0  0  0  0
   17.1861   -6.3320    2.2900 H   0  0  0  1  0  0  0  0  0  0  0  0
   18.1822   -7.7637    2.4003 H   0  0  0  1  0  0  0  0  0  0  0  0
  1  2  1  0  0  0  0
  1  3  1  0  0  0  0
  1  4  1  0  0  0  0
  1 44  1  0  0  0  0
  3 20  1  0  0  0  0
  4  5  1  0  0  0  0
  4  6  1  0  0  0  0
  4  8  1  0  0  0  0
  6  7  1  0  0  0  0
  8  9  1  0  0  0  0
  8 10  1  0  0  0  0
  8 20  1  0  0  0  0
 10 11  1  0  0  0  0
 12 13  1  0  0  0  0
 12 14  1  0  0  0  0
 12 15  1  0  0  0  0
 12 17  1  0  0  0  0
 15 16  1  0  0  0  0
 17 18  1  0  0  0  0
 17 19  1  0  0  0  0
 17 20  1  0  0  0  0
 19 22  1  0  0  0  0
 20 21  1  0  0  0  0
 22 23  1  0  0  0  0
 22 24  1  0  0  0  0
 22 25  1  0  0  0  0
 24 42  1  0  0  0  0
 25 26  1  0  0  0  0
 25 27  1  0  0  0  0
 25 29  1  0  0  0  0
 27 28  1  0  0  0  0
 29 30  1  0  0  0  0
 29 31  1  0  0  0  0
 29 42  1  0  0  0  0
 31 32  1  0  0  0  0
 33 34  1  0  0  0  0
 33 35  1  0  0  0  0
 33 36  1  0  0  0  0
 33 38  1  0  0  0  0
 36 37  1  0  0  0  0
 38 39  1  0  0  0  0
 38 40  1  0  0  0  0
 38 42  1  0  0  0  0
 40 41  1  0  0  0  0
 42 43  1  0  0  0  0
 44194  1  0  0  0  0
 45 46  1  0  0  0  0
 45 54  1  0  0  0  0
 46 47  1  0  0  0  0
 46 48  1  0  0  0  0
 46 49  2  0  0  0  0
 47 50  1  0  0  0  0
 50 51  1  0  0  0  0
 50 52  1  0  0  0  0
 50 53  2  0  0  0  0
 51205  1  0  0  0  0
 54 55  1  0  0  0  0
 54 56  1  0  0  0  0
 54 57  1  0  0  0  0
 57 58  1  0  0  0  0
 57 59  2  0  0  0  0
 59 60  1  0  0  0  0
 59 64  1  0  0  0  0
 60 61  1  0  0  0  0
 60 62  1  0  0  0  0
 60 63  1  0  0  0  0
 64 65  1  0  0  0  0
 64 66  1  0  0  0  0
 64 67  1  0  0  0  0
 67 68  1  0  0  0  0
 67 69  1  0  0  0  0
 67 70  1  0  0  0  0
 70 71  1  0  0  0  0
 70 72  2  0  0  0  0
 72 73  1  0  0  0  0
 72 77  1  0  0  0  0
 73 74  1  0  0  0  0
 73 75  1  0  0  0  0
 73 76  1  0  0  0  0
 77 78  1  0  0  0  0
 77 79  1  0  0  0  0
 77 80  1  0  0  0  0
 80 81  1  0  0  0  0
 80 82  1  0  0  0  0
 80 83  1  0  0  0  0
 83 84  1  0  0  0  0
 83 85  2  0  0  0  0
 85 86  1  0  0  0  0
 85 89  1  0  0  0  0
 86 87  1  0  0  0  0
 86 88  1  0  0  0  0
 86 93  1  0  0  0  0
 89 90  1  0  0  0  0
 89 91  1  0  0  0  0
 89 92  1  0  0  0  0
 93 94  1  0  0  0  0
 93 95  1  0  0  0  0
 93 96  1  0  0  0  0
 96 97  1  0  0  0  0
 96 98  2  0  0  0  0
 98 99  1  0  0  0  0
 98102  1  0  0  0  0
 99100  1  0  0  0  0
 99101  1  0  0  0  0
 99106  1  0  0  0  0
102103  1  0  0  0  0
102104  1  0  0  0  0
102105  1  0  0  0  0
106107  1  0  0  0  0
106108  1  0  0  0  0
106109  1  0  0  0  0
109110  1  0  0  0  0
109111  2  0  0  0  0
111112  1  0  0  0  0
111115  1  0  0  0  0
112113  1  0  0  0  0
112114  1  0  0  0  0
112119  1  0  0  0  0
115116  1  0  0  0  0
115117  1  0  0  0  0
115118  1  0  0  0  0
119120  1  0  0  0  0
119121  1  0  0  0  0
119122  1  0  0  0  0
122123  1  0  0  0  0
122124  2  0  0  0  0
124125  1  0  0  0  0
124128  1  0  0  0  0
125126  1  0  0  0  0
125127  1  0  0  0  0
125132  1  0  0  0  0
128129  1  0  0  0  0
128130  1  0  0  0  0
128131  1  0  0  0  0
132133  1  0  0  0  0
132134  1  0  0  0  0
132135  1  0  0  0  0
135136  1  0  0  0  0
135137  2  0  0  0  0
137138  1  0  0  0  0
137141  1  0  0  0  0
138139  1  0  0  0  0
138140  1  0  0  0  0
138145  1  0  0  0  0
141142  1  0  0  0  0
141143  1  0  0  0  0
141144  1  0  0  0  0
145146  1  0  0  0  0
145147  1  0  0  0  0
145148  1  0  0  0  0
148149  1  0  0  0  0
148150  2  0  0  0  0
150151  1  0  0  0  0
150154  1  0  0  0  0
151152  1  0  0  0  0
151153  1  0  0  0  0
151158  1  0  0  0  0
154155  1  0  0  0  0
154156  1  0  0  0  0
154157  1  0  0  0  0
158159  1  0  0  0  0
158160  1  0  0  0  0
158161  1  0  0  0  0
161162  1  0  0  0  0
161163  2  0  0  0  0
163164  1  0  0  0  0
163167  1  0  0  0  0
164165  1  0  0  0  0
164166  1  0  0  0  0
164171  1  0  0  0  0
167168  1  0  0  0  0
167169  1  0  0  0  0
167170  1  0  0  0  0
171172  1  0  0  0  0
171173  1  0  0  0  0
171174  1  0  0  0  0
174175  1  0  0  0  0
174176  2  0  0  0  0
176177  1  0  0  0  0
176181  1  0  0  0  0
177178  1  0  0  0  0
177179  1  0  0  0  0
177180  1  0  0  0  0
181182  1  0  0  0  0
181183  1  0  0  0  0
181184  1  0  0  0  0
185186  1  0  0  0  0
185187  1  0  0  0  0
185189  1  0  0  0  0
185196  1  0  0  0  0
187188  1  0  0  0  0
187190  1  0  0  0  0
187197  1  0  0  0  0
189192  1  0  0  0  0
190191  1  0  0  0  0
190194  1  0  0  0  0
190199  1  0  0  0  0
192193  1  0  0  0  0
192194  1  0  0  0  0
192201  1  0  0  0  0
194195  1  0  0  0  0
196210  1  0  0  0  0
197198  1  0  0  0  0
199200  1  0  0  0  0
201202  1  0  0  0  0
201203  1  0  0  0  0
201204  1  0  0  0  0
205206  1  0  0  0  0
205207  1  0  0  0  0
205209  1  0  0  0  0
207208  1  0  0  0  0
207210  1  0  0  0  0
207216  1  0  0  0  0
209212  1  0  0  0  0
210211  1  0  0  0  0
210214  1  0  0  0  0
212213  1  0  0  0  0
212214  1  0  0  0  0
212220  1  0  0  0  0
214215  1  0  0  0  0
214218  1  0  0  0  0
216217  1  0  0  0  0
216225  1  0  0  0  0
218219  1  0  0  0  0
220221  1  0  0  0  0
220222  1  0  0  0  0
220223  1  0  0  0  0
223224  1  0  0  0  0
225226  2  0  0  0  0
225227  1  0  0  0  0
227228  1  0  0  0  0
227229  1  0  0  0  0
227230  1  0  0  0  0
M  BCL ATM C_TeTeTeTe H_S O_Te2Te2TeTe C_TeTeTeTe H_S O_Te2Te2TeTe H_S C_TeTeTeTe H_S O_Te2Te2TeTe H_S C_TeTeTeTe H_S H_S O_Te2Te2TeTe H_S C_TeTeTeTe H_S O_Te2Te2TeTe C_TeTeTeTe H_S C_TeTeTeTe H_S O_Te2Te2TeTe C_TeTeTeTe H_S O_Te2Te2TeTe H_S C_TeTeTeTe H_S O_Te2Te2TeTe H_S C_TeTeTeTe H_S H_S O_Te2Te2TeTe H_S C_TeTeTeTe H_S O_Te2Te2TeTe H_S C_TeTeTeTe H_S O_Te2Te2TeTe O_Tr2TrTrPi2 P_TeTeTeTePi O_Tr2TrTrPi2 O_Te2Te2TeTe O_Tr2Tr2TrPi P_TeTeTeTePi O_Tr2TrTrPi2 O_Te2Te2TeTe O_Tr2Tr2TrPi C_TeTeTeTe H_S H_S C_TrTrTrPi H_S C_TrTrTrPi C_TeTeTeTe H_S H_S H_S C_TeTeTeTe H_S H_S C_TeTeTeTe H_S H_S C_TrTrTrPi H_S C_TrTrTrPi C_TeTeTeTe H_S H_S H_S C_TeTeTeTe H_S H_S C_TeTeTeTe H_S H_S C_TrTrTrPi H_S C_TrTrTrPi C_TeTeTeTe H_S H_S C_TeTeTeTe H_S H_S H_S C_TeTeTeTe H_S H_S C_TrTrTrPi H_S C_TrTrTrPi C_TeTeTeTe H_S H_S C_TeTeTeTe H_S H_S H_S C_TeTeTeTe H_S H_S C_TrTrTrPi H_S C_TrTrTrPi C_TeTeTeTe H_S H_S C_TeTeTeTe H_S H_S H_S C_TeTeTeTe H_S H_S C_TrTrTrPi H_S C_TrTrTrPi C_TeTeTeTe H_S H_S C_TeTeTeTe H_S H_S H_S C_TeTeTeTe H_S H_S C_TrTrTrPi H_S C_TrTrTrPi C_TeTeTeTe H_S H_S C_TeTeTeTe H_S H_S H_S C_TeTeTeTe H_S H_S C_TrTrTrPi H_S C_TrTrTrPi C_TeTeTeTe H_S H_S C_TeTeTeTe H_S H_S H_S C_TeTeTeTe H_S H_S C_TrTrTrPi H_S C_TrTrTrPi C_TeTeTeTe H_S H_S C_TeTeTeTe H_S H_S H_S C_TeTeTeTe H_S H_S C_TrTrTrPi H_S C_TrTrTrPi C_TeTeTeTe H_S H_S H_S C_TeTeTeTe H_S H_S H_S C_TeTeTeTe H_S C_TeTeTeTe H_S O_Te2Te2TeTe C_TeTeTeTe H_S C_TeTeTeTe H_S C_TeTeTeTe H_S O_Te2Te2TeTe O_Te2Te2TeTe H_S O_Te2Te2TeTe H_S C_TeTeTeTe H_S H_S H_S C_TeTeTeTe H_S C_TeTeTeTe H_S O_Te2Te2TeTe C_TeTeTeTe H_S C_TeTeTeTe H_S C_TeTeTeTe H_S N_TrTrTrPi2 H_S O_Te2Te2TeTe H_S C_TeTeTeTe H_S H_S O_Te2Te2TeTe H_S C_TrTrTrPi O_Tr2Tr2TrPi C_TeTeTeTe H_S H_S H_S
M  BCL BND NonConjugatedSingleBond NonConjugatedSingleBondInRing NonConjugatedSingleBondInRing NonConjugatedSingleBond NonConjugatedSingleBondInRing NonConjugatedSingleBond NonConjugatedSingleBond NonConjugatedSingleBondInRing NonConjugatedSingleBond NonConjugatedSingleBond NonConjugatedSingleBond NonConjugatedSingleBondInRing NonConjugatedSingleBond NonConjugatedSingleBond NonConjugatedSingleBond NonConjugatedSingleBond NonConjugatedSingleBond NonConjugatedSingleBond NonConjugatedSingleBond NonConjugatedSingleBond NonConjugatedSingleBond NonConjugatedSingleBond NonConjugatedSingleBond NonConjugatedSingleBond NonConjugatedSingleBondInRing NonConjugatedSingleBondInRing NonConjugatedSingleBondInRing NonConjugatedSingleBond NonConjugatedSingleBond NonConjugatedSingleBondInRing NonConjugatedSingleBond NonConjugatedSingleBond NonConjugatedSingleBond NonConjugatedSingleBondInRing NonConjugatedSingleBond NonConjugatedSingleBond NonConjugatedSingleBond NonConjugatedSingleBond NonConjugatedSingleBond NonConjugatedSingleBond NonConjugatedSingleBond NonConjugatedSingleBond NonConjugatedSingleBond NonConjugatedSingleBond NonConjugatedSingleBond NonConjugatedSingleBond ConjugatedSingleBond NonConjugatedSingleBond ConjugatedSingleBond ConjugatedSingleBond ConjugatedDoubleBond ConjugatedSingleBond ConjugatedSingleBond ConjugatedSingleBond ConjugatedDoubleBond NonConjugatedSingleBond NonConjugatedSingleBond NonConjugatedSingleBond NonConjugatedSingleBond NonConjugatedSingleBond ConjugatedDoubleBond NonConjugatedSingleBond NonConjugatedSingleBond NonConjugatedSingleBond NonConjugatedSingleBond NonConjugatedSingleBond NonConjugatedSingleBond NonConjugatedSingleBond NonConjugatedSingleBond NonConjugatedSingleBond NonConjugatedSingleBond NonConjugatedSingleBond NonConjugatedSingleBond ConjugatedDoubleBond NonConjugatedSingleBond NonConjugatedSingleBond NonConjugatedSingleBond NonConjugatedSingleBond NonConjugatedSingleBond NonConjugatedSingleBond NonConjugatedSingleBond NonConjugatedSingleBond NonConjugatedSingleBond NonConjugatedSingleBond NonConjugatedSingleBond NonConjugatedSingleBond ConjugatedDoubleBond NonConjugatedSingleBond NonConjugatedSingleBond NonConjugatedSingleBond NonConjugatedSingleBond NonConjugatedSingleBond NonConjugatedSingleBond NonConjugatedSingleBond NonConjugatedSingleBond NonConjugatedSingleBond NonConjugatedSingleBond NonConjugatedSingleBond NonConjugatedSingleBond ConjugatedDoubleBond NonConjugatedSingleBond NonConjugatedSingleBond NonConjugatedSingleBond NonConjugatedSingleBond NonConjugatedSingleBond NonConjugatedSingleBond NonConjugatedSingleBond NonConjugatedSingleBond NonConjugatedSingleBond NonConjugatedSingleBond NonConjugatedSingleBond NonConjugatedSingleBond ConjugatedDoubleBond NonConjugatedSingleBond NonConjugatedSingleBond NonConjugatedSingleBond NonConjugatedSingleBond NonConjugatedSingleBond NonConjugatedSingleBond NonConjugatedSingleBond NonConjugatedSingleBond NonConjugatedSingleBond NonConjugatedSingleBond NonConjugatedSingleBond NonConjugatedSingleBond ConjugatedDoubleBond NonConjugatedSingleBond NonConjugatedSingleBond NonConjugatedSingleBond NonConjugatedSingleBond NonConjugatedSingleBond NonConjugatedSingleBond NonConjugatedSingleBond NonConjugatedSingleBond NonConjugatedSingleBond NonConjugatedSingleBond NonConjugatedSingleBond NonConjugatedSingleBond ConjugatedDoubleBond NonConjugatedSingleBond NonConjugatedSingleBond NonConjugatedSingleBond NonConjugatedSingleBond NonConjugatedSingleBond NonConjugatedSingleBond NonConjugatedSingleBond NonConjugatedSingleBond NonConjugatedSingleBond NonConjugatedSingleBond NonConjugatedSingleBond NonConjugatedSingleBond ConjugatedDoubleBond NonConjugatedSingleBond NonConjugatedSingleBond NonConjugatedSingleBond NonConjugatedSingleBond NonConjugatedSingleBond NonConjugatedSingleBond NonConjugatedSingleBond NonConjugatedSingleBond NonConjugatedSingleBond NonConjugatedSingleBond NonConjugatedSingleBond NonConjugatedSingleBond ConjugatedDoubleBond NonConjugatedSingleBond NonConjugatedSingleBond NonConjugatedSingleBond NonConjugatedSingleBond NonConjugatedSingleBond NonConjugatedSingleBond NonConjugatedSingleBond NonConjugatedSingleBond NonConjugatedSingleBond NonConjugatedSingleBond NonConjugatedSingleBond NonConjugatedSingleBond ConjugatedDoubleBond NonConjugatedSingleBond NonConjugatedSingleBond NonConjugatedSingleBond NonConjugatedSingleBond NonConjugatedSingleBond NonConjugatedSingleBond NonConjugatedSingleBond NonConjugatedSingleBond NonConjugatedSingleBond NonConjugatedSingleBondInRing NonConjugatedSingleBondInRing NonConjugatedSingleBond NonConjugatedSingleBond NonConjugatedSingleBondInRing NonConjugatedSingleBond NonConjugatedSingleBondInRing NonConjugatedSingleBond NonConjugatedSingleBondInRing NonConjugatedSingleBond NonConjugatedSingleBond NonConjugatedSingleBondInRing NonConjugatedSingleBond NonConjugatedSingleBond NonConjugatedSingleBond NonConjugatedSingleBond NonConjugatedSingleBond NonConjugatedSingleBond NonConjugatedSingleBond NonConjugatedSingleBond NonConjugatedSingleBond NonConjugatedSingleBondInRing NonConjugatedSingleBondInRing NonConjugatedSingleBond NonConjugatedSingleBondInRing NonConjugatedSingleBond NonConjugatedSingleBondInRing NonConjugatedSingleBond NonConjugatedSingleBondInRing NonConjugatedSingleBond NonConjugatedSingleBondInRing NonConjugatedSingleBond NonConjugatedSingleBond NonConjugatedSingleBond NonConjugatedSingleBond AmideSingleBond NonConjugatedSingleBond NonConjugatedSingleBond NonConjugatedSingleBond NonConjugatedSingleBond NonConjugatedSingleBond ConjugatedDoubleBond NonConjugatedSingleBond NonConjugatedSingleBond NonConjugatedSingleBond NonConjugatedSingleBond
M  BCL CHI   1   R   4   R   8   R  17   S  20   R  22   S  25   R  29   S  38   S  42   R  46   R  50   S 185   R 187   S 190   S 192   R 194   R 205   R 207   S 210   R 212   S 214   S
M  BCL DBI - - E E E E E E E E Z - -
M  END
> <ConfClashScore>
0.0125425 

> <ConfOneFourInteractionScore>
-0.977009 

> <ConfScore>
1.35349 

> <ConfScorePBest>
0.00840348 

> <ConfTolerance>
3.46697 

$$$$
L05.****
  PyMOL2.5          3D                             0

230233  0  0  0  0  0  0  0  0999 V2000
   12.1079   -2.7277   -2.6718 C   0  0  0  1  0  0  0  0  0  0  0  0
   11.8200   -3.3121   -3.5206 H   0  0  0  1  0  0  0  0  0  0  0  0
   12.2869   -1.3275   -3.0446 O   0  0  0  1  0  0  0  0  0  0  0  0
   11.0032   -2.7012   -1.6406 C   0  0  0  1  0  0  0  0  0  0  0  0
   11.3980   -2.5256   -0.6617 H   0  0  0  1  0  0  0  0  0  0  0  0
   10.2702   -3.9273   -1.6462 O   0  0  0  1  0  0  0  0  0  0  0  0
    9.7760   -4.0089   -0.8272 H   0  0  0  1  0  0  0  0  0  0  0  0
   10.1188   -1.5316   -2.0930 C   0  0  0  1  0  0  0  0  0  0  0  0
    9.3650   -1.8605   -2.7776 H   0  0  0  1  0  0  0  0  0  0  0  0
    9.5093   -0.8991   -0.9900 O   0  0  0  1  0  0  0  0  0  0  0  0
    9.7260    0.0361   -0.9969 H   0  0  0  1  0  0  0  0  0  0  0  0
   10.1141   -1.1589   -5.0797 C   0  0  0  1  0  0  0  0  0  0  0  0
   10.9803   -1.6090   -5.5177 H   0  0  0  1  0  0  0  0  0  0  0  0
    9.5366   -1.9080   -4.5795 H   0  0  0  1  0  0  0  0  0  0  0  0
    9.3299   -0.5340   -6.0873 O   0  0  0  1  0  0  0  0  0  0  0  0
    9.8124    0.2111   -6.4527 H   0  0  0  1  0  0  0  0  0  0  0  0
   10.5339   -0.0771   -4.0890 C   0  0  0  1  0  0  0  0  0  0  0  0
    9.6432    0.4556   -3.8285 H   0  0  0  1  0  0  0  0  0  0  0  0
   11.4442    0.8581   -4.6559 O   0  0  0  1  0  0  0  0  0  0  0  0
   11.1230   -0.5950   -2.7832 C   0  0  0  1  0  0  0  0  0  0  0  0
   11.3499    0.2305   -2.1414 H   0  0  0  1  0  0  0  0  0  0  0  0
   12.6974    0.2989   -4.9957 C   0  0  0  1  0  0  0  0  0  0  0  0
   12.9754   -0.4276   -4.2610 H   0  0  0  1  0  0  0  0  0  0  0  0
   12.6222   -0.3049   -6.2564 O   0  0  0  1  0  0  0  0  0  0  0  0
   13.7615    1.4059   -5.0633 C   0  0  0  1  0  0  0  0  0  0  0  0
   14.6752    1.0910   -4.6041 H   0  0  0  1  0  0  0  0  0  0  0  0
   13.2998    2.6027   -4.4350 O   0  0  0  1  0  0  0  0  0  0  0  0
   12.9184    2.3893   -3.5802 H   0  0  0  1  0  0  0  0  0  0  0  0
   13.9428    1.6088   -6.5736 C   0  0  0  1  0  0  0  0  0  0  0  0
   14.9458    1.9033   -6.8020 H   0  0  0  1  0  0  0  0  0  0  0  0
   13.0350    2.5890   -7.0681 O   0  0  0  1  0  0  0  0  0  0  0  0
   12.1338    2.3094   -6.8912 H   0  0  0  1  0  0  0  0  0  0  0  0
   14.5623   -2.0338   -7.6464 C   0  0  0  1  0  0  0  0  0  0  0  0
   14.0737   -1.9619   -8.5956 H   0  0  0  1  0  0  0  0  0  0  0  0
   15.4886   -2.5571   -7.7603 H   0  0  0  1  0  0  0  0  0  0  0  0
   13.7312   -2.7887   -6.7764 O   0  0  0  1  0  0  0  0  0  0  0  0
   13.5669   -3.6532   -7.1602 H   0  0  0  1  0  0  0  0  0  0  0  0
   14.8703   -0.6220   -7.1621 C   0  0  0  1  0  0  0  0  0  0  0  0
   15.5594   -0.1909   -7.8580 H   0  0  0  1  0  0  0  0  0  0  0  0
   15.4731   -0.6369   -5.8792 O   0  0  0  1  0  0  0  0  0  0  0  0
   14.8108   -0.8460   -5.2164 H   0  0  0  1  0  0  0  0  0  0  0  0
   13.6348    0.2467   -7.1520 C   0  0  0  1  0  0  0  0  0  0  0  0
   13.2524    0.3354   -8.1474 H   0  0  0  1  0  0  0  0  0  0  0  0
   13.3050   -3.2577   -2.1143 O   0  0  0  1  0  0  0  0  0  0  0  0
   22.6610   -7.2919   -7.5048 O   0  0  0  1  0  0  0  0  0  0  0  0
   21.1548   -7.1211   -7.0822 P   0  0  0  1  0  0  0  0  0  0  0  0
   21.0653   -8.0495   -5.7734 O   0  0  0  1  0  0  0  0  0  0  0  0
   20.2640   -7.7240   -8.1393 O   0  0  0  0  0  0  0  0  0  0  0  0
   20.9749   -5.6788   -6.7676 O   0  0  0  1  0  0  0  0  0  0  0  0
   21.7976   -7.8388   -4.3713 P   0  0  0  1  0  0  0  0  0  0  0  0
   20.5199   -7.7012   -3.4632 O   0  0  0  1  0  0  0  0  0  0  0  0
   22.5752   -6.5765   -4.3574 O   0  0  0  0  0  0  0  0  0  0  0  0
   22.3781   -9.0952   -4.0051 O   0  0  0  1  0  0  0  0  0  0  0  0
   23.6398   -6.4090   -6.9348 C   0  0  0  1  0  0  0  0  0  0  0  0
   23.1904   -5.8691   -6.1277 H   0  0  0  1  0  0  0  0  0  0  0  0
   23.9652   -5.7213   -7.6872 H   0  0  0  1  0  0  0  0  0  0  0  0
   24.8314   -7.1574   -6.4138 C   0  0  0  1  0  0  0  0  0  0  0  0
   24.8560   -8.1797   -6.6034 H   0  0  0  1  0  0  0  0  0  0  0  0
   25.8577   -6.6561   -5.7370 C   0  0  0  1  0  0  0  0  0  0  0  0
   27.1291   -7.4321   -5.5602 C   0  0  0  1  0  0  0  0  0  0  0  0
   27.9324   -6.9166   -6.0438 H   0  0  0  1  0  0  0  0  0  0  0  0
   27.0168   -8.4038   -5.9938 H   0  0  0  1  0  0  0  0  0  0  0  0
   27.3450   -7.5294   -4.5167 H   0  0  0  1  0  0  0  0  0  0  0  0
   25.8556   -5.2998   -5.0956 C   0  0  0  1  0  0  0  0  0  0  0  0
   24.9790   -4.7811   -5.4232 H   0  0  0  1  0  0  0  0  0  0  0  0
   26.7266   -4.7755   -5.4294 H   0  0  0  1  0  0  0  0  0  0  0  0
   25.8610   -5.2980   -3.5756 C   0  0  0  1  0  0  0  0  0  0  0  0
   26.7327   -5.8249   -3.2480 H   0  0  0  1  0  0  0  0  0  0  0  0
   24.9852   -5.8141   -3.2418 H   0  0  0  1  0  0  0  0  0  0  0  0
   25.8717   -3.9372   -2.9321 C   0  0  0  1  0  0  0  0  0  0  0  0
   26.0469   -3.9103   -1.9073 H   0  0  0  1  0  0  0  0  0  0  0  0
   25.6815   -2.7654   -3.5320 C   0  0  0  1  0  0  0  0  0  0  0  0
   25.3860   -1.4668   -2.8393 C   0  0  0  1  0  0  0  0  0  0  0  0
   26.1373   -0.7481   -3.0921 H   0  0  0  1  0  0  0  0  0  0  0  0
   25.3817   -1.6205   -1.7805 H   0  0  0  1  0  0  0  0  0  0  0  0
   24.4282   -1.1061   -3.1518 H   0  0  0  1  0  0  0  0  0  0  0  0
   25.7591   -2.6847   -5.0281 C   0  0  0  1  0  0  0  0  0  0  0  0
   24.8347   -3.0475   -5.4266 H   0  0  0  1  0  0  0  0  0  0  0  0
   26.5599   -3.3164   -5.3515 H   0  0  0  1  0  0  0  0  0  0  0  0
   26.0005   -1.2948   -5.5940 C   0  0  0  1  0  0  0  0  0  0  0  0
   26.9401   -0.9287   -5.2364 H   0  0  0  1  0  0  0  0  0  0  0  0
   25.2164   -0.6430   -5.2696 H   0  0  0  1  0  0  0  0  0  0  0  0
   26.0239   -1.3277   -7.0892 C   0  0  0  1  0  0  0  0  0  0  0  0
   26.8829   -1.6910   -7.5491 H   0  0  0  1  0  0  0  0  0  0  0  0
   25.0289   -0.9273   -7.8736 C   0  0  0  1  0  0  0  0  0  0  0  0
   23.6294   -0.6871   -7.3867 C   0  0  0  1  0  0  0  0  0  0  0  0
   23.3334    0.2914   -7.7025 H   0  0  0  1  0  0  0  0  0  0  0  0
   23.6400   -0.7294   -6.3176 H   0  0  0  1  0  0  0  0  0  0  0  0
   25.2356   -0.6792   -9.3413 C   0  0  0  1  0  0  0  0  0  0  0  0
   26.0432   -1.2851   -9.6957 H   0  0  0  1  0  0  0  0  0  0  0  0
   25.4688    0.3531   -9.4989 H   0  0  0  1  0  0  0  0  0  0  0  0
   24.3421   -0.9291   -9.8743 H   0  0  0  1  0  0  0  0  0  0  0  0
   22.5876   -1.6756   -7.8847 C   0  0  0  1  0  0  0  0  0  0  0  0
   22.8382   -2.6487   -7.5170 H   0  0  0  1  0  0  0  0  0  0  0  0
   22.6081   -1.6819   -8.9545 H   0  0  0  1  0  0  0  0  0  0  0  0
   21.2067   -1.3417   -7.4391 C   0  0  0  1  0  0  0  0  0  0  0  0
   21.1549   -0.5005   -6.8298 H   0  0  0  1  0  0  0  0  0  0  0  0
   20.0276   -1.9097   -7.6687 C   0  0  0  1  0  0  0  0  0  0  0  0
   19.8439   -3.1355   -8.5179 C   0  0  0  1  0  0  0  0  0  0  0  0
   19.5641   -3.9571   -7.8921 H   0  0  0  1  0  0  0  0  0  0  0  0
   20.7656   -3.3610   -9.0125 H   0  0  0  1  0  0  0  0  0  0  0  0
   18.7618   -1.3558   -7.0829 C   0  0  0  1  0  0  0  0  0  0  0  0
   18.3634   -0.6078   -7.7361 H   0  0  0  1  0  0  0  0  0  0  0  0
   18.9715   -0.9204   -6.1283 H   0  0  0  1  0  0  0  0  0  0  0  0
   18.0480   -2.1444   -6.9668 H   0  0  0  1  0  0  0  0  0  0  0  0
   18.7607   -2.9116   -9.5604 C   0  0  0  1  0  0  0  0  0  0  0  0
   18.9289   -1.9641  -10.0282 H   0  0  0  1  0  0  0  0  0  0  0  0
   17.8107   -2.9033   -9.0681 H   0  0  0  1  0  0  0  0  0  0  0  0
   18.7391   -3.9665  -10.6176 C   0  0  0  1  0  0  0  0  0  0  0  0
   19.5802   -4.0817  -11.2183 H   0  0  0  1  0  0  0  0  0  0  0  0
   17.6990   -4.7643  -10.8282 C   0  0  0  1  0  0  0  0  0  0  0  0
   16.4515   -4.6555  -10.0004 C   0  0  0  1  0  0  0  0  0  0  0  0
   16.3904   -3.6552   -9.6254 H   0  0  0  1  0  0  0  0  0  0  0  0
   16.5379   -5.3391   -9.1818 H   0  0  0  1  0  0  0  0  0  0  0  0
   17.6603   -5.8304  -11.8867 C   0  0  0  1  0  0  0  0  0  0  0  0
   17.2190   -5.4338  -12.7771 H   0  0  0  1  0  0  0  0  0  0  0  0
   17.0779   -6.6576  -11.5382 H   0  0  0  1  0  0  0  0  0  0  0  0
   18.6564   -6.1588  -12.0983 H   0  0  0  1  0  0  0  0  0  0  0  0
   15.1551   -4.9619  -10.7324 C   0  0  0  1  0  0  0  0  0  0  0  0
   15.2809   -5.8882  -11.2529 H   0  0  0  1  0  0  0  0  0  0  0  0
   14.9808   -4.1765  -11.4379 H   0  0  0  1  0  0  0  0  0  0  0  0
   13.9420   -5.0808   -9.8654 C   0  0  0  1  0  0  0  0  0  0  0  0
   14.1008   -5.3929   -8.8861 H   0  0  0  1  0  0  0  0  0  0  0  0
   12.6834   -4.8311  -10.2108 C   0  0  0  1  0  0  0  0  0  0  0  0
   12.2931   -4.0767  -11.4501 C   0  0  0  1  0  0  0  0  0  0  0  0
   13.1838   -3.6759  -11.8869 H   0  0  0  1  0  0  0  0  0  0  0  0
   11.6464   -3.2755  -11.1589 H   0  0  0  1  0  0  0  0  0  0  0  0
   11.5312   -5.2951   -9.3687 C   0  0  0  1  0  0  0  0  0  0  0  0
   10.9948   -6.0614   -9.8884 H   0  0  0  1  0  0  0  0  0  0  0  0
   10.8770   -4.4710   -9.1747 H   0  0  0  1  0  0  0  0  0  0  0  0
   11.9003   -5.6839   -8.4427 H   0  0  0  1  0  0  0  0  0  0  0  0
   11.5769   -4.8946  -12.5124 C   0  0  0  1  0  0  0  0  0  0  0  0
   10.6326   -5.2099  -12.1204 H   0  0  0  1  0  0  0  0  0  0  0  0
   12.1734   -5.7531  -12.7408 H   0  0  0  1  0  0  0  0  0  0  0  0
   11.3369   -4.1318  -13.7764 C   0  0  0  1  0  0  0  0  0  0  0  0
   10.9181   -3.1834  -13.6940 H   0  0  0  1  0  0  0  0  0  0  0  0
   11.6192   -4.5759  -14.9979 C   0  0  0  1  0  0  0  0  0  0  0  0
   11.9015   -6.0362  -15.2009 C   0  0  0  1  0  0  0  0  0  0  0  0
   12.8864   -6.1395  -15.6061 H   0  0  0  1  0  0  0  0  0  0  0  0
   11.1870   -6.4280  -15.8943 H   0  0  0  1  0  0  0  0  0  0  0  0
   11.6870   -3.7327  -16.2439 C   0  0  0  1  0  0  0  0  0  0  0  0
   10.7302   -3.2905  -16.4284 H   0  0  0  1  0  0  0  0  0  0  0  0
   11.9620   -4.3472  -17.0755 H   0  0  0  1  0  0  0  0  0  0  0  0
   12.4168   -2.9613  -16.1129 H   0  0  0  1  0  0  0  0  0  0  0  0
   11.8203   -6.8426  -13.9150 C   0  0  0  1  0  0  0  0  0  0  0  0
   10.8866   -6.6411  -13.4329 H   0  0  0  1  0  0  0  0  0  0  0  0
   12.6245   -6.5562  -13.2699 H   0  0  0  1  0  0  0  0  0  0  0  0
   11.9187   -8.3075  -14.2007 C   0  0  0  1  0  0  0  0  0  0  0  0
   11.1722   -8.7351  -14.7851 H   0  0  0  1  0  0  0  0  0  0  0  0
   12.8887   -9.1034  -13.7634 C   0  0  0  1  0  0  0  0  0  0  0  0
   13.8458   -8.7273  -12.6641 C   0  0  0  1  0  0  0  0  0  0  0  0
   13.5961   -7.7363  -12.3473 H   0  0  0  1  0  0  0  0  0  0  0  0
   14.8308   -8.7312  -13.0820 H   0  0  0  1  0  0  0  0  0  0  0  0
   13.1076  -10.4706  -14.3477 C   0  0  0  1  0  0  0  0  0  0  0  0
   13.0104  -11.2076  -13.5782 H   0  0  0  1  0  0  0  0  0  0  0  0
   14.0889  -10.5244  -14.7709 H   0  0  0  1  0  0  0  0  0  0  0  0
   12.3793  -10.6531  -15.1101 H   0  0  0  1  0  0  0  0  0  0  0  0
   13.8740   -9.6074  -11.4251 C   0  0  0  1  0  0  0  0  0  0  0  0
   14.4593   -9.1193  -10.6739 H   0  0  0  1  0  0  0  0  0  0  0  0
   14.3286  -10.5415  -11.6811 H   0  0  0  1  0  0  0  0  0  0  0  0
   12.5128   -9.8775  -10.8671 C   0  0  0  1  0  0  0  0  0  0  0  0
   11.7680  -10.1111  -11.5544 H   0  0  0  1  0  0  0  0  0  0  0  0
   12.1518   -9.8512   -9.5886 C   0  0  0  1  0  0  0  0  0  0  0  0
   10.7212   -9.8142   -9.1260 C   0  0  0  1  0  0  0  0  0  0  0  0
   10.5477   -8.8640   -8.6656 H   0  0  0  1  0  0  0  0  0  0  0  0
   10.5880  -10.5912   -8.4026 H   0  0  0  1  0  0  0  0  0  0  0  0
   13.1689   -9.8567   -8.4852 C   0  0  0  1  0  0  0  0  0  0  0  0
   13.5913  -10.8397   -8.4906 H   0  0  0  1  0  0  0  0  0  0  0  0
   12.7007   -9.6561   -7.5443 H   0  0  0  1  0  0  0  0  0  0  0  0
   13.9259   -9.1236   -8.6710 H   0  0  0  1  0  0  0  0  0  0  0  0
    9.6789  -10.0044  -10.2159 C   0  0  0  1  0  0  0  0  0  0  0  0
    9.6817  -11.0364  -10.4987 H   0  0  0  1  0  0  0  0  0  0  0  0
    9.9642   -9.4036  -11.0540 H   0  0  0  1  0  0  0  0  0  0  0  0
    8.2713   -9.6312   -9.8347 C   0  0  0  1  0  0  0  0  0  0  0  0
    7.5511  -10.3747   -9.9355 H   0  0  0  1  0  0  0  0  0  0  0  0
    7.8473   -8.4500   -9.3815 C   0  0  0  1  0  0  0  0  0  0  0  0
    6.3970   -8.2086   -9.0789 C   0  0  0  1  0  0  0  0  0  0  0  0
    5.9094   -7.8247   -9.9506 H   0  0  0  1  0  0  0  0  0  0  0  0
    6.3124   -7.4998   -8.2819 H   0  0  0  1  0  0  0  0  0  0  0  0
    5.9355   -9.1292   -8.7887 H   0  0  0  1  0  0  0  0  0  0  0  0
    8.8088   -7.3087   -9.1547 C   0  0  0  1  0  0  0  0  0  0  0  0
    9.7261   -7.5618   -9.6442 H   0  0  0  1  0  0  0  0  0  0  0  0
    8.9782   -7.1759   -8.1066 H   0  0  0  1  0  0  0  0  0  0  0  0
    8.4099   -6.4065   -9.5692 H   0  0  0  1  0  0  0  0  0  0  0  0
   16.3126   -5.1029   -1.7912 C   0  0  0  1  0  0  0  0  0  0  0  0
   16.7373   -5.6368   -0.9669 H   0  0  0  1  0  0  0  0  0  0  0  0
   15.0199   -5.7729   -2.2110 C   0  0  0  1  0  0  0  0  0  0  0  0
   15.2219   -6.7725   -2.5349 H   0  0  0  1  0  0  0  0  0  0  0  0
   16.0569   -3.7568   -1.4003 O   0  0  0  1  0  0  0  0  0  0  0  0
   14.4049   -4.9807   -3.3534 C   0  0  0  1  0  0  0  0  0  0  0  0
   13.4150   -5.3474   -3.5279 H   0  0  0  1  0  0  0  0  0  0  0  0
   15.6410   -2.9539   -2.5260 C   0  0  0  1  0  0  0  0  0  0  0  0
   16.3875   -2.9980   -3.2912 H   0  0  0  1  0  0  0  0  0  0  0  0
   14.3253   -3.4899   -3.0690 C   0  0  0  1  0  0  0  0  0  0  0  0
   14.0888   -2.9753   -3.9768 H   0  0  0  1  0  0  0  0  0  0  0  0
   17.2252   -5.1116   -2.8840 O   0  0  0  1  0  0  0  0  0  0  0  0
   14.1144   -5.8034   -1.1062 O   0  0  0  1  0  0  0  0  0  0  0  0
   13.4718   -5.0962   -1.1990 H   0  0  0  1  0  0  0  0  0  0  0  0
   15.2017   -5.1789   -4.5261 O   0  0  0  1  0  0  0  0  0  0  0  0
   14.7239   -5.7322   -5.1484 H   0  0  0  1  0  0  0  0  0  0  0  0
   15.4572   -1.5222   -2.0830 C   0  0  0  1  0  0  0  0  0  0  0  0
   15.7211   -1.4313   -1.0500 H   0  0  0  1  0  0  0  0  0  0  0  0
   14.4347   -1.2364   -2.2162 H   0  0  0  1  0  0  0  0  0  0  0  0
   16.0856   -0.8844   -2.6689 H   0  0  0  1  0  0  0  0  0  0  0  0
   19.6185   -6.5999   -3.6260 C   0  0  0  1  0  0  0  0  0  0  0  0
   18.6795   -6.9582   -3.9932 H   0  0  0  1  0  0  0  0  0  0  0  0
   19.4087   -5.9156   -2.2836 C   0  0  0  1  0  0  0  0  0  0  0  0
   20.3539   -5.6149   -1.8823 H   0  0  0  1  0  0  0  0  0  0  0  0
   20.1665   -5.6743   -4.5541 O   0  0  0  1  0  0  0  0  0  0  0  0
   18.5253   -4.6886   -2.4874 C   0  0  0  1  0  0  0  0  0  0  0  0
   18.4596   -4.1479   -1.5664 H   0  0  0  1  0  0  0  0  0  0  0  0
   19.2816   -4.5772   -4.8446 C   0  0  0  1  0  0  0  0  0  0  0  0
   19.7099   -3.9532   -5.6009 H   0  0  0  1  0  0  0  0  0  0  0  0
   19.0975   -3.7807   -3.5546 C   0  0  0  1  0  0  0  0  0  0  0  0
   18.4258   -2.9664   -3.7295 H   0  0  0  1  0  0  0  0  0  0  0  0
   18.7554   -6.8436   -1.3549 N   0  0  0  1  0  0  0  0  0  0  0  0
   17.7800   -6.9240   -1.4059 H   0  0  0  1  0  0  0  0  0  0  0  0
   20.3565   -3.2741   -3.1239 O   0  0  0  1  0  0  0  0  0  0  0  0
   20.8639   -3.0958   -3.9191 H   0  0  0  1  0  0  0  0  0  0  0  0
   17.9557   -5.0998   -5.3176 C   0  0  0  1  0  0  0  0  0  0  0  0
   17.2322   -4.3121   -5.2890 H   0  0  0  1  0  0  0  0  0  0  0  0
   17.6399   -5.8983   -4.6791 H   0  0  0  1  0  0  0  0  0  0  0  0
   18.0786   -5.5815   -6.6524 O   0  0  0  1  0  0  0  0  0  0  0  0
   17.7196   -6.4713   -6.6848 H   0  0  0  1  0  0  0  0  0  0  0  0
   19.3887   -7.5866   -0.4459 C   0  0  0  1  0  0  0  0  0  0  0  0
   20.6011   -7.5449   -0.2542 O   0  0  0  1  0  0  0  0  0  0  0  0
   18.4829   -8.4485    0.4305 C   0  0  0  1  0  0  0  0  0  0  0  0
   18.9621   -9.4049    0.4493 H   0  0  0  1  0  0  0  0  0  0  0  0
   17.5043   -8.5238    0.0043 H   0  0  0  1  0  0  0  0  0  0  0  0
   18.4122   -8.0411    1.4174 H   0  0  0  1  0  0  0  0  0  0  0  0
  1  2  1  0  0  0  0
  1  3  1  0  0  0  0
  1  4  1  0  0  0  0
  1 44  1  0  0  0  0
  3 20  1  0  0  0  0
  4  5  1  0  0  0  0
  4  6  1  0  0  0  0
  4  8  1  0  0  0  0
  6  7  1  0  0  0  0
  8  9  1  0  0  0  0
  8 10  1  0  0  0  0
  8 20  1  0  0  0  0
 10 11  1  0  0  0  0
 12 13  1  0  0  0  0
 12 14  1  0  0  0  0
 12 15  1  0  0  0  0
 12 17  1  0  0  0  0
 15 16  1  0  0  0  0
 17 18  1  0  0  0  0
 17 19  1  0  0  0  0
 17 20  1  0  0  0  0
 19 22  1  0  0  0  0
 20 21  1  0  0  0  0
 22 23  1  0  0  0  0
 22 24  1  0  0  0  0
 22 25  1  0  0  0  0
 24 42  1  0  0  0  0
 25 26  1  0  0  0  0
 25 27  1  0  0  0  0
 25 29  1  0  0  0  0
 27 28  1  0  0  0  0
 29 30  1  0  0  0  0
 29 31  1  0  0  0  0
 29 42  1  0  0  0  0
 31 32  1  0  0  0  0
 33 34  1  0  0  0  0
 33 35  1  0  0  0  0
 33 36  1  0  0  0  0
 33 38  1  0  0  0  0
 36 37  1  0  0  0  0
 38 39  1  0  0  0  0
 38 40  1  0  0  0  0
 38 42  1  0  0  0  0
 40 41  1  0  0  0  0
 42 43  1  0  0  0  0
 44194  1  0  0  0  0
 45 46  1  0  0  0  0
 45 54  1  0  0  0  0
 46 47  1  0  0  0  0
 46 48  1  0  0  0  0
 46 49  2  0  0  0  0
 47 50  1  0  0  0  0
 50 51  1  0  0  0  0
 50 52  1  0  0  0  0
 50 53  2  0  0  0  0
 51205  1  0  0  0  0
 54 55  1  0  0  0  0
 54 56  1  0  0  0  0
 54 57  1  0  0  0  0
 57 58  1  0  0  0  0
 57 59  2  0  0  0  0
 59 60  1  0  0  0  0
 59 64  1  0  0  0  0
 60 61  1  0  0  0  0
 60 62  1  0  0  0  0
 60 63  1  0  0  0  0
 64 65  1  0  0  0  0
 64 66  1  0  0  0  0
 64 67  1  0  0  0  0
 67 68  1  0  0  0  0
 67 69  1  0  0  0  0
 67 70  1  0  0  0  0
 70 71  1  0  0  0  0
 70 72  2  0  0  0  0
 72 73  1  0  0  0  0
 72 77  1  0  0  0  0
 73 74  1  0  0  0  0
 73 75  1  0  0  0  0
 73 76  1  0  0  0  0
 77 78  1  0  0  0  0
 77 79  1  0  0  0  0
 77 80  1  0  0  0  0
 80 81  1  0  0  0  0
 80 82  1  0  0  0  0
 80 83  1  0  0  0  0
 83 84  1  0  0  0  0
 83 85  2  0  0  0  0
 85 86  1  0  0  0  0
 85 89  1  0  0  0  0
 86 87  1  0  0  0  0
 86 88  1  0  0  0  0
 86 93  1  0  0  0  0
 89 90  1  0  0  0  0
 89 91  1  0  0  0  0
 89 92  1  0  0  0  0
 93 94  1  0  0  0  0
 93 95  1  0  0  0  0
 93 96  1  0  0  0  0
 96 97  1  0  0  0  0
 96 98  2  0  0  0  0
 98 99  1  0  0  0  0
 98102  1  0  0  0  0
 99100  1  0  0  0  0
 99101  1  0  0  0  0
 99106  1  0  0  0  0
102103  1  0  0  0  0
102104  1  0  0  0  0
102105  1  0  0  0  0
106107  1  0  0  0  0
106108  1  0  0  0  0
106109  1  0  0  0  0
109110  1  0  0  0  0
109111  2  0  0  0  0
111112  1  0  0  0  0
111115  1  0  0  0  0
112113  1  0  0  0  0
112114  1  0  0  0  0
112119  1  0  0  0  0
115116  1  0  0  0  0
115117  1  0  0  0  0
115118  1  0  0  0  0
119120  1  0  0  0  0
119121  1  0  0  0  0
119122  1  0  0  0  0
122123  1  0  0  0  0
122124  2  0  0  0  0
124125  1  0  0  0  0
124128  1  0  0  0  0
125126  1  0  0  0  0
125127  1  0  0  0  0
125132  1  0  0  0  0
128129  1  0  0  0  0
128130  1  0  0  0  0
128131  1  0  0  0  0
132133  1  0  0  0  0
132134  1  0  0  0  0
132135  1  0  0  0  0
135136  1  0  0  0  0
135137  2  0  0  0  0
137138  1  0  0  0  0
137141  1  0  0  0  0
138139  1  0  0  0  0
138140  1  0  0  0  0
138145  1  0  0  0  0
141142  1  0  0  0  0
141143  1  0  0  0  0
141144  1  0  0  0  0
145146  1  0  0  0  0
145147  1  0  0  0  0
145148  1  0  0  0  0
148149  1  0  0  0  0
148150  2  0  0  0  0
150151  1  0  0  0  0
150154  1  0  0  0  0
151152  1  0  0  0  0
151153  1  0  0  0  0
151158  1  0  0  0  0
154155  1  0  0  0  0
154156  1  0  0  0  0
154157  1  0  0  0  0
158159  1  0  0  0  0
158160  1  0  0  0  0
158161  1  0  0  0  0
161162  1  0  0  0  0
161163  2  0  0  0  0
163164  1  0  0  0  0
163167  1  0  0  0  0
164165  1  0  0  0  0
164166  1  0  0  0  0
164171  1  0  0  0  0
167168  1  0  0  0  0
167169  1  0  0  0  0
167170  1  0  0  0  0
171172  1  0  0  0  0
171173  1  0  0  0  0
171174  1  0  0  0  0
174175  1  0  0  0  0
174176  2  0  0  0  0
176177  1  0  0  0  0
176181  1  0  0  0  0
177178  1  0  0  0  0
177179  1  0  0  0  0
177180  1  0  0  0  0
181182  1  0  0  0  0
181183  1  0  0  0  0
181184  1  0  0  0  0
185186  1  0  0  0  0
185187  1  0  0  0  0
185189  1  0  0  0  0
185196  1  0  0  0  0
187188  1  0  0  0  0
187190  1  0  0  0  0
187197  1  0  0  0  0
189192  1  0  0  0  0
190191  1  0  0  0  0
190194  1  0  0  0  0
190199  1  0  0  0  0
192193  1  0  0  0  0
192194  1  0  0  0  0
192201  1  0  0  0  0
194195  1  0  0  0  0
196210  1  0  0  0  0
197198  1  0  0  0  0
199200  1  0  0  0  0
201202  1  0  0  0  0
201203  1  0  0  0  0
201204  1  0  0  0  0
205206  1  0  0  0  0
205207  1  0  0  0  0
205209  1  0  0  0  0
207208  1  0  0  0  0
207210  1  0  0  0  0
207216  1  0  0  0  0
209212  1  0  0  0  0
210211  1  0  0  0  0
210214  1  0  0  0  0
212213  1  0  0  0  0
212214  1  0  0  0  0
212220  1  0  0  0  0
214215  1  0  0  0  0
214218  1  0  0  0  0
216217  1  0  0  0  0
216225  1  0  0  0  0
218219  1  0  0  0  0
220221  1  0  0  0  0
220222  1  0  0  0  0
220223  1  0  0  0  0
223224  1  0  0  0  0
225226  2  0  0  0  0
225227  1  0  0  0  0
227228  1  0  0  0  0
227229  1  0  0  0  0
227230  1  0  0  0  0
M  BCL ATM C_TeTeTeTe H_S O_Te2Te2TeTe C_TeTeTeTe H_S O_Te2Te2TeTe H_S C_TeTeTeTe H_S O_Te2Te2TeTe H_S C_TeTeTeTe H_S H_S O_Te2Te2TeTe H_S C_TeTeTeTe H_S O_Te2Te2TeTe C_TeTeTeTe H_S C_TeTeTeTe H_S O_Te2Te2TeTe C_TeTeTeTe H_S O_Te2Te2TeTe H_S C_TeTeTeTe H_S O_Te2Te2TeTe H_S C_TeTeTeTe H_S H_S O_Te2Te2TeTe H_S C_TeTeTeTe H_S O_Te2Te2TeTe H_S C_TeTeTeTe H_S O_Te2Te2TeTe O_Tr2TrTrPi2 P_TeTeTeTePi O_Tr2TrTrPi2 O_Te2Te2TeTe O_Tr2Tr2TrPi P_TeTeTeTePi O_Tr2TrTrPi2 O_Te2Te2TeTe O_Tr2Tr2TrPi C_TeTeTeTe H_S H_S C_TrTrTrPi H_S C_TrTrTrPi C_TeTeTeTe H_S H_S H_S C_TeTeTeTe H_S H_S C_TeTeTeTe H_S H_S C_TrTrTrPi H_S C_TrTrTrPi C_TeTeTeTe H_S H_S H_S C_TeTeTeTe H_S H_S C_TeTeTeTe H_S H_S C_TrTrTrPi H_S C_TrTrTrPi C_TeTeTeTe H_S H_S C_TeTeTeTe H_S H_S H_S C_TeTeTeTe H_S H_S C_TrTrTrPi H_S C_TrTrTrPi C_TeTeTeTe H_S H_S C_TeTeTeTe H_S H_S H_S C_TeTeTeTe H_S H_S C_TrTrTrPi H_S C_TrTrTrPi C_TeTeTeTe H_S H_S C_TeTeTeTe H_S H_S H_S C_TeTeTeTe H_S H_S C_TrTrTrPi H_S C_TrTrTrPi C_TeTeTeTe H_S H_S C_TeTeTeTe H_S H_S H_S C_TeTeTeTe H_S H_S C_TrTrTrPi H_S C_TrTrTrPi C_TeTeTeTe H_S H_S C_TeTeTeTe H_S H_S H_S C_TeTeTeTe H_S H_S C_TrTrTrPi H_S C_TrTrTrPi C_TeTeTeTe H_S H_S C_TeTeTeTe H_S H_S H_S C_TeTeTeTe H_S H_S C_TrTrTrPi H_S C_TrTrTrPi C_TeTeTeTe H_S H_S C_TeTeTeTe H_S H_S H_S C_TeTeTeTe H_S H_S C_TrTrTrPi H_S C_TrTrTrPi C_TeTeTeTe H_S H_S H_S C_TeTeTeTe H_S H_S H_S C_TeTeTeTe H_S C_TeTeTeTe H_S O_Te2Te2TeTe C_TeTeTeTe H_S C_TeTeTeTe H_S C_TeTeTeTe H_S O_Te2Te2TeTe O_Te2Te2TeTe H_S O_Te2Te2TeTe H_S C_TeTeTeTe H_S H_S H_S C_TeTeTeTe H_S C_TeTeTeTe H_S O_Te2Te2TeTe C_TeTeTeTe H_S C_TeTeTeTe H_S C_TeTeTeTe H_S N_TrTrTrPi2 H_S O_Te2Te2TeTe H_S C_TeTeTeTe H_S H_S O_Te2Te2TeTe H_S C_TrTrTrPi O_Tr2Tr2TrPi C_TeTeTeTe H_S H_S H_S
M  BCL BND NonConjugatedSingleBond NonConjugatedSingleBondInRing NonConjugatedSingleBondInRing NonConjugatedSingleBond NonConjugatedSingleBondInRing NonConjugatedSingleBond NonConjugatedSingleBond NonConjugatedSingleBondInRing NonConjugatedSingleBond NonConjugatedSingleBond NonConjugatedSingleBond NonConjugatedSingleBondInRing NonConjugatedSingleBond NonConjugatedSingleBond NonConjugatedSingleBond NonConjugatedSingleBond NonConjugatedSingleBond NonConjugatedSingleBond NonConjugatedSingleBond NonConjugatedSingleBond NonConjugatedSingleBond NonConjugatedSingleBond NonConjugatedSingleBond NonConjugatedSingleBond NonConjugatedSingleBondInRing NonConjugatedSingleBondInRing NonConjugatedSingleBondInRing NonConjugatedSingleBond NonConjugatedSingleBond NonConjugatedSingleBondInRing NonConjugatedSingleBond NonConjugatedSingleBond NonConjugatedSingleBond NonConjugatedSingleBondInRing NonConjugatedSingleBond NonConjugatedSingleBond NonConjugatedSingleBond NonConjugatedSingleBond NonConjugatedSingleBond NonConjugatedSingleBond NonConjugatedSingleBond NonConjugatedSingleBond NonConjugatedSingleBond NonConjugatedSingleBond NonConjugatedSingleBond NonConjugatedSingleBond ConjugatedSingleBond NonConjugatedSingleBond ConjugatedSingleBond ConjugatedSingleBond ConjugatedDoubleBond ConjugatedSingleBond ConjugatedSingleBond ConjugatedSingleBond ConjugatedDoubleBond NonConjugatedSingleBond NonConjugatedSingleBond NonConjugatedSingleBond NonConjugatedSingleBond NonConjugatedSingleBond ConjugatedDoubleBond NonConjugatedSingleBond NonConjugatedSingleBond NonConjugatedSingleBond NonConjugatedSingleBond NonConjugatedSingleBond NonConjugatedSingleBond NonConjugatedSingleBond NonConjugatedSingleBond NonConjugatedSingleBond NonConjugatedSingleBond NonConjugatedSingleBond NonConjugatedSingleBond ConjugatedDoubleBond NonConjugatedSingleBond NonConjugatedSingleBond NonConjugatedSingleBond NonConjugatedSingleBond NonConjugatedSingleBond NonConjugatedSingleBond NonConjugatedSingleBond NonConjugatedSingleBond NonConjugatedSingleBond NonConjugatedSingleBond NonConjugatedSingleBond NonConjugatedSingleBond ConjugatedDoubleBond NonConjugatedSingleBond NonConjugatedSingleBond NonConjugatedSingleBond NonConjugatedSingleBond NonConjugatedSingleBond NonConjugatedSingleBond NonConjugatedSingleBond NonConjugatedSingleBond NonConjugatedSingleBond NonConjugatedSingleBond NonConjugatedSingleBond NonConjugatedSingleBond ConjugatedDoubleBond NonConjugatedSingleBond NonConjugatedSingleBond NonConjugatedSingleBond NonConjugatedSingleBond NonConjugatedSingleBond NonConjugatedSingleBond NonConjugatedSingleBond NonConjugatedSingleBond NonConjugatedSingleBond NonConjugatedSingleBond NonConjugatedSingleBond NonConjugatedSingleBond ConjugatedDoubleBond NonConjugatedSingleBond NonConjugatedSingleBond NonConjugatedSingleBond NonConjugatedSingleBond NonConjugatedSingleBond NonConjugatedSingleBond NonConjugatedSingleBond NonConjugatedSingleBond NonConjugatedSingleBond NonConjugatedSingleBond NonConjugatedSingleBond NonConjugatedSingleBond ConjugatedDoubleBond NonConjugatedSingleBond NonConjugatedSingleBond NonConjugatedSingleBond NonConjugatedSingleBond NonConjugatedSingleBond NonConjugatedSingleBond NonConjugatedSingleBond NonConjugatedSingleBond NonConjugatedSingleBond NonConjugatedSingleBond NonConjugatedSingleBond NonConjugatedSingleBond ConjugatedDoubleBond NonConjugatedSingleBond NonConjugatedSingleBond NonConjugatedSingleBond NonConjugatedSingleBond NonConjugatedSingleBond NonConjugatedSingleBond NonConjugatedSingleBond NonConjugatedSingleBond NonConjugatedSingleBond NonConjugatedSingleBond NonConjugatedSingleBond NonConjugatedSingleBond ConjugatedDoubleBond NonConjugatedSingleBond NonConjugatedSingleBond NonConjugatedSingleBond NonConjugatedSingleBond NonConjugatedSingleBond NonConjugatedSingleBond NonConjugatedSingleBond NonConjugatedSingleBond NonConjugatedSingleBond NonConjugatedSingleBond NonConjugatedSingleBond NonConjugatedSingleBond ConjugatedDoubleBond NonConjugatedSingleBond NonConjugatedSingleBond NonConjugatedSingleBond NonConjugatedSingleBond NonConjugatedSingleBond NonConjugatedSingleBond NonConjugatedSingleBond NonConjugatedSingleBond NonConjugatedSingleBond NonConjugatedSingleBond NonConjugatedSingleBond NonConjugatedSingleBond ConjugatedDoubleBond NonConjugatedSingleBond NonConjugatedSingleBond NonConjugatedSingleBond NonConjugatedSingleBond NonConjugatedSingleBond NonConjugatedSingleBond NonConjugatedSingleBond NonConjugatedSingleBond NonConjugatedSingleBond NonConjugatedSingleBondInRing NonConjugatedSingleBondInRing NonConjugatedSingleBond NonConjugatedSingleBond NonConjugatedSingleBondInRing NonConjugatedSingleBond NonConjugatedSingleBondInRing NonConjugatedSingleBond NonConjugatedSingleBondInRing NonConjugatedSingleBond NonConjugatedSingleBond NonConjugatedSingleBondInRing NonConjugatedSingleBond NonConjugatedSingleBond NonConjugatedSingleBond NonConjugatedSingleBond NonConjugatedSingleBond NonConjugatedSingleBond NonConjugatedSingleBond NonConjugatedSingleBond NonConjugatedSingleBond NonConjugatedSingleBondInRing NonConjugatedSingleBondInRing NonConjugatedSingleBond NonConjugatedSingleBondInRing NonConjugatedSingleBond NonConjugatedSingleBondInRing NonConjugatedSingleBond NonConjugatedSingleBondInRing NonConjugatedSingleBond NonConjugatedSingleBondInRing NonConjugatedSingleBond NonConjugatedSingleBond NonConjugatedSingleBond NonConjugatedSingleBond AmideSingleBond NonConjugatedSingleBond NonConjugatedSingleBond NonConjugatedSingleBond NonConjugatedSingleBond NonConjugatedSingleBond ConjugatedDoubleBond NonConjugatedSingleBond NonConjugatedSingleBond NonConjugatedSingleBond NonConjugatedSingleBond
M  BCL CHI   1   R   4   R   8   R  17   S  20   R  22   S  25   R  29   S  38   S  42   R  46   R  50   S 185   R 187   S 190   S 192   R 194   R 205   R 207   S 210   R 212   S 214   S
M  BCL DBI - - E E E E E E E E Z - -
M  END
> <ConfClashScore>
0.0133505 

> <ConfOneFourInteractionScore>
-0.965458 

> <ConfScore>
1.37758 

> <ConfScorePBest>
0.00830048 

> <ConfTolerance>
4.49938 

$$$$
L05.****
  PyMOL2.5          3D                             0

230233  0  0  0  0  0  0  0  0999 V2000
   12.0412   -2.6428   -2.5806 C   0  0  0  1  0  0  0  0  0  0  0  0
   11.3474   -2.5435   -1.7721 H   0  0  0  1  0  0  0  0  0  0  0  0
   11.5062   -3.4581   -3.5830 O   0  0  0  1  0  0  0  0  0  0  0  0
   12.2941   -1.2772   -3.2387 C   0  0  0  1  0  0  0  0  0  0  0  0
   13.2521   -1.2494   -3.7145 H   0  0  0  1  0  0  0  0  0  0  0  0
   12.2060   -0.2199   -2.2822 O   0  0  0  1  0  0  0  0  0  0  0  0
   12.4767   -0.5443   -1.4202 H   0  0  0  1  0  0  0  0  0  0  0  0
   11.1728   -1.1881   -4.2587 C   0  0  0  1  0  0  0  0  0  0  0  0
   10.2915   -0.7623   -3.8263 H   0  0  0  1  0  0  0  0  0  0  0  0
   11.5690   -0.4147   -5.3925 O   0  0  0  1  0  0  0  0  0  0  0  0
   10.8013    0.0258   -5.7641 H   0  0  0  1  0  0  0  0  0  0  0  0
    9.1079   -4.3843   -4.3944 C   0  0  0  1  0  0  0  0  0  0  0  0
    9.1583   -4.9810   -5.2811 H   0  0  0  1  0  0  0  0  0  0  0  0
    9.8438   -4.7216   -3.6946 H   0  0  0  1  0  0  0  0  0  0  0  0
    7.8549   -4.5897   -3.8194 O   0  0  0  1  0  0  0  0  0  0  0  0
    7.4356   -3.7422   -3.6536 H   0  0  0  1  0  0  0  0  0  0  0  0
    9.4632   -2.9527   -4.7819 C   0  0  0  1  0  0  0  0  0  0  0  0
    8.9286   -2.2857   -4.1382 H   0  0  0  1  0  0  0  0  0  0  0  0
    9.0949   -2.7147   -6.1355 O   0  0  0  1  0  0  0  0  0  0  0  0
   10.9436   -2.6697   -4.6469 C   0  0  0  1  0  0  0  0  0  0  0  0
   11.4352   -2.8906   -5.5712 H   0  0  0  1  0  0  0  0  0  0  0  0
    7.7030   -2.7757   -6.3134 C   0  0  0  1  0  0  0  0  0  0  0  0
    7.3550   -3.7587   -6.0736 H   0  0  0  1  0  0  0  0  0  0  0  0
    7.0587   -1.8142   -5.5225 O   0  0  0  1  0  0  0  0  0  0  0  0
    7.3215   -2.3996   -7.7525 C   0  0  0  1  0  0  0  0  0  0  0  0
    7.3363   -3.2572   -8.3922 H   0  0  0  1  0  0  0  0  0  0  0  0
    8.1996   -1.4007   -8.2737 O   0  0  0  1  0  0  0  0  0  0  0  0
    8.8509   -1.8135   -8.8455 H   0  0  0  1  0  0  0  0  0  0  0  0
    5.9226   -1.8640   -7.5946 C   0  0  0  1  0  0  0  0  0  0  0  0
    5.2042   -2.6568   -7.6095 H   0  0  0  1  0  0  0  0  0  0  0  0
    5.6161   -0.9251   -8.6214 O   0  0  0  1  0  0  0  0  0  0  0  0
    5.9818   -1.2308   -9.4547 H   0  0  0  1  0  0  0  0  0  0  0  0
    3.4357   -1.0379   -6.3116 C   0  0  0  1  0  0  0  0  0  0  0  0
    3.4188   -1.6335   -7.2003 H   0  0  0  1  0  0  0  0  0  0  0  0
    2.5476   -1.2192   -5.7431 H   0  0  0  1  0  0  0  0  0  0  0  0
    3.4973    0.3363   -6.6655 O   0  0  0  1  0  0  0  0  0  0  0  0
    4.3296    0.5160   -7.1090 H   0  0  0  1  0  0  0  0  0  0  0  0
    4.6542   -1.4075   -5.4780 C   0  0  0  1  0  0  0  0  0  0  0  0
    4.5858   -2.4506   -5.2494 H   0  0  0  1  0  0  0  0  0  0  0  0
    4.6262   -0.6667   -4.2609 O   0  0  0  1  0  0  0  0  0  0  0  0
    3.7459   -0.7090   -3.8802 H   0  0  0  1  0  0  0  0  0  0  0  0
    5.9624   -1.1843   -6.2227 C   0  0  0  1  0  0  0  0  0  0  0  0
    6.1383   -0.1342   -6.3288 H   0  0  0  1  0  0  0  0  0  0  0  0
   13.2610   -3.1916   -2.0950 O   0  0  0  1  0  0  0  0  0  0  0  0
   21.5160  -10.1288   -7.9671 O   0  0  0  1  0  0  0  0  0  0  0  0
   22.0126  -10.4104   -6.4537 P   0  0  0  1  0  0  0  0  0  0  0  0
   20.9984   -9.5169   -5.5840 O   0  0  0  1  0  0  0  0  0  0  0  0
   23.4446   -9.9606   -6.3672 O   0  0  0  0  0  0  0  0  0  0  0  0
   21.8305  -11.8242   -6.1859 O   0  0  0  1  0  0  0  0  0  0  0  0
   20.1695   -8.1391   -5.8344 P   0  0  0  1  0  0  0  0  0  0  0  0
   20.3550   -7.3219   -4.5025 O   0  0  0  1  0  0  0  0  0  0  0  0
   18.7136   -8.3916   -5.9405 O   0  0  0  0  0  0  0  0  0  0  0  0
   20.8684   -7.5134   -6.9417 O   0  0  0  1  0  0  0  0  0  0  0  0
   20.1641  -10.2499   -8.4323 C   0  0  0  1  0  0  0  0  0  0  0  0
   19.5169   -9.6967   -7.7843 H   0  0  0  1  0  0  0  0  0  0  0  0
   19.8796  -11.2814   -8.4257 H   0  0  0  1  0  0  0  0  0  0  0  0
   20.0444   -9.7124   -9.8280 C   0  0  0  1  0  0  0  0  0  0  0  0
   20.8950   -9.6958  -10.4261 H   0  0  0  1  0  0  0  0  0  0  0  0
   18.9039   -9.2562  -10.3381 C   0  0  0  1  0  0  0  0  0  0  0  0
   18.9106   -8.6200  -11.6977 C   0  0  0  1  0  0  0  0  0  0  0  0
   18.9351   -7.5553  -11.5937 H   0  0  0  1  0  0  0  0  0  0  0  0
   18.0271   -8.9059  -12.2293 H   0  0  0  1  0  0  0  0  0  0  0  0
   19.7743   -8.9452  -12.2392 H   0  0  0  1  0  0  0  0  0  0  0  0
   17.5600   -9.3146   -9.6680 C   0  0  0  1  0  0  0  0  0  0  0  0
   17.5376  -10.1685   -9.0235 H   0  0  0  1  0  0  0  0  0  0  0  0
   16.8076   -9.4164  -10.4219 H   0  0  0  1  0  0  0  0  0  0  0  0
   17.2524   -8.0765   -8.8416 C   0  0  0  1  0  0  0  0  0  0  0  0
   17.2785   -7.2223   -9.4853 H   0  0  0  1  0  0  0  0  0  0  0  0
   18.0027   -7.9769   -8.0852 H   0  0  0  1  0  0  0  0  0  0  0  0
   15.9147   -8.1324   -8.1797 C   0  0  0  1  0  0  0  0  0  0  0  0
   15.7416   -8.8791   -7.4768 H   0  0  0  1  0  0  0  0  0  0  0  0
   14.9356   -7.2757   -8.4445 C   0  0  0  1  0  0  0  0  0  0  0  0
   13.6052   -7.3715   -7.7528 C   0  0  0  1  0  0  0  0  0  0  0  0
   13.6511   -6.8546   -6.8170 H   0  0  0  1  0  0  0  0  0  0  0  0
   13.3664   -8.4001   -7.5804 H   0  0  0  1  0  0  0  0  0  0  0  0
   12.8507   -6.9279   -8.3683 H   0  0  0  1  0  0  0  0  0  0  0  0
   15.0495   -6.1534   -9.4336 C   0  0  0  1  0  0  0  0  0  0  0  0
   15.0705   -6.5690  -10.4194 H   0  0  0  1  0  0  0  0  0  0  0  0
   15.9626   -5.6274   -9.2482 H   0  0  0  1  0  0  0  0  0  0  0  0
   13.8968   -5.1661   -9.3493 C   0  0  0  1  0  0  0  0  0  0  0  0
   13.7404   -4.9122   -8.3217 H   0  0  0  1  0  0  0  0  0  0  0  0
   13.0176   -5.6350   -9.7391 H   0  0  0  1  0  0  0  0  0  0  0  0
   14.1448   -3.9132  -10.1147 C   0  0  0  1  0  0  0  0  0  0  0  0
   14.9333   -3.3451   -9.7444 H   0  0  0  1  0  0  0  0  0  0  0  0
   13.5548   -3.3803  -11.1780 C   0  0  0  1  0  0  0  0  0  0  0  0
   12.2543   -3.9179  -11.7006 C   0  0  0  1  0  0  0  0  0  0  0  0
   11.7165   -3.1283  -12.1823 H   0  0  0  1  0  0  0  0  0  0  0  0
   11.6771   -4.2961  -10.8828 H   0  0  0  1  0  0  0  0  0  0  0  0
   14.1094   -2.2160  -11.9497 C   0  0  0  1  0  0  0  0  0  0  0  0
   14.1747   -1.3615  -11.3090 H   0  0  0  1  0  0  0  0  0  0  0  0
   13.4640   -1.9949  -12.7740 H   0  0  0  1  0  0  0  0  0  0  0  0
   15.0842   -2.4627  -12.3154 H   0  0  0  1  0  0  0  0  0  0  0  0
   12.4970   -5.0400  -12.7015 C   0  0  0  1  0  0  0  0  0  0  0  0
   12.8688   -5.8871  -12.1639 H   0  0  0  1  0  0  0  0  0  0  0  0
   13.2372   -4.7062  -13.3984 H   0  0  0  1  0  0  0  0  0  0  0  0
   11.2892   -5.4797  -13.4824 C   0  0  0  1  0  0  0  0  0  0  0  0
   10.8491   -4.7652  -14.0968 H   0  0  0  1  0  0  0  0  0  0  0  0
   10.7187   -6.6922  -13.4725 C   0  0  0  1  0  0  0  0  0  0  0  0
   11.4865   -7.8514  -12.8846 C   0  0  0  1  0  0  0  0  0  0  0  0
   11.6037   -7.6720  -11.8363 H   0  0  0  1  0  0  0  0  0  0  0  0
   12.4488   -7.8807  -13.3517 H   0  0  0  1  0  0  0  0  0  0  0  0
    9.3632   -6.9419  -14.0157 C   0  0  0  1  0  0  0  0  0  0  0  0
    8.9207   -6.0138  -14.3121 H   0  0  0  1  0  0  0  0  0  0  0  0
    8.7569   -7.4017  -13.2635 H   0  0  0  1  0  0  0  0  0  0  0  0
    9.4330   -7.5904  -14.8639 H   0  0  0  1  0  0  0  0  0  0  0  0
   10.8397   -9.2160  -13.0573 C   0  0  0  1  0  0  0  0  0  0  0  0
   11.5688   -9.9684  -12.8401 H   0  0  0  1  0  0  0  0  0  0  0  0
   10.5171   -9.3138  -14.0728 H   0  0  0  1  0  0  0  0  0  0  0  0
    9.6620   -9.4227  -12.1624 C   0  0  0  1  0  0  0  0  0  0  0  0
    8.8593   -8.7663  -12.2421 H   0  0  0  1  0  0  0  0  0  0  0  0
    9.5894  -10.4031  -11.2701 C   0  0  0  1  0  0  0  0  0  0  0  0
   10.6466  -11.4658  -11.1903 C   0  0  0  1  0  0  0  0  0  0  0  0
   11.1880  -11.4628  -12.1132 H   0  0  0  1  0  0  0  0  0  0  0  0
   10.1575  -12.4093  -11.0662 H   0  0  0  1  0  0  0  0  0  0  0  0
    8.4740  -10.5497  -10.2737 C   0  0  0  1  0  0  0  0  0  0  0  0
    7.6522  -11.0609  -10.7302 H   0  0  0  1  0  0  0  0  0  0  0  0
    8.1556   -9.5808   -9.9500 H   0  0  0  1  0  0  0  0  0  0  0  0
    8.8199  -11.1118   -9.4316 H   0  0  0  1  0  0  0  0  0  0  0  0
   11.6484  -11.3046  -10.0586 C   0  0  0  1  0  0  0  0  0  0  0  0
   12.1744  -10.3832  -10.1980 H   0  0  0  1  0  0  0  0  0  0  0  0
   12.3401  -12.1201  -10.0972 H   0  0  0  1  0  0  0  0  0  0  0  0
   11.0037  -11.2871   -8.6984 C   0  0  0  1  0  0  0  0  0  0  0  0
   10.4774  -10.4324   -8.4262 H   0  0  0  1  0  0  0  0  0  0  0  0
   11.0569  -12.2823   -7.8196 C   0  0  0  1  0  0  0  0  0  0  0  0
   11.4872  -13.6821   -8.1680 C   0  0  0  1  0  0  0  0  0  0  0  0
   12.3138  -13.6257   -8.8451 H   0  0  0  1  0  0  0  0  0  0  0  0
   10.6692  -14.1815   -8.6438 H   0  0  0  1  0  0  0  0  0  0  0  0
   10.6830  -12.0799   -6.3804 C   0  0  0  1  0  0  0  0  0  0  0  0
   10.3493  -13.0075   -5.9642 H   0  0  0  1  0  0  0  0  0  0  0  0
    9.8973  -11.3566   -6.3146 H   0  0  0  1  0  0  0  0  0  0  0  0
   11.5359  -11.7314   -5.8362 H   0  0  0  1  0  0  0  0  0  0  0  0
   11.9102  -14.4944   -6.9548 C   0  0  0  1  0  0  0  0  0  0  0  0
   11.0488  -14.6688   -6.3446 H   0  0  0  1  0  0  0  0  0  0  0  0
   12.6315  -13.9298   -6.4016 H   0  0  0  1  0  0  0  0  0  0  0  0
   12.5137  -15.8147   -7.3151 C   0  0  0  1  0  0  0  0  0  0  0  0
   13.2112  -15.8456   -8.0859 H   0  0  0  1  0  0  0  0  0  0  0  0
   12.2013  -16.9548   -6.6962 C   0  0  0  1  0  0  0  0  0  0  0  0
   11.3562  -16.9592   -5.4521 C   0  0  0  1  0  0  0  0  0  0  0  0
   11.6265  -16.1143   -4.8538 H   0  0  0  1  0  0  0  0  0  0  0  0
   11.5544  -17.8596   -4.9090 H   0  0  0  1  0  0  0  0  0  0  0  0
   12.6805  -18.2783   -7.2165 C   0  0  0  1  0  0  0  0  0  0  0  0
   12.5624  -19.0241   -6.4583 H   0  0  0  1  0  0  0  0  0  0  0  0
   13.7136  -18.2030   -7.4845 H   0  0  0  1  0  0  0  0  0  0  0  0
   12.1071  -18.5515   -8.0776 H   0  0  0  1  0  0  0  0  0  0  0  0
    9.8662  -16.8884   -5.7442 C   0  0  0  1  0  0  0  0  0  0  0  0
    9.6009  -17.7519   -6.3177 H   0  0  0  1  0  0  0  0  0  0  0  0
    9.6846  -16.0063   -6.3219 H   0  0  0  1  0  0  0  0  0  0  0  0
    8.9825  -16.8432   -4.5466 C   0  0  0  1  0  0  0  0  0  0  0  0
    9.4022  -16.3469   -3.7347 H   0  0  0  1  0  0  0  0  0  0  0  0
    7.7628  -17.3133   -4.3139 C   0  0  0  1  0  0  0  0  0  0  0  0
    7.1295  -18.3273   -5.2239 C   0  0  0  1  0  0  0  0  0  0  0  0
    6.7110  -17.8155   -6.0653 H   0  0  0  1  0  0  0  0  0  0  0  0
    6.3509  -18.8277   -4.6869 H   0  0  0  1  0  0  0  0  0  0  0  0
    6.9114  -16.8944   -3.1513 C   0  0  0  1  0  0  0  0  0  0  0  0
    7.1733  -15.8997   -2.8568 H   0  0  0  1  0  0  0  0  0  0  0  0
    7.0734  -17.5630   -2.3317 H   0  0  0  1  0  0  0  0  0  0  0  0
    5.8804  -16.9220   -3.4363 H   0  0  0  1  0  0  0  0  0  0  0  0
    8.1155  -19.3708   -5.7325 C   0  0  0  1  0  0  0  0  0  0  0  0
    8.6258  -19.7948   -4.8931 H   0  0  0  1  0  0  0  0  0  0  0  0
    8.8228  -18.8871   -6.3734 H   0  0  0  1  0  0  0  0  0  0  0  0
    7.4605  -20.4702   -6.4937 C   0  0  0  1  0  0  0  0  0  0  0  0
    6.9483  -20.1470   -7.3392 H   0  0  0  1  0  0  0  0  0  0  0  0
    7.4031  -21.7838   -6.3026 C   0  0  0  1  0  0  0  0  0  0  0  0
    6.4263  -22.6877   -7.0045 C   0  0  0  1  0  0  0  0  0  0  0  0
    5.8262  -22.0949   -7.6628 H   0  0  0  1  0  0  0  0  0  0  0  0
    5.8008  -23.1494   -6.2694 H   0  0  0  1  0  0  0  0  0  0  0  0
    8.3317  -22.4810   -5.3486 C   0  0  0  1  0  0  0  0  0  0  0  0
    9.1830  -21.8392   -5.2578 H   0  0  0  1  0  0  0  0  0  0  0  0
    8.6220  -23.4341   -5.7388 H   0  0  0  1  0  0  0  0  0  0  0  0
    7.8600  -22.6131   -4.3973 H   0  0  0  1  0  0  0  0  0  0  0  0
    7.1033  -23.7788   -7.8179 C   0  0  0  1  0  0  0  0  0  0  0  0
    7.6329  -24.4153   -7.1402 H   0  0  0  1  0  0  0  0  0  0  0  0
    7.7973  -23.3110   -8.4847 H   0  0  0  1  0  0  0  0  0  0  0  0
    6.1885  -24.6314   -8.6300 C   0  0  0  1  0  0  0  0  0  0  0  0
    5.3776  -25.0280   -8.1135 H   0  0  0  1  0  0  0  0  0  0  0  0
    6.2559  -24.9595   -9.9158 C   0  0  0  1  0  0  0  0  0  0  0  0
    7.3296  -24.4720  -10.8447 C   0  0  0  1  0  0  0  0  0  0  0  0
    7.7655  -25.3051  -11.3552 H   0  0  0  1  0  0  0  0  0  0  0  0
    8.0846  -23.9643  -10.2815 H   0  0  0  1  0  0  0  0  0  0  0  0
    6.9040  -23.7989  -11.5594 H   0  0  0  1  0  0  0  0  0  0  0  0
    5.2335  -25.8685  -10.5537 C   0  0  0  1  0  0  0  0  0  0  0  0
    5.6298  -26.8621  -10.5286 H   0  0  0  1  0  0  0  0  0  0  0  0
    5.0595  -25.5696  -11.5662 H   0  0  0  1  0  0  0  0  0  0  0  0
    4.3151  -25.8271  -10.0061 H   0  0  0  1  0  0  0  0  0  0  0  0
   16.1070   -5.1412   -1.8125 C   0  0  0  1  0  0  0  0  0  0  0  0
   16.4237   -5.6795   -0.9437 H   0  0  0  1  0  0  0  0  0  0  0  0
   14.8132   -5.7202   -2.3036 C   0  0  0  1  0  0  0  0  0  0  0  0
   14.9812   -6.7207   -2.6438 H   0  0  0  1  0  0  0  0  0  0  0  0
   15.9588   -3.7873   -1.4834 O   0  0  0  1  0  0  0  0  0  0  0  0
   14.2626   -4.8873   -3.4495 C   0  0  0  1  0  0  0  0  0  0  0  0
   13.2682   -5.2153   -3.6697 H   0  0  0  1  0  0  0  0  0  0  0  0
   15.5938   -2.9788   -2.6050 C   0  0  0  1  0  0  0  0  0  0  0  0
   16.3169   -3.0990   -3.3844 H   0  0  0  1  0  0  0  0  0  0  0  0
   14.2278   -3.4167   -3.1055 C   0  0  0  1  0  0  0  0  0  0  0  0
   13.9706   -2.8529   -3.9778 H   0  0  0  1  0  0  0  0  0  0  0  0
   17.0906   -5.2667   -2.8342 O   0  0  0  1  0  0  0  0  0  0  0  0
   13.8667   -5.7330   -1.2334 O   0  0  0  1  0  0  0  0  0  0  0  0
   14.0375   -6.4863   -0.6634 H   0  0  0  1  0  0  0  0  0  0  0  0
   15.0869   -5.0733   -4.5908 O   0  0  0  1  0  0  0  0  0  0  0  0
   15.9690   -4.7425   -4.4064 H   0  0  0  1  0  0  0  0  0  0  0  0
   15.5387   -1.5191   -2.1846 C   0  0  0  1  0  0  0  0  0  0  0  0
   15.5563   -1.4541   -1.1168 H   0  0  0  1  0  0  0  0  0  0  0  0
   14.6377   -1.0757   -2.5539 H   0  0  0  1  0  0  0  0  0  0  0  0
   16.3834   -1.0002   -2.5873 H   0  0  0  1  0  0  0  0  0  0  0  0
   19.4833   -6.2489   -4.1795 C   0  0  0  1  0  0  0  0  0  0  0  0
   18.5447   -6.3901   -4.6736 H   0  0  0  1  0  0  0  0  0  0  0  0
   19.2662   -6.2091   -2.6914 C   0  0  0  1  0  0  0  0  0  0  0  0
   20.2182   -6.0657   -2.2246 H   0  0  0  1  0  0  0  0  0  0  0  0
   20.0602   -5.0285   -4.6021 O   0  0  0  1  0  0  0  0  0  0  0  0
   18.3964   -5.0387   -2.3348 C   0  0  0  1  0  0  0  0  0  0  0  0
   18.3601   -4.9444   -1.2696 H   0  0  0  1  0  0  0  0  0  0  0  0
   19.1543   -3.9268   -4.4128 C   0  0  0  1  0  0  0  0  0  0  0  0
   19.5786   -3.0339   -4.8220 H   0  0  0  1  0  0  0  0  0  0  0  0
   18.9295   -3.7533   -2.9234 C   0  0  0  1  0  0  0  0  0  0  0  0
   18.2220   -2.9673   -2.7600 H   0  0  0  1  0  0  0  0  0  0  0  0
   18.6823   -7.4423   -2.1798 N   0  0  0  1  0  0  0  0  0  0  0  0
   19.2724   -8.0552   -1.6934 H   0  0  0  1  0  0  0  0  0  0  0  0
   20.1682   -3.4195   -2.2919 O   0  0  0  1  0  0  0  0  0  0  0  0
   20.2372   -3.9803   -1.5158 H   0  0  0  1  0  0  0  0  0  0  0  0
   17.8463   -4.2195   -5.0950 C   0  0  0  1  0  0  0  0  0  0  0  0
   17.4267   -5.1060   -4.6672 H   0  0  0  1  0  0  0  0  0  0  0  0
   18.0306   -4.3785   -6.1370 H   0  0  0  1  0  0  0  0  0  0  0  0
   16.9092   -3.1561   -4.9538 O   0  0  0  1  0  0  0  0  0  0  0  0
   16.4014   -3.0936   -5.7660 H   0  0  0  1  0  0  0  0  0  0  0  0
   17.3627   -7.8117   -2.3285 C   0  0  0  1  0  0  0  0  0  0  0  0
   16.5991   -7.3548   -3.1782 O   0  0  0  1  0  0  0  0  0  0  0  0
   16.9050   -8.8644   -1.3272 C   0  0  0  1  0  0  0  0  0  0  0  0
   16.9436   -9.7846   -1.8718 H   0  0  0  1  0  0  0  0  0  0  0  0
   15.9080   -8.6627   -0.9951 H   0  0  0  1  0  0  0  0  0  0  0  0
   17.5628   -8.8958   -0.4839 H   0  0  0  1  0  0  0  0  0  0  0  0
  1  2  1  0  0  0  0
  1  3  1  0  0  0  0
  1  4  1  0  0  0  0
  1 44  1  0  0  0  0
  3 20  1  0  0  0  0
  4  5  1  0  0  0  0
  4  6  1  0  0  0  0
  4  8  1  0  0  0  0
  6  7  1  0  0  0  0
  8  9  1  0  0  0  0
  8 10  1  0  0  0  0
  8 20  1  0  0  0  0
 10 11  1  0  0  0  0
 12 13  1  0  0  0  0
 12 14  1  0  0  0  0
 12 15  1  0  0  0  0
 12 17  1  0  0  0  0
 15 16  1  0  0  0  0
 17 18  1  0  0  0  0
 17 19  1  0  0  0  0
 17 20  1  0  0  0  0
 19 22  1  0  0  0  0
 20 21  1  0  0  0  0
 22 23  1  0  0  0  0
 22 24  1  0  0  0  0
 22 25  1  0  0  0  0
 24 42  1  0  0  0  0
 25 26  1  0  0  0  0
 25 27  1  0  0  0  0
 25 29  1  0  0  0  0
 27 28  1  0  0  0  0
 29 30  1  0  0  0  0
 29 31  1  0  0  0  0
 29 42  1  0  0  0  0
 31 32  1  0  0  0  0
 33 34  1  0  0  0  0
 33 35  1  0  0  0  0
 33 36  1  0  0  0  0
 33 38  1  0  0  0  0
 36 37  1  0  0  0  0
 38 39  1  0  0  0  0
 38 40  1  0  0  0  0
 38 42  1  0  0  0  0
 40 41  1  0  0  0  0
 42 43  1  0  0  0  0
 44194  1  0  0  0  0
 45 46  1  0  0  0  0
 45 54  1  0  0  0  0
 46 47  1  0  0  0  0
 46 48  1  0  0  0  0
 46 49  2  0  0  0  0
 47 50  1  0  0  0  0
 50 51  1  0  0  0  0
 50 52  1  0  0  0  0
 50 53  2  0  0  0  0
 51205  1  0  0  0  0
 54 55  1  0  0  0  0
 54 56  1  0  0  0  0
 54 57  1  0  0  0  0
 57 58  1  0  0  0  0
 57 59  2  0  0  0  0
 59 60  1  0  0  0  0
 59 64  1  0  0  0  0
 60 61  1  0  0  0  0
 60 62  1  0  0  0  0
 60 63  1  0  0  0  0
 64 65  1  0  0  0  0
 64 66  1  0  0  0  0
 64 67  1  0  0  0  0
 67 68  1  0  0  0  0
 67 69  1  0  0  0  0
 67 70  1  0  0  0  0
 70 71  1  0  0  0  0
 70 72  2  0  0  0  0
 72 73  1  0  0  0  0
 72 77  1  0  0  0  0
 73 74  1  0  0  0  0
 73 75  1  0  0  0  0
 73 76  1  0  0  0  0
 77 78  1  0  0  0  0
 77 79  1  0  0  0  0
 77 80  1  0  0  0  0
 80 81  1  0  0  0  0
 80 82  1  0  0  0  0
 80 83  1  0  0  0  0
 83 84  1  0  0  0  0
 83 85  2  0  0  0  0
 85 86  1  0  0  0  0
 85 89  1  0  0  0  0
 86 87  1  0  0  0  0
 86 88  1  0  0  0  0
 86 93  1  0  0  0  0
 89 90  1  0  0  0  0
 89 91  1  0  0  0  0
 89 92  1  0  0  0  0
 93 94  1  0  0  0  0
 93 95  1  0  0  0  0
 93 96  1  0  0  0  0
 96 97  1  0  0  0  0
 96 98  2  0  0  0  0
 98 99  1  0  0  0  0
 98102  1  0  0  0  0
 99100  1  0  0  0  0
 99101  1  0  0  0  0
 99106  1  0  0  0  0
102103  1  0  0  0  0
102104  1  0  0  0  0
102105  1  0  0  0  0
106107  1  0  0  0  0
106108  1  0  0  0  0
106109  1  0  0  0  0
109110  1  0  0  0  0
109111  2  0  0  0  0
111112  1  0  0  0  0
111115  1  0  0  0  0
112113  1  0  0  0  0
112114  1  0  0  0  0
112119  1  0  0  0  0
115116  1  0  0  0  0
115117  1  0  0  0  0
115118  1  0  0  0  0
119120  1  0  0  0  0
119121  1  0  0  0  0
119122  1  0  0  0  0
122123  1  0  0  0  0
122124  2  0  0  0  0
124125  1  0  0  0  0
124128  1  0  0  0  0
125126  1  0  0  0  0
125127  1  0  0  0  0
125132  1  0  0  0  0
128129  1  0  0  0  0
128130  1  0  0  0  0
128131  1  0  0  0  0
132133  1  0  0  0  0
132134  1  0  0  0  0
132135  1  0  0  0  0
135136  1  0  0  0  0
135137  2  0  0  0  0
137138  1  0  0  0  0
137141  1  0  0  0  0
138139  1  0  0  0  0
138140  1  0  0  0  0
138145  1  0  0  0  0
141142  1  0  0  0  0
141143  1  0  0  0  0
141144  1  0  0  0  0
145146  1  0  0  0  0
145147  1  0  0  0  0
145148  1  0  0  0  0
148149  1  0  0  0  0
148150  2  0  0  0  0
150151  1  0  0  0  0
150154  1  0  0  0  0
151152  1  0  0  0  0
151153  1  0  0  0  0
151158  1  0  0  0  0
154155  1  0  0  0  0
154156  1  0  0  0  0
154157  1  0  0  0  0
158159  1  0  0  0  0
158160  1  0  0  0  0
158161  1  0  0  0  0
161162  1  0  0  0  0
161163  2  0  0  0  0
163164  1  0  0  0  0
163167  1  0  0  0  0
164165  1  0  0  0  0
164166  1  0  0  0  0
164171  1  0  0  0  0
167168  1  0  0  0  0
167169  1  0  0  0  0
167170  1  0  0  0  0
171172  1  0  0  0  0
171173  1  0  0  0  0
171174  1  0  0  0  0
174175  1  0  0  0  0
174176  2  0  0  0  0
176177  1  0  0  0  0
176181  1  0  0  0  0
177178  1  0  0  0  0
177179  1  0  0  0  0
177180  1  0  0  0  0
181182  1  0  0  0  0
181183  1  0  0  0  0
181184  1  0  0  0  0
185186  1  0  0  0  0
185187  1  0  0  0  0
185189  1  0  0  0  0
185196  1  0  0  0  0
187188  1  0  0  0  0
187190  1  0  0  0  0
187197  1  0  0  0  0
189192  1  0  0  0  0
190191  1  0  0  0  0
190194  1  0  0  0  0
190199  1  0  0  0  0
192193  1  0  0  0  0
192194  1  0  0  0  0
192201  1  0  0  0  0
194195  1  0  0  0  0
196210  1  0  0  0  0
197198  1  0  0  0  0
199200  1  0  0  0  0
201202  1  0  0  0  0
201203  1  0  0  0  0
201204  1  0  0  0  0
205206  1  0  0  0  0
205207  1  0  0  0  0
205209  1  0  0  0  0
207208  1  0  0  0  0
207210  1  0  0  0  0
207216  1  0  0  0  0
209212  1  0  0  0  0
210211  1  0  0  0  0
210214  1  0  0  0  0
212213  1  0  0  0  0
212214  1  0  0  0  0
212220  1  0  0  0  0
214215  1  0  0  0  0
214218  1  0  0  0  0
216217  1  0  0  0  0
216225  1  0  0  0  0
218219  1  0  0  0  0
220221  1  0  0  0  0
220222  1  0  0  0  0
220223  1  0  0  0  0
223224  1  0  0  0  0
225226  2  0  0  0  0
225227  1  0  0  0  0
227228  1  0  0  0  0
227229  1  0  0  0  0
227230  1  0  0  0  0
M  BCL ATM C_TeTeTeTe H_S O_Te2Te2TeTe C_TeTeTeTe H_S O_Te2Te2TeTe H_S C_TeTeTeTe H_S O_Te2Te2TeTe H_S C_TeTeTeTe H_S H_S O_Te2Te2TeTe H_S C_TeTeTeTe H_S O_Te2Te2TeTe C_TeTeTeTe H_S C_TeTeTeTe H_S O_Te2Te2TeTe C_TeTeTeTe H_S O_Te2Te2TeTe H_S C_TeTeTeTe H_S O_Te2Te2TeTe H_S C_TeTeTeTe H_S H_S O_Te2Te2TeTe H_S C_TeTeTeTe H_S O_Te2Te2TeTe H_S C_TeTeTeTe H_S O_Te2Te2TeTe O_Tr2TrTrPi2 P_TeTeTeTePi O_Tr2TrTrPi2 O_Te2Te2TeTe O_Tr2Tr2TrPi P_TeTeTeTePi O_Tr2TrTrPi2 O_Te2Te2TeTe O_Tr2Tr2TrPi C_TeTeTeTe H_S H_S C_TrTrTrPi H_S C_TrTrTrPi C_TeTeTeTe H_S H_S H_S C_TeTeTeTe H_S H_S C_TeTeTeTe H_S H_S C_TrTrTrPi H_S C_TrTrTrPi C_TeTeTeTe H_S H_S H_S C_TeTeTeTe H_S H_S C_TeTeTeTe H_S H_S C_TrTrTrPi H_S C_TrTrTrPi C_TeTeTeTe H_S H_S C_TeTeTeTe H_S H_S H_S C_TeTeTeTe H_S H_S C_TrTrTrPi H_S C_TrTrTrPi C_TeTeTeTe H_S H_S C_TeTeTeTe H_S H_S H_S C_TeTeTeTe H_S H_S C_TrTrTrPi H_S C_TrTrTrPi C_TeTeTeTe H_S H_S C_TeTeTeTe H_S H_S H_S C_TeTeTeTe H_S H_S C_TrTrTrPi H_S C_TrTrTrPi C_TeTeTeTe H_S H_S C_TeTeTeTe H_S H_S H_S C_TeTeTeTe H_S H_S C_TrTrTrPi H_S C_TrTrTrPi C_TeTeTeTe H_S H_S C_TeTeTeTe H_S H_S H_S C_TeTeTeTe H_S H_S C_TrTrTrPi H_S C_TrTrTrPi C_TeTeTeTe H_S H_S C_TeTeTeTe H_S H_S H_S C_TeTeTeTe H_S H_S C_TrTrTrPi H_S C_TrTrTrPi C_TeTeTeTe H_S H_S C_TeTeTeTe H_S H_S H_S C_TeTeTeTe H_S H_S C_TrTrTrPi H_S C_TrTrTrPi C_TeTeTeTe H_S H_S H_S C_TeTeTeTe H_S H_S H_S C_TeTeTeTe H_S C_TeTeTeTe H_S O_Te2Te2TeTe C_TeTeTeTe H_S C_TeTeTeTe H_S C_TeTeTeTe H_S O_Te2Te2TeTe O_Te2Te2TeTe H_S O_Te2Te2TeTe H_S C_TeTeTeTe H_S H_S H_S C_TeTeTeTe H_S C_TeTeTeTe H_S O_Te2Te2TeTe C_TeTeTeTe H_S C_TeTeTeTe H_S C_TeTeTeTe H_S N_TrTrTrPi2 H_S O_Te2Te2TeTe H_S C_TeTeTeTe H_S H_S O_Te2Te2TeTe H_S C_TrTrTrPi O_Tr2Tr2TrPi C_TeTeTeTe H_S H_S H_S
M  BCL BND NonConjugatedSingleBond NonConjugatedSingleBondInRing NonConjugatedSingleBondInRing NonConjugatedSingleBond NonConjugatedSingleBondInRing NonConjugatedSingleBond NonConjugatedSingleBond NonConjugatedSingleBondInRing NonConjugatedSingleBond NonConjugatedSingleBond NonConjugatedSingleBond NonConjugatedSingleBondInRing NonConjugatedSingleBond NonConjugatedSingleBond NonConjugatedSingleBond NonConjugatedSingleBond NonConjugatedSingleBond NonConjugatedSingleBond NonConjugatedSingleBond NonConjugatedSingleBond NonConjugatedSingleBond NonConjugatedSingleBond NonConjugatedSingleBond NonConjugatedSingleBond NonConjugatedSingleBondInRing NonConjugatedSingleBondInRing NonConjugatedSingleBondInRing NonConjugatedSingleBond NonConjugatedSingleBond NonConjugatedSingleBondInRing NonConjugatedSingleBond NonConjugatedSingleBond NonConjugatedSingleBond NonConjugatedSingleBondInRing NonConjugatedSingleBond NonConjugatedSingleBond NonConjugatedSingleBond NonConjugatedSingleBond NonConjugatedSingleBond NonConjugatedSingleBond NonConjugatedSingleBond NonConjugatedSingleBond NonConjugatedSingleBond NonConjugatedSingleBond NonConjugatedSingleBond NonConjugatedSingleBond ConjugatedSingleBond NonConjugatedSingleBond ConjugatedSingleBond ConjugatedSingleBond ConjugatedDoubleBond ConjugatedSingleBond ConjugatedSingleBond ConjugatedSingleBond ConjugatedDoubleBond NonConjugatedSingleBond NonConjugatedSingleBond NonConjugatedSingleBond NonConjugatedSingleBond NonConjugatedSingleBond ConjugatedDoubleBond NonConjugatedSingleBond NonConjugatedSingleBond NonConjugatedSingleBond NonConjugatedSingleBond NonConjugatedSingleBond NonConjugatedSingleBond NonConjugatedSingleBond NonConjugatedSingleBond NonConjugatedSingleBond NonConjugatedSingleBond NonConjugatedSingleBond NonConjugatedSingleBond ConjugatedDoubleBond NonConjugatedSingleBond NonConjugatedSingleBond NonConjugatedSingleBond NonConjugatedSingleBond NonConjugatedSingleBond NonConjugatedSingleBond NonConjugatedSingleBond NonConjugatedSingleBond NonConjugatedSingleBond NonConjugatedSingleBond NonConjugatedSingleBond NonConjugatedSingleBond ConjugatedDoubleBond NonConjugatedSingleBond NonConjugatedSingleBond NonConjugatedSingleBond NonConjugatedSingleBond NonConjugatedSingleBond NonConjugatedSingleBond NonConjugatedSingleBond NonConjugatedSingleBond NonConjugatedSingleBond NonConjugatedSingleBond NonConjugatedSingleBond NonConjugatedSingleBond ConjugatedDoubleBond NonConjugatedSingleBond NonConjugatedSingleBond NonConjugatedSingleBond NonConjugatedSingleBond NonConjugatedSingleBond NonConjugatedSingleBond NonConjugatedSingleBond NonConjugatedSingleBond NonConjugatedSingleBond NonConjugatedSingleBond NonConjugatedSingleBond NonConjugatedSingleBond ConjugatedDoubleBond NonConjugatedSingleBond NonConjugatedSingleBond NonConjugatedSingleBond NonConjugatedSingleBond NonConjugatedSingleBond NonConjugatedSingleBond NonConjugatedSingleBond NonConjugatedSingleBond NonConjugatedSingleBond NonConjugatedSingleBond NonConjugatedSingleBond NonConjugatedSingleBond ConjugatedDoubleBond NonConjugatedSingleBond NonConjugatedSingleBond NonConjugatedSingleBond NonConjugatedSingleBond NonConjugatedSingleBond NonConjugatedSingleBond NonConjugatedSingleBond NonConjugatedSingleBond NonConjugatedSingleBond NonConjugatedSingleBond NonConjugatedSingleBond NonConjugatedSingleBond ConjugatedDoubleBond NonConjugatedSingleBond NonConjugatedSingleBond NonConjugatedSingleBond NonConjugatedSingleBond NonConjugatedSingleBond NonConjugatedSingleBond NonConjugatedSingleBond NonConjugatedSingleBond NonConjugatedSingleBond NonConjugatedSingleBond NonConjugatedSingleBond NonConjugatedSingleBond ConjugatedDoubleBond NonConjugatedSingleBond NonConjugatedSingleBond NonConjugatedSingleBond NonConjugatedSingleBond NonConjugatedSingleBond NonConjugatedSingleBond NonConjugatedSingleBond NonConjugatedSingleBond NonConjugatedSingleBond NonConjugatedSingleBond NonConjugatedSingleBond NonConjugatedSingleBond ConjugatedDoubleBond NonConjugatedSingleBond NonConjugatedSingleBond NonConjugatedSingleBond NonConjugatedSingleBond NonConjugatedSingleBond NonConjugatedSingleBond NonConjugatedSingleBond NonConjugatedSingleBond NonConjugatedSingleBond NonConjugatedSingleBond NonConjugatedSingleBond NonConjugatedSingleBond ConjugatedDoubleBond NonConjugatedSingleBond NonConjugatedSingleBond NonConjugatedSingleBond NonConjugatedSingleBond NonConjugatedSingleBond NonConjugatedSingleBond NonConjugatedSingleBond NonConjugatedSingleBond NonConjugatedSingleBond NonConjugatedSingleBondInRing NonConjugatedSingleBondInRing NonConjugatedSingleBond NonConjugatedSingleBond NonConjugatedSingleBondInRing NonConjugatedSingleBond NonConjugatedSingleBondInRing NonConjugatedSingleBond NonConjugatedSingleBondInRing NonConjugatedSingleBond NonConjugatedSingleBond NonConjugatedSingleBondInRing NonConjugatedSingleBond NonConjugatedSingleBond NonConjugatedSingleBond NonConjugatedSingleBond NonConjugatedSingleBond NonConjugatedSingleBond NonConjugatedSingleBond NonConjugatedSingleBond NonConjugatedSingleBond NonConjugatedSingleBondInRing NonConjugatedSingleBondInRing NonConjugatedSingleBond NonConjugatedSingleBondInRing NonConjugatedSingleBond NonConjugatedSingleBondInRing NonConjugatedSingleBond NonConjugatedSingleBondInRing NonConjugatedSingleBond NonConjugatedSingleBondInRing NonConjugatedSingleBond NonConjugatedSingleBond NonConjugatedSingleBond NonConjugatedSingleBond AmideSingleBond NonConjugatedSingleBond NonConjugatedSingleBond NonConjugatedSingleBond NonConjugatedSingleBond NonConjugatedSingleBond ConjugatedDoubleBond NonConjugatedSingleBond NonConjugatedSingleBond NonConjugatedSingleBond NonConjugatedSingleBond
M  BCL CHI   1   R   4   R   8   R  17   S  20   R  22   S  25   R  29   S  38   S  42   R  46   R  50   S 185   R 187   S 190   S 192   R 194   R 205   R 207   S 210   R 212   S 214   S
M  BCL DBI - - E E E E E E E E Z - -
M  END
> <ConfClashScore>
0.00668622 

> <ConfOneFourInteractionScore>
-0.966593 

> <ConfScore>
1.38474 

> <ConfScorePBest>
0.00819748 

> <ConfTolerance>
3.88734 

$$$$
L05.****
  PyMOL2.5          3D                             0

230233  0  0  0  0  0  0  0  0999 V2000
   12.6832   -2.0235   -2.7257 C   0  0  0  1  0  0  0  0  0  0  0  0
   13.4316   -1.2589   -2.7405 H   0  0  0  1  0  0  0  0  0  0  0  0
   11.6644   -1.7172   -1.7472 O   0  0  0  1  0  0  0  0  0  0  0  0
   11.9445   -2.0788   -4.0662 C   0  0  0  1  0  0  0  0  0  0  0  0
   12.3290   -2.8631   -4.6841 H   0  0  0  1  0  0  0  0  0  0  0  0
   12.0454   -0.8334   -4.7585 O   0  0  0  1  0  0  0  0  0  0  0  0
   12.5127   -0.1989   -4.2102 H   0  0  0  1  0  0  0  0  0  0  0  0
   10.5208   -2.3583   -3.6618 C   0  0  0  1  0  0  0  0  0  0  0  0
    9.8321   -1.9781   -4.3870 H   0  0  0  1  0  0  0  0  0  0  0  0
   10.3036   -3.7445   -3.4858 O   0  0  0  1  0  0  0  0  0  0  0  0
   11.0721   -4.1386   -3.0666 H   0  0  0  1  0  0  0  0  0  0  0  0
   11.3061    0.6793   -2.4896 C   0  0  0  1  0  0  0  0  0  0  0  0
   11.2199    1.3588   -1.6676 H   0  0  0  1  0  0  0  0  0  0  0  0
   12.1381    0.0263   -2.3275 H   0  0  0  1  0  0  0  0  0  0  0  0
   11.5376    1.4278   -3.6791 O   0  0  0  1  0  0  0  0  0  0  0  0
   10.8725    1.2029   -4.3338 H   0  0  0  1  0  0  0  0  0  0  0  0
   10.0407   -0.1546   -2.5667 C   0  0  0  1  0  0  0  0  0  0  0  0
    9.5285   -0.0084   -3.4948 H   0  0  0  1  0  0  0  0  0  0  0  0
    9.2387    0.1934   -1.4430 O   0  0  0  1  0  0  0  0  0  0  0  0
   10.3944   -1.6047   -2.3299 C   0  0  0  1  0  0  0  0  0  0  0  0
    9.6505   -2.0568   -1.7077 H   0  0  0  1  0  0  0  0  0  0  0  0
    8.0190   -0.4998   -1.4416 C   0  0  0  1  0  0  0  0  0  0  0  0
    8.1980   -1.5380   -1.6284 H   0  0  0  1  0  0  0  0  0  0  0  0
    7.3210   -0.3156   -0.1725 O   0  0  0  1  0  0  0  0  0  0  0  0
    7.0756    0.0748   -2.4734 C   0  0  0  1  0  0  0  0  0  0  0  0
    6.3670   -0.6597   -2.7946 H   0  0  0  1  0  0  0  0  0  0  0  0
    7.7953    0.5694   -3.6037 O   0  0  0  1  0  0  0  0  0  0  0  0
    8.5205   -0.0258   -3.8074 H   0  0  0  1  0  0  0  0  0  0  0  0
    6.3785    1.2182   -1.7240 C   0  0  0  1  0  0  0  0  0  0  0  0
    5.3776    1.3563   -2.0761 H   0  0  0  1  0  0  0  0  0  0  0  0
    7.1046    2.4408   -1.8599 O   0  0  0  1  0  0  0  0  0  0  0  0
    7.4858    2.4910   -2.7396 H   0  0  0  1  0  0  0  0  0  0  0  0
    4.9499   -0.2762    1.5587 C   0  0  0  1  0  0  0  0  0  0  0  0
    5.1489    0.5463    2.2135 H   0  0  0  1  0  0  0  0  0  0  0  0
    3.9688   -0.6571    1.7516 H   0  0  0  1  0  0  0  0  0  0  0  0
    5.8964   -1.3034    1.8167 O   0  0  0  1  0  0  0  0  0  0  0  0
    5.7384   -1.6731    2.6884 H   0  0  0  1  0  0  0  0  0  0  0  0
    5.0075    0.2203    0.1178 C   0  0  0  1  0  0  0  0  0  0  0  0
    4.3408    1.0544    0.0496 H   0  0  0  1  0  0  0  0  0  0  0  0
    4.5307   -0.7990   -0.7345 O   0  0  0  1  0  0  0  0  0  0  0  0
    3.6788   -1.1086   -0.4183 H   0  0  0  1  0  0  0  0  0  0  0  0
    6.3906    0.7259   -0.2681 C   0  0  0  1  0  0  0  0  0  0  0  0
    6.6730    1.5261    0.3836 H   0  0  0  1  0  0  0  0  0  0  0  0
   13.2909   -3.2775   -2.4381 O   0  0  0  1  0  0  0  0  0  0  0  0
   23.9969  -10.4207   -2.3857 O   0  0  0  1  0  0  0  0  0  0  0  0
   24.2979   -9.3019   -1.2835 P   0  0  0  1  0  0  0  0  0  0  0  0
   22.9434   -8.4477   -1.4133 O   0  0  0  1  0  0  0  0  0  0  0  0
   25.3939   -8.3798   -1.7172 O   0  0  0  0  0  0  0  0  0  0  0  0
   24.4585   -9.9136    0.0694 O   0  0  0  1  0  0  0  0  0  0  0  0
   21.7636   -8.3282   -2.5147 P   0  0  0  1  0  0  0  0  0  0  0  0
   20.5345   -7.7302   -1.7185 O   0  0  0  1  0  0  0  0  0  0  0  0
   21.3193   -9.7079   -2.8971 O   0  0  0  0  0  0  0  0  0  0  0  0
   22.2904   -7.4037   -3.5336 O   0  0  0  1  0  0  0  0  0  0  0  0
   23.4767  -11.7206   -2.0640 C   0  0  0  1  0  0  0  0  0  0  0  0
   22.9135  -11.6687   -1.1556 H   0  0  0  1  0  0  0  0  0  0  0  0
   24.2841  -12.4125   -1.9446 H   0  0  0  1  0  0  0  0  0  0  0  0
   22.5870  -12.1706   -3.1852 C   0  0  0  1  0  0  0  0  0  0  0  0
   21.7741  -11.5745   -3.4410 H   0  0  0  1  0  0  0  0  0  0  0  0
   22.7866  -13.2932   -3.8674 C   0  0  0  1  0  0  0  0  0  0  0  0
   22.0217  -13.6630   -5.1050 C   0  0  0  1  0  0  0  0  0  0  0  0
   21.5809  -12.7847   -5.5282 H   0  0  0  1  0  0  0  0  0  0  0  0
   21.2519  -14.3620   -4.8527 H   0  0  0  1  0  0  0  0  0  0  0  0
   22.6872  -14.1059   -5.8163 H   0  0  0  1  0  0  0  0  0  0  0  0
   23.8182  -14.3009   -3.4403 C   0  0  0  1  0  0  0  0  0  0  0  0
   24.4933  -13.8166   -2.7660 H   0  0  0  1  0  0  0  0  0  0  0  0
   24.3507  -14.6181   -4.3125 H   0  0  0  1  0  0  0  0  0  0  0  0
   23.2721  -15.5391   -2.7481 C   0  0  0  1  0  0  0  0  0  0  0  0
   22.4615  -15.9066   -3.3421 H   0  0  0  1  0  0  0  0  0  0  0  0
   22.9039  -15.2345   -1.7908 H   0  0  0  1  0  0  0  0  0  0  0  0
   24.2208  -16.6857   -2.5219 C   0  0  0  1  0  0  0  0  0  0  0  0
   24.6034  -17.1456   -3.3726 H   0  0  0  1  0  0  0  0  0  0  0  0
   24.6221  -17.1736   -1.3542 C   0  0  0  1  0  0  0  0  0  0  0  0
   25.8089  -18.0899   -1.2565 C   0  0  0  1  0  0  0  0  0  0  0  0
   25.5213  -18.9955   -0.7644 H   0  0  0  1  0  0  0  0  0  0  0  0
   26.5842  -17.6105   -0.6962 H   0  0  0  1  0  0  0  0  0  0  0  0
   26.1662  -18.3163   -2.2393 H   0  0  0  1  0  0  0  0  0  0  0  0
   23.9529  -16.8709   -0.0452 C   0  0  0  1  0  0  0  0  0  0  0  0
   24.3405  -15.9467    0.3297 H   0  0  0  1  0  0  0  0  0  0  0  0
   24.1790  -17.6584    0.6429 H   0  0  0  1  0  0  0  0  0  0  0  0
   22.4423  -16.7498   -0.1627 C   0  0  0  1  0  0  0  0  0  0  0  0
   22.0550  -17.6732   -0.5399 H   0  0  0  1  0  0  0  0  0  0  0  0
   22.2163  -15.9607   -0.8491 H   0  0  0  1  0  0  0  0  0  0  0  0
   21.7709  -16.4494    1.1506 C   0  0  0  1  0  0  0  0  0  0  0  0
   22.3723  -16.4878    1.9982 H   0  0  0  1  0  0  0  0  0  0  0  0
   20.5003  -16.1423    1.3434 C   0  0  0  1  0  0  0  0  0  0  0  0
   19.4235  -16.3485    0.3159 C   0  0  0  1  0  0  0  0  0  0  0  0
   18.9912  -17.3158    0.4652 H   0  0  0  1  0  0  0  0  0  0  0  0
   19.8673  -16.3018   -0.6566 H   0  0  0  1  0  0  0  0  0  0  0  0
   20.0227  -15.6373    2.6759 C   0  0  0  1  0  0  0  0  0  0  0  0
   19.8220  -16.4669    3.3211 H   0  0  0  1  0  0  0  0  0  0  0  0
   19.1281  -15.0662    2.5408 H   0  0  0  1  0  0  0  0  0  0  0  0
   20.7782  -15.0194    3.1144 H   0  0  0  1  0  0  0  0  0  0  0  0
   18.3187  -15.3075    0.3941 C   0  0  0  1  0  0  0  0  0  0  0  0
   18.7308  -14.3537    0.1384 H   0  0  0  1  0  0  0  0  0  0  0  0
   17.9479  -15.2790    1.3974 H   0  0  0  1  0  0  0  0  0  0  0  0
   17.1800  -15.5942   -0.5248 C   0  0  0  1  0  0  0  0  0  0  0  0
   17.3425  -16.3642   -1.2048 H   0  0  0  1  0  0  0  0  0  0  0  0
   15.9893  -15.0122   -0.6035 C   0  0  0  1  0  0  0  0  0  0  0  0
   15.6077  -13.8814    0.3160 C   0  0  0  1  0  0  0  0  0  0  0  0
   15.0548  -13.1645   -0.2543 H   0  0  0  1  0  0  0  0  0  0  0  0
   16.5087  -13.4319    0.6779 H   0  0  0  1  0  0  0  0  0  0  0  0
   14.9260  -15.4073   -1.5889 C   0  0  0  1  0  0  0  0  0  0  0  0
   14.0766  -15.7909   -1.0633 H   0  0  0  1  0  0  0  0  0  0  0  0
   15.3098  -16.1611   -2.2442 H   0  0  0  1  0  0  0  0  0  0  0  0
   14.6345  -14.5514   -2.1610 H   0  0  0  1  0  0  0  0  0  0  0  0
   14.7646  -14.2752    1.5179 C   0  0  0  1  0  0  0  0  0  0  0  0
   15.3591  -14.9056    2.1458 H   0  0  0  1  0  0  0  0  0  0  0  0
   13.9173  -14.8229    1.1616 H   0  0  0  1  0  0  0  0  0  0  0  0
   14.2597  -13.1314    2.3538 C   0  0  0  1  0  0  0  0  0  0  0  0
   13.9296  -12.2802    1.8555 H   0  0  0  1  0  0  0  0  0  0  0  0
   14.2038  -13.1271    3.6813 C   0  0  0  1  0  0  0  0  0  0  0  0
   14.6535  -14.2752    4.5375 C   0  0  0  1  0  0  0  0  0  0  0  0
   15.1011  -15.0222    3.9158 H   0  0  0  1  0  0  0  0  0  0  0  0
   13.8057  -14.6906    5.0410 H   0  0  0  1  0  0  0  0  0  0  0  0
   13.6737  -11.9447    4.4423 C   0  0  0  1  0  0  0  0  0  0  0  0
   13.4046  -11.1694    3.7557 H   0  0  0  1  0  0  0  0  0  0  0  0
   14.4276  -11.5835    5.1102 H   0  0  0  1  0  0  0  0  0  0  0  0
   12.8112  -12.2392    5.0030 H   0  0  0  1  0  0  0  0  0  0  0  0
   15.6687  -13.8123    5.5698 C   0  0  0  1  0  0  0  0  0  0  0  0
   15.9835  -14.6600    6.1418 H   0  0  0  1  0  0  0  0  0  0  0  0
   15.1976  -13.1008    6.2155 H   0  0  0  1  0  0  0  0  0  0  0  0
   16.8707  -13.1777    4.9621 C   0  0  0  1  0  0  0  0  0  0  0  0
   17.2789  -13.5835    4.0959 H   0  0  0  1  0  0  0  0  0  0  0  0
   17.4369  -12.0925    5.5107 C   0  0  0  1  0  0  0  0  0  0  0  0
   17.1521  -11.6114    6.9038 C   0  0  0  1  0  0  0  0  0  0  0  0
   16.2083  -12.0012    7.2235 H   0  0  0  1  0  0  0  0  0  0  0  0
   17.1158  -10.5420    6.9051 H   0  0  0  1  0  0  0  0  0  0  0  0
   18.4298  -11.2159    4.8053 C   0  0  0  1  0  0  0  0  0  0  0  0
   18.7374  -11.6857    3.8945 H   0  0  0  1  0  0  0  0  0  0  0  0
   19.2823  -11.0652    5.4341 H   0  0  0  1  0  0  0  0  0  0  0  0
   17.9776  -10.2716    4.5842 H   0  0  0  1  0  0  0  0  0  0  0  0
   18.2342  -12.0744    7.8657 C   0  0  0  1  0  0  0  0  0  0  0  0
   18.5808  -13.0409    7.5649 H   0  0  0  1  0  0  0  0  0  0  0  0
   17.8247  -12.1329    8.8525 H   0  0  0  1  0  0  0  0  0  0  0  0
   19.3854  -11.1194    7.8683 C   0  0  0  1  0  0  0  0  0  0  0  0
   19.9555  -11.0506    7.0012 H   0  0  0  1  0  0  0  0  0  0  0  0
   19.7322  -10.3566    8.8903 C   0  0  0  1  0  0  0  0  0  0  0  0
   18.7667  -10.1647   10.0237 C   0  0  0  1  0  0  0  0  0  0  0  0
   19.3240   -9.9797   10.9182 H   0  0  0  1  0  0  0  0  0  0  0  0
   18.1939  -11.0611   10.1386 H   0  0  0  1  0  0  0  0  0  0  0  0
   21.0421   -9.6353    9.0395 C   0  0  0  1  0  0  0  0  0  0  0  0
   21.8430  -10.3449    9.0354 H   0  0  0  1  0  0  0  0  0  0  0  0
   21.0487   -9.0957    9.9634 H   0  0  0  1  0  0  0  0  0  0  0  0
   21.1673   -8.9519    8.2258 H   0  0  0  1  0  0  0  0  0  0  0  0
   17.8102   -9.0046    9.8010 C   0  0  0  1  0  0  0  0  0  0  0  0
   17.1702   -9.2441    8.9776 H   0  0  0  1  0  0  0  0  0  0  0  0
   18.3825   -8.1315    9.5663 H   0  0  0  1  0  0  0  0  0  0  0  0
   16.9538   -8.7073   11.0028 C   0  0  0  1  0  0  0  0  0  0  0  0
   16.9117   -7.7139   11.3077 H   0  0  0  1  0  0  0  0  0  0  0  0
   16.2434   -9.5796   11.7187 C   0  0  0  1  0  0  0  0  0  0  0  0
   15.9719  -10.9522   11.1713 C   0  0  0  1  0  0  0  0  0  0  0  0
   16.3764  -11.6751   11.8486 H   0  0  0  1  0  0  0  0  0  0  0  0
   16.4564  -11.0422   10.2216 H   0  0  0  1  0  0  0  0  0  0  0  0
   15.7678   -9.3030   13.1295 C   0  0  0  1  0  0  0  0  0  0  0  0
   16.0227   -8.3002   13.4022 H   0  0  0  1  0  0  0  0  0  0  0  0
   16.2386   -9.9866   13.8048 H   0  0  0  1  0  0  0  0  0  0  0  0
   14.7062   -9.4268   13.1785 H   0  0  0  1  0  0  0  0  0  0  0  0
   14.4902  -11.2375   10.9875 C   0  0  0  1  0  0  0  0  0  0  0  0
   14.0621  -10.4811   10.3635 H   0  0  0  1  0  0  0  0  0  0  0  0
   14.0096  -11.2263   11.9433 H   0  0  0  1  0  0  0  0  0  0  0  0
   14.2827  -12.5746   10.3499 C   0  0  0  1  0  0  0  0  0  0  0  0
   14.7959  -13.3846   10.7526 H   0  0  0  1  0  0  0  0  0  0  0  0
   13.4916  -12.8046    9.3074 C   0  0  0  1  0  0  0  0  0  0  0  0
   13.3027  -14.1589    8.6881 C   0  0  0  1  0  0  0  0  0  0  0  0
   13.6305  -14.0946    7.6716 H   0  0  0  1  0  0  0  0  0  0  0  0
   12.2558  -14.3789    8.7126 H   0  0  0  1  0  0  0  0  0  0  0  0
   12.7087  -11.6999    8.6555 C   0  0  0  1  0  0  0  0  0  0  0  0
   13.3393  -10.8367    8.7016 H   0  0  0  1  0  0  0  0  0  0  0  0
   11.7962  -11.5250    9.1861 H   0  0  0  1  0  0  0  0  0  0  0  0
   12.4884  -11.9479    7.6382 H   0  0  0  1  0  0  0  0  0  0  0  0
   14.0289  -15.3315    9.3268 C   0  0  0  1  0  0  0  0  0  0  0  0
   15.0558  -15.0632    9.4622 H   0  0  0  1  0  0  0  0  0  0  0  0
   13.9633  -16.1723    8.6683 H   0  0  0  1  0  0  0  0  0  0  0  0
   13.4603  -15.7201   10.6521 C   0  0  0  1  0  0  0  0  0  0  0  0
   13.2545  -14.9688   11.3412 H   0  0  0  1  0  0  0  0  0  0  0  0
   13.2046  -16.9783   10.9942 C   0  0  0  1  0  0  0  0  0  0  0  0
   13.4241  -18.1504   10.0823 C   0  0  0  1  0  0  0  0  0  0  0  0
   13.7880  -17.8045    9.1374 H   0  0  0  1  0  0  0  0  0  0  0  0
   12.4992  -18.6692    9.9398 H   0  0  0  1  0  0  0  0  0  0  0  0
   14.1415  -18.8128   10.5197 H   0  0  0  1  0  0  0  0  0  0  0  0
   12.6614  -17.3315   12.3575 C   0  0  0  1  0  0  0  0  0  0  0  0
   13.3271  -18.0485   12.7906 H   0  0  0  1  0  0  0  0  0  0  0  0
   11.6820  -17.7519   12.2633 H   0  0  0  1  0  0  0  0  0  0  0  0
   12.6169  -16.4562   12.9714 H   0  0  0  1  0  0  0  0  0  0  0  0
   16.0939   -5.0515   -1.4671 C   0  0  0  1  0  0  0  0  0  0  0  0
   16.2849   -5.5264   -0.5275 H   0  0  0  1  0  0  0  0  0  0  0  0
   14.9175   -5.7227   -2.1254 C   0  0  0  1  0  0  0  0  0  0  0  0
   15.1623   -6.7443   -2.3287 H   0  0  0  1  0  0  0  0  0  0  0  0
   15.8439   -3.6718   -1.2452 O   0  0  0  1  0  0  0  0  0  0  0  0
   14.5747   -5.0263   -3.4185 C   0  0  0  1  0  0  0  0  0  0  0  0
   13.6436   -5.4048   -3.7857 H   0  0  0  1  0  0  0  0  0  0  0  0
   15.6588   -2.9693   -2.4717 C   0  0  0  1  0  0  0  0  0  0  0  0
   16.5311   -3.0801   -3.0813 H   0  0  0  1  0  0  0  0  0  0  0  0
   14.4546   -3.5367   -3.2032 C   0  0  0  1  0  0  0  0  0  0  0  0
   14.3705   -3.0557   -4.1553 H   0  0  0  1  0  0  0  0  0  0  0  0
   17.2340   -5.1862   -2.3078 O   0  0  0  1  0  0  0  0  0  0  0  0
   13.7916   -5.6676   -1.2475 O   0  0  0  1  0  0  0  0  0  0  0  0
   13.0032   -5.9451   -1.7197 H   0  0  0  1  0  0  0  0  0  0  0  0
   15.6000   -5.2799   -4.3726 O   0  0  0  1  0  0  0  0  0  0  0  0
   15.3461   -4.9108   -5.2216 H   0  0  0  1  0  0  0  0  0  0  0  0
   15.4283   -1.5055   -2.1831 C   0  0  0  1  0  0  0  0  0  0  0  0
   16.3304   -0.9594   -2.3645 H   0  0  0  1  0  0  0  0  0  0  0  0
   15.1384   -1.3852   -1.1602 H   0  0  0  1  0  0  0  0  0  0  0  0
   14.6528   -1.1345   -2.8202 H   0  0  0  1  0  0  0  0  0  0  0  0
   19.7244   -6.7092   -2.2874 C   0  0  0  1  0  0  0  0  0  0  0  0
   18.8756   -7.1516   -2.7657 H   0  0  0  1  0  0  0  0  0  0  0  0
   19.2597   -5.7750   -1.2038 C   0  0  0  1  0  0  0  0  0  0  0  0
   20.1098   -5.3682   -0.6971 H   0  0  0  1  0  0  0  0  0  0  0  0
   20.4784   -5.9844   -3.2400 O   0  0  0  1  0  0  0  0  0  0  0  0
   18.4564   -4.6580   -1.8043 C   0  0  0  1  0  0  0  0  0  0  0  0
   18.2467   -3.9336   -1.0452 H   0  0  0  1  0  0  0  0  0  0  0  0
   19.6618   -5.0252   -3.9351 C   0  0  0  1  0  0  0  0  0  0  0  0
   20.2328   -4.5559   -4.7089 H   0  0  0  1  0  0  0  0  0  0  0  0
   19.2019   -3.9846   -2.9328 C   0  0  0  1  0  0  0  0  0  0  0  0
   18.5546   -3.2848   -3.4187 H   0  0  0  1  0  0  0  0  0  0  0  0
   18.4322   -6.5096   -0.2538 N   0  0  0  1  0  0  0  0  0  0  0  0
   17.6963   -7.0599   -0.5943 H   0  0  0  1  0  0  0  0  0  0  0  0
   20.3391   -3.2970   -2.4068 O   0  0  0  1  0  0  0  0  0  0  0  0
   20.8916   -3.9634   -1.9917 H   0  0  0  1  0  0  0  0  0  0  0  0
   18.4687   -5.7137   -4.5388 C   0  0  0  1  0  0  0  0  0  0  0  0
   17.9956   -6.3059   -3.7836 H   0  0  0  1  0  0  0  0  0  0  0  0
   18.8038   -6.3483   -5.3325 H   0  0  0  1  0  0  0  0  0  0  0  0
   17.5179   -4.7947   -5.0601 O   0  0  0  1  0  0  0  0  0  0  0  0
   17.8017   -4.5356   -5.9399 H   0  0  0  1  0  0  0  0  0  0  0  0
   18.6425   -6.4583    1.0646 C   0  0  0  1  0  0  0  0  0  0  0  0
   19.5115   -5.7545    1.5775 O   0  0  0  1  0  0  0  0  0  0  0  0
   17.7382   -7.3280    1.9083 C   0  0  0  1  0  0  0  0  0  0  0  0
   18.1923   -7.3235    2.8771 H   0  0  0  1  0  0  0  0  0  0  0  0
   17.6949   -8.3223    1.5152 H   0  0  0  1  0  0  0  0  0  0  0  0
   16.7509   -6.9177    1.9512 H   0  0  0  1  0  0  0  0  0  0  0  0
  1  2  1  0  0  0  0
  1  3  1  0  0  0  0
  1  4  1  0  0  0  0
  1 44  1  0  0  0  0
  3 20  1  0  0  0  0
  4  5  1  0  0  0  0
  4  6  1  0  0  0  0
  4  8  1  0  0  0  0
  6  7  1  0  0  0  0
  8  9  1  0  0  0  0
  8 10  1  0  0  0  0
  8 20  1  0  0  0  0
 10 11  1  0  0  0  0
 12 13  1  0  0  0  0
 12 14  1  0  0  0  0
 12 15  1  0  0  0  0
 12 17  1  0  0  0  0
 15 16  1  0  0  0  0
 17 18  1  0  0  0  0
 17 19  1  0  0  0  0
 17 20  1  0  0  0  0
 19 22  1  0  0  0  0
 20 21  1  0  0  0  0
 22 23  1  0  0  0  0
 22 24  1  0  0  0  0
 22 25  1  0  0  0  0
 24 42  1  0  0  0  0
 25 26  1  0  0  0  0
 25 27  1  0  0  0  0
 25 29  1  0  0  0  0
 27 28  1  0  0  0  0
 29 30  1  0  0  0  0
 29 31  1  0  0  0  0
 29 42  1  0  0  0  0
 31 32  1  0  0  0  0
 33 34  1  0  0  0  0
 33 35  1  0  0  0  0
 33 36  1  0  0  0  0
 33 38  1  0  0  0  0
 36 37  1  0  0  0  0
 38 39  1  0  0  0  0
 38 40  1  0  0  0  0
 38 42  1  0  0  0  0
 40 41  1  0  0  0  0
 42 43  1  0  0  0  0
 44194  1  0  0  0  0
 45 46  1  0  0  0  0
 45 54  1  0  0  0  0
 46 47  1  0  0  0  0
 46 48  1  0  0  0  0
 46 49  2  0  0  0  0
 47 50  1  0  0  0  0
 50 51  1  0  0  0  0
 50 52  1  0  0  0  0
 50 53  2  0  0  0  0
 51205  1  0  0  0  0
 54 55  1  0  0  0  0
 54 56  1  0  0  0  0
 54 57  1  0  0  0  0
 57 58  1  0  0  0  0
 57 59  2  0  0  0  0
 59 60  1  0  0  0  0
 59 64  1  0  0  0  0
 60 61  1  0  0  0  0
 60 62  1  0  0  0  0
 60 63  1  0  0  0  0
 64 65  1  0  0  0  0
 64 66  1  0  0  0  0
 64 67  1  0  0  0  0
 67 68  1  0  0  0  0
 67 69  1  0  0  0  0
 67 70  1  0  0  0  0
 70 71  1  0  0  0  0
 70 72  2  0  0  0  0
 72 73  1  0  0  0  0
 72 77  1  0  0  0  0
 73 74  1  0  0  0  0
 73 75  1  0  0  0  0
 73 76  1  0  0  0  0
 77 78  1  0  0  0  0
 77 79  1  0  0  0  0
 77 80  1  0  0  0  0
 80 81  1  0  0  0  0
 80 82  1  0  0  0  0
 80 83  1  0  0  0  0
 83 84  1  0  0  0  0
 83 85  2  0  0  0  0
 85 86  1  0  0  0  0
 85 89  1  0  0  0  0
 86 87  1  0  0  0  0
 86 88  1  0  0  0  0
 86 93  1  0  0  0  0
 89 90  1  0  0  0  0
 89 91  1  0  0  0  0
 89 92  1  0  0  0  0
 93 94  1  0  0  0  0
 93 95  1  0  0  0  0
 93 96  1  0  0  0  0
 96 97  1  0  0  0  0
 96 98  2  0  0  0  0
 98 99  1  0  0  0  0
 98102  1  0  0  0  0
 99100  1  0  0  0  0
 99101  1  0  0  0  0
 99106  1  0  0  0  0
102103  1  0  0  0  0
102104  1  0  0  0  0
102105  1  0  0  0  0
106107  1  0  0  0  0
106108  1  0  0  0  0
106109  1  0  0  0  0
109110  1  0  0  0  0
109111  2  0  0  0  0
111112  1  0  0  0  0
111115  1  0  0  0  0
112113  1  0  0  0  0
112114  1  0  0  0  0
112119  1  0  0  0  0
115116  1  0  0  0  0
115117  1  0  0  0  0
115118  1  0  0  0  0
119120  1  0  0  0  0
119121  1  0  0  0  0
119122  1  0  0  0  0
122123  1  0  0  0  0
122124  2  0  0  0  0
124125  1  0  0  0  0
124128  1  0  0  0  0
125126  1  0  0  0  0
125127  1  0  0  0  0
125132  1  0  0  0  0
128129  1  0  0  0  0
128130  1  0  0  0  0
128131  1  0  0  0  0
132133  1  0  0  0  0
132134  1  0  0  0  0
132135  1  0  0  0  0
135136  1  0  0  0  0
135137  2  0  0  0  0
137138  1  0  0  0  0
137141  1  0  0  0  0
138139  1  0  0  0  0
138140  1  0  0  0  0
138145  1  0  0  0  0
141142  1  0  0  0  0
141143  1  0  0  0  0
141144  1  0  0  0  0
145146  1  0  0  0  0
145147  1  0  0  0  0
145148  1  0  0  0  0
148149  1  0  0  0  0
148150  2  0  0  0  0
150151  1  0  0  0  0
150154  1  0  0  0  0
151152  1  0  0  0  0
151153  1  0  0  0  0
151158  1  0  0  0  0
154155  1  0  0  0  0
154156  1  0  0  0  0
154157  1  0  0  0  0
158159  1  0  0  0  0
158160  1  0  0  0  0
158161  1  0  0  0  0
161162  1  0  0  0  0
161163  2  0  0  0  0
163164  1  0  0  0  0
163167  1  0  0  0  0
164165  1  0  0  0  0
164166  1  0  0  0  0
164171  1  0  0  0  0
167168  1  0  0  0  0
167169  1  0  0  0  0
167170  1  0  0  0  0
171172  1  0  0  0  0
171173  1  0  0  0  0
171174  1  0  0  0  0
174175  1  0  0  0  0
174176  2  0  0  0  0
176177  1  0  0  0  0
176181  1  0  0  0  0
177178  1  0  0  0  0
177179  1  0  0  0  0
177180  1  0  0  0  0
181182  1  0  0  0  0
181183  1  0  0  0  0
181184  1  0  0  0  0
185186  1  0  0  0  0
185187  1  0  0  0  0
185189  1  0  0  0  0
185196  1  0  0  0  0
187188  1  0  0  0  0
187190  1  0  0  0  0
187197  1  0  0  0  0
189192  1  0  0  0  0
190191  1  0  0  0  0
190194  1  0  0  0  0
190199  1  0  0  0  0
192193  1  0  0  0  0
192194  1  0  0  0  0
192201  1  0  0  0  0
194195  1  0  0  0  0
196210  1  0  0  0  0
197198  1  0  0  0  0
199200  1  0  0  0  0
201202  1  0  0  0  0
201203  1  0  0  0  0
201204  1  0  0  0  0
205206  1  0  0  0  0
205207  1  0  0  0  0
205209  1  0  0  0  0
207208  1  0  0  0  0
207210  1  0  0  0  0
207216  1  0  0  0  0
209212  1  0  0  0  0
210211  1  0  0  0  0
210214  1  0  0  0  0
212213  1  0  0  0  0
212214  1  0  0  0  0
212220  1  0  0  0  0
214215  1  0  0  0  0
214218  1  0  0  0  0
216217  1  0  0  0  0
216225  1  0  0  0  0
218219  1  0  0  0  0
220221  1  0  0  0  0
220222  1  0  0  0  0
220223  1  0  0  0  0
223224  1  0  0  0  0
225226  2  0  0  0  0
225227  1  0  0  0  0
227228  1  0  0  0  0
227229  1  0  0  0  0
227230  1  0  0  0  0
M  BCL ATM C_TeTeTeTe H_S O_Te2Te2TeTe C_TeTeTeTe H_S O_Te2Te2TeTe H_S C_TeTeTeTe H_S O_Te2Te2TeTe H_S C_TeTeTeTe H_S H_S O_Te2Te2TeTe H_S C_TeTeTeTe H_S O_Te2Te2TeTe C_TeTeTeTe H_S C_TeTeTeTe H_S O_Te2Te2TeTe C_TeTeTeTe H_S O_Te2Te2TeTe H_S C_TeTeTeTe H_S O_Te2Te2TeTe H_S C_TeTeTeTe H_S H_S O_Te2Te2TeTe H_S C_TeTeTeTe H_S O_Te2Te2TeTe H_S C_TeTeTeTe H_S O_Te2Te2TeTe O_Tr2TrTrPi2 P_TeTeTeTePi O_Tr2TrTrPi2 O_Te2Te2TeTe O_Tr2Tr2TrPi P_TeTeTeTePi O_Tr2TrTrPi2 O_Te2Te2TeTe O_Tr2Tr2TrPi C_TeTeTeTe H_S H_S C_TrTrTrPi H_S C_TrTrTrPi C_TeTeTeTe H_S H_S H_S C_TeTeTeTe H_S H_S C_TeTeTeTe H_S H_S C_TrTrTrPi H_S C_TrTrTrPi C_TeTeTeTe H_S H_S H_S C_TeTeTeTe H_S H_S C_TeTeTeTe H_S H_S C_TrTrTrPi H_S C_TrTrTrPi C_TeTeTeTe H_S H_S C_TeTeTeTe H_S H_S H_S C_TeTeTeTe H_S H_S C_TrTrTrPi H_S C_TrTrTrPi C_TeTeTeTe H_S H_S C_TeTeTeTe H_S H_S H_S C_TeTeTeTe H_S H_S C_TrTrTrPi H_S C_TrTrTrPi C_TeTeTeTe H_S H_S C_TeTeTeTe H_S H_S H_S C_TeTeTeTe H_S H_S C_TrTrTrPi H_S C_TrTrTrPi C_TeTeTeTe H_S H_S C_TeTeTeTe H_S H_S H_S C_TeTeTeTe H_S H_S C_TrTrTrPi H_S C_TrTrTrPi C_TeTeTeTe H_S H_S C_TeTeTeTe H_S H_S H_S C_TeTeTeTe H_S H_S C_TrTrTrPi H_S C_TrTrTrPi C_TeTeTeTe H_S H_S C_TeTeTeTe H_S H_S H_S C_TeTeTeTe H_S H_S C_TrTrTrPi H_S C_TrTrTrPi C_TeTeTeTe H_S H_S C_TeTeTeTe H_S H_S H_S C_TeTeTeTe H_S H_S C_TrTrTrPi H_S C_TrTrTrPi C_TeTeTeTe H_S H_S H_S C_TeTeTeTe H_S H_S H_S C_TeTeTeTe H_S C_TeTeTeTe H_S O_Te2Te2TeTe C_TeTeTeTe H_S C_TeTeTeTe H_S C_TeTeTeTe H_S O_Te2Te2TeTe O_Te2Te2TeTe H_S O_Te2Te2TeTe H_S C_TeTeTeTe H_S H_S H_S C_TeTeTeTe H_S C_TeTeTeTe H_S O_Te2Te2TeTe C_TeTeTeTe H_S C_TeTeTeTe H_S C_TeTeTeTe H_S N_TrTrTrPi2 H_S O_Te2Te2TeTe H_S C_TeTeTeTe H_S H_S O_Te2Te2TeTe H_S C_TrTrTrPi O_Tr2Tr2TrPi C_TeTeTeTe H_S H_S H_S
M  BCL BND NonConjugatedSingleBond NonConjugatedSingleBondInRing NonConjugatedSingleBondInRing NonConjugatedSingleBond NonConjugatedSingleBondInRing NonConjugatedSingleBond NonConjugatedSingleBond NonConjugatedSingleBondInRing NonConjugatedSingleBond NonConjugatedSingleBond NonConjugatedSingleBond NonConjugatedSingleBondInRing NonConjugatedSingleBond NonConjugatedSingleBond NonConjugatedSingleBond NonConjugatedSingleBond NonConjugatedSingleBond NonConjugatedSingleBond NonConjugatedSingleBond NonConjugatedSingleBond NonConjugatedSingleBond NonConjugatedSingleBond NonConjugatedSingleBond NonConjugatedSingleBond NonConjugatedSingleBondInRing NonConjugatedSingleBondInRing NonConjugatedSingleBondInRing NonConjugatedSingleBond NonConjugatedSingleBond NonConjugatedSingleBondInRing NonConjugatedSingleBond NonConjugatedSingleBond NonConjugatedSingleBond NonConjugatedSingleBondInRing NonConjugatedSingleBond NonConjugatedSingleBond NonConjugatedSingleBond NonConjugatedSingleBond NonConjugatedSingleBond NonConjugatedSingleBond NonConjugatedSingleBond NonConjugatedSingleBond NonConjugatedSingleBond NonConjugatedSingleBond NonConjugatedSingleBond NonConjugatedSingleBond ConjugatedSingleBond NonConjugatedSingleBond ConjugatedSingleBond ConjugatedSingleBond ConjugatedDoubleBond ConjugatedSingleBond ConjugatedSingleBond ConjugatedSingleBond ConjugatedDoubleBond NonConjugatedSingleBond NonConjugatedSingleBond NonConjugatedSingleBond NonConjugatedSingleBond NonConjugatedSingleBond ConjugatedDoubleBond NonConjugatedSingleBond NonConjugatedSingleBond NonConjugatedSingleBond NonConjugatedSingleBond NonConjugatedSingleBond NonConjugatedSingleBond NonConjugatedSingleBond NonConjugatedSingleBond NonConjugatedSingleBond NonConjugatedSingleBond NonConjugatedSingleBond NonConjugatedSingleBond ConjugatedDoubleBond NonConjugatedSingleBond NonConjugatedSingleBond NonConjugatedSingleBond NonConjugatedSingleBond NonConjugatedSingleBond NonConjugatedSingleBond NonConjugatedSingleBond NonConjugatedSingleBond NonConjugatedSingleBond NonConjugatedSingleBond NonConjugatedSingleBond NonConjugatedSingleBond ConjugatedDoubleBond NonConjugatedSingleBond NonConjugatedSingleBond NonConjugatedSingleBond NonConjugatedSingleBond NonConjugatedSingleBond NonConjugatedSingleBond NonConjugatedSingleBond NonConjugatedSingleBond NonConjugatedSingleBond NonConjugatedSingleBond NonConjugatedSingleBond NonConjugatedSingleBond ConjugatedDoubleBond NonConjugatedSingleBond NonConjugatedSingleBond NonConjugatedSingleBond NonConjugatedSingleBond NonConjugatedSingleBond NonConjugatedSingleBond NonConjugatedSingleBond NonConjugatedSingleBond NonConjugatedSingleBond NonConjugatedSingleBond NonConjugatedSingleBond NonConjugatedSingleBond ConjugatedDoubleBond NonConjugatedSingleBond NonConjugatedSingleBond NonConjugatedSingleBond NonConjugatedSingleBond NonConjugatedSingleBond NonConjugatedSingleBond NonConjugatedSingleBond NonConjugatedSingleBond NonConjugatedSingleBond NonConjugatedSingleBond NonConjugatedSingleBond NonConjugatedSingleBond ConjugatedDoubleBond NonConjugatedSingleBond NonConjugatedSingleBond NonConjugatedSingleBond NonConjugatedSingleBond NonConjugatedSingleBond NonConjugatedSingleBond NonConjugatedSingleBond NonConjugatedSingleBond NonConjugatedSingleBond NonConjugatedSingleBond NonConjugatedSingleBond NonConjugatedSingleBond ConjugatedDoubleBond NonConjugatedSingleBond NonConjugatedSingleBond NonConjugatedSingleBond NonConjugatedSingleBond NonConjugatedSingleBond NonConjugatedSingleBond NonConjugatedSingleBond NonConjugatedSingleBond NonConjugatedSingleBond NonConjugatedSingleBond NonConjugatedSingleBond NonConjugatedSingleBond ConjugatedDoubleBond NonConjugatedSingleBond NonConjugatedSingleBond NonConjugatedSingleBond NonConjugatedSingleBond NonConjugatedSingleBond NonConjugatedSingleBond NonConjugatedSingleBond NonConjugatedSingleBond NonConjugatedSingleBond NonConjugatedSingleBond NonConjugatedSingleBond NonConjugatedSingleBond ConjugatedDoubleBond NonConjugatedSingleBond NonConjugatedSingleBond NonConjugatedSingleBond NonConjugatedSingleBond NonConjugatedSingleBond NonConjugatedSingleBond NonConjugatedSingleBond NonConjugatedSingleBond NonConjugatedSingleBond NonConjugatedSingleBond NonConjugatedSingleBond NonConjugatedSingleBond ConjugatedDoubleBond NonConjugatedSingleBond NonConjugatedSingleBond NonConjugatedSingleBond NonConjugatedSingleBond NonConjugatedSingleBond NonConjugatedSingleBond NonConjugatedSingleBond NonConjugatedSingleBond NonConjugatedSingleBond NonConjugatedSingleBondInRing NonConjugatedSingleBondInRing NonConjugatedSingleBond NonConjugatedSingleBond NonConjugatedSingleBondInRing NonConjugatedSingleBond NonConjugatedSingleBondInRing NonConjugatedSingleBond NonConjugatedSingleBondInRing NonConjugatedSingleBond NonConjugatedSingleBond NonConjugatedSingleBondInRing NonConjugatedSingleBond NonConjugatedSingleBond NonConjugatedSingleBond NonConjugatedSingleBond NonConjugatedSingleBond NonConjugatedSingleBond NonConjugatedSingleBond NonConjugatedSingleBond NonConjugatedSingleBond NonConjugatedSingleBondInRing NonConjugatedSingleBondInRing NonConjugatedSingleBond NonConjugatedSingleBondInRing NonConjugatedSingleBond NonConjugatedSingleBondInRing NonConjugatedSingleBond NonConjugatedSingleBondInRing NonConjugatedSingleBond NonConjugatedSingleBondInRing NonConjugatedSingleBond NonConjugatedSingleBond NonConjugatedSingleBond NonConjugatedSingleBond AmideSingleBond NonConjugatedSingleBond NonConjugatedSingleBond NonConjugatedSingleBond NonConjugatedSingleBond NonConjugatedSingleBond ConjugatedDoubleBond NonConjugatedSingleBond NonConjugatedSingleBond NonConjugatedSingleBond NonConjugatedSingleBond
M  BCL CHI   1   R   4   R   8   R  17   S  20   R  22   S  25   R  29   S  38   S  42   R  46   R  50   S 185   R 187   S 190   S 192   R 194   R 205   R 207   S 210   R 212   S 214   S
M  BCL DBI - - E E E E E E E E Z - -
M  END
> <ConfClashScore>
0.0134036 

> <ConfOneFourInteractionScore>
-0.969487 

> <ConfScore>
1.47292 

> <ConfScorePBest>
0.00809448 

> <ConfTolerance>
3.63245 

$$$$
L05.****
  PyMOL2.5          3D                             0

230233  0  0  0  0  0  0  0  0999 V2000
   13.0413   -3.5278   -1.4541 C   0  0  0  1  0  0  0  0  0  0  0  0
   13.9761   -3.4991   -0.9342 H   0  0  0  1  0  0  0  0  0  0  0  0
   12.4837   -4.8129   -1.4026 O   0  0  0  1  0  0  0  0  0  0  0  0
   12.0035   -2.6365   -0.7567 C   0  0  0  1  0  0  0  0  0  0  0  0
   12.0547   -1.6303   -1.1173 H   0  0  0  1  0  0  0  0  0  0  0  0
   12.1860   -2.6452    0.6599 O   0  0  0  1  0  0  0  0  0  0  0  0
   11.5370   -2.0690    1.0702 H   0  0  0  1  0  0  0  0  0  0  0  0
   10.6994   -3.2851   -1.1403 C   0  0  0  1  0  0  0  0  0  0  0  0
    9.9461   -3.0971   -0.4039 H   0  0  0  1  0  0  0  0  0  0  0  0
   10.2494   -2.8176   -2.4128 O   0  0  0  1  0  0  0  0  0  0  0  0
    9.4868   -3.3300   -2.6911 H   0  0  0  1  0  0  0  0  0  0  0  0
   11.6200   -5.0858    1.2462 C   0  0  0  1  0  0  0  0  0  0  0  0
   11.3979   -4.0874    1.5606 H   0  0  0  1  0  0  0  0  0  0  0  0
   11.4543   -5.7614    2.0593 H   0  0  0  1  0  0  0  0  0  0  0  0
   12.9892   -5.1517    0.8702 O   0  0  0  1  0  0  0  0  0  0  0  0
   13.1924   -6.0349    0.5536 H   0  0  0  1  0  0  0  0  0  0  0  0
   10.6857   -5.4572    0.1049 C   0  0  0  1  0  0  0  0  0  0  0  0
    9.6907   -5.1687    0.3724 H   0  0  0  1  0  0  0  0  0  0  0  0
   10.7560   -6.8707   -0.0421 O   0  0  0  1  0  0  0  0  0  0  0  0
   11.0537   -4.7741   -1.1960 C   0  0  0  1  0  0  0  0  0  0  0  0
   10.5440   -5.2514   -2.0067 H   0  0  0  1  0  0  0  0  0  0  0  0
   10.1296   -7.5424    1.0396 C   0  0  0  1  0  0  0  0  0  0  0  0
   10.5537   -7.2062    1.9626 H   0  0  0  1  0  0  0  0  0  0  0  0
    8.7444   -7.3275    1.0222 O   0  0  0  1  0  0  0  0  0  0  0  0
   10.2785   -9.0638    0.8947 C   0  0  0  1  0  0  0  0  0  0  0  0
   11.1871   -9.4069    1.3437 H   0  0  0  1  0  0  0  0  0  0  0  0
   10.2475   -9.4558   -0.4786 O   0  0  0  1  0  0  0  0  0  0  0  0
    9.6770  -10.2211   -0.5806 H   0  0  0  1  0  0  0  0  0  0  0  0
    9.0757   -9.5860    1.6357 C   0  0  0  1  0  0  0  0  0  0  0  0
    9.2750   -9.6645    2.6840 H   0  0  0  1  0  0  0  0  0  0  0  0
    8.6767  -10.8571    1.1310 O   0  0  0  1  0  0  0  0  0  0  0  0
    8.2164  -10.7405    0.2966 H   0  0  0  1  0  0  0  0  0  0  0  0
    6.4605   -9.5814    2.9861 C   0  0  0  1  0  0  0  0  0  0  0  0
    5.6793   -9.8207    2.2953 H   0  0  0  1  0  0  0  0  0  0  0  0
    7.1569  -10.3925    3.0327 H   0  0  0  1  0  0  0  0  0  0  0  0
    5.9147   -9.3115    4.2892 O   0  0  0  1  0  0  0  0  0  0  0  0
    6.3704   -8.5615    4.6784 H   0  0  0  1  0  0  0  0  0  0  0  0
    7.1645   -8.2989    2.5700 C   0  0  0  1  0  0  0  0  0  0  0  0
    7.8002   -7.9871    3.3722 H   0  0  0  1  0  0  0  0  0  0  0  0
    6.1922   -7.2905    2.3084 O   0  0  0  1  0  0  0  0  0  0  0  0
    6.6310   -6.4950    1.9982 H   0  0  0  1  0  0  0  0  0  0  0  0
    8.0071   -8.5246    1.3577 C   0  0  0  1  0  0  0  0  0  0  0  0
    7.3844   -8.8235    0.5405 H   0  0  0  1  0  0  0  0  0  0  0  0
   13.2349   -3.1160   -2.8023 O   0  0  0  1  0  0  0  0  0  0  0  0
   21.5451   -9.8146   -5.7769 O   0  0  0  1  0  0  0  0  0  0  0  0
   20.1149   -9.9009   -5.0226 P   0  0  0  1  0  0  0  0  0  0  0  0
   20.3904   -9.3109   -3.5588 O   0  0  0  1  0  0  0  0  0  0  0  0
   19.8001  -11.3632   -4.9753 O   0  0  0  0  0  0  0  0  0  0  0  0
   19.1111   -8.9884   -5.6198 O   0  0  0  1  0  0  0  0  0  0  0  0
   21.4413   -8.3890   -2.7432 P   0  0  0  1  0  0  0  0  0  0  0  0
   20.5498   -7.5570   -1.7486 O   0  0  0  1  0  0  0  0  0  0  0  0
   22.0076   -7.3645   -3.6754 O   0  0  0  0  0  0  0  0  0  0  0  0
   22.3274   -9.3445   -2.0557 O   0  0  0  1  0  0  0  0  0  0  0  0
   21.5654   -9.5148   -7.1935 C   0  0  0  1  0  0  0  0  0  0  0  0
   22.4857   -9.8453   -7.6278 H   0  0  0  1  0  0  0  0  0  0  0  0
   21.4544   -8.4621   -7.3499 H   0  0  0  1  0  0  0  0  0  0  0  0
   20.4103  -10.2536   -7.8026 C   0  0  0  1  0  0  0  0  0  0  0  0
   19.4916  -10.1517   -7.3259 H   0  0  0  1  0  0  0  0  0  0  0  0
   20.4339  -11.0273   -8.8894 C   0  0  0  1  0  0  0  0  0  0  0  0
   19.1644  -11.4547   -9.5670 C   0  0  0  1  0  0  0  0  0  0  0  0
   18.3544  -10.8449   -9.2252 H   0  0  0  1  0  0  0  0  0  0  0  0
   18.9628  -12.4791   -9.3328 H   0  0  0  1  0  0  0  0  0  0  0  0
   19.2712  -11.3447  -10.6260 H   0  0  0  1  0  0  0  0  0  0  0  0
   21.7322  -11.5020   -9.4790 C   0  0  0  1  0  0  0  0  0  0  0  0
   21.7038  -12.5693   -9.5504 H   0  0  0  1  0  0  0  0  0  0  0  0
   22.5292  -11.2088   -8.8281 H   0  0  0  1  0  0  0  0  0  0  0  0
   22.0020  -10.9316  -10.8618 C   0  0  0  1  0  0  0  0  0  0  0  0
   21.1356  -11.0882  -11.4698 H   0  0  0  1  0  0  0  0  0  0  0  0
   22.8355  -11.4503  -11.2875 H   0  0  0  1  0  0  0  0  0  0  0  0
   22.3136   -9.4590  -10.8417 C   0  0  0  1  0  0  0  0  0  0  0  0
   21.5932   -8.8201  -10.4489 H   0  0  0  1  0  0  0  0  0  0  0  0
   23.4403   -8.9147  -11.2885 C   0  0  0  1  0  0  0  0  0  0  0  0
   23.6071   -7.4460  -11.5579 C   0  0  0  1  0  0  0  0  0  0  0  0
   22.6654   -6.9519  -11.4394 H   0  0  0  1  0  0  0  0  0  0  0  0
   23.9603   -7.3049  -12.5580 H   0  0  0  1  0  0  0  0  0  0  0  0
   24.3144   -7.0351  -10.8681 H   0  0  0  1  0  0  0  0  0  0  0  0
   24.6586   -9.7460  -11.5637 C   0  0  0  1  0  0  0  0  0  0  0  0
   24.9232   -9.6318  -12.5942 H   0  0  0  1  0  0  0  0  0  0  0  0
   24.4231  -10.7710  -11.3669 H   0  0  0  1  0  0  0  0  0  0  0  0
   25.8535   -9.3517  -10.7109 C   0  0  0  1  0  0  0  0  0  0  0  0
   25.5034   -9.1696   -9.7163 H   0  0  0  1  0  0  0  0  0  0  0  0
   26.2648   -8.4506  -11.1154 H   0  0  0  1  0  0  0  0  0  0  0  0
   26.9570  -10.3727  -10.6351 C   0  0  0  1  0  0  0  0  0  0  0  0
   26.8285  -11.2371  -11.1989 H   0  0  0  1  0  0  0  0  0  0  0  0
   28.0882  -10.2886   -9.9191 C   0  0  0  1  0  0  0  0  0  0  0  0
   28.4448   -9.1191   -9.0483 C   0  0  0  1  0  0  0  0  0  0  0  0
   27.6492   -8.9746   -8.3476 H   0  0  0  1  0  0  0  0  0  0  0  0
   28.5307   -8.2555   -9.6742 H   0  0  0  1  0  0  0  0  0  0  0  0
   29.1485  -11.3533   -9.8936 C   0  0  0  1  0  0  0  0  0  0  0  0
   30.0588  -10.9606  -10.2960 H   0  0  0  1  0  0  0  0  0  0  0  0
   28.8296  -12.1881  -10.4821 H   0  0  0  1  0  0  0  0  0  0  0  0
   29.3120  -11.6694   -8.8845 H   0  0  0  1  0  0  0  0  0  0  0  0
   29.7396   -9.2609   -8.2648 C   0  0  0  1  0  0  0  0  0  0  0  0
   30.0366   -8.2927   -7.9196 H   0  0  0  1  0  0  0  0  0  0  0  0
   30.4912   -9.6536   -8.9173 H   0  0  0  1  0  0  0  0  0  0  0  0
   29.6122  -10.1753   -7.0758 C   0  0  0  1  0  0  0  0  0  0  0  0
   29.3721  -11.1707   -7.2577 H   0  0  0  1  0  0  0  0  0  0  0  0
   29.7834   -9.8057   -5.8122 C   0  0  0  1  0  0  0  0  0  0  0  0
   29.8028   -8.3501   -5.4162 C   0  0  0  1  0  0  0  0  0  0  0  0
   30.5623   -7.8445   -5.9752 H   0  0  0  1  0  0  0  0  0  0  0  0
   30.0180   -8.2736   -4.3709 H   0  0  0  1  0  0  0  0  0  0  0  0
   29.9706  -10.7680   -4.6759 C   0  0  0  1  0  0  0  0  0  0  0  0
   29.1179  -10.7291   -4.0308 H   0  0  0  1  0  0  0  0  0  0  0  0
   30.8476  -10.5015   -4.1240 H   0  0  0  1  0  0  0  0  0  0  0  0
   30.0797  -11.7596   -5.0630 H   0  0  0  1  0  0  0  0  0  0  0  0
   28.4592   -7.6972   -5.6974 C   0  0  0  1  0  0  0  0  0  0  0  0
   28.5843   -6.9876   -6.4884 H   0  0  0  1  0  0  0  0  0  0  0  0
   28.1343   -7.1916   -4.8121 H   0  0  0  1  0  0  0  0  0  0  0  0
   27.4165   -8.6663   -6.0953 C   0  0  0  1  0  0  0  0  0  0  0  0
   27.6740   -9.3443   -6.8406 H   0  0  0  1  0  0  0  0  0  0  0  0
   26.2047   -8.7636   -5.6114 C   0  0  0  1  0  0  0  0  0  0  0  0
   25.6624   -7.8671   -4.5306 C   0  0  0  1  0  0  0  0  0  0  0  0
   26.4684   -7.2855   -4.1343 H   0  0  0  1  0  0  0  0  0  0  0  0
   25.2490   -8.4789   -3.7562 H   0  0  0  1  0  0  0  0  0  0  0  0
   25.2413   -9.8009   -6.1093 C   0  0  0  1  0  0  0  0  0  0  0  0
   24.5476   -9.3482   -6.7866 H   0  0  0  1  0  0  0  0  0  0  0  0
   24.7090  -10.2197   -5.2810 H   0  0  0  1  0  0  0  0  0  0  0  0
   25.7804  -10.5743   -6.6153 H   0  0  0  1  0  0  0  0  0  0  0  0
   24.5820   -6.9208   -5.0282 C   0  0  0  1  0  0  0  0  0  0  0  0
   23.7683   -7.5119   -5.3936 H   0  0  0  1  0  0  0  0  0  0  0  0
   24.9926   -6.3437   -5.8302 H   0  0  0  1  0  0  0  0  0  0  0  0
   24.0377   -5.9665   -4.0011 C   0  0  0  1  0  0  0  0  0  0  0  0
   23.6853   -6.3690   -3.1092 H   0  0  0  1  0  0  0  0  0  0  0  0
   23.9739   -4.6546   -4.1473 C   0  0  0  1  0  0  0  0  0  0  0  0
   24.1528   -4.0237   -5.4992 C   0  0  0  1  0  0  0  0  0  0  0  0
   24.3741   -4.8015   -6.1998 H   0  0  0  1  0  0  0  0  0  0  0  0
   24.9810   -3.3487   -5.4414 H   0  0  0  1  0  0  0  0  0  0  0  0
   23.8186   -3.6946   -3.0044 C   0  0  0  1  0  0  0  0  0  0  0  0
   23.8797   -4.2281   -2.0790 H   0  0  0  1  0  0  0  0  0  0  0  0
   22.8678   -3.2088   -3.0737 H   0  0  0  1  0  0  0  0  0  0  0  0
   24.5977   -2.9623   -3.0457 H   0  0  0  1  0  0  0  0  0  0  0  0
   22.9529   -3.2501   -6.0211 C   0  0  0  1  0  0  0  0  0  0  0  0
   22.7868   -2.4078   -5.3824 H   0  0  0  1  0  0  0  0  0  0  0  0
   22.0970   -3.8916   -5.9961 H   0  0  0  1  0  0  0  0  0  0  0  0
   23.1387   -2.7538   -7.4300 C   0  0  0  1  0  0  0  0  0  0  0  0
   23.3376   -3.4603   -8.1668 H   0  0  0  1  0  0  0  0  0  0  0  0
   23.0677   -1.4814   -7.8022 C   0  0  0  1  0  0  0  0  0  0  0  0
   22.4693   -0.4366   -6.9034 C   0  0  0  1  0  0  0  0  0  0  0  0
   23.0875    0.4354   -6.9536 H   0  0  0  1  0  0  0  0  0  0  0  0
   22.4726   -0.8196   -5.9043 H   0  0  0  1  0  0  0  0  0  0  0  0
   23.5628   -0.9656   -9.1217 C   0  0  0  1  0  0  0  0  0  0  0  0
   24.2000   -0.1217   -8.9590 H   0  0  0  1  0  0  0  0  0  0  0  0
   22.7293   -0.6719   -9.7250 H   0  0  0  1  0  0  0  0  0  0  0  0
   24.1119   -1.7357   -9.6220 H   0  0  0  1  0  0  0  0  0  0  0  0
   21.0436   -0.0220   -7.2429 C   0  0  0  1  0  0  0  0  0  0  0  0
   20.4384   -0.9023   -7.3042 H   0  0  0  1  0  0  0  0  0  0  0  0
   21.0498    0.4739   -8.1911 H   0  0  0  1  0  0  0  0  0  0  0  0
   20.4437    0.8986   -6.2281 C   0  0  0  1  0  0  0  0  0  0  0  0
   20.9224    0.9474   -5.3061 H   0  0  0  1  0  0  0  0  0  0  0  0
   19.3663    1.6601   -6.3767 C   0  0  0  1  0  0  0  0  0  0  0  0
   18.5909    1.6742   -7.6636 C   0  0  0  1  0  0  0  0  0  0  0  0
   17.5511    1.7455   -7.4217 H   0  0  0  1  0  0  0  0  0  0  0  0
   18.7770    0.7509   -8.1713 H   0  0  0  1  0  0  0  0  0  0  0  0
   18.8237    2.5617   -5.3068 C   0  0  0  1  0  0  0  0  0  0  0  0
   19.0375    2.1437   -4.3452 H   0  0  0  1  0  0  0  0  0  0  0  0
   17.7648    2.6588   -5.4257 H   0  0  0  1  0  0  0  0  0  0  0  0
   19.2820    3.5253   -5.3864 H   0  0  0  1  0  0  0  0  0  0  0  0
   18.9303    2.8117   -8.6179 C   0  0  0  1  0  0  0  0  0  0  0  0
   19.9809    2.7729   -8.8173 H   0  0  0  1  0  0  0  0  0  0  0  0
   18.6933    3.7339   -8.1297 H   0  0  0  1  0  0  0  0  0  0  0  0
   18.2116    2.7853   -9.9268 C   0  0  0  1  0  0  0  0  0  0  0  0
   17.1833    2.9414   -9.9295 H   0  0  0  1  0  0  0  0  0  0  0  0
   18.8263    2.5704  -11.0981 C   0  0  0  1  0  0  0  0  0  0  0  0
   17.9907    2.2276  -12.3023 C   0  0  0  1  0  0  0  0  0  0  0  0
   16.9848    2.0720  -11.9726 H   0  0  0  1  0  0  0  0  0  0  0  0
   18.3733    1.3208  -12.7222 H   0  0  0  1  0  0  0  0  0  0  0  0
   20.2968    2.6566  -11.2562 C   0  0  0  1  0  0  0  0  0  0  0  0
   20.6303    3.3099  -10.4772 H   0  0  0  1  0  0  0  0  0  0  0  0
   20.5466    3.0604  -12.2151 H   0  0  0  1  0  0  0  0  0  0  0  0
   20.7416    1.6894  -11.1490 H   0  0  0  1  0  0  0  0  0  0  0  0
   17.9672    3.2791  -13.3997 C   0  0  0  1  0  0  0  0  0  0  0  0
   18.9690    3.4389  -13.7398 H   0  0  0  1  0  0  0  0  0  0  0  0
   17.5792    4.1889  -12.9914 H   0  0  0  1  0  0  0  0  0  0  0  0
   17.1186    2.8826  -14.5781 C   0  0  0  1  0  0  0  0  0  0  0  0
   17.5775    2.3491  -15.3438 H   0  0  0  1  0  0  0  0  0  0  0  0
   15.8269    3.1635  -14.7130 C   0  0  0  1  0  0  0  0  0  0  0  0
   15.0106    2.7743  -15.9111 C   0  0  0  1  0  0  0  0  0  0  0  0
   14.4244    3.6104  -16.2309 H   0  0  0  1  0  0  0  0  0  0  0  0
   14.3627    1.9629  -15.6527 H   0  0  0  1  0  0  0  0  0  0  0  0
   15.6627    2.4721  -16.7038 H   0  0  0  1  0  0  0  0  0  0  0  0
   15.0659    3.9127  -13.6462 C   0  0  0  1  0  0  0  0  0  0  0  0
   15.5081    4.8833  -13.5605 H   0  0  0  1  0  0  0  0  0  0  0  0
   15.1382    3.3942  -12.7131 H   0  0  0  1  0  0  0  0  0  0  0  0
   14.0371    4.0029  -13.9260 H   0  0  0  1  0  0  0  0  0  0  0  0
   15.8337   -5.2028   -1.5765 C   0  0  0  1  0  0  0  0  0  0  0  0
   15.9270   -5.7658   -0.6714 H   0  0  0  1  0  0  0  0  0  0  0  0
   14.6959   -5.7666   -2.4036 C   0  0  0  1  0  0  0  0  0  0  0  0
   14.9116   -6.7809   -2.6672 H   0  0  0  1  0  0  0  0  0  0  0  0
   15.5733   -3.8385   -1.2591 O   0  0  0  1  0  0  0  0  0  0  0  0
   14.5458   -4.9321   -3.6653 C   0  0  0  1  0  0  0  0  0  0  0  0
   13.6389   -5.2172   -4.1563 H   0  0  0  1  0  0  0  0  0  0  0  0
   15.6065   -3.0096   -2.4409 C   0  0  0  1  0  0  0  0  0  0  0  0
   16.5535   -3.1184   -2.9268 H   0  0  0  1  0  0  0  0  0  0  0  0
   14.4973   -3.4385   -3.3891 C   0  0  0  1  0  0  0  0  0  0  0  0
   14.6069   -2.9106   -4.3133 H   0  0  0  1  0  0  0  0  0  0  0  0
   17.0520   -5.2921   -2.3225 O   0  0  0  1  0  0  0  0  0  0  0  0
   13.4838   -5.7174   -1.6488 O   0  0  0  1  0  0  0  0  0  0  0  0
   13.6763   -5.8800   -0.7225 H   0  0  0  1  0  0  0  0  0  0  0  0
   15.6502   -5.1985   -4.5174 O   0  0  0  1  0  0  0  0  0  0  0  0
   16.3971   -4.6565   -4.2530 H   0  0  0  1  0  0  0  0  0  0  0  0
   15.4026   -1.5558   -2.0466 C   0  0  0  1  0  0  0  0  0  0  0  0
   15.1860   -0.9760   -2.9194 H   0  0  0  1  0  0  0  0  0  0  0  0
   16.2926   -1.1840   -1.5835 H   0  0  0  1  0  0  0  0  0  0  0  0
   14.5856   -1.4842   -1.3593 H   0  0  0  1  0  0  0  0  0  0  0  0
   19.6972   -6.5293   -2.2232 C   0  0  0  1  0  0  0  0  0  0  0  0
   18.9781   -6.9449   -2.8977 H   0  0  0  1  0  0  0  0  0  0  0  0
   18.9857   -5.8911   -1.0615 C   0  0  0  1  0  0  0  0  0  0  0  0
   19.7072   -5.5160   -0.3660 H   0  0  0  1  0  0  0  0  0  0  0  0
   20.4662   -5.5515   -2.8967 O   0  0  0  1  0  0  0  0  0  0  0  0
   18.1285   -4.7592   -1.5489 C   0  0  0  1  0  0  0  0  0  0  0  0
   17.7352   -4.2325   -0.7047 H   0  0  0  1  0  0  0  0  0  0  0  0
   19.6278   -4.5548   -3.5082 C   0  0  0  1  0  0  0  0  0  0  0  0
   20.2268   -3.8810   -4.0844 H   0  0  0  1  0  0  0  0  0  0  0  0
   18.9177   -3.7958   -2.4044 C   0  0  0  1  0  0  0  0  0  0  0  0
   18.2526   -3.0781   -2.8375 H   0  0  0  1  0  0  0  0  0  0  0  0
   18.1477   -6.8831   -0.4046 N   0  0  0  1  0  0  0  0  0  0  0  0
   17.5135   -7.3990   -0.9449 H   0  0  0  1  0  0  0  0  0  0  0  0
   19.8840   -3.1224   -1.5934 O   0  0  0  1  0  0  0  0  0  0  0  0
   19.4927   -2.2813   -1.3466 H   0  0  0  1  0  0  0  0  0  0  0  0
   18.6184   -5.2171   -4.4012 C   0  0  0  1  0  0  0  0  0  0  0  0
   18.4314   -4.5934   -5.2503 H   0  0  0  1  0  0  0  0  0  0  0  0
   17.7076   -5.3655   -3.8596 H   0  0  0  1  0  0  0  0  0  0  0  0
   19.1190   -6.4764   -4.8398 O   0  0  0  1  0  0  0  0  0  0  0  0
   19.1780   -6.4589   -5.7978 H   0  0  0  1  0  0  0  0  0  0  0  0
   18.2155   -7.1237    0.9593 C   0  0  0  1  0  0  0  0  0  0  0  0
   19.1312   -6.6325    1.5919 O   0  0  0  1  0  0  0  0  0  0  0  0
   17.1604   -7.9785    1.6035 C   0  0  0  1  0  0  0  0  0  0  0  0
   16.5210   -8.2666    0.7954 H   0  0  0  1  0  0  0  0  0  0  0  0
   16.6161   -7.4199    2.3361 H   0  0  0  1  0  0  0  0  0  0  0  0
   17.5994   -8.8388    2.0639 H   0  0  0  1  0  0  0  0  0  0  0  0
  1  2  1  0  0  0  0
  1  3  1  0  0  0  0
  1  4  1  0  0  0  0
  1 44  1  0  0  0  0
  3 20  1  0  0  0  0
  4  5  1  0  0  0  0
  4  6  1  0  0  0  0
  4  8  1  0  0  0  0
  6  7  1  0  0  0  0
  8  9  1  0  0  0  0
  8 10  1  0  0  0  0
  8 20  1  0  0  0  0
 10 11  1  0  0  0  0
 12 13  1  0  0  0  0
 12 14  1  0  0  0  0
 12 15  1  0  0  0  0
 12 17  1  0  0  0  0
 15 16  1  0  0  0  0
 17 18  1  0  0  0  0
 17 19  1  0  0  0  0
 17 20  1  0  0  0  0
 19 22  1  0  0  0  0
 20 21  1  0  0  0  0
 22 23  1  0  0  0  0
 22 24  1  0  0  0  0
 22 25  1  0  0  0  0
 24 42  1  0  0  0  0
 25 26  1  0  0  0  0
 25 27  1  0  0  0  0
 25 29  1  0  0  0  0
 27 28  1  0  0  0  0
 29 30  1  0  0  0  0
 29 31  1  0  0  0  0
 29 42  1  0  0  0  0
 31 32  1  0  0  0  0
 33 34  1  0  0  0  0
 33 35  1  0  0  0  0
 33 36  1  0  0  0  0
 33 38  1  0  0  0  0
 36 37  1  0  0  0  0
 38 39  1  0  0  0  0
 38 40  1  0  0  0  0
 38 42  1  0  0  0  0
 40 41  1  0  0  0  0
 42 43  1  0  0  0  0
 44194  1  0  0  0  0
 45 46  1  0  0  0  0
 45 54  1  0  0  0  0
 46 47  1  0  0  0  0
 46 48  1  0  0  0  0
 46 49  2  0  0  0  0
 47 50  1  0  0  0  0
 50 51  1  0  0  0  0
 50 52  1  0  0  0  0
 50 53  2  0  0  0  0
 51205  1  0  0  0  0
 54 55  1  0  0  0  0
 54 56  1  0  0  0  0
 54 57  1  0  0  0  0
 57 58  1  0  0  0  0
 57 59  2  0  0  0  0
 59 60  1  0  0  0  0
 59 64  1  0  0  0  0
 60 61  1  0  0  0  0
 60 62  1  0  0  0  0
 60 63  1  0  0  0  0
 64 65  1  0  0  0  0
 64 66  1  0  0  0  0
 64 67  1  0  0  0  0
 67 68  1  0  0  0  0
 67 69  1  0  0  0  0
 67 70  1  0  0  0  0
 70 71  1  0  0  0  0
 70 72  2  0  0  0  0
 72 73  1  0  0  0  0
 72 77  1  0  0  0  0
 73 74  1  0  0  0  0
 73 75  1  0  0  0  0
 73 76  1  0  0  0  0
 77 78  1  0  0  0  0
 77 79  1  0  0  0  0
 77 80  1  0  0  0  0
 80 81  1  0  0  0  0
 80 82  1  0  0  0  0
 80 83  1  0  0  0  0
 83 84  1  0  0  0  0
 83 85  2  0  0  0  0
 85 86  1  0  0  0  0
 85 89  1  0  0  0  0
 86 87  1  0  0  0  0
 86 88  1  0  0  0  0
 86 93  1  0  0  0  0
 89 90  1  0  0  0  0
 89 91  1  0  0  0  0
 89 92  1  0  0  0  0
 93 94  1  0  0  0  0
 93 95  1  0  0  0  0
 93 96  1  0  0  0  0
 96 97  1  0  0  0  0
 96 98  2  0  0  0  0
 98 99  1  0  0  0  0
 98102  1  0  0  0  0
 99100  1  0  0  0  0
 99101  1  0  0  0  0
 99106  1  0  0  0  0
102103  1  0  0  0  0
102104  1  0  0  0  0
102105  1  0  0  0  0
106107  1  0  0  0  0
106108  1  0  0  0  0
106109  1  0  0  0  0
109110  1  0  0  0  0
109111  2  0  0  0  0
111112  1  0  0  0  0
111115  1  0  0  0  0
112113  1  0  0  0  0
112114  1  0  0  0  0
112119  1  0  0  0  0
115116  1  0  0  0  0
115117  1  0  0  0  0
115118  1  0  0  0  0
119120  1  0  0  0  0
119121  1  0  0  0  0
119122  1  0  0  0  0
122123  1  0  0  0  0
122124  2  0  0  0  0
124125  1  0  0  0  0
124128  1  0  0  0  0
125126  1  0  0  0  0
125127  1  0  0  0  0
125132  1  0  0  0  0
128129  1  0  0  0  0
128130  1  0  0  0  0
128131  1  0  0  0  0
132133  1  0  0  0  0
132134  1  0  0  0  0
132135  1  0  0  0  0
135136  1  0  0  0  0
135137  2  0  0  0  0
137138  1  0  0  0  0
137141  1  0  0  0  0
138139  1  0  0  0  0
138140  1  0  0  0  0
138145  1  0  0  0  0
141142  1  0  0  0  0
141143  1  0  0  0  0
141144  1  0  0  0  0
145146  1  0  0  0  0
145147  1  0  0  0  0
145148  1  0  0  0  0
148149  1  0  0  0  0
148150  2  0  0  0  0
150151  1  0  0  0  0
150154  1  0  0  0  0
151152  1  0  0  0  0
151153  1  0  0  0  0
151158  1  0  0  0  0
154155  1  0  0  0  0
154156  1  0  0  0  0
154157  1  0  0  0  0
158159  1  0  0  0  0
158160  1  0  0  0  0
158161  1  0  0  0  0
161162  1  0  0  0  0
161163  2  0  0  0  0
163164  1  0  0  0  0
163167  1  0  0  0  0
164165  1  0  0  0  0
164166  1  0  0  0  0
164171  1  0  0  0  0
167168  1  0  0  0  0
167169  1  0  0  0  0
167170  1  0  0  0  0
171172  1  0  0  0  0
171173  1  0  0  0  0
171174  1  0  0  0  0
174175  1  0  0  0  0
174176  2  0  0  0  0
176177  1  0  0  0  0
176181  1  0  0  0  0
177178  1  0  0  0  0
177179  1  0  0  0  0
177180  1  0  0  0  0
181182  1  0  0  0  0
181183  1  0  0  0  0
181184  1  0  0  0  0
185186  1  0  0  0  0
185187  1  0  0  0  0
185189  1  0  0  0  0
185196  1  0  0  0  0
187188  1  0  0  0  0
187190  1  0  0  0  0
187197  1  0  0  0  0
189192  1  0  0  0  0
190191  1  0  0  0  0
190194  1  0  0  0  0
190199  1  0  0  0  0
192193  1  0  0  0  0
192194  1  0  0  0  0
192201  1  0  0  0  0
194195  1  0  0  0  0
196210  1  0  0  0  0
197198  1  0  0  0  0
199200  1  0  0  0  0
201202  1  0  0  0  0
201203  1  0  0  0  0
201204  1  0  0  0  0
205206  1  0  0  0  0
205207  1  0  0  0  0
205209  1  0  0  0  0
207208  1  0  0  0  0
207210  1  0  0  0  0
207216  1  0  0  0  0
209212  1  0  0  0  0
210211  1  0  0  0  0
210214  1  0  0  0  0
212213  1  0  0  0  0
212214  1  0  0  0  0
212220  1  0  0  0  0
214215  1  0  0  0  0
214218  1  0  0  0  0
216217  1  0  0  0  0
216225  1  0  0  0  0
218219  1  0  0  0  0
220221  1  0  0  0  0
220222  1  0  0  0  0
220223  1  0  0  0  0
223224  1  0  0  0  0
225226  2  0  0  0  0
225227  1  0  0  0  0
227228  1  0  0  0  0
227229  1  0  0  0  0
227230  1  0  0  0  0
M  BCL ATM C_TeTeTeTe H_S O_Te2Te2TeTe C_TeTeTeTe H_S O_Te2Te2TeTe H_S C_TeTeTeTe H_S O_Te2Te2TeTe H_S C_TeTeTeTe H_S H_S O_Te2Te2TeTe H_S C_TeTeTeTe H_S O_Te2Te2TeTe C_TeTeTeTe H_S C_TeTeTeTe H_S O_Te2Te2TeTe C_TeTeTeTe H_S O_Te2Te2TeTe H_S C_TeTeTeTe H_S O_Te2Te2TeTe H_S C_TeTeTeTe H_S H_S O_Te2Te2TeTe H_S C_TeTeTeTe H_S O_Te2Te2TeTe H_S C_TeTeTeTe H_S O_Te2Te2TeTe O_Tr2TrTrPi2 P_TeTeTeTePi O_Tr2TrTrPi2 O_Te2Te2TeTe O_Tr2Tr2TrPi P_TeTeTeTePi O_Tr2TrTrPi2 O_Te2Te2TeTe O_Tr2Tr2TrPi C_TeTeTeTe H_S H_S C_TrTrTrPi H_S C_TrTrTrPi C_TeTeTeTe H_S H_S H_S C_TeTeTeTe H_S H_S C_TeTeTeTe H_S H_S C_TrTrTrPi H_S C_TrTrTrPi C_TeTeTeTe H_S H_S H_S C_TeTeTeTe H_S H_S C_TeTeTeTe H_S H_S C_TrTrTrPi H_S C_TrTrTrPi C_TeTeTeTe H_S H_S C_TeTeTeTe H_S H_S H_S C_TeTeTeTe H_S H_S C_TrTrTrPi H_S C_TrTrTrPi C_TeTeTeTe H_S H_S C_TeTeTeTe H_S H_S H_S C_TeTeTeTe H_S H_S C_TrTrTrPi H_S C_TrTrTrPi C_TeTeTeTe H_S H_S C_TeTeTeTe H_S H_S H_S C_TeTeTeTe H_S H_S C_TrTrTrPi H_S C_TrTrTrPi C_TeTeTeTe H_S H_S C_TeTeTeTe H_S H_S H_S C_TeTeTeTe H_S H_S C_TrTrTrPi H_S C_TrTrTrPi C_TeTeTeTe H_S H_S C_TeTeTeTe H_S H_S H_S C_TeTeTeTe H_S H_S C_TrTrTrPi H_S C_TrTrTrPi C_TeTeTeTe H_S H_S C_TeTeTeTe H_S H_S H_S C_TeTeTeTe H_S H_S C_TrTrTrPi H_S C_TrTrTrPi C_TeTeTeTe H_S H_S C_TeTeTeTe H_S H_S H_S C_TeTeTeTe H_S H_S C_TrTrTrPi H_S C_TrTrTrPi C_TeTeTeTe H_S H_S H_S C_TeTeTeTe H_S H_S H_S C_TeTeTeTe H_S C_TeTeTeTe H_S O_Te2Te2TeTe C_TeTeTeTe H_S C_TeTeTeTe H_S C_TeTeTeTe H_S O_Te2Te2TeTe O_Te2Te2TeTe H_S O_Te2Te2TeTe H_S C_TeTeTeTe H_S H_S H_S C_TeTeTeTe H_S C_TeTeTeTe H_S O_Te2Te2TeTe C_TeTeTeTe H_S C_TeTeTeTe H_S C_TeTeTeTe H_S N_TrTrTrPi2 H_S O_Te2Te2TeTe H_S C_TeTeTeTe H_S H_S O_Te2Te2TeTe H_S C_TrTrTrPi O_Tr2Tr2TrPi C_TeTeTeTe H_S H_S H_S
M  BCL BND NonConjugatedSingleBond NonConjugatedSingleBondInRing NonConjugatedSingleBondInRing NonConjugatedSingleBond NonConjugatedSingleBondInRing NonConjugatedSingleBond NonConjugatedSingleBond NonConjugatedSingleBondInRing NonConjugatedSingleBond NonConjugatedSingleBond NonConjugatedSingleBond NonConjugatedSingleBondInRing NonConjugatedSingleBond NonConjugatedSingleBond NonConjugatedSingleBond NonConjugatedSingleBond NonConjugatedSingleBond NonConjugatedSingleBond NonConjugatedSingleBond NonConjugatedSingleBond NonConjugatedSingleBond NonConjugatedSingleBond NonConjugatedSingleBond NonConjugatedSingleBond NonConjugatedSingleBondInRing NonConjugatedSingleBondInRing NonConjugatedSingleBondInRing NonConjugatedSingleBond NonConjugatedSingleBond NonConjugatedSingleBondInRing NonConjugatedSingleBond NonConjugatedSingleBond NonConjugatedSingleBond NonConjugatedSingleBondInRing NonConjugatedSingleBond NonConjugatedSingleBond NonConjugatedSingleBond NonConjugatedSingleBond NonConjugatedSingleBond NonConjugatedSingleBond NonConjugatedSingleBond NonConjugatedSingleBond NonConjugatedSingleBond NonConjugatedSingleBond NonConjugatedSingleBond NonConjugatedSingleBond ConjugatedSingleBond NonConjugatedSingleBond ConjugatedSingleBond ConjugatedSingleBond ConjugatedDoubleBond ConjugatedSingleBond ConjugatedSingleBond ConjugatedSingleBond ConjugatedDoubleBond NonConjugatedSingleBond NonConjugatedSingleBond NonConjugatedSingleBond NonConjugatedSingleBond NonConjugatedSingleBond ConjugatedDoubleBond NonConjugatedSingleBond NonConjugatedSingleBond NonConjugatedSingleBond NonConjugatedSingleBond NonConjugatedSingleBond NonConjugatedSingleBond NonConjugatedSingleBond NonConjugatedSingleBond NonConjugatedSingleBond NonConjugatedSingleBond NonConjugatedSingleBond NonConjugatedSingleBond ConjugatedDoubleBond NonConjugatedSingleBond NonConjugatedSingleBond NonConjugatedSingleBond NonConjugatedSingleBond NonConjugatedSingleBond NonConjugatedSingleBond NonConjugatedSingleBond NonConjugatedSingleBond NonConjugatedSingleBond NonConjugatedSingleBond NonConjugatedSingleBond NonConjugatedSingleBond ConjugatedDoubleBond NonConjugatedSingleBond NonConjugatedSingleBond NonConjugatedSingleBond NonConjugatedSingleBond NonConjugatedSingleBond NonConjugatedSingleBond NonConjugatedSingleBond NonConjugatedSingleBond NonConjugatedSingleBond NonConjugatedSingleBond NonConjugatedSingleBond NonConjugatedSingleBond ConjugatedDoubleBond NonConjugatedSingleBond NonConjugatedSingleBond NonConjugatedSingleBond NonConjugatedSingleBond NonConjugatedSingleBond NonConjugatedSingleBond NonConjugatedSingleBond NonConjugatedSingleBond NonConjugatedSingleBond NonConjugatedSingleBond NonConjugatedSingleBond NonConjugatedSingleBond ConjugatedDoubleBond NonConjugatedSingleBond NonConjugatedSingleBond NonConjugatedSingleBond NonConjugatedSingleBond NonConjugatedSingleBond NonConjugatedSingleBond NonConjugatedSingleBond NonConjugatedSingleBond NonConjugatedSingleBond NonConjugatedSingleBond NonConjugatedSingleBond NonConjugatedSingleBond ConjugatedDoubleBond NonConjugatedSingleBond NonConjugatedSingleBond NonConjugatedSingleBond NonConjugatedSingleBond NonConjugatedSingleBond NonConjugatedSingleBond NonConjugatedSingleBond NonConjugatedSingleBond NonConjugatedSingleBond NonConjugatedSingleBond NonConjugatedSingleBond NonConjugatedSingleBond ConjugatedDoubleBond NonConjugatedSingleBond NonConjugatedSingleBond NonConjugatedSingleBond NonConjugatedSingleBond NonConjugatedSingleBond NonConjugatedSingleBond NonConjugatedSingleBond NonConjugatedSingleBond NonConjugatedSingleBond NonConjugatedSingleBond NonConjugatedSingleBond NonConjugatedSingleBond ConjugatedDoubleBond NonConjugatedSingleBond NonConjugatedSingleBond NonConjugatedSingleBond NonConjugatedSingleBond NonConjugatedSingleBond NonConjugatedSingleBond NonConjugatedSingleBond NonConjugatedSingleBond NonConjugatedSingleBond NonConjugatedSingleBond NonConjugatedSingleBond NonConjugatedSingleBond ConjugatedDoubleBond NonConjugatedSingleBond NonConjugatedSingleBond NonConjugatedSingleBond NonConjugatedSingleBond NonConjugatedSingleBond NonConjugatedSingleBond NonConjugatedSingleBond NonConjugatedSingleBond NonConjugatedSingleBond NonConjugatedSingleBond NonConjugatedSingleBond NonConjugatedSingleBond ConjugatedDoubleBond NonConjugatedSingleBond NonConjugatedSingleBond NonConjugatedSingleBond NonConjugatedSingleBond NonConjugatedSingleBond NonConjugatedSingleBond NonConjugatedSingleBond NonConjugatedSingleBond NonConjugatedSingleBond NonConjugatedSingleBondInRing NonConjugatedSingleBondInRing NonConjugatedSingleBond NonConjugatedSingleBond NonConjugatedSingleBondInRing NonConjugatedSingleBond NonConjugatedSingleBondInRing NonConjugatedSingleBond NonConjugatedSingleBondInRing NonConjugatedSingleBond NonConjugatedSingleBond NonConjugatedSingleBondInRing NonConjugatedSingleBond NonConjugatedSingleBond NonConjugatedSingleBond NonConjugatedSingleBond NonConjugatedSingleBond NonConjugatedSingleBond NonConjugatedSingleBond NonConjugatedSingleBond NonConjugatedSingleBond NonConjugatedSingleBondInRing NonConjugatedSingleBondInRing NonConjugatedSingleBond NonConjugatedSingleBondInRing NonConjugatedSingleBond NonConjugatedSingleBondInRing NonConjugatedSingleBond NonConjugatedSingleBondInRing NonConjugatedSingleBond NonConjugatedSingleBondInRing NonConjugatedSingleBond NonConjugatedSingleBond NonConjugatedSingleBond NonConjugatedSingleBond AmideSingleBond NonConjugatedSingleBond NonConjugatedSingleBond NonConjugatedSingleBond NonConjugatedSingleBond NonConjugatedSingleBond ConjugatedDoubleBond NonConjugatedSingleBond NonConjugatedSingleBond NonConjugatedSingleBond NonConjugatedSingleBond
M  BCL CHI   1   R   4   R   8   R  17   S  20   R  22   S  25   R  29   S  38   S  42   R  46   R  50   S 185   R 187   S 190   S 192   R 194   R 205   R 207   S 210   R 212   S 214   S
M  BCL DBI - - E E E E E E E E Z - -
M  END
> <ConfClashScore>
0.0143657 

> <ConfOneFourInteractionScore>
-0.963773 

> <ConfScore>
1.52129 

> <ConfScorePBest>
0.00799148 

> <ConfTolerance>
3.61444 

$$$$
L05.****
  PyMOL2.5          3D                             0

230233  0  0  0  0  0  0  0  0999 V2000
   11.9990   -3.5716   -2.9599 C   0  0  0  1  0  0  0  0  0  0  0  0
   12.0895   -3.5192   -4.0248 H   0  0  0  1  0  0  0  0  0  0  0  0
   10.9727   -2.7310   -2.5171 O   0  0  0  1  0  0  0  0  0  0  0  0
   11.5975   -4.9905   -2.5269 C   0  0  0  1  0  0  0  0  0  0  0  0
   11.9187   -5.1943   -1.5267 H   0  0  0  1  0  0  0  0  0  0  0  0
   12.1401   -5.9722   -3.4113 O   0  0  0  1  0  0  0  0  0  0  0  0
   12.2210   -6.8099   -2.9494 H   0  0  0  1  0  0  0  0  0  0  0  0
   10.0823   -4.9486   -2.6180 C   0  0  0  1  0  0  0  0  0  0  0  0
    9.7482   -5.2063   -3.6013 H   0  0  0  1  0  0  0  0  0  0  0  0
    9.4852   -5.8297   -1.6653 O   0  0  0  1  0  0  0  0  0  0  0  0
    8.7544   -5.3839   -1.2307 H   0  0  0  1  0  0  0  0  0  0  0  0
    9.0071   -3.0559   -4.6705 C   0  0  0  1  0  0  0  0  0  0  0  0
   10.0586   -2.9038   -4.7980 H   0  0  0  1  0  0  0  0  0  0  0  0
    8.7393   -4.0246   -5.0375 H   0  0  0  1  0  0  0  0  0  0  0  0
    8.2946   -2.0623   -5.3956 O   0  0  0  1  0  0  0  0  0  0  0  0
    7.8786   -1.4536   -4.7808 H   0  0  0  1  0  0  0  0  0  0  0  0
    8.6582   -2.9608   -3.1932 C   0  0  0  1  0  0  0  0  0  0  0  0
    7.7794   -3.5448   -3.0155 H   0  0  0  1  0  0  0  0  0  0  0  0
    8.4212   -1.6096   -2.8152 O   0  0  0  1  0  0  0  0  0  0  0  0
    9.7596   -3.4701   -2.2890 C   0  0  0  1  0  0  0  0  0  0  0  0
    9.4553   -3.3760   -1.2675 H   0  0  0  1  0  0  0  0  0  0  0  0
    8.4084   -1.4046   -1.4256 C   0  0  0  1  0  0  0  0  0  0  0  0
    7.9116   -2.2234   -0.9483 H   0  0  0  1  0  0  0  0  0  0  0  0
    9.7310   -1.2802   -0.9357 O   0  0  0  1  0  0  0  0  0  0  0  0
    7.7184   -0.1158   -1.0971 C   0  0  0  1  0  0  0  0  0  0  0  0
    6.6870   -0.2853   -0.8680 H   0  0  0  1  0  0  0  0  0  0  0  0
    7.8202    0.8047   -2.1846 O   0  0  0  1  0  0  0  0  0  0  0  0
    8.5779    1.3784   -2.0490 H   0  0  0  1  0  0  0  0  0  0  0  0
    8.4513    0.3978    0.1034 C   0  0  0  1  0  0  0  0  0  0  0  0
    7.8423    0.3096    0.9787 H   0  0  0  1  0  0  0  0  0  0  0  0
    8.8194    1.7612   -0.0845 O   0  0  0  1  0  0  0  0  0  0  0  0
    8.1283    2.2154   -0.5719 H   0  0  0  1  0  0  0  0  0  0  0  0
    9.0867   -0.4689    2.6230 C   0  0  0  1  0  0  0  0  0  0  0  0
    9.7927   -0.5447    3.4234 H   0  0  0  1  0  0  0  0  0  0  0  0
    9.0227    0.5486    2.2983 H   0  0  0  1  0  0  0  0  0  0  0  0
    7.8121   -0.8763    3.0994 O   0  0  0  1  0  0  0  0  0  0  0  0
    7.1865   -0.8876    2.3714 H   0  0  0  1  0  0  0  0  0  0  0  0
    9.5716   -1.3208    1.4633 C   0  0  0  1  0  0  0  0  0  0  0  0
    8.8409   -2.0803    1.2788 H   0  0  0  1  0  0  0  0  0  0  0  0
   10.8185   -1.9329    1.7908 O   0  0  0  1  0  0  0  0  0  0  0  0
   10.7060   -2.8852    1.8354 H   0  0  0  1  0  0  0  0  0  0  0  0
    9.6698   -0.4591    0.2274 C   0  0  0  1  0  0  0  0  0  0  0  0
   10.5442    0.1547    0.2884 H   0  0  0  1  0  0  0  0  0  0  0  0
   13.2349   -3.2021   -2.3594 O   0  0  0  1  0  0  0  0  0  0  0  0
   19.9755   -3.8642   -9.0675 O   0  0  0  1  0  0  0  0  0  0  0  0
   21.2936   -4.6149   -8.5673 P   0  0  0  1  0  0  0  0  0  0  0  0
   20.8028   -5.1543   -7.1651 O   0  0  0  1  0  0  0  0  0  0  0  0
   22.4234   -3.6430   -8.4318 O   0  0  0  0  0  0  0  0  0  0  0  0
   21.5592   -5.8097   -9.4304 O   0  0  0  1  0  0  0  0  0  0  0  0
   20.3075   -6.5247   -6.5147 P   0  0  0  1  0  0  0  0  0  0  0  0
   20.5407   -6.2842   -4.9772 O   0  0  0  1  0  0  0  0  0  0  0  0
   21.1996   -7.6247   -6.9535 O   0  0  0  0  0  0  0  0  0  0  0  0
   18.8474   -6.6123   -6.7247 O   0  0  0  1  0  0  0  0  0  0  0  0
   19.5612   -2.5460   -8.6576 C   0  0  0  1  0  0  0  0  0  0  0  0
   20.3939   -1.8757   -8.7044 H   0  0  0  1  0  0  0  0  0  0  0  0
   19.1869   -2.5812   -7.6558 H   0  0  0  1  0  0  0  0  0  0  0  0
   18.4801   -2.0745   -9.5849 C   0  0  0  1  0  0  0  0  0  0  0  0
   17.8783   -2.8100  -10.0074 H   0  0  0  1  0  0  0  0  0  0  0  0
   18.2071   -0.8147   -9.9262 C   0  0  0  1  0  0  0  0  0  0  0  0
   16.9026   -0.4860  -10.5896 C   0  0  0  1  0  0  0  0  0  0  0  0
   16.8340   -1.0082  -11.5210 H   0  0  0  1  0  0  0  0  0  0  0  0
   16.8486    0.5678  -10.7670 H   0  0  0  1  0  0  0  0  0  0  0  0
   16.0947   -0.7831   -9.9541 H   0  0  0  1  0  0  0  0  0  0  0  0
   19.1039    0.3440   -9.5869 C   0  0  0  1  0  0  0  0  0  0  0  0
   19.7448    0.0417   -8.7852 H   0  0  0  1  0  0  0  0  0  0  0  0
   18.4863    1.1558   -9.2639 H   0  0  0  1  0  0  0  0  0  0  0  0
   19.9797    0.8447  -10.7239 C   0  0  0  1  0  0  0  0  0  0  0  0
   19.3386    1.2248  -11.4916 H   0  0  0  1  0  0  0  0  0  0  0  0
   20.5363    0.0131  -11.1027 H   0  0  0  1  0  0  0  0  0  0  0  0
   20.9495    1.9204  -10.3590 C   0  0  0  1  0  0  0  0  0  0  0  0
   21.8783    1.6420   -9.9830 H   0  0  0  1  0  0  0  0  0  0  0  0
   20.6855    3.2085  -10.4905 C   0  0  0  1  0  0  0  0  0  0  0  0
   21.7767    4.2397  -10.4316 C   0  0  0  1  0  0  0  0  0  0  0  0
   21.3428    5.2170  -10.3920 H   0  0  0  1  0  0  0  0  0  0  0  0
   22.3918    4.1579  -11.3033 H   0  0  0  1  0  0  0  0  0  0  0  0
   22.3726    4.0786   -9.5576 H   0  0  0  1  0  0  0  0  0  0  0  0
   19.3050    3.7647  -10.7068 C   0  0  0  1  0  0  0  0  0  0  0  0
   18.5959    2.9725  -10.5862 H   0  0  0  1  0  0  0  0  0  0  0  0
   19.2450    4.1490  -11.7036 H   0  0  0  1  0  0  0  0  0  0  0  0
   18.9537    4.8804   -9.7362 C   0  0  0  1  0  0  0  0  0  0  0  0
   17.9296    5.1518   -9.8854 H   0  0  0  1  0  0  0  0  0  0  0  0
   19.5803    5.7225   -9.9440 H   0  0  0  1  0  0  0  0  0  0  0  0
   19.1392    4.4910   -8.3039 C   0  0  0  1  0  0  0  0  0  0  0  0
   18.5756    3.6850   -7.9659 H   0  0  0  1  0  0  0  0  0  0  0  0
   19.9467    5.0638   -7.4158 C   0  0  0  1  0  0  0  0  0  0  0  0
   21.0261    5.9964   -7.8965 C   0  0  0  1  0  0  0  0  0  0  0  0
   20.6581    6.9977   -7.8140 H   0  0  0  1  0  0  0  0  0  0  0  0
   21.2229    5.7717   -8.9240 H   0  0  0  1  0  0  0  0  0  0  0  0
   19.8898    4.8683   -5.9287 C   0  0  0  1  0  0  0  0  0  0  0  0
   20.8736    4.9608   -5.5184 H   0  0  0  1  0  0  0  0  0  0  0  0
   19.5033    3.8944   -5.7118 H   0  0  0  1  0  0  0  0  0  0  0  0
   19.2518    5.6103   -5.4959 H   0  0  0  1  0  0  0  0  0  0  0  0
   22.3414    5.9163   -7.1388 C   0  0  0  1  0  0  0  0  0  0  0  0
   22.1698    6.1609   -6.1114 H   0  0  0  1  0  0  0  0  0  0  0  0
   23.0329    6.6148   -7.5616 H   0  0  0  1  0  0  0  0  0  0  0  0
   22.9176    4.5460   -7.2248 C   0  0  0  1  0  0  0  0  0  0  0  0
   23.2430    4.1861   -8.1447 H   0  0  0  1  0  0  0  0  0  0  0  0
   23.0237    3.7750   -6.1492 C   0  0  0  1  0  0  0  0  0  0  0  0
   22.8959    4.2808   -4.7401 C   0  0  0  1  0  0  0  0  0  0  0  0
   22.1768    5.0731   -4.7378 H   0  0  0  1  0  0  0  0  0  0  0  0
   23.8489    4.6626   -4.4387 H   0  0  0  1  0  0  0  0  0  0  0  0
   23.1920    2.2896   -6.2803 C   0  0  0  1  0  0  0  0  0  0  0  0
   24.0092    1.9674   -5.6693 H   0  0  0  1  0  0  0  0  0  0  0  0
   23.3918    2.0424   -7.3020 H   0  0  0  1  0  0  0  0  0  0  0  0
   22.2951    1.7999   -5.9632 H   0  0  0  1  0  0  0  0  0  0  0  0
   22.4587    3.2479   -3.7143 C   0  0  0  1  0  0  0  0  0  0  0  0
   22.4474    3.6997   -2.7444 H   0  0  0  1  0  0  0  0  0  0  0  0
   23.1515    2.4325   -3.7203 H   0  0  0  1  0  0  0  0  0  0  0  0
   21.0823    2.7285   -4.0329 C   0  0  0  1  0  0  0  0  0  0  0  0
   21.0322    1.9100   -4.6726 H   0  0  0  1  0  0  0  0  0  0  0  0
   19.9243    3.2024   -3.5856 C   0  0  0  1  0  0  0  0  0  0  0  0
   19.7707    4.5443   -2.9306 C   0  0  0  1  0  0  0  0  0  0  0  0
   19.1149    5.1421   -3.5284 H   0  0  0  1  0  0  0  0  0  0  0  0
   20.7324    5.0107   -2.8801 H   0  0  0  1  0  0  0  0  0  0  0  0
   18.6521    2.4114   -3.7051 C   0  0  0  1  0  0  0  0  0  0  0  0
   17.9903    2.6767   -2.9073 H   0  0  0  1  0  0  0  0  0  0  0  0
   18.8756    1.3664   -3.6502 H   0  0  0  1  0  0  0  0  0  0  0  0
   18.1846    2.6278   -4.6429 H   0  0  0  1  0  0  0  0  0  0  0  0
   19.2001    4.4586   -1.5244 C   0  0  0  1  0  0  0  0  0  0  0  0
   19.7456    3.7249   -0.9685 H   0  0  0  1  0  0  0  0  0  0  0  0
   18.1708    4.1718   -1.5803 H   0  0  0  1  0  0  0  0  0  0  0  0
   19.3043    5.7785   -0.8284 C   0  0  0  1  0  0  0  0  0  0  0  0
   20.2355    6.2411   -0.8488 H   0  0  0  1  0  0  0  0  0  0  0  0
   18.3315    6.4271   -0.1839 C   0  0  0  1  0  0  0  0  0  0  0  0
   16.8882    6.0423   -0.3594 C   0  0  0  1  0  0  0  0  0  0  0  0
   16.3952    6.1726    0.5813 H   0  0  0  1  0  0  0  0  0  0  0  0
   16.8536    5.0105   -0.6408 H   0  0  0  1  0  0  0  0  0  0  0  0
   18.6705    7.5093    0.8220 C   0  0  0  1  0  0  0  0  0  0  0  0
   18.0210    7.4264    1.6683 H   0  0  0  1  0  0  0  0  0  0  0  0
   18.5438    8.4700    0.3682 H   0  0  0  1  0  0  0  0  0  0  0  0
   19.6859    7.3954    1.1394 H   0  0  0  1  0  0  0  0  0  0  0  0
   16.1237    6.8392   -1.4038 C   0  0  0  1  0  0  0  0  0  0  0  0
   16.6145    6.7227   -2.3475 H   0  0  0  1  0  0  0  0  0  0  0  0
   16.1348    7.8709   -1.1204 H   0  0  0  1  0  0  0  0  0  0  0  0
   14.6933    6.3984   -1.5506 C   0  0  0  1  0  0  0  0  0  0  0  0
   14.3832    5.5770   -0.9930 H   0  0  0  1  0  0  0  0  0  0  0  0
   13.7924    6.9825   -2.3427 C   0  0  0  1  0  0  0  0  0  0  0  0
   14.0351    8.3456   -2.9229 C   0  0  0  1  0  0  0  0  0  0  0  0
   14.8036    8.8259   -2.3541 H   0  0  0  1  0  0  0  0  0  0  0  0
   13.1304    8.9123   -2.8510 H   0  0  0  1  0  0  0  0  0  0  0  0
   12.4985    6.2995   -2.6861 C   0  0  0  1  0  0  0  0  0  0  0  0
   12.4914    6.0502   -3.7266 H   0  0  0  1  0  0  0  0  0  0  0  0
   11.6811    6.9557   -2.4712 H   0  0  0  1  0  0  0  0  0  0  0  0
   12.4018    5.4063   -2.1049 H   0  0  0  1  0  0  0  0  0  0  0  0
   14.4658    8.3044   -4.3800 C   0  0  0  1  0  0  0  0  0  0  0  0
   15.2718    7.6074   -4.4774 H   0  0  0  1  0  0  0  0  0  0  0  0
   14.8011    9.2801   -4.6637 H   0  0  0  1  0  0  0  0  0  0  0  0
   13.3651    7.8916   -5.3049 C   0  0  0  1  0  0  0  0  0  0  0  0
   12.6333    7.2695   -4.9061 H   0  0  0  1  0  0  0  0  0  0  0  0
   13.2208    8.2336   -6.5807 C   0  0  0  1  0  0  0  0  0  0  0  0
   13.9743    9.3582   -7.2327 C   0  0  0  1  0  0  0  0  0  0  0  0
   13.4520    9.6314   -8.1257 H   0  0  0  1  0  0  0  0  0  0  0  0
   14.9500    8.9989   -7.4854 H   0  0  0  1  0  0  0  0  0  0  0  0
   12.2721    7.5047   -7.4867 C   0  0  0  1  0  0  0  0  0  0  0  0
   12.6261    6.5078   -7.6471 H   0  0  0  1  0  0  0  0  0  0  0  0
   12.2107    8.0164   -8.4244 H   0  0  0  1  0  0  0  0  0  0  0  0
   11.3029    7.4703   -7.0345 H   0  0  0  1  0  0  0  0  0  0  0  0
   14.1402   10.6090   -6.3852 C   0  0  0  1  0  0  0  0  0  0  0  0
   14.5789   10.3308   -5.4497 H   0  0  0  1  0  0  0  0  0  0  0  0
   13.1737   11.0348   -6.2137 H   0  0  0  1  0  0  0  0  0  0  0  0
   14.9945   11.6260   -7.0192 C   0  0  0  1  0  0  0  0  0  0  0  0
   14.7494   12.0210   -7.9496 H   0  0  0  1  0  0  0  0  0  0  0  0
   16.0849   12.0281   -6.3774 C   0  0  0  1  0  0  0  0  0  0  0  0
   16.8228   13.2677   -6.7927 C   0  0  0  1  0  0  0  0  0  0  0  0
   16.6270   13.4495   -7.8288 H   0  0  0  1  0  0  0  0  0  0  0  0
   17.8706   13.1040   -6.6505 H   0  0  0  1  0  0  0  0  0  0  0  0
   16.6789   11.3078   -5.2025 C   0  0  0  1  0  0  0  0  0  0  0  0
   16.2714   10.3190   -5.2375 H   0  0  0  1  0  0  0  0  0  0  0  0
   16.4048   11.7929   -4.2890 H   0  0  0  1  0  0  0  0  0  0  0  0
   17.7453   11.2757   -5.2839 H   0  0  0  1  0  0  0  0  0  0  0  0
   16.4133   14.4982   -5.9998 C   0  0  0  1  0  0  0  0  0  0  0  0
   16.5320   14.2754   -4.9600 H   0  0  0  1  0  0  0  0  0  0  0  0
   15.3825   14.6965   -6.2072 H   0  0  0  1  0  0  0  0  0  0  0  0
   17.1961   15.7486   -6.2992 C   0  0  0  1  0  0  0  0  0  0  0  0
   17.1975   16.0689   -7.2887 H   0  0  0  1  0  0  0  0  0  0  0  0
   17.8864   16.4886   -5.4352 C   0  0  0  1  0  0  0  0  0  0  0  0
   18.7358   17.6703   -5.8458 C   0  0  0  1  0  0  0  0  0  0  0  0
   18.2595   18.1902   -6.6507 H   0  0  0  1  0  0  0  0  0  0  0  0
   19.6972   17.3248   -6.1642 H   0  0  0  1  0  0  0  0  0  0  0  0
   18.8520   18.3323   -5.0132 H   0  0  0  1  0  0  0  0  0  0  0  0
   17.9303   16.1012   -3.9770 C   0  0  0  1  0  0  0  0  0  0  0  0
   17.6790   15.0631   -3.9146 H   0  0  0  1  0  0  0  0  0  0  0  0
   17.2235   16.6826   -3.4227 H   0  0  0  1  0  0  0  0  0  0  0  0
   18.9125   16.2640   -3.5848 H   0  0  0  1  0  0  0  0  0  0  0  0
   16.1047   -5.1818   -1.7291 C   0  0  0  1  0  0  0  0  0  0  0  0
   16.3752   -5.7586   -0.8694 H   0  0  0  1  0  0  0  0  0  0  0  0
   14.8424   -5.7625   -2.3533 C   0  0  0  1  0  0  0  0  0  0  0  0
   15.0290   -6.7643   -2.6795 H   0  0  0  1  0  0  0  0  0  0  0  0
   15.8632   -3.8282   -1.3379 O   0  0  0  1  0  0  0  0  0  0  0  0
   14.4494   -4.8934   -3.5521 C   0  0  0  1  0  0  0  0  0  0  0  0
   13.4932   -5.2139   -3.9098 H   0  0  0  1  0  0  0  0  0  0  0  0
   15.6230   -2.9696   -2.4637 C   0  0  0  1  0  0  0  0  0  0  0  0
   16.4590   -3.0157   -3.1300 H   0  0  0  1  0  0  0  0  0  0  0  0
   14.3679   -3.4189   -3.1968 C   0  0  0  1  0  0  0  0  0  0  0  0
   14.2628   -2.8471   -4.0951 H   0  0  0  1  0  0  0  0  0  0  0  0
   17.1643   -5.2194   -2.6793 O   0  0  0  1  0  0  0  0  0  0  0  0
   13.7857   -5.7632   -1.3916 O   0  0  0  1  0  0  0  0  0  0  0  0
   13.8469   -4.9745   -0.8477 H   0  0  0  1  0  0  0  0  0  0  0  0
   15.4195   -5.0628   -4.5753 O   0  0  0  1  0  0  0  0  0  0  0  0
   15.3976   -5.9693   -4.8908 H   0  0  0  1  0  0  0  0  0  0  0  0
   15.4406   -1.5505   -1.9814 C   0  0  0  1  0  0  0  0  0  0  0  0
   14.4276   -1.2460   -2.1427 H   0  0  0  1  0  0  0  0  0  0  0  0
   16.0980   -0.9028   -2.5229 H   0  0  0  1  0  0  0  0  0  0  0  0
   15.6668   -1.4972   -0.9370 H   0  0  0  1  0  0  0  0  0  0  0  0
   19.6252   -5.5090   -4.2135 C   0  0  0  1  0  0  0  0  0  0  0  0
   18.7124   -5.3936   -4.7597 H   0  0  0  1  0  0  0  0  0  0  0  0
   19.3406   -6.2150   -2.8964 C   0  0  0  1  0  0  0  0  0  0  0  0
   20.2596   -6.3914   -2.3776 H   0  0  0  1  0  0  0  0  0  0  0  0
   20.1878   -4.2296   -3.9583 O   0  0  0  1  0  0  0  0  0  0  0  0
   18.4349   -5.3291   -2.0466 C   0  0  0  1  0  0  0  0  0  0  0  0
   18.3158   -5.7745   -1.0810 H   0  0  0  1  0  0  0  0  0  0  0  0
   19.2877   -3.3466   -3.2646 C   0  0  0  1  0  0  0  0  0  0  0  0
   19.7314   -2.3781   -3.1643 H   0  0  0  1  0  0  0  0  0  0  0  0
   19.0281   -3.9462   -1.8841 C   0  0  0  1  0  0  0  0  0  0  0  0
   18.3433   -3.3240   -1.3467 H   0  0  0  1  0  0  0  0  0  0  0  0
   18.6735   -7.4928   -3.1578 N   0  0  0  1  0  0  0  0  0  0  0  0
   17.8028   -7.4885   -3.6075 H   0  0  0  1  0  0  0  0  0  0  0  0
   20.2538   -4.0353   -1.1654 O   0  0  0  1  0  0  0  0  0  0  0  0
   20.0232   -4.0326   -0.2335 H   0  0  0  1  0  0  0  0  0  0  0  0
   17.9973   -3.2306   -4.0237 C   0  0  0  1  0  0  0  0  0  0  0  0
   17.1902   -3.5658   -3.4064 H   0  0  0  1  0  0  0  0  0  0  0  0
   18.0477   -3.8352   -4.9051 H   0  0  0  1  0  0  0  0  0  0  0  0
   17.7785   -1.8725   -4.3931 O   0  0  0  1  0  0  0  0  0  0  0  0
   18.6300   -1.4307   -4.4309 H   0  0  0  1  0  0  0  0  0  0  0  0
   19.2109   -8.6638   -2.8043 C   0  0  0  1  0  0  0  0  0  0  0  0
   20.3307   -8.7637   -2.3100 O   0  0  0  1  0  0  0  0  0  0  0  0
   18.3478   -9.8859   -3.0510 C   0  0  0  1  0  0  0  0  0  0  0  0
   17.8360  -10.0419   -2.1243 H   0  0  0  1  0  0  0  0  0  0  0  0
   18.9531  -10.7334   -3.2964 H   0  0  0  1  0  0  0  0  0  0  0  0
   17.6509   -9.7036   -3.8421 H   0  0  0  1  0  0  0  0  0  0  0  0
  1  2  1  0  0  0  0
  1  3  1  0  0  0  0
  1  4  1  0  0  0  0
  1 44  1  0  0  0  0
  3 20  1  0  0  0  0
  4  5  1  0  0  0  0
  4  6  1  0  0  0  0
  4  8  1  0  0  0  0
  6  7  1  0  0  0  0
  8  9  1  0  0  0  0
  8 10  1  0  0  0  0
  8 20  1  0  0  0  0
 10 11  1  0  0  0  0
 12 13  1  0  0  0  0
 12 14  1  0  0  0  0
 12 15  1  0  0  0  0
 12 17  1  0  0  0  0
 15 16  1  0  0  0  0
 17 18  1  0  0  0  0
 17 19  1  0  0  0  0
 17 20  1  0  0  0  0
 19 22  1  0  0  0  0
 20 21  1  0  0  0  0
 22 23  1  0  0  0  0
 22 24  1  0  0  0  0
 22 25  1  0  0  0  0
 24 42  1  0  0  0  0
 25 26  1  0  0  0  0
 25 27  1  0  0  0  0
 25 29  1  0  0  0  0
 27 28  1  0  0  0  0
 29 30  1  0  0  0  0
 29 31  1  0  0  0  0
 29 42  1  0  0  0  0
 31 32  1  0  0  0  0
 33 34  1  0  0  0  0
 33 35  1  0  0  0  0
 33 36  1  0  0  0  0
 33 38  1  0  0  0  0
 36 37  1  0  0  0  0
 38 39  1  0  0  0  0
 38 40  1  0  0  0  0
 38 42  1  0  0  0  0
 40 41  1  0  0  0  0
 42 43  1  0  0  0  0
 44194  1  0  0  0  0
 45 46  1  0  0  0  0
 45 54  1  0  0  0  0
 46 47  1  0  0  0  0
 46 48  1  0  0  0  0
 46 49  2  0  0  0  0
 47 50  1  0  0  0  0
 50 51  1  0  0  0  0
 50 52  1  0  0  0  0
 50 53  2  0  0  0  0
 51205  1  0  0  0  0
 54 55  1  0  0  0  0
 54 56  1  0  0  0  0
 54 57  1  0  0  0  0
 57 58  1  0  0  0  0
 57 59  2  0  0  0  0
 59 60  1  0  0  0  0
 59 64  1  0  0  0  0
 60 61  1  0  0  0  0
 60 62  1  0  0  0  0
 60 63  1  0  0  0  0
 64 65  1  0  0  0  0
 64 66  1  0  0  0  0
 64 67  1  0  0  0  0
 67 68  1  0  0  0  0
 67 69  1  0  0  0  0
 67 70  1  0  0  0  0
 70 71  1  0  0  0  0
 70 72  2  0  0  0  0
 72 73  1  0  0  0  0
 72 77  1  0  0  0  0
 73 74  1  0  0  0  0
 73 75  1  0  0  0  0
 73 76  1  0  0  0  0
 77 78  1  0  0  0  0
 77 79  1  0  0  0  0
 77 80  1  0  0  0  0
 80 81  1  0  0  0  0
 80 82  1  0  0  0  0
 80 83  1  0  0  0  0
 83 84  1  0  0  0  0
 83 85  2  0  0  0  0
 85 86  1  0  0  0  0
 85 89  1  0  0  0  0
 86 87  1  0  0  0  0
 86 88  1  0  0  0  0
 86 93  1  0  0  0  0
 89 90  1  0  0  0  0
 89 91  1  0  0  0  0
 89 92  1  0  0  0  0
 93 94  1  0  0  0  0
 93 95  1  0  0  0  0
 93 96  1  0  0  0  0
 96 97  1  0  0  0  0
 96 98  2  0  0  0  0
 98 99  1  0  0  0  0
 98102  1  0  0  0  0
 99100  1  0  0  0  0
 99101  1  0  0  0  0
 99106  1  0  0  0  0
102103  1  0  0  0  0
102104  1  0  0  0  0
102105  1  0  0  0  0
106107  1  0  0  0  0
106108  1  0  0  0  0
106109  1  0  0  0  0
109110  1  0  0  0  0
109111  2  0  0  0  0
111112  1  0  0  0  0
111115  1  0  0  0  0
112113  1  0  0  0  0
112114  1  0  0  0  0
112119  1  0  0  0  0
115116  1  0  0  0  0
115117  1  0  0  0  0
115118  1  0  0  0  0
119120  1  0  0  0  0
119121  1  0  0  0  0
119122  1  0  0  0  0
122123  1  0  0  0  0
122124  2  0  0  0  0
124125  1  0  0  0  0
124128  1  0  0  0  0
125126  1  0  0  0  0
125127  1  0  0  0  0
125132  1  0  0  0  0
128129  1  0  0  0  0
128130  1  0  0  0  0
128131  1  0  0  0  0
132133  1  0  0  0  0
132134  1  0  0  0  0
132135  1  0  0  0  0
135136  1  0  0  0  0
135137  2  0  0  0  0
137138  1  0  0  0  0
137141  1  0  0  0  0
138139  1  0  0  0  0
138140  1  0  0  0  0
138145  1  0  0  0  0
141142  1  0  0  0  0
141143  1  0  0  0  0
141144  1  0  0  0  0
145146  1  0  0  0  0
145147  1  0  0  0  0
145148  1  0  0  0  0
148149  1  0  0  0  0
148150  2  0  0  0  0
150151  1  0  0  0  0
150154  1  0  0  0  0
151152  1  0  0  0  0
151153  1  0  0  0  0
151158  1  0  0  0  0
154155  1  0  0  0  0
154156  1  0  0  0  0
154157  1  0  0  0  0
158159  1  0  0  0  0
158160  1  0  0  0  0
158161  1  0  0  0  0
161162  1  0  0  0  0
161163  2  0  0  0  0
163164  1  0  0  0  0
163167  1  0  0  0  0
164165  1  0  0  0  0
164166  1  0  0  0  0
164171  1  0  0  0  0
167168  1  0  0  0  0
167169  1  0  0  0  0
167170  1  0  0  0  0
171172  1  0  0  0  0
171173  1  0  0  0  0
171174  1  0  0  0  0
174175  1  0  0  0  0
174176  2  0  0  0  0
176177  1  0  0  0  0
176181  1  0  0  0  0
177178  1  0  0  0  0
177179  1  0  0  0  0
177180  1  0  0  0  0
181182  1  0  0  0  0
181183  1  0  0  0  0
181184  1  0  0  0  0
185186  1  0  0  0  0
185187  1  0  0  0  0
185189  1  0  0  0  0
185196  1  0  0  0  0
187188  1  0  0  0  0
187190  1  0  0  0  0
187197  1  0  0  0  0
189192  1  0  0  0  0
190191  1  0  0  0  0
190194  1  0  0  0  0
190199  1  0  0  0  0
192193  1  0  0  0  0
192194  1  0  0  0  0
192201  1  0  0  0  0
194195  1  0  0  0  0
196210  1  0  0  0  0
197198  1  0  0  0  0
199200  1  0  0  0  0
201202  1  0  0  0  0
201203  1  0  0  0  0
201204  1  0  0  0  0
205206  1  0  0  0  0
205207  1  0  0  0  0
205209  1  0  0  0  0
207208  1  0  0  0  0
207210  1  0  0  0  0
207216  1  0  0  0  0
209212  1  0  0  0  0
210211  1  0  0  0  0
210214  1  0  0  0  0
212213  1  0  0  0  0
212214  1  0  0  0  0
212220  1  0  0  0  0
214215  1  0  0  0  0
214218  1  0  0  0  0
216217  1  0  0  0  0
216225  1  0  0  0  0
218219  1  0  0  0  0
220221  1  0  0  0  0
220222  1  0  0  0  0
220223  1  0  0  0  0
223224  1  0  0  0  0
225226  2  0  0  0  0
225227  1  0  0  0  0
227228  1  0  0  0  0
227229  1  0  0  0  0
227230  1  0  0  0  0
M  BCL ATM C_TeTeTeTe H_S O_Te2Te2TeTe C_TeTeTeTe H_S O_Te2Te2TeTe H_S C_TeTeTeTe H_S O_Te2Te2TeTe H_S C_TeTeTeTe H_S H_S O_Te2Te2TeTe H_S C_TeTeTeTe H_S O_Te2Te2TeTe C_TeTeTeTe H_S C_TeTeTeTe H_S O_Te2Te2TeTe C_TeTeTeTe H_S O_Te2Te2TeTe H_S C_TeTeTeTe H_S O_Te2Te2TeTe H_S C_TeTeTeTe H_S H_S O_Te2Te2TeTe H_S C_TeTeTeTe H_S O_Te2Te2TeTe H_S C_TeTeTeTe H_S O_Te2Te2TeTe O_Tr2TrTrPi2 P_TeTeTeTePi O_Tr2TrTrPi2 O_Te2Te2TeTe O_Tr2Tr2TrPi P_TeTeTeTePi O_Tr2TrTrPi2 O_Te2Te2TeTe O_Tr2Tr2TrPi C_TeTeTeTe H_S H_S C_TrTrTrPi H_S C_TrTrTrPi C_TeTeTeTe H_S H_S H_S C_TeTeTeTe H_S H_S C_TeTeTeTe H_S H_S C_TrTrTrPi H_S C_TrTrTrPi C_TeTeTeTe H_S H_S H_S C_TeTeTeTe H_S H_S C_TeTeTeTe H_S H_S C_TrTrTrPi H_S C_TrTrTrPi C_TeTeTeTe H_S H_S C_TeTeTeTe H_S H_S H_S C_TeTeTeTe H_S H_S C_TrTrTrPi H_S C_TrTrTrPi C_TeTeTeTe H_S H_S C_TeTeTeTe H_S H_S H_S C_TeTeTeTe H_S H_S C_TrTrTrPi H_S C_TrTrTrPi C_TeTeTeTe H_S H_S C_TeTeTeTe H_S H_S H_S C_TeTeTeTe H_S H_S C_TrTrTrPi H_S C_TrTrTrPi C_TeTeTeTe H_S H_S C_TeTeTeTe H_S H_S H_S C_TeTeTeTe H_S H_S C_TrTrTrPi H_S C_TrTrTrPi C_TeTeTeTe H_S H_S C_TeTeTeTe H_S H_S H_S C_TeTeTeTe H_S H_S C_TrTrTrPi H_S C_TrTrTrPi C_TeTeTeTe H_S H_S C_TeTeTeTe H_S H_S H_S C_TeTeTeTe H_S H_S C_TrTrTrPi H_S C_TrTrTrPi C_TeTeTeTe H_S H_S C_TeTeTeTe H_S H_S H_S C_TeTeTeTe H_S H_S C_TrTrTrPi H_S C_TrTrTrPi C_TeTeTeTe H_S H_S H_S C_TeTeTeTe H_S H_S H_S C_TeTeTeTe H_S C_TeTeTeTe H_S O_Te2Te2TeTe C_TeTeTeTe H_S C_TeTeTeTe H_S C_TeTeTeTe H_S O_Te2Te2TeTe O_Te2Te2TeTe H_S O_Te2Te2TeTe H_S C_TeTeTeTe H_S H_S H_S C_TeTeTeTe H_S C_TeTeTeTe H_S O_Te2Te2TeTe C_TeTeTeTe H_S C_TeTeTeTe H_S C_TeTeTeTe H_S N_TrTrTrPi2 H_S O_Te2Te2TeTe H_S C_TeTeTeTe H_S H_S O_Te2Te2TeTe H_S C_TrTrTrPi O_Tr2Tr2TrPi C_TeTeTeTe H_S H_S H_S
M  BCL BND NonConjugatedSingleBond NonConjugatedSingleBondInRing NonConjugatedSingleBondInRing NonConjugatedSingleBond NonConjugatedSingleBondInRing NonConjugatedSingleBond NonConjugatedSingleBond NonConjugatedSingleBondInRing NonConjugatedSingleBond NonConjugatedSingleBond NonConjugatedSingleBond NonConjugatedSingleBondInRing NonConjugatedSingleBond NonConjugatedSingleBond NonConjugatedSingleBond NonConjugatedSingleBond NonConjugatedSingleBond NonConjugatedSingleBond NonConjugatedSingleBond NonConjugatedSingleBond NonConjugatedSingleBond NonConjugatedSingleBond NonConjugatedSingleBond NonConjugatedSingleBond NonConjugatedSingleBondInRing NonConjugatedSingleBondInRing NonConjugatedSingleBondInRing NonConjugatedSingleBond NonConjugatedSingleBond NonConjugatedSingleBondInRing NonConjugatedSingleBond NonConjugatedSingleBond NonConjugatedSingleBond NonConjugatedSingleBondInRing NonConjugatedSingleBond NonConjugatedSingleBond NonConjugatedSingleBond NonConjugatedSingleBond NonConjugatedSingleBond NonConjugatedSingleBond NonConjugatedSingleBond NonConjugatedSingleBond NonConjugatedSingleBond NonConjugatedSingleBond NonConjugatedSingleBond NonConjugatedSingleBond ConjugatedSingleBond NonConjugatedSingleBond ConjugatedSingleBond ConjugatedSingleBond ConjugatedDoubleBond ConjugatedSingleBond ConjugatedSingleBond ConjugatedSingleBond ConjugatedDoubleBond NonConjugatedSingleBond NonConjugatedSingleBond NonConjugatedSingleBond NonConjugatedSingleBond NonConjugatedSingleBond ConjugatedDoubleBond NonConjugatedSingleBond NonConjugatedSingleBond NonConjugatedSingleBond NonConjugatedSingleBond NonConjugatedSingleBond NonConjugatedSingleBond NonConjugatedSingleBond NonConjugatedSingleBond NonConjugatedSingleBond NonConjugatedSingleBond NonConjugatedSingleBond NonConjugatedSingleBond ConjugatedDoubleBond NonConjugatedSingleBond NonConjugatedSingleBond NonConjugatedSingleBond NonConjugatedSingleBond NonConjugatedSingleBond NonConjugatedSingleBond NonConjugatedSingleBond NonConjugatedSingleBond NonConjugatedSingleBond NonConjugatedSingleBond NonConjugatedSingleBond NonConjugatedSingleBond ConjugatedDoubleBond NonConjugatedSingleBond NonConjugatedSingleBond NonConjugatedSingleBond NonConjugatedSingleBond NonConjugatedSingleBond NonConjugatedSingleBond NonConjugatedSingleBond NonConjugatedSingleBond NonConjugatedSingleBond NonConjugatedSingleBond NonConjugatedSingleBond NonConjugatedSingleBond ConjugatedDoubleBond NonConjugatedSingleBond NonConjugatedSingleBond NonConjugatedSingleBond NonConjugatedSingleBond NonConjugatedSingleBond NonConjugatedSingleBond NonConjugatedSingleBond NonConjugatedSingleBond NonConjugatedSingleBond NonConjugatedSingleBond NonConjugatedSingleBond NonConjugatedSingleBond ConjugatedDoubleBond NonConjugatedSingleBond NonConjugatedSingleBond NonConjugatedSingleBond NonConjugatedSingleBond NonConjugatedSingleBond NonConjugatedSingleBond NonConjugatedSingleBond NonConjugatedSingleBond NonConjugatedSingleBond NonConjugatedSingleBond NonConjugatedSingleBond NonConjugatedSingleBond ConjugatedDoubleBond NonConjugatedSingleBond NonConjugatedSingleBond NonConjugatedSingleBond NonConjugatedSingleBond NonConjugatedSingleBond NonConjugatedSingleBond NonConjugatedSingleBond NonConjugatedSingleBond NonConjugatedSingleBond NonConjugatedSingleBond NonConjugatedSingleBond NonConjugatedSingleBond ConjugatedDoubleBond NonConjugatedSingleBond NonConjugatedSingleBond NonConjugatedSingleBond NonConjugatedSingleBond NonConjugatedSingleBond NonConjugatedSingleBond NonConjugatedSingleBond NonConjugatedSingleBond NonConjugatedSingleBond NonConjugatedSingleBond NonConjugatedSingleBond NonConjugatedSingleBond ConjugatedDoubleBond NonConjugatedSingleBond NonConjugatedSingleBond NonConjugatedSingleBond NonConjugatedSingleBond NonConjugatedSingleBond NonConjugatedSingleBond NonConjugatedSingleBond NonConjugatedSingleBond NonConjugatedSingleBond NonConjugatedSingleBond NonConjugatedSingleBond NonConjugatedSingleBond ConjugatedDoubleBond NonConjugatedSingleBond NonConjugatedSingleBond NonConjugatedSingleBond NonConjugatedSingleBond NonConjugatedSingleBond NonConjugatedSingleBond NonConjugatedSingleBond NonConjugatedSingleBond NonConjugatedSingleBond NonConjugatedSingleBond NonConjugatedSingleBond NonConjugatedSingleBond ConjugatedDoubleBond NonConjugatedSingleBond NonConjugatedSingleBond NonConjugatedSingleBond NonConjugatedSingleBond NonConjugatedSingleBond NonConjugatedSingleBond NonConjugatedSingleBond NonConjugatedSingleBond NonConjugatedSingleBond NonConjugatedSingleBondInRing NonConjugatedSingleBondInRing NonConjugatedSingleBond NonConjugatedSingleBond NonConjugatedSingleBondInRing NonConjugatedSingleBond NonConjugatedSingleBondInRing NonConjugatedSingleBond NonConjugatedSingleBondInRing NonConjugatedSingleBond NonConjugatedSingleBond NonConjugatedSingleBondInRing NonConjugatedSingleBond NonConjugatedSingleBond NonConjugatedSingleBond NonConjugatedSingleBond NonConjugatedSingleBond NonConjugatedSingleBond NonConjugatedSingleBond NonConjugatedSingleBond NonConjugatedSingleBond NonConjugatedSingleBondInRing NonConjugatedSingleBondInRing NonConjugatedSingleBond NonConjugatedSingleBondInRing NonConjugatedSingleBond NonConjugatedSingleBondInRing NonConjugatedSingleBond NonConjugatedSingleBondInRing NonConjugatedSingleBond NonConjugatedSingleBondInRing NonConjugatedSingleBond NonConjugatedSingleBond NonConjugatedSingleBond NonConjugatedSingleBond AmideSingleBond NonConjugatedSingleBond NonConjugatedSingleBond NonConjugatedSingleBond NonConjugatedSingleBond NonConjugatedSingleBond ConjugatedDoubleBond NonConjugatedSingleBond NonConjugatedSingleBond NonConjugatedSingleBond NonConjugatedSingleBond
M  BCL CHI   1   R   4   R   8   R  17   S  20   R  22   S  25   R  29   S  38   S  42   R  46   R  50   S 185   R 187   S 190   S 192   R 194   R 205   R 207   S 210   R 212   S 214   S
M  BCL DBI - - E E E E E E E E Z - -
M  END
> <ConfClashScore>
0.0133925 

> <ConfOneFourInteractionScore>
-0.95639 

> <ConfScore>
1.5576 

> <ConfScorePBest>
0.00788848 

> <ConfTolerance>
3.79064 

$$$$
L05.****
  PyMOL2.5          3D                             0

230233  0  0  0  0  0  0  0  0999 V2000
   12.1446   -2.6686   -3.0269 C   0  0  0  1  0  0  0  0  0  0  0  0
   11.4494   -2.2758   -2.3147 H   0  0  0  1  0  0  0  0  0  0  0  0
   11.5268   -3.6695   -3.8152 O   0  0  0  1  0  0  0  0  0  0  0  0
   12.5757   -1.5945   -3.9786 C   0  0  0  1  0  0  0  0  0  0  0  0
   13.4897   -1.1435   -3.6527 H   0  0  0  1  0  0  0  0  0  0  0  0
   11.5662   -0.5915   -4.1012 O   0  0  0  1  0  0  0  0  0  0  0  0
   11.9798    0.2699   -4.1941 H   0  0  0  1  0  0  0  0  0  0  0  0
   12.7717   -2.3121   -5.2781 C   0  0  0  1  0  0  0  0  0  0  0  0
   12.2632   -1.7998   -6.0680 H   0  0  0  1  0  0  0  0  0  0  0  0
   14.1633   -2.4081   -5.5899 O   0  0  0  1  0  0  0  0  0  0  0  0
   14.2955   -3.0806   -6.2621 H   0  0  0  1  0  0  0  0  0  0  0  0
   10.7397   -5.4114   -6.1672 C   0  0  0  1  0  0  0  0  0  0  0  0
   10.2563   -5.6094   -5.2334 H   0  0  0  1  0  0  0  0  0  0  0  0
   10.0449   -5.5587   -6.9674 H   0  0  0  1  0  0  0  0  0  0  0  0
   11.8178   -6.3243   -6.3253 O   0  0  0  1  0  0  0  0  0  0  0  0
   12.6205   -5.9371   -5.9686 H   0  0  0  1  0  0  0  0  0  0  0  0
   11.1944   -3.9778   -6.1807 C   0  0  0  1  0  0  0  0  0  0  0  0
   10.3524   -3.3225   -6.1008 H   0  0  0  1  0  0  0  0  0  0  0  0
   11.8654   -3.8036   -7.4243 O   0  0  0  1  0  0  0  0  0  0  0  0
   12.1870   -3.6731   -5.0779 C   0  0  0  1  0  0  0  0  0  0  0  0
   12.9635   -4.4093   -5.0828 H   0  0  0  1  0  0  0  0  0  0  0  0
   10.9712   -3.4770   -8.4548 C   0  0  0  1  0  0  0  0  0  0  0  0
   11.0814   -4.1753   -9.2580 H   0  0  0  1  0  0  0  0  0  0  0  0
    9.6031   -3.4734   -7.9635 O   0  0  0  1  0  0  0  0  0  0  0  0
   11.2134   -2.0501   -8.9452 C   0  0  0  1  0  0  0  0  0  0  0  0
   11.9126   -2.0289   -9.7548 H   0  0  0  1  0  0  0  0  0  0  0  0
   11.6802   -1.2084   -7.8898 O   0  0  0  1  0  0  0  0  0  0  0  0
   11.4149   -0.3019   -8.0617 H   0  0  0  1  0  0  0  0  0  0  0  0
    9.8338   -1.6485   -9.3996 C   0  0  0  1  0  0  0  0  0  0  0  0
    9.6173   -2.0393  -10.3719 H   0  0  0  1  0  0  0  0  0  0  0  0
    9.6876   -0.2314   -9.4132 O   0  0  0  1  0  0  0  0  0  0  0  0
   10.1987    0.1365  -10.1377 H   0  0  0  1  0  0  0  0  0  0  0  0
    6.7837   -3.5439   -8.0136 C   0  0  0  1  0  0  0  0  0  0  0  0
    5.8403   -3.7698   -8.4652 H   0  0  0  1  0  0  0  0  0  0  0  0
    7.3333   -4.4494   -7.8624 H   0  0  0  1  0  0  0  0  0  0  0  0
    6.5813   -2.8863   -6.7709 O   0  0  0  1  0  0  0  0  0  0  0  0
    6.7795   -3.4912   -6.0523 H   0  0  0  1  0  0  0  0  0  0  0  0
    7.5818   -2.5905   -8.9153 C   0  0  0  1  0  0  0  0  0  0  0  0
    7.0359   -1.6771   -9.0279 H   0  0  0  1  0  0  0  0  0  0  0  0
    7.7198   -3.2505  -10.1731 O   0  0  0  1  0  0  0  0  0  0  0  0
    8.0862   -2.6399  -10.8169 H   0  0  0  1  0  0  0  0  0  0  0  0
    8.9468   -2.2821   -8.3431 C   0  0  0  1  0  0  0  0  0  0  0  0
    8.8423   -1.6288   -7.5022 H   0  0  0  1  0  0  0  0  0  0  0  0
   13.2722   -3.2045   -2.3444 O   0  0  0  1  0  0  0  0  0  0  0  0
   24.1197   -2.6743    2.0704 O   0  0  0  1  0  0  0  0  0  0  0  0
   23.2408   -3.8472    1.4355 P   0  0  0  1  0  0  0  0  0  0  0  0
   21.9151   -3.7398    2.3366 O   0  0  0  1  0  0  0  0  0  0  0  0
   23.9333   -5.1656    1.6070 O   0  0  0  0  0  0  0  0  0  0  0  0
   22.8507   -3.4913    0.0340 O   0  0  0  1  0  0  0  0  0  0  0  0
   20.5764   -4.4369    2.2692 P   0  0  0  1  0  0  0  0  0  0  0  0
   20.0607   -4.3389    0.7857 O   0  0  0  1  0  0  0  0  0  0  0  0
   19.4961   -3.6692    3.0147 O   0  0  0  0  0  0  0  0  0  0  0  0
   20.6149   -5.9065    2.6054 O   0  0  0  1  0  0  0  0  0  0  0  0
   23.5736   -1.4015    2.4515 C   0  0  0  1  0  0  0  0  0  0  0  0
   22.5140   -1.4216    2.3042 H   0  0  0  1  0  0  0  0  0  0  0  0
   24.0055   -0.6411    1.8350 H   0  0  0  1  0  0  0  0  0  0  0  0
   23.8556   -1.0816    3.8803 C   0  0  0  1  0  0  0  0  0  0  0  0
   24.8574   -1.0320    4.1553 H   0  0  0  1  0  0  0  0  0  0  0  0
   22.9621   -0.8519    4.8443 C   0  0  0  1  0  0  0  0  0  0  0  0
   23.3671   -0.2242    6.1451 C   0  0  0  1  0  0  0  0  0  0  0  0
   22.8739    0.7190    6.2553 H   0  0  0  1  0  0  0  0  0  0  0  0
   24.4267   -0.0756    6.1545 H   0  0  0  1  0  0  0  0  0  0  0  0
   23.0895   -0.8681    6.9532 H   0  0  0  1  0  0  0  0  0  0  0  0
   21.5167   -1.2122    4.6662 C   0  0  0  1  0  0  0  0  0  0  0  0
   21.1739   -1.7290    5.5381 H   0  0  0  1  0  0  0  0  0  0  0  0
   21.4164   -1.8482    3.8115 H   0  0  0  1  0  0  0  0  0  0  0  0
   20.6717    0.0346    4.4615 C   0  0  0  1  0  0  0  0  0  0  0  0
   21.0257    0.5468    3.5913 H   0  0  0  1  0  0  0  0  0  0  0  0
   20.7835    0.6662    5.3179 H   0  0  0  1  0  0  0  0  0  0  0  0
   19.2088   -0.2683    4.2772 C   0  0  0  1  0  0  0  0  0  0  0  0
   18.8094   -1.0610    4.8192 H   0  0  0  1  0  0  0  0  0  0  0  0
   18.3902    0.4011    3.4743 C   0  0  0  1  0  0  0  0  0  0  0  0
   17.0460   -0.1510    3.0925 C   0  0  0  1  0  0  0  0  0  0  0  0
   17.1185   -1.2108    2.9638 H   0  0  0  1  0  0  0  0  0  0  0  0
   16.7234    0.2980    2.1764 H   0  0  0  1  0  0  0  0  0  0  0  0
   16.3387    0.0666    3.8653 H   0  0  0  1  0  0  0  0  0  0  0  0
   18.7106    1.7412    2.8797 C   0  0  0  1  0  0  0  0  0  0  0  0
   17.7974    2.2006    2.5636 H   0  0  0  1  0  0  0  0  0  0  0  0
   19.3484    1.5945    2.0332 H   0  0  0  1  0  0  0  0  0  0  0  0
   19.4089    2.6740    3.8557 C   0  0  0  1  0  0  0  0  0  0  0  0
   20.3593    2.2588    4.1189 H   0  0  0  1  0  0  0  0  0  0  0  0
   18.8077    2.7758    4.7349 H   0  0  0  1  0  0  0  0  0  0  0  0
   19.6157    4.0233    3.2441 C   0  0  0  1  0  0  0  0  0  0  0  0
   19.9671    4.7701    3.8768 H   0  0  0  1  0  0  0  0  0  0  0  0
   19.3982    4.3726    1.9748 C   0  0  0  1  0  0  0  0  0  0  0  0
   19.0703    3.3418    0.9279 C   0  0  0  1  0  0  0  0  0  0  0  0
   18.3078    2.6969    1.3121 H   0  0  0  1  0  0  0  0  0  0  0  0
   19.9520    2.7706    0.7244 H   0  0  0  1  0  0  0  0  0  0  0  0
   19.4717    5.8066    1.5399 C   0  0  0  1  0  0  0  0  0  0  0  0
   19.9051    5.8618    0.5631 H   0  0  0  1  0  0  0  0  0  0  0  0
   20.0762    6.3577    2.2297 H   0  0  0  1  0  0  0  0  0  0  0  0
   18.4863    6.2229    1.5166 H   0  0  0  1  0  0  0  0  0  0  0  0
   18.5775    3.9515   -0.3743 C   0  0  0  1  0  0  0  0  0  0  0  0
   19.1546    4.8320   -0.5656 H   0  0  0  1  0  0  0  0  0  0  0  0
   17.5496    4.2192   -0.2453 H   0  0  0  1  0  0  0  0  0  0  0  0
   18.6769    3.0602   -1.5817 C   0  0  0  1  0  0  0  0  0  0  0  0
   19.6272    2.7162   -1.8271 H   0  0  0  1  0  0  0  0  0  0  0  0
   17.6830    2.6650   -2.3682 C   0  0  0  1  0  0  0  0  0  0  0  0
   16.2710    3.1349   -2.1415 C   0  0  0  1  0  0  0  0  0  0  0  0
   16.2349    3.6253   -1.1912 H   0  0  0  1  0  0  0  0  0  0  0  0
   15.6355    2.2742   -2.1235 H   0  0  0  1  0  0  0  0  0  0  0  0
   17.8557    1.7351   -3.5328 C   0  0  0  1  0  0  0  0  0  0  0  0
   18.7274    1.1329   -3.3828 H   0  0  0  1  0  0  0  0  0  0  0  0
   17.9670    2.3057   -4.4311 H   0  0  0  1  0  0  0  0  0  0  0  0
   16.9960    1.1034   -3.6152 H   0  0  0  1  0  0  0  0  0  0  0  0
   15.7286    4.0964   -3.1863 C   0  0  0  1  0  0  0  0  0  0  0  0
   15.7697    3.5979   -4.1322 H   0  0  0  1  0  0  0  0  0  0  0  0
   16.3752    4.9487   -3.2033 H   0  0  0  1  0  0  0  0  0  0  0  0
   14.3312    4.5984   -3.0053 C   0  0  0  1  0  0  0  0  0  0  0  0
   13.5433    3.9739   -3.2712 H   0  0  0  1  0  0  0  0  0  0  0  0
   14.0468    5.8041   -2.5210 C   0  0  0  1  0  0  0  0  0  0  0  0
   15.0099    6.7082   -1.7992 C   0  0  0  1  0  0  0  0  0  0  0  0
   15.5596    7.2587   -2.5339 H   0  0  0  1  0  0  0  0  0  0  0  0
   15.6815    6.0935   -1.2371 H   0  0  0  1  0  0  0  0  0  0  0  0
   12.6576    6.3537   -2.6841 C   0  0  0  1  0  0  0  0  0  0  0  0
   11.9663    5.5464   -2.8077 H   0  0  0  1  0  0  0  0  0  0  0  0
   12.6239    6.9870   -3.5459 H   0  0  0  1  0  0  0  0  0  0  0  0
   12.3937    6.9190   -1.8148 H   0  0  0  1  0  0  0  0  0  0  0  0
   14.3757    7.7055   -0.8434 C   0  0  0  1  0  0  0  0  0  0  0  0
   13.8334    7.1641   -0.0967 H   0  0  0  1  0  0  0  0  0  0  0  0
   13.7009    8.3251   -1.3962 H   0  0  0  1  0  0  0  0  0  0  0  0
   15.3776    8.5826   -0.1621 C   0  0  0  1  0  0  0  0  0  0  0  0
   15.8781    8.1917    0.6615 H   0  0  0  1  0  0  0  0  0  0  0  0
   15.6771    9.8291   -0.5321 C   0  0  0  1  0  0  0  0  0  0  0  0
   15.2681   10.3618   -1.8793 C   0  0  0  1  0  0  0  0  0  0  0  0
   14.4213   11.0028   -1.7492 H   0  0  0  1  0  0  0  0  0  0  0  0
   14.9985    9.5363   -2.5044 H   0  0  0  1  0  0  0  0  0  0  0  0
   16.4348   10.7514    0.3810 C   0  0  0  1  0  0  0  0  0  0  0  0
   15.8805   11.6569    0.5142 H   0  0  0  1  0  0  0  0  0  0  0  0
   17.3875   10.9769   -0.0507 H   0  0  0  1  0  0  0  0  0  0  0  0
   16.5759   10.2770    1.3297 H   0  0  0  1  0  0  0  0  0  0  0  0
   16.3705   11.1501   -2.5676 C   0  0  0  1  0  0  0  0  0  0  0  0
   17.1951   10.4887   -2.7331 H   0  0  0  1  0  0  0  0  0  0  0  0
   16.6717   11.9390   -1.9105 H   0  0  0  1  0  0  0  0  0  0  0  0
   15.9956   11.7640   -3.8884 C   0  0  0  1  0  0  0  0  0  0  0  0
   15.6758   12.7536   -3.8857 H   0  0  0  1  0  0  0  0  0  0  0  0
   16.0427   11.1362   -5.0586 C   0  0  0  1  0  0  0  0  0  0  0  0
   16.1654    9.6469   -5.2005 C   0  0  0  1  0  0  0  0  0  0  0  0
   16.2625    9.2288   -4.2204 H   0  0  0  1  0  0  0  0  0  0  0  0
   17.0502    9.4410   -5.7659 H   0  0  0  1  0  0  0  0  0  0  0  0
   15.9748   11.8885   -6.3578 C   0  0  0  1  0  0  0  0  0  0  0  0
   15.6523   11.2288   -7.1361 H   0  0  0  1  0  0  0  0  0  0  0  0
   16.9435   12.2750   -6.5969 H   0  0  0  1  0  0  0  0  0  0  0  0
   15.2804   12.6973   -6.2655 H   0  0  0  1  0  0  0  0  0  0  0  0
   14.9979    8.9597   -5.8898 C   0  0  0  1  0  0  0  0  0  0  0  0
   15.0070    9.2295   -6.9252 H   0  0  0  1  0  0  0  0  0  0  0  0
   14.0886    9.2999   -5.4400 H   0  0  0  1  0  0  0  0  0  0  0  0
   15.0519    7.4590   -5.7853 C   0  0  0  1  0  0  0  0  0  0  0  0
   15.4228    7.0693   -4.8952 H   0  0  0  1  0  0  0  0  0  0  0  0
   14.6769    6.5782   -6.7068 C   0  0  0  1  0  0  0  0  0  0  0  0
   14.4271    6.9321   -8.1455 C   0  0  0  1  0  0  0  0  0  0  0  0
   14.2383    7.9839   -8.1987 H   0  0  0  1  0  0  0  0  0  0  0  0
   13.5599    6.3967   -8.4713 H   0  0  0  1  0  0  0  0  0  0  0  0
   14.4703    5.1302   -6.3710 C   0  0  0  1  0  0  0  0  0  0  0  0
   13.4271    4.8974   -6.4208 H   0  0  0  1  0  0  0  0  0  0  0  0
   14.8314    4.9386   -5.3822 H   0  0  0  1  0  0  0  0  0  0  0  0
   15.0050    4.5223   -7.0706 H   0  0  0  1  0  0  0  0  0  0  0  0
   15.5635    6.6106   -9.1023 C   0  0  0  1  0  0  0  0  0  0  0  0
   16.4524    7.0725   -8.7261 H   0  0  0  1  0  0  0  0  0  0  0  0
   15.3200    7.0291  -10.0565 H   0  0  0  1  0  0  0  0  0  0  0  0
   15.8481    5.1467   -9.2967 C   0  0  0  1  0  0  0  0  0  0  0  0
   16.5498    4.7219   -8.6574 H   0  0  0  1  0  0  0  0  0  0  0  0
   15.3005    4.3378  -10.1959 C   0  0  0  1  0  0  0  0  0  0  0  0
   15.8980    2.9958  -10.5051 C   0  0  0  1  0  0  0  0  0  0  0  0
   16.8589    2.9351  -10.0383 H   0  0  0  1  0  0  0  0  0  0  0  0
   16.0100    2.9090  -11.5657 H   0  0  0  1  0  0  0  0  0  0  0  0
   14.0626    4.6687  -10.9763 C   0  0  0  1  0  0  0  0  0  0  0  0
   13.2465    4.4852  -10.3091 H   0  0  0  1  0  0  0  0  0  0  0  0
   13.9870    4.0423  -11.8405 H   0  0  0  1  0  0  0  0  0  0  0  0
   14.0747    5.6949  -11.2789 H   0  0  0  1  0  0  0  0  0  0  0  0
   15.0466    1.8372  -10.0121 C   0  0  0  1  0  0  0  0  0  0  0  0
   14.9242    1.9308   -8.9533 H   0  0  0  1  0  0  0  0  0  0  0  0
   15.5555    0.9223  -10.2333 H   0  0  0  1  0  0  0  0  0  0  0  0
   13.6850    1.7937  -10.6494 C   0  0  0  1  0  0  0  0  0  0  0  0
   13.6402    1.6677  -11.6807 H   0  0  0  1  0  0  0  0  0  0  0  0
   12.5360    1.9041   -9.9934 C   0  0  0  1  0  0  0  0  0  0  0  0
   12.5014    2.0711   -8.5021 C   0  0  0  1  0  0  0  0  0  0  0  0
   13.1434    2.8786   -8.2181 H   0  0  0  1  0  0  0  0  0  0  0  0
   12.8358    1.1686   -8.0346 H   0  0  0  1  0  0  0  0  0  0  0  0
   11.5004    2.2851   -8.1905 H   0  0  0  1  0  0  0  0  0  0  0  0
   11.1806    1.8746  -10.6572 C   0  0  0  1  0  0  0  0  0  0  0  0
   10.7443    0.9198  -10.4503 H   0  0  0  1  0  0  0  0  0  0  0  0
   11.2879    2.0065  -11.7137 H   0  0  0  1  0  0  0  0  0  0  0  0
   10.5623    2.6528  -10.2611 H   0  0  0  1  0  0  0  0  0  0  0  0
   16.0351   -5.0617   -1.4887 C   0  0  0  1  0  0  0  0  0  0  0  0
   16.1445   -5.5595   -0.5480 H   0  0  0  1  0  0  0  0  0  0  0  0
   14.8786   -5.6865   -2.2459 C   0  0  0  1  0  0  0  0  0  0  0  0
   15.1516   -6.6815   -2.5293 H   0  0  0  1  0  0  0  0  0  0  0  0
   15.8165   -3.6842   -1.2572 O   0  0  0  1  0  0  0  0  0  0  0  0
   14.5143   -4.9058   -3.4974 C   0  0  0  1  0  0  0  0  0  0  0  0
   13.5762   -5.2588   -3.8720 H   0  0  0  1  0  0  0  0  0  0  0  0
   15.6586   -2.9345   -2.4756 C   0  0  0  1  0  0  0  0  0  0  0  0
   16.5105   -3.0857   -3.1052 H   0  0  0  1  0  0  0  0  0  0  0  0
   14.4021   -3.4233   -3.1854 C   0  0  0  1  0  0  0  0  0  0  0  0
   14.2785   -2.8792   -4.0984 H   0  0  0  1  0  0  0  0  0  0  0  0
   17.2269   -5.2195   -2.2515 O   0  0  0  1  0  0  0  0  0  0  0  0
   13.7386   -5.7314   -1.3857 O   0  0  0  1  0  0  0  0  0  0  0  0
   12.9407   -5.8027   -1.9147 H   0  0  0  1  0  0  0  0  0  0  0  0
   15.5209   -5.1017   -4.4799 O   0  0  0  1  0  0  0  0  0  0  0  0
   15.6925   -6.0409   -4.5801 H   0  0  0  1  0  0  0  0  0  0  0  0
   15.5223   -1.4553   -2.1531 C   0  0  0  1  0  0  0  0  0  0  0  0
   16.4763   -0.9799   -2.2469 H   0  0  0  1  0  0  0  0  0  0  0  0
   15.1638   -1.3405   -1.1515 H   0  0  0  1  0  0  0  0  0  0  0  0
   14.8309   -1.0043   -2.8339 H   0  0  0  1  0  0  0  0  0  0  0  0
   20.3084   -5.3750   -0.1341 C   0  0  0  1  0  0  0  0  0  0  0  0
   20.7708   -6.1975    0.3703 H   0  0  0  1  0  0  0  0  0  0  0  0
   18.9851   -5.8353   -0.7490 C   0  0  0  1  0  0  0  0  0  0  0  0
   18.3123   -6.1191    0.0331 H   0  0  0  1  0  0  0  0  0  0  0  0
   21.1837   -4.8963   -1.1672 O   0  0  0  1  0  0  0  0  0  0  0  0
   18.3648   -4.7160   -1.5599 C   0  0  0  1  0  0  0  0  0  0  0  0
   18.0623   -3.9319   -0.8977 H   0  0  0  1  0  0  0  0  0  0  0  0
   20.6595   -3.7802   -1.8753 C   0  0  0  1  0  0  0  0  0  0  0  0
   20.4721   -2.9831   -1.1865 H   0  0  0  1  0  0  0  0  0  0  0  0
   19.3566   -4.1542   -2.5763 C   0  0  0  1  0  0  0  0  0  0  0  0
   19.5553   -4.8931   -3.3243 H   0  0  0  1  0  0  0  0  0  0  0  0
   19.2305   -6.9766   -1.6161 N   0  0  0  1  0  0  0  0  0  0  0  0
   19.5893   -6.8195   -2.5144 H   0  0  0  1  0  0  0  0  0  0  0  0
   18.8002   -2.9956   -3.1887 O   0  0  0  1  0  0  0  0  0  0  0  0
   18.0942   -2.6957   -2.6114 H   0  0  0  1  0  0  0  0  0  0  0  0
   21.6607   -3.3316   -2.9007 C   0  0  0  1  0  0  0  0  0  0  0  0
   21.5602   -3.9305   -3.7816 H   0  0  0  1  0  0  0  0  0  0  0  0
   22.6487   -3.4414   -2.5049 H   0  0  0  1  0  0  0  0  0  0  0  0
   21.4319   -1.9674   -3.2282 O   0  0  0  1  0  0  0  0  0  0  0  0
   21.2665   -1.9089   -4.1721 H   0  0  0  1  0  0  0  0  0  0  0  0
   18.9838   -8.2318   -1.2306 C   0  0  0  1  0  0  0  0  0  0  0  0
   18.5370   -8.5160   -0.1201 O   0  0  0  1  0  0  0  0  0  0  0  0
   19.2898   -9.3075   -2.2545 C   0  0  0  1  0  0  0  0  0  0  0  0
   20.0397   -8.8726   -2.8818 H   0  0  0  1  0  0  0  0  0  0  0  0
   18.4156   -9.5496   -2.8219 H   0  0  0  1  0  0  0  0  0  0  0  0
   19.6613  -10.1900   -1.7768 H   0  0  0  1  0  0  0  0  0  0  0  0
  1  2  1  0  0  0  0
  1  3  1  0  0  0  0
  1  4  1  0  0  0  0
  1 44  1  0  0  0  0
  3 20  1  0  0  0  0
  4  5  1  0  0  0  0
  4  6  1  0  0  0  0
  4  8  1  0  0  0  0
  6  7  1  0  0  0  0
  8  9  1  0  0  0  0
  8 10  1  0  0  0  0
  8 20  1  0  0  0  0
 10 11  1  0  0  0  0
 12 13  1  0  0  0  0
 12 14  1  0  0  0  0
 12 15  1  0  0  0  0
 12 17  1  0  0  0  0
 15 16  1  0  0  0  0
 17 18  1  0  0  0  0
 17 19  1  0  0  0  0
 17 20  1  0  0  0  0
 19 22  1  0  0  0  0
 20 21  1  0  0  0  0
 22 23  1  0  0  0  0
 22 24  1  0  0  0  0
 22 25  1  0  0  0  0
 24 42  1  0  0  0  0
 25 26  1  0  0  0  0
 25 27  1  0  0  0  0
 25 29  1  0  0  0  0
 27 28  1  0  0  0  0
 29 30  1  0  0  0  0
 29 31  1  0  0  0  0
 29 42  1  0  0  0  0
 31 32  1  0  0  0  0
 33 34  1  0  0  0  0
 33 35  1  0  0  0  0
 33 36  1  0  0  0  0
 33 38  1  0  0  0  0
 36 37  1  0  0  0  0
 38 39  1  0  0  0  0
 38 40  1  0  0  0  0
 38 42  1  0  0  0  0
 40 41  1  0  0  0  0
 42 43  1  0  0  0  0
 44194  1  0  0  0  0
 45 46  1  0  0  0  0
 45 54  1  0  0  0  0
 46 47  1  0  0  0  0
 46 48  1  0  0  0  0
 46 49  2  0  0  0  0
 47 50  1  0  0  0  0
 50 51  1  0  0  0  0
 50 52  1  0  0  0  0
 50 53  2  0  0  0  0
 51205  1  0  0  0  0
 54 55  1  0  0  0  0
 54 56  1  0  0  0  0
 54 57  1  0  0  0  0
 57 58  1  0  0  0  0
 57 59  2  0  0  0  0
 59 60  1  0  0  0  0
 59 64  1  0  0  0  0
 60 61  1  0  0  0  0
 60 62  1  0  0  0  0
 60 63  1  0  0  0  0
 64 65  1  0  0  0  0
 64 66  1  0  0  0  0
 64 67  1  0  0  0  0
 67 68  1  0  0  0  0
 67 69  1  0  0  0  0
 67 70  1  0  0  0  0
 70 71  1  0  0  0  0
 70 72  2  0  0  0  0
 72 73  1  0  0  0  0
 72 77  1  0  0  0  0
 73 74  1  0  0  0  0
 73 75  1  0  0  0  0
 73 76  1  0  0  0  0
 77 78  1  0  0  0  0
 77 79  1  0  0  0  0
 77 80  1  0  0  0  0
 80 81  1  0  0  0  0
 80 82  1  0  0  0  0
 80 83  1  0  0  0  0
 83 84  1  0  0  0  0
 83 85  2  0  0  0  0
 85 86  1  0  0  0  0
 85 89  1  0  0  0  0
 86 87  1  0  0  0  0
 86 88  1  0  0  0  0
 86 93  1  0  0  0  0
 89 90  1  0  0  0  0
 89 91  1  0  0  0  0
 89 92  1  0  0  0  0
 93 94  1  0  0  0  0
 93 95  1  0  0  0  0
 93 96  1  0  0  0  0
 96 97  1  0  0  0  0
 96 98  2  0  0  0  0
 98 99  1  0  0  0  0
 98102  1  0  0  0  0
 99100  1  0  0  0  0
 99101  1  0  0  0  0
 99106  1  0  0  0  0
102103  1  0  0  0  0
102104  1  0  0  0  0
102105  1  0  0  0  0
106107  1  0  0  0  0
106108  1  0  0  0  0
106109  1  0  0  0  0
109110  1  0  0  0  0
109111  2  0  0  0  0
111112  1  0  0  0  0
111115  1  0  0  0  0
112113  1  0  0  0  0
112114  1  0  0  0  0
112119  1  0  0  0  0
115116  1  0  0  0  0
115117  1  0  0  0  0
115118  1  0  0  0  0
119120  1  0  0  0  0
119121  1  0  0  0  0
119122  1  0  0  0  0
122123  1  0  0  0  0
122124  2  0  0  0  0
124125  1  0  0  0  0
124128  1  0  0  0  0
125126  1  0  0  0  0
125127  1  0  0  0  0
125132  1  0  0  0  0
128129  1  0  0  0  0
128130  1  0  0  0  0
128131  1  0  0  0  0
132133  1  0  0  0  0
132134  1  0  0  0  0
132135  1  0  0  0  0
135136  1  0  0  0  0
135137  2  0  0  0  0
137138  1  0  0  0  0
137141  1  0  0  0  0
138139  1  0  0  0  0
138140  1  0  0  0  0
138145  1  0  0  0  0
141142  1  0  0  0  0
141143  1  0  0  0  0
141144  1  0  0  0  0
145146  1  0  0  0  0
145147  1  0  0  0  0
145148  1  0  0  0  0
148149  1  0  0  0  0
148150  2  0  0  0  0
150151  1  0  0  0  0
150154  1  0  0  0  0
151152  1  0  0  0  0
151153  1  0  0  0  0
151158  1  0  0  0  0
154155  1  0  0  0  0
154156  1  0  0  0  0
154157  1  0  0  0  0
158159  1  0  0  0  0
158160  1  0  0  0  0
158161  1  0  0  0  0
161162  1  0  0  0  0
161163  2  0  0  0  0
163164  1  0  0  0  0
163167  1  0  0  0  0
164165  1  0  0  0  0
164166  1  0  0  0  0
164171  1  0  0  0  0
167168  1  0  0  0  0
167169  1  0  0  0  0
167170  1  0  0  0  0
171172  1  0  0  0  0
171173  1  0  0  0  0
171174  1  0  0  0  0
174175  1  0  0  0  0
174176  2  0  0  0  0
176177  1  0  0  0  0
176181  1  0  0  0  0
177178  1  0  0  0  0
177179  1  0  0  0  0
177180  1  0  0  0  0
181182  1  0  0  0  0
181183  1  0  0  0  0
181184  1  0  0  0  0
185186  1  0  0  0  0
185187  1  0  0  0  0
185189  1  0  0  0  0
185196  1  0  0  0  0
187188  1  0  0  0  0
187190  1  0  0  0  0
187197  1  0  0  0  0
189192  1  0  0  0  0
190191  1  0  0  0  0
190194  1  0  0  0  0
190199  1  0  0  0  0
192193  1  0  0  0  0
192194  1  0  0  0  0
192201  1  0  0  0  0
194195  1  0  0  0  0
196210  1  0  0  0  0
197198  1  0  0  0  0
199200  1  0  0  0  0
201202  1  0  0  0  0
201203  1  0  0  0  0
201204  1  0  0  0  0
205206  1  0  0  0  0
205207  1  0  0  0  0
205209  1  0  0  0  0
207208  1  0  0  0  0
207210  1  0  0  0  0
207216  1  0  0  0  0
209212  1  0  0  0  0
210211  1  0  0  0  0
210214  1  0  0  0  0
212213  1  0  0  0  0
212214  1  0  0  0  0
212220  1  0  0  0  0
214215  1  0  0  0  0
214218  1  0  0  0  0
216217  1  0  0  0  0
216225  1  0  0  0  0
218219  1  0  0  0  0
220221  1  0  0  0  0
220222  1  0  0  0  0
220223  1  0  0  0  0
223224  1  0  0  0  0
225226  2  0  0  0  0
225227  1  0  0  0  0
227228  1  0  0  0  0
227229  1  0  0  0  0
227230  1  0  0  0  0
M  BCL ATM C_TeTeTeTe H_S O_Te2Te2TeTe C_TeTeTeTe H_S O_Te2Te2TeTe H_S C_TeTeTeTe H_S O_Te2Te2TeTe H_S C_TeTeTeTe H_S H_S O_Te2Te2TeTe H_S C_TeTeTeTe H_S O_Te2Te2TeTe C_TeTeTeTe H_S C_TeTeTeTe H_S O_Te2Te2TeTe C_TeTeTeTe H_S O_Te2Te2TeTe H_S C_TeTeTeTe H_S O_Te2Te2TeTe H_S C_TeTeTeTe H_S H_S O_Te2Te2TeTe H_S C_TeTeTeTe H_S O_Te2Te2TeTe H_S C_TeTeTeTe H_S O_Te2Te2TeTe O_Tr2TrTrPi2 P_TeTeTeTePi O_Tr2TrTrPi2 O_Te2Te2TeTe O_Tr2Tr2TrPi P_TeTeTeTePi O_Tr2TrTrPi2 O_Te2Te2TeTe O_Tr2Tr2TrPi C_TeTeTeTe H_S H_S C_TrTrTrPi H_S C_TrTrTrPi C_TeTeTeTe H_S H_S H_S C_TeTeTeTe H_S H_S C_TeTeTeTe H_S H_S C_TrTrTrPi H_S C_TrTrTrPi C_TeTeTeTe H_S H_S H_S C_TeTeTeTe H_S H_S C_TeTeTeTe H_S H_S C_TrTrTrPi H_S C_TrTrTrPi C_TeTeTeTe H_S H_S C_TeTeTeTe H_S H_S H_S C_TeTeTeTe H_S H_S C_TrTrTrPi H_S C_TrTrTrPi C_TeTeTeTe H_S H_S C_TeTeTeTe H_S H_S H_S C_TeTeTeTe H_S H_S C_TrTrTrPi H_S C_TrTrTrPi C_TeTeTeTe H_S H_S C_TeTeTeTe H_S H_S H_S C_TeTeTeTe H_S H_S C_TrTrTrPi H_S C_TrTrTrPi C_TeTeTeTe H_S H_S C_TeTeTeTe H_S H_S H_S C_TeTeTeTe H_S H_S C_TrTrTrPi H_S C_TrTrTrPi C_TeTeTeTe H_S H_S C_TeTeTeTe H_S H_S H_S C_TeTeTeTe H_S H_S C_TrTrTrPi H_S C_TrTrTrPi C_TeTeTeTe H_S H_S C_TeTeTeTe H_S H_S H_S C_TeTeTeTe H_S H_S C_TrTrTrPi H_S C_TrTrTrPi C_TeTeTeTe H_S H_S C_TeTeTeTe H_S H_S H_S C_TeTeTeTe H_S H_S C_TrTrTrPi H_S C_TrTrTrPi C_TeTeTeTe H_S H_S H_S C_TeTeTeTe H_S H_S H_S C_TeTeTeTe H_S C_TeTeTeTe H_S O_Te2Te2TeTe C_TeTeTeTe H_S C_TeTeTeTe H_S C_TeTeTeTe H_S O_Te2Te2TeTe O_Te2Te2TeTe H_S O_Te2Te2TeTe H_S C_TeTeTeTe H_S H_S H_S C_TeTeTeTe H_S C_TeTeTeTe H_S O_Te2Te2TeTe C_TeTeTeTe H_S C_TeTeTeTe H_S C_TeTeTeTe H_S N_TrTrTrPi2 H_S O_Te2Te2TeTe H_S C_TeTeTeTe H_S H_S O_Te2Te2TeTe H_S C_TrTrTrPi O_Tr2Tr2TrPi C_TeTeTeTe H_S H_S H_S
M  BCL BND NonConjugatedSingleBond NonConjugatedSingleBondInRing NonConjugatedSingleBondInRing NonConjugatedSingleBond NonConjugatedSingleBondInRing NonConjugatedSingleBond NonConjugatedSingleBond NonConjugatedSingleBondInRing NonConjugatedSingleBond NonConjugatedSingleBond NonConjugatedSingleBond NonConjugatedSingleBondInRing NonConjugatedSingleBond NonConjugatedSingleBond NonConjugatedSingleBond NonConjugatedSingleBond NonConjugatedSingleBond NonConjugatedSingleBond NonConjugatedSingleBond NonConjugatedSingleBond NonConjugatedSingleBond NonConjugatedSingleBond NonConjugatedSingleBond NonConjugatedSingleBond NonConjugatedSingleBondInRing NonConjugatedSingleBondInRing NonConjugatedSingleBondInRing NonConjugatedSingleBond NonConjugatedSingleBond NonConjugatedSingleBondInRing NonConjugatedSingleBond NonConjugatedSingleBond NonConjugatedSingleBond NonConjugatedSingleBondInRing NonConjugatedSingleBond NonConjugatedSingleBond NonConjugatedSingleBond NonConjugatedSingleBond NonConjugatedSingleBond NonConjugatedSingleBond NonConjugatedSingleBond NonConjugatedSingleBond NonConjugatedSingleBond NonConjugatedSingleBond NonConjugatedSingleBond NonConjugatedSingleBond ConjugatedSingleBond NonConjugatedSingleBond ConjugatedSingleBond ConjugatedSingleBond ConjugatedDoubleBond ConjugatedSingleBond ConjugatedSingleBond ConjugatedSingleBond ConjugatedDoubleBond NonConjugatedSingleBond NonConjugatedSingleBond NonConjugatedSingleBond NonConjugatedSingleBond NonConjugatedSingleBond ConjugatedDoubleBond NonConjugatedSingleBond NonConjugatedSingleBond NonConjugatedSingleBond NonConjugatedSingleBond NonConjugatedSingleBond NonConjugatedSingleBond NonConjugatedSingleBond NonConjugatedSingleBond NonConjugatedSingleBond NonConjugatedSingleBond NonConjugatedSingleBond NonConjugatedSingleBond ConjugatedDoubleBond NonConjugatedSingleBond NonConjugatedSingleBond NonConjugatedSingleBond NonConjugatedSingleBond NonConjugatedSingleBond NonConjugatedSingleBond NonConjugatedSingleBond NonConjugatedSingleBond NonConjugatedSingleBond NonConjugatedSingleBond NonConjugatedSingleBond NonConjugatedSingleBond ConjugatedDoubleBond NonConjugatedSingleBond NonConjugatedSingleBond NonConjugatedSingleBond NonConjugatedSingleBond NonConjugatedSingleBond NonConjugatedSingleBond NonConjugatedSingleBond NonConjugatedSingleBond NonConjugatedSingleBond NonConjugatedSingleBond NonConjugatedSingleBond NonConjugatedSingleBond ConjugatedDoubleBond NonConjugatedSingleBond NonConjugatedSingleBond NonConjugatedSingleBond NonConjugatedSingleBond NonConjugatedSingleBond NonConjugatedSingleBond NonConjugatedSingleBond NonConjugatedSingleBond NonConjugatedSingleBond NonConjugatedSingleBond NonConjugatedSingleBond NonConjugatedSingleBond ConjugatedDoubleBond NonConjugatedSingleBond NonConjugatedSingleBond NonConjugatedSingleBond NonConjugatedSingleBond NonConjugatedSingleBond NonConjugatedSingleBond NonConjugatedSingleBond NonConjugatedSingleBond NonConjugatedSingleBond NonConjugatedSingleBond NonConjugatedSingleBond NonConjugatedSingleBond ConjugatedDoubleBond NonConjugatedSingleBond NonConjugatedSingleBond NonConjugatedSingleBond NonConjugatedSingleBond NonConjugatedSingleBond NonConjugatedSingleBond NonConjugatedSingleBond NonConjugatedSingleBond NonConjugatedSingleBond NonConjugatedSingleBond NonConjugatedSingleBond NonConjugatedSingleBond ConjugatedDoubleBond NonConjugatedSingleBond NonConjugatedSingleBond NonConjugatedSingleBond NonConjugatedSingleBond NonConjugatedSingleBond NonConjugatedSingleBond NonConjugatedSingleBond NonConjugatedSingleBond NonConjugatedSingleBond NonConjugatedSingleBond NonConjugatedSingleBond NonConjugatedSingleBond ConjugatedDoubleBond NonConjugatedSingleBond NonConjugatedSingleBond NonConjugatedSingleBond NonConjugatedSingleBond NonConjugatedSingleBond NonConjugatedSingleBond NonConjugatedSingleBond NonConjugatedSingleBond NonConjugatedSingleBond NonConjugatedSingleBond NonConjugatedSingleBond NonConjugatedSingleBond ConjugatedDoubleBond NonConjugatedSingleBond NonConjugatedSingleBond NonConjugatedSingleBond NonConjugatedSingleBond NonConjugatedSingleBond NonConjugatedSingleBond NonConjugatedSingleBond NonConjugatedSingleBond NonConjugatedSingleBond NonConjugatedSingleBond NonConjugatedSingleBond NonConjugatedSingleBond ConjugatedDoubleBond NonConjugatedSingleBond NonConjugatedSingleBond NonConjugatedSingleBond NonConjugatedSingleBond NonConjugatedSingleBond NonConjugatedSingleBond NonConjugatedSingleBond NonConjugatedSingleBond NonConjugatedSingleBond NonConjugatedSingleBondInRing NonConjugatedSingleBondInRing NonConjugatedSingleBond NonConjugatedSingleBond NonConjugatedSingleBondInRing NonConjugatedSingleBond NonConjugatedSingleBondInRing NonConjugatedSingleBond NonConjugatedSingleBondInRing NonConjugatedSingleBond NonConjugatedSingleBond NonConjugatedSingleBondInRing NonConjugatedSingleBond NonConjugatedSingleBond NonConjugatedSingleBond NonConjugatedSingleBond NonConjugatedSingleBond NonConjugatedSingleBond NonConjugatedSingleBond NonConjugatedSingleBond NonConjugatedSingleBond NonConjugatedSingleBondInRing NonConjugatedSingleBondInRing NonConjugatedSingleBond NonConjugatedSingleBondInRing NonConjugatedSingleBond NonConjugatedSingleBondInRing NonConjugatedSingleBond NonConjugatedSingleBondInRing NonConjugatedSingleBond NonConjugatedSingleBondInRing NonConjugatedSingleBond NonConjugatedSingleBond NonConjugatedSingleBond NonConjugatedSingleBond AmideSingleBond NonConjugatedSingleBond NonConjugatedSingleBond NonConjugatedSingleBond NonConjugatedSingleBond NonConjugatedSingleBond ConjugatedDoubleBond NonConjugatedSingleBond NonConjugatedSingleBond NonConjugatedSingleBond NonConjugatedSingleBond
M  BCL CHI   1   R   4   R   8   R  17   S  20   R  22   S  25   R  29   S  38   S  42   R  46   R  50   S 185   R 187   S 190   S 192   R 194   R 205   R 207   S 210   R 212   S 214   S
M  BCL DBI - - E E E E E E E E Z - -
M  END
> <ConfClashScore>
0.0140614 

> <ConfOneFourInteractionScore>
-0.963779 

> <ConfScore>
1.56384 

> <ConfScorePBest>
0.00778548 

> <ConfTolerance>
3.75835 

$$$$
L05.****
  PyMOL2.5          3D                             0

230233  0  0  0  0  0  0  0  0999 V2000
   11.9814   -3.1557   -2.4589 C   0  0  0  1  0  0  0  0  0  0  0  0
   11.3121   -3.4437   -1.6753 H   0  0  0  1  0  0  0  0  0  0  0  0
   11.8110   -3.9989   -3.5632 O   0  0  0  1  0  0  0  0  0  0  0  0
   11.6717   -1.7188   -2.9077 C   0  0  0  1  0  0  0  0  0  0  0  0
   12.5714   -1.1597   -3.0591 H   0  0  0  1  0  0  0  0  0  0  0  0
   10.8482   -1.0476   -1.9529 O   0  0  0  1  0  0  0  0  0  0  0  0
   10.5562   -0.2080   -2.3155 H   0  0  0  1  0  0  0  0  0  0  0  0
   10.9236   -1.9316   -4.2305 C   0  0  0  1  0  0  0  0  0  0  0  0
    9.8710   -2.0266   -4.0635 H   0  0  0  1  0  0  0  0  0  0  0  0
   11.1675   -0.8525   -5.1341 O   0  0  0  1  0  0  0  0  0  0  0  0
   10.8347   -1.0822   -6.0048 H   0  0  0  1  0  0  0  0  0  0  0  0
   10.4965   -5.4881   -5.6019 C   0  0  0  1  0  0  0  0  0  0  0  0
   10.5018   -5.8368   -4.5903 H   0  0  0  1  0  0  0  0  0  0  0  0
    9.6280   -5.8608   -6.1036 H   0  0  0  1  0  0  0  0  0  0  0  0
   11.6702   -5.9272   -6.2728 O   0  0  0  1  0  0  0  0  0  0  0  0
   11.7681   -5.4443   -7.0967 H   0  0  0  1  0  0  0  0  0  0  0  0
   10.4980   -3.9473   -5.6272 C   0  0  0  1  0  0  0  0  0  0  0  0
    9.5276   -3.6317   -5.3051 H   0  0  0  1  0  0  0  0  0  0  0  0
   10.6907   -3.5108   -6.9677 O   0  0  0  1  0  0  0  0  0  0  0  0
   11.5049   -3.2221   -4.7610 C   0  0  0  1  0  0  0  0  0  0  0  0
   12.3928   -3.0332   -5.3273 H   0  0  0  1  0  0  0  0  0  0  0  0
    9.5703   -2.9593   -7.6111 C   0  0  0  1  0  0  0  0  0  0  0  0
    8.7420   -3.6310   -7.5242 H   0  0  0  1  0  0  0  0  0  0  0  0
    9.2528   -1.7065   -7.0683 O   0  0  0  1  0  0  0  0  0  0  0  0
    9.8799   -2.6655   -9.0861 C   0  0  0  1  0  0  0  0  0  0  0  0
    9.6819   -3.5197   -9.6994 H   0  0  0  1  0  0  0  0  0  0  0  0
   11.2401   -2.2610   -9.2564 O   0  0  0  1  0  0  0  0  0  0  0  0
   11.3772   -1.9710  -10.1612 H   0  0  0  1  0  0  0  0  0  0  0  0
    8.9340   -1.5375   -9.4043 C   0  0  0  1  0  0  0  0  0  0  0  0
    7.9698   -1.9111   -9.6793 H   0  0  0  1  0  0  0  0  0  0  0  0
    9.4456   -0.7226  -10.4550 O   0  0  0  1  0  0  0  0  0  0  0  0
   10.3886   -0.5930  -10.3299 H   0  0  0  1  0  0  0  0  0  0  0  0
    6.4337   -1.3736   -7.7139 C   0  0  0  1  0  0  0  0  0  0  0  0
    6.4510   -1.9556   -8.6115 H   0  0  0  1  0  0  0  0  0  0  0  0
    6.7022   -1.9913   -6.8824 H   0  0  0  1  0  0  0  0  0  0  0  0
    5.1150   -0.8859   -7.5122 O   0  0  0  1  0  0  0  0  0  0  0  0
    4.4920   -1.6141   -7.5683 H   0  0  0  1  0  0  0  0  0  0  0  0
    7.4545   -0.2531   -7.8391 C   0  0  0  1  0  0  0  0  0  0  0  0
    7.4522    0.3088   -6.9285 H   0  0  0  1  0  0  0  0  0  0  0  0
    7.1353    0.6036   -8.9323 O   0  0  0  1  0  0  0  0  0  0  0  0
    7.1050    0.0906   -9.7432 H   0  0  0  1  0  0  0  0  0  0  0  0
    8.8661   -0.7577   -8.0879 C   0  0  0  1  0  0  0  0  0  0  0  0
    9.5433    0.0705   -8.1065 H   0  0  0  1  0  0  0  0  0  0  0  0
   13.3229   -3.2372   -1.9916 O   0  0  0  1  0  0  0  0  0  0  0  0
   21.9912   -9.4333   -8.4702 O   0  0  0  1  0  0  0  0  0  0  0  0
   20.8079   -8.3504   -8.7487 P   0  0  0  1  0  0  0  0  0  0  0  0
   20.9180   -7.7515   -7.2653 O   0  0  0  1  0  0  0  0  0  0  0  0
   19.5143   -9.0476   -8.9231 O   0  0  0  0  0  0  0  0  0  0  0  0
   21.2375   -7.3449   -9.7443 O   0  0  0  1  0  0  0  0  0  0  0  0
   20.1657   -8.1638   -5.9331 P   0  0  0  1  0  0  0  0  0  0  0  0
   20.4387   -6.9560   -4.9739 O   0  0  0  1  0  0  0  0  0  0  0  0
   20.8348   -9.3774   -5.4060 O   0  0  0  0  0  0  0  0  0  0  0  0
   18.7024   -8.1885   -6.1458 O   0  0  0  1  0  0  0  0  0  0  0  0
   22.2861  -10.4641   -9.4262 C   0  0  0  1  0  0  0  0  0  0  0  0
   22.5209  -10.0221  -10.3720 H   0  0  0  1  0  0  0  0  0  0  0  0
   21.4390  -11.1090   -9.5338 H   0  0  0  1  0  0  0  0  0  0  0  0
   23.4617  -11.2527   -8.9315 C   0  0  0  1  0  0  0  0  0  0  0  0
   24.2817  -10.7048   -8.6014 H   0  0  0  1  0  0  0  0  0  0  0  0
   23.5694  -12.5769   -8.8691 C   0  0  0  1  0  0  0  0  0  0  0  0
   24.9240  -13.1950   -8.6675 C   0  0  0  1  0  0  0  0  0  0  0  0
   25.1374  -13.8600   -9.4781 H   0  0  0  1  0  0  0  0  0  0  0  0
   24.9335  -13.7405   -7.7471 H   0  0  0  1  0  0  0  0  0  0  0  0
   25.6658  -12.4246   -8.6338 H   0  0  0  1  0  0  0  0  0  0  0  0
   22.4334  -13.5540   -8.9839 C   0  0  0  1  0  0  0  0  0  0  0  0
   21.5113  -13.0145   -9.0434 H   0  0  0  1  0  0  0  0  0  0  0  0
   22.4235  -14.1837   -8.1188 H   0  0  0  1  0  0  0  0  0  0  0  0
   22.5874  -14.4161  -10.2262 C   0  0  0  1  0  0  0  0  0  0  0  0
   23.3653  -15.1269  -10.0403 H   0  0  0  1  0  0  0  0  0  0  0  0
   22.8723  -13.7788  -11.0370 H   0  0  0  1  0  0  0  0  0  0  0  0
   21.3686  -15.1661  -10.6378 C   0  0  0  1  0  0  0  0  0  0  0  0
   20.5304  -14.9527  -10.0603 H   0  0  0  1  0  0  0  0  0  0  0  0
   21.1441  -16.0542  -11.5987 C   0  0  0  1  0  0  0  0  0  0  0  0
   19.7863  -16.6672  -11.7945 C   0  0  0  1  0  0  0  0  0  0  0  0
   19.3807  -16.3453  -12.7309 H   0  0  0  1  0  0  0  0  0  0  0  0
   19.1383  -16.3590  -11.0007 H   0  0  0  1  0  0  0  0  0  0  0  0
   19.8728  -17.7336  -11.7913 H   0  0  0  1  0  0  0  0  0  0  0  0
   22.1912  -16.5269  -12.5636 C   0  0  0  1  0  0  0  0  0  0  0  0
   22.1188  -17.5909  -12.6504 H   0  0  0  1  0  0  0  0  0  0  0  0
   23.1538  -16.2648  -12.1768 H   0  0  0  1  0  0  0  0  0  0  0  0
   22.0437  -15.9173  -13.9482 C   0  0  0  1  0  0  0  0  0  0  0  0
   20.9995  -15.8631  -14.1754 H   0  0  0  1  0  0  0  0  0  0  0  0
   22.5282  -16.5660  -14.6477 H   0  0  0  1  0  0  0  0  0  0  0  0
   22.6265  -14.5399  -14.1118 C   0  0  0  1  0  0  0  0  0  0  0  0
   23.6327  -14.4308  -13.8723 H   0  0  0  1  0  0  0  0  0  0  0  0
   21.9957  -13.4487  -14.5288 C   0  0  0  1  0  0  0  0  0  0  0  0
   20.5317  -13.4824  -14.9061 C   0  0  0  1  0  0  0  0  0  0  0  0
   20.2673  -14.4889  -15.1551 H   0  0  0  1  0  0  0  0  0  0  0  0
   20.3852  -12.8532  -15.7590 H   0  0  0  1  0  0  0  0  0  0  0  0
   22.6487  -12.1046  -14.6663 C   0  0  0  1  0  0  0  0  0  0  0  0
   22.2291  -11.4287  -13.9507 H   0  0  0  1  0  0  0  0  0  0  0  0
   22.4824  -11.7268  -15.6535 H   0  0  0  1  0  0  0  0  0  0  0  0
   23.7003  -12.1997  -14.4927 H   0  0  0  1  0  0  0  0  0  0  0  0
   19.6179  -13.0044  -13.7894 C   0  0  0  1  0  0  0  0  0  0  0  0
   19.8961  -12.0096  -13.5101 H   0  0  0  1  0  0  0  0  0  0  0  0
   19.7240  -13.6549  -12.9466 H   0  0  0  1  0  0  0  0  0  0  0  0
   18.1809  -13.0076  -14.2376 C   0  0  0  1  0  0  0  0  0  0  0  0
   17.9860  -13.4314  -15.1671 H   0  0  0  1  0  0  0  0  0  0  0  0
   17.1343  -12.5276  -13.5744 C   0  0  0  1  0  0  0  0  0  0  0  0
   17.2296  -11.8817  -12.2195 C   0  0  0  1  0  0  0  0  0  0  0  0
   18.1938  -12.0950  -11.8076 H   0  0  0  1  0  0  0  0  0  0  0  0
   16.4719  -12.2985  -11.5894 H   0  0  0  1  0  0  0  0  0  0  0  0
   15.7466  -12.5961  -14.1414 C   0  0  0  1  0  0  0  0  0  0  0  0
   15.1394  -13.2255  -13.5249 H   0  0  0  1  0  0  0  0  0  0  0  0
   15.7858  -12.9985  -15.1321 H   0  0  0  1  0  0  0  0  0  0  0  0
   15.3250  -11.6131  -14.1716 H   0  0  0  1  0  0  0  0  0  0  0  0
   17.0456  -10.3735  -12.2646 C   0  0  0  1  0  0  0  0  0  0  0  0
   17.7765   -9.9717  -12.9348 H   0  0  0  1  0  0  0  0  0  0  0  0
   17.2152   -9.9907  -11.2800 H   0  0  0  1  0  0  0  0  0  0  0  0
   15.6913   -9.9026  -12.7187 C   0  0  0  1  0  0  0  0  0  0  0  0
   15.6475   -9.4497  -13.6538 H   0  0  0  1  0  0  0  0  0  0  0  0
   14.5457  -10.0024  -12.0551 C   0  0  0  1  0  0  0  0  0  0  0  0
   14.4075  -10.9119  -10.8671 C   0  0  0  1  0  0  0  0  0  0  0  0
   15.3433  -11.3986  -10.6872 H   0  0  0  1  0  0  0  0  0  0  0  0
   13.6568  -11.6461  -11.0728 H   0  0  0  1  0  0  0  0  0  0  0  0
   13.3011   -9.2389  -12.4106 C   0  0  0  1  0  0  0  0  0  0  0  0
   12.7752   -8.9766  -11.5164 H   0  0  0  1  0  0  0  0  0  0  0  0
   12.6736   -9.8475  -13.0276 H   0  0  0  1  0  0  0  0  0  0  0  0
   13.5683   -8.3488  -12.9410 H   0  0  0  1  0  0  0  0  0  0  0  0
   14.0090  -10.1249   -9.6293 C   0  0  0  1  0  0  0  0  0  0  0  0
   12.9968   -9.7978   -9.7450 H   0  0  0  1  0  0  0  0  0  0  0  0
   14.6519   -9.2737   -9.5452 H   0  0  0  1  0  0  0  0  0  0  0  0
   14.1106  -10.9293   -8.3610 C   0  0  0  1  0  0  0  0  0  0  0  0
   15.0202  -11.3893   -8.1545 H   0  0  0  1  0  0  0  0  0  0  0  0
   13.1257  -11.0953   -7.4863 C   0  0  0  1  0  0  0  0  0  0  0  0
   11.9003  -10.2227   -7.5130 C   0  0  0  1  0  0  0  0  0  0  0  0
   11.0397  -10.8476   -7.6304 H   0  0  0  1  0  0  0  0  0  0  0  0
   11.9746   -9.5566   -8.3471 H   0  0  0  1  0  0  0  0  0  0  0  0
   13.1292  -12.1402   -6.4092 C   0  0  0  1  0  0  0  0  0  0  0  0
   12.3166  -11.9621   -5.7362 H   0  0  0  1  0  0  0  0  0  0  0  0
   14.0534  -12.0952   -5.8720 H   0  0  0  1  0  0  0  0  0  0  0  0
   13.0200  -13.1083   -6.8515 H   0  0  0  1  0  0  0  0  0  0  0  0
   11.7297   -9.3970   -6.2483 C   0  0  0  1  0  0  0  0  0  0  0  0
   11.2456   -8.4777   -6.5044 H   0  0  0  1  0  0  0  0  0  0  0  0
   12.6983   -9.1899   -5.8435 H   0  0  0  1  0  0  0  0  0  0  0  0
   10.9093  -10.0934   -5.1956 C   0  0  0  1  0  0  0  0  0  0  0  0
   10.9411  -11.1326   -5.1702 H   0  0  0  1  0  0  0  0  0  0  0  0
   10.1477   -9.4793   -4.2965 C   0  0  0  1  0  0  0  0  0  0  0  0
    9.7396   -8.0337   -4.3951 C   0  0  0  1  0  0  0  0  0  0  0  0
   10.1237   -7.6549   -5.3192 H   0  0  0  1  0  0  0  0  0  0  0  0
   10.1976   -7.5154   -3.5787 H   0  0  0  1  0  0  0  0  0  0  0  0
    9.6246  -10.1995   -3.0857 C   0  0  0  1  0  0  0  0  0  0  0  0
   10.4088  -10.7833   -2.6508 H   0  0  0  1  0  0  0  0  0  0  0  0
    8.8193  -10.8425   -3.3736 H   0  0  0  1  0  0  0  0  0  0  0  0
    9.2732   -9.4854   -2.3704 H   0  0  0  1  0  0  0  0  0  0  0  0
    8.2531   -7.7188   -4.3573 C   0  0  0  1  0  0  0  0  0  0  0  0
    8.0060   -7.0921   -5.1886 H   0  0  0  1  0  0  0  0  0  0  0  0
    8.0258   -7.2080   -3.4449 H   0  0  0  1  0  0  0  0  0  0  0  0
    7.4378   -8.9820   -4.4319 C   0  0  0  1  0  0  0  0  0  0  0  0
    7.4539   -9.5945   -3.5916 H   0  0  0  1  0  0  0  0  0  0  0  0
    6.6998   -9.3993   -5.4550 C   0  0  0  1  0  0  0  0  0  0  0  0
    6.6327   -8.6909   -6.7783 C   0  0  0  1  0  0  0  0  0  0  0  0
    7.3076   -7.8613   -6.7432 H   0  0  0  1  0  0  0  0  0  0  0  0
    5.6331   -8.3328   -6.9107 H   0  0  0  1  0  0  0  0  0  0  0  0
    5.8586  -10.6386   -5.3626 C   0  0  0  1  0  0  0  0  0  0  0  0
    5.5550  -10.7893   -4.3477 H   0  0  0  1  0  0  0  0  0  0  0  0
    6.4286  -11.4817   -5.6931 H   0  0  0  1  0  0  0  0  0  0  0  0
    4.9925  -10.5284   -5.9811 H   0  0  0  1  0  0  0  0  0  0  0  0
    6.9920   -9.5366   -7.9891 C   0  0  0  1  0  0  0  0  0  0  0  0
    7.0480   -8.9072   -8.8526 H   0  0  0  1  0  0  0  0  0  0  0  0
    6.2348  -10.2782   -8.1362 H   0  0  0  1  0  0  0  0  0  0  0  0
    8.3187  -10.2190   -7.7888 C   0  0  0  1  0  0  0  0  0  0  0  0
    9.1092   -9.6409   -7.4387 H   0  0  0  1  0  0  0  0  0  0  0  0
    8.5552  -11.5048   -8.0260 C   0  0  0  1  0  0  0  0  0  0  0  0
    9.9173  -12.1304   -7.9427 C   0  0  0  1  0  0  0  0  0  0  0  0
    9.8229  -13.1274   -7.5658 H   0  0  0  1  0  0  0  0  0  0  0  0
   10.5280  -11.5541   -7.2795 H   0  0  0  1  0  0  0  0  0  0  0  0
    7.4521  -12.4495   -8.4038 C   0  0  0  1  0  0  0  0  0  0  0  0
    6.6453  -11.8293   -8.7345 H   0  0  0  1  0  0  0  0  0  0  0  0
    7.1531  -13.0324   -7.5579 H   0  0  0  1  0  0  0  0  0  0  0  0
    7.7705  -13.1001   -9.1914 H   0  0  0  1  0  0  0  0  0  0  0  0
   10.5744  -12.1755   -9.3126 C   0  0  0  1  0  0  0  0  0  0  0  0
   10.5486  -11.1880   -9.7237 H   0  0  0  1  0  0  0  0  0  0  0  0
   10.0025  -12.8350   -9.9314 H   0  0  0  1  0  0  0  0  0  0  0  0
   11.9946  -12.6445   -9.3273 C   0  0  0  1  0  0  0  0  0  0  0  0
   12.6433  -12.1794   -8.6607 H   0  0  0  1  0  0  0  0  0  0  0  0
   12.5168  -13.5903  -10.0990 C   0  0  0  1  0  0  0  0  0  0  0  0
   11.6719  -14.3563  -11.0749 C   0  0  0  1  0  0  0  0  0  0  0  0
   11.9129  -14.0519  -12.0719 H   0  0  0  1  0  0  0  0  0  0  0  0
   10.6379  -14.1596  -10.8823 H   0  0  0  1  0  0  0  0  0  0  0  0
   11.8625  -15.4036  -10.9661 H   0  0  0  1  0  0  0  0  0  0  0  0
   13.9735  -13.9852  -10.0787 C   0  0  0  1  0  0  0  0  0  0  0  0
   14.1727  -14.4221   -9.1225 H   0  0  0  1  0  0  0  0  0  0  0  0
   14.5887  -13.1215  -10.2215 H   0  0  0  1  0  0  0  0  0  0  0  0
   14.1705  -14.6962  -10.8537 H   0  0  0  1  0  0  0  0  0  0  0  0
   16.3367   -5.0857   -1.8783 C   0  0  0  1  0  0  0  0  0  0  0  0
   16.7927   -5.6248   -1.0743 H   0  0  0  1  0  0  0  0  0  0  0  0
   15.0037   -5.7326   -2.2315 C   0  0  0  1  0  0  0  0  0  0  0  0
   15.1667   -6.7364   -2.5643 H   0  0  0  1  0  0  0  0  0  0  0  0
   16.1175   -3.7306   -1.4794 O   0  0  0  1  0  0  0  0  0  0  0  0
   14.3496   -4.9169   -3.3511 C   0  0  0  1  0  0  0  0  0  0  0  0
   13.3570   -5.2840   -3.5087 H   0  0  0  1  0  0  0  0  0  0  0  0
   15.6277   -2.9172   -2.5568 C   0  0  0  1  0  0  0  0  0  0  0  0
   16.3204   -2.9526   -3.3715 H   0  0  0  1  0  0  0  0  0  0  0  0
   14.2750   -3.4360   -3.0213 C   0  0  0  1  0  0  0  0  0  0  0  0
   13.9739   -2.8969   -3.8952 H   0  0  0  1  0  0  0  0  0  0  0  0
   17.1929   -5.1130   -3.0144 O   0  0  0  1  0  0  0  0  0  0  0  0
   14.1562   -5.7430   -1.0864 O   0  0  0  1  0  0  0  0  0  0  0  0
   13.2447   -5.6190   -1.3612 H   0  0  0  1  0  0  0  0  0  0  0  0
   15.1101   -5.0815   -4.5391 O   0  0  0  1  0  0  0  0  0  0  0  0
   15.1876   -6.0164   -4.7430 H   0  0  0  1  0  0  0  0  0  0  0  0
   15.4801   -1.4820   -2.0783 C   0  0  0  1  0  0  0  0  0  0  0  0
   14.7271   -1.4341   -1.3196 H   0  0  0  1  0  0  0  0  0  0  0  0
   15.1970   -0.8593   -2.9012 H   0  0  0  1  0  0  0  0  0  0  0  0
   16.4121   -1.1423   -1.6774 H   0  0  0  1  0  0  0  0  0  0  0  0
   19.4847   -5.9534   -4.6154 C   0  0  0  1  0  0  0  0  0  0  0  0
   18.5118   -6.2516   -4.9461 H   0  0  0  1  0  0  0  0  0  0  0  0
   19.4759   -5.7804   -3.1211 C   0  0  0  1  0  0  0  0  0  0  0  0
   20.4602   -5.5263   -2.7873 H   0  0  0  1  0  0  0  0  0  0  0  0
   19.8360   -4.7273   -5.2274 O   0  0  0  1  0  0  0  0  0  0  0  0
   18.5228   -4.6847   -2.7409 C   0  0  0  1  0  0  0  0  0  0  0  0
   18.6249   -4.4825   -1.6952 H   0  0  0  1  0  0  0  0  0  0  0  0
   18.8325   -3.7215   -5.0002 C   0  0  0  1  0  0  0  0  0  0  0  0
   19.0776   -2.8348   -5.5468 H   0  0  0  1  0  0  0  0  0  0  0  0
   18.7992   -3.4171   -3.5153 C   0  0  0  1  0  0  0  0  0  0  0  0
   18.0274   -2.7034   -3.3160 H   0  0  0  1  0  0  0  0  0  0  0  0
   19.0563   -7.0246   -2.4935 N   0  0  0  1  0  0  0  0  0  0  0  0
   18.2344   -7.4579   -2.8053 H   0  0  0  1  0  0  0  0  0  0  0  0
   20.0603   -2.8806   -3.1125 O   0  0  0  1  0  0  0  0  0  0  0  0
   20.6476   -3.6300   -2.9897 H   0  0  0  1  0  0  0  0  0  0  0  0
   17.4897   -4.2312   -5.4464 C   0  0  0  1  0  0  0  0  0  0  0  0
   17.3260   -5.1945   -5.0104 H   0  0  0  1  0  0  0  0  0  0  0  0
   17.4923   -4.3176   -6.5129 H   0  0  0  1  0  0  0  0  0  0  0  0
   16.4268   -3.3696   -5.0612 O   0  0  0  1  0  0  0  0  0  0  0  0
   15.8902   -3.1896   -5.8366 H   0  0  0  1  0  0  0  0  0  0  0  0
   19.7594   -7.6023   -1.4975 C   0  0  0  1  0  0  0  0  0  0  0  0
   20.6729   -7.0017   -0.9331 O   0  0  0  1  0  0  0  0  0  0  0  0
   19.3912   -9.0163   -1.0921 C   0  0  0  1  0  0  0  0  0  0  0  0
   20.0565   -9.6367   -1.6555 H   0  0  0  1  0  0  0  0  0  0  0  0
   18.3728   -9.2286   -1.3422 H   0  0  0  1  0  0  0  0  0  0  0  0
   19.5384   -9.1594   -0.0420 H   0  0  0  1  0  0  0  0  0  0  0  0
  1  2  1  0  0  0  0
  1  3  1  0  0  0  0
  1  4  1  0  0  0  0
  1 44  1  0  0  0  0
  3 20  1  0  0  0  0
  4  5  1  0  0  0  0
  4  6  1  0  0  0  0
  4  8  1  0  0  0  0
  6  7  1  0  0  0  0
  8  9  1  0  0  0  0
  8 10  1  0  0  0  0
  8 20  1  0  0  0  0
 10 11  1  0  0  0  0
 12 13  1  0  0  0  0
 12 14  1  0  0  0  0
 12 15  1  0  0  0  0
 12 17  1  0  0  0  0
 15 16  1  0  0  0  0
 17 18  1  0  0  0  0
 17 19  1  0  0  0  0
 17 20  1  0  0  0  0
 19 22  1  0  0  0  0
 20 21  1  0  0  0  0
 22 23  1  0  0  0  0
 22 24  1  0  0  0  0
 22 25  1  0  0  0  0
 24 42  1  0  0  0  0
 25 26  1  0  0  0  0
 25 27  1  0  0  0  0
 25 29  1  0  0  0  0
 27 28  1  0  0  0  0
 29 30  1  0  0  0  0
 29 31  1  0  0  0  0
 29 42  1  0  0  0  0
 31 32  1  0  0  0  0
 33 34  1  0  0  0  0
 33 35  1  0  0  0  0
 33 36  1  0  0  0  0
 33 38  1  0  0  0  0
 36 37  1  0  0  0  0
 38 39  1  0  0  0  0
 38 40  1  0  0  0  0
 38 42  1  0  0  0  0
 40 41  1  0  0  0  0
 42 43  1  0  0  0  0
 44194  1  0  0  0  0
 45 46  1  0  0  0  0
 45 54  1  0  0  0  0
 46 47  1  0  0  0  0
 46 48  1  0  0  0  0
 46 49  2  0  0  0  0
 47 50  1  0  0  0  0
 50 51  1  0  0  0  0
 50 52  1  0  0  0  0
 50 53  2  0  0  0  0
 51205  1  0  0  0  0
 54 55  1  0  0  0  0
 54 56  1  0  0  0  0
 54 57  1  0  0  0  0
 57 58  1  0  0  0  0
 57 59  2  0  0  0  0
 59 60  1  0  0  0  0
 59 64  1  0  0  0  0
 60 61  1  0  0  0  0
 60 62  1  0  0  0  0
 60 63  1  0  0  0  0
 64 65  1  0  0  0  0
 64 66  1  0  0  0  0
 64 67  1  0  0  0  0
 67 68  1  0  0  0  0
 67 69  1  0  0  0  0
 67 70  1  0  0  0  0
 70 71  1  0  0  0  0
 70 72  2  0  0  0  0
 72 73  1  0  0  0  0
 72 77  1  0  0  0  0
 73 74  1  0  0  0  0
 73 75  1  0  0  0  0
 73 76  1  0  0  0  0
 77 78  1  0  0  0  0
 77 79  1  0  0  0  0
 77 80  1  0  0  0  0
 80 81  1  0  0  0  0
 80 82  1  0  0  0  0
 80 83  1  0  0  0  0
 83 84  1  0  0  0  0
 83 85  2  0  0  0  0
 85 86  1  0  0  0  0
 85 89  1  0  0  0  0
 86 87  1  0  0  0  0
 86 88  1  0  0  0  0
 86 93  1  0  0  0  0
 89 90  1  0  0  0  0
 89 91  1  0  0  0  0
 89 92  1  0  0  0  0
 93 94  1  0  0  0  0
 93 95  1  0  0  0  0
 93 96  1  0  0  0  0
 96 97  1  0  0  0  0
 96 98  2  0  0  0  0
 98 99  1  0  0  0  0
 98102  1  0  0  0  0
 99100  1  0  0  0  0
 99101  1  0  0  0  0
 99106  1  0  0  0  0
102103  1  0  0  0  0
102104  1  0  0  0  0
102105  1  0  0  0  0
106107  1  0  0  0  0
106108  1  0  0  0  0
106109  1  0  0  0  0
109110  1  0  0  0  0
109111  2  0  0  0  0
111112  1  0  0  0  0
111115  1  0  0  0  0
112113  1  0  0  0  0
112114  1  0  0  0  0
112119  1  0  0  0  0
115116  1  0  0  0  0
115117  1  0  0  0  0
115118  1  0  0  0  0
119120  1  0  0  0  0
119121  1  0  0  0  0
119122  1  0  0  0  0
122123  1  0  0  0  0
122124  2  0  0  0  0
124125  1  0  0  0  0
124128  1  0  0  0  0
125126  1  0  0  0  0
125127  1  0  0  0  0
125132  1  0  0  0  0
128129  1  0  0  0  0
128130  1  0  0  0  0
128131  1  0  0  0  0
132133  1  0  0  0  0
132134  1  0  0  0  0
132135  1  0  0  0  0
135136  1  0  0  0  0
135137  2  0  0  0  0
137138  1  0  0  0  0
137141  1  0  0  0  0
138139  1  0  0  0  0
138140  1  0  0  0  0
138145  1  0  0  0  0
141142  1  0  0  0  0
141143  1  0  0  0  0
141144  1  0  0  0  0
145146  1  0  0  0  0
145147  1  0  0  0  0
145148  1  0  0  0  0
148149  1  0  0  0  0
148150  2  0  0  0  0
150151  1  0  0  0  0
150154  1  0  0  0  0
151152  1  0  0  0  0
151153  1  0  0  0  0
151158  1  0  0  0  0
154155  1  0  0  0  0
154156  1  0  0  0  0
154157  1  0  0  0  0
158159  1  0  0  0  0
158160  1  0  0  0  0
158161  1  0  0  0  0
161162  1  0  0  0  0
161163  2  0  0  0  0
163164  1  0  0  0  0
163167  1  0  0  0  0
164165  1  0  0  0  0
164166  1  0  0  0  0
164171  1  0  0  0  0
167168  1  0  0  0  0
167169  1  0  0  0  0
167170  1  0  0  0  0
171172  1  0  0  0  0
171173  1  0  0  0  0
171174  1  0  0  0  0
174175  1  0  0  0  0
174176  2  0  0  0  0
176177  1  0  0  0  0
176181  1  0  0  0  0
177178  1  0  0  0  0
177179  1  0  0  0  0
177180  1  0  0  0  0
181182  1  0  0  0  0
181183  1  0  0  0  0
181184  1  0  0  0  0
185186  1  0  0  0  0
185187  1  0  0  0  0
185189  1  0  0  0  0
185196  1  0  0  0  0
187188  1  0  0  0  0
187190  1  0  0  0  0
187197  1  0  0  0  0
189192  1  0  0  0  0
190191  1  0  0  0  0
190194  1  0  0  0  0
190199  1  0  0  0  0
192193  1  0  0  0  0
192194  1  0  0  0  0
192201  1  0  0  0  0
194195  1  0  0  0  0
196210  1  0  0  0  0
197198  1  0  0  0  0
199200  1  0  0  0  0
201202  1  0  0  0  0
201203  1  0  0  0  0
201204  1  0  0  0  0
205206  1  0  0  0  0
205207  1  0  0  0  0
205209  1  0  0  0  0
207208  1  0  0  0  0
207210  1  0  0  0  0
207216  1  0  0  0  0
209212  1  0  0  0  0
210211  1  0  0  0  0
210214  1  0  0  0  0
212213  1  0  0  0  0
212214  1  0  0  0  0
212220  1  0  0  0  0
214215  1  0  0  0  0
214218  1  0  0  0  0
216217  1  0  0  0  0
216225  1  0  0  0  0
218219  1  0  0  0  0
220221  1  0  0  0  0
220222  1  0  0  0  0
220223  1  0  0  0  0
223224  1  0  0  0  0
225226  2  0  0  0  0
225227  1  0  0  0  0
227228  1  0  0  0  0
227229  1  0  0  0  0
227230  1  0  0  0  0
M  BCL ATM C_TeTeTeTe H_S O_Te2Te2TeTe C_TeTeTeTe H_S O_Te2Te2TeTe H_S C_TeTeTeTe H_S O_Te2Te2TeTe H_S C_TeTeTeTe H_S H_S O_Te2Te2TeTe H_S C_TeTeTeTe H_S O_Te2Te2TeTe C_TeTeTeTe H_S C_TeTeTeTe H_S O_Te2Te2TeTe C_TeTeTeTe H_S O_Te2Te2TeTe H_S C_TeTeTeTe H_S O_Te2Te2TeTe H_S C_TeTeTeTe H_S H_S O_Te2Te2TeTe H_S C_TeTeTeTe H_S O_Te2Te2TeTe H_S C_TeTeTeTe H_S O_Te2Te2TeTe O_Tr2TrTrPi2 P_TeTeTeTePi O_Tr2TrTrPi2 O_Te2Te2TeTe O_Tr2Tr2TrPi P_TeTeTeTePi O_Tr2TrTrPi2 O_Te2Te2TeTe O_Tr2Tr2TrPi C_TeTeTeTe H_S H_S C_TrTrTrPi H_S C_TrTrTrPi C_TeTeTeTe H_S H_S H_S C_TeTeTeTe H_S H_S C_TeTeTeTe H_S H_S C_TrTrTrPi H_S C_TrTrTrPi C_TeTeTeTe H_S H_S H_S C_TeTeTeTe H_S H_S C_TeTeTeTe H_S H_S C_TrTrTrPi H_S C_TrTrTrPi C_TeTeTeTe H_S H_S C_TeTeTeTe H_S H_S H_S C_TeTeTeTe H_S H_S C_TrTrTrPi H_S C_TrTrTrPi C_TeTeTeTe H_S H_S C_TeTeTeTe H_S H_S H_S C_TeTeTeTe H_S H_S C_TrTrTrPi H_S C_TrTrTrPi C_TeTeTeTe H_S H_S C_TeTeTeTe H_S H_S H_S C_TeTeTeTe H_S H_S C_TrTrTrPi H_S C_TrTrTrPi C_TeTeTeTe H_S H_S C_TeTeTeTe H_S H_S H_S C_TeTeTeTe H_S H_S C_TrTrTrPi H_S C_TrTrTrPi C_TeTeTeTe H_S H_S C_TeTeTeTe H_S H_S H_S C_TeTeTeTe H_S H_S C_TrTrTrPi H_S C_TrTrTrPi C_TeTeTeTe H_S H_S C_TeTeTeTe H_S H_S H_S C_TeTeTeTe H_S H_S C_TrTrTrPi H_S C_TrTrTrPi C_TeTeTeTe H_S H_S C_TeTeTeTe H_S H_S H_S C_TeTeTeTe H_S H_S C_TrTrTrPi H_S C_TrTrTrPi C_TeTeTeTe H_S H_S H_S C_TeTeTeTe H_S H_S H_S C_TeTeTeTe H_S C_TeTeTeTe H_S O_Te2Te2TeTe C_TeTeTeTe H_S C_TeTeTeTe H_S C_TeTeTeTe H_S O_Te2Te2TeTe O_Te2Te2TeTe H_S O_Te2Te2TeTe H_S C_TeTeTeTe H_S H_S H_S C_TeTeTeTe H_S C_TeTeTeTe H_S O_Te2Te2TeTe C_TeTeTeTe H_S C_TeTeTeTe H_S C_TeTeTeTe H_S N_TrTrTrPi2 H_S O_Te2Te2TeTe H_S C_TeTeTeTe H_S H_S O_Te2Te2TeTe H_S C_TrTrTrPi O_Tr2Tr2TrPi C_TeTeTeTe H_S H_S H_S
M  BCL BND NonConjugatedSingleBond NonConjugatedSingleBondInRing NonConjugatedSingleBondInRing NonConjugatedSingleBond NonConjugatedSingleBondInRing NonConjugatedSingleBond NonConjugatedSingleBond NonConjugatedSingleBondInRing NonConjugatedSingleBond NonConjugatedSingleBond NonConjugatedSingleBond NonConjugatedSingleBondInRing NonConjugatedSingleBond NonConjugatedSingleBond NonConjugatedSingleBond NonConjugatedSingleBond NonConjugatedSingleBond NonConjugatedSingleBond NonConjugatedSingleBond NonConjugatedSingleBond NonConjugatedSingleBond NonConjugatedSingleBond NonConjugatedSingleBond NonConjugatedSingleBond NonConjugatedSingleBondInRing NonConjugatedSingleBondInRing NonConjugatedSingleBondInRing NonConjugatedSingleBond NonConjugatedSingleBond NonConjugatedSingleBondInRing NonConjugatedSingleBond NonConjugatedSingleBond NonConjugatedSingleBond NonConjugatedSingleBondInRing NonConjugatedSingleBond NonConjugatedSingleBond NonConjugatedSingleBond NonConjugatedSingleBond NonConjugatedSingleBond NonConjugatedSingleBond NonConjugatedSingleBond NonConjugatedSingleBond NonConjugatedSingleBond NonConjugatedSingleBond NonConjugatedSingleBond NonConjugatedSingleBond ConjugatedSingleBond NonConjugatedSingleBond ConjugatedSingleBond ConjugatedSingleBond ConjugatedDoubleBond ConjugatedSingleBond ConjugatedSingleBond ConjugatedSingleBond ConjugatedDoubleBond NonConjugatedSingleBond NonConjugatedSingleBond NonConjugatedSingleBond NonConjugatedSingleBond NonConjugatedSingleBond ConjugatedDoubleBond NonConjugatedSingleBond NonConjugatedSingleBond NonConjugatedSingleBond NonConjugatedSingleBond NonConjugatedSingleBond NonConjugatedSingleBond NonConjugatedSingleBond NonConjugatedSingleBond NonConjugatedSingleBond NonConjugatedSingleBond NonConjugatedSingleBond NonConjugatedSingleBond ConjugatedDoubleBond NonConjugatedSingleBond NonConjugatedSingleBond NonConjugatedSingleBond NonConjugatedSingleBond NonConjugatedSingleBond NonConjugatedSingleBond NonConjugatedSingleBond NonConjugatedSingleBond NonConjugatedSingleBond NonConjugatedSingleBond NonConjugatedSingleBond NonConjugatedSingleBond ConjugatedDoubleBond NonConjugatedSingleBond NonConjugatedSingleBond NonConjugatedSingleBond NonConjugatedSingleBond NonConjugatedSingleBond NonConjugatedSingleBond NonConjugatedSingleBond NonConjugatedSingleBond NonConjugatedSingleBond NonConjugatedSingleBond NonConjugatedSingleBond NonConjugatedSingleBond ConjugatedDoubleBond NonConjugatedSingleBond NonConjugatedSingleBond NonConjugatedSingleBond NonConjugatedSingleBond NonConjugatedSingleBond NonConjugatedSingleBond NonConjugatedSingleBond NonConjugatedSingleBond NonConjugatedSingleBond NonConjugatedSingleBond NonConjugatedSingleBond NonConjugatedSingleBond ConjugatedDoubleBond NonConjugatedSingleBond NonConjugatedSingleBond NonConjugatedSingleBond NonConjugatedSingleBond NonConjugatedSingleBond NonConjugatedSingleBond NonConjugatedSingleBond NonConjugatedSingleBond NonConjugatedSingleBond NonConjugatedSingleBond NonConjugatedSingleBond NonConjugatedSingleBond ConjugatedDoubleBond NonConjugatedSingleBond NonConjugatedSingleBond NonConjugatedSingleBond NonConjugatedSingleBond NonConjugatedSingleBond NonConjugatedSingleBond NonConjugatedSingleBond NonConjugatedSingleBond NonConjugatedSingleBond NonConjugatedSingleBond NonConjugatedSingleBond NonConjugatedSingleBond ConjugatedDoubleBond NonConjugatedSingleBond NonConjugatedSingleBond NonConjugatedSingleBond NonConjugatedSingleBond NonConjugatedSingleBond NonConjugatedSingleBond NonConjugatedSingleBond NonConjugatedSingleBond NonConjugatedSingleBond NonConjugatedSingleBond NonConjugatedSingleBond NonConjugatedSingleBond ConjugatedDoubleBond NonConjugatedSingleBond NonConjugatedSingleBond NonConjugatedSingleBond NonConjugatedSingleBond NonConjugatedSingleBond NonConjugatedSingleBond NonConjugatedSingleBond NonConjugatedSingleBond NonConjugatedSingleBond NonConjugatedSingleBond NonConjugatedSingleBond NonConjugatedSingleBond ConjugatedDoubleBond NonConjugatedSingleBond NonConjugatedSingleBond NonConjugatedSingleBond NonConjugatedSingleBond NonConjugatedSingleBond NonConjugatedSingleBond NonConjugatedSingleBond NonConjugatedSingleBond NonConjugatedSingleBond NonConjugatedSingleBond NonConjugatedSingleBond NonConjugatedSingleBond ConjugatedDoubleBond NonConjugatedSingleBond NonConjugatedSingleBond NonConjugatedSingleBond NonConjugatedSingleBond NonConjugatedSingleBond NonConjugatedSingleBond NonConjugatedSingleBond NonConjugatedSingleBond NonConjugatedSingleBond NonConjugatedSingleBondInRing NonConjugatedSingleBondInRing NonConjugatedSingleBond NonConjugatedSingleBond NonConjugatedSingleBondInRing NonConjugatedSingleBond NonConjugatedSingleBondInRing NonConjugatedSingleBond NonConjugatedSingleBondInRing NonConjugatedSingleBond NonConjugatedSingleBond NonConjugatedSingleBondInRing NonConjugatedSingleBond NonConjugatedSingleBond NonConjugatedSingleBond NonConjugatedSingleBond NonConjugatedSingleBond NonConjugatedSingleBond NonConjugatedSingleBond NonConjugatedSingleBond NonConjugatedSingleBond NonConjugatedSingleBondInRing NonConjugatedSingleBondInRing NonConjugatedSingleBond NonConjugatedSingleBondInRing NonConjugatedSingleBond NonConjugatedSingleBondInRing NonConjugatedSingleBond NonConjugatedSingleBondInRing NonConjugatedSingleBond NonConjugatedSingleBondInRing NonConjugatedSingleBond NonConjugatedSingleBond NonConjugatedSingleBond NonConjugatedSingleBond AmideSingleBond NonConjugatedSingleBond NonConjugatedSingleBond NonConjugatedSingleBond NonConjugatedSingleBond NonConjugatedSingleBond ConjugatedDoubleBond NonConjugatedSingleBond NonConjugatedSingleBond NonConjugatedSingleBond NonConjugatedSingleBond
M  BCL CHI   1   R   4   R   8   R  17   S  20   R  22   S  25   R  29   S  38   S  42   R  46   R  50   S 185   R 187   S 190   S 192   R 194   R 205   R 207   S 210   R 212   S 214   S
M  BCL DBI - - E E E E E E E E Z - -
M  END
> <ConfClashScore>
0.0146583 

> <ConfOneFourInteractionScore>
-0.967687 

> <ConfScore>
1.57453 

> <ConfScorePBest>
0.00768248 

> <ConfTolerance>
4.29283 

$$$$
L05.****
  PyMOL2.5          3D                             0

230233  0  0  0  0  0  0  0  0999 V2000
   12.0556   -3.5658   -3.2773 C   0  0  0  1  0  0  0  0  0  0  0  0
   11.2070   -3.1659   -2.7627 H   0  0  0  1  0  0  0  0  0  0  0  0
   11.9130   -4.9461   -3.4511 O   0  0  0  1  0  0  0  0  0  0  0  0
   12.1523   -2.9710   -4.6912 C   0  0  0  1  0  0  0  0  0  0  0  0
   13.1605   -2.9881   -5.0491 H   0  0  0  1  0  0  0  0  0  0  0  0
   11.6581   -1.6312   -4.7216 O   0  0  0  1  0  0  0  0  0  0  0  0
   12.1512   -1.0935   -4.0976 H   0  0  0  1  0  0  0  0  0  0  0  0
   11.2670   -3.9002   -5.5028 C   0  0  0  1  0  0  0  0  0  0  0  0
   10.2483   -3.5729   -5.4872 H   0  0  0  1  0  0  0  0  0  0  0  0
   11.7183   -3.9896   -6.8551 O   0  0  0  1  0  0  0  0  0  0  0  0
   12.2702   -4.7683   -6.9579 H   0  0  0  1  0  0  0  0  0  0  0  0
   10.1379   -7.3967   -5.2133 C   0  0  0  1  0  0  0  0  0  0  0  0
   10.3692   -7.3677   -6.2576 H   0  0  0  1  0  0  0  0  0  0  0  0
   10.9058   -7.9292   -4.6920 H   0  0  0  1  0  0  0  0  0  0  0  0
    8.9150   -8.0795   -5.0390 O   0  0  0  1  0  0  0  0  0  0  0  0
    8.2512   -7.4691   -4.7099 H   0  0  0  1  0  0  0  0  0  0  0  0
   10.0877   -5.9714   -4.6849 C   0  0  0  1  0  0  0  0  0  0  0  0
    9.7866   -6.0023   -3.6586 H   0  0  0  1  0  0  0  0  0  0  0  0
    9.1653   -5.1868   -5.4321 O   0  0  0  1  0  0  0  0  0  0  0  0
   11.4288   -5.2550   -4.7702 C   0  0  0  1  0  0  0  0  0  0  0  0
   12.1321   -5.8738   -5.2873 H   0  0  0  1  0  0  0  0  0  0  0  0
    8.2886   -4.3791   -4.6891 C   0  0  0  1  0  0  0  0  0  0  0  0
    7.5542   -4.9939   -4.2121 H   0  0  0  1  0  0  0  0  0  0  0  0
    9.0179   -3.6068   -3.7089 O   0  0  0  1  0  0  0  0  0  0  0  0
    7.6162   -3.3420   -5.5935 C   0  0  0  1  0  0  0  0  0  0  0  0
    6.6333   -3.6579   -5.8749 H   0  0  0  1  0  0  0  0  0  0  0  0
    8.3948   -3.1041   -6.7672 O   0  0  0  1  0  0  0  0  0  0  0  0
    8.5557   -2.1622   -6.8596 H   0  0  0  1  0  0  0  0  0  0  0  0
    7.5605   -2.1135   -4.7239 C   0  0  0  1  0  0  0  0  0  0  0  0
    6.6950   -2.1251   -4.0948 H   0  0  0  1  0  0  0  0  0  0  0  0
    7.5601   -0.9263   -5.5115 O   0  0  0  1  0  0  0  0  0  0  0  0
    8.3120   -0.3808   -5.2693 H   0  0  0  1  0  0  0  0  0  0  0  0
    9.6465   -0.3637   -2.2457 C   0  0  0  1  0  0  0  0  0  0  0  0
    9.1649    0.3155   -1.5736 H   0  0  0  1  0  0  0  0  0  0  0  0
   10.5343   -0.7486   -1.7892 H   0  0  0  1  0  0  0  0  0  0  0  0
    9.9893    0.3201   -3.4425 O   0  0  0  1  0  0  0  0  0  0  0  0
   10.8071   -0.0394   -3.7939 H   0  0  0  1  0  0  0  0  0  0  0  0
    8.6955   -1.5223   -2.5675 C   0  0  0  1  0  0  0  0  0  0  0  0
    7.7033   -1.1231   -2.5359 H   0  0  0  1  0  0  0  0  0  0  0  0
    8.7878   -2.5512   -1.5706 O   0  0  0  1  0  0  0  0  0  0  0  0
    8.5934   -2.1792   -0.7072 H   0  0  0  1  0  0  0  0  0  0  0  0
    8.8485   -2.2279   -3.8957 C   0  0  0  1  0  0  0  0  0  0  0  0
    9.6790   -1.8125   -4.4273 H   0  0  0  1  0  0  0  0  0  0  0  0
   13.2375   -3.2797   -2.5383 O   0  0  0  1  0  0  0  0  0  0  0  0
   24.4954   -6.6330   -6.9536 O   0  0  0  1  0  0  0  0  0  0  0  0
   23.6869   -5.2584   -6.7737 P   0  0  0  1  0  0  0  0  0  0  0  0
   22.4823   -5.7258   -5.8189 O   0  0  0  1  0  0  0  0  0  0  0  0
   23.1832   -4.8268   -8.1004 O   0  0  0  0  0  0  0  0  0  0  0  0
   24.5023   -4.3255   -5.9951 O   0  0  0  1  0  0  0  0  0  0  0  0
   21.7060   -4.9931   -4.5897 P   0  0  0  1  0  0  0  0  0  0  0  0
   20.7395   -6.2180   -4.3861 O   0  0  0  1  0  0  0  0  0  0  0  0
   20.9482   -3.8212   -5.0942 O   0  0  0  0  0  0  0  0  0  0  0  0
   22.5995   -4.8394   -3.4180 O   0  0  0  1  0  0  0  0  0  0  0  0
   25.9284   -6.7150   -6.8949 C   0  0  0  1  0  0  0  0  0  0  0  0
   26.2430   -6.5532   -5.8850 H   0  0  0  1  0  0  0  0  0  0  0  0
   26.3445   -5.9565   -7.5245 H   0  0  0  1  0  0  0  0  0  0  0  0
   26.4307   -8.0533   -7.3509 C   0  0  0  1  0  0  0  0  0  0  0  0
   25.8232   -8.8796   -7.1784 H   0  0  0  1  0  0  0  0  0  0  0  0
   27.5928   -8.2613   -7.9583 C   0  0  0  1  0  0  0  0  0  0  0  0
   28.0826   -9.6495   -8.2520 C   0  0  0  1  0  0  0  0  0  0  0  0
   28.3279   -9.7295   -9.2904 H   0  0  0  1  0  0  0  0  0  0  0  0
   27.3162  -10.3563   -8.0113 H   0  0  0  1  0  0  0  0  0  0  0  0
   28.9530   -9.8523   -7.6635 H   0  0  0  1  0  0  0  0  0  0  0  0
   28.5138   -7.1632   -8.4031 C   0  0  0  1  0  0  0  0  0  0  0  0
   29.4895   -7.5696   -8.5697 H   0  0  0  1  0  0  0  0  0  0  0  0
   28.5639   -6.4161   -7.6387 H   0  0  0  1  0  0  0  0  0  0  0  0
   28.0125   -6.5273   -9.6895 C   0  0  0  1  0  0  0  0  0  0  0  0
   27.0082   -6.8586   -9.8519 H   0  0  0  1  0  0  0  0  0  0  0  0
   28.6349   -6.8679  -10.4904 H   0  0  0  1  0  0  0  0  0  0  0  0
   28.0137   -5.0234   -9.7082 C   0  0  0  1  0  0  0  0  0  0  0  0
   28.8846   -4.5564   -9.3840 H   0  0  0  1  0  0  0  0  0  0  0  0
   27.0193   -4.2239  -10.0954 C   0  0  0  1  0  0  0  0  0  0  0  0
   27.1956   -2.7340  -10.0476 C   0  0  0  1  0  0  0  0  0  0  0  0
   27.9500   -2.4864   -9.3303 H   0  0  0  1  0  0  0  0  0  0  0  0
   26.2713   -2.2746   -9.7656 H   0  0  0  1  0  0  0  0  0  0  0  0
   27.4912   -2.3789  -11.0127 H   0  0  0  1  0  0  0  0  0  0  0  0
   25.7263   -4.7374  -10.6935 C   0  0  0  1  0  0  0  0  0  0  0  0
   25.9611   -5.3406  -11.5455 H   0  0  0  1  0  0  0  0  0  0  0  0
   25.1366   -3.8991  -11.0008 H   0  0  0  1  0  0  0  0  0  0  0  0
   24.9102   -5.5721   -9.7200 C   0  0  0  1  0  0  0  0  0  0  0  0
   24.6864   -4.9833   -8.8550 H   0  0  0  1  0  0  0  0  0  0  0  0
   25.4800   -6.4302   -9.4303 H   0  0  0  1  0  0  0  0  0  0  0  0
   23.6330   -6.0222  -10.3498 C   0  0  0  1  0  0  0  0  0  0  0  0
   23.3791   -7.0289  -10.2880 H   0  0  0  1  0  0  0  0  0  0  0  0
   22.8056   -5.2006  -10.9847 C   0  0  0  1  0  0  0  0  0  0  0  0
   22.9828   -3.7071  -10.9197 C   0  0  0  1  0  0  0  0  0  0  0  0
   23.3230   -3.3525  -11.8702 H   0  0  0  1  0  0  0  0  0  0  0  0
   23.7091   -3.4723  -10.1700 H   0  0  0  1  0  0  0  0  0  0  0  0
   21.6381   -5.6599  -11.8120 C   0  0  0  1  0  0  0  0  0  0  0  0
   21.6694   -5.1835  -12.7696 H   0  0  0  1  0  0  0  0  0  0  0  0
   20.7261   -5.4022  -11.3154 H   0  0  0  1  0  0  0  0  0  0  0  0
   21.6876   -6.7211  -11.9401 H   0  0  0  1  0  0  0  0  0  0  0  0
   21.6702   -3.0233  -10.5735 C   0  0  0  1  0  0  0  0  0  0  0  0
   21.3083   -3.4279   -9.6514 H   0  0  0  1  0  0  0  0  0  0  0  0
   20.9653   -3.2246  -11.3529 H   0  0  0  1  0  0  0  0  0  0  0  0
   21.8033   -1.5433  -10.4235 C   0  0  0  1  0  0  0  0  0  0  0  0
   22.3708   -1.1755   -9.6334 H   0  0  0  1  0  0  0  0  0  0  0  0
   21.2298   -0.6697  -11.2532 C   0  0  0  1  0  0  0  0  0  0  0  0
   20.1439   -1.0943  -12.2008 C   0  0  0  1  0  0  0  0  0  0  0  0
   19.4128   -1.6625  -11.6647 H   0  0  0  1  0  0  0  0  0  0  0  0
   20.5697   -1.6991  -12.9740 H   0  0  0  1  0  0  0  0  0  0  0  0
   21.6469    0.7739  -11.2733 C   0  0  0  1  0  0  0  0  0  0  0  0
   21.1174    1.2879  -12.0481 H   0  0  0  1  0  0  0  0  0  0  0  0
   22.6990    0.8385  -11.4574 H   0  0  0  1  0  0  0  0  0  0  0  0
   21.4213    1.2233  -10.3288 H   0  0  0  1  0  0  0  0  0  0  0  0
   19.4723    0.1164  -12.8281 C   0  0  0  1  0  0  0  0  0  0  0  0
   20.2151    0.6606  -13.3730 H   0  0  0  1  0  0  0  0  0  0  0  0
   19.0895    0.7279  -12.0379 H   0  0  0  1  0  0  0  0  0  0  0  0
   18.3452   -0.1883  -13.7631 C   0  0  0  1  0  0  0  0  0  0  0  0
   18.1559   -1.1879  -13.9790 H   0  0  0  1  0  0  0  0  0  0  0  0
   17.5677    0.7228  -14.3382 C   0  0  0  1  0  0  0  0  0  0  0  0
   17.8998    2.1900  -14.3925 C   0  0  0  1  0  0  0  0  0  0  0  0
   18.3961    2.3929  -15.3185 H   0  0  0  1  0  0  0  0  0  0  0  0
   18.5544    2.4214  -13.5783 H   0  0  0  1  0  0  0  0  0  0  0  0
   16.2681    0.3474  -14.9929 C   0  0  0  1  0  0  0  0  0  0  0  0
   15.6227   -0.1076  -14.2708 H   0  0  0  1  0  0  0  0  0  0  0  0
   16.4561   -0.3433  -15.7882 H   0  0  0  1  0  0  0  0  0  0  0  0
   15.8001    1.2257  -15.3858 H   0  0  0  1  0  0  0  0  0  0  0  0
   16.6730    3.0822  -14.2955 C   0  0  0  1  0  0  0  0  0  0  0  0
   16.3552    3.0965  -13.2739 H   0  0  0  1  0  0  0  0  0  0  0  0
   15.9038    2.6529  -14.9028 H   0  0  0  1  0  0  0  0  0  0  0  0
   16.8698    4.4749  -14.7293 C   0  0  0  1  0  0  0  0  0  0  0  0
   17.1357    4.6933  -15.7107 H   0  0  0  1  0  0  0  0  0  0  0  0
   16.7005    5.4461  -13.8400 C   0  0  0  1  0  0  0  0  0  0  0  0
   16.0059    5.1908  -12.5307 C   0  0  0  1  0  0  0  0  0  0  0  0
   15.9156    4.1319  -12.4060 H   0  0  0  1  0  0  0  0  0  0  0  0
   15.0310    5.6286  -12.5834 H   0  0  0  1  0  0  0  0  0  0  0  0
   17.1954    6.8378  -14.1053 C   0  0  0  1  0  0  0  0  0  0  0  0
   16.4733    7.5462  -13.7563 H   0  0  0  1  0  0  0  0  0  0  0  0
   17.3439    6.9689  -15.1568 H   0  0  0  1  0  0  0  0  0  0  0  0
   18.1216    6.9906  -13.5919 H   0  0  0  1  0  0  0  0  0  0  0  0
   16.7052    5.7497  -11.3023 C   0  0  0  1  0  0  0  0  0  0  0  0
   16.8689    6.7967  -11.4505 H   0  0  0  1  0  0  0  0  0  0  0  0
   17.6465    5.2533  -11.1909 H   0  0  0  1  0  0  0  0  0  0  0  0
   15.9198    5.5649  -10.0484 C   0  0  0  1  0  0  0  0  0  0  0  0
   15.2778    4.7468  -10.0444 H   0  0  0  1  0  0  0  0  0  0  0  0
   15.9187    6.2902   -8.9363 C   0  0  0  1  0  0  0  0  0  0  0  0
   16.5248    7.6676   -8.8994 C   0  0  0  1  0  0  0  0  0  0  0  0
   16.4513    8.0338   -7.8968 H   0  0  0  1  0  0  0  0  0  0  0  0
   15.9556    8.2962   -9.5519 H   0  0  0  1  0  0  0  0  0  0  0  0
   15.3296    5.8273   -7.6336 C   0  0  0  1  0  0  0  0  0  0  0  0
   14.3272    6.1911   -7.5456 H   0  0  0  1  0  0  0  0  0  0  0  0
   15.9178    6.2035   -6.8228 H   0  0  0  1  0  0  0  0  0  0  0  0
   15.3244    4.7577   -7.6048 H   0  0  0  1  0  0  0  0  0  0  0  0
   17.9878    7.7499   -9.3246 C   0  0  0  1  0  0  0  0  0  0  0  0
   18.1336    7.1095  -10.1693 H   0  0  0  1  0  0  0  0  0  0  0  0
   18.5980    7.4141   -8.5122 H   0  0  0  1  0  0  0  0  0  0  0  0
   18.4151    9.1435   -9.7004 C   0  0  0  1  0  0  0  0  0  0  0  0
   18.0200    9.5492  -10.5727 H   0  0  0  1  0  0  0  0  0  0  0  0
   19.2595    9.8940   -9.0008 C   0  0  0  1  0  0  0  0  0  0  0  0
   19.6605    9.5976   -7.5819 C   0  0  0  1  0  0  0  0  0  0  0  0
   20.0517   10.4972   -7.1546 H   0  0  0  1  0  0  0  0  0  0  0  0
   20.4262    8.8505   -7.6044 H   0  0  0  1  0  0  0  0  0  0  0  0
   19.8905   11.1218   -9.5883 C   0  0  0  1  0  0  0  0  0  0  0  0
   19.2983   11.9791   -9.3448 H   0  0  0  1  0  0  0  0  0  0  0  0
   19.9481   11.0188  -10.6518 H   0  0  0  1  0  0  0  0  0  0  0  0
   20.8751   11.2431   -9.1874 H   0  0  0  1  0  0  0  0  0  0  0  0
   18.5437    9.0973   -6.6802 C   0  0  0  1  0  0  0  0  0  0  0  0
   18.2683    8.1121   -6.9939 H   0  0  0  1  0  0  0  0  0  0  0  0
   17.7040    9.7525   -6.7825 H   0  0  0  1  0  0  0  0  0  0  0  0
   18.9281    9.0466   -5.2603 C   0  0  0  1  0  0  0  0  0  0  0  0
   19.8670    9.3705   -4.9520 H   0  0  0  1  0  0  0  0  0  0  0  0
   18.0497    8.5782   -4.3818 C   0  0  0  1  0  0  0  0  0  0  0  0
   18.1755    8.7650   -2.8977 C   0  0  0  1  0  0  0  0  0  0  0  0
   19.2174    8.8070   -2.6574 H   0  0  0  1  0  0  0  0  0  0  0  0
   17.7327    7.9164   -2.4195 H   0  0  0  1  0  0  0  0  0  0  0  0
   16.8354    7.8079   -4.8182 C   0  0  0  1  0  0  0  0  0  0  0  0
   17.1367    6.7813   -4.8294 H   0  0  0  1  0  0  0  0  0  0  0  0
   16.5272    8.1177   -5.7949 H   0  0  0  1  0  0  0  0  0  0  0  0
   16.0317    7.9540   -4.1270 H   0  0  0  1  0  0  0  0  0  0  0  0
   17.5150   10.0152   -2.3400 C   0  0  0  1  0  0  0  0  0  0  0  0
   16.4975   10.0146   -2.6712 H   0  0  0  1  0  0  0  0  0  0  0  0
   18.0252   10.8592   -2.7551 H   0  0  0  1  0  0  0  0  0  0  0  0
   17.5018   10.1876   -0.8447 C   0  0  0  1  0  0  0  0  0  0  0  0
   18.4176   10.1857   -0.3519 H   0  0  0  1  0  0  0  0  0  0  0  0
   16.4081   10.3420   -0.1080 C   0  0  0  1  0  0  0  0  0  0  0  0
   15.0456   10.3969   -0.7354 C   0  0  0  1  0  0  0  0  0  0  0  0
   14.7294   11.4160   -0.8143 H   0  0  0  1  0  0  0  0  0  0  0  0
   14.3515    9.8544   -0.1281 H   0  0  0  1  0  0  0  0  0  0  0  0
   15.0846    9.9592   -1.7110 H   0  0  0  1  0  0  0  0  0  0  0  0
   16.4169   10.4751    1.3956 C   0  0  0  1  0  0  0  0  0  0  0  0
   16.7242    9.5325    1.7979 H   0  0  0  1  0  0  0  0  0  0  0  0
   15.4365   10.7206    1.7468 H   0  0  0  1  0  0  0  0  0  0  0  0
   17.1041   11.2403    1.6910 H   0  0  0  1  0  0  0  0  0  0  0  0
   15.9911   -5.1117   -1.4909 C   0  0  0  1  0  0  0  0  0  0  0  0
   16.1325   -5.6113   -0.5553 H   0  0  0  1  0  0  0  0  0  0  0  0
   14.8405   -5.7535   -2.2202 C   0  0  0  1  0  0  0  0  0  0  0  0
   15.0844   -6.7726   -2.4370 H   0  0  0  1  0  0  0  0  0  0  0  0
   15.7446   -3.7350   -1.2470 O   0  0  0  1  0  0  0  0  0  0  0  0
   14.5663   -5.0223   -3.5105 C   0  0  0  1  0  0  0  0  0  0  0  0
   13.6500   -5.3813   -3.9304 H   0  0  0  1  0  0  0  0  0  0  0  0
   15.6249   -3.0010   -2.4631 C   0  0  0  1  0  0  0  0  0  0  0  0
   16.5240   -3.1068   -3.0335 H   0  0  0  1  0  0  0  0  0  0  0  0
   14.4511   -3.5370   -3.2643 C   0  0  0  1  0  0  0  0  0  0  0  0
   14.4172   -3.0322   -4.2072 H   0  0  0  1  0  0  0  0  0  0  0  0
   17.1683   -5.2388   -2.2799 O   0  0  0  1  0  0  0  0  0  0  0  0
   13.6752   -5.7072   -1.3956 O   0  0  0  1  0  0  0  0  0  0  0  0
   12.8925   -5.8173   -1.9404 H   0  0  0  1  0  0  0  0  0  0  0  0
   15.6387   -5.2655   -4.4259 O   0  0  0  1  0  0  0  0  0  0  0  0
   16.2987   -4.5739   -4.3373 H   0  0  0  1  0  0  0  0  0  0  0  0
   15.3942   -1.5321   -2.1475 C   0  0  0  1  0  0  0  0  0  0  0  0
   15.3393   -0.9752   -3.0595 H   0  0  0  1  0  0  0  0  0  0  0  0
   16.2041   -1.1638   -1.5532 H   0  0  0  1  0  0  0  0  0  0  0  0
   14.4767   -1.4234   -1.6077 H   0  0  0  1  0  0  0  0  0  0  0  0
   19.7408   -6.2015   -3.3631 C   0  0  0  1  0  0  0  0  0  0  0  0
   19.7546   -5.2542   -2.8658 H   0  0  0  1  0  0  0  0  0  0  0  0
   18.3694   -6.4151   -3.9974 C   0  0  0  1  0  0  0  0  0  0  0  0
   18.3780   -7.3223   -4.5648 H   0  0  0  1  0  0  0  0  0  0  0  0
   20.0203   -7.2286   -2.4204 O   0  0  0  1  0  0  0  0  0  0  0  0
   17.3040   -6.5095   -2.9073 C   0  0  0  1  0  0  0  0  0  0  0  0
   16.3724   -6.7888   -3.3534 H   0  0  0  1  0  0  0  0  0  0  0  0
   19.0874   -7.2664   -1.3291 C   0  0  0  1  0  0  0  0  0  0  0  0
   19.3671   -8.0441   -0.6495 H   0  0  0  1  0  0  0  0  0  0  0  0
   17.6790   -7.5391   -1.8612 C   0  0  0  1  0  0  0  0  0  0  0  0
   16.9806   -7.4908   -1.0521 H   0  0  0  1  0  0  0  0  0  0  0  0
   18.0638   -5.2957   -4.8757 N   0  0  0  1  0  0  0  0  0  0  0  0
   18.3130   -4.3853   -4.6121 H   0  0  0  1  0  0  0  0  0  0  0  0
   17.6407   -8.8425   -2.4475 O   0  0  0  1  0  0  0  0  0  0  0  0
   18.5474   -9.0680   -2.6679 H   0  0  0  1  0  0  0  0  0  0  0  0
   19.1032   -5.9359   -0.6083 C   0  0  0  1  0  0  0  0  0  0  0  0
   19.4222   -5.1782   -1.2931 H   0  0  0  1  0  0  0  0  0  0  0  0
   19.7944   -5.9949    0.2064 H   0  0  0  1  0  0  0  0  0  0  0  0
   17.8263   -5.5804   -0.0977 O   0  0  0  1  0  0  0  0  0  0  0  0
   17.8611   -4.6642    0.1866 H   0  0  0  1  0  0  0  0  0  0  0  0
   17.4443   -5.5065   -6.0405 C   0  0  0  1  0  0  0  0  0  0  0  0
   17.1906   -4.6043   -6.8370 O   0  0  0  1  0  0  0  0  0  0  0  0
   17.0638   -6.9448   -6.3333 C   0  0  0  1  0  0  0  0  0  0  0  0
   17.7926   -7.5255   -5.8074 H   0  0  0  1  0  0  0  0  0  0  0  0
   17.1093   -7.1419   -7.3840 H   0  0  0  1  0  0  0  0  0  0  0  0
   16.0790   -7.1567   -5.9725 H   0  0  0  1  0  0  0  0  0  0  0  0
  1  2  1  0  0  0  0
  1  3  1  0  0  0  0
  1  4  1  0  0  0  0
  1 44  1  0  0  0  0
  3 20  1  0  0  0  0
  4  5  1  0  0  0  0
  4  6  1  0  0  0  0
  4  8  1  0  0  0  0
  6  7  1  0  0  0  0
  8  9  1  0  0  0  0
  8 10  1  0  0  0  0
  8 20  1  0  0  0  0
 10 11  1  0  0  0  0
 12 13  1  0  0  0  0
 12 14  1  0  0  0  0
 12 15  1  0  0  0  0
 12 17  1  0  0  0  0
 15 16  1  0  0  0  0
 17 18  1  0  0  0  0
 17 19  1  0  0  0  0
 17 20  1  0  0  0  0
 19 22  1  0  0  0  0
 20 21  1  0  0  0  0
 22 23  1  0  0  0  0
 22 24  1  0  0  0  0
 22 25  1  0  0  0  0
 24 42  1  0  0  0  0
 25 26  1  0  0  0  0
 25 27  1  0  0  0  0
 25 29  1  0  0  0  0
 27 28  1  0  0  0  0
 29 30  1  0  0  0  0
 29 31  1  0  0  0  0
 29 42  1  0  0  0  0
 31 32  1  0  0  0  0
 33 34  1  0  0  0  0
 33 35  1  0  0  0  0
 33 36  1  0  0  0  0
 33 38  1  0  0  0  0
 36 37  1  0  0  0  0
 38 39  1  0  0  0  0
 38 40  1  0  0  0  0
 38 42  1  0  0  0  0
 40 41  1  0  0  0  0
 42 43  1  0  0  0  0
 44194  1  0  0  0  0
 45 46  1  0  0  0  0
 45 54  1  0  0  0  0
 46 47  1  0  0  0  0
 46 48  1  0  0  0  0
 46 49  2  0  0  0  0
 47 50  1  0  0  0  0
 50 51  1  0  0  0  0
 50 52  1  0  0  0  0
 50 53  2  0  0  0  0
 51205  1  0  0  0  0
 54 55  1  0  0  0  0
 54 56  1  0  0  0  0
 54 57  1  0  0  0  0
 57 58  1  0  0  0  0
 57 59  2  0  0  0  0
 59 60  1  0  0  0  0
 59 64  1  0  0  0  0
 60 61  1  0  0  0  0
 60 62  1  0  0  0  0
 60 63  1  0  0  0  0
 64 65  1  0  0  0  0
 64 66  1  0  0  0  0
 64 67  1  0  0  0  0
 67 68  1  0  0  0  0
 67 69  1  0  0  0  0
 67 70  1  0  0  0  0
 70 71  1  0  0  0  0
 70 72  2  0  0  0  0
 72 73  1  0  0  0  0
 72 77  1  0  0  0  0
 73 74  1  0  0  0  0
 73 75  1  0  0  0  0
 73 76  1  0  0  0  0
 77 78  1  0  0  0  0
 77 79  1  0  0  0  0
 77 80  1  0  0  0  0
 80 81  1  0  0  0  0
 80 82  1  0  0  0  0
 80 83  1  0  0  0  0
 83 84  1  0  0  0  0
 83 85  2  0  0  0  0
 85 86  1  0  0  0  0
 85 89  1  0  0  0  0
 86 87  1  0  0  0  0
 86 88  1  0  0  0  0
 86 93  1  0  0  0  0
 89 90  1  0  0  0  0
 89 91  1  0  0  0  0
 89 92  1  0  0  0  0
 93 94  1  0  0  0  0
 93 95  1  0  0  0  0
 93 96  1  0  0  0  0
 96 97  1  0  0  0  0
 96 98  2  0  0  0  0
 98 99  1  0  0  0  0
 98102  1  0  0  0  0
 99100  1  0  0  0  0
 99101  1  0  0  0  0
 99106  1  0  0  0  0
102103  1  0  0  0  0
102104  1  0  0  0  0
102105  1  0  0  0  0
106107  1  0  0  0  0
106108  1  0  0  0  0
106109  1  0  0  0  0
109110  1  0  0  0  0
109111  2  0  0  0  0
111112  1  0  0  0  0
111115  1  0  0  0  0
112113  1  0  0  0  0
112114  1  0  0  0  0
112119  1  0  0  0  0
115116  1  0  0  0  0
115117  1  0  0  0  0
115118  1  0  0  0  0
119120  1  0  0  0  0
119121  1  0  0  0  0
119122  1  0  0  0  0
122123  1  0  0  0  0
122124  2  0  0  0  0
124125  1  0  0  0  0
124128  1  0  0  0  0
125126  1  0  0  0  0
125127  1  0  0  0  0
125132  1  0  0  0  0
128129  1  0  0  0  0
128130  1  0  0  0  0
128131  1  0  0  0  0
132133  1  0  0  0  0
132134  1  0  0  0  0
132135  1  0  0  0  0
135136  1  0  0  0  0
135137  2  0  0  0  0
137138  1  0  0  0  0
137141  1  0  0  0  0
138139  1  0  0  0  0
138140  1  0  0  0  0
138145  1  0  0  0  0
141142  1  0  0  0  0
141143  1  0  0  0  0
141144  1  0  0  0  0
145146  1  0  0  0  0
145147  1  0  0  0  0
145148  1  0  0  0  0
148149  1  0  0  0  0
148150  2  0  0  0  0
150151  1  0  0  0  0
150154  1  0  0  0  0
151152  1  0  0  0  0
151153  1  0  0  0  0
151158  1  0  0  0  0
154155  1  0  0  0  0
154156  1  0  0  0  0
154157  1  0  0  0  0
158159  1  0  0  0  0
158160  1  0  0  0  0
158161  1  0  0  0  0
161162  1  0  0  0  0
161163  2  0  0  0  0
163164  1  0  0  0  0
163167  1  0  0  0  0
164165  1  0  0  0  0
164166  1  0  0  0  0
164171  1  0  0  0  0
167168  1  0  0  0  0
167169  1  0  0  0  0
167170  1  0  0  0  0
171172  1  0  0  0  0
171173  1  0  0  0  0
171174  1  0  0  0  0
174175  1  0  0  0  0
174176  2  0  0  0  0
176177  1  0  0  0  0
176181  1  0  0  0  0
177178  1  0  0  0  0
177179  1  0  0  0  0
177180  1  0  0  0  0
181182  1  0  0  0  0
181183  1  0  0  0  0
181184  1  0  0  0  0
185186  1  0  0  0  0
185187  1  0  0  0  0
185189  1  0  0  0  0
185196  1  0  0  0  0
187188  1  0  0  0  0
187190  1  0  0  0  0
187197  1  0  0  0  0
189192  1  0  0  0  0
190191  1  0  0  0  0
190194  1  0  0  0  0
190199  1  0  0  0  0
192193  1  0  0  0  0
192194  1  0  0  0  0
192201  1  0  0  0  0
194195  1  0  0  0  0
196210  1  0  0  0  0
197198  1  0  0  0  0
199200  1  0  0  0  0
201202  1  0  0  0  0
201203  1  0  0  0  0
201204  1  0  0  0  0
205206  1  0  0  0  0
205207  1  0  0  0  0
205209  1  0  0  0  0
207208  1  0  0  0  0
207210  1  0  0  0  0
207216  1  0  0  0  0
209212  1  0  0  0  0
210211  1  0  0  0  0
210214  1  0  0  0  0
212213  1  0  0  0  0
212214  1  0  0  0  0
212220  1  0  0  0  0
214215  1  0  0  0  0
214218  1  0  0  0  0
216217  1  0  0  0  0
216225  1  0  0  0  0
218219  1  0  0  0  0
220221  1  0  0  0  0
220222  1  0  0  0  0
220223  1  0  0  0  0
223224  1  0  0  0  0
225226  2  0  0  0  0
225227  1  0  0  0  0
227228  1  0  0  0  0
227229  1  0  0  0  0
227230  1  0  0  0  0
M  BCL ATM C_TeTeTeTe H_S O_Te2Te2TeTe C_TeTeTeTe H_S O_Te2Te2TeTe H_S C_TeTeTeTe H_S O_Te2Te2TeTe H_S C_TeTeTeTe H_S H_S O_Te2Te2TeTe H_S C_TeTeTeTe H_S O_Te2Te2TeTe C_TeTeTeTe H_S C_TeTeTeTe H_S O_Te2Te2TeTe C_TeTeTeTe H_S O_Te2Te2TeTe H_S C_TeTeTeTe H_S O_Te2Te2TeTe H_S C_TeTeTeTe H_S H_S O_Te2Te2TeTe H_S C_TeTeTeTe H_S O_Te2Te2TeTe H_S C_TeTeTeTe H_S O_Te2Te2TeTe O_Tr2TrTrPi2 P_TeTeTeTePi O_Tr2TrTrPi2 O_Te2Te2TeTe O_Tr2Tr2TrPi P_TeTeTeTePi O_Tr2TrTrPi2 O_Te2Te2TeTe O_Tr2Tr2TrPi C_TeTeTeTe H_S H_S C_TrTrTrPi H_S C_TrTrTrPi C_TeTeTeTe H_S H_S H_S C_TeTeTeTe H_S H_S C_TeTeTeTe H_S H_S C_TrTrTrPi H_S C_TrTrTrPi C_TeTeTeTe H_S H_S H_S C_TeTeTeTe H_S H_S C_TeTeTeTe H_S H_S C_TrTrTrPi H_S C_TrTrTrPi C_TeTeTeTe H_S H_S C_TeTeTeTe H_S H_S H_S C_TeTeTeTe H_S H_S C_TrTrTrPi H_S C_TrTrTrPi C_TeTeTeTe H_S H_S C_TeTeTeTe H_S H_S H_S C_TeTeTeTe H_S H_S C_TrTrTrPi H_S C_TrTrTrPi C_TeTeTeTe H_S H_S C_TeTeTeTe H_S H_S H_S C_TeTeTeTe H_S H_S C_TrTrTrPi H_S C_TrTrTrPi C_TeTeTeTe H_S H_S C_TeTeTeTe H_S H_S H_S C_TeTeTeTe H_S H_S C_TrTrTrPi H_S C_TrTrTrPi C_TeTeTeTe H_S H_S C_TeTeTeTe H_S H_S H_S C_TeTeTeTe H_S H_S C_TrTrTrPi H_S C_TrTrTrPi C_TeTeTeTe H_S H_S C_TeTeTeTe H_S H_S H_S C_TeTeTeTe H_S H_S C_TrTrTrPi H_S C_TrTrTrPi C_TeTeTeTe H_S H_S C_TeTeTeTe H_S H_S H_S C_TeTeTeTe H_S H_S C_TrTrTrPi H_S C_TrTrTrPi C_TeTeTeTe H_S H_S H_S C_TeTeTeTe H_S H_S H_S C_TeTeTeTe H_S C_TeTeTeTe H_S O_Te2Te2TeTe C_TeTeTeTe H_S C_TeTeTeTe H_S C_TeTeTeTe H_S O_Te2Te2TeTe O_Te2Te2TeTe H_S O_Te2Te2TeTe H_S C_TeTeTeTe H_S H_S H_S C_TeTeTeTe H_S C_TeTeTeTe H_S O_Te2Te2TeTe C_TeTeTeTe H_S C_TeTeTeTe H_S C_TeTeTeTe H_S N_TrTrTrPi2 H_S O_Te2Te2TeTe H_S C_TeTeTeTe H_S H_S O_Te2Te2TeTe H_S C_TrTrTrPi O_Tr2Tr2TrPi C_TeTeTeTe H_S H_S H_S
M  BCL BND NonConjugatedSingleBond NonConjugatedSingleBondInRing NonConjugatedSingleBondInRing NonConjugatedSingleBond NonConjugatedSingleBondInRing NonConjugatedSingleBond NonConjugatedSingleBond NonConjugatedSingleBondInRing NonConjugatedSingleBond NonConjugatedSingleBond NonConjugatedSingleBond NonConjugatedSingleBondInRing NonConjugatedSingleBond NonConjugatedSingleBond NonConjugatedSingleBond NonConjugatedSingleBond NonConjugatedSingleBond NonConjugatedSingleBond NonConjugatedSingleBond NonConjugatedSingleBond NonConjugatedSingleBond NonConjugatedSingleBond NonConjugatedSingleBond NonConjugatedSingleBond NonConjugatedSingleBondInRing NonConjugatedSingleBondInRing NonConjugatedSingleBondInRing NonConjugatedSingleBond NonConjugatedSingleBond NonConjugatedSingleBondInRing NonConjugatedSingleBond NonConjugatedSingleBond NonConjugatedSingleBond NonConjugatedSingleBondInRing NonConjugatedSingleBond NonConjugatedSingleBond NonConjugatedSingleBond NonConjugatedSingleBond NonConjugatedSingleBond NonConjugatedSingleBond NonConjugatedSingleBond NonConjugatedSingleBond NonConjugatedSingleBond NonConjugatedSingleBond NonConjugatedSingleBond NonConjugatedSingleBond ConjugatedSingleBond NonConjugatedSingleBond ConjugatedSingleBond ConjugatedSingleBond ConjugatedDoubleBond ConjugatedSingleBond ConjugatedSingleBond ConjugatedSingleBond ConjugatedDoubleBond NonConjugatedSingleBond NonConjugatedSingleBond NonConjugatedSingleBond NonConjugatedSingleBond NonConjugatedSingleBond ConjugatedDoubleBond NonConjugatedSingleBond NonConjugatedSingleBond NonConjugatedSingleBond NonConjugatedSingleBond NonConjugatedSingleBond NonConjugatedSingleBond NonConjugatedSingleBond NonConjugatedSingleBond NonConjugatedSingleBond NonConjugatedSingleBond NonConjugatedSingleBond NonConjugatedSingleBond ConjugatedDoubleBond NonConjugatedSingleBond NonConjugatedSingleBond NonConjugatedSingleBond NonConjugatedSingleBond NonConjugatedSingleBond NonConjugatedSingleBond NonConjugatedSingleBond NonConjugatedSingleBond NonConjugatedSingleBond NonConjugatedSingleBond NonConjugatedSingleBond NonConjugatedSingleBond ConjugatedDoubleBond NonConjugatedSingleBond NonConjugatedSingleBond NonConjugatedSingleBond NonConjugatedSingleBond NonConjugatedSingleBond NonConjugatedSingleBond NonConjugatedSingleBond NonConjugatedSingleBond NonConjugatedSingleBond NonConjugatedSingleBond NonConjugatedSingleBond NonConjugatedSingleBond ConjugatedDoubleBond NonConjugatedSingleBond NonConjugatedSingleBond NonConjugatedSingleBond NonConjugatedSingleBond NonConjugatedSingleBond NonConjugatedSingleBond NonConjugatedSingleBond NonConjugatedSingleBond NonConjugatedSingleBond NonConjugatedSingleBond NonConjugatedSingleBond NonConjugatedSingleBond ConjugatedDoubleBond NonConjugatedSingleBond NonConjugatedSingleBond NonConjugatedSingleBond NonConjugatedSingleBond NonConjugatedSingleBond NonConjugatedSingleBond NonConjugatedSingleBond NonConjugatedSingleBond NonConjugatedSingleBond NonConjugatedSingleBond NonConjugatedSingleBond NonConjugatedSingleBond ConjugatedDoubleBond NonConjugatedSingleBond NonConjugatedSingleBond NonConjugatedSingleBond NonConjugatedSingleBond NonConjugatedSingleBond NonConjugatedSingleBond NonConjugatedSingleBond NonConjugatedSingleBond NonConjugatedSingleBond NonConjugatedSingleBond NonConjugatedSingleBond NonConjugatedSingleBond ConjugatedDoubleBond NonConjugatedSingleBond NonConjugatedSingleBond NonConjugatedSingleBond NonConjugatedSingleBond NonConjugatedSingleBond NonConjugatedSingleBond NonConjugatedSingleBond NonConjugatedSingleBond NonConjugatedSingleBond NonConjugatedSingleBond NonConjugatedSingleBond NonConjugatedSingleBond ConjugatedDoubleBond NonConjugatedSingleBond NonConjugatedSingleBond NonConjugatedSingleBond NonConjugatedSingleBond NonConjugatedSingleBond NonConjugatedSingleBond NonConjugatedSingleBond NonConjugatedSingleBond NonConjugatedSingleBond NonConjugatedSingleBond NonConjugatedSingleBond NonConjugatedSingleBond ConjugatedDoubleBond NonConjugatedSingleBond NonConjugatedSingleBond NonConjugatedSingleBond NonConjugatedSingleBond NonConjugatedSingleBond NonConjugatedSingleBond NonConjugatedSingleBond NonConjugatedSingleBond NonConjugatedSingleBond NonConjugatedSingleBond NonConjugatedSingleBond NonConjugatedSingleBond ConjugatedDoubleBond NonConjugatedSingleBond NonConjugatedSingleBond NonConjugatedSingleBond NonConjugatedSingleBond NonConjugatedSingleBond NonConjugatedSingleBond NonConjugatedSingleBond NonConjugatedSingleBond NonConjugatedSingleBond NonConjugatedSingleBondInRing NonConjugatedSingleBondInRing NonConjugatedSingleBond NonConjugatedSingleBond NonConjugatedSingleBondInRing NonConjugatedSingleBond NonConjugatedSingleBondInRing NonConjugatedSingleBond NonConjugatedSingleBondInRing NonConjugatedSingleBond NonConjugatedSingleBond NonConjugatedSingleBondInRing NonConjugatedSingleBond NonConjugatedSingleBond NonConjugatedSingleBond NonConjugatedSingleBond NonConjugatedSingleBond NonConjugatedSingleBond NonConjugatedSingleBond NonConjugatedSingleBond NonConjugatedSingleBond NonConjugatedSingleBondInRing NonConjugatedSingleBondInRing NonConjugatedSingleBond NonConjugatedSingleBondInRing NonConjugatedSingleBond NonConjugatedSingleBondInRing NonConjugatedSingleBond NonConjugatedSingleBondInRing NonConjugatedSingleBond NonConjugatedSingleBondInRing NonConjugatedSingleBond NonConjugatedSingleBond NonConjugatedSingleBond NonConjugatedSingleBond AmideSingleBond NonConjugatedSingleBond NonConjugatedSingleBond NonConjugatedSingleBond NonConjugatedSingleBond NonConjugatedSingleBond ConjugatedDoubleBond NonConjugatedSingleBond NonConjugatedSingleBond NonConjugatedSingleBond NonConjugatedSingleBond
M  BCL CHI   1   R   4   R   8   R  17   S  20   R  22   S  25   R  29   S  38   S  42   R  46   R  50   S 185   R 187   S 190   S 192   R 194   R 205   R 207   S 210   R 212   S 214   S
M  BCL DBI - - E E E E E E E E Z - -
M  END
> <ConfClashScore>
0.0136816 

> <ConfOneFourInteractionScore>
-0.968139 

> <ConfScore>
1.638 

> <ConfScorePBest>
0.00757948 

> <ConfTolerance>
3.90799 

$$$$
L05.****
  PyMOL2.5          3D                             0

230233  0  0  0  0  0  0  0  0999 V2000
   12.7523   -1.7153   -2.8335 C   0  0  0  1  0  0  0  0  0  0  0  0
   12.3742   -1.5999   -3.8278 H   0  0  0  1  0  0  0  0  0  0  0  0
   13.7646   -0.7823   -2.5870 O   0  0  0  1  0  0  0  0  0  0  0  0
   11.6490   -1.4214   -1.8047 C   0  0  0  1  0  0  0  0  0  0  0  0
   11.8359   -1.9302   -0.8822 H   0  0  0  1  0  0  0  0  0  0  0  0
   10.3648   -1.7969   -2.3047 O   0  0  0  1  0  0  0  0  0  0  0  0
    9.6880   -1.5423   -1.6732 H   0  0  0  1  0  0  0  0  0  0  0  0
   11.7506    0.0837   -1.6307 C   0  0  0  1  0  0  0  0  0  0  0  0
   11.1482    0.5964   -2.3512 H   0  0  0  1  0  0  0  0  0  0  0  0
   11.3581    0.4770   -0.3147 O   0  0  0  1  0  0  0  0  0  0  0  0
   10.7296   -0.1585    0.0356 H   0  0  0  1  0  0  0  0  0  0  0  0
   14.0672    1.2761   -4.0353 C   0  0  0  1  0  0  0  0  0  0  0  0
   14.1884    2.1795   -4.5958 H   0  0  0  1  0  0  0  0  0  0  0  0
   15.0249    0.8303   -3.8649 H   0  0  0  1  0  0  0  0  0  0  0  0
   13.2726    0.3738   -4.7916 O   0  0  0  1  0  0  0  0  0  0  0  0
   13.0776    0.7595   -5.6488 H   0  0  0  1  0  0  0  0  0  0  0  0
   13.4387    1.6169   -2.6869 C   0  0  0  1  0  0  0  0  0  0  0  0
   12.4843    2.0721   -2.8506 H   0  0  0  1  0  0  0  0  0  0  0  0
   14.3171    2.5216   -2.0277 O   0  0  0  1  0  0  0  0  0  0  0  0
   13.2566    0.3557   -1.8681 C   0  0  0  1  0  0  0  0  0  0  0  0
   13.7659    0.4603   -0.9329 H   0  0  0  1  0  0  0  0  0  0  0  0
   14.8704    3.5782   -2.7625 C   0  0  0  1  0  0  0  0  0  0  0  0
   15.2866    3.2005   -3.6730 H   0  0  0  1  0  0  0  0  0  0  0  0
   13.9041    4.5585   -3.0272 O   0  0  0  1  0  0  0  0  0  0  0  0
   15.9389    4.3122   -1.9394 C   0  0  0  1  0  0  0  0  0  0  0  0
   16.9003    3.8593   -2.0639 H   0  0  0  1  0  0  0  0  0  0  0  0
   15.5972    4.3319   -0.5526 O   0  0  0  1  0  0  0  0  0  0  0  0
   16.3654    4.5875   -0.0368 H   0  0  0  1  0  0  0  0  0  0  0  0
   15.9123    5.6996   -2.5250 C   0  0  0  1  0  0  0  0  0  0  0  0
   16.5353    5.7620   -3.3927 H   0  0  0  1  0  0  0  0  0  0  0  0
   16.3328    6.6667   -1.5671 O   0  0  0  1  0  0  0  0  0  0  0  0
   15.6767    7.3650   -1.5074 H   0  0  0  1  0  0  0  0  0  0  0  0
   14.8935    5.9334   -5.4137 C   0  0  0  1  0  0  0  0  0  0  0  0
   14.5337    4.9258   -5.4230 H   0  0  0  1  0  0  0  0  0  0  0  0
   14.5655    6.4380   -6.2984 H   0  0  0  1  0  0  0  0  0  0  0  0
   16.3136    5.9101   -5.4024 O   0  0  0  1  0  0  0  0  0  0  0  0
   16.6176    5.1125   -4.9630 H   0  0  0  1  0  0  0  0  0  0  0  0
   14.3113    6.6514   -4.1946 C   0  0  0  1  0  0  0  0  0  0  0  0
   13.2681    6.8022   -4.3790 H   0  0  0  1  0  0  0  0  0  0  0  0
   14.9354    7.9214   -4.0253 O   0  0  0  1  0  0  0  0  0  0  0  0
   14.4220    8.4514   -3.4113 H   0  0  0  1  0  0  0  0  0  0  0  0
   14.4382    5.8948   -2.8919 C   0  0  0  1  0  0  0  0  0  0  0  0
   13.9259    6.4275   -2.1181 H   0  0  0  1  0  0  0  0  0  0  0  0
   13.2471   -3.0386   -2.6641 O   0  0  0  1  0  0  0  0  0  0  0  0
   24.2119   -8.6145   -1.7785 O   0  0  0  1  0  0  0  0  0  0  0  0
   23.9304   -7.0846   -1.4076 P   0  0  0  1  0  0  0  0  0  0  0  0
   22.4359   -7.2332   -0.8371 O   0  0  0  1  0  0  0  0  0  0  0  0
   23.8070   -6.2329   -2.6320 O   0  0  0  0  0  0  0  0  0  0  0  0
   24.8911   -6.6000   -0.3707 O   0  0  0  1  0  0  0  0  0  0  0  0
   21.6419   -6.4721    0.3276 P   0  0  0  1  0  0  0  0  0  0  0  0
   20.1361   -6.7855    0.0113 O   0  0  0  1  0  0  0  0  0  0  0  0
   21.9806   -5.0499    0.0956 O   0  0  0  0  0  0  0  0  0  0  0  0
   21.8709   -7.1009    1.6465 O   0  0  0  1  0  0  0  0  0  0  0  0
   24.7934   -9.4741   -0.7743 C   0  0  0  1  0  0  0  0  0  0  0  0
   24.2681   -9.3548    0.1502 H   0  0  0  1  0  0  0  0  0  0  0  0
   25.8235   -9.2202   -0.6352 H   0  0  0  1  0  0  0  0  0  0  0  0
   24.6817  -10.8954   -1.2390 C   0  0  0  1  0  0  0  0  0  0  0  0
   23.7285  -11.3056   -1.3084 H   0  0  0  1  0  0  0  0  0  0  0  0
   25.7090  -11.6694   -1.5684 C   0  0  0  1  0  0  0  0  0  0  0  0
   25.5104  -12.9488   -2.3280 C   0  0  0  1  0  0  0  0  0  0  0  0
   25.4575  -12.7377   -3.3757 H   0  0  0  1  0  0  0  0  0  0  0  0
   24.5999  -13.4135   -2.0117 H   0  0  0  1  0  0  0  0  0  0  0  0
   26.3321  -13.6072   -2.1382 H   0  0  0  1  0  0  0  0  0  0  0  0
   27.1385  -11.3566   -1.2262 C   0  0  0  1  0  0  0  0  0  0  0  0
   27.5428  -12.1766   -0.6702 H   0  0  0  1  0  0  0  0  0  0  0  0
   27.1589  -10.4723   -0.6242 H   0  0  0  1  0  0  0  0  0  0  0  0
   28.0095  -11.1273   -2.4544 C   0  0  0  1  0  0  0  0  0  0  0  0
   27.4245  -10.6285   -3.1985 H   0  0  0  1  0  0  0  0  0  0  0  0
   28.3280  -12.0779   -2.8284 H   0  0  0  1  0  0  0  0  0  0  0  0
   29.2194  -10.2998   -2.1674 C   0  0  0  1  0  0  0  0  0  0  0  0
   29.9970  -10.7314   -1.6283 H   0  0  0  1  0  0  0  0  0  0  0  0
   29.3510   -9.0405   -2.5666 C   0  0  0  1  0  0  0  0  0  0  0  0
   30.6865   -8.3522   -2.5537 C   0  0  0  1  0  0  0  0  0  0  0  0
   30.6238   -7.4616   -1.9640 H   0  0  0  1  0  0  0  0  0  0  0  0
   30.9661   -8.0979   -3.5547 H   0  0  0  1  0  0  0  0  0  0  0  0
   31.4209   -9.0071   -2.1333 H   0  0  0  1  0  0  0  0  0  0  0  0
   28.2137   -8.1947   -3.0587 C   0  0  0  1  0  0  0  0  0  0  0  0
   28.4384   -7.1689   -2.8534 H   0  0  0  1  0  0  0  0  0  0  0  0
   27.3260   -8.4782   -2.5327 H   0  0  0  1  0  0  0  0  0  0  0  0
   27.9613   -8.3456   -4.5500 C   0  0  0  1  0  0  0  0  0  0  0  0
   27.7680   -9.3768   -4.7601 H   0  0  0  1  0  0  0  0  0  0  0  0
   28.8380   -8.0320   -5.0772 H   0  0  0  1  0  0  0  0  0  0  0  0
   26.8055   -7.5393   -5.0305 C   0  0  0  1  0  0  0  0  0  0  0  0
   25.8596   -7.7185   -4.6369 H   0  0  0  1  0  0  0  0  0  0  0  0
   26.9597   -6.5953   -5.9527 C   0  0  0  1  0  0  0  0  0  0  0  0
   28.2952   -6.0816   -6.4026 C   0  0  0  1  0  0  0  0  0  0  0  0
   28.9785   -6.1443   -5.5816 H   0  0  0  1  0  0  0  0  0  0  0  0
   28.1849   -5.0591   -6.6981 H   0  0  0  1  0  0  0  0  0  0  0  0
   25.7815   -5.9579   -6.6284 C   0  0  0  1  0  0  0  0  0  0  0  0
   25.8064   -6.1804   -7.6747 H   0  0  0  1  0  0  0  0  0  0  0  0
   25.8209   -4.8978   -6.4883 H   0  0  0  1  0  0  0  0  0  0  0  0
   24.8771   -6.3409   -6.2040 H   0  0  0  1  0  0  0  0  0  0  0  0
   28.8709   -6.8637   -7.5719 C   0  0  0  1  0  0  0  0  0  0  0  0
   28.5695   -6.3875   -8.4815 H   0  0  0  1  0  0  0  0  0  0  0  0
   28.4781   -7.8586   -7.5425 H   0  0  0  1  0  0  0  0  0  0  0  0
   30.3740   -6.9411   -7.5467 C   0  0  0  1  0  0  0  0  0  0  0  0
   30.8140   -7.5120   -6.7970 H   0  0  0  1  0  0  0  0  0  0  0  0
   31.1839   -6.3317   -8.4145 C   0  0  0  1  0  0  0  0  0  0  0  0
   30.6792   -5.2355   -9.3143 C   0  0  0  1  0  0  0  0  0  0  0  0
   30.1414   -5.6809  -10.1250 H   0  0  0  1  0  0  0  0  0  0  0  0
   31.5196   -4.6952   -9.6973 H   0  0  0  1  0  0  0  0  0  0  0  0
   32.6305   -6.7146   -8.5285 C   0  0  0  1  0  0  0  0  0  0  0  0
   33.1004   -6.1153   -9.2801 H   0  0  0  1  0  0  0  0  0  0  0  0
   32.7056   -7.7475   -8.7977 H   0  0  0  1  0  0  0  0  0  0  0  0
   33.1167   -6.5540   -7.5890 H   0  0  0  1  0  0  0  0  0  0  0  0
   29.7588   -4.2574   -8.6026 C   0  0  0  1  0  0  0  0  0  0  0  0
   29.5498   -4.6368   -7.6241 H   0  0  0  1  0  0  0  0  0  0  0  0
   28.8476   -4.1813   -9.1583 H   0  0  0  1  0  0  0  0  0  0  0  0
   30.3532   -2.8812   -8.4660 C   0  0  0  1  0  0  0  0  0  0  0  0
   30.5783   -2.3835   -9.3509 H   0  0  0  1  0  0  0  0  0  0  0  0
   30.6237   -2.2276   -7.3274 C   0  0  0  1  0  0  0  0  0  0  0  0
   30.0860   -2.6662   -5.9930 C   0  0  0  1  0  0  0  0  0  0  0  0
   30.9109   -2.7531   -5.3172 H   0  0  0  1  0  0  0  0  0  0  0  0
   29.6266   -3.6240   -6.1210 H   0  0  0  1  0  0  0  0  0  0  0  0
   31.4992   -1.0075   -7.3848 C   0  0  0  1  0  0  0  0  0  0  0  0
   30.9008   -0.1486   -7.6067 H   0  0  0  1  0  0  0  0  0  0  0  0
   32.2377   -1.1343   -8.1486 H   0  0  0  1  0  0  0  0  0  0  0  0
   31.9823   -0.8707   -6.4399 H   0  0  0  1  0  0  0  0  0  0  0  0
   29.0617   -1.7350   -5.3653 C   0  0  0  1  0  0  0  0  0  0  0  0
   29.4436   -0.7360   -5.3995 H   0  0  0  1  0  0  0  0  0  0  0  0
   28.9155   -2.0267   -4.3463 H   0  0  0  1  0  0  0  0  0  0  0  0
   27.7317   -1.7633   -6.0669 C   0  0  0  1  0  0  0  0  0  0  0  0
   27.7475   -1.6178   -7.0966 H   0  0  0  1  0  0  0  0  0  0  0  0
   26.5396   -1.9540   -5.5144 C   0  0  0  1  0  0  0  0  0  0  0  0
   26.4024   -2.4972   -4.1186 C   0  0  0  1  0  0  0  0  0  0  0  0
   27.3362   -2.9417   -3.8441 H   0  0  0  1  0  0  0  0  0  0  0  0
   25.6394   -3.2473   -4.1299 H   0  0  0  1  0  0  0  0  0  0  0  0
   25.2399   -1.6565   -6.2030 C   0  0  0  1  0  0  0  0  0  0  0  0
   24.8179   -0.7606   -5.7980 H   0  0  0  1  0  0  0  0  0  0  0  0
   24.5618   -2.4702   -6.0513 H   0  0  0  1  0  0  0  0  0  0  0  0
   25.4133   -1.5268   -7.2509 H   0  0  0  1  0  0  0  0  0  0  0  0
   26.0389   -1.4747   -3.0543 C   0  0  0  1  0  0  0  0  0  0  0  0
   25.0213   -1.1780   -3.2005 H   0  0  0  1  0  0  0  0  0  0  0  0
   26.6785   -0.6242   -3.1666 H   0  0  0  1  0  0  0  0  0  0  0  0
   26.1872   -2.0040   -1.6530 C   0  0  0  1  0  0  0  0  0  0  0  0
   27.0453   -2.5571   -1.4547 H   0  0  0  1  0  0  0  0  0  0  0  0
   25.3370   -1.8407   -0.6376 C   0  0  0  1  0  0  0  0  0  0  0  0
   23.9309   -1.3594   -0.8690 C   0  0  0  1  0  0  0  0  0  0  0  0
   23.2616   -2.0860   -0.4579 H   0  0  0  1  0  0  0  0  0  0  0  0
   23.7760   -1.2884   -1.9254 H   0  0  0  1  0  0  0  0  0  0  0  0
   25.7499   -2.1309    0.7779 C   0  0  0  1  0  0  0  0  0  0  0  0
   26.0258   -3.1610    0.8654 H   0  0  0  1  0  0  0  0  0  0  0  0
   24.9330   -1.9235    1.4371 H   0  0  0  1  0  0  0  0  0  0  0  0
   26.5849   -1.5149    1.0390 H   0  0  0  1  0  0  0  0  0  0  0  0
   23.5944   -0.0108   -0.2540 C   0  0  0  1  0  0  0  0  0  0  0  0
   22.5389    0.1515   -0.3205 H   0  0  0  1  0  0  0  0  0  0  0  0
   24.1086    0.7582   -0.7918 H   0  0  0  1  0  0  0  0  0  0  0  0
   24.0107    0.0352    1.1919 C   0  0  0  1  0  0  0  0  0  0  0  0
   24.9967   -0.2226    1.3989 H   0  0  0  1  0  0  0  0  0  0  0  0
   23.2543    0.3699    2.2334 C   0  0  0  1  0  0  0  0  0  0  0  0
   21.8084    0.7129    2.0112 C   0  0  0  1  0  0  0  0  0  0  0  0
   21.3183    0.7976    2.9585 H   0  0  0  1  0  0  0  0  0  0  0  0
   21.3474   -0.0648    1.4388 H   0  0  0  1  0  0  0  0  0  0  0  0
   23.7139    0.4427    3.6601 C   0  0  0  1  0  0  0  0  0  0  0  0
   24.7755    0.5745    3.6871 H   0  0  0  1  0  0  0  0  0  0  0  0
   23.4544   -0.4643    4.1649 H   0  0  0  1  0  0  0  0  0  0  0  0
   23.2397    1.2700    4.1456 H   0  0  0  1  0  0  0  0  0  0  0  0
   21.6756    2.0287    1.2620 C   0  0  0  1  0  0  0  0  0  0  0  0
   20.6797    2.1030    0.8779 H   0  0  0  1  0  0  0  0  0  0  0  0
   22.3726    2.0303    0.4501 H   0  0  0  1  0  0  0  0  0  0  0  0
   21.9398    3.2027    2.1080 C   0  0  0  1  0  0  0  0  0  0  0  0
   21.0670    3.6334    2.4745 H   0  0  0  1  0  0  0  0  0  0  0  0
   23.0418    3.8482    2.5180 C   0  0  0  1  0  0  0  0  0  0  0  0
   23.0216    5.1310    3.2974 C   0  0  0  1  0  0  0  0  0  0  0  0
   22.7047    4.9172    4.2968 H   0  0  0  1  0  0  0  0  0  0  0  0
   22.3238    5.7985    2.8365 H   0  0  0  1  0  0  0  0  0  0  0  0
   24.4426    3.3735    2.2516 C   0  0  0  1  0  0  0  0  0  0  0  0
   24.3450    2.5781    1.5426 H   0  0  0  1  0  0  0  0  0  0  0  0
   24.8943    3.0168    3.1537 H   0  0  0  1  0  0  0  0  0  0  0  0
   25.0350    4.1663    1.8448 H   0  0  0  1  0  0  0  0  0  0  0  0
   24.3783    5.8138    3.3557 C   0  0  0  1  0  0  0  0  0  0  0  0
   24.7699    5.8786    2.3620 H   0  0  0  1  0  0  0  0  0  0  0  0
   25.0326    5.2204    3.9595 H   0  0  0  1  0  0  0  0  0  0  0  0
   24.3164    7.1899    3.9328 C   0  0  0  1  0  0  0  0  0  0  0  0
   23.7441    7.9065    3.4423 H   0  0  0  1  0  0  0  0  0  0  0  0
   24.9571    7.5442    5.0432 C   0  0  0  1  0  0  0  0  0  0  0  0
   24.7898    8.9382    5.5741 C   0  0  0  1  0  0  0  0  0  0  0  0
   24.4270    8.8962    6.5799 H   0  0  0  1  0  0  0  0  0  0  0  0
   24.0894    9.4700    4.9646 H   0  0  0  1  0  0  0  0  0  0  0  0
   25.7335    9.4420    5.5564 H   0  0  0  1  0  0  0  0  0  0  0  0
   25.8688    6.6552    5.8538 C   0  0  0  1  0  0  0  0  0  0  0  0
   26.8061    7.1623    5.9505 H   0  0  0  1  0  0  0  0  0  0  0  0
   26.0087    5.7204    5.3524 H   0  0  0  1  0  0  0  0  0  0  0  0
   25.4453    6.4818    6.8210 H   0  0  0  1  0  0  0  0  0  0  0  0
   15.8934   -5.1746   -1.6640 C   0  0  0  1  0  0  0  0  0  0  0  0
   16.0396   -5.7651   -0.7837 H   0  0  0  1  0  0  0  0  0  0  0  0
   14.7009   -5.7065   -2.4331 C   0  0  0  1  0  0  0  0  0  0  0  0
   14.8913   -6.7138   -2.7398 H   0  0  0  1  0  0  0  0  0  0  0  0
   15.6646   -3.8189   -1.2904 O   0  0  0  1  0  0  0  0  0  0  0  0
   14.4775   -4.8336   -3.6574 C   0  0  0  1  0  0  0  0  0  0  0  0
   13.5390   -5.0984   -4.0978 H   0  0  0  1  0  0  0  0  0  0  0  0
   15.6291   -2.9551   -2.4469 C   0  0  0  1  0  0  0  0  0  0  0  0
   16.5425   -3.0551   -2.9953 H   0  0  0  1  0  0  0  0  0  0  0  0
   14.4586   -3.3487   -3.3347 C   0  0  0  1  0  0  0  0  0  0  0  0
   14.5134   -2.7940   -4.2480 H   0  0  0  1  0  0  0  0  0  0  0  0
   17.0542   -5.2484   -2.4836 O   0  0  0  1  0  0  0  0  0  0  0  0
   13.5396   -5.6726   -1.6014 O   0  0  0  1  0  0  0  0  0  0  0  0
   13.7795   -5.9221   -0.7059 H   0  0  0  1  0  0  0  0  0  0  0  0
   15.5234   -5.0811   -4.5858 O   0  0  0  1  0  0  0  0  0  0  0  0
   16.1218   -5.7399   -4.2262 H   0  0  0  1  0  0  0  0  0  0  0  0
   15.4634   -1.5226   -2.0007 C   0  0  0  1  0  0  0  0  0  0  0  0
   14.7398   -1.0366   -2.6213 H   0  0  0  1  0  0  0  0  0  0  0  0
   16.4012   -1.0135   -2.0810 H   0  0  0  1  0  0  0  0  0  0  0  0
   15.1319   -1.5021   -0.9836 H   0  0  0  1  0  0  0  0  0  0  0  0
   19.4649   -6.2971   -1.1478 C   0  0  0  1  0  0  0  0  0  0  0  0
   18.7488   -7.0206   -1.4772 H   0  0  0  1  0  0  0  0  0  0  0  0
   18.7424   -4.9988   -0.7994 C   0  0  0  1  0  0  0  0  0  0  0  0
   19.4434   -4.3008   -0.3916 H   0  0  0  1  0  0  0  0  0  0  0  0
   20.4165   -6.0771   -2.1811 O   0  0  0  1  0  0  0  0  0  0  0  0
   18.1093   -4.4055   -2.0562 C   0  0  0  1  0  0  0  0  0  0  0  0
   17.7207   -3.4354   -1.8262 H   0  0  0  1  0  0  0  0  0  0  0  0
   19.8266   -5.6177   -3.4074 C   0  0  0  1  0  0  0  0  0  0  0  0
   20.5918   -5.4935   -4.1449 H   0  0  0  1  0  0  0  0  0  0  0  0
   19.1238   -4.2787   -3.1741 C   0  0  0  1  0  0  0  0  0  0  0  0
   18.6240   -3.9813   -4.0722 H   0  0  0  1  0  0  0  0  0  0  0  0
   17.7030   -5.2728    0.1816 N   0  0  0  1  0  0  0  0  0  0  0  0
   16.8537   -5.6552   -0.1234 H   0  0  0  1  0  0  0  0  0  0  0  0
   20.0946   -3.2927   -2.8197 O   0  0  0  1  0  0  0  0  0  0  0  0
   20.7282   -3.2638   -3.5404 H   0  0  0  1  0  0  0  0  0  0  0  0
   18.8244   -6.6302   -3.8894 C   0  0  0  1  0  0  0  0  0  0  0  0
   18.1256   -6.8231   -3.1024 H   0  0  0  1  0  0  0  0  0  0  0  0
   19.3413   -7.5337   -4.1375 H   0  0  0  1  0  0  0  0  0  0  0  0
   18.1150   -6.1874   -5.0264 O   0  0  0  1  0  0  0  0  0  0  0  0
   18.5466   -6.5430   -5.8068 H   0  0  0  1  0  0  0  0  0  0  0  0
   17.8724   -5.0118    1.5328 C   0  0  0  1  0  0  0  0  0  0  0  0
   18.8631   -4.3994    1.8877 O   0  0  0  1  0  0  0  0  0  0  0  0
   16.8322   -5.4919    2.5055 C   0  0  0  1  0  0  0  0  0  0  0  0
   17.2174   -6.4211    2.8705 H   0  0  0  1  0  0  0  0  0  0  0  0
   15.8933   -5.6385    2.0138 H   0  0  0  1  0  0  0  0  0  0  0  0
   16.7108   -4.7921    3.3058 H   0  0  0  1  0  0  0  0  0  0  0  0
  1  2  1  0  0  0  0
  1  3  1  0  0  0  0
  1  4  1  0  0  0  0
  1 44  1  0  0  0  0
  3 20  1  0  0  0  0
  4  5  1  0  0  0  0
  4  6  1  0  0  0  0
  4  8  1  0  0  0  0
  6  7  1  0  0  0  0
  8  9  1  0  0  0  0
  8 10  1  0  0  0  0
  8 20  1  0  0  0  0
 10 11  1  0  0  0  0
 12 13  1  0  0  0  0
 12 14  1  0  0  0  0
 12 15  1  0  0  0  0
 12 17  1  0  0  0  0
 15 16  1  0  0  0  0
 17 18  1  0  0  0  0
 17 19  1  0  0  0  0
 17 20  1  0  0  0  0
 19 22  1  0  0  0  0
 20 21  1  0  0  0  0
 22 23  1  0  0  0  0
 22 24  1  0  0  0  0
 22 25  1  0  0  0  0
 24 42  1  0  0  0  0
 25 26  1  0  0  0  0
 25 27  1  0  0  0  0
 25 29  1  0  0  0  0
 27 28  1  0  0  0  0
 29 30  1  0  0  0  0
 29 31  1  0  0  0  0
 29 42  1  0  0  0  0
 31 32  1  0  0  0  0
 33 34  1  0  0  0  0
 33 35  1  0  0  0  0
 33 36  1  0  0  0  0
 33 38  1  0  0  0  0
 36 37  1  0  0  0  0
 38 39  1  0  0  0  0
 38 40  1  0  0  0  0
 38 42  1  0  0  0  0
 40 41  1  0  0  0  0
 42 43  1  0  0  0  0
 44194  1  0  0  0  0
 45 46  1  0  0  0  0
 45 54  1  0  0  0  0
 46 47  1  0  0  0  0
 46 48  1  0  0  0  0
 46 49  2  0  0  0  0
 47 50  1  0  0  0  0
 50 51  1  0  0  0  0
 50 52  1  0  0  0  0
 50 53  2  0  0  0  0
 51205  1  0  0  0  0
 54 55  1  0  0  0  0
 54 56  1  0  0  0  0
 54 57  1  0  0  0  0
 57 58  1  0  0  0  0
 57 59  2  0  0  0  0
 59 60  1  0  0  0  0
 59 64  1  0  0  0  0
 60 61  1  0  0  0  0
 60 62  1  0  0  0  0
 60 63  1  0  0  0  0
 64 65  1  0  0  0  0
 64 66  1  0  0  0  0
 64 67  1  0  0  0  0
 67 68  1  0  0  0  0
 67 69  1  0  0  0  0
 67 70  1  0  0  0  0
 70 71  1  0  0  0  0
 70 72  2  0  0  0  0
 72 73  1  0  0  0  0
 72 77  1  0  0  0  0
 73 74  1  0  0  0  0
 73 75  1  0  0  0  0
 73 76  1  0  0  0  0
 77 78  1  0  0  0  0
 77 79  1  0  0  0  0
 77 80  1  0  0  0  0
 80 81  1  0  0  0  0
 80 82  1  0  0  0  0
 80 83  1  0  0  0  0
 83 84  1  0  0  0  0
 83 85  2  0  0  0  0
 85 86  1  0  0  0  0
 85 89  1  0  0  0  0
 86 87  1  0  0  0  0
 86 88  1  0  0  0  0
 86 93  1  0  0  0  0
 89 90  1  0  0  0  0
 89 91  1  0  0  0  0
 89 92  1  0  0  0  0
 93 94  1  0  0  0  0
 93 95  1  0  0  0  0
 93 96  1  0  0  0  0
 96 97  1  0  0  0  0
 96 98  2  0  0  0  0
 98 99  1  0  0  0  0
 98102  1  0  0  0  0
 99100  1  0  0  0  0
 99101  1  0  0  0  0
 99106  1  0  0  0  0
102103  1  0  0  0  0
102104  1  0  0  0  0
102105  1  0  0  0  0
106107  1  0  0  0  0
106108  1  0  0  0  0
106109  1  0  0  0  0
109110  1  0  0  0  0
109111  2  0  0  0  0
111112  1  0  0  0  0
111115  1  0  0  0  0
112113  1  0  0  0  0
112114  1  0  0  0  0
112119  1  0  0  0  0
115116  1  0  0  0  0
115117  1  0  0  0  0
115118  1  0  0  0  0
119120  1  0  0  0  0
119121  1  0  0  0  0
119122  1  0  0  0  0
122123  1  0  0  0  0
122124  2  0  0  0  0
124125  1  0  0  0  0
124128  1  0  0  0  0
125126  1  0  0  0  0
125127  1  0  0  0  0
125132  1  0  0  0  0
128129  1  0  0  0  0
128130  1  0  0  0  0
128131  1  0  0  0  0
132133  1  0  0  0  0
132134  1  0  0  0  0
132135  1  0  0  0  0
135136  1  0  0  0  0
135137  2  0  0  0  0
137138  1  0  0  0  0
137141  1  0  0  0  0
138139  1  0  0  0  0
138140  1  0  0  0  0
138145  1  0  0  0  0
141142  1  0  0  0  0
141143  1  0  0  0  0
141144  1  0  0  0  0
145146  1  0  0  0  0
145147  1  0  0  0  0
145148  1  0  0  0  0
148149  1  0  0  0  0
148150  2  0  0  0  0
150151  1  0  0  0  0
150154  1  0  0  0  0
151152  1  0  0  0  0
151153  1  0  0  0  0
151158  1  0  0  0  0
154155  1  0  0  0  0
154156  1  0  0  0  0
154157  1  0  0  0  0
158159  1  0  0  0  0
158160  1  0  0  0  0
158161  1  0  0  0  0
161162  1  0  0  0  0
161163  2  0  0  0  0
163164  1  0  0  0  0
163167  1  0  0  0  0
164165  1  0  0  0  0
164166  1  0  0  0  0
164171  1  0  0  0  0
167168  1  0  0  0  0
167169  1  0  0  0  0
167170  1  0  0  0  0
171172  1  0  0  0  0
171173  1  0  0  0  0
171174  1  0  0  0  0
174175  1  0  0  0  0
174176  2  0  0  0  0
176177  1  0  0  0  0
176181  1  0  0  0  0
177178  1  0  0  0  0
177179  1  0  0  0  0
177180  1  0  0  0  0
181182  1  0  0  0  0
181183  1  0  0  0  0
181184  1  0  0  0  0
185186  1  0  0  0  0
185187  1  0  0  0  0
185189  1  0  0  0  0
185196  1  0  0  0  0
187188  1  0  0  0  0
187190  1  0  0  0  0
187197  1  0  0  0  0
189192  1  0  0  0  0
190191  1  0  0  0  0
190194  1  0  0  0  0
190199  1  0  0  0  0
192193  1  0  0  0  0
192194  1  0  0  0  0
192201  1  0  0  0  0
194195  1  0  0  0  0
196210  1  0  0  0  0
197198  1  0  0  0  0
199200  1  0  0  0  0
201202  1  0  0  0  0
201203  1  0  0  0  0
201204  1  0  0  0  0
205206  1  0  0  0  0
205207  1  0  0  0  0
205209  1  0  0  0  0
207208  1  0  0  0  0
207210  1  0  0  0  0
207216  1  0  0  0  0
209212  1  0  0  0  0
210211  1  0  0  0  0
210214  1  0  0  0  0
212213  1  0  0  0  0
212214  1  0  0  0  0
212220  1  0  0  0  0
214215  1  0  0  0  0
214218  1  0  0  0  0
216217  1  0  0  0  0
216225  1  0  0  0  0
218219  1  0  0  0  0
220221  1  0  0  0  0
220222  1  0  0  0  0
220223  1  0  0  0  0
223224  1  0  0  0  0
225226  2  0  0  0  0
225227  1  0  0  0  0
227228  1  0  0  0  0
227229  1  0  0  0  0
227230  1  0  0  0  0
M  BCL ATM C_TeTeTeTe H_S O_Te2Te2TeTe C_TeTeTeTe H_S O_Te2Te2TeTe H_S C_TeTeTeTe H_S O_Te2Te2TeTe H_S C_TeTeTeTe H_S H_S O_Te2Te2TeTe H_S C_TeTeTeTe H_S O_Te2Te2TeTe C_TeTeTeTe H_S C_TeTeTeTe H_S O_Te2Te2TeTe C_TeTeTeTe H_S O_Te2Te2TeTe H_S C_TeTeTeTe H_S O_Te2Te2TeTe H_S C_TeTeTeTe H_S H_S O_Te2Te2TeTe H_S C_TeTeTeTe H_S O_Te2Te2TeTe H_S C_TeTeTeTe H_S O_Te2Te2TeTe O_Tr2TrTrPi2 P_TeTeTeTePi O_Tr2TrTrPi2 O_Te2Te2TeTe O_Tr2Tr2TrPi P_TeTeTeTePi O_Tr2TrTrPi2 O_Te2Te2TeTe O_Tr2Tr2TrPi C_TeTeTeTe H_S H_S C_TrTrTrPi H_S C_TrTrTrPi C_TeTeTeTe H_S H_S H_S C_TeTeTeTe H_S H_S C_TeTeTeTe H_S H_S C_TrTrTrPi H_S C_TrTrTrPi C_TeTeTeTe H_S H_S H_S C_TeTeTeTe H_S H_S C_TeTeTeTe H_S H_S C_TrTrTrPi H_S C_TrTrTrPi C_TeTeTeTe H_S H_S C_TeTeTeTe H_S H_S H_S C_TeTeTeTe H_S H_S C_TrTrTrPi H_S C_TrTrTrPi C_TeTeTeTe H_S H_S C_TeTeTeTe H_S H_S H_S C_TeTeTeTe H_S H_S C_TrTrTrPi H_S C_TrTrTrPi C_TeTeTeTe H_S H_S C_TeTeTeTe H_S H_S H_S C_TeTeTeTe H_S H_S C_TrTrTrPi H_S C_TrTrTrPi C_TeTeTeTe H_S H_S C_TeTeTeTe H_S H_S H_S C_TeTeTeTe H_S H_S C_TrTrTrPi H_S C_TrTrTrPi C_TeTeTeTe H_S H_S C_TeTeTeTe H_S H_S H_S C_TeTeTeTe H_S H_S C_TrTrTrPi H_S C_TrTrTrPi C_TeTeTeTe H_S H_S C_TeTeTeTe H_S H_S H_S C_TeTeTeTe H_S H_S C_TrTrTrPi H_S C_TrTrTrPi C_TeTeTeTe H_S H_S C_TeTeTeTe H_S H_S H_S C_TeTeTeTe H_S H_S C_TrTrTrPi H_S C_TrTrTrPi C_TeTeTeTe H_S H_S H_S C_TeTeTeTe H_S H_S H_S C_TeTeTeTe H_S C_TeTeTeTe H_S O_Te2Te2TeTe C_TeTeTeTe H_S C_TeTeTeTe H_S C_TeTeTeTe H_S O_Te2Te2TeTe O_Te2Te2TeTe H_S O_Te2Te2TeTe H_S C_TeTeTeTe H_S H_S H_S C_TeTeTeTe H_S C_TeTeTeTe H_S O_Te2Te2TeTe C_TeTeTeTe H_S C_TeTeTeTe H_S C_TeTeTeTe H_S N_TrTrTrPi2 H_S O_Te2Te2TeTe H_S C_TeTeTeTe H_S H_S O_Te2Te2TeTe H_S C_TrTrTrPi O_Tr2Tr2TrPi C_TeTeTeTe H_S H_S H_S
M  BCL BND NonConjugatedSingleBond NonConjugatedSingleBondInRing NonConjugatedSingleBondInRing NonConjugatedSingleBond NonConjugatedSingleBondInRing NonConjugatedSingleBond NonConjugatedSingleBond NonConjugatedSingleBondInRing NonConjugatedSingleBond NonConjugatedSingleBond NonConjugatedSingleBond NonConjugatedSingleBondInRing NonConjugatedSingleBond NonConjugatedSingleBond NonConjugatedSingleBond NonConjugatedSingleBond NonConjugatedSingleBond NonConjugatedSingleBond NonConjugatedSingleBond NonConjugatedSingleBond NonConjugatedSingleBond NonConjugatedSingleBond NonConjugatedSingleBond NonConjugatedSingleBond NonConjugatedSingleBondInRing NonConjugatedSingleBondInRing NonConjugatedSingleBondInRing NonConjugatedSingleBond NonConjugatedSingleBond NonConjugatedSingleBondInRing NonConjugatedSingleBond NonConjugatedSingleBond NonConjugatedSingleBond NonConjugatedSingleBondInRing NonConjugatedSingleBond NonConjugatedSingleBond NonConjugatedSingleBond NonConjugatedSingleBond NonConjugatedSingleBond NonConjugatedSingleBond NonConjugatedSingleBond NonConjugatedSingleBond NonConjugatedSingleBond NonConjugatedSingleBond NonConjugatedSingleBond NonConjugatedSingleBond ConjugatedSingleBond NonConjugatedSingleBond ConjugatedSingleBond ConjugatedSingleBond ConjugatedDoubleBond ConjugatedSingleBond ConjugatedSingleBond ConjugatedSingleBond ConjugatedDoubleBond NonConjugatedSingleBond NonConjugatedSingleBond NonConjugatedSingleBond NonConjugatedSingleBond NonConjugatedSingleBond ConjugatedDoubleBond NonConjugatedSingleBond NonConjugatedSingleBond NonConjugatedSingleBond NonConjugatedSingleBond NonConjugatedSingleBond NonConjugatedSingleBond NonConjugatedSingleBond NonConjugatedSingleBond NonConjugatedSingleBond NonConjugatedSingleBond NonConjugatedSingleBond NonConjugatedSingleBond ConjugatedDoubleBond NonConjugatedSingleBond NonConjugatedSingleBond NonConjugatedSingleBond NonConjugatedSingleBond NonConjugatedSingleBond NonConjugatedSingleBond NonConjugatedSingleBond NonConjugatedSingleBond NonConjugatedSingleBond NonConjugatedSingleBond NonConjugatedSingleBond NonConjugatedSingleBond ConjugatedDoubleBond NonConjugatedSingleBond NonConjugatedSingleBond NonConjugatedSingleBond NonConjugatedSingleBond NonConjugatedSingleBond NonConjugatedSingleBond NonConjugatedSingleBond NonConjugatedSingleBond NonConjugatedSingleBond NonConjugatedSingleBond NonConjugatedSingleBond NonConjugatedSingleBond ConjugatedDoubleBond NonConjugatedSingleBond NonConjugatedSingleBond NonConjugatedSingleBond NonConjugatedSingleBond NonConjugatedSingleBond NonConjugatedSingleBond NonConjugatedSingleBond NonConjugatedSingleBond NonConjugatedSingleBond NonConjugatedSingleBond NonConjugatedSingleBond NonConjugatedSingleBond ConjugatedDoubleBond NonConjugatedSingleBond NonConjugatedSingleBond NonConjugatedSingleBond NonConjugatedSingleBond NonConjugatedSingleBond NonConjugatedSingleBond NonConjugatedSingleBond NonConjugatedSingleBond NonConjugatedSingleBond NonConjugatedSingleBond NonConjugatedSingleBond NonConjugatedSingleBond ConjugatedDoubleBond NonConjugatedSingleBond NonConjugatedSingleBond NonConjugatedSingleBond NonConjugatedSingleBond NonConjugatedSingleBond NonConjugatedSingleBond NonConjugatedSingleBond NonConjugatedSingleBond NonConjugatedSingleBond NonConjugatedSingleBond NonConjugatedSingleBond NonConjugatedSingleBond ConjugatedDoubleBond NonConjugatedSingleBond NonConjugatedSingleBond NonConjugatedSingleBond NonConjugatedSingleBond NonConjugatedSingleBond NonConjugatedSingleBond NonConjugatedSingleBond NonConjugatedSingleBond NonConjugatedSingleBond NonConjugatedSingleBond NonConjugatedSingleBond NonConjugatedSingleBond ConjugatedDoubleBond NonConjugatedSingleBond NonConjugatedSingleBond NonConjugatedSingleBond NonConjugatedSingleBond NonConjugatedSingleBond NonConjugatedSingleBond NonConjugatedSingleBond NonConjugatedSingleBond NonConjugatedSingleBond NonConjugatedSingleBond NonConjugatedSingleBond NonConjugatedSingleBond ConjugatedDoubleBond NonConjugatedSingleBond NonConjugatedSingleBond NonConjugatedSingleBond NonConjugatedSingleBond NonConjugatedSingleBond NonConjugatedSingleBond NonConjugatedSingleBond NonConjugatedSingleBond NonConjugatedSingleBond NonConjugatedSingleBond NonConjugatedSingleBond NonConjugatedSingleBond ConjugatedDoubleBond NonConjugatedSingleBond NonConjugatedSingleBond NonConjugatedSingleBond NonConjugatedSingleBond NonConjugatedSingleBond NonConjugatedSingleBond NonConjugatedSingleBond NonConjugatedSingleBond NonConjugatedSingleBond NonConjugatedSingleBondInRing NonConjugatedSingleBondInRing NonConjugatedSingleBond NonConjugatedSingleBond NonConjugatedSingleBondInRing NonConjugatedSingleBond NonConjugatedSingleBondInRing NonConjugatedSingleBond NonConjugatedSingleBondInRing NonConjugatedSingleBond NonConjugatedSingleBond NonConjugatedSingleBondInRing NonConjugatedSingleBond NonConjugatedSingleBond NonConjugatedSingleBond NonConjugatedSingleBond NonConjugatedSingleBond NonConjugatedSingleBond NonConjugatedSingleBond NonConjugatedSingleBond NonConjugatedSingleBond NonConjugatedSingleBondInRing NonConjugatedSingleBondInRing NonConjugatedSingleBond NonConjugatedSingleBondInRing NonConjugatedSingleBond NonConjugatedSingleBondInRing NonConjugatedSingleBond NonConjugatedSingleBondInRing NonConjugatedSingleBond NonConjugatedSingleBondInRing NonConjugatedSingleBond NonConjugatedSingleBond NonConjugatedSingleBond NonConjugatedSingleBond AmideSingleBond NonConjugatedSingleBond NonConjugatedSingleBond NonConjugatedSingleBond NonConjugatedSingleBond NonConjugatedSingleBond ConjugatedDoubleBond NonConjugatedSingleBond NonConjugatedSingleBond NonConjugatedSingleBond NonConjugatedSingleBond
M  BCL CHI   1   R   4   R   8   R  17   S  20   R  22   S  25   R  29   S  38   S  42   R  46   R  50   S 185   R 187   S 190   S 192   R 194   R 205   R 207   S 210   R 212   S 214   S
M  BCL DBI - - E E E E E E E E Z - -
M  END
> <ConfClashScore>
0.0153015 

> <ConfOneFourInteractionScore>
-0.969643 

> <ConfScore>
1.64148 

> <ConfScorePBest>
0.00747648 

> <ConfTolerance>
4.23413 

$$$$
L05.****
  PyMOL2.5          3D                             0

230233  0  0  0  0  0  0  0  0999 V2000
   12.1227   -3.7653   -3.1842 C   0  0  0  1  0  0  0  0  0  0  0  0
   12.1972   -4.8090   -2.9602 H   0  0  0  1  0  0  0  0  0  0  0  0
   11.9808   -3.5625   -4.5640 O   0  0  0  1  0  0  0  0  0  0  0  0
   10.8430   -3.1693   -2.5802 C   0  0  0  1  0  0  0  0  0  0  0  0
   11.0088   -2.8360   -1.5771 H   0  0  0  1  0  0  0  0  0  0  0  0
    9.7753   -4.1180   -2.5971 O   0  0  0  1  0  0  0  0  0  0  0  0
    9.0457   -3.7702   -3.1152 H   0  0  0  1  0  0  0  0  0  0  0  0
   10.5535   -2.0097   -3.4968 C   0  0  0  1  0  0  0  0  0  0  0  0
    9.5075   -1.7851   -3.5130 H   0  0  0  1  0  0  0  0  0  0  0  0
   11.2845   -0.8483   -3.1002 O   0  0  0  1  0  0  0  0  0  0  0  0
   10.9016   -0.0717   -3.5148 H   0  0  0  1  0  0  0  0  0  0  0  0
   10.2944   -3.7273   -6.9631 C   0  0  0  1  0  0  0  0  0  0  0  0
   11.0281   -4.4779   -6.7553 H   0  0  0  1  0  0  0  0  0  0  0  0
    9.4474   -4.1775   -7.4373 H   0  0  0  1  0  0  0  0  0  0  0  0
   10.8534   -2.7464   -7.8267 O   0  0  0  1  0  0  0  0  0  0  0  0
   11.7861   -2.6377   -7.6270 H   0  0  0  1  0  0  0  0  0  0  0  0
    9.8568   -3.0739   -5.6611 C   0  0  0  1  0  0  0  0  0  0  0  0
    9.3549   -3.8065   -5.0642 H   0  0  0  1  0  0  0  0  0  0  0  0
    8.9539   -2.0300   -6.0069 O   0  0  0  1  0  0  0  0  0  0  0  0
   11.0276   -2.5175   -4.8618 C   0  0  0  1  0  0  0  0  0  0  0  0
   11.4948   -1.7293   -5.4143 H   0  0  0  1  0  0  0  0  0  0  0  0
    7.8759   -1.9431   -5.0882 C   0  0  0  1  0  0  0  0  0  0  0  0
    7.7840   -2.8673   -4.5569 H   0  0  0  1  0  0  0  0  0  0  0  0
    8.0886   -0.8504   -4.1645 O   0  0  0  1  0  0  0  0  0  0  0  0
    6.6053   -1.6280   -5.8064 C   0  0  0  1  0  0  0  0  0  0  0  0
    5.8787   -2.3960   -5.6416 H   0  0  0  1  0  0  0  0  0  0  0  0
    6.8391   -1.4885   -7.1969 O   0  0  0  1  0  0  0  0  0  0  0  0
    6.1249   -0.9837   -7.5928 H   0  0  0  1  0  0  0  0  0  0  0  0
    6.1541   -0.3549   -5.2266 C   0  0  0  1  0  0  0  0  0  0  0  0
    5.0870   -0.3036   -5.1664 H   0  0  0  1  0  0  0  0  0  0  0  0
    6.6431    0.7623   -5.9630 O   0  0  0  1  0  0  0  0  0  0  0  0
    7.0475    0.4566   -6.7782 H   0  0  0  1  0  0  0  0  0  0  0  0
    6.6440   -1.6773   -1.5688 C   0  0  0  1  0  0  0  0  0  0  0  0
    7.6588   -2.0060   -1.6537 H   0  0  0  1  0  0  0  0  0  0  0  0
    6.6139   -0.7406   -1.0526 H   0  0  0  1  0  0  0  0  0  0  0  0
    5.9322   -2.6325   -0.7953 O   0  0  0  1  0  0  0  0  0  0  0  0
    6.5179   -3.3566   -0.5621 H   0  0  0  1  0  0  0  0  0  0  0  0
    6.0932   -1.4628   -2.9779 C   0  0  0  1  0  0  0  0  0  0  0  0
    5.1154   -1.0590   -2.8175 H   0  0  0  1  0  0  0  0  0  0  0  0
    5.8852   -2.6912   -3.6422 O   0  0  0  1  0  0  0  0  0  0  0  0
    6.5729   -3.3120   -3.3907 H   0  0  0  1  0  0  0  0  0  0  0  0
    6.7934   -0.4437   -3.8453 C   0  0  0  1  0  0  0  0  0  0  0  0
    6.7923    0.5060   -3.3524 H   0  0  0  1  0  0  0  0  0  0  0  0
   13.2744   -3.0904   -2.6914 O   0  0  0  1  0  0  0  0  0  0  0  0
   22.0852   -5.1869    3.5422 O   0  0  0  1  0  0  0  0  0  0  0  0
   20.7295   -5.7483    2.9508 P   0  0  0  1  0  0  0  0  0  0  0  0
   20.5479   -5.0639    1.4962 O   0  0  0  1  0  0  0  0  0  0  0  0
   19.6667   -5.4807    3.9414 O   0  0  0  0  0  0  0  0  0  0  0  0
   20.8461   -7.2072    2.6696 O   0  0  0  1  0  0  0  0  0  0  0  0
   21.5557   -5.3696    0.2722 P   0  0  0  1  0  0  0  0  0  0  0  0
   21.0257   -4.3590   -0.8242 O   0  0  0  1  0  0  0  0  0  0  0  0
   21.3661   -6.7769   -0.1589 O   0  0  0  0  0  0  0  0  0  0  0  0
   22.8999   -4.9234    0.6401 O   0  0  0  1  0  0  0  0  0  0  0  0
   22.5581   -5.7074    4.8080 C   0  0  0  1  0  0  0  0  0  0  0  0
   22.6025   -6.7762    4.7824 H   0  0  0  1  0  0  0  0  0  0  0  0
   21.9173   -5.3956    5.6061 H   0  0  0  1  0  0  0  0  0  0  0  0
   23.9329   -5.1255    4.9763 C   0  0  0  1  0  0  0  0  0  0  0  0
   24.5558   -5.1139    4.1435 H   0  0  0  1  0  0  0  0  0  0  0  0
   24.4130   -4.6238    6.1114 C   0  0  0  1  0  0  0  0  0  0  0  0
   25.7988   -4.0157    6.2349 C   0  0  0  1  0  0  0  0  0  0  0  0
   25.7135   -2.9861    6.5132 H   0  0  0  1  0  0  0  0  0  0  0  0
   26.3056   -4.0902    5.2955 H   0  0  0  1  0  0  0  0  0  0  0  0
   26.3537   -4.5424    6.9829 H   0  0  0  1  0  0  0  0  0  0  0  0
   23.6134   -4.7362    7.3803 C   0  0  0  1  0  0  0  0  0  0  0  0
   22.6393   -5.1062    7.1373 H   0  0  0  1  0  0  0  0  0  0  0  0
   23.5273   -3.7627    7.8159 H   0  0  0  1  0  0  0  0  0  0  0  0
   24.2445   -5.6689    8.4011 C   0  0  0  1  0  0  0  0  0  0  0  0
   25.1754   -5.2402    8.7087 H   0  0  0  1  0  0  0  0  0  0  0  0
   24.4249   -6.6087    7.9223 H   0  0  0  1  0  0  0  0  0  0  0  0
   23.4221   -5.9266    9.6343 C   0  0  0  1  0  0  0  0  0  0  0  0
   23.0893   -6.8985    9.7964 H   0  0  0  1  0  0  0  0  0  0  0  0
   23.0892   -5.0050   10.5318 C   0  0  0  1  0  0  0  0  0  0  0  0
   22.0183   -5.1987   11.5678 C   0  0  0  1  0  0  0  0  0  0  0  0
   21.1769   -5.6889   11.1244 H   0  0  0  1  0  0  0  0  0  0  0  0
   21.7155   -4.2462   11.9498 H   0  0  0  1  0  0  0  0  0  0  0  0
   22.4001   -5.7991   12.3670 H   0  0  0  1  0  0  0  0  0  0  0  0
   23.7741   -3.6710   10.5783 C   0  0  0  1  0  0  0  0  0  0  0  0
   24.5309   -3.6502    9.8222 H   0  0  0  1  0  0  0  0  0  0  0  0
   24.2274   -3.5543   11.5406 H   0  0  0  1  0  0  0  0  0  0  0  0
   22.8256   -2.5063   10.3458 C   0  0  0  1  0  0  0  0  0  0  0  0
   22.2963   -2.3246   11.2578 H   0  0  0  1  0  0  0  0  0  0  0  0
   22.1332   -2.7919    9.5818 H   0  0  0  1  0  0  0  0  0  0  0  0
   23.4775   -1.2185    9.9233 C   0  0  0  1  0  0  0  0  0  0  0  0
   24.2184   -0.8290   10.5405 H   0  0  0  1  0  0  0  0  0  0  0  0
   23.1832   -0.5543    8.8414 C   0  0  0  1  0  0  0  0  0  0  0  0
   22.3967   -1.1213    7.7128 C   0  0  0  1  0  0  0  0  0  0  0  0
   22.2705   -2.1708    7.8790 H   0  0  0  1  0  0  0  0  0  0  0  0
   22.9425   -0.9665    6.8056 H   0  0  0  1  0  0  0  0  0  0  0  0
   23.6448    0.9274    8.6390 C   0  0  0  1  0  0  0  0  0  0  0  0
   24.5631    0.9436    8.0901 H   0  0  0  1  0  0  0  0  0  0  0  0
   23.7918    1.3884    9.5934 H   0  0  0  1  0  0  0  0  0  0  0  0
   22.8950    1.4632    8.0952 H   0  0  0  1  0  0  0  0  0  0  0  0
   21.0236   -0.4863    7.5657 C   0  0  0  1  0  0  0  0  0  0  0  0
   20.5172   -0.9776    6.7613 H   0  0  0  1  0  0  0  0  0  0  0  0
   21.1619    0.5466    7.3228 H   0  0  0  1  0  0  0  0  0  0  0  0
   20.1489   -0.5624    8.7766 C   0  0  0  1  0  0  0  0  0  0  0  0
   19.9537   -1.5048    9.1708 H   0  0  0  1  0  0  0  0  0  0  0  0
   19.6026    0.4843    9.3863 C   0  0  0  1  0  0  0  0  0  0  0  0
   19.5157    1.8563    8.7732 C   0  0  0  1  0  0  0  0  0  0  0  0
   20.4216    2.3779    9.0016 H   0  0  0  1  0  0  0  0  0  0  0  0
   18.6878    2.3658    9.2203 H   0  0  0  1  0  0  0  0  0  0  0  0
   19.0180    0.3736   10.7639 C   0  0  0  1  0  0  0  0  0  0  0  0
   17.9502    0.3517   10.6981 H   0  0  0  1  0  0  0  0  0  0  0  0
   19.3218    1.2165   11.3489 H   0  0  0  1  0  0  0  0  0  0  0  0
   19.3650   -0.5264   11.2272 H   0  0  0  1  0  0  0  0  0  0  0  0
   19.3253    1.8854    7.2655 C   0  0  0  1  0  0  0  0  0  0  0  0
   18.5051    1.2461    7.0134 H   0  0  0  1  0  0  0  0  0  0  0  0
   20.2181    1.5202    6.8024 H   0  0  0  1  0  0  0  0  0  0  0  0
   19.0394    3.2630    6.7342 C   0  0  0  1  0  0  0  0  0  0  0  0
   18.7476    3.9912    7.4170 H   0  0  0  1  0  0  0  0  0  0  0  0
   19.1318    3.6192    5.4574 C   0  0  0  1  0  0  0  0  0  0  0  0
   19.2203    2.6394    4.3236 C   0  0  0  1  0  0  0  0  0  0  0  0
   18.4153    2.8180    3.6418 H   0  0  0  1  0  0  0  0  0  0  0  0
   19.1452    1.6453    4.7124 H   0  0  0  1  0  0  0  0  0  0  0  0
   19.1550    5.0638    5.0437 C   0  0  0  1  0  0  0  0  0  0  0  0
   19.0999    5.6852    5.9130 H   0  0  0  1  0  0  0  0  0  0  0  0
   18.3187    5.2658    4.4075 H   0  0  0  1  0  0  0  0  0  0  0  0
   20.0630    5.2688    4.5160 H   0  0  0  1  0  0  0  0  0  0  0  0
   20.5407    2.7873    3.5854 C   0  0  0  1  0  0  0  0  0  0  0  0
   21.3139    2.8527    4.3221 H   0  0  0  1  0  0  0  0  0  0  0  0
   20.4971    3.7017    3.0313 H   0  0  0  1  0  0  0  0  0  0  0  0
   20.9265    1.6957    2.6233 C   0  0  0  1  0  0  0  0  0  0  0  0
   20.8397    0.7125    2.9511 H   0  0  0  1  0  0  0  0  0  0  0  0
   21.3693    1.8944    1.3876 C   0  0  0  1  0  0  0  0  0  0  0  0
   21.8408    3.2473    0.9346 C   0  0  0  1  0  0  0  0  0  0  0  0
   21.3901    3.9912    1.5577 H   0  0  0  1  0  0  0  0  0  0  0  0
   21.5304    3.3944   -0.0788 H   0  0  0  1  0  0  0  0  0  0  0  0
   21.4443    0.8193    0.3402 C   0  0  0  1  0  0  0  0  0  0  0  0
   21.1623   -0.1189    0.7707 H   0  0  0  1  0  0  0  0  0  0  0  0
   22.4451    0.7539   -0.0325 H   0  0  0  1  0  0  0  0  0  0  0  0
   20.7787    1.0572   -0.4631 H   0  0  0  1  0  0  0  0  0  0  0  0
   23.3507    3.4063    1.0061 C   0  0  0  1  0  0  0  0  0  0  0  0
   23.8039    2.6028    0.4640 H   0  0  0  1  0  0  0  0  0  0  0  0
   23.6500    3.3583    2.0323 H   0  0  0  1  0  0  0  0  0  0  0  0
   23.8342    4.7073    0.4267 C   0  0  0  1  0  0  0  0  0  0  0  0
   23.5655    5.5829    0.9195 H   0  0  0  1  0  0  0  0  0  0  0  0
   24.5855    4.8225   -0.6773 C   0  0  0  1  0  0  0  0  0  0  0  0
   24.7690    3.6942   -1.6548 C   0  0  0  1  0  0  0  0  0  0  0  0
   23.8024    3.4078   -2.0135 H   0  0  0  1  0  0  0  0  0  0  0  0
   25.2136    2.8734   -1.1318 H   0  0  0  1  0  0  0  0  0  0  0  0
   25.2727    6.1306   -0.9508 C   0  0  0  1  0  0  0  0  0  0  0  0
   26.2086    5.9478   -1.4364 H   0  0  0  1  0  0  0  0  0  0  0  0
   25.4444    6.6430   -0.0273 H   0  0  0  1  0  0  0  0  0  0  0  0
   24.6545    6.7326   -1.5836 H   0  0  0  1  0  0  0  0  0  0  0  0
   25.6411    4.0107   -2.8589 C   0  0  0  1  0  0  0  0  0  0  0  0
   26.5819    4.3819   -2.5098 H   0  0  0  1  0  0  0  0  0  0  0  0
   25.1546    4.7636   -3.4432 H   0  0  0  1  0  0  0  0  0  0  0  0
   25.8938    2.8130   -3.7350 C   0  0  0  1  0  0  0  0  0  0  0  0
   26.2446    1.9569   -3.2600 H   0  0  0  1  0  0  0  0  0  0  0  0
   25.7174    2.7310   -5.0483 C   0  0  0  1  0  0  0  0  0  0  0  0
   25.5388    3.9621   -5.8911 C   0  0  0  1  0  0  0  0  0  0  0  0
   26.4152    4.5687   -5.7978 H   0  0  0  1  0  0  0  0  0  0  0  0
   24.6898    4.5029   -5.5283 H   0  0  0  1  0  0  0  0  0  0  0  0
   25.6786    1.4381   -5.8092 C   0  0  0  1  0  0  0  0  0  0  0  0
   24.6712    1.2249   -6.1000 H   0  0  0  1  0  0  0  0  0  0  0  0
   26.0451    0.6478   -5.1880 H   0  0  0  1  0  0  0  0  0  0  0  0
   26.2918    1.5198   -6.6822 H   0  0  0  1  0  0  0  0  0  0  0  0
   25.3209    3.6498   -7.3626 C   0  0  0  1  0  0  0  0  0  0  0  0
   24.3734    3.1647   -7.4712 H   0  0  0  1  0  0  0  0  0  0  0  0
   26.0986    2.9918   -7.6899 H   0  0  0  1  0  0  0  0  0  0  0  0
   25.3335    4.8772   -8.2340 C   0  0  0  1  0  0  0  0  0  0  0  0
   24.4282    5.3772   -8.3437 H   0  0  0  1  0  0  0  0  0  0  0  0
   26.3749    5.3907   -8.8777 C   0  0  0  1  0  0  0  0  0  0  0  0
   26.2149    6.5575   -9.8308 C   0  0  0  1  0  0  0  0  0  0  0  0
   27.1781    6.9402  -10.0967 H   0  0  0  1  0  0  0  0  0  0  0  0
   25.6408    7.3293   -9.3623 H   0  0  0  1  0  0  0  0  0  0  0  0
   27.7826    4.8845   -8.7342 C   0  0  0  1  0  0  0  0  0  0  0  0
   27.9045    4.6697   -7.6931 H   0  0  0  1  0  0  0  0  0  0  0  0
   28.4822    5.6317   -9.0461 H   0  0  0  1  0  0  0  0  0  0  0  0
   27.9226    3.9985   -9.3175 H   0  0  0  1  0  0  0  0  0  0  0  0
   25.4957    6.0700  -11.0780 C   0  0  0  1  0  0  0  0  0  0  0  0
   25.9013    5.1237  -11.3695 H   0  0  0  1  0  0  0  0  0  0  0  0
   25.6407    6.7788  -11.8663 H   0  0  0  1  0  0  0  0  0  0  0  0
   24.0305    5.9168  -10.8195 C   0  0  0  1  0  0  0  0  0  0  0  0
   23.7414    5.2767  -10.0525 H   0  0  0  1  0  0  0  0  0  0  0  0
   23.0695    6.5383  -11.4974 C   0  0  0  1  0  0  0  0  0  0  0  0
   23.2820    7.5467  -12.5888 C   0  0  0  1  0  0  0  0  0  0  0  0
   23.8186    8.3867  -12.1994 H   0  0  0  1  0  0  0  0  0  0  0  0
   22.3339    7.8719  -12.9631 H   0  0  0  1  0  0  0  0  0  0  0  0
   23.8452    7.1005  -13.3816 H   0  0  0  1  0  0  0  0  0  0  0  0
   21.6256    6.2365  -11.1776 C   0  0  0  1  0  0  0  0  0  0  0  0
   21.4464    6.5602  -10.1736 H   0  0  0  1  0  0  0  0  0  0  0  0
   21.4446    5.1852  -11.2607 H   0  0  0  1  0  0  0  0  0  0  0  0
   20.9837    6.7639  -11.8519 H   0  0  0  1  0  0  0  0  0  0  0  0
   15.9305   -5.1048   -1.5036 C   0  0  0  1  0  0  0  0  0  0  0  0
   16.0461   -5.6283   -0.5776 H   0  0  0  1  0  0  0  0  0  0  0  0
   14.7538   -5.6895   -2.2739 C   0  0  0  1  0  0  0  0  0  0  0  0
   14.9470   -6.7167   -2.5031 H   0  0  0  1  0  0  0  0  0  0  0  0
   15.6875   -3.7207   -1.2413 O   0  0  0  1  0  0  0  0  0  0  0  0
   14.5797   -4.8945   -3.5717 C   0  0  0  1  0  0  0  0  0  0  0  0
   13.6758   -5.2104   -4.0494 H   0  0  0  1  0  0  0  0  0  0  0  0
   15.6530   -2.9355   -2.4432 C   0  0  0  1  0  0  0  0  0  0  0  0
   16.5768   -3.0526   -2.9703 H   0  0  0  1  0  0  0  0  0  0  0  0
   14.5048   -3.3971   -3.3283 C   0  0  0  1  0  0  0  0  0  0  0  0
   14.5583   -2.8861   -4.2669 H   0  0  0  1  0  0  0  0  0  0  0  0
   17.1174   -5.2396   -2.2767 O   0  0  0  1  0  0  0  0  0  0  0  0
   13.5658   -5.5920   -1.4860 O   0  0  0  1  0  0  0  0  0  0  0  0
   12.8406   -6.0220   -1.9451 H   0  0  0  1  0  0  0  0  0  0  0  0
   15.6845   -5.1633   -4.4226 O   0  0  0  1  0  0  0  0  0  0  0  0
   16.2658   -5.8007   -4.0014 H   0  0  0  1  0  0  0  0  0  0  0  0
   15.4572   -1.4819   -2.0863 C   0  0  0  1  0  0  0  0  0  0  0  0
   15.9603   -0.8672   -2.8032 H   0  0  0  1  0  0  0  0  0  0  0  0
   15.8601   -1.2965   -1.1126 H   0  0  0  1  0  0  0  0  0  0  0  0
   14.4123   -1.2516   -2.0902 H   0  0  0  1  0  0  0  0  0  0  0  0
   19.9744   -4.7317   -1.7166 C   0  0  0  1  0  0  0  0  0  0  0  0
   19.5934   -5.6920   -1.4382 H   0  0  0  1  0  0  0  0  0  0  0  0
   18.8521   -3.7015   -1.6277 C   0  0  0  1  0  0  0  0  0  0  0  0
   19.2480   -2.7272   -1.8247 H   0  0  0  1  0  0  0  0  0  0  0  0
   20.4873   -4.7982   -3.0411 O   0  0  0  1  0  0  0  0  0  0  0  0
   17.7694   -4.0258   -2.6548 C   0  0  0  1  0  0  0  0  0  0  0  0
   17.0563   -3.2282   -2.6735 H   0  0  0  1  0  0  0  0  0  0  0  0
   19.5073   -5.2044   -4.0093 C   0  0  0  1  0  0  0  0  0  0  0  0
   19.9628   -5.2543   -4.9763 H   0  0  0  1  0  0  0  0  0  0  0  0
   18.3596   -4.1930   -4.0400 C   0  0  0  1  0  0  0  0  0  0  0  0
   17.5997   -4.5417   -4.7077 H   0  0  0  1  0  0  0  0  0  0  0  0
   18.2703   -3.7306   -0.2817 N   0  0  0  1  0  0  0  0  0  0  0  0
   17.8230   -4.5555    0.0008 H   0  0  0  1  0  0  0  0  0  0  0  0
   18.8541   -2.9331   -4.4966 O   0  0  0  1  0  0  0  0  0  0  0  0
   19.6025   -3.1253   -5.0663 H   0  0  0  1  0  0  0  0  0  0  0  0
   18.9694   -6.5588   -3.6373 C   0  0  0  1  0  0  0  0  0  0  0  0
   18.1060   -6.7615   -4.2359 H   0  0  0  1  0  0  0  0  0  0  0  0
   18.6927   -6.5462   -2.6038 H   0  0  0  1  0  0  0  0  0  0  0  0
   19.9201   -7.5955   -3.8424 O   0  0  0  1  0  0  0  0  0  0  0  0
   20.7203   -7.2028   -4.1989 H   0  0  0  1  0  0  0  0  0  0  0  0
   18.3043   -2.7188    0.5869 C   0  0  0  1  0  0  0  0  0  0  0  0
   18.9625   -1.6965    0.3991 O   0  0  0  1  0  0  0  0  0  0  0  0
   17.4724   -2.8996    1.8417 C   0  0  0  1  0  0  0  0  0  0  0  0
   17.6127   -1.9901    2.3876 H   0  0  0  1  0  0  0  0  0  0  0  0
   17.8195   -3.7384    2.4081 H   0  0  0  1  0  0  0  0  0  0  0  0
   16.4404   -3.0376    1.5950 H   0  0  0  1  0  0  0  0  0  0  0  0
  1  2  1  0  0  0  0
  1  3  1  0  0  0  0
  1  4  1  0  0  0  0
  1 44  1  0  0  0  0
  3 20  1  0  0  0  0
  4  5  1  0  0  0  0
  4  6  1  0  0  0  0
  4  8  1  0  0  0  0
  6  7  1  0  0  0  0
  8  9  1  0  0  0  0
  8 10  1  0  0  0  0
  8 20  1  0  0  0  0
 10 11  1  0  0  0  0
 12 13  1  0  0  0  0
 12 14  1  0  0  0  0
 12 15  1  0  0  0  0
 12 17  1  0  0  0  0
 15 16  1  0  0  0  0
 17 18  1  0  0  0  0
 17 19  1  0  0  0  0
 17 20  1  0  0  0  0
 19 22  1  0  0  0  0
 20 21  1  0  0  0  0
 22 23  1  0  0  0  0
 22 24  1  0  0  0  0
 22 25  1  0  0  0  0
 24 42  1  0  0  0  0
 25 26  1  0  0  0  0
 25 27  1  0  0  0  0
 25 29  1  0  0  0  0
 27 28  1  0  0  0  0
 29 30  1  0  0  0  0
 29 31  1  0  0  0  0
 29 42  1  0  0  0  0
 31 32  1  0  0  0  0
 33 34  1  0  0  0  0
 33 35  1  0  0  0  0
 33 36  1  0  0  0  0
 33 38  1  0  0  0  0
 36 37  1  0  0  0  0
 38 39  1  0  0  0  0
 38 40  1  0  0  0  0
 38 42  1  0  0  0  0
 40 41  1  0  0  0  0
 42 43  1  0  0  0  0
 44194  1  0  0  0  0
 45 46  1  0  0  0  0
 45 54  1  0  0  0  0
 46 47  1  0  0  0  0
 46 48  1  0  0  0  0
 46 49  2  0  0  0  0
 47 50  1  0  0  0  0
 50 51  1  0  0  0  0
 50 52  1  0  0  0  0
 50 53  2  0  0  0  0
 51205  1  0  0  0  0
 54 55  1  0  0  0  0
 54 56  1  0  0  0  0
 54 57  1  0  0  0  0
 57 58  1  0  0  0  0
 57 59  2  0  0  0  0
 59 60  1  0  0  0  0
 59 64  1  0  0  0  0
 60 61  1  0  0  0  0
 60 62  1  0  0  0  0
 60 63  1  0  0  0  0
 64 65  1  0  0  0  0
 64 66  1  0  0  0  0
 64 67  1  0  0  0  0
 67 68  1  0  0  0  0
 67 69  1  0  0  0  0
 67 70  1  0  0  0  0
 70 71  1  0  0  0  0
 70 72  2  0  0  0  0
 72 73  1  0  0  0  0
 72 77  1  0  0  0  0
 73 74  1  0  0  0  0
 73 75  1  0  0  0  0
 73 76  1  0  0  0  0
 77 78  1  0  0  0  0
 77 79  1  0  0  0  0
 77 80  1  0  0  0  0
 80 81  1  0  0  0  0
 80 82  1  0  0  0  0
 80 83  1  0  0  0  0
 83 84  1  0  0  0  0
 83 85  2  0  0  0  0
 85 86  1  0  0  0  0
 85 89  1  0  0  0  0
 86 87  1  0  0  0  0
 86 88  1  0  0  0  0
 86 93  1  0  0  0  0
 89 90  1  0  0  0  0
 89 91  1  0  0  0  0
 89 92  1  0  0  0  0
 93 94  1  0  0  0  0
 93 95  1  0  0  0  0
 93 96  1  0  0  0  0
 96 97  1  0  0  0  0
 96 98  2  0  0  0  0
 98 99  1  0  0  0  0
 98102  1  0  0  0  0
 99100  1  0  0  0  0
 99101  1  0  0  0  0
 99106  1  0  0  0  0
102103  1  0  0  0  0
102104  1  0  0  0  0
102105  1  0  0  0  0
106107  1  0  0  0  0
106108  1  0  0  0  0
106109  1  0  0  0  0
109110  1  0  0  0  0
109111  2  0  0  0  0
111112  1  0  0  0  0
111115  1  0  0  0  0
112113  1  0  0  0  0
112114  1  0  0  0  0
112119  1  0  0  0  0
115116  1  0  0  0  0
115117  1  0  0  0  0
115118  1  0  0  0  0
119120  1  0  0  0  0
119121  1  0  0  0  0
119122  1  0  0  0  0
122123  1  0  0  0  0
122124  2  0  0  0  0
124125  1  0  0  0  0
124128  1  0  0  0  0
125126  1  0  0  0  0
125127  1  0  0  0  0
125132  1  0  0  0  0
128129  1  0  0  0  0
128130  1  0  0  0  0
128131  1  0  0  0  0
132133  1  0  0  0  0
132134  1  0  0  0  0
132135  1  0  0  0  0
135136  1  0  0  0  0
135137  2  0  0  0  0
137138  1  0  0  0  0
137141  1  0  0  0  0
138139  1  0  0  0  0
138140  1  0  0  0  0
138145  1  0  0  0  0
141142  1  0  0  0  0
141143  1  0  0  0  0
141144  1  0  0  0  0
145146  1  0  0  0  0
145147  1  0  0  0  0
145148  1  0  0  0  0
148149  1  0  0  0  0
148150  2  0  0  0  0
150151  1  0  0  0  0
150154  1  0  0  0  0
151152  1  0  0  0  0
151153  1  0  0  0  0
151158  1  0  0  0  0
154155  1  0  0  0  0
154156  1  0  0  0  0
154157  1  0  0  0  0
158159  1  0  0  0  0
158160  1  0  0  0  0
158161  1  0  0  0  0
161162  1  0  0  0  0
161163  2  0  0  0  0
163164  1  0  0  0  0
163167  1  0  0  0  0
164165  1  0  0  0  0
164166  1  0  0  0  0
164171  1  0  0  0  0
167168  1  0  0  0  0
167169  1  0  0  0  0
167170  1  0  0  0  0
171172  1  0  0  0  0
171173  1  0  0  0  0
171174  1  0  0  0  0
174175  1  0  0  0  0
174176  2  0  0  0  0
176177  1  0  0  0  0
176181  1  0  0  0  0
177178  1  0  0  0  0
177179  1  0  0  0  0
177180  1  0  0  0  0
181182  1  0  0  0  0
181183  1  0  0  0  0
181184  1  0  0  0  0
185186  1  0  0  0  0
185187  1  0  0  0  0
185189  1  0  0  0  0
185196  1  0  0  0  0
187188  1  0  0  0  0
187190  1  0  0  0  0
187197  1  0  0  0  0
189192  1  0  0  0  0
190191  1  0  0  0  0
190194  1  0  0  0  0
190199  1  0  0  0  0
192193  1  0  0  0  0
192194  1  0  0  0  0
192201  1  0  0  0  0
194195  1  0  0  0  0
196210  1  0  0  0  0
197198  1  0  0  0  0
199200  1  0  0  0  0
201202  1  0  0  0  0
201203  1  0  0  0  0
201204  1  0  0  0  0
205206  1  0  0  0  0
205207  1  0  0  0  0
205209  1  0  0  0  0
207208  1  0  0  0  0
207210  1  0  0  0  0
207216  1  0  0  0  0
209212  1  0  0  0  0
210211  1  0  0  0  0
210214  1  0  0  0  0
212213  1  0  0  0  0
212214  1  0  0  0  0
212220  1  0  0  0  0
214215  1  0  0  0  0
214218  1  0  0  0  0
216217  1  0  0  0  0
216225  1  0  0  0  0
218219  1  0  0  0  0
220221  1  0  0  0  0
220222  1  0  0  0  0
220223  1  0  0  0  0
223224  1  0  0  0  0
225226  2  0  0  0  0
225227  1  0  0  0  0
227228  1  0  0  0  0
227229  1  0  0  0  0
227230  1  0  0  0  0
M  BCL ATM C_TeTeTeTe H_S O_Te2Te2TeTe C_TeTeTeTe H_S O_Te2Te2TeTe H_S C_TeTeTeTe H_S O_Te2Te2TeTe H_S C_TeTeTeTe H_S H_S O_Te2Te2TeTe H_S C_TeTeTeTe H_S O_Te2Te2TeTe C_TeTeTeTe H_S C_TeTeTeTe H_S O_Te2Te2TeTe C_TeTeTeTe H_S O_Te2Te2TeTe H_S C_TeTeTeTe H_S O_Te2Te2TeTe H_S C_TeTeTeTe H_S H_S O_Te2Te2TeTe H_S C_TeTeTeTe H_S O_Te2Te2TeTe H_S C_TeTeTeTe H_S O_Te2Te2TeTe O_Tr2TrTrPi2 P_TeTeTeTePi O_Tr2TrTrPi2 O_Te2Te2TeTe O_Tr2Tr2TrPi P_TeTeTeTePi O_Tr2TrTrPi2 O_Te2Te2TeTe O_Tr2Tr2TrPi C_TeTeTeTe H_S H_S C_TrTrTrPi H_S C_TrTrTrPi C_TeTeTeTe H_S H_S H_S C_TeTeTeTe H_S H_S C_TeTeTeTe H_S H_S C_TrTrTrPi H_S C_TrTrTrPi C_TeTeTeTe H_S H_S H_S C_TeTeTeTe H_S H_S C_TeTeTeTe H_S H_S C_TrTrTrPi H_S C_TrTrTrPi C_TeTeTeTe H_S H_S C_TeTeTeTe H_S H_S H_S C_TeTeTeTe H_S H_S C_TrTrTrPi H_S C_TrTrTrPi C_TeTeTeTe H_S H_S C_TeTeTeTe H_S H_S H_S C_TeTeTeTe H_S H_S C_TrTrTrPi H_S C_TrTrTrPi C_TeTeTeTe H_S H_S C_TeTeTeTe H_S H_S H_S C_TeTeTeTe H_S H_S C_TrTrTrPi H_S C_TrTrTrPi C_TeTeTeTe H_S H_S C_TeTeTeTe H_S H_S H_S C_TeTeTeTe H_S H_S C_TrTrTrPi H_S C_TrTrTrPi C_TeTeTeTe H_S H_S C_TeTeTeTe H_S H_S H_S C_TeTeTeTe H_S H_S C_TrTrTrPi H_S C_TrTrTrPi C_TeTeTeTe H_S H_S C_TeTeTeTe H_S H_S H_S C_TeTeTeTe H_S H_S C_TrTrTrPi H_S C_TrTrTrPi C_TeTeTeTe H_S H_S C_TeTeTeTe H_S H_S H_S C_TeTeTeTe H_S H_S C_TrTrTrPi H_S C_TrTrTrPi C_TeTeTeTe H_S H_S H_S C_TeTeTeTe H_S H_S H_S C_TeTeTeTe H_S C_TeTeTeTe H_S O_Te2Te2TeTe C_TeTeTeTe H_S C_TeTeTeTe H_S C_TeTeTeTe H_S O_Te2Te2TeTe O_Te2Te2TeTe H_S O_Te2Te2TeTe H_S C_TeTeTeTe H_S H_S H_S C_TeTeTeTe H_S C_TeTeTeTe H_S O_Te2Te2TeTe C_TeTeTeTe H_S C_TeTeTeTe H_S C_TeTeTeTe H_S N_TrTrTrPi2 H_S O_Te2Te2TeTe H_S C_TeTeTeTe H_S H_S O_Te2Te2TeTe H_S C_TrTrTrPi O_Tr2Tr2TrPi C_TeTeTeTe H_S H_S H_S
M  BCL BND NonConjugatedSingleBond NonConjugatedSingleBondInRing NonConjugatedSingleBondInRing NonConjugatedSingleBond NonConjugatedSingleBondInRing NonConjugatedSingleBond NonConjugatedSingleBond NonConjugatedSingleBondInRing NonConjugatedSingleBond NonConjugatedSingleBond NonConjugatedSingleBond NonConjugatedSingleBondInRing NonConjugatedSingleBond NonConjugatedSingleBond NonConjugatedSingleBond NonConjugatedSingleBond NonConjugatedSingleBond NonConjugatedSingleBond NonConjugatedSingleBond NonConjugatedSingleBond NonConjugatedSingleBond NonConjugatedSingleBond NonConjugatedSingleBond NonConjugatedSingleBond NonConjugatedSingleBondInRing NonConjugatedSingleBondInRing NonConjugatedSingleBondInRing NonConjugatedSingleBond NonConjugatedSingleBond NonConjugatedSingleBondInRing NonConjugatedSingleBond NonConjugatedSingleBond NonConjugatedSingleBond NonConjugatedSingleBondInRing NonConjugatedSingleBond NonConjugatedSingleBond NonConjugatedSingleBond NonConjugatedSingleBond NonConjugatedSingleBond NonConjugatedSingleBond NonConjugatedSingleBond NonConjugatedSingleBond NonConjugatedSingleBond NonConjugatedSingleBond NonConjugatedSingleBond NonConjugatedSingleBond ConjugatedSingleBond NonConjugatedSingleBond ConjugatedSingleBond ConjugatedSingleBond ConjugatedDoubleBond ConjugatedSingleBond ConjugatedSingleBond ConjugatedSingleBond ConjugatedDoubleBond NonConjugatedSingleBond NonConjugatedSingleBond NonConjugatedSingleBond NonConjugatedSingleBond NonConjugatedSingleBond ConjugatedDoubleBond NonConjugatedSingleBond NonConjugatedSingleBond NonConjugatedSingleBond NonConjugatedSingleBond NonConjugatedSingleBond NonConjugatedSingleBond NonConjugatedSingleBond NonConjugatedSingleBond NonConjugatedSingleBond NonConjugatedSingleBond NonConjugatedSingleBond NonConjugatedSingleBond ConjugatedDoubleBond NonConjugatedSingleBond NonConjugatedSingleBond NonConjugatedSingleBond NonConjugatedSingleBond NonConjugatedSingleBond NonConjugatedSingleBond NonConjugatedSingleBond NonConjugatedSingleBond NonConjugatedSingleBond NonConjugatedSingleBond NonConjugatedSingleBond NonConjugatedSingleBond ConjugatedDoubleBond NonConjugatedSingleBond NonConjugatedSingleBond NonConjugatedSingleBond NonConjugatedSingleBond NonConjugatedSingleBond NonConjugatedSingleBond NonConjugatedSingleBond NonConjugatedSingleBond NonConjugatedSingleBond NonConjugatedSingleBond NonConjugatedSingleBond NonConjugatedSingleBond ConjugatedDoubleBond NonConjugatedSingleBond NonConjugatedSingleBond NonConjugatedSingleBond NonConjugatedSingleBond NonConjugatedSingleBond NonConjugatedSingleBond NonConjugatedSingleBond NonConjugatedSingleBond NonConjugatedSingleBond NonConjugatedSingleBond NonConjugatedSingleBond NonConjugatedSingleBond ConjugatedDoubleBond NonConjugatedSingleBond NonConjugatedSingleBond NonConjugatedSingleBond NonConjugatedSingleBond NonConjugatedSingleBond NonConjugatedSingleBond NonConjugatedSingleBond NonConjugatedSingleBond NonConjugatedSingleBond NonConjugatedSingleBond NonConjugatedSingleBond NonConjugatedSingleBond ConjugatedDoubleBond NonConjugatedSingleBond NonConjugatedSingleBond NonConjugatedSingleBond NonConjugatedSingleBond NonConjugatedSingleBond NonConjugatedSingleBond NonConjugatedSingleBond NonConjugatedSingleBond NonConjugatedSingleBond NonConjugatedSingleBond NonConjugatedSingleBond NonConjugatedSingleBond ConjugatedDoubleBond NonConjugatedSingleBond NonConjugatedSingleBond NonConjugatedSingleBond NonConjugatedSingleBond NonConjugatedSingleBond NonConjugatedSingleBond NonConjugatedSingleBond NonConjugatedSingleBond NonConjugatedSingleBond NonConjugatedSingleBond NonConjugatedSingleBond NonConjugatedSingleBond ConjugatedDoubleBond NonConjugatedSingleBond NonConjugatedSingleBond NonConjugatedSingleBond NonConjugatedSingleBond NonConjugatedSingleBond NonConjugatedSingleBond NonConjugatedSingleBond NonConjugatedSingleBond NonConjugatedSingleBond NonConjugatedSingleBond NonConjugatedSingleBond NonConjugatedSingleBond ConjugatedDoubleBond NonConjugatedSingleBond NonConjugatedSingleBond NonConjugatedSingleBond NonConjugatedSingleBond NonConjugatedSingleBond NonConjugatedSingleBond NonConjugatedSingleBond NonConjugatedSingleBond NonConjugatedSingleBond NonConjugatedSingleBond NonConjugatedSingleBond NonConjugatedSingleBond ConjugatedDoubleBond NonConjugatedSingleBond NonConjugatedSingleBond NonConjugatedSingleBond NonConjugatedSingleBond NonConjugatedSingleBond NonConjugatedSingleBond NonConjugatedSingleBond NonConjugatedSingleBond NonConjugatedSingleBond NonConjugatedSingleBondInRing NonConjugatedSingleBondInRing NonConjugatedSingleBond NonConjugatedSingleBond NonConjugatedSingleBondInRing NonConjugatedSingleBond NonConjugatedSingleBondInRing NonConjugatedSingleBond NonConjugatedSingleBondInRing NonConjugatedSingleBond NonConjugatedSingleBond NonConjugatedSingleBondInRing NonConjugatedSingleBond NonConjugatedSingleBond NonConjugatedSingleBond NonConjugatedSingleBond NonConjugatedSingleBond NonConjugatedSingleBond NonConjugatedSingleBond NonConjugatedSingleBond NonConjugatedSingleBond NonConjugatedSingleBondInRing NonConjugatedSingleBondInRing NonConjugatedSingleBond NonConjugatedSingleBondInRing NonConjugatedSingleBond NonConjugatedSingleBondInRing NonConjugatedSingleBond NonConjugatedSingleBondInRing NonConjugatedSingleBond NonConjugatedSingleBondInRing NonConjugatedSingleBond NonConjugatedSingleBond NonConjugatedSingleBond NonConjugatedSingleBond AmideSingleBond NonConjugatedSingleBond NonConjugatedSingleBond NonConjugatedSingleBond NonConjugatedSingleBond NonConjugatedSingleBond ConjugatedDoubleBond NonConjugatedSingleBond NonConjugatedSingleBond NonConjugatedSingleBond NonConjugatedSingleBond
M  BCL CHI   1   R   4   R   8   R  17   S  20   R  22   S  25   R  29   S  38   S  42   R  46   R  50   S 185   R 187   S 190   S 192   R 194   R 205   R 207   S 210   R 212   S 214   S
M  BCL DBI - - E E E E E E E E Z - -
M  END
> <ConfClashScore>
0.0154672 

> <ConfOneFourInteractionScore>
-0.965275 

> <ConfScore>
1.65836 

> <ConfScorePBest>
0.00737347 

> <ConfTolerance>
4.29854 

$$$$
L05.****
  PyMOL2.5          3D                             0

230233  0  0  0  0  0  0  0  0999 V2000
   11.9232   -3.4935   -2.7522 C   0  0  0  1  0  0  0  0  0  0  0  0
   11.9354   -4.4426   -3.2461 H   0  0  0  1  0  0  0  0  0  0  0  0
   11.4923   -2.4471   -3.6645 O   0  0  0  1  0  0  0  0  0  0  0  0
   10.8861   -3.4841   -1.6300 C   0  0  0  1  0  0  0  0  0  0  0  0
   11.3156   -3.7896   -0.6988 H   0  0  0  1  0  0  0  0  0  0  0  0
    9.7741   -4.3250   -1.9409 O   0  0  0  1  0  0  0  0  0  0  0  0
    9.8914   -5.1799   -1.5202 H   0  0  0  1  0  0  0  0  0  0  0  0
   10.4858   -2.0315   -1.6006 C   0  0  0  1  0  0  0  0  0  0  0  0
    9.5180   -1.9054   -1.1621 H   0  0  0  1  0  0  0  0  0  0  0  0
   11.4422   -1.2451   -0.8820 O   0  0  0  1  0  0  0  0  0  0  0  0
   11.6402   -1.6687   -0.0436 H   0  0  0  1  0  0  0  0  0  0  0  0
    9.1796   -2.9889   -4.8614 C   0  0  0  1  0  0  0  0  0  0  0  0
    9.4945   -3.9425   -4.4923 H   0  0  0  1  0  0  0  0  0  0  0  0
    8.2006   -3.0753   -5.2847 H   0  0  0  1  0  0  0  0  0  0  0  0
   10.0812   -2.5731   -5.8787 O   0  0  0  1  0  0  0  0  0  0  0  0
   10.0876   -3.2221   -6.5860 H   0  0  0  1  0  0  0  0  0  0  0  0
    9.1236   -2.0039   -3.6920 C   0  0  0  1  0  0  0  0  0  0  0  0
    8.5207   -2.4479   -2.9277 H   0  0  0  1  0  0  0  0  0  0  0  0
    8.5167   -0.7845   -4.1037 O   0  0  0  1  0  0  0  0  0  0  0  0
   10.4726   -1.6686   -3.0745 C   0  0  0  1  0  0  0  0  0  0  0  0
   10.6758   -0.6261   -3.2044 H   0  0  0  1  0  0  0  0  0  0  0  0
    7.6901   -0.1458   -3.1566 C   0  0  0  1  0  0  0  0  0  0  0  0
    6.7913   -0.7119   -3.0276 H   0  0  0  1  0  0  0  0  0  0  0  0
    8.3669   -0.0075   -1.9250 O   0  0  0  1  0  0  0  0  0  0  0  0
    7.3665    1.2683   -3.6034 C   0  0  0  1  0  0  0  0  0  0  0  0
    6.4884    1.2899   -4.2144 H   0  0  0  1  0  0  0  0  0  0  0  0
    8.4482    1.8415   -4.3113 O   0  0  0  1  0  0  0  0  0  0  0  0
    8.7736    1.2148   -4.9617 H   0  0  0  1  0  0  0  0  0  0  0  0
    7.1365    1.9757   -2.2928 C   0  0  0  1  0  0  0  0  0  0  0  0
    6.1554    1.7827   -1.9119 H   0  0  0  1  0  0  0  0  0  0  0  0
    7.3297    3.3852   -2.4204 O   0  0  0  1  0  0  0  0  0  0  0  0
    8.1965    3.5572   -2.7953 H   0  0  0  1  0  0  0  0  0  0  0  0
    7.2174    2.6643    0.4812 C   0  0  0  1  0  0  0  0  0  0  0  0
    7.2540    2.7271    1.5487 H   0  0  0  1  0  0  0  0  0  0  0  0
    7.8102    3.4474    0.0568 H   0  0  0  1  0  0  0  0  0  0  0  0
    5.8712    2.8018    0.0457 O   0  0  0  1  0  0  0  0  0  0  0  0
    5.3501    2.0675    0.3784 H   0  0  0  1  0  0  0  0  0  0  0  0
    7.7660    1.3145    0.0341 C   0  0  0  1  0  0  0  0  0  0  0  0
    6.9679    0.6058    0.1095 H   0  0  0  1  0  0  0  0  0  0  0  0
    8.8342    0.8852    0.8741 O   0  0  0  1  0  0  0  0  0  0  0  0
    8.5660    0.1005    1.3578 H   0  0  0  1  0  0  0  0  0  0  0  0
    8.2117    1.3431   -1.4103 C   0  0  0  1  0  0  0  0  0  0  0  0
    9.1311    1.8847   -1.4898 H   0  0  0  1  0  0  0  0  0  0  0  0
   13.2194   -3.2084   -2.2390 O   0  0  0  1  0  0  0  0  0  0  0  0
   22.3498   -2.1567   -0.8274 O   0  0  0  1  0  0  0  0  0  0  0  0
   22.8984   -2.4207   -2.2890 P   0  0  0  1  0  0  0  0  0  0  0  0
   21.8581   -3.4250   -2.9891 O   0  0  0  1  0  0  0  0  0  0  0  0
   24.2908   -2.8981   -2.1627 O   0  0  0  0  0  0  0  0  0  0  0  0
   22.8296   -1.1755   -3.1064 O   0  0  0  1  0  0  0  0  0  0  0  0
   21.8113   -4.0923   -4.4447 P   0  0  0  1  0  0  0  0  0  0  0  0
   21.1080   -5.4865   -4.1905 O   0  0  0  1  0  0  0  0  0  0  0  0
   23.2414   -4.2403   -4.7960 O   0  0  0  0  0  0  0  0  0  0  0  0
   20.8788   -3.3774   -5.3445 O   0  0  0  1  0  0  0  0  0  0  0  0
   23.0830   -1.3176    0.1022 C   0  0  0  1  0  0  0  0  0  0  0  0
   23.1962   -0.3324   -0.2996 H   0  0  0  1  0  0  0  0  0  0  0  0
   24.0480   -1.7371    0.2964 H   0  0  0  1  0  0  0  0  0  0  0  0
   22.2747   -1.2723    1.3645 C   0  0  0  1  0  0  0  0  0  0  0  0
   21.4391   -1.8913    1.3779 H   0  0  0  1  0  0  0  0  0  0  0  0
   22.4679   -0.5589    2.4674 C   0  0  0  1  0  0  0  0  0  0  0  0
   21.4865   -0.5878    3.5927 C   0  0  0  1  0  0  0  0  0  0  0  0
   21.1590    0.4081    3.8066 H   0  0  0  1  0  0  0  0  0  0  0  0
   21.9524   -1.0040    4.4613 H   0  0  0  1  0  0  0  0  0  0  0  0
   20.6450   -1.1881    3.3164 H   0  0  0  1  0  0  0  0  0  0  0  0
   23.6596    0.3279    2.6950 C   0  0  0  1  0  0  0  0  0  0  0  0
   24.4069   -0.2194    3.2306 H   0  0  0  1  0  0  0  0  0  0  0  0
   23.3591    1.1787    3.2701 H   0  0  0  1  0  0  0  0  0  0  0  0
   24.2402    0.8004    1.3721 C   0  0  0  1  0  0  0  0  0  0  0  0
   23.4895    1.3720    0.8675 H   0  0  0  1  0  0  0  0  0  0  0  0
   24.4821   -0.0643    0.7901 H   0  0  0  1  0  0  0  0  0  0  0  0
   25.4771    1.6495    1.4775 C   0  0  0  1  0  0  0  0  0  0  0  0
   25.8186    1.8861    2.4309 H   0  0  0  1  0  0  0  0  0  0  0  0
   26.1690    2.1220    0.4390 C   0  0  0  1  0  0  0  0  0  0  0  0
   27.5557    2.6732    0.6141 C   0  0  0  1  0  0  0  0  0  0  0  0
   27.5569    3.7177    0.3816 H   0  0  0  1  0  0  0  0  0  0  0  0
   28.2282    2.1613   -0.0421 H   0  0  0  1  0  0  0  0  0  0  0  0
   27.8696    2.5333    1.6274 H   0  0  0  1  0  0  0  0  0  0  0  0
   25.5902    2.1218   -0.9452 C   0  0  0  1  0  0  0  0  0  0  0  0
   24.6241    1.6632   -0.9103 H   0  0  0  1  0  0  0  0  0  0  0  0
   26.2332    1.5522   -1.5831 H   0  0  0  1  0  0  0  0  0  0  0  0
   25.4424    3.5175   -1.5289 C   0  0  0  1  0  0  0  0  0  0  0  0
   26.3494    4.0576   -1.3541 H   0  0  0  1  0  0  0  0  0  0  0  0
   24.6322    4.0100   -1.0329 H   0  0  0  1  0  0  0  0  0  0  0  0
   25.1679    3.5116   -2.9970 C   0  0  0  1  0  0  0  0  0  0  0  0
   25.9711    3.4092   -3.6497 H   0  0  0  1  0  0  0  0  0  0  0  0
   23.9481    3.6308   -3.5102 C   0  0  0  1  0  0  0  0  0  0  0  0
   22.6883    3.4629   -2.7114 C   0  0  0  1  0  0  0  0  0  0  0  0
   22.3862    4.4290   -2.3645 H   0  0  0  1  0  0  0  0  0  0  0  0
   22.9100    2.8357   -1.8734 H   0  0  0  1  0  0  0  0  0  0  0  0
   23.7340    3.9500   -4.9630 C   0  0  0  1  0  0  0  0  0  0  0  0
   23.7572    5.0106   -5.1029 H   0  0  0  1  0  0  0  0  0  0  0  0
   22.7836    3.5701   -5.2751 H   0  0  0  1  0  0  0  0  0  0  0  0
   24.5086    3.4967   -5.5455 H   0  0  0  1  0  0  0  0  0  0  0  0
   21.5184    2.8472   -3.4615 C   0  0  0  1  0  0  0  0  0  0  0  0
   21.7746    1.8502   -3.7536 H   0  0  0  1  0  0  0  0  0  0  0  0
   21.3130    3.4330   -4.3329 H   0  0  0  1  0  0  0  0  0  0  0  0
   20.2973    2.8069   -2.5986 C   0  0  0  1  0  0  0  0  0  0  0  0
   20.0987    3.6588   -2.0362 H   0  0  0  1  0  0  0  0  0  0  0  0
   19.4387    1.8006   -2.4726 C   0  0  0  1  0  0  0  0  0  0  0  0
   19.5689    0.4955   -3.2086 C   0  0  0  1  0  0  0  0  0  0  0  0
   19.5683   -0.3003   -2.4934 H   0  0  0  1  0  0  0  0  0  0  0  0
   20.4968    0.4961   -3.7415 H   0  0  0  1  0  0  0  0  0  0  0  0
   18.2471    1.8940   -1.5652 C   0  0  0  1  0  0  0  0  0  0  0  0
   18.2855    1.1054   -0.8430 H   0  0  0  1  0  0  0  0  0  0  0  0
   17.3511    1.8046   -2.1432 H   0  0  0  1  0  0  0  0  0  0  0  0
   18.2551    2.8385   -1.0625 H   0  0  0  1  0  0  0  0  0  0  0  0
   18.4418    0.2559   -4.1999 C   0  0  0  1  0  0  0  0  0  0  0  0
   18.5645    0.9274   -5.0238 H   0  0  0  1  0  0  0  0  0  0  0  0
   17.5108    0.4556   -3.7118 H   0  0  0  1  0  0  0  0  0  0  0  0
   18.4127   -1.1374   -4.7244 C   0  0  0  1  0  0  0  0  0  0  0  0
   18.1704   -1.8502   -4.0068 H   0  0  0  1  0  0  0  0  0  0  0  0
   18.6361   -1.6470   -5.9310 C   0  0  0  1  0  0  0  0  0  0  0  0
   19.3053   -0.8926   -7.0429 C   0  0  0  1  0  0  0  0  0  0  0  0
   18.9295    0.1093   -7.0491 H   0  0  0  1  0  0  0  0  0  0  0  0
   19.0659   -1.3695   -7.9703 H   0  0  0  1  0  0  0  0  0  0  0  0
   18.2258   -3.0499   -6.2805 C   0  0  0  1  0  0  0  0  0  0  0  0
   19.0970   -3.6363   -6.4853 H   0  0  0  1  0  0  0  0  0  0  0  0
   17.5966   -3.0321   -7.1458 H   0  0  0  1  0  0  0  0  0  0  0  0
   17.6916   -3.4800   -5.4592 H   0  0  0  1  0  0  0  0  0  0  0  0
   20.8178   -0.8411   -6.9016 C   0  0  0  1  0  0  0  0  0  0  0  0
   21.0572   -0.3624   -5.9750 H   0  0  0  1  0  0  0  0  0  0  0  0
   21.2164   -0.2684   -7.7128 H   0  0  0  1  0  0  0  0  0  0  0  0
   21.4582   -2.2033   -6.9166 C   0  0  0  1  0  0  0  0  0  0  0  0
   21.3148   -2.7923   -6.0715 H   0  0  0  1  0  0  0  0  0  0  0  0
   22.1861   -2.7344   -7.8917 C   0  0  0  1  0  0  0  0  0  0  0  0
   22.1937   -2.1422   -9.2725 C   0  0  0  1  0  0  0  0  0  0  0  0
   22.5703   -2.8894   -9.9393 H   0  0  0  1  0  0  0  0  0  0  0  0
   22.8616   -1.3064   -9.2587 H   0  0  0  1  0  0  0  0  0  0  0  0
   23.0536   -3.9474   -7.7239 C   0  0  0  1  0  0  0  0  0  0  0  0
   22.9530   -4.3234   -6.7272 H   0  0  0  1  0  0  0  0  0  0  0  0
   24.0747   -3.6829   -7.9036 H   0  0  0  1  0  0  0  0  0  0  0  0
   22.7518   -4.7007   -8.4213 H   0  0  0  1  0  0  0  0  0  0  0  0
   20.8684   -1.6559   -9.8361 C   0  0  0  1  0  0  0  0  0  0  0  0
   20.4521   -0.9553   -9.1428 H   0  0  0  1  0  0  0  0  0  0  0  0
   20.2175   -2.5006   -9.9246 H   0  0  0  1  0  0  0  0  0  0  0  0
   20.9456   -0.9931  -11.1695 C   0  0  0  1  0  0  0  0  0  0  0  0
   21.4385   -1.5367  -11.9065 H   0  0  0  1  0  0  0  0  0  0  0  0
   20.4783    0.1882  -11.5553 C   0  0  0  1  0  0  0  0  0  0  0  0
   19.4737    0.9391  -10.7280 C   0  0  0  1  0  0  0  0  0  0  0  0
   19.3928    1.9239  -11.1386 H   0  0  0  1  0  0  0  0  0  0  0  0
   19.8595    0.9981   -9.7317 H   0  0  0  1  0  0  0  0  0  0  0  0
   20.8912    0.8794  -12.8217 C   0  0  0  1  0  0  0  0  0  0  0  0
   21.6615    0.3136  -13.3026 H   0  0  0  1  0  0  0  0  0  0  0  0
   21.2589    1.8573  -12.5904 H   0  0  0  1  0  0  0  0  0  0  0  0
   20.0477    0.9603  -13.4750 H   0  0  0  1  0  0  0  0  0  0  0  0
   18.0684    0.3669  -10.6384 C   0  0  0  1  0  0  0  0  0  0  0  0
   18.1316   -0.6350  -10.2682 H   0  0  0  1  0  0  0  0  0  0  0  0
   17.6407    0.3589  -11.6192 H   0  0  0  1  0  0  0  0  0  0  0  0
   17.1736    1.1516   -9.7360 C   0  0  0  1  0  0  0  0  0  0  0  0
   17.5826    1.5708   -8.8767 H   0  0  0  1  0  0  0  0  0  0  0  0
   15.8806    1.3404   -9.9771 C   0  0  0  1  0  0  0  0  0  0  0  0
   15.2341    1.0803  -11.3082 C   0  0  0  1  0  0  0  0  0  0  0  0
   15.4084    0.0597  -11.5779 H   0  0  0  1  0  0  0  0  0  0  0  0
   15.6825    1.7237  -12.0362 H   0  0  0  1  0  0  0  0  0  0  0  0
   14.9480    1.8394   -8.9125 C   0  0  0  1  0  0  0  0  0  0  0  0
   15.2660    1.4731   -7.9588 H   0  0  0  1  0  0  0  0  0  0  0  0
   13.9567    1.4915   -9.1155 H   0  0  0  1  0  0  0  0  0  0  0  0
   14.9563    2.9093   -8.9043 H   0  0  0  1  0  0  0  0  0  0  0  0
   13.7346    1.3293  -11.3007 C   0  0  0  1  0  0  0  0  0  0  0  0
   13.2921    0.7815  -10.4951 H   0  0  0  1  0  0  0  0  0  0  0  0
   13.3192    0.9973  -12.2291 H   0  0  0  1  0  0  0  0  0  0  0  0
   13.4378    2.7944  -11.1231 C   0  0  0  1  0  0  0  0  0  0  0  0
   13.7503    3.4267  -11.8873 H   0  0  0  1  0  0  0  0  0  0  0  0
   12.8192    3.3678  -10.0947 C   0  0  0  1  0  0  0  0  0  0  0  0
   12.7341    4.8763  -10.0309 C   0  0  0  1  0  0  0  0  0  0  0  0
   13.2261    5.2182   -9.1444 H   0  0  0  1  0  0  0  0  0  0  0  0
   11.7052    5.1688  -10.0038 H   0  0  0  1  0  0  0  0  0  0  0  0
   12.1724    2.6436   -8.9477 C   0  0  0  1  0  0  0  0  0  0  0  0
   11.5993    1.8572   -9.3928 H   0  0  0  1  0  0  0  0  0  0  0  0
   11.5356    3.3056   -8.3990 H   0  0  0  1  0  0  0  0  0  0  0  0
   12.9165    2.2396   -8.2935 H   0  0  0  1  0  0  0  0  0  0  0  0
   13.3992    5.5054  -11.2443 C   0  0  0  1  0  0  0  0  0  0  0  0
   12.8862    5.1606  -12.1177 H   0  0  0  1  0  0  0  0  0  0  0  0
   14.4159    5.1731  -11.2727 H   0  0  0  1  0  0  0  0  0  0  0  0
   13.4016    7.0009  -11.2707 C   0  0  0  1  0  0  0  0  0  0  0  0
   12.8281    7.5087  -10.5673 H   0  0  0  1  0  0  0  0  0  0  0  0
   14.1069    7.7193  -12.1571 C   0  0  0  1  0  0  0  0  0  0  0  0
   14.1651    9.2192  -12.1645 C   0  0  0  1  0  0  0  0  0  0  0  0
   15.1704    9.5368  -12.3473 H   0  0  0  1  0  0  0  0  0  0  0  0
   13.8401    9.5932  -11.2161 H   0  0  0  1  0  0  0  0  0  0  0  0
   13.5263    9.5969  -12.9353 H   0  0  0  1  0  0  0  0  0  0  0  0
   14.9359    7.1159  -13.2648 C   0  0  0  1  0  0  0  0  0  0  0  0
   14.6842    7.6304  -14.1686 H   0  0  0  1  0  0  0  0  0  0  0  0
   14.7126    6.0741  -13.3627 H   0  0  0  1  0  0  0  0  0  0  0  0
   15.9771    7.2396  -13.0514 H   0  0  0  1  0  0  0  0  0  0  0  0
   16.1331   -5.1795   -1.8025 C   0  0  0  1  0  0  0  0  0  0  0  0
   16.4787   -5.7278   -0.9512 H   0  0  0  1  0  0  0  0  0  0  0  0
   14.8189   -5.7752   -2.2906 C   0  0  0  1  0  0  0  0  0  0  0  0
   14.9739   -6.7884   -2.5976 H   0  0  0  1  0  0  0  0  0  0  0  0
   15.9299   -3.8122   -1.4381 O   0  0  0  1  0  0  0  0  0  0  0  0
   14.3214   -4.9458   -3.4786 C   0  0  0  1  0  0  0  0  0  0  0  0
   13.3364   -5.2737   -3.7380 H   0  0  0  1  0  0  0  0  0  0  0  0
   15.5911   -2.9914   -2.5668 C   0  0  0  1  0  0  0  0  0  0  0  0
   16.3638   -3.0641   -3.3033 H   0  0  0  1  0  0  0  0  0  0  0  0
   14.2745   -3.4596   -3.1685 C   0  0  0  1  0  0  0  0  0  0  0  0
   14.0901   -2.9183   -4.0729 H   0  0  0  1  0  0  0  0  0  0  0  0
   17.1025   -5.2544   -2.8413 O   0  0  0  1  0  0  0  0  0  0  0  0
   13.8551   -5.7381   -1.2411 O   0  0  0  1  0  0  0  0  0  0  0  0
   14.2115   -6.1732   -0.4632 H   0  0  0  1  0  0  0  0  0  0  0  0
   15.1954   -5.1546   -4.5783 O   0  0  0  1  0  0  0  0  0  0  0  0
   15.7328   -4.3707   -4.7138 H   0  0  0  1  0  0  0  0  0  0  0  0
   15.4549   -1.5558   -2.1192 C   0  0  0  1  0  0  0  0  0  0  0  0
   14.5158   -1.4237   -1.6238 H   0  0  0  1  0  0  0  0  0  0  0  0
   15.5020   -0.9108   -2.9716 H   0  0  0  1  0  0  0  0  0  0  0  0
   16.2504   -1.3156   -1.4452 H   0  0  0  1  0  0  0  0  0  0  0  0
   19.9727   -5.5373   -3.2930 C   0  0  0  1  0  0  0  0  0  0  0  0
   19.5878   -4.5496   -3.1476 H   0  0  0  1  0  0  0  0  0  0  0  0
   18.9018   -6.4109   -3.8872 C   0  0  0  1  0  0  0  0  0  0  0  0
   19.3018   -7.3856   -4.0737 H   0  0  0  1  0  0  0  0  0  0  0  0
   20.3785   -6.0737   -2.0485 O   0  0  0  1  0  0  0  0  0  0  0  0
   17.7470   -6.5204   -2.9344 C   0  0  0  1  0  0  0  0  0  0  0  0
   17.0557   -7.2465   -3.3081 H   0  0  0  1  0  0  0  0  0  0  0  0
   19.3131   -6.0224   -1.0829 C   0  0  0  1  0  0  0  0  0  0  0  0
   19.6719   -6.3491   -0.1293 H   0  0  0  1  0  0  0  0  0  0  0  0
   18.2039   -6.9410   -1.5569 C   0  0  0  1  0  0  0  0  0  0  0  0
   17.3801   -6.8840   -0.8765 H   0  0  0  1  0  0  0  0  0  0  0  0
   18.4417   -5.8271   -5.1383 N   0  0  0  1  0  0  0  0  0  0  0  0
   17.7564   -5.1266   -5.1282 H   0  0  0  1  0  0  0  0  0  0  0  0
   18.6888   -8.2836   -1.6073 O   0  0  0  1  0  0  0  0  0  0  0  0
   18.1064   -8.7606   -2.2031 H   0  0  0  1  0  0  0  0  0  0  0  0
   18.7964   -4.6170   -0.9694 C   0  0  0  1  0  0  0  0  0  0  0  0
   18.3626   -4.3212   -1.9017 H   0  0  0  1  0  0  0  0  0  0  0  0
   19.6049   -3.9593   -0.7270 H   0  0  0  1  0  0  0  0  0  0  0  0
   17.8106   -4.5505    0.0526 O   0  0  0  1  0  0  0  0  0  0  0  0
   18.2518   -4.3584    0.8833 H   0  0  0  1  0  0  0  0  0  0  0  0
   18.9537   -6.2459   -6.3057 C   0  0  0  1  0  0  0  0  0  0  0  0
   19.7798   -7.1470   -6.4235 O   0  0  0  1  0  0  0  0  0  0  0  0
   18.4147   -5.4937   -7.5157 C   0  0  0  1  0  0  0  0  0  0  0  0
   18.5477   -6.1723   -8.3322 H   0  0  0  1  0  0  0  0  0  0  0  0
   18.9682   -4.5926   -7.6785 H   0  0  0  1  0  0  0  0  0  0  0  0
   17.3792   -5.2580   -7.3843 H   0  0  0  1  0  0  0  0  0  0  0  0
  1  2  1  0  0  0  0
  1  3  1  0  0  0  0
  1  4  1  0  0  0  0
  1 44  1  0  0  0  0
  3 20  1  0  0  0  0
  4  5  1  0  0  0  0
  4  6  1  0  0  0  0
  4  8  1  0  0  0  0
  6  7  1  0  0  0  0
  8  9  1  0  0  0  0
  8 10  1  0  0  0  0
  8 20  1  0  0  0  0
 10 11  1  0  0  0  0
 12 13  1  0  0  0  0
 12 14  1  0  0  0  0
 12 15  1  0  0  0  0
 12 17  1  0  0  0  0
 15 16  1  0  0  0  0
 17 18  1  0  0  0  0
 17 19  1  0  0  0  0
 17 20  1  0  0  0  0
 19 22  1  0  0  0  0
 20 21  1  0  0  0  0
 22 23  1  0  0  0  0
 22 24  1  0  0  0  0
 22 25  1  0  0  0  0
 24 42  1  0  0  0  0
 25 26  1  0  0  0  0
 25 27  1  0  0  0  0
 25 29  1  0  0  0  0
 27 28  1  0  0  0  0
 29 30  1  0  0  0  0
 29 31  1  0  0  0  0
 29 42  1  0  0  0  0
 31 32  1  0  0  0  0
 33 34  1  0  0  0  0
 33 35  1  0  0  0  0
 33 36  1  0  0  0  0
 33 38  1  0  0  0  0
 36 37  1  0  0  0  0
 38 39  1  0  0  0  0
 38 40  1  0  0  0  0
 38 42  1  0  0  0  0
 40 41  1  0  0  0  0
 42 43  1  0  0  0  0
 44194  1  0  0  0  0
 45 46  1  0  0  0  0
 45 54  1  0  0  0  0
 46 47  1  0  0  0  0
 46 48  1  0  0  0  0
 46 49  2  0  0  0  0
 47 50  1  0  0  0  0
 50 51  1  0  0  0  0
 50 52  1  0  0  0  0
 50 53  2  0  0  0  0
 51205  1  0  0  0  0
 54 55  1  0  0  0  0
 54 56  1  0  0  0  0
 54 57  1  0  0  0  0
 57 58  1  0  0  0  0
 57 59  2  0  0  0  0
 59 60  1  0  0  0  0
 59 64  1  0  0  0  0
 60 61  1  0  0  0  0
 60 62  1  0  0  0  0
 60 63  1  0  0  0  0
 64 65  1  0  0  0  0
 64 66  1  0  0  0  0
 64 67  1  0  0  0  0
 67 68  1  0  0  0  0
 67 69  1  0  0  0  0
 67 70  1  0  0  0  0
 70 71  1  0  0  0  0
 70 72  2  0  0  0  0
 72 73  1  0  0  0  0
 72 77  1  0  0  0  0
 73 74  1  0  0  0  0
 73 75  1  0  0  0  0
 73 76  1  0  0  0  0
 77 78  1  0  0  0  0
 77 79  1  0  0  0  0
 77 80  1  0  0  0  0
 80 81  1  0  0  0  0
 80 82  1  0  0  0  0
 80 83  1  0  0  0  0
 83 84  1  0  0  0  0
 83 85  2  0  0  0  0
 85 86  1  0  0  0  0
 85 89  1  0  0  0  0
 86 87  1  0  0  0  0
 86 88  1  0  0  0  0
 86 93  1  0  0  0  0
 89 90  1  0  0  0  0
 89 91  1  0  0  0  0
 89 92  1  0  0  0  0
 93 94  1  0  0  0  0
 93 95  1  0  0  0  0
 93 96  1  0  0  0  0
 96 97  1  0  0  0  0
 96 98  2  0  0  0  0
 98 99  1  0  0  0  0
 98102  1  0  0  0  0
 99100  1  0  0  0  0
 99101  1  0  0  0  0
 99106  1  0  0  0  0
102103  1  0  0  0  0
102104  1  0  0  0  0
102105  1  0  0  0  0
106107  1  0  0  0  0
106108  1  0  0  0  0
106109  1  0  0  0  0
109110  1  0  0  0  0
109111  2  0  0  0  0
111112  1  0  0  0  0
111115  1  0  0  0  0
112113  1  0  0  0  0
112114  1  0  0  0  0
112119  1  0  0  0  0
115116  1  0  0  0  0
115117  1  0  0  0  0
115118  1  0  0  0  0
119120  1  0  0  0  0
119121  1  0  0  0  0
119122  1  0  0  0  0
122123  1  0  0  0  0
122124  2  0  0  0  0
124125  1  0  0  0  0
124128  1  0  0  0  0
125126  1  0  0  0  0
125127  1  0  0  0  0
125132  1  0  0  0  0
128129  1  0  0  0  0
128130  1  0  0  0  0
128131  1  0  0  0  0
132133  1  0  0  0  0
132134  1  0  0  0  0
132135  1  0  0  0  0
135136  1  0  0  0  0
135137  2  0  0  0  0
137138  1  0  0  0  0
137141  1  0  0  0  0
138139  1  0  0  0  0
138140  1  0  0  0  0
138145  1  0  0  0  0
141142  1  0  0  0  0
141143  1  0  0  0  0
141144  1  0  0  0  0
145146  1  0  0  0  0
145147  1  0  0  0  0
145148  1  0  0  0  0
148149  1  0  0  0  0
148150  2  0  0  0  0
150151  1  0  0  0  0
150154  1  0  0  0  0
151152  1  0  0  0  0
151153  1  0  0  0  0
151158  1  0  0  0  0
154155  1  0  0  0  0
154156  1  0  0  0  0
154157  1  0  0  0  0
158159  1  0  0  0  0
158160  1  0  0  0  0
158161  1  0  0  0  0
161162  1  0  0  0  0
161163  2  0  0  0  0
163164  1  0  0  0  0
163167  1  0  0  0  0
164165  1  0  0  0  0
164166  1  0  0  0  0
164171  1  0  0  0  0
167168  1  0  0  0  0
167169  1  0  0  0  0
167170  1  0  0  0  0
171172  1  0  0  0  0
171173  1  0  0  0  0
171174  1  0  0  0  0
174175  1  0  0  0  0
174176  2  0  0  0  0
176177  1  0  0  0  0
176181  1  0  0  0  0
177178  1  0  0  0  0
177179  1  0  0  0  0
177180  1  0  0  0  0
181182  1  0  0  0  0
181183  1  0  0  0  0
181184  1  0  0  0  0
185186  1  0  0  0  0
185187  1  0  0  0  0
185189  1  0  0  0  0
185196  1  0  0  0  0
187188  1  0  0  0  0
187190  1  0  0  0  0
187197  1  0  0  0  0
189192  1  0  0  0  0
190191  1  0  0  0  0
190194  1  0  0  0  0
190199  1  0  0  0  0
192193  1  0  0  0  0
192194  1  0  0  0  0
192201  1  0  0  0  0
194195  1  0  0  0  0
196210  1  0  0  0  0
197198  1  0  0  0  0
199200  1  0  0  0  0
201202  1  0  0  0  0
201203  1  0  0  0  0
201204  1  0  0  0  0
205206  1  0  0  0  0
205207  1  0  0  0  0
205209  1  0  0  0  0
207208  1  0  0  0  0
207210  1  0  0  0  0
207216  1  0  0  0  0
209212  1  0  0  0  0
210211  1  0  0  0  0
210214  1  0  0  0  0
212213  1  0  0  0  0
212214  1  0  0  0  0
212220  1  0  0  0  0
214215  1  0  0  0  0
214218  1  0  0  0  0
216217  1  0  0  0  0
216225  1  0  0  0  0
218219  1  0  0  0  0
220221  1  0  0  0  0
220222  1  0  0  0  0
220223  1  0  0  0  0
223224  1  0  0  0  0
225226  2  0  0  0  0
225227  1  0  0  0  0
227228  1  0  0  0  0
227229  1  0  0  0  0
227230  1  0  0  0  0
M  BCL ATM C_TeTeTeTe H_S O_Te2Te2TeTe C_TeTeTeTe H_S O_Te2Te2TeTe H_S C_TeTeTeTe H_S O_Te2Te2TeTe H_S C_TeTeTeTe H_S H_S O_Te2Te2TeTe H_S C_TeTeTeTe H_S O_Te2Te2TeTe C_TeTeTeTe H_S C_TeTeTeTe H_S O_Te2Te2TeTe C_TeTeTeTe H_S O_Te2Te2TeTe H_S C_TeTeTeTe H_S O_Te2Te2TeTe H_S C_TeTeTeTe H_S H_S O_Te2Te2TeTe H_S C_TeTeTeTe H_S O_Te2Te2TeTe H_S C_TeTeTeTe H_S O_Te2Te2TeTe O_Tr2TrTrPi2 P_TeTeTeTePi O_Tr2TrTrPi2 O_Te2Te2TeTe O_Tr2Tr2TrPi P_TeTeTeTePi O_Tr2TrTrPi2 O_Te2Te2TeTe O_Tr2Tr2TrPi C_TeTeTeTe H_S H_S C_TrTrTrPi H_S C_TrTrTrPi C_TeTeTeTe H_S H_S H_S C_TeTeTeTe H_S H_S C_TeTeTeTe H_S H_S C_TrTrTrPi H_S C_TrTrTrPi C_TeTeTeTe H_S H_S H_S C_TeTeTeTe H_S H_S C_TeTeTeTe H_S H_S C_TrTrTrPi H_S C_TrTrTrPi C_TeTeTeTe H_S H_S C_TeTeTeTe H_S H_S H_S C_TeTeTeTe H_S H_S C_TrTrTrPi H_S C_TrTrTrPi C_TeTeTeTe H_S H_S C_TeTeTeTe H_S H_S H_S C_TeTeTeTe H_S H_S C_TrTrTrPi H_S C_TrTrTrPi C_TeTeTeTe H_S H_S C_TeTeTeTe H_S H_S H_S C_TeTeTeTe H_S H_S C_TrTrTrPi H_S C_TrTrTrPi C_TeTeTeTe H_S H_S C_TeTeTeTe H_S H_S H_S C_TeTeTeTe H_S H_S C_TrTrTrPi H_S C_TrTrTrPi C_TeTeTeTe H_S H_S C_TeTeTeTe H_S H_S H_S C_TeTeTeTe H_S H_S C_TrTrTrPi H_S C_TrTrTrPi C_TeTeTeTe H_S H_S C_TeTeTeTe H_S H_S H_S C_TeTeTeTe H_S H_S C_TrTrTrPi H_S C_TrTrTrPi C_TeTeTeTe H_S H_S C_TeTeTeTe H_S H_S H_S C_TeTeTeTe H_S H_S C_TrTrTrPi H_S C_TrTrTrPi C_TeTeTeTe H_S H_S H_S C_TeTeTeTe H_S H_S H_S C_TeTeTeTe H_S C_TeTeTeTe H_S O_Te2Te2TeTe C_TeTeTeTe H_S C_TeTeTeTe H_S C_TeTeTeTe H_S O_Te2Te2TeTe O_Te2Te2TeTe H_S O_Te2Te2TeTe H_S C_TeTeTeTe H_S H_S H_S C_TeTeTeTe H_S C_TeTeTeTe H_S O_Te2Te2TeTe C_TeTeTeTe H_S C_TeTeTeTe H_S C_TeTeTeTe H_S N_TrTrTrPi2 H_S O_Te2Te2TeTe H_S C_TeTeTeTe H_S H_S O_Te2Te2TeTe H_S C_TrTrTrPi O_Tr2Tr2TrPi C_TeTeTeTe H_S H_S H_S
M  BCL BND NonConjugatedSingleBond NonConjugatedSingleBondInRing NonConjugatedSingleBondInRing NonConjugatedSingleBond NonConjugatedSingleBondInRing NonConjugatedSingleBond NonConjugatedSingleBond NonConjugatedSingleBondInRing NonConjugatedSingleBond NonConjugatedSingleBond NonConjugatedSingleBond NonConjugatedSingleBondInRing NonConjugatedSingleBond NonConjugatedSingleBond NonConjugatedSingleBond NonConjugatedSingleBond NonConjugatedSingleBond NonConjugatedSingleBond NonConjugatedSingleBond NonConjugatedSingleBond NonConjugatedSingleBond NonConjugatedSingleBond NonConjugatedSingleBond NonConjugatedSingleBond NonConjugatedSingleBondInRing NonConjugatedSingleBondInRing NonConjugatedSingleBondInRing NonConjugatedSingleBond NonConjugatedSingleBond NonConjugatedSingleBondInRing NonConjugatedSingleBond NonConjugatedSingleBond NonConjugatedSingleBond NonConjugatedSingleBondInRing NonConjugatedSingleBond NonConjugatedSingleBond NonConjugatedSingleBond NonConjugatedSingleBond NonConjugatedSingleBond NonConjugatedSingleBond NonConjugatedSingleBond NonConjugatedSingleBond NonConjugatedSingleBond NonConjugatedSingleBond NonConjugatedSingleBond NonConjugatedSingleBond ConjugatedSingleBond NonConjugatedSingleBond ConjugatedSingleBond ConjugatedSingleBond ConjugatedDoubleBond ConjugatedSingleBond ConjugatedSingleBond ConjugatedSingleBond ConjugatedDoubleBond NonConjugatedSingleBond NonConjugatedSingleBond NonConjugatedSingleBond NonConjugatedSingleBond NonConjugatedSingleBond ConjugatedDoubleBond NonConjugatedSingleBond NonConjugatedSingleBond NonConjugatedSingleBond NonConjugatedSingleBond NonConjugatedSingleBond NonConjugatedSingleBond NonConjugatedSingleBond NonConjugatedSingleBond NonConjugatedSingleBond NonConjugatedSingleBond NonConjugatedSingleBond NonConjugatedSingleBond ConjugatedDoubleBond NonConjugatedSingleBond NonConjugatedSingleBond NonConjugatedSingleBond NonConjugatedSingleBond NonConjugatedSingleBond NonConjugatedSingleBond NonConjugatedSingleBond NonConjugatedSingleBond NonConjugatedSingleBond NonConjugatedSingleBond NonConjugatedSingleBond NonConjugatedSingleBond ConjugatedDoubleBond NonConjugatedSingleBond NonConjugatedSingleBond NonConjugatedSingleBond NonConjugatedSingleBond NonConjugatedSingleBond NonConjugatedSingleBond NonConjugatedSingleBond NonConjugatedSingleBond NonConjugatedSingleBond NonConjugatedSingleBond NonConjugatedSingleBond NonConjugatedSingleBond ConjugatedDoubleBond NonConjugatedSingleBond NonConjugatedSingleBond NonConjugatedSingleBond NonConjugatedSingleBond NonConjugatedSingleBond NonConjugatedSingleBond NonConjugatedSingleBond NonConjugatedSingleBond NonConjugatedSingleBond NonConjugatedSingleBond NonConjugatedSingleBond NonConjugatedSingleBond ConjugatedDoubleBond NonConjugatedSingleBond NonConjugatedSingleBond NonConjugatedSingleBond NonConjugatedSingleBond NonConjugatedSingleBond NonConjugatedSingleBond NonConjugatedSingleBond NonConjugatedSingleBond NonConjugatedSingleBond NonConjugatedSingleBond NonConjugatedSingleBond NonConjugatedSingleBond ConjugatedDoubleBond NonConjugatedSingleBond NonConjugatedSingleBond NonConjugatedSingleBond NonConjugatedSingleBond NonConjugatedSingleBond NonConjugatedSingleBond NonConjugatedSingleBond NonConjugatedSingleBond NonConjugatedSingleBond NonConjugatedSingleBond NonConjugatedSingleBond NonConjugatedSingleBond ConjugatedDoubleBond NonConjugatedSingleBond NonConjugatedSingleBond NonConjugatedSingleBond NonConjugatedSingleBond NonConjugatedSingleBond NonConjugatedSingleBond NonConjugatedSingleBond NonConjugatedSingleBond NonConjugatedSingleBond NonConjugatedSingleBond NonConjugatedSingleBond NonConjugatedSingleBond ConjugatedDoubleBond NonConjugatedSingleBond NonConjugatedSingleBond NonConjugatedSingleBond NonConjugatedSingleBond NonConjugatedSingleBond NonConjugatedSingleBond NonConjugatedSingleBond NonConjugatedSingleBond NonConjugatedSingleBond NonConjugatedSingleBond NonConjugatedSingleBond NonConjugatedSingleBond ConjugatedDoubleBond NonConjugatedSingleBond NonConjugatedSingleBond NonConjugatedSingleBond NonConjugatedSingleBond NonConjugatedSingleBond NonConjugatedSingleBond NonConjugatedSingleBond NonConjugatedSingleBond NonConjugatedSingleBond NonConjugatedSingleBond NonConjugatedSingleBond NonConjugatedSingleBond ConjugatedDoubleBond NonConjugatedSingleBond NonConjugatedSingleBond NonConjugatedSingleBond NonConjugatedSingleBond NonConjugatedSingleBond NonConjugatedSingleBond NonConjugatedSingleBond NonConjugatedSingleBond NonConjugatedSingleBond NonConjugatedSingleBondInRing NonConjugatedSingleBondInRing NonConjugatedSingleBond NonConjugatedSingleBond NonConjugatedSingleBondInRing NonConjugatedSingleBond NonConjugatedSingleBondInRing NonConjugatedSingleBond NonConjugatedSingleBondInRing NonConjugatedSingleBond NonConjugatedSingleBond NonConjugatedSingleBondInRing NonConjugatedSingleBond NonConjugatedSingleBond NonConjugatedSingleBond NonConjugatedSingleBond NonConjugatedSingleBond NonConjugatedSingleBond NonConjugatedSingleBond NonConjugatedSingleBond NonConjugatedSingleBond NonConjugatedSingleBondInRing NonConjugatedSingleBondInRing NonConjugatedSingleBond NonConjugatedSingleBondInRing NonConjugatedSingleBond NonConjugatedSingleBondInRing NonConjugatedSingleBond NonConjugatedSingleBondInRing NonConjugatedSingleBond NonConjugatedSingleBondInRing NonConjugatedSingleBond NonConjugatedSingleBond NonConjugatedSingleBond NonConjugatedSingleBond AmideSingleBond NonConjugatedSingleBond NonConjugatedSingleBond NonConjugatedSingleBond NonConjugatedSingleBond NonConjugatedSingleBond ConjugatedDoubleBond NonConjugatedSingleBond NonConjugatedSingleBond NonConjugatedSingleBond NonConjugatedSingleBond
M  BCL CHI   1   R   4   R   8   R  17   S  20   R  22   S  25   R  29   S  38   S  42   R  46   R  50   S 185   R 187   S 190   S 192   R 194   R 205   R 207   S 210   R 212   S 214   S
M  BCL DBI - - E E E E E E E E Z - -
M  END
> <ConfClashScore>
0.0157026 

> <ConfOneFourInteractionScore>
-0.971738 

> <ConfScore>
1.70995 

> <ConfScorePBest>
0.00727047 

> <ConfTolerance>
4.3923 

$$$$
L05.****
  PyMOL2.5          3D                             0

230233  0  0  0  0  0  0  0  0999 V2000
   12.0305   -3.7993   -3.1029 C   0  0  0  1  0  0  0  0  0  0  0  0
   12.2259   -4.7657   -3.5186 H   0  0  0  1  0  0  0  0  0  0  0  0
   11.5368   -2.9373   -4.0873 O   0  0  0  1  0  0  0  0  0  0  0  0
   10.9310   -3.8902   -2.0328 C   0  0  0  1  0  0  0  0  0  0  0  0
   11.0179   -3.0955   -1.3216 H   0  0  0  1  0  0  0  0  0  0  0  0
   10.9760   -5.1456   -1.3530 O   0  0  0  1  0  0  0  0  0  0  0  0
   11.6773   -5.6860   -1.7240 H   0  0  0  1  0  0  0  0  0  0  0  0
    9.6594   -3.7558   -2.8519 C   0  0  0  1  0  0  0  0  0  0  0  0
    9.3265   -4.7092   -3.2058 H   0  0  0  1  0  0  0  0  0  0  0  0
    8.6196   -3.1403   -2.0902 O   0  0  0  1  0  0  0  0  0  0  0  0
    7.7765   -3.2797   -2.5276 H   0  0  0  1  0  0  0  0  0  0  0  0
   10.3244   -3.1201   -6.5796 C   0  0  0  1  0  0  0  0  0  0  0  0
   10.2080   -2.1018   -6.8868 H   0  0  0  1  0  0  0  0  0  0  0  0
   11.3499   -3.3047   -6.3362 H   0  0  0  1  0  0  0  0  0  0  0  0
    9.9734   -3.9504   -7.6656 O   0  0  0  1  0  0  0  0  0  0  0  0
   10.2241   -3.5245   -8.4887 H   0  0  0  1  0  0  0  0  0  0  0  0
    9.4918   -3.3352   -5.3228 C   0  0  0  1  0  0  0  0  0  0  0  0
    9.3916   -4.3952   -5.2169 H   0  0  0  1  0  0  0  0  0  0  0  0
    8.1798   -2.8072   -5.4791 O   0  0  0  1  0  0  0  0  0  0  0  0
   10.1022   -2.8486   -4.0264 C   0  0  0  1  0  0  0  0  0  0  0  0
    9.8010   -1.8376   -3.8471 H   0  0  0  1  0  0  0  0  0  0  0  0
    7.3080   -3.6539   -6.1940 C   0  0  0  1  0  0  0  0  0  0  0  0
    7.6428   -3.7382   -7.2068 H   0  0  0  1  0  0  0  0  0  0  0  0
    7.2790   -4.9373   -5.5882 O   0  0  0  1  0  0  0  0  0  0  0  0
    5.9893   -3.1240   -6.1646 C   0  0  0  1  0  0  0  0  0  0  0  0
    5.6500   -2.9389   -7.1623 H   0  0  0  1  0  0  0  0  0  0  0  0
    5.9736   -1.9041   -5.4216 O   0  0  0  1  0  0  0  0  0  0  0  0
    5.0716   -1.5828   -5.3521 H   0  0  0  1  0  0  0  0  0  0  0  0
    5.1468   -4.0805   -5.5386 C   0  0  0  1  0  0  0  0  0  0  0  0
    4.3761   -4.3838   -6.2161 H   0  0  0  1  0  0  0  0  0  0  0  0
    4.5581   -3.5151   -4.3709 O   0  0  0  1  0  0  0  0  0  0  0  0
    3.6023   -3.5835   -4.4287 H   0  0  0  1  0  0  0  0  0  0  0  0
    6.3127   -7.6457   -5.6031 C   0  0  0  1  0  0  0  0  0  0  0  0
    5.9213   -8.4983   -6.1176 H   0  0  0  1  0  0  0  0  0  0  0  0
    7.3064   -7.4466   -5.9463 H   0  0  0  1  0  0  0  0  0  0  0  0
    6.3389   -7.9076   -4.2073 O   0  0  0  1  0  0  0  0  0  0  0  0
    5.7133   -8.6058   -4.0005 H   0  0  0  1  0  0  0  0  0  0  0  0
    5.4291   -6.4366   -5.8816 C   0  0  0  1  0  0  0  0  0  0  0  0
    4.4385   -6.6460   -5.5355 H   0  0  0  1  0  0  0  0  0  0  0  0
    5.4175   -6.1911   -7.2853 O   0  0  0  1  0  0  0  0  0  0  0  0
    4.5198   -6.2676   -7.6166 H   0  0  0  1  0  0  0  0  0  0  0  0
    5.9428   -5.2001   -5.1825 C   0  0  0  1  0  0  0  0  0  0  0  0
    5.9077   -5.3480   -4.1234 H   0  0  0  1  0  0  0  0  0  0  0  0
   13.2268   -3.2737   -2.5397 O   0  0  0  1  0  0  0  0  0  0  0  0
   17.5856  -12.0042   -2.5106 O   0  0  0  1  0  0  0  0  0  0  0  0
   16.6810  -10.8259   -1.8445 P   0  0  0  1  0  0  0  0  0  0  0  0
   17.9716   -9.9422   -1.4974 O   0  0  0  1  0  0  0  0  0  0  0  0
   16.0462  -11.3173   -0.5963 O   0  0  0  0  0  0  0  0  0  0  0  0
   15.8577  -10.1546   -2.8663 O   0  0  0  1  0  0  0  0  0  0  0  0
   19.5049   -9.7993   -1.8563 P   0  0  0  1  0  0  0  0  0  0  0  0
   19.8662   -8.3668   -1.3243 O   0  0  0  1  0  0  0  0  0  0  0  0
   19.5481   -9.7107   -3.3370 O   0  0  0  0  0  0  0  0  0  0  0  0
   20.3031  -10.8215   -1.1704 O   0  0  0  1  0  0  0  0  0  0  0  0
   16.9352  -12.9966   -3.3203 C   0  0  0  1  0  0  0  0  0  0  0  0
   16.1701  -12.5360   -3.9098 H   0  0  0  1  0  0  0  0  0  0  0  0
   16.4999  -13.7455   -2.6922 H   0  0  0  1  0  0  0  0  0  0  0  0
   17.9502  -13.6196   -4.2141 C   0  0  0  1  0  0  0  0  0  0  0  0
   17.5903  -14.4321   -4.7545 H   0  0  0  1  0  0  0  0  0  0  0  0
   19.2264  -13.3392   -4.4554 C   0  0  0  1  0  0  0  0  0  0  0  0
   20.0998  -14.1518   -5.3666 C   0  0  0  1  0  0  0  0  0  0  0  0
   19.4878  -14.7125   -6.0417 H   0  0  0  1  0  0  0  0  0  0  0  0
   20.6955  -14.8232   -4.7840 H   0  0  0  1  0  0  0  0  0  0  0  0
   20.7389  -13.4988   -5.9234 H   0  0  0  1  0  0  0  0  0  0  0  0
   19.9063  -12.1598   -3.8189 C   0  0  0  1  0  0  0  0  0  0  0  0
   20.8297  -12.4894   -3.3903 H   0  0  0  1  0  0  0  0  0  0  0  0
   19.2715  -11.7760   -3.0478 H   0  0  0  1  0  0  0  0  0  0  0  0
   20.2024  -11.0404   -4.8037 C   0  0  0  1  0  0  0  0  0  0  0  0
   19.2694  -10.6191   -5.1147 H   0  0  0  1  0  0  0  0  0  0  0  0
   20.7009  -11.4674   -5.6487 H   0  0  0  1  0  0  0  0  0  0  0  0
   21.0551   -9.9332   -4.2768 C   0  0  0  1  0  0  0  0  0  0  0  0
   21.3171   -9.9469   -3.2704 H   0  0  0  1  0  0  0  0  0  0  0  0
   21.4912   -8.9411   -5.0232 C   0  0  0  1  0  0  0  0  0  0  0  0
   22.5921   -8.0066   -4.6132 C   0  0  0  1  0  0  0  0  0  0  0  0
   23.4779   -8.2323   -5.1693 H   0  0  0  1  0  0  0  0  0  0  0  0
   22.7881   -8.1236   -3.5678 H   0  0  0  1  0  0  0  0  0  0  0  0
   22.2950   -6.9977   -4.8101 H   0  0  0  1  0  0  0  0  0  0  0  0
   20.9601   -8.7313   -6.4160 C   0  0  0  1  0  0  0  0  0  0  0  0
   19.9245   -8.4736   -6.3390 H   0  0  0  1  0  0  0  0  0  0  0  0
   21.0601   -9.6533   -6.9497 H   0  0  0  1  0  0  0  0  0  0  0  0
   21.6549   -7.6456   -7.2216 C   0  0  0  1  0  0  0  0  0  0  0  0
   22.7074   -7.8380   -7.2158 H   0  0  0  1  0  0  0  0  0  0  0  0
   21.4619   -6.7010   -6.7575 H   0  0  0  1  0  0  0  0  0  0  0  0
   21.1874   -7.5815   -8.6510 C   0  0  0  1  0  0  0  0  0  0  0  0
   20.5059   -8.3007   -8.9672 H   0  0  0  1  0  0  0  0  0  0  0  0
   21.5802   -6.6753   -9.5383 C   0  0  0  1  0  0  0  0  0  0  0  0
   22.2861   -5.4220   -9.1129 C   0  0  0  1  0  0  0  0  0  0  0  0
   23.1256   -5.2569   -9.7554 H   0  0  0  1  0  0  0  0  0  0  0  0
   22.6250   -5.5353   -8.1044 H   0  0  0  1  0  0  0  0  0  0  0  0
   21.3659   -6.8043  -11.0201 C   0  0  0  1  0  0  0  0  0  0  0  0
   20.3193   -6.7504  -11.2357 H   0  0  0  1  0  0  0  0  0  0  0  0
   21.7509   -7.7447  -11.3554 H   0  0  0  1  0  0  0  0  0  0  0  0
   21.8751   -6.0097  -11.5244 H   0  0  0  1  0  0  0  0  0  0  0  0
   21.3536   -4.2244   -9.1937 C   0  0  0  1  0  0  0  0  0  0  0  0
   20.3689   -4.5403   -8.9190 H   0  0  0  1  0  0  0  0  0  0  0  0
   21.3455   -3.8664  -10.2020 H   0  0  0  1  0  0  0  0  0  0  0  0
   21.7620   -3.1020   -8.2933 C   0  0  0  1  0  0  0  0  0  0  0  0
   21.4150   -3.1207   -7.3131 H   0  0  0  1  0  0  0  0  0  0  0  0
   22.5351   -2.0827   -8.6524 C   0  0  0  1  0  0  0  0  0  0  0  0
   22.8503   -1.7333  -10.0926 C   0  0  0  1  0  0  0  0  0  0  0  0
   22.4318   -2.4730  -10.7427 H   0  0  0  1  0  0  0  0  0  0  0  0
   23.9107   -1.6954  -10.2304 H   0  0  0  1  0  0  0  0  0  0  0  0
   23.1684   -1.1809   -7.6343 C   0  0  0  1  0  0  0  0  0  0  0  0
   24.2241   -1.1372   -7.8034 H   0  0  0  1  0  0  0  0  0  0  0  0
   22.9802   -1.5636   -6.6530 H   0  0  0  1  0  0  0  0  0  0  0  0
   22.7527   -0.1988   -7.7205 H   0  0  0  1  0  0  0  0  0  0  0  0
   22.2445   -0.3749  -10.4058 C   0  0  0  1  0  0  0  0  0  0  0  0
   22.7842    0.3809   -9.8743 H   0  0  0  1  0  0  0  0  0  0  0  0
   21.2205   -0.3675  -10.0957 H   0  0  0  1  0  0  0  0  0  0  0  0
   22.3154   -0.0863  -11.8815 C   0  0  0  1  0  0  0  0  0  0  0  0
   23.1857   -0.3556  -12.3833 H   0  0  0  1  0  0  0  0  0  0  0  0
   21.3490    0.4868  -12.5909 C   0  0  0  1  0  0  0  0  0  0  0  0
   20.1877    1.2157  -11.9799 C   0  0  0  1  0  0  0  0  0  0  0  0
   19.4008    0.5132  -11.8005 H   0  0  0  1  0  0  0  0  0  0  0  0
   19.8511    1.9601  -12.6710 H   0  0  0  1  0  0  0  0  0  0  0  0
   21.3468    0.4468  -14.0932 C   0  0  0  1  0  0  0  0  0  0  0  0
   21.8481   -0.4373  -14.4277 H   0  0  0  1  0  0  0  0  0  0  0  0
   21.8533    1.3092  -14.4734 H   0  0  0  1  0  0  0  0  0  0  0  0
   20.3374    0.4401  -14.4480 H   0  0  0  1  0  0  0  0  0  0  0  0
   20.5365    1.8971  -10.6667 C   0  0  0  1  0  0  0  0  0  0  0  0
   20.8901    2.8821  -10.8897 H   0  0  0  1  0  0  0  0  0  0  0  0
   21.3178    1.3342  -10.2002 H   0  0  0  1  0  0  0  0  0  0  0  0
   19.4034    2.0219   -9.6836 C   0  0  0  1  0  0  0  0  0  0  0  0
   18.5076    2.4209  -10.0299 H   0  0  0  1  0  0  0  0  0  0  0  0
   19.4625    1.6604   -8.4064 C   0  0  0  1  0  0  0  0  0  0  0  0
   20.7473    1.3769   -7.6779 C   0  0  0  1  0  0  0  0  0  0  0  0
   20.9860    0.3409   -7.7988 H   0  0  0  1  0  0  0  0  0  0  0  0
   20.6046    1.5918   -6.6394 H   0  0  0  1  0  0  0  0  0  0  0  0
   18.2203    1.5042   -7.5751 C   0  0  0  1  0  0  0  0  0  0  0  0
   18.2079    0.5309   -7.1308 H   0  0  0  1  0  0  0  0  0  0  0  0
   17.3578    1.6230   -8.1972 H   0  0  0  1  0  0  0  0  0  0  0  0
   18.2107    2.2474   -6.8055 H   0  0  0  1  0  0  0  0  0  0  0  0
   21.9157    2.2051   -8.1871 C   0  0  0  1  0  0  0  0  0  0  0  0
   21.6879    3.2327   -7.9944 H   0  0  0  1  0  0  0  0  0  0  0  0
   21.9845    2.0465   -9.2430 H   0  0  0  1  0  0  0  0  0  0  0  0
   23.2611    1.9300   -7.6060 C   0  0  0  1  0  0  0  0  0  0  0  0
   23.8924    1.3575   -8.2021 H   0  0  0  1  0  0  0  0  0  0  0  0
   23.7728    2.3078   -6.4395 C   0  0  0  1  0  0  0  0  0  0  0  0
   22.9491    2.8513   -5.3028 C   0  0  0  1  0  0  0  0  0  0  0  0
   23.4940    2.6938   -4.3955 H   0  0  0  1  0  0  0  0  0  0  0  0
   22.0314    2.3022   -5.2682 H   0  0  0  1  0  0  0  0  0  0  0  0
   25.2470    2.2185   -6.1615 C   0  0  0  1  0  0  0  0  0  0  0  0
   25.4185    1.5296   -5.3609 H   0  0  0  1  0  0  0  0  0  0  0  0
   25.6170    3.1840   -5.8864 H   0  0  0  1  0  0  0  0  0  0  0  0
   25.7553    1.8781   -7.0394 H   0  0  0  1  0  0  0  0  0  0  0  0
   22.6078    4.3296   -5.3942 C   0  0  0  1  0  0  0  0  0  0  0  0
   22.6684    4.6304   -6.4193 H   0  0  0  1  0  0  0  0  0  0  0  0
   23.3215    4.8802   -4.8176 H   0  0  0  1  0  0  0  0  0  0  0  0
   21.2289    4.6493   -4.8817 C   0  0  0  1  0  0  0  0  0  0  0  0
   20.8963    4.3220   -3.9523 H   0  0  0  1  0  0  0  0  0  0  0  0
   20.4633    5.3744   -5.6883 C   0  0  0  1  0  0  0  0  0  0  0  0
   21.0447    6.1155   -6.8626 C   0  0  0  1  0  0  0  0  0  0  0  0
   20.3028    6.7972   -7.2228 H   0  0  0  1  0  0  0  0  0  0  0  0
   21.2722    5.3997   -7.6247 H   0  0  0  1  0  0  0  0  0  0  0  0
   18.9800    5.5284   -5.5207 C   0  0  0  1  0  0  0  0  0  0  0  0
   18.7377    5.5407   -4.4785 H   0  0  0  1  0  0  0  0  0  0  0  0
   18.4809    4.7081   -5.9929 H   0  0  0  1  0  0  0  0  0  0  0  0
   18.6637    6.4460   -5.9710 H   0  0  0  1  0  0  0  0  0  0  0  0
   22.3084    6.9084   -6.5716 C   0  0  0  1  0  0  0  0  0  0  0  0
   22.9933    6.2628   -6.0627 H   0  0  0  1  0  0  0  0  0  0  0  0
   22.0457    7.7254   -5.9326 H   0  0  0  1  0  0  0  0  0  0  0  0
   23.0093    7.4698   -7.7781 C   0  0  0  1  0  0  0  0  0  0  0  0
   23.2291    6.8145   -8.5552 H   0  0  0  1  0  0  0  0  0  0  0  0
   23.3686    8.7405   -7.9252 C   0  0  0  1  0  0  0  0  0  0  0  0
   23.8731    9.3195   -9.2150 C   0  0  0  1  0  0  0  0  0  0  0  0
   24.0577    8.5103   -9.8902 H   0  0  0  1  0  0  0  0  0  0  0  0
   24.7907    9.8307   -9.0108 H   0  0  0  1  0  0  0  0  0  0  0  0
   23.2949    9.7157   -6.7841 C   0  0  0  1  0  0  0  0  0  0  0  0
   22.6141   10.4774   -7.1024 H   0  0  0  1  0  0  0  0  0  0  0  0
   24.2595   10.1349   -6.5878 H   0  0  0  1  0  0  0  0  0  0  0  0
   22.9293    9.2323   -5.9023 H   0  0  0  1  0  0  0  0  0  0  0  0
   22.9340   10.2980   -9.9014 C   0  0  0  1  0  0  0  0  0  0  0  0
   22.6956   11.0814   -9.2127 H   0  0  0  1  0  0  0  0  0  0  0  0
   22.0397    9.7775  -10.1739 H   0  0  0  1  0  0  0  0  0  0  0  0
   23.5221   10.9087  -11.1310 C   0  0  0  1  0  0  0  0  0  0  0  0
   24.1219   11.7517  -11.0260 H   0  0  0  1  0  0  0  0  0  0  0  0
   23.3157   10.4259  -12.3577 C   0  0  0  1  0  0  0  0  0  0  0  0
   22.4759    9.2017  -12.5801 C   0  0  0  1  0  0  0  0  0  0  0  0
   21.5255    9.4883  -12.9794 H   0  0  0  1  0  0  0  0  0  0  0  0
   22.3329    8.6937  -11.6492 H   0  0  0  1  0  0  0  0  0  0  0  0
   22.9707    8.5505  -13.2700 H   0  0  0  1  0  0  0  0  0  0  0  0
   23.9182   11.0910  -13.5714 C   0  0  0  1  0  0  0  0  0  0  0  0
   24.9732   10.9152  -13.5411 H   0  0  0  1  0  0  0  0  0  0  0  0
   23.7218   12.1425  -13.5474 H   0  0  0  1  0  0  0  0  0  0  0  0
   23.5027   10.6702  -14.4631 H   0  0  0  1  0  0  0  0  0  0  0  0
   15.9943   -5.1018   -1.4323 C   0  0  0  1  0  0  0  0  0  0  0  0
   16.1089   -5.5729   -0.4784 H   0  0  0  1  0  0  0  0  0  0  0  0
   14.8643   -5.7558   -2.1859 C   0  0  0  1  0  0  0  0  0  0  0  0
   15.1264   -6.7708   -2.4002 H   0  0  0  1  0  0  0  0  0  0  0  0
   15.6939   -3.7202   -1.2493 O   0  0  0  1  0  0  0  0  0  0  0  0
   14.5929   -5.0230   -3.4939 C   0  0  0  1  0  0  0  0  0  0  0  0
   13.6940   -5.4081   -3.9282 H   0  0  0  1  0  0  0  0  0  0  0  0
   15.6118   -2.9811   -2.4821 C   0  0  0  1  0  0  0  0  0  0  0  0
   16.5127   -3.1111   -3.0445 H   0  0  0  1  0  0  0  0  0  0  0  0
   14.4314   -3.5169   -3.2690 C   0  0  0  1  0  0  0  0  0  0  0  0
   14.3821   -3.0206   -4.2157 H   0  0  0  1  0  0  0  0  0  0  0  0
   17.2010   -5.2328   -2.1748 O   0  0  0  1  0  0  0  0  0  0  0  0
   13.6851   -5.7278   -1.3796 O   0  0  0  1  0  0  0  0  0  0  0  0
   12.9678   -6.1636   -1.8456 H   0  0  0  1  0  0  0  0  0  0  0  0
   15.6801   -5.2434   -4.3806 O   0  0  0  1  0  0  0  0  0  0  0  0
   16.0881   -4.4032   -4.6024 H   0  0  0  1  0  0  0  0  0  0  0  0
   15.4085   -1.5136   -2.1878 C   0  0  0  1  0  0  0  0  0  0  0  0
   15.5035   -0.9512   -3.0931 H   0  0  0  1  0  0  0  0  0  0  0  0
   16.1459   -1.1854   -1.4853 H   0  0  0  1  0  0  0  0  0  0  0  0
   14.4320   -1.3645   -1.7764 H   0  0  0  1  0  0  0  0  0  0  0  0
   19.3617   -7.1801   -1.8985 C   0  0  0  1  0  0  0  0  0  0  0  0
   18.5584   -7.4187   -2.5638 H   0  0  0  1  0  0  0  0  0  0  0  0
   18.8592   -6.2705   -0.8108 C   0  0  0  1  0  0  0  0  0  0  0  0
   19.6525   -6.0694   -0.1215 H   0  0  0  1  0  0  0  0  0  0  0  0
   20.3915   -6.5282   -2.6166 O   0  0  0  1  0  0  0  0  0  0  0  0
   18.3791   -4.9795   -1.4079 C   0  0  0  1  0  0  0  0  0  0  0  0
   18.1507   -4.2949   -0.6179 H   0  0  0  1  0  0  0  0  0  0  0  0
   19.8906   -5.3815   -3.3268 C   0  0  0  1  0  0  0  0  0  0  0  0
   20.6674   -4.9615   -3.9310 H   0  0  0  1  0  0  0  0  0  0  0  0
   19.4258   -4.3618   -2.3055 C   0  0  0  1  0  0  0  0  0  0  0  0
   19.0064   -3.5175   -2.8117 H   0  0  0  1  0  0  0  0  0  0  0  0
   17.7603   -6.9164   -0.1111 N   0  0  0  1  0  0  0  0  0  0  0  0
   17.1508   -7.5089   -0.5990 H   0  0  0  1  0  0  0  0  0  0  0  0
   20.5388   -3.9398   -1.5159 O   0  0  0  1  0  0  0  0  0  0  0  0
   20.2823   -4.0601   -0.5986 H   0  0  0  1  0  0  0  0  0  0  0  0
   18.7376   -5.7879   -4.2026 C   0  0  0  1  0  0  0  0  0  0  0  0
   18.3809   -4.9240   -4.7235 H   0  0  0  1  0  0  0  0  0  0  0  0
   17.9574   -6.1790   -3.5835 H   0  0  0  1  0  0  0  0  0  0  0  0
   19.1024   -6.7771   -5.1560 O   0  0  0  1  0  0  0  0  0  0  0  0
   19.0973   -7.6318   -4.7189 H   0  0  0  1  0  0  0  0  0  0  0  0
   17.5789   -6.7031    1.2011 C   0  0  0  1  0  0  0  0  0  0  0  0
   18.3704   -6.0197    1.8492 O   0  0  0  1  0  0  0  0  0  0  0  0
   16.3786   -7.3241    1.8586 C   0  0  0  1  0  0  0  0  0  0  0  0
   16.6285   -7.3505    2.8987 H   0  0  0  1  0  0  0  0  0  0  0  0
   16.2111   -8.3125    1.4844 H   0  0  0  1  0  0  0  0  0  0  0  0
   15.5059   -6.7273    1.6942 H   0  0  0  1  0  0  0  0  0  0  0  0
  1  2  1  0  0  0  0
  1  3  1  0  0  0  0
  1  4  1  0  0  0  0
  1 44  1  0  0  0  0
  3 20  1  0  0  0  0
  4  5  1  0  0  0  0
  4  6  1  0  0  0  0
  4  8  1  0  0  0  0
  6  7  1  0  0  0  0
  8  9  1  0  0  0  0
  8 10  1  0  0  0  0
  8 20  1  0  0  0  0
 10 11  1  0  0  0  0
 12 13  1  0  0  0  0
 12 14  1  0  0  0  0
 12 15  1  0  0  0  0
 12 17  1  0  0  0  0
 15 16  1  0  0  0  0
 17 18  1  0  0  0  0
 17 19  1  0  0  0  0
 17 20  1  0  0  0  0
 19 22  1  0  0  0  0
 20 21  1  0  0  0  0
 22 23  1  0  0  0  0
 22 24  1  0  0  0  0
 22 25  1  0  0  0  0
 24 42  1  0  0  0  0
 25 26  1  0  0  0  0
 25 27  1  0  0  0  0
 25 29  1  0  0  0  0
 27 28  1  0  0  0  0
 29 30  1  0  0  0  0
 29 31  1  0  0  0  0
 29 42  1  0  0  0  0
 31 32  1  0  0  0  0
 33 34  1  0  0  0  0
 33 35  1  0  0  0  0
 33 36  1  0  0  0  0
 33 38  1  0  0  0  0
 36 37  1  0  0  0  0
 38 39  1  0  0  0  0
 38 40  1  0  0  0  0
 38 42  1  0  0  0  0
 40 41  1  0  0  0  0
 42 43  1  0  0  0  0
 44194  1  0  0  0  0
 45 46  1  0  0  0  0
 45 54  1  0  0  0  0
 46 47  1  0  0  0  0
 46 48  1  0  0  0  0
 46 49  2  0  0  0  0
 47 50  1  0  0  0  0
 50 51  1  0  0  0  0
 50 52  1  0  0  0  0
 50 53  2  0  0  0  0
 51205  1  0  0  0  0
 54 55  1  0  0  0  0
 54 56  1  0  0  0  0
 54 57  1  0  0  0  0
 57 58  1  0  0  0  0
 57 59  2  0  0  0  0
 59 60  1  0  0  0  0
 59 64  1  0  0  0  0
 60 61  1  0  0  0  0
 60 62  1  0  0  0  0
 60 63  1  0  0  0  0
 64 65  1  0  0  0  0
 64 66  1  0  0  0  0
 64 67  1  0  0  0  0
 67 68  1  0  0  0  0
 67 69  1  0  0  0  0
 67 70  1  0  0  0  0
 70 71  1  0  0  0  0
 70 72  2  0  0  0  0
 72 73  1  0  0  0  0
 72 77  1  0  0  0  0
 73 74  1  0  0  0  0
 73 75  1  0  0  0  0
 73 76  1  0  0  0  0
 77 78  1  0  0  0  0
 77 79  1  0  0  0  0
 77 80  1  0  0  0  0
 80 81  1  0  0  0  0
 80 82  1  0  0  0  0
 80 83  1  0  0  0  0
 83 84  1  0  0  0  0
 83 85  2  0  0  0  0
 85 86  1  0  0  0  0
 85 89  1  0  0  0  0
 86 87  1  0  0  0  0
 86 88  1  0  0  0  0
 86 93  1  0  0  0  0
 89 90  1  0  0  0  0
 89 91  1  0  0  0  0
 89 92  1  0  0  0  0
 93 94  1  0  0  0  0
 93 95  1  0  0  0  0
 93 96  1  0  0  0  0
 96 97  1  0  0  0  0
 96 98  2  0  0  0  0
 98 99  1  0  0  0  0
 98102  1  0  0  0  0
 99100  1  0  0  0  0
 99101  1  0  0  0  0
 99106  1  0  0  0  0
102103  1  0  0  0  0
102104  1  0  0  0  0
102105  1  0  0  0  0
106107  1  0  0  0  0
106108  1  0  0  0  0
106109  1  0  0  0  0
109110  1  0  0  0  0
109111  2  0  0  0  0
111112  1  0  0  0  0
111115  1  0  0  0  0
112113  1  0  0  0  0
112114  1  0  0  0  0
112119  1  0  0  0  0
115116  1  0  0  0  0
115117  1  0  0  0  0
115118  1  0  0  0  0
119120  1  0  0  0  0
119121  1  0  0  0  0
119122  1  0  0  0  0
122123  1  0  0  0  0
122124  2  0  0  0  0
124125  1  0  0  0  0
124128  1  0  0  0  0
125126  1  0  0  0  0
125127  1  0  0  0  0
125132  1  0  0  0  0
128129  1  0  0  0  0
128130  1  0  0  0  0
128131  1  0  0  0  0
132133  1  0  0  0  0
132134  1  0  0  0  0
132135  1  0  0  0  0
135136  1  0  0  0  0
135137  2  0  0  0  0
137138  1  0  0  0  0
137141  1  0  0  0  0
138139  1  0  0  0  0
138140  1  0  0  0  0
138145  1  0  0  0  0
141142  1  0  0  0  0
141143  1  0  0  0  0
141144  1  0  0  0  0
145146  1  0  0  0  0
145147  1  0  0  0  0
145148  1  0  0  0  0
148149  1  0  0  0  0
148150  2  0  0  0  0
150151  1  0  0  0  0
150154  1  0  0  0  0
151152  1  0  0  0  0
151153  1  0  0  0  0
151158  1  0  0  0  0
154155  1  0  0  0  0
154156  1  0  0  0  0
154157  1  0  0  0  0
158159  1  0  0  0  0
158160  1  0  0  0  0
158161  1  0  0  0  0
161162  1  0  0  0  0
161163  2  0  0  0  0
163164  1  0  0  0  0
163167  1  0  0  0  0
164165  1  0  0  0  0
164166  1  0  0  0  0
164171  1  0  0  0  0
167168  1  0  0  0  0
167169  1  0  0  0  0
167170  1  0  0  0  0
171172  1  0  0  0  0
171173  1  0  0  0  0
171174  1  0  0  0  0
174175  1  0  0  0  0
174176  2  0  0  0  0
176177  1  0  0  0  0
176181  1  0  0  0  0
177178  1  0  0  0  0
177179  1  0  0  0  0
177180  1  0  0  0  0
181182  1  0  0  0  0
181183  1  0  0  0  0
181184  1  0  0  0  0
185186  1  0  0  0  0
185187  1  0  0  0  0
185189  1  0  0  0  0
185196  1  0  0  0  0
187188  1  0  0  0  0
187190  1  0  0  0  0
187197  1  0  0  0  0
189192  1  0  0  0  0
190191  1  0  0  0  0
190194  1  0  0  0  0
190199  1  0  0  0  0
192193  1  0  0  0  0
192194  1  0  0  0  0
192201  1  0  0  0  0
194195  1  0  0  0  0
196210  1  0  0  0  0
197198  1  0  0  0  0
199200  1  0  0  0  0
201202  1  0  0  0  0
201203  1  0  0  0  0
201204  1  0  0  0  0
205206  1  0  0  0  0
205207  1  0  0  0  0
205209  1  0  0  0  0
207208  1  0  0  0  0
207210  1  0  0  0  0
207216  1  0  0  0  0
209212  1  0  0  0  0
210211  1  0  0  0  0
210214  1  0  0  0  0
212213  1  0  0  0  0
212214  1  0  0  0  0
212220  1  0  0  0  0
214215  1  0  0  0  0
214218  1  0  0  0  0
216217  1  0  0  0  0
216225  1  0  0  0  0
218219  1  0  0  0  0
220221  1  0  0  0  0
220222  1  0  0  0  0
220223  1  0  0  0  0
223224  1  0  0  0  0
225226  2  0  0  0  0
225227  1  0  0  0  0
227228  1  0  0  0  0
227229  1  0  0  0  0
227230  1  0  0  0  0
M  BCL ATM C_TeTeTeTe H_S O_Te2Te2TeTe C_TeTeTeTe H_S O_Te2Te2TeTe H_S C_TeTeTeTe H_S O_Te2Te2TeTe H_S C_TeTeTeTe H_S H_S O_Te2Te2TeTe H_S C_TeTeTeTe H_S O_Te2Te2TeTe C_TeTeTeTe H_S C_TeTeTeTe H_S O_Te2Te2TeTe C_TeTeTeTe H_S O_Te2Te2TeTe H_S C_TeTeTeTe H_S O_Te2Te2TeTe H_S C_TeTeTeTe H_S H_S O_Te2Te2TeTe H_S C_TeTeTeTe H_S O_Te2Te2TeTe H_S C_TeTeTeTe H_S O_Te2Te2TeTe O_Tr2TrTrPi2 P_TeTeTeTePi O_Tr2TrTrPi2 O_Te2Te2TeTe O_Tr2Tr2TrPi P_TeTeTeTePi O_Tr2TrTrPi2 O_Te2Te2TeTe O_Tr2Tr2TrPi C_TeTeTeTe H_S H_S C_TrTrTrPi H_S C_TrTrTrPi C_TeTeTeTe H_S H_S H_S C_TeTeTeTe H_S H_S C_TeTeTeTe H_S H_S C_TrTrTrPi H_S C_TrTrTrPi C_TeTeTeTe H_S H_S H_S C_TeTeTeTe H_S H_S C_TeTeTeTe H_S H_S C_TrTrTrPi H_S C_TrTrTrPi C_TeTeTeTe H_S H_S C_TeTeTeTe H_S H_S H_S C_TeTeTeTe H_S H_S C_TrTrTrPi H_S C_TrTrTrPi C_TeTeTeTe H_S H_S C_TeTeTeTe H_S H_S H_S C_TeTeTeTe H_S H_S C_TrTrTrPi H_S C_TrTrTrPi C_TeTeTeTe H_S H_S C_TeTeTeTe H_S H_S H_S C_TeTeTeTe H_S H_S C_TrTrTrPi H_S C_TrTrTrPi C_TeTeTeTe H_S H_S C_TeTeTeTe H_S H_S H_S C_TeTeTeTe H_S H_S C_TrTrTrPi H_S C_TrTrTrPi C_TeTeTeTe H_S H_S C_TeTeTeTe H_S H_S H_S C_TeTeTeTe H_S H_S C_TrTrTrPi H_S C_TrTrTrPi C_TeTeTeTe H_S H_S C_TeTeTeTe H_S H_S H_S C_TeTeTeTe H_S H_S C_TrTrTrPi H_S C_TrTrTrPi C_TeTeTeTe H_S H_S C_TeTeTeTe H_S H_S H_S C_TeTeTeTe H_S H_S C_TrTrTrPi H_S C_TrTrTrPi C_TeTeTeTe H_S H_S H_S C_TeTeTeTe H_S H_S H_S C_TeTeTeTe H_S C_TeTeTeTe H_S O_Te2Te2TeTe C_TeTeTeTe H_S C_TeTeTeTe H_S C_TeTeTeTe H_S O_Te2Te2TeTe O_Te2Te2TeTe H_S O_Te2Te2TeTe H_S C_TeTeTeTe H_S H_S H_S C_TeTeTeTe H_S C_TeTeTeTe H_S O_Te2Te2TeTe C_TeTeTeTe H_S C_TeTeTeTe H_S C_TeTeTeTe H_S N_TrTrTrPi2 H_S O_Te2Te2TeTe H_S C_TeTeTeTe H_S H_S O_Te2Te2TeTe H_S C_TrTrTrPi O_Tr2Tr2TrPi C_TeTeTeTe H_S H_S H_S
M  BCL BND NonConjugatedSingleBond NonConjugatedSingleBondInRing NonConjugatedSingleBondInRing NonConjugatedSingleBond NonConjugatedSingleBondInRing NonConjugatedSingleBond NonConjugatedSingleBond NonConjugatedSingleBondInRing NonConjugatedSingleBond NonConjugatedSingleBond NonConjugatedSingleBond NonConjugatedSingleBondInRing NonConjugatedSingleBond NonConjugatedSingleBond NonConjugatedSingleBond NonConjugatedSingleBond NonConjugatedSingleBond NonConjugatedSingleBond NonConjugatedSingleBond NonConjugatedSingleBond NonConjugatedSingleBond NonConjugatedSingleBond NonConjugatedSingleBond NonConjugatedSingleBond NonConjugatedSingleBondInRing NonConjugatedSingleBondInRing NonConjugatedSingleBondInRing NonConjugatedSingleBond NonConjugatedSingleBond NonConjugatedSingleBondInRing NonConjugatedSingleBond NonConjugatedSingleBond NonConjugatedSingleBond NonConjugatedSingleBondInRing NonConjugatedSingleBond NonConjugatedSingleBond NonConjugatedSingleBond NonConjugatedSingleBond NonConjugatedSingleBond NonConjugatedSingleBond NonConjugatedSingleBond NonConjugatedSingleBond NonConjugatedSingleBond NonConjugatedSingleBond NonConjugatedSingleBond NonConjugatedSingleBond ConjugatedSingleBond NonConjugatedSingleBond ConjugatedSingleBond ConjugatedSingleBond ConjugatedDoubleBond ConjugatedSingleBond ConjugatedSingleBond ConjugatedSingleBond ConjugatedDoubleBond NonConjugatedSingleBond NonConjugatedSingleBond NonConjugatedSingleBond NonConjugatedSingleBond NonConjugatedSingleBond ConjugatedDoubleBond NonConjugatedSingleBond NonConjugatedSingleBond NonConjugatedSingleBond NonConjugatedSingleBond NonConjugatedSingleBond NonConjugatedSingleBond NonConjugatedSingleBond NonConjugatedSingleBond NonConjugatedSingleBond NonConjugatedSingleBond NonConjugatedSingleBond NonConjugatedSingleBond ConjugatedDoubleBond NonConjugatedSingleBond NonConjugatedSingleBond NonConjugatedSingleBond NonConjugatedSingleBond NonConjugatedSingleBond NonConjugatedSingleBond NonConjugatedSingleBond NonConjugatedSingleBond NonConjugatedSingleBond NonConjugatedSingleBond NonConjugatedSingleBond NonConjugatedSingleBond ConjugatedDoubleBond NonConjugatedSingleBond NonConjugatedSingleBond NonConjugatedSingleBond NonConjugatedSingleBond NonConjugatedSingleBond NonConjugatedSingleBond NonConjugatedSingleBond NonConjugatedSingleBond NonConjugatedSingleBond NonConjugatedSingleBond NonConjugatedSingleBond NonConjugatedSingleBond ConjugatedDoubleBond NonConjugatedSingleBond NonConjugatedSingleBond NonConjugatedSingleBond NonConjugatedSingleBond NonConjugatedSingleBond NonConjugatedSingleBond NonConjugatedSingleBond NonConjugatedSingleBond NonConjugatedSingleBond NonConjugatedSingleBond NonConjugatedSingleBond NonConjugatedSingleBond ConjugatedDoubleBond NonConjugatedSingleBond NonConjugatedSingleBond NonConjugatedSingleBond NonConjugatedSingleBond NonConjugatedSingleBond NonConjugatedSingleBond NonConjugatedSingleBond NonConjugatedSingleBond NonConjugatedSingleBond NonConjugatedSingleBond NonConjugatedSingleBond NonConjugatedSingleBond ConjugatedDoubleBond NonConjugatedSingleBond NonConjugatedSingleBond NonConjugatedSingleBond NonConjugatedSingleBond NonConjugatedSingleBond NonConjugatedSingleBond NonConjugatedSingleBond NonConjugatedSingleBond NonConjugatedSingleBond NonConjugatedSingleBond NonConjugatedSingleBond NonConjugatedSingleBond ConjugatedDoubleBond NonConjugatedSingleBond NonConjugatedSingleBond NonConjugatedSingleBond NonConjugatedSingleBond NonConjugatedSingleBond NonConjugatedSingleBond NonConjugatedSingleBond NonConjugatedSingleBond NonConjugatedSingleBond NonConjugatedSingleBond NonConjugatedSingleBond NonConjugatedSingleBond ConjugatedDoubleBond NonConjugatedSingleBond NonConjugatedSingleBond NonConjugatedSingleBond NonConjugatedSingleBond NonConjugatedSingleBond NonConjugatedSingleBond NonConjugatedSingleBond NonConjugatedSingleBond NonConjugatedSingleBond NonConjugatedSingleBond NonConjugatedSingleBond NonConjugatedSingleBond ConjugatedDoubleBond NonConjugatedSingleBond NonConjugatedSingleBond NonConjugatedSingleBond NonConjugatedSingleBond NonConjugatedSingleBond NonConjugatedSingleBond NonConjugatedSingleBond NonConjugatedSingleBond NonConjugatedSingleBond NonConjugatedSingleBond NonConjugatedSingleBond NonConjugatedSingleBond ConjugatedDoubleBond NonConjugatedSingleBond NonConjugatedSingleBond NonConjugatedSingleBond NonConjugatedSingleBond NonConjugatedSingleBond NonConjugatedSingleBond NonConjugatedSingleBond NonConjugatedSingleBond NonConjugatedSingleBond NonConjugatedSingleBondInRing NonConjugatedSingleBondInRing NonConjugatedSingleBond NonConjugatedSingleBond NonConjugatedSingleBondInRing NonConjugatedSingleBond NonConjugatedSingleBondInRing NonConjugatedSingleBond NonConjugatedSingleBondInRing NonConjugatedSingleBond NonConjugatedSingleBond NonConjugatedSingleBondInRing NonConjugatedSingleBond NonConjugatedSingleBond NonConjugatedSingleBond NonConjugatedSingleBond NonConjugatedSingleBond NonConjugatedSingleBond NonConjugatedSingleBond NonConjugatedSingleBond NonConjugatedSingleBond NonConjugatedSingleBondInRing NonConjugatedSingleBondInRing NonConjugatedSingleBond NonConjugatedSingleBondInRing NonConjugatedSingleBond NonConjugatedSingleBondInRing NonConjugatedSingleBond NonConjugatedSingleBondInRing NonConjugatedSingleBond NonConjugatedSingleBondInRing NonConjugatedSingleBond NonConjugatedSingleBond NonConjugatedSingleBond NonConjugatedSingleBond AmideSingleBond NonConjugatedSingleBond NonConjugatedSingleBond NonConjugatedSingleBond NonConjugatedSingleBond NonConjugatedSingleBond ConjugatedDoubleBond NonConjugatedSingleBond NonConjugatedSingleBond NonConjugatedSingleBond NonConjugatedSingleBond
M  BCL CHI   1   R   4   R   8   R  17   S  20   R  22   S  25   R  29   S  38   S  42   R  46   R  50   S 185   R 187   S 190   S 192   R 194   R 205   R 207   S 210   R 212   S 214   S
M  BCL DBI - - E E E E E E E E Z - -
M  END
> <ConfClashScore>
0.0160597 

> <ConfOneFourInteractionScore>
-0.97371 

> <ConfScore>
1.72164 

> <ConfScorePBest>
0.00716747 

> <ConfTolerance>
3.74368 

$$$$
L05.****
  PyMOL2.5          3D                             0

230233  0  0  0  0  0  0  0  0999 V2000
   13.4023   -3.0482   -1.2076 C   0  0  0  1  0  0  0  0  0  0  0  0
   14.3105   -2.5355   -0.9682 H   0  0  0  1  0  0  0  0  0  0  0  0
   13.3834   -4.3251   -0.6050 O   0  0  0  1  0  0  0  0  0  0  0  0
   12.2084   -2.3091   -0.6310 C   0  0  0  1  0  0  0  0  0  0  0  0
   11.8399   -1.5747   -1.3164 H   0  0  0  1  0  0  0  0  0  0  0  0
   12.5388   -1.6810    0.6092 O   0  0  0  1  0  0  0  0  0  0  0  0
   11.8689   -1.8918    1.2637 H   0  0  0  1  0  0  0  0  0  0  0  0
   11.2085   -3.4187   -0.4310 C   0  0  0  1  0  0  0  0  0  0  0  0
   10.4790   -3.1584    0.3073 H   0  0  0  1  0  0  0  0  0  0  0  0
   10.5507   -3.7543   -1.6537 O   0  0  0  1  0  0  0  0  0  0  0  0
   11.1362   -4.2871   -2.1968 H   0  0  0  1  0  0  0  0  0  0  0  0
   13.6870   -4.1857    1.9951 C   0  0  0  1  0  0  0  0  0  0  0  0
   13.9750   -3.2306    1.6080 H   0  0  0  1  0  0  0  0  0  0  0  0
   13.7513   -4.1722    3.0631 H   0  0  0  1  0  0  0  0  0  0  0  0
   14.5376   -5.2001    1.4695 O   0  0  0  1  0  0  0  0  0  0  0  0
   15.2176   -5.4131    2.1128 H   0  0  0  1  0  0  0  0  0  0  0  0
   12.2646   -4.5134    1.5644 C   0  0  0  1  0  0  0  0  0  0  0  0
   11.6276   -3.7368    1.9334 H   0  0  0  1  0  0  0  0  0  0  0  0
   11.8744   -5.7480    2.1545 O   0  0  0  1  0  0  0  0  0  0  0  0
   12.1066   -4.5576    0.0499 C   0  0  0  1  0  0  0  0  0  0  0  0
   11.7016   -5.5048   -0.2395 H   0  0  0  1  0  0  0  0  0  0  0  0
   10.5770   -6.1887    1.9752 C   0  0  0  1  0  0  0  0  0  0  0  0
   10.0579   -5.5160    1.3249 H   0  0  0  1  0  0  0  0  0  0  0  0
   10.5617   -7.5451    1.4349 O   0  0  0  1  0  0  0  0  0  0  0  0
    9.8638   -6.3075    3.3025 C   0  0  0  1  0  0  0  0  0  0  0  0
    8.8055   -6.2103    3.1779 H   0  0  0  1  0  0  0  0  0  0  0  0
   10.3285   -5.3181    4.2220 O   0  0  0  1  0  0  0  0  0  0  0  0
    9.9219   -4.4732    4.0162 H   0  0  0  1  0  0  0  0  0  0  0  0
   10.2321   -7.7179    3.7821 C   0  0  0  1  0  0  0  0  0  0  0  0
    9.4430   -8.1455    4.3646 H   0  0  0  1  0  0  0  0  0  0  0  0
   11.4336   -7.7024    4.5476 O   0  0  0  1  0  0  0  0  0  0  0  0
   11.3231   -7.1238    5.3056 H   0  0  0  1  0  0  0  0  0  0  0  0
    7.9256   -8.5733    2.0800 C   0  0  0  1  0  0  0  0  0  0  0  0
    7.7566   -8.0312    2.9869 H   0  0  0  1  0  0  0  0  0  0  0  0
    8.0042   -7.8870    1.2629 H   0  0  0  1  0  0  0  0  0  0  0  0
    6.8391   -9.4588    1.8500 O   0  0  0  1  0  0  0  0  0  0  0  0
    6.1612   -9.0088    1.3406 H   0  0  0  1  0  0  0  0  0  0  0  0
    9.2173   -9.3676    2.1991 C   0  0  0  1  0  0  0  0  0  0  0  0
    9.3768   -9.8979    1.2836 H   0  0  0  1  0  0  0  0  0  0  0  0
    9.0361  -10.2935    3.2698 O   0  0  0  1  0  0  0  0  0  0  0  0
    9.5522  -11.0849    3.0998 H   0  0  0  1  0  0  0  0  0  0  0  0
   10.4252   -8.4842    2.4639 C   0  0  0  1  0  0  0  0  0  0  0  0
   11.3051   -9.0902    2.5216 H   0  0  0  1  0  0  0  0  0  0  0  0
   13.2803   -3.1637   -2.6206 O   0  0  0  1  0  0  0  0  0  0  0  0
   20.1773   -9.6602   -7.2918 O   0  0  0  1  0  0  0  0  0  0  0  0
   20.7719   -9.6175   -5.8018 P   0  0  0  1  0  0  0  0  0  0  0  0
   20.9038   -8.0233   -5.5599 O   0  0  0  1  0  0  0  0  0  0  0  0
   22.1032  -10.2718   -5.8030 O   0  0  0  0  0  0  0  0  0  0  0  0
   19.7531  -10.1010   -4.8691 O   0  0  0  1  0  0  0  0  0  0  0  0
   21.7196   -7.4221   -4.3456 P   0  0  0  1  0  0  0  0  0  0  0  0
   20.6537   -7.3604   -3.1897 O   0  0  0  1  0  0  0  0  0  0  0  0
   22.1123   -6.0071   -4.7392 O   0  0  0  0  0  0  0  0  0  0  0  0
   22.8315   -8.3312   -3.9331 O   0  0  0  1  0  0  0  0  0  0  0  0
   19.0899   -8.8289   -7.7278 C   0  0  0  1  0  0  0  0  0  0  0  0
   19.2772   -7.8136   -7.4468 H   0  0  0  1  0  0  0  0  0  0  0  0
   18.1784   -9.1619   -7.2771 H   0  0  0  1  0  0  0  0  0  0  0  0
   18.9810   -8.9281   -9.2210 C   0  0  0  1  0  0  0  0  0  0  0  0
   18.1765   -9.4729   -9.5920 H   0  0  0  1  0  0  0  0  0  0  0  0
   19.8002   -8.3958  -10.1200 C   0  0  0  1  0  0  0  0  0  0  0  0
   19.4083   -8.2865  -11.5664 C   0  0  0  1  0  0  0  0  0  0  0  0
   19.7034   -9.1750  -12.0845 H   0  0  0  1  0  0  0  0  0  0  0  0
   19.8947   -7.4402  -12.0045 H   0  0  0  1  0  0  0  0  0  0  0  0
   18.3476   -8.1666  -11.6401 H   0  0  0  1  0  0  0  0  0  0  0  0
   21.1694   -7.8605   -9.7963 C   0  0  0  1  0  0  0  0  0  0  0  0
   21.8879   -8.3763  -10.3984 H   0  0  0  1  0  0  0  0  0  0  0  0
   21.3715   -8.0453   -8.7619 H   0  0  0  1  0  0  0  0  0  0  0  0
   21.3022   -6.3688  -10.0561 C   0  0  0  1  0  0  0  0  0  0  0  0
   20.5500   -5.8660   -9.4849 H   0  0  0  1  0  0  0  0  0  0  0  0
   21.1320   -6.1989  -11.0987 H   0  0  0  1  0  0  0  0  0  0  0  0
   22.6343   -5.7683   -9.6996 C   0  0  0  1  0  0  0  0  0  0  0  0
   23.0528   -6.0716   -8.7972 H   0  0  0  1  0  0  0  0  0  0  0  0
   23.3343   -4.8925  -10.4126 C   0  0  0  1  0  0  0  0  0  0  0  0
   24.7828   -4.5816  -10.1621 C   0  0  0  1  0  0  0  0  0  0  0  0
   24.8708   -3.5988   -9.7483 H   0  0  0  1  0  0  0  0  0  0  0  0
   25.3223   -4.6294  -11.0849 H   0  0  0  1  0  0  0  0  0  0  0  0
   25.1868   -5.2953   -9.4749 H   0  0  0  1  0  0  0  0  0  0  0  0
   22.7141   -4.1290  -11.5503 C   0  0  0  1  0  0  0  0  0  0  0  0
   21.6730   -4.3737  -11.5833 H   0  0  0  1  0  0  0  0  0  0  0  0
   23.1848   -4.4474  -12.4569 H   0  0  0  1  0  0  0  0  0  0  0  0
   22.8377   -2.6165  -11.4640 C   0  0  0  1  0  0  0  0  0  0  0  0
   23.8737   -2.3555  -11.5236 H   0  0  0  1  0  0  0  0  0  0  0  0
   22.4421   -2.2956  -10.5230 H   0  0  0  1  0  0  0  0  0  0  0  0
   22.1040   -1.9054  -12.5563 C   0  0  0  1  0  0  0  0  0  0  0  0
   22.3385   -2.1845  -13.5304 H   0  0  0  1  0  0  0  0  0  0  0  0
   21.1851   -0.9557  -12.4173 C   0  0  0  1  0  0  0  0  0  0  0  0
   20.4961   -0.6444  -11.1156 C   0  0  0  1  0  0  0  0  0  0  0  0
   20.7326   -1.4242  -10.4222 H   0  0  0  1  0  0  0  0  0  0  0  0
   19.4413   -0.6336  -11.2948 H   0  0  0  1  0  0  0  0  0  0  0  0
   20.7558   -0.1026  -13.5752 C   0  0  0  1  0  0  0  0  0  0  0  0
   21.2484    0.8458  -13.5220 H   0  0  0  1  0  0  0  0  0  0  0  0
   19.6965    0.0433  -13.5369 H   0  0  0  1  0  0  0  0  0  0  0  0
   21.0165   -0.5888  -14.4920 H   0  0  0  1  0  0  0  0  0  0  0  0
   20.8769    0.6817  -10.4777 C   0  0  0  1  0  0  0  0  0  0  0  0
   20.5805    1.4730  -11.1341 H   0  0  0  1  0  0  0  0  0  0  0  0
   21.9387    0.7045  -10.3475 H   0  0  0  1  0  0  0  0  0  0  0  0
   20.2294    0.8992   -9.1471 C   0  0  0  1  0  0  0  0  0  0  0  0
   19.5677    0.1541   -8.8494 H   0  0  0  1  0  0  0  0  0  0  0  0
   20.3744    1.9033   -8.2890 C   0  0  0  1  0  0  0  0  0  0  0  0
   21.2803    3.0783   -8.5260 C   0  0  0  1  0  0  0  0  0  0  0  0
   20.6954    3.9733   -8.4835 H   0  0  0  1  0  0  0  0  0  0  0  0
   21.7156    2.9819   -9.4987 H   0  0  0  1  0  0  0  0  0  0  0  0
   19.6263    1.9391   -6.9885 C   0  0  0  1  0  0  0  0  0  0  0  0
   19.7195    2.9104   -6.5495 H   0  0  0  1  0  0  0  0  0  0  0  0
   20.0331    1.2066   -6.3230 H   0  0  0  1  0  0  0  0  0  0  0  0
   18.5929    1.7258   -7.1658 H   0  0  0  1  0  0  0  0  0  0  0  0
   22.3998    3.1829   -7.5032 C   0  0  0  1  0  0  0  0  0  0  0  0
   23.0273    4.0080   -7.7683 H   0  0  0  1  0  0  0  0  0  0  0  0
   22.9700    2.2779   -7.5287 H   0  0  0  1  0  0  0  0  0  0  0  0
   21.8983    3.3939   -6.0997 C   0  0  0  1  0  0  0  0  0  0  0  0
   21.3949    4.2810   -5.8968 H   0  0  0  1  0  0  0  0  0  0  0  0
   22.0518    2.5272   -5.0959 C   0  0  0  1  0  0  0  0  0  0  0  0
   22.9504    1.3271   -5.2311 C   0  0  0  1  0  0  0  0  0  0  0  0
   23.4683    1.3929   -6.1651 H   0  0  0  1  0  0  0  0  0  0  0  0
   22.3447    0.4451   -5.2198 H   0  0  0  1  0  0  0  0  0  0  0  0
   21.3965    2.7879   -3.7540 C   0  0  0  1  0  0  0  0  0  0  0  0
   21.1498    3.8259   -3.6727 H   0  0  0  1  0  0  0  0  0  0  0  0
   22.0725    2.5196   -2.9692 H   0  0  0  1  0  0  0  0  0  0  0  0
   20.5047    2.2022   -3.6731 H   0  0  0  1  0  0  0  0  0  0  0  0
   23.9770    1.2233   -4.1150 C   0  0  0  1  0  0  0  0  0  0  0  0
   23.4610    1.0626   -3.1915 H   0  0  0  1  0  0  0  0  0  0  0  0
   24.5202    2.1438   -4.0652 H   0  0  0  1  0  0  0  0  0  0  0  0
   24.9510    0.1061   -4.3168 C   0  0  0  1  0  0  0  0  0  0  0  0
   25.6211    0.1715   -5.1094 H   0  0  0  1  0  0  0  0  0  0  0  0
   25.0021   -0.9658   -3.5332 C   0  0  0  1  0  0  0  0  0  0  0  0
   24.3342   -1.0488   -2.1867 C   0  0  0  1  0  0  0  0  0  0  0  0
   23.7888   -0.1433   -2.0208 H   0  0  0  1  0  0  0  0  0  0  0  0
   25.0907   -1.1525   -1.4372 H   0  0  0  1  0  0  0  0  0  0  0  0
   25.7471   -2.2022   -3.9420 C   0  0  0  1  0  0  0  0  0  0  0  0
   25.2870   -3.0598   -3.4974 H   0  0  0  1  0  0  0  0  0  0  0  0
   26.7627   -2.1317   -3.6128 H   0  0  0  1  0  0  0  0  0  0  0  0
   25.7228   -2.2970   -5.0076 H   0  0  0  1  0  0  0  0  0  0  0  0
   23.3734   -2.2208   -2.0699 C   0  0  0  1  0  0  0  0  0  0  0  0
   23.9339   -3.1219   -2.2062 H   0  0  0  1  0  0  0  0  0  0  0  0
   22.6466   -2.1307   -2.8500 H   0  0  0  1  0  0  0  0  0  0  0  0
   22.6443   -2.3237   -0.7705 C   0  0  0  1  0  0  0  0  0  0  0  0
   22.1369   -1.4860   -0.4206 H   0  0  0  1  0  0  0  0  0  0  0  0
   22.6118   -3.4329   -0.0396 C   0  0  0  1  0  0  0  0  0  0  0  0
   23.0135   -4.7875   -0.5590 C   0  0  0  1  0  0  0  0  0  0  0  0
   23.6126   -4.6523   -1.4352 H   0  0  0  1  0  0  0  0  0  0  0  0
   22.1276   -5.3314   -0.8126 H   0  0  0  1  0  0  0  0  0  0  0  0
   22.1611   -3.4171    1.3939 C   0  0  0  1  0  0  0  0  0  0  0  0
   21.6810   -4.3444    1.6276 H   0  0  0  1  0  0  0  0  0  0  0  0
   21.4722   -2.6119    1.5421 H   0  0  0  1  0  0  0  0  0  0  0  0
   23.0090   -3.2839    2.0327 H   0  0  0  1  0  0  0  0  0  0  0  0
   23.8081   -5.6004    0.4499 C   0  0  0  1  0  0  0  0  0  0  0  0
   24.4381   -6.2821   -0.0824 H   0  0  0  1  0  0  0  0  0  0  0  0
   23.1224   -6.1501    1.0602 H   0  0  0  1  0  0  0  0  0  0  0  0
   24.6695   -4.7509    1.3435 C   0  0  0  1  0  0  0  0  0  0  0  0
   24.8255   -3.7687    1.0396 H   0  0  0  1  0  0  0  0  0  0  0  0
   25.2551   -5.1209    2.4839 C   0  0  0  1  0  0  0  0  0  0  0  0
   25.3852   -6.5732    2.8580 C   0  0  0  1  0  0  0  0  0  0  0  0
   24.6899   -7.1389    2.2737 H   0  0  0  1  0  0  0  0  0  0  0  0
   25.1494   -6.6799    3.8962 H   0  0  0  1  0  0  0  0  0  0  0  0
   25.8076   -4.1042    3.4395 C   0  0  0  1  0  0  0  0  0  0  0  0
   26.7202   -4.4698    3.8619 H   0  0  0  1  0  0  0  0  0  0  0  0
   25.0987   -3.9276    4.2213 H   0  0  0  1  0  0  0  0  0  0  0  0
   25.9979   -3.1902    2.9168 H   0  0  0  1  0  0  0  0  0  0  0  0
   26.7806   -7.1267    2.6194 C   0  0  0  1  0  0  0  0  0  0  0  0
   27.0850   -6.8170    1.6415 H   0  0  0  1  0  0  0  0  0  0  0  0
   26.7113   -8.1940    2.6506 H   0  0  0  1  0  0  0  0  0  0  0  0
   27.8654   -6.7175    3.5795 C   0  0  0  1  0  0  0  0  0  0  0  0
   27.9816   -5.6966    3.7400 H   0  0  0  1  0  0  0  0  0  0  0  0
   28.6899   -7.5186    4.2436 C   0  0  0  1  0  0  0  0  0  0  0  0
   29.9301   -6.9874    4.9083 C   0  0  0  1  0  0  0  0  0  0  0  0
   30.2394   -6.0925    4.4098 H   0  0  0  1  0  0  0  0  0  0  0  0
   30.7063   -7.7207    4.8400 H   0  0  0  1  0  0  0  0  0  0  0  0
   28.4786   -8.9985    4.3979 C   0  0  0  1  0  0  0  0  0  0  0  0
   28.9937   -9.2688    5.2960 H   0  0  0  1  0  0  0  0  0  0  0  0
   28.8873   -9.5238    3.5600 H   0  0  0  1  0  0  0  0  0  0  0  0
   27.4354   -9.2202    4.4841 H   0  0  0  1  0  0  0  0  0  0  0  0
   29.6658   -6.6763    6.3724 C   0  0  0  1  0  0  0  0  0  0  0  0
   29.0600   -7.4623    6.7727 H   0  0  0  1  0  0  0  0  0  0  0  0
   29.1296   -5.7517    6.4218 H   0  0  0  1  0  0  0  0  0  0  0  0
   30.8907   -6.5491    7.2358 C   0  0  0  1  0  0  0  0  0  0  0  0
   31.5446   -7.3578    7.2348 H   0  0  0  1  0  0  0  0  0  0  0  0
   31.2293   -5.5116    8.0027 C   0  0  0  1  0  0  0  0  0  0  0  0
   30.4088   -4.2344    7.9712 C   0  0  0  1  0  0  0  0  0  0  0  0
   30.6053   -3.7060    7.0617 H   0  0  0  1  0  0  0  0  0  0  0  0
   30.6746   -3.6193    8.8053 H   0  0  0  1  0  0  0  0  0  0  0  0
   29.3682   -4.4779    8.0241 H   0  0  0  1  0  0  0  0  0  0  0  0
   32.4575   -5.5385    8.8255 C   0  0  0  1  0  0  0  0  0  0  0  0
   32.1819   -5.2560    9.8201 H   0  0  0  1  0  0  0  0  0  0  0  0
   33.1748   -4.8474    8.4345 H   0  0  0  1  0  0  0  0  0  0  0  0
   32.8749   -6.5237    8.8274 H   0  0  0  1  0  0  0  0  0  0  0  0
   16.0301   -5.0513   -1.4269 C   0  0  0  1  0  0  0  0  0  0  0  0
   16.1852   -5.5324   -0.4839 H   0  0  0  1  0  0  0  0  0  0  0  0
   14.8517   -5.7010   -2.1406 C   0  0  0  1  0  0  0  0  0  0  0  0
   15.0694   -6.7308   -2.3330 H   0  0  0  1  0  0  0  0  0  0  0  0
   15.7528   -3.6650   -1.2146 O   0  0  0  1  0  0  0  0  0  0  0  0
   14.6204   -4.9657   -3.4645 C   0  0  0  1  0  0  0  0  0  0  0  0
   13.7142   -5.3270   -3.9042 H   0  0  0  1  0  0  0  0  0  0  0  0
   15.6638   -2.9317   -2.4461 C   0  0  0  1  0  0  0  0  0  0  0  0
   16.5767   -3.0439   -2.9929 H   0  0  0  1  0  0  0  0  0  0  0  0
   14.5073   -3.4623   -3.2802 C   0  0  0  1  0  0  0  0  0  0  0  0
   14.5211   -2.9893   -4.2399 H   0  0  0  1  0  0  0  0  0  0  0  0
   17.2000   -5.1839   -2.2259 O   0  0  0  1  0  0  0  0  0  0  0  0
   13.6822   -5.6050   -1.3254 O   0  0  0  1  0  0  0  0  0  0  0  0
   13.0290   -6.2410   -1.6260 H   0  0  0  1  0  0  0  0  0  0  0  0
   15.7103   -5.2377   -4.3334 O   0  0  0  1  0  0  0  0  0  0  0  0
   15.3837   -5.3636   -5.2274 H   0  0  0  1  0  0  0  0  0  0  0  0
   15.4341   -1.4704   -2.1434 C   0  0  0  1  0  0  0  0  0  0  0  0
   16.0875   -0.8740   -2.7452 H   0  0  0  1  0  0  0  0  0  0  0  0
   15.6341   -1.2850   -1.1088 H   0  0  0  1  0  0  0  0  0  0  0  0
   14.4178   -1.2167   -2.3618 H   0  0  0  1  0  0  0  0  0  0  0  0
   19.7724   -6.2692   -3.0786 C   0  0  0  1  0  0  0  0  0  0  0  0
   18.9308   -6.4229   -3.7214 H   0  0  0  1  0  0  0  0  0  0  0  0
   19.3012   -6.1473   -1.6552 C   0  0  0  1  0  0  0  0  0  0  0  0
   20.1473   -6.0389   -1.0093 H   0  0  0  1  0  0  0  0  0  0  0  0
   20.4423   -5.0813   -3.4542 O   0  0  0  1  0  0  0  0  0  0  0  0
   18.4103   -4.9473   -1.5146 C   0  0  0  1  0  0  0  0  0  0  0  0
   18.1917   -4.7962   -0.4781 H   0  0  0  1  0  0  0  0  0  0  0  0
   19.5433   -3.9582   -3.4810 C   0  0  0  1  0  0  0  0  0  0  0  0
   20.0530   -3.0944   -3.8537 H   0  0  0  1  0  0  0  0  0  0  0  0
   19.0674   -3.7027   -2.0643 C   0  0  0  1  0  0  0  0  0  0  0  0
   18.3609   -2.8991   -2.0662 H   0  0  0  1  0  0  0  0  0  0  0  0
   18.5582   -7.3473   -1.2871 N   0  0  0  1  0  0  0  0  0  0  0  0
   18.4451   -7.5424   -0.3334 H   0  0  0  1  0  0  0  0  0  0  0  0
   20.1802   -3.3552   -1.2470 O   0  0  0  1  0  0  0  0  0  0  0  0
   20.4884   -4.1714   -0.8464 H   0  0  0  1  0  0  0  0  0  0  0  0
   18.3690   -4.2674   -4.3644 C   0  0  0  1  0  0  0  0  0  0  0  0
   17.7019   -3.4309   -4.3749 H   0  0  0  1  0  0  0  0  0  0  0  0
   17.8570   -5.1279   -3.9871 H   0  0  0  1  0  0  0  0  0  0  0  0
   18.8213   -4.5288   -5.6895 O   0  0  0  1  0  0  0  0  0  0  0  0
   19.6811   -4.9523   -5.6352 H   0  0  0  1  0  0  0  0  0  0  0  0
   18.0231   -8.1957   -2.1655 C   0  0  0  1  0  0  0  0  0  0  0  0
   17.7893   -7.8914   -3.3322 O   0  0  0  1  0  0  0  0  0  0  0  0
   17.7145   -9.5745   -1.6399 C   0  0  0  1  0  0  0  0  0  0  0  0
   16.6917   -9.5189   -1.3305 H   0  0  0  1  0  0  0  0  0  0  0  0
   18.3479   -9.8142   -0.8115 H   0  0  0  1  0  0  0  0  0  0  0  0
   17.8381  -10.3089   -2.4082 H   0  0  0  1  0  0  0  0  0  0  0  0
  1  2  1  0  0  0  0
  1  3  1  0  0  0  0
  1  4  1  0  0  0  0
  1 44  1  0  0  0  0
  3 20  1  0  0  0  0
  4  5  1  0  0  0  0
  4  6  1  0  0  0  0
  4  8  1  0  0  0  0
  6  7  1  0  0  0  0
  8  9  1  0  0  0  0
  8 10  1  0  0  0  0
  8 20  1  0  0  0  0
 10 11  1  0  0  0  0
 12 13  1  0  0  0  0
 12 14  1  0  0  0  0
 12 15  1  0  0  0  0
 12 17  1  0  0  0  0
 15 16  1  0  0  0  0
 17 18  1  0  0  0  0
 17 19  1  0  0  0  0
 17 20  1  0  0  0  0
 19 22  1  0  0  0  0
 20 21  1  0  0  0  0
 22 23  1  0  0  0  0
 22 24  1  0  0  0  0
 22 25  1  0  0  0  0
 24 42  1  0  0  0  0
 25 26  1  0  0  0  0
 25 27  1  0  0  0  0
 25 29  1  0  0  0  0
 27 28  1  0  0  0  0
 29 30  1  0  0  0  0
 29 31  1  0  0  0  0
 29 42  1  0  0  0  0
 31 32  1  0  0  0  0
 33 34  1  0  0  0  0
 33 35  1  0  0  0  0
 33 36  1  0  0  0  0
 33 38  1  0  0  0  0
 36 37  1  0  0  0  0
 38 39  1  0  0  0  0
 38 40  1  0  0  0  0
 38 42  1  0  0  0  0
 40 41  1  0  0  0  0
 42 43  1  0  0  0  0
 44194  1  0  0  0  0
 45 46  1  0  0  0  0
 45 54  1  0  0  0  0
 46 47  1  0  0  0  0
 46 48  1  0  0  0  0
 46 49  2  0  0  0  0
 47 50  1  0  0  0  0
 50 51  1  0  0  0  0
 50 52  1  0  0  0  0
 50 53  2  0  0  0  0
 51205  1  0  0  0  0
 54 55  1  0  0  0  0
 54 56  1  0  0  0  0
 54 57  1  0  0  0  0
 57 58  1  0  0  0  0
 57 59  2  0  0  0  0
 59 60  1  0  0  0  0
 59 64  1  0  0  0  0
 60 61  1  0  0  0  0
 60 62  1  0  0  0  0
 60 63  1  0  0  0  0
 64 65  1  0  0  0  0
 64 66  1  0  0  0  0
 64 67  1  0  0  0  0
 67 68  1  0  0  0  0
 67 69  1  0  0  0  0
 67 70  1  0  0  0  0
 70 71  1  0  0  0  0
 70 72  2  0  0  0  0
 72 73  1  0  0  0  0
 72 77  1  0  0  0  0
 73 74  1  0  0  0  0
 73 75  1  0  0  0  0
 73 76  1  0  0  0  0
 77 78  1  0  0  0  0
 77 79  1  0  0  0  0
 77 80  1  0  0  0  0
 80 81  1  0  0  0  0
 80 82  1  0  0  0  0
 80 83  1  0  0  0  0
 83 84  1  0  0  0  0
 83 85  2  0  0  0  0
 85 86  1  0  0  0  0
 85 89  1  0  0  0  0
 86 87  1  0  0  0  0
 86 88  1  0  0  0  0
 86 93  1  0  0  0  0
 89 90  1  0  0  0  0
 89 91  1  0  0  0  0
 89 92  1  0  0  0  0
 93 94  1  0  0  0  0
 93 95  1  0  0  0  0
 93 96  1  0  0  0  0
 96 97  1  0  0  0  0
 96 98  2  0  0  0  0
 98 99  1  0  0  0  0
 98102  1  0  0  0  0
 99100  1  0  0  0  0
 99101  1  0  0  0  0
 99106  1  0  0  0  0
102103  1  0  0  0  0
102104  1  0  0  0  0
102105  1  0  0  0  0
106107  1  0  0  0  0
106108  1  0  0  0  0
106109  1  0  0  0  0
109110  1  0  0  0  0
109111  2  0  0  0  0
111112  1  0  0  0  0
111115  1  0  0  0  0
112113  1  0  0  0  0
112114  1  0  0  0  0
112119  1  0  0  0  0
115116  1  0  0  0  0
115117  1  0  0  0  0
115118  1  0  0  0  0
119120  1  0  0  0  0
119121  1  0  0  0  0
119122  1  0  0  0  0
122123  1  0  0  0  0
122124  2  0  0  0  0
124125  1  0  0  0  0
124128  1  0  0  0  0
125126  1  0  0  0  0
125127  1  0  0  0  0
125132  1  0  0  0  0
128129  1  0  0  0  0
128130  1  0  0  0  0
128131  1  0  0  0  0
132133  1  0  0  0  0
132134  1  0  0  0  0
132135  1  0  0  0  0
135136  1  0  0  0  0
135137  2  0  0  0  0
137138  1  0  0  0  0
137141  1  0  0  0  0
138139  1  0  0  0  0
138140  1  0  0  0  0
138145  1  0  0  0  0
141142  1  0  0  0  0
141143  1  0  0  0  0
141144  1  0  0  0  0
145146  1  0  0  0  0
145147  1  0  0  0  0
145148  1  0  0  0  0
148149  1  0  0  0  0
148150  2  0  0  0  0
150151  1  0  0  0  0
150154  1  0  0  0  0
151152  1  0  0  0  0
151153  1  0  0  0  0
151158  1  0  0  0  0
154155  1  0  0  0  0
154156  1  0  0  0  0
154157  1  0  0  0  0
158159  1  0  0  0  0
158160  1  0  0  0  0
158161  1  0  0  0  0
161162  1  0  0  0  0
161163  2  0  0  0  0
163164  1  0  0  0  0
163167  1  0  0  0  0
164165  1  0  0  0  0
164166  1  0  0  0  0
164171  1  0  0  0  0
167168  1  0  0  0  0
167169  1  0  0  0  0
167170  1  0  0  0  0
171172  1  0  0  0  0
171173  1  0  0  0  0
171174  1  0  0  0  0
174175  1  0  0  0  0
174176  2  0  0  0  0
176177  1  0  0  0  0
176181  1  0  0  0  0
177178  1  0  0  0  0
177179  1  0  0  0  0
177180  1  0  0  0  0
181182  1  0  0  0  0
181183  1  0  0  0  0
181184  1  0  0  0  0
185186  1  0  0  0  0
185187  1  0  0  0  0
185189  1  0  0  0  0
185196  1  0  0  0  0
187188  1  0  0  0  0
187190  1  0  0  0  0
187197  1  0  0  0  0
189192  1  0  0  0  0
190191  1  0  0  0  0
190194  1  0  0  0  0
190199  1  0  0  0  0
192193  1  0  0  0  0
192194  1  0  0  0  0
192201  1  0  0  0  0
194195  1  0  0  0  0
196210  1  0  0  0  0
197198  1  0  0  0  0
199200  1  0  0  0  0
201202  1  0  0  0  0
201203  1  0  0  0  0
201204  1  0  0  0  0
205206  1  0  0  0  0
205207  1  0  0  0  0
205209  1  0  0  0  0
207208  1  0  0  0  0
207210  1  0  0  0  0
207216  1  0  0  0  0
209212  1  0  0  0  0
210211  1  0  0  0  0
210214  1  0  0  0  0
212213  1  0  0  0  0
212214  1  0  0  0  0
212220  1  0  0  0  0
214215  1  0  0  0  0
214218  1  0  0  0  0
216217  1  0  0  0  0
216225  1  0  0  0  0
218219  1  0  0  0  0
220221  1  0  0  0  0
220222  1  0  0  0  0
220223  1  0  0  0  0
223224  1  0  0  0  0
225226  2  0  0  0  0
225227  1  0  0  0  0
227228  1  0  0  0  0
227229  1  0  0  0  0
227230  1  0  0  0  0
M  BCL ATM C_TeTeTeTe H_S O_Te2Te2TeTe C_TeTeTeTe H_S O_Te2Te2TeTe H_S C_TeTeTeTe H_S O_Te2Te2TeTe H_S C_TeTeTeTe H_S H_S O_Te2Te2TeTe H_S C_TeTeTeTe H_S O_Te2Te2TeTe C_TeTeTeTe H_S C_TeTeTeTe H_S O_Te2Te2TeTe C_TeTeTeTe H_S O_Te2Te2TeTe H_S C_TeTeTeTe H_S O_Te2Te2TeTe H_S C_TeTeTeTe H_S H_S O_Te2Te2TeTe H_S C_TeTeTeTe H_S O_Te2Te2TeTe H_S C_TeTeTeTe H_S O_Te2Te2TeTe O_Tr2TrTrPi2 P_TeTeTeTePi O_Tr2TrTrPi2 O_Te2Te2TeTe O_Tr2Tr2TrPi P_TeTeTeTePi O_Tr2TrTrPi2 O_Te2Te2TeTe O_Tr2Tr2TrPi C_TeTeTeTe H_S H_S C_TrTrTrPi H_S C_TrTrTrPi C_TeTeTeTe H_S H_S H_S C_TeTeTeTe H_S H_S C_TeTeTeTe H_S H_S C_TrTrTrPi H_S C_TrTrTrPi C_TeTeTeTe H_S H_S H_S C_TeTeTeTe H_S H_S C_TeTeTeTe H_S H_S C_TrTrTrPi H_S C_TrTrTrPi C_TeTeTeTe H_S H_S C_TeTeTeTe H_S H_S H_S C_TeTeTeTe H_S H_S C_TrTrTrPi H_S C_TrTrTrPi C_TeTeTeTe H_S H_S C_TeTeTeTe H_S H_S H_S C_TeTeTeTe H_S H_S C_TrTrTrPi H_S C_TrTrTrPi C_TeTeTeTe H_S H_S C_TeTeTeTe H_S H_S H_S C_TeTeTeTe H_S H_S C_TrTrTrPi H_S C_TrTrTrPi C_TeTeTeTe H_S H_S C_TeTeTeTe H_S H_S H_S C_TeTeTeTe H_S H_S C_TrTrTrPi H_S C_TrTrTrPi C_TeTeTeTe H_S H_S C_TeTeTeTe H_S H_S H_S C_TeTeTeTe H_S H_S C_TrTrTrPi H_S C_TrTrTrPi C_TeTeTeTe H_S H_S C_TeTeTeTe H_S H_S H_S C_TeTeTeTe H_S H_S C_TrTrTrPi H_S C_TrTrTrPi C_TeTeTeTe H_S H_S C_TeTeTeTe H_S H_S H_S C_TeTeTeTe H_S H_S C_TrTrTrPi H_S C_TrTrTrPi C_TeTeTeTe H_S H_S H_S C_TeTeTeTe H_S H_S H_S C_TeTeTeTe H_S C_TeTeTeTe H_S O_Te2Te2TeTe C_TeTeTeTe H_S C_TeTeTeTe H_S C_TeTeTeTe H_S O_Te2Te2TeTe O_Te2Te2TeTe H_S O_Te2Te2TeTe H_S C_TeTeTeTe H_S H_S H_S C_TeTeTeTe H_S C_TeTeTeTe H_S O_Te2Te2TeTe C_TeTeTeTe H_S C_TeTeTeTe H_S C_TeTeTeTe H_S N_TrTrTrPi2 H_S O_Te2Te2TeTe H_S C_TeTeTeTe H_S H_S O_Te2Te2TeTe H_S C_TrTrTrPi O_Tr2Tr2TrPi C_TeTeTeTe H_S H_S H_S
M  BCL BND NonConjugatedSingleBond NonConjugatedSingleBondInRing NonConjugatedSingleBondInRing NonConjugatedSingleBond NonConjugatedSingleBondInRing NonConjugatedSingleBond NonConjugatedSingleBond NonConjugatedSingleBondInRing NonConjugatedSingleBond NonConjugatedSingleBond NonConjugatedSingleBond NonConjugatedSingleBondInRing NonConjugatedSingleBond NonConjugatedSingleBond NonConjugatedSingleBond NonConjugatedSingleBond NonConjugatedSingleBond NonConjugatedSingleBond NonConjugatedSingleBond NonConjugatedSingleBond NonConjugatedSingleBond NonConjugatedSingleBond NonConjugatedSingleBond NonConjugatedSingleBond NonConjugatedSingleBondInRing NonConjugatedSingleBondInRing NonConjugatedSingleBondInRing NonConjugatedSingleBond NonConjugatedSingleBond NonConjugatedSingleBondInRing NonConjugatedSingleBond NonConjugatedSingleBond NonConjugatedSingleBond NonConjugatedSingleBondInRing NonConjugatedSingleBond NonConjugatedSingleBond NonConjugatedSingleBond NonConjugatedSingleBond NonConjugatedSingleBond NonConjugatedSingleBond NonConjugatedSingleBond NonConjugatedSingleBond NonConjugatedSingleBond NonConjugatedSingleBond NonConjugatedSingleBond NonConjugatedSingleBond ConjugatedSingleBond NonConjugatedSingleBond ConjugatedSingleBond ConjugatedSingleBond ConjugatedDoubleBond ConjugatedSingleBond ConjugatedSingleBond ConjugatedSingleBond ConjugatedDoubleBond NonConjugatedSingleBond NonConjugatedSingleBond NonConjugatedSingleBond NonConjugatedSingleBond NonConjugatedSingleBond ConjugatedDoubleBond NonConjugatedSingleBond NonConjugatedSingleBond NonConjugatedSingleBond NonConjugatedSingleBond NonConjugatedSingleBond NonConjugatedSingleBond NonConjugatedSingleBond NonConjugatedSingleBond NonConjugatedSingleBond NonConjugatedSingleBond NonConjugatedSingleBond NonConjugatedSingleBond ConjugatedDoubleBond NonConjugatedSingleBond NonConjugatedSingleBond NonConjugatedSingleBond NonConjugatedSingleBond NonConjugatedSingleBond NonConjugatedSingleBond NonConjugatedSingleBond NonConjugatedSingleBond NonConjugatedSingleBond NonConjugatedSingleBond NonConjugatedSingleBond NonConjugatedSingleBond ConjugatedDoubleBond NonConjugatedSingleBond NonConjugatedSingleBond NonConjugatedSingleBond NonConjugatedSingleBond NonConjugatedSingleBond NonConjugatedSingleBond NonConjugatedSingleBond NonConjugatedSingleBond NonConjugatedSingleBond NonConjugatedSingleBond NonConjugatedSingleBond NonConjugatedSingleBond ConjugatedDoubleBond NonConjugatedSingleBond NonConjugatedSingleBond NonConjugatedSingleBond NonConjugatedSingleBond NonConjugatedSingleBond NonConjugatedSingleBond NonConjugatedSingleBond NonConjugatedSingleBond NonConjugatedSingleBond NonConjugatedSingleBond NonConjugatedSingleBond NonConjugatedSingleBond ConjugatedDoubleBond NonConjugatedSingleBond NonConjugatedSingleBond NonConjugatedSingleBond NonConjugatedSingleBond NonConjugatedSingleBond NonConjugatedSingleBond NonConjugatedSingleBond NonConjugatedSingleBond NonConjugatedSingleBond NonConjugatedSingleBond NonConjugatedSingleBond NonConjugatedSingleBond ConjugatedDoubleBond NonConjugatedSingleBond NonConjugatedSingleBond NonConjugatedSingleBond NonConjugatedSingleBond NonConjugatedSingleBond NonConjugatedSingleBond NonConjugatedSingleBond NonConjugatedSingleBond NonConjugatedSingleBond NonConjugatedSingleBond NonConjugatedSingleBond NonConjugatedSingleBond ConjugatedDoubleBond NonConjugatedSingleBond NonConjugatedSingleBond NonConjugatedSingleBond NonConjugatedSingleBond NonConjugatedSingleBond NonConjugatedSingleBond NonConjugatedSingleBond NonConjugatedSingleBond NonConjugatedSingleBond NonConjugatedSingleBond NonConjugatedSingleBond NonConjugatedSingleBond ConjugatedDoubleBond NonConjugatedSingleBond NonConjugatedSingleBond NonConjugatedSingleBond NonConjugatedSingleBond NonConjugatedSingleBond NonConjugatedSingleBond NonConjugatedSingleBond NonConjugatedSingleBond NonConjugatedSingleBond NonConjugatedSingleBond NonConjugatedSingleBond NonConjugatedSingleBond ConjugatedDoubleBond NonConjugatedSingleBond NonConjugatedSingleBond NonConjugatedSingleBond NonConjugatedSingleBond NonConjugatedSingleBond NonConjugatedSingleBond NonConjugatedSingleBond NonConjugatedSingleBond NonConjugatedSingleBond NonConjugatedSingleBond NonConjugatedSingleBond NonConjugatedSingleBond ConjugatedDoubleBond NonConjugatedSingleBond NonConjugatedSingleBond NonConjugatedSingleBond NonConjugatedSingleBond NonConjugatedSingleBond NonConjugatedSingleBond NonConjugatedSingleBond NonConjugatedSingleBond NonConjugatedSingleBond NonConjugatedSingleBondInRing NonConjugatedSingleBondInRing NonConjugatedSingleBond NonConjugatedSingleBond NonConjugatedSingleBondInRing NonConjugatedSingleBond NonConjugatedSingleBondInRing NonConjugatedSingleBond NonConjugatedSingleBondInRing NonConjugatedSingleBond NonConjugatedSingleBond NonConjugatedSingleBondInRing NonConjugatedSingleBond NonConjugatedSingleBond NonConjugatedSingleBond NonConjugatedSingleBond NonConjugatedSingleBond NonConjugatedSingleBond NonConjugatedSingleBond NonConjugatedSingleBond NonConjugatedSingleBond NonConjugatedSingleBondInRing NonConjugatedSingleBondInRing NonConjugatedSingleBond NonConjugatedSingleBondInRing NonConjugatedSingleBond NonConjugatedSingleBondInRing NonConjugatedSingleBond NonConjugatedSingleBondInRing NonConjugatedSingleBond NonConjugatedSingleBondInRing NonConjugatedSingleBond NonConjugatedSingleBond NonConjugatedSingleBond NonConjugatedSingleBond AmideSingleBond NonConjugatedSingleBond NonConjugatedSingleBond NonConjugatedSingleBond NonConjugatedSingleBond NonConjugatedSingleBond ConjugatedDoubleBond NonConjugatedSingleBond NonConjugatedSingleBond NonConjugatedSingleBond NonConjugatedSingleBond
M  BCL CHI   1   R   4   R   8   R  17   S  20   R  22   S  25   R  29   S  38   S  42   R  46   R  50   S 185   R 187   S 190   S 192   R 194   R 205   R 207   S 210   R 212   S 214   S
M  BCL DBI - - E E E E E E E E Z - -
M  END
> <ConfClashScore>
0.00972966 

> <ConfOneFourInteractionScore>
-0.961689 

> <ConfScore>
1.75435 

> <ConfScorePBest>
0.00706447 

> <ConfTolerance>
4.70196 

$$$$
L05.****
  PyMOL2.5          3D                             0

230233  0  0  0  0  0  0  0  0999 V2000
   12.3367   -2.4090   -3.6316 C   0  0  0  1  0  0  0  0  0  0  0  0
   11.4542   -2.1458   -3.0868 H   0  0  0  1  0  0  0  0  0  0  0  0
   12.0014   -3.2420   -4.7055 O   0  0  0  1  0  0  0  0  0  0  0  0
   12.9949   -1.1426   -4.2018 C   0  0  0  1  0  0  0  0  0  0  0  0
   14.0579   -1.1738   -4.0835 H   0  0  0  1  0  0  0  0  0  0  0  0
   12.4795    0.0325   -3.5742 O   0  0  0  1  0  0  0  0  0  0  0  0
   11.9546    0.5293   -4.2060 H   0  0  0  1  0  0  0  0  0  0  0  0
   12.6017   -1.1954   -5.6842 C   0  0  0  1  0  0  0  0  0  0  0  0
   11.6703   -0.6958   -5.8507 H   0  0  0  1  0  0  0  0  0  0  0  0
   13.6130   -0.6039   -6.5020 O   0  0  0  1  0  0  0  0  0  0  0  0
   13.6666    0.3363   -6.3156 H   0  0  0  1  0  0  0  0  0  0  0  0
   10.1017   -2.3465   -6.7989 C   0  0  0  1  0  0  0  0  0  0  0  0
   10.1895   -1.3091   -6.5519 H   0  0  0  1  0  0  0  0  0  0  0  0
    9.4731   -2.4572   -7.6577 H   0  0  0  1  0  0  0  0  0  0  0  0
    9.5516   -3.0636   -5.6980 O   0  0  0  1  0  0  0  0  0  0  0  0
    8.7269   -2.6530   -5.4281 H   0  0  0  1  0  0  0  0  0  0  0  0
   11.4782   -2.9313   -7.0836 C   0  0  0  1  0  0  0  0  0  0  0  0
   11.8546   -2.4743   -7.9749 H   0  0  0  1  0  0  0  0  0  0  0  0
   11.2936   -4.3240   -7.3094 O   0  0  0  1  0  0  0  0  0  0  0  0
   12.4782   -2.6756   -5.9640 C   0  0  0  1  0  0  0  0  0  0  0  0
   13.4274   -3.0913   -6.2310 H   0  0  0  1  0  0  0  0  0  0  0  0
   10.6407   -4.5704   -8.5285 C   0  0  0  1  0  0  0  0  0  0  0  0
   10.0881   -5.4840   -8.4594 H   0  0  0  1  0  0  0  0  0  0  0  0
    9.7651   -3.4788   -8.8575 O   0  0  0  1  0  0  0  0  0  0  0  0
   11.6421   -4.6451   -9.6561 C   0  0  0  1  0  0  0  0  0  0  0  0
   11.9516   -5.6546   -9.8290 H   0  0  0  1  0  0  0  0  0  0  0  0
   12.7865   -3.8360   -9.3804 O   0  0  0  1  0  0  0  0  0  0  0  0
   12.5516   -2.9090   -9.4652 H   0  0  0  1  0  0  0  0  0  0  0  0
   10.8726   -4.1091  -10.8278 C   0  0  0  1  0  0  0  0  0  0  0  0
   10.2829   -4.8774  -11.2827 H   0  0  0  1  0  0  0  0  0  0  0  0
   11.7493   -3.5448  -11.7987 O   0  0  0  1  0  0  0  0  0  0  0  0
   11.2846   -3.4498  -12.6334 H   0  0  0  1  0  0  0  0  0  0  0  0
    7.8132   -1.7741  -10.5672 C   0  0  0  1  0  0  0  0  0  0  0  0
    6.8792   -1.8641  -11.0815 H   0  0  0  1  0  0  0  0  0  0  0  0
    7.6463   -1.8287   -9.5117 H   0  0  0  1  0  0  0  0  0  0  0  0
    8.3575   -0.5056  -10.8618 O   0  0  0  1  0  0  0  0  0  0  0  0
    8.8508   -0.1846  -10.1034 H   0  0  0  1  0  0  0  0  0  0  0  0
    8.6969   -2.9555  -10.9723 C   0  0  0  1  0  0  0  0  0  0  0  0
    8.9325   -2.8391  -12.0095 H   0  0  0  1  0  0  0  0  0  0  0  0
    7.9922   -4.1817  -10.7967 O   0  0  0  1  0  0  0  0  0  0  0  0
    8.1596   -4.5242   -9.9157 H   0  0  0  1  0  0  0  0  0  0  0  0
   10.0039   -3.0591  -10.2178 C   0  0  0  1  0  0  0  0  0  0  0  0
   10.5007   -2.1115  -10.2323 H   0  0  0  1  0  0  0  0  0  0  0  0
   13.2468   -3.0787   -2.7668 O   0  0  0  1  0  0  0  0  0  0  0  0
   22.8903   -6.5933   -8.0480 O   0  0  0  1  0  0  0  0  0  0  0  0
   23.0042   -6.9230   -6.4686 P   0  0  0  1  0  0  0  0  0  0  0  0
   22.6003   -5.5229   -5.7922 O   0  0  0  1  0  0  0  0  0  0  0  0
   24.4252   -7.3369   -6.2045 O   0  0  0  0  0  0  0  0  0  0  0  0
   22.0320   -7.9550   -6.1626 O   0  0  0  1  0  0  0  0  0  0  0  0
   21.1739   -4.9869   -5.2790 P   0  0  0  1  0  0  0  0  0  0  0  0
   20.5848   -6.1775   -4.4355 O   0  0  0  1  0  0  0  0  0  0  0  0
   20.2267   -4.8355   -6.4063 O   0  0  0  0  0  0  0  0  0  0  0  0
   21.4873   -3.8341   -4.4071 O   0  0  0  1  0  0  0  0  0  0  0  0
   22.7871   -7.6500   -9.0152 C   0  0  0  1  0  0  0  0  0  0  0  0
   22.7963   -8.5895   -8.5034 H   0  0  0  1  0  0  0  0  0  0  0  0
   23.6257   -7.5958   -9.6776 H   0  0  0  1  0  0  0  0  0  0  0  0
   21.5350   -7.5496   -9.8147 C   0  0  0  1  0  0  0  0  0  0  0  0
   20.6164   -7.5551   -9.3271 H   0  0  0  1  0  0  0  0  0  0  0  0
   21.5695   -7.4521  -11.1508 C   0  0  0  1  0  0  0  0  0  0  0  0
   20.3192   -7.0148  -11.8810 C   0  0  0  1  0  0  0  0  0  0  0  0
   19.5273   -6.8677  -11.1767 H   0  0  0  1  0  0  0  0  0  0  0  0
   20.0350   -7.7694  -12.5844 H   0  0  0  1  0  0  0  0  0  0  0  0
   20.5109   -6.0981  -12.3985 H   0  0  0  1  0  0  0  0  0  0  0  0
   22.8035   -7.7606  -11.9557 C   0  0  0  1  0  0  0  0  0  0  0  0
   23.6457   -7.7756  -11.2958 H   0  0  0  1  0  0  0  0  0  0  0  0
   22.9355   -6.9895  -12.6858 H   0  0  0  1  0  0  0  0  0  0  0  0
   22.7274   -9.0984  -12.6734 C   0  0  0  1  0  0  0  0  0  0  0  0
   22.0057   -9.0224  -13.4597 H   0  0  0  1  0  0  0  0  0  0  0  0
   22.4146   -9.8436  -11.9722 H   0  0  0  1  0  0  0  0  0  0  0  0
   24.0324   -9.5201  -13.2649 C   0  0  0  1  0  0  0  0  0  0  0  0
   24.5493   -8.8398  -13.8579 H   0  0  0  1  0  0  0  0  0  0  0  0
   24.5650  -10.7206  -13.0709 C   0  0  0  1  0  0  0  0  0  0  0  0
   26.0056  -10.9980  -13.3957 C   0  0  0  1  0  0  0  0  0  0  0  0
   26.0845  -11.3391  -14.4068 H   0  0  0  1  0  0  0  0  0  0  0  0
   26.3812  -11.7513  -12.7351 H   0  0  0  1  0  0  0  0  0  0  0  0
   26.5769  -10.1012  -13.2765 H   0  0  0  1  0  0  0  0  0  0  0  0
   23.8079  -11.8942  -12.5229 C   0  0  0  1  0  0  0  0  0  0  0  0
   24.1718  -12.7839  -12.9929 H   0  0  0  1  0  0  0  0  0  0  0  0
   22.7705  -11.7675  -12.7526 H   0  0  0  1  0  0  0  0  0  0  0  0
   23.9549  -12.0473  -11.0178 C   0  0  0  1  0  0  0  0  0  0  0  0
   23.6290  -11.1419  -10.5499 H   0  0  0  1  0  0  0  0  0  0  0  0
   24.9872  -12.2148  -10.7917 H   0  0  0  1  0  0  0  0  0  0  0  0
   23.1514  -13.1901  -10.4606 C   0  0  0  1  0  0  0  0  0  0  0  0
   23.5042  -14.1472  -10.6635 H   0  0  0  1  0  0  0  0  0  0  0  0
   22.0458  -13.1101   -9.7414 C   0  0  0  1  0  0  0  0  0  0  0  0
   21.3926  -11.8157   -9.3522 C   0  0  0  1  0  0  0  0  0  0  0  0
   22.1178  -11.0301   -9.3946 H   0  0  0  1  0  0  0  0  0  0  0  0
   21.0147  -11.8995   -8.3547 H   0  0  0  1  0  0  0  0  0  0  0  0
   21.3001  -14.3494   -9.3333 C   0  0  0  1  0  0  0  0  0  0  0  0
   21.3607  -14.4694   -8.2718 H   0  0  0  1  0  0  0  0  0  0  0  0
   21.7345  -15.2011   -9.8137 H   0  0  0  1  0  0  0  0  0  0  0  0
   20.2742  -14.2600   -9.6239 H   0  0  0  1  0  0  0  0  0  0  0  0
   20.2456  -11.4865  -10.2936 C   0  0  0  1  0  0  0  0  0  0  0  0
   19.6710  -12.3748  -10.4541 H   0  0  0  1  0  0  0  0  0  0  0  0
   20.6541  -11.1524  -11.2244 H   0  0  0  1  0  0  0  0  0  0  0  0
   19.3427  -10.4272   -9.7648 C   0  0  0  1  0  0  0  0  0  0  0  0
   19.7023   -9.7582   -9.0544 H   0  0  0  1  0  0  0  0  0  0  0  0
   18.0754  -10.3196  -10.1871 C   0  0  0  1  0  0  0  0  0  0  0  0
   17.6638  -11.0514  -11.4366 C   0  0  0  1  0  0  0  0  0  0  0  0
   18.4067  -10.9012  -12.1919 H   0  0  0  1  0  0  0  0  0  0  0  0
   16.7256  -10.6651  -11.7764 H   0  0  0  1  0  0  0  0  0  0  0  0
   17.0616   -9.5087   -9.4735 C   0  0  0  1  0  0  0  0  0  0  0  0
   17.4754   -8.5521   -9.2313 H   0  0  0  1  0  0  0  0  0  0  0  0
   16.7730  -10.0104   -8.5736 H   0  0  0  1  0  0  0  0  0  0  0  0
   16.2043   -9.3779  -10.1002 H   0  0  0  1  0  0  0  0  0  0  0  0
   17.5215  -12.5405  -11.1668 C   0  0  0  1  0  0  0  0  0  0  0  0
   16.9387  -12.6716  -10.2790 H   0  0  0  1  0  0  0  0  0  0  0  0
   18.4969  -12.9544  -11.0181 H   0  0  0  1  0  0  0  0  0  0  0  0
   16.8568  -13.2777  -12.2858 C   0  0  0  1  0  0  0  0  0  0  0  0
   17.3365  -13.2860  -13.2085 H   0  0  0  1  0  0  0  0  0  0  0  0
   15.6981  -13.9234  -12.1887 C   0  0  0  1  0  0  0  0  0  0  0  0
   14.8120  -13.6668  -11.0045 C   0  0  0  1  0  0  0  0  0  0  0  0
   15.1889  -14.2212  -10.1706 H   0  0  0  1  0  0  0  0  0  0  0  0
   13.8237  -14.0029  -11.2396 H   0  0  0  1  0  0  0  0  0  0  0  0
   15.1658  -14.9201  -13.1795 C   0  0  0  1  0  0  0  0  0  0  0  0
   14.0964  -14.8828  -13.1842 H   0  0  0  1  0  0  0  0  0  0  0  0
   15.4869  -15.9029  -12.9040 H   0  0  0  1  0  0  0  0  0  0  0  0
   15.5350  -14.6843  -14.1557 H   0  0  0  1  0  0  0  0  0  0  0  0
   14.7446  -12.1982  -10.6184 C   0  0  0  1  0  0  0  0  0  0  0  0
   15.2032  -11.6208  -11.3938 H   0  0  0  1  0  0  0  0  0  0  0  0
   15.2839  -12.0613   -9.7045 H   0  0  0  1  0  0  0  0  0  0  0  0
   13.3375  -11.7045  -10.4225 C   0  0  0  1  0  0  0  0  0  0  0  0
   13.2101  -10.7952   -9.9341 H   0  0  0  1  0  0  0  0  0  0  0  0
   12.2449  -12.3435  -10.8269 C   0  0  0  1  0  0  0  0  0  0  0  0
   12.2373  -13.7747  -11.2842 C   0  0  0  1  0  0  0  0  0  0  0  0
   12.9116  -14.3409  -10.6762 H   0  0  0  1  0  0  0  0  0  0  0  0
   12.5545  -13.8185  -12.3052 H   0  0  0  1  0  0  0  0  0  0  0  0
   10.9057  -11.6671  -10.8576 C   0  0  0  1  0  0  0  0  0  0  0  0
   10.1615  -12.3304  -10.4686 H   0  0  0  1  0  0  0  0  0  0  0  0
   10.6601  -11.4082  -11.8663 H   0  0  0  1  0  0  0  0  0  0  0  0
   10.9404  -10.7805  -10.2596 H   0  0  0  1  0  0  0  0  0  0  0  0
   10.8434  -14.3698  -11.1695 C   0  0  0  1  0  0  0  0  0  0  0  0
   10.1385  -13.6626  -11.5540 H   0  0  0  1  0  0  0  0  0  0  0  0
   10.6361  -14.5550  -10.1362 H   0  0  0  1  0  0  0  0  0  0  0  0
   10.6892  -15.6597  -11.9274 C   0  0  0  1  0  0  0  0  0  0  0  0
   11.0574  -15.6937  -12.8994 H   0  0  0  1  0  0  0  0  0  0  0  0
   10.1177  -16.7591  -11.4476 C   0  0  0  1  0  0  0  0  0  0  0  0
    9.8328  -16.9819   -9.9907 C   0  0  0  1  0  0  0  0  0  0  0  0
    9.4893  -17.9882   -9.8717 H   0  0  0  1  0  0  0  0  0  0  0  0
    9.0590  -16.3033   -9.6982 H   0  0  0  1  0  0  0  0  0  0  0  0
    9.7042  -17.8881  -12.3493 C   0  0  0  1  0  0  0  0  0  0  0  0
   10.2176  -18.7816  -12.0613 H   0  0  0  1  0  0  0  0  0  0  0  0
    9.9521  -17.6450  -13.3614 H   0  0  0  1  0  0  0  0  0  0  0  0
    8.6484  -18.0414  -12.2671 H   0  0  0  1  0  0  0  0  0  0  0  0
   11.0144  -16.7763   -9.0569 C   0  0  0  1  0  0  0  0  0  0  0  0
   11.3057  -15.7483   -9.1145 H   0  0  0  1  0  0  0  0  0  0  0  0
   11.8175  -17.3948   -9.3996 H   0  0  0  1  0  0  0  0  0  0  0  0
   10.7591  -17.1059   -7.6119 C   0  0  0  1  0  0  0  0  0  0  0  0
    9.7977  -17.4209   -7.3711 H   0  0  0  1  0  0  0  0  0  0  0  0
   11.6287  -17.0382   -6.6095 C   0  0  0  1  0  0  0  0  0  0  0  0
   12.9418  -16.3127   -6.6925 C   0  0  0  1  0  0  0  0  0  0  0  0
   13.4622  -16.6700   -7.5564 H   0  0  0  1  0  0  0  0  0  0  0  0
   13.5050  -16.5479   -5.8136 H   0  0  0  1  0  0  0  0  0  0  0  0
   11.3573  -17.6969   -5.2887 C   0  0  0  1  0  0  0  0  0  0  0  0
   11.1833  -16.9476   -4.5449 H   0  0  0  1  0  0  0  0  0  0  0  0
   12.2017  -18.2902   -5.0061 H   0  0  0  1  0  0  0  0  0  0  0  0
   10.4934  -18.3225   -5.3732 H   0  0  0  1  0  0  0  0  0  0  0  0
   12.8447  -14.7994   -6.7961 C   0  0  0  1  0  0  0  0  0  0  0  0
   12.3285  -14.4314   -5.9341 H   0  0  0  1  0  0  0  0  0  0  0  0
   12.2894  -14.5533   -7.6770 H   0  0  0  1  0  0  0  0  0  0  0  0
   14.1888  -14.1261   -6.8733 C   0  0  0  1  0  0  0  0  0  0  0  0
   15.0336  -14.7298   -6.8129 H   0  0  0  1  0  0  0  0  0  0  0  0
   14.3781  -12.8070   -7.0142 C   0  0  0  1  0  0  0  0  0  0  0  0
   15.7868  -12.2618   -6.9376 C   0  0  0  1  0  0  0  0  0  0  0  0
   15.7491  -11.3197   -6.4317 H   0  0  0  1  0  0  0  0  0  0  0  0
   16.1393  -12.1164   -7.9374 H   0  0  0  1  0  0  0  0  0  0  0  0
   13.2623  -11.8596   -7.2423 C   0  0  0  1  0  0  0  0  0  0  0  0
   13.6273  -11.1554   -7.9605 H   0  0  0  1  0  0  0  0  0  0  0  0
   13.0014  -11.3630   -6.3311 H   0  0  0  1  0  0  0  0  0  0  0  0
   12.4067  -12.3751   -7.6258 H   0  0  0  1  0  0  0  0  0  0  0  0
   16.7884  -13.1444   -6.2110 C   0  0  0  1  0  0  0  0  0  0  0  0
   16.7940  -14.1078   -6.6765 H   0  0  0  1  0  0  0  0  0  0  0  0
   16.4793  -13.2422   -5.1913 H   0  0  0  1  0  0  0  0  0  0  0  0
   18.1885  -12.5920   -6.2364 C   0  0  0  1  0  0  0  0  0  0  0  0
   18.5354  -12.2500   -7.1552 H   0  0  0  1  0  0  0  0  0  0  0  0
   19.0286  -12.4940   -5.2129 C   0  0  0  1  0  0  0  0  0  0  0  0
   18.6380  -12.9475   -3.8363 C   0  0  0  1  0  0  0  0  0  0  0  0
   18.5697  -12.0998   -3.1870 H   0  0  0  1  0  0  0  0  0  0  0  0
   19.3765  -13.6250   -3.4614 H   0  0  0  1  0  0  0  0  0  0  0  0
   17.6896  -13.4409   -3.8793 H   0  0  0  1  0  0  0  0  0  0  0  0
   20.4256  -11.9326   -5.3204 C   0  0  0  1  0  0  0  0  0  0  0  0
   21.0595  -12.7188   -5.6739 H   0  0  0  1  0  0  0  0  0  0  0  0
   20.7596  -11.5969   -4.3609 H   0  0  0  1  0  0  0  0  0  0  0  0
   20.4389  -11.1142   -6.0096 H   0  0  0  1  0  0  0  0  0  0  0  0
   15.8437   -5.1602   -1.5468 C   0  0  0  1  0  0  0  0  0  0  0  0
   15.9287   -5.6948   -0.6238 H   0  0  0  1  0  0  0  0  0  0  0  0
   14.6722   -5.7135   -2.3478 C   0  0  0  1  0  0  0  0  0  0  0  0
   14.8496   -6.7421   -2.5830 H   0  0  0  1  0  0  0  0  0  0  0  0
   15.6231   -3.7740   -1.2759 O   0  0  0  1  0  0  0  0  0  0  0  0
   14.5422   -4.9027   -3.6411 C   0  0  0  1  0  0  0  0  0  0  0  0
   13.6427   -5.1955   -4.1410 H   0  0  0  1  0  0  0  0  0  0  0  0
   15.6304   -2.9769   -2.4704 C   0  0  0  1  0  0  0  0  0  0  0  0
   16.5627   -3.1078   -2.9789 H   0  0  0  1  0  0  0  0  0  0  0  0
   14.4924   -3.4065   -3.3844 C   0  0  0  1  0  0  0  0  0  0  0  0
   14.5763   -2.8878   -4.3164 H   0  0  0  1  0  0  0  0  0  0  0  0
   17.0440   -5.3119   -2.2957 O   0  0  0  1  0  0  0  0  0  0  0  0
   13.4771   -5.5999   -1.5891 O   0  0  0  1  0  0  0  0  0  0  0  0
   13.3803   -6.3716   -1.0263 H   0  0  0  1  0  0  0  0  0  0  0  0
   15.6684   -5.1882   -4.4775 O   0  0  0  1  0  0  0  0  0  0  0  0
   16.4740   -4.9081   -4.0368 H   0  0  0  1  0  0  0  0  0  0  0  0
   15.4551   -1.5130   -2.1008 C   0  0  0  1  0  0  0  0  0  0  0  0
   16.2609   -0.9418   -2.5122 H   0  0  0  1  0  0  0  0  0  0  0  0
   15.4541   -1.4120   -1.0356 H   0  0  0  1  0  0  0  0  0  0  0  0
   14.5269   -1.1546   -2.4944 H   0  0  0  1  0  0  0  0  0  0  0  0
   19.6914   -5.9334   -3.3516 C   0  0  0  1  0  0  0  0  0  0  0  0
   19.3770   -4.9108   -3.3711 H   0  0  0  1  0  0  0  0  0  0  0  0
   18.4761   -6.8387   -3.4842 C   0  0  0  1  0  0  0  0  0  0  0  0
   18.7924   -7.8598   -3.5318 H   0  0  0  1  0  0  0  0  0  0  0  0
   20.3546   -6.2002   -2.1237 O   0  0  0  1  0  0  0  0  0  0  0  0
   17.5755   -6.6379   -2.2694 C   0  0  0  1  0  0  0  0  0  0  0  0
   16.7733   -7.3450   -2.3077 H   0  0  0  1  0  0  0  0  0  0  0  0
   19.5502   -5.8929   -0.9707 C   0  0  0  1  0  0  0  0  0  0  0  0
   20.1207   -6.0407   -0.0776 H   0  0  0  1  0  0  0  0  0  0  0  0
   18.3488   -6.8357   -0.9835 C   0  0  0  1  0  0  0  0  0  0  0  0
   17.7156   -6.6200   -0.1483 H   0  0  0  1  0  0  0  0  0  0  0  0
   17.7446   -6.4998   -4.6958 N   0  0  0  1  0  0  0  0  0  0  0  0
   17.1633   -5.7108   -4.6923 H   0  0  0  1  0  0  0  0  0  0  0  0
   18.7972   -8.1744   -0.9025 O   0  0  0  1  0  0  0  0  0  0  0  0
   18.1238   -8.6577   -0.4181 H   0  0  0  1  0  0  0  0  0  0  0  0
   19.0832   -4.4672   -1.0370 C   0  0  0  1  0  0  0  0  0  0  0  0
   18.2953   -4.3177   -0.3286 H   0  0  0  1  0  0  0  0  0  0  0  0
   18.7226   -4.2565   -2.0221 H   0  0  0  1  0  0  0  0  0  0  0  0
   20.1659   -3.5933   -0.7323 O   0  0  0  1  0  0  0  0  0  0  0  0
   20.9129   -4.1271   -0.4519 H   0  0  0  1  0  0  0  0  0  0  0  0
   17.8378   -7.2270   -5.8127 C   0  0  0  1  0  0  0  0  0  0  0  0
   18.5095   -8.2524   -5.8890 O   0  0  0  1  0  0  0  0  0  0  0  0
   17.0574   -6.7101   -7.0001 C   0  0  0  1  0  0  0  0  0  0  0  0
   17.3164   -5.6735   -7.0582 H   0  0  0  1  0  0  0  0  0  0  0  0
   16.0058   -6.8292   -6.8426 H   0  0  0  1  0  0  0  0  0  0  0  0
   17.3451   -7.2227   -7.8942 H   0  0  0  1  0  0  0  0  0  0  0  0
  1  2  1  0  0  0  0
  1  3  1  0  0  0  0
  1  4  1  0  0  0  0
  1 44  1  0  0  0  0
  3 20  1  0  0  0  0
  4  5  1  0  0  0  0
  4  6  1  0  0  0  0
  4  8  1  0  0  0  0
  6  7  1  0  0  0  0
  8  9  1  0  0  0  0
  8 10  1  0  0  0  0
  8 20  1  0  0  0  0
 10 11  1  0  0  0  0
 12 13  1  0  0  0  0
 12 14  1  0  0  0  0
 12 15  1  0  0  0  0
 12 17  1  0  0  0  0
 15 16  1  0  0  0  0
 17 18  1  0  0  0  0
 17 19  1  0  0  0  0
 17 20  1  0  0  0  0
 19 22  1  0  0  0  0
 20 21  1  0  0  0  0
 22 23  1  0  0  0  0
 22 24  1  0  0  0  0
 22 25  1  0  0  0  0
 24 42  1  0  0  0  0
 25 26  1  0  0  0  0
 25 27  1  0  0  0  0
 25 29  1  0  0  0  0
 27 28  1  0  0  0  0
 29 30  1  0  0  0  0
 29 31  1  0  0  0  0
 29 42  1  0  0  0  0
 31 32  1  0  0  0  0
 33 34  1  0  0  0  0
 33 35  1  0  0  0  0
 33 36  1  0  0  0  0
 33 38  1  0  0  0  0
 36 37  1  0  0  0  0
 38 39  1  0  0  0  0
 38 40  1  0  0  0  0
 38 42  1  0  0  0  0
 40 41  1  0  0  0  0
 42 43  1  0  0  0  0
 44194  1  0  0  0  0
 45 46  1  0  0  0  0
 45 54  1  0  0  0  0
 46 47  1  0  0  0  0
 46 48  1  0  0  0  0
 46 49  2  0  0  0  0
 47 50  1  0  0  0  0
 50 51  1  0  0  0  0
 50 52  1  0  0  0  0
 50 53  2  0  0  0  0
 51205  1  0  0  0  0
 54 55  1  0  0  0  0
 54 56  1  0  0  0  0
 54 57  1  0  0  0  0
 57 58  1  0  0  0  0
 57 59  2  0  0  0  0
 59 60  1  0  0  0  0
 59 64  1  0  0  0  0
 60 61  1  0  0  0  0
 60 62  1  0  0  0  0
 60 63  1  0  0  0  0
 64 65  1  0  0  0  0
 64 66  1  0  0  0  0
 64 67  1  0  0  0  0
 67 68  1  0  0  0  0
 67 69  1  0  0  0  0
 67 70  1  0  0  0  0
 70 71  1  0  0  0  0
 70 72  2  0  0  0  0
 72 73  1  0  0  0  0
 72 77  1  0  0  0  0
 73 74  1  0  0  0  0
 73 75  1  0  0  0  0
 73 76  1  0  0  0  0
 77 78  1  0  0  0  0
 77 79  1  0  0  0  0
 77 80  1  0  0  0  0
 80 81  1  0  0  0  0
 80 82  1  0  0  0  0
 80 83  1  0  0  0  0
 83 84  1  0  0  0  0
 83 85  2  0  0  0  0
 85 86  1  0  0  0  0
 85 89  1  0  0  0  0
 86 87  1  0  0  0  0
 86 88  1  0  0  0  0
 86 93  1  0  0  0  0
 89 90  1  0  0  0  0
 89 91  1  0  0  0  0
 89 92  1  0  0  0  0
 93 94  1  0  0  0  0
 93 95  1  0  0  0  0
 93 96  1  0  0  0  0
 96 97  1  0  0  0  0
 96 98  2  0  0  0  0
 98 99  1  0  0  0  0
 98102  1  0  0  0  0
 99100  1  0  0  0  0
 99101  1  0  0  0  0
 99106  1  0  0  0  0
102103  1  0  0  0  0
102104  1  0  0  0  0
102105  1  0  0  0  0
106107  1  0  0  0  0
106108  1  0  0  0  0
106109  1  0  0  0  0
109110  1  0  0  0  0
109111  2  0  0  0  0
111112  1  0  0  0  0
111115  1  0  0  0  0
112113  1  0  0  0  0
112114  1  0  0  0  0
112119  1  0  0  0  0
115116  1  0  0  0  0
115117  1  0  0  0  0
115118  1  0  0  0  0
119120  1  0  0  0  0
119121  1  0  0  0  0
119122  1  0  0  0  0
122123  1  0  0  0  0
122124  2  0  0  0  0
124125  1  0  0  0  0
124128  1  0  0  0  0
125126  1  0  0  0  0
125127  1  0  0  0  0
125132  1  0  0  0  0
128129  1  0  0  0  0
128130  1  0  0  0  0
128131  1  0  0  0  0
132133  1  0  0  0  0
132134  1  0  0  0  0
132135  1  0  0  0  0
135136  1  0  0  0  0
135137  2  0  0  0  0
137138  1  0  0  0  0
137141  1  0  0  0  0
138139  1  0  0  0  0
138140  1  0  0  0  0
138145  1  0  0  0  0
141142  1  0  0  0  0
141143  1  0  0  0  0
141144  1  0  0  0  0
145146  1  0  0  0  0
145147  1  0  0  0  0
145148  1  0  0  0  0
148149  1  0  0  0  0
148150  2  0  0  0  0
150151  1  0  0  0  0
150154  1  0  0  0  0
151152  1  0  0  0  0
151153  1  0  0  0  0
151158  1  0  0  0  0
154155  1  0  0  0  0
154156  1  0  0  0  0
154157  1  0  0  0  0
158159  1  0  0  0  0
158160  1  0  0  0  0
158161  1  0  0  0  0
161162  1  0  0  0  0
161163  2  0  0  0  0
163164  1  0  0  0  0
163167  1  0  0  0  0
164165  1  0  0  0  0
164166  1  0  0  0  0
164171  1  0  0  0  0
167168  1  0  0  0  0
167169  1  0  0  0  0
167170  1  0  0  0  0
171172  1  0  0  0  0
171173  1  0  0  0  0
171174  1  0  0  0  0
174175  1  0  0  0  0
174176  2  0  0  0  0
176177  1  0  0  0  0
176181  1  0  0  0  0
177178  1  0  0  0  0
177179  1  0  0  0  0
177180  1  0  0  0  0
181182  1  0  0  0  0
181183  1  0  0  0  0
181184  1  0  0  0  0
185186  1  0  0  0  0
185187  1  0  0  0  0
185189  1  0  0  0  0
185196  1  0  0  0  0
187188  1  0  0  0  0
187190  1  0  0  0  0
187197  1  0  0  0  0
189192  1  0  0  0  0
190191  1  0  0  0  0
190194  1  0  0  0  0
190199  1  0  0  0  0
192193  1  0  0  0  0
192194  1  0  0  0  0
192201  1  0  0  0  0
194195  1  0  0  0  0
196210  1  0  0  0  0
197198  1  0  0  0  0
199200  1  0  0  0  0
201202  1  0  0  0  0
201203  1  0  0  0  0
201204  1  0  0  0  0
205206  1  0  0  0  0
205207  1  0  0  0  0
205209  1  0  0  0  0
207208  1  0  0  0  0
207210  1  0  0  0  0
207216  1  0  0  0  0
209212  1  0  0  0  0
210211  1  0  0  0  0
210214  1  0  0  0  0
212213  1  0  0  0  0
212214  1  0  0  0  0
212220  1  0  0  0  0
214215  1  0  0  0  0
214218  1  0  0  0  0
216217  1  0  0  0  0
216225  1  0  0  0  0
218219  1  0  0  0  0
220221  1  0  0  0  0
220222  1  0  0  0  0
220223  1  0  0  0  0
223224  1  0  0  0  0
225226  2  0  0  0  0
225227  1  0  0  0  0
227228  1  0  0  0  0
227229  1  0  0  0  0
227230  1  0  0  0  0
M  BCL ATM C_TeTeTeTe H_S O_Te2Te2TeTe C_TeTeTeTe H_S O_Te2Te2TeTe H_S C_TeTeTeTe H_S O_Te2Te2TeTe H_S C_TeTeTeTe H_S H_S O_Te2Te2TeTe H_S C_TeTeTeTe H_S O_Te2Te2TeTe C_TeTeTeTe H_S C_TeTeTeTe H_S O_Te2Te2TeTe C_TeTeTeTe H_S O_Te2Te2TeTe H_S C_TeTeTeTe H_S O_Te2Te2TeTe H_S C_TeTeTeTe H_S H_S O_Te2Te2TeTe H_S C_TeTeTeTe H_S O_Te2Te2TeTe H_S C_TeTeTeTe H_S O_Te2Te2TeTe O_Tr2TrTrPi2 P_TeTeTeTePi O_Tr2TrTrPi2 O_Te2Te2TeTe O_Tr2Tr2TrPi P_TeTeTeTePi O_Tr2TrTrPi2 O_Te2Te2TeTe O_Tr2Tr2TrPi C_TeTeTeTe H_S H_S C_TrTrTrPi H_S C_TrTrTrPi C_TeTeTeTe H_S H_S H_S C_TeTeTeTe H_S H_S C_TeTeTeTe H_S H_S C_TrTrTrPi H_S C_TrTrTrPi C_TeTeTeTe H_S H_S H_S C_TeTeTeTe H_S H_S C_TeTeTeTe H_S H_S C_TrTrTrPi H_S C_TrTrTrPi C_TeTeTeTe H_S H_S C_TeTeTeTe H_S H_S H_S C_TeTeTeTe H_S H_S C_TrTrTrPi H_S C_TrTrTrPi C_TeTeTeTe H_S H_S C_TeTeTeTe H_S H_S H_S C_TeTeTeTe H_S H_S C_TrTrTrPi H_S C_TrTrTrPi C_TeTeTeTe H_S H_S C_TeTeTeTe H_S H_S H_S C_TeTeTeTe H_S H_S C_TrTrTrPi H_S C_TrTrTrPi C_TeTeTeTe H_S H_S C_TeTeTeTe H_S H_S H_S C_TeTeTeTe H_S H_S C_TrTrTrPi H_S C_TrTrTrPi C_TeTeTeTe H_S H_S C_TeTeTeTe H_S H_S H_S C_TeTeTeTe H_S H_S C_TrTrTrPi H_S C_TrTrTrPi C_TeTeTeTe H_S H_S C_TeTeTeTe H_S H_S H_S C_TeTeTeTe H_S H_S C_TrTrTrPi H_S C_TrTrTrPi C_TeTeTeTe H_S H_S C_TeTeTeTe H_S H_S H_S C_TeTeTeTe H_S H_S C_TrTrTrPi H_S C_TrTrTrPi C_TeTeTeTe H_S H_S H_S C_TeTeTeTe H_S H_S H_S C_TeTeTeTe H_S C_TeTeTeTe H_S O_Te2Te2TeTe C_TeTeTeTe H_S C_TeTeTeTe H_S C_TeTeTeTe H_S O_Te2Te2TeTe O_Te2Te2TeTe H_S O_Te2Te2TeTe H_S C_TeTeTeTe H_S H_S H_S C_TeTeTeTe H_S C_TeTeTeTe H_S O_Te2Te2TeTe C_TeTeTeTe H_S C_TeTeTeTe H_S C_TeTeTeTe H_S N_TrTrTrPi2 H_S O_Te2Te2TeTe H_S C_TeTeTeTe H_S H_S O_Te2Te2TeTe H_S C_TrTrTrPi O_Tr2Tr2TrPi C_TeTeTeTe H_S H_S H_S
M  BCL BND NonConjugatedSingleBond NonConjugatedSingleBondInRing NonConjugatedSingleBondInRing NonConjugatedSingleBond NonConjugatedSingleBondInRing NonConjugatedSingleBond NonConjugatedSingleBond NonConjugatedSingleBondInRing NonConjugatedSingleBond NonConjugatedSingleBond NonConjugatedSingleBond NonConjugatedSingleBondInRing NonConjugatedSingleBond NonConjugatedSingleBond NonConjugatedSingleBond NonConjugatedSingleBond NonConjugatedSingleBond NonConjugatedSingleBond NonConjugatedSingleBond NonConjugatedSingleBond NonConjugatedSingleBond NonConjugatedSingleBond NonConjugatedSingleBond NonConjugatedSingleBond NonConjugatedSingleBondInRing NonConjugatedSingleBondInRing NonConjugatedSingleBondInRing NonConjugatedSingleBond NonConjugatedSingleBond NonConjugatedSingleBondInRing NonConjugatedSingleBond NonConjugatedSingleBond NonConjugatedSingleBond NonConjugatedSingleBondInRing NonConjugatedSingleBond NonConjugatedSingleBond NonConjugatedSingleBond NonConjugatedSingleBond NonConjugatedSingleBond NonConjugatedSingleBond NonConjugatedSingleBond NonConjugatedSingleBond NonConjugatedSingleBond NonConjugatedSingleBond NonConjugatedSingleBond NonConjugatedSingleBond ConjugatedSingleBond NonConjugatedSingleBond ConjugatedSingleBond ConjugatedSingleBond ConjugatedDoubleBond ConjugatedSingleBond ConjugatedSingleBond ConjugatedSingleBond ConjugatedDoubleBond NonConjugatedSingleBond NonConjugatedSingleBond NonConjugatedSingleBond NonConjugatedSingleBond NonConjugatedSingleBond ConjugatedDoubleBond NonConjugatedSingleBond NonConjugatedSingleBond NonConjugatedSingleBond NonConjugatedSingleBond NonConjugatedSingleBond NonConjugatedSingleBond NonConjugatedSingleBond NonConjugatedSingleBond NonConjugatedSingleBond NonConjugatedSingleBond NonConjugatedSingleBond NonConjugatedSingleBond ConjugatedDoubleBond NonConjugatedSingleBond NonConjugatedSingleBond NonConjugatedSingleBond NonConjugatedSingleBond NonConjugatedSingleBond NonConjugatedSingleBond NonConjugatedSingleBond NonConjugatedSingleBond NonConjugatedSingleBond NonConjugatedSingleBond NonConjugatedSingleBond NonConjugatedSingleBond ConjugatedDoubleBond NonConjugatedSingleBond NonConjugatedSingleBond NonConjugatedSingleBond NonConjugatedSingleBond NonConjugatedSingleBond NonConjugatedSingleBond NonConjugatedSingleBond NonConjugatedSingleBond NonConjugatedSingleBond NonConjugatedSingleBond NonConjugatedSingleBond NonConjugatedSingleBond ConjugatedDoubleBond NonConjugatedSingleBond NonConjugatedSingleBond NonConjugatedSingleBond NonConjugatedSingleBond NonConjugatedSingleBond NonConjugatedSingleBond NonConjugatedSingleBond NonConjugatedSingleBond NonConjugatedSingleBond NonConjugatedSingleBond NonConjugatedSingleBond NonConjugatedSingleBond ConjugatedDoubleBond NonConjugatedSingleBond NonConjugatedSingleBond NonConjugatedSingleBond NonConjugatedSingleBond NonConjugatedSingleBond NonConjugatedSingleBond NonConjugatedSingleBond NonConjugatedSingleBond NonConjugatedSingleBond NonConjugatedSingleBond NonConjugatedSingleBond NonConjugatedSingleBond ConjugatedDoubleBond NonConjugatedSingleBond NonConjugatedSingleBond NonConjugatedSingleBond NonConjugatedSingleBond NonConjugatedSingleBond NonConjugatedSingleBond NonConjugatedSingleBond NonConjugatedSingleBond NonConjugatedSingleBond NonConjugatedSingleBond NonConjugatedSingleBond NonConjugatedSingleBond ConjugatedDoubleBond NonConjugatedSingleBond NonConjugatedSingleBond NonConjugatedSingleBond NonConjugatedSingleBond NonConjugatedSingleBond NonConjugatedSingleBond NonConjugatedSingleBond NonConjugatedSingleBond NonConjugatedSingleBond NonConjugatedSingleBond NonConjugatedSingleBond NonConjugatedSingleBond ConjugatedDoubleBond NonConjugatedSingleBond NonConjugatedSingleBond NonConjugatedSingleBond NonConjugatedSingleBond NonConjugatedSingleBond NonConjugatedSingleBond NonConjugatedSingleBond NonConjugatedSingleBond NonConjugatedSingleBond NonConjugatedSingleBond NonConjugatedSingleBond NonConjugatedSingleBond ConjugatedDoubleBond NonConjugatedSingleBond NonConjugatedSingleBond NonConjugatedSingleBond NonConjugatedSingleBond NonConjugatedSingleBond NonConjugatedSingleBond NonConjugatedSingleBond NonConjugatedSingleBond NonConjugatedSingleBond NonConjugatedSingleBond NonConjugatedSingleBond NonConjugatedSingleBond ConjugatedDoubleBond NonConjugatedSingleBond NonConjugatedSingleBond NonConjugatedSingleBond NonConjugatedSingleBond NonConjugatedSingleBond NonConjugatedSingleBond NonConjugatedSingleBond NonConjugatedSingleBond NonConjugatedSingleBond NonConjugatedSingleBondInRing NonConjugatedSingleBondInRing NonConjugatedSingleBond NonConjugatedSingleBond NonConjugatedSingleBondInRing NonConjugatedSingleBond NonConjugatedSingleBondInRing NonConjugatedSingleBond NonConjugatedSingleBondInRing NonConjugatedSingleBond NonConjugatedSingleBond NonConjugatedSingleBondInRing NonConjugatedSingleBond NonConjugatedSingleBond NonConjugatedSingleBond NonConjugatedSingleBond NonConjugatedSingleBond NonConjugatedSingleBond NonConjugatedSingleBond NonConjugatedSingleBond NonConjugatedSingleBond NonConjugatedSingleBondInRing NonConjugatedSingleBondInRing NonConjugatedSingleBond NonConjugatedSingleBondInRing NonConjugatedSingleBond NonConjugatedSingleBondInRing NonConjugatedSingleBond NonConjugatedSingleBondInRing NonConjugatedSingleBond NonConjugatedSingleBondInRing NonConjugatedSingleBond NonConjugatedSingleBond NonConjugatedSingleBond NonConjugatedSingleBond AmideSingleBond NonConjugatedSingleBond NonConjugatedSingleBond NonConjugatedSingleBond NonConjugatedSingleBond NonConjugatedSingleBond ConjugatedDoubleBond NonConjugatedSingleBond NonConjugatedSingleBond NonConjugatedSingleBond NonConjugatedSingleBond
M  BCL CHI   1   R   4   R   8   R  17   S  20   R  22   S  25   R  29   S  38   S  42   R  46   R  50   S 185   R 187   S 190   S 192   R 194   R 205   R 207   S 210   R 212   S 214   S
M  BCL DBI - - E E E E E E E E Z - -
M  END
> <ConfClashScore>
0.0167688 

> <ConfOneFourInteractionScore>
-0.97617 

> <ConfScore>
1.79155 

> <ConfScorePBest>
0.00696147 

> <ConfTolerance>
4.63561 

$$$$
L05.****
  PyMOL2.5          3D                             0

230233  0  0  0  0  0  0  0  0999 V2000
   12.0145   -2.9441   -2.8678 C   0  0  0  1  0  0  0  0  0  0  0  0
   11.2166   -3.3065   -2.2539 H   0  0  0  1  0  0  0  0  0  0  0  0
   11.9787   -3.5575   -4.1241 O   0  0  0  1  0  0  0  0  0  0  0  0
   11.8466   -1.4389   -3.1291 C   0  0  0  1  0  0  0  0  0  0  0  0
   12.7886   -0.9755   -3.3360 H   0  0  0  1  0  0  0  0  0  0  0  0
   11.2293   -0.7885   -2.0173 O   0  0  0  1  0  0  0  0  0  0  0  0
   11.9024   -0.5276   -1.3845 H   0  0  0  1  0  0  0  0  0  0  0  0
   10.9434   -1.4131   -4.3496 C   0  0  0  1  0  0  0  0  0  0  0  0
    9.9118   -1.4298   -4.0660 H   0  0  0  1  0  0  0  0  0  0  0  0
   11.1982   -0.2604   -5.1538 O   0  0  0  1  0  0  0  0  0  0  0  0
   11.9055    0.2554   -4.7596 H   0  0  0  1  0  0  0  0  0  0  0  0
    9.5135   -2.6549   -6.8518 C   0  0  0  1  0  0  0  0  0  0  0  0
    8.6367   -3.1585   -7.2017 H   0  0  0  1  0  0  0  0  0  0  0  0
    9.2627   -1.6524   -6.5740 H   0  0  0  1  0  0  0  0  0  0  0  0
   10.5070   -2.6425   -7.8723 O   0  0  0  1  0  0  0  0  0  0  0  0
   11.2854   -2.1778   -7.5562 H   0  0  0  1  0  0  0  0  0  0  0  0
   10.0968   -3.3966   -5.6537 C   0  0  0  1  0  0  0  0  0  0  0  0
   10.3653   -4.3845   -5.9647 H   0  0  0  1  0  0  0  0  0  0  0  0
    9.1293   -3.4644   -4.6114 O   0  0  0  1  0  0  0  0  0  0  0  0
   11.3378   -2.7117   -5.0956 C   0  0  0  1  0  0  0  0  0  0  0  0
   12.0129   -2.4889   -5.8953 H   0  0  0  1  0  0  0  0  0  0  0  0
    9.5454   -4.2099   -3.5042 C   0  0  0  1  0  0  0  0  0  0  0  0
   10.6106   -4.1569   -3.4178 H   0  0  0  1  0  0  0  0  0  0  0  0
    8.9306   -3.7297   -2.3271 O   0  0  0  1  0  0  0  0  0  0  0  0
    9.0955   -5.6535   -3.6376 C   0  0  0  1  0  0  0  0  0  0  0  0
    9.8225   -6.2388   -4.1608 H   0  0  0  1  0  0  0  0  0  0  0  0
    7.8381   -5.7430   -4.3096 O   0  0  0  1  0  0  0  0  0  0  0  0
    7.4012   -6.5617   -4.0640 H   0  0  0  1  0  0  0  0  0  0  0  0
    8.9775   -6.0885   -2.1996 C   0  0  0  1  0  0  0  0  0  0  0  0
    9.9330   -6.3373   -1.7874 H   0  0  0  1  0  0  0  0  0  0  0  0
    8.0944   -7.2027   -2.0630 O   0  0  0  1  0  0  0  0  0  0  0  0
    7.3761   -6.9715   -1.4695 H   0  0  0  1  0  0  0  0  0  0  0  0
   10.3593   -4.7100    0.0478 C   0  0  0  1  0  0  0  0  0  0  0  0
   10.7384   -5.6863   -0.1716 H   0  0  0  1  0  0  0  0  0  0  0  0
   10.7618   -4.0055   -0.6497 H   0  0  0  1  0  0  0  0  0  0  0  0
   10.7736   -4.3436    1.3560 O   0  0  0  1  0  0  0  0  0  0  0  0
   10.3396   -4.9085    1.9996 H   0  0  0  1  0  0  0  0  0  0  0  0
    8.8445   -4.7303   -0.0978 C   0  0  0  1  0  0  0  0  0  0  0  0
    8.4695   -3.8068    0.2914 H   0  0  0  1  0  0  0  0  0  0  0  0
    8.3173   -5.8050    0.6786 O   0  0  0  1  0  0  0  0  0  0  0  0
    8.9801   -6.1021    1.3063 H   0  0  0  1  0  0  0  0  0  0  0  0
    8.3980   -4.8344   -1.5467 C   0  0  0  1  0  0  0  0  0  0  0  0
    7.3289   -4.8461   -1.5910 H   0  0  0  1  0  0  0  0  0  0  0  0
   13.2596   -3.1993   -2.2280 O   0  0  0  1  0  0  0  0  0  0  0  0
   16.8600   -5.5714   -8.4310 O   0  0  0  1  0  0  0  0  0  0  0  0
   16.6870   -7.0522   -7.9275 P   0  0  0  1  0  0  0  0  0  0  0  0
   18.0318   -7.4816   -7.1413 O   0  0  0  1  0  0  0  0  0  0  0  0
   16.5587   -7.8791   -9.2045 O   0  0  0  0  0  0  0  0  0  0  0  0
   15.5483   -7.2228   -6.9800 O   0  0  0  1  0  0  0  0  0  0  0  0
   19.5328   -6.9918   -7.0553 P   0  0  0  1  0  0  0  0  0  0  0  0
   19.8537   -7.0734   -5.4990 O   0  0  0  1  0  0  0  0  0  0  0  0
   19.4871   -5.5493   -7.3896 O   0  0  0  0  0  0  0  0  0  0  0  0
   20.4250   -7.8854   -7.8170 O   0  0  0  1  0  0  0  0  0  0  0  0
   17.7457   -5.2607   -9.5376 C   0  0  0  1  0  0  0  0  0  0  0  0
   17.5082   -5.8713  -10.3836 H   0  0  0  1  0  0  0  0  0  0  0  0
   18.7640   -5.4251   -9.2532 H   0  0  0  1  0  0  0  0  0  0  0  0
   17.5269   -3.8131   -9.8658 C   0  0  0  1  0  0  0  0  0  0  0  0
   16.5383   -3.5011   -9.9499 H   0  0  0  1  0  0  0  0  0  0  0  0
   18.4583   -2.8872  -10.0605 C   0  0  0  1  0  0  0  0  0  0  0  0
   18.1188   -1.4262  -10.0557 C   0  0  0  1  0  0  0  0  0  0  0  0
   17.1655   -1.2794  -10.5192 H   0  0  0  1  0  0  0  0  0  0  0  0
   18.8657   -0.8849  -10.5979 H   0  0  0  1  0  0  0  0  0  0  0  0
   18.0828   -1.0719   -9.0467 H   0  0  0  1  0  0  0  0  0  0  0  0
   19.9073   -3.1942  -10.2992 C   0  0  0  1  0  0  0  0  0  0  0  0
   20.1405   -2.9225  -11.3075 H   0  0  0  1  0  0  0  0  0  0  0  0
   20.0469   -4.2473  -10.1716 H   0  0  0  1  0  0  0  0  0  0  0  0
   20.8848   -2.4771   -9.3822 C   0  0  0  1  0  0  0  0  0  0  0  0
   21.8666   -2.8618   -9.5636 H   0  0  0  1  0  0  0  0  0  0  0  0
   20.6063   -2.6728   -8.3678 H   0  0  0  1  0  0  0  0  0  0  0  0
   20.9071   -0.9986   -9.5924 C   0  0  0  1  0  0  0  0  0  0  0  0
   20.7727   -0.3799   -8.7673 H   0  0  0  1  0  0  0  0  0  0  0  0
   21.0901   -0.4348  -10.7816 C   0  0  0  1  0  0  0  0  0  0  0  0
   20.8000    1.0105  -11.0725 C   0  0  0  1  0  0  0  0  0  0  0  0
   20.2788    1.4438  -10.2446 H   0  0  0  1  0  0  0  0  0  0  0  0
   20.1946    1.0824  -11.9518 H   0  0  0  1  0  0  0  0  0  0  0  0
   21.7199    1.5343  -11.2283 H   0  0  0  1  0  0  0  0  0  0  0  0
   21.6137   -1.2200  -11.9526 C   0  0  0  1  0  0  0  0  0  0  0  0
   21.6742   -2.2507  -11.6718 H   0  0  0  1  0  0  0  0  0  0  0  0
   22.5909   -0.8580  -12.1957 H   0  0  0  1  0  0  0  0  0  0  0  0
   20.7344   -1.1056  -13.1871 C   0  0  0  1  0  0  0  0  0  0  0  0
   20.4487   -0.0816  -13.3081 H   0  0  0  1  0  0  0  0  0  0  0  0
   19.8606   -1.7052  -13.0396 H   0  0  0  1  0  0  0  0  0  0  0  0
   21.4171   -1.5594  -14.4357 C   0  0  0  1  0  0  0  0  0  0  0  0
   22.4451   -1.7145  -14.4087 H   0  0  0  1  0  0  0  0  0  0  0  0
   20.7729   -1.7756  -15.5841 C   0  0  0  1  0  0  0  0  0  0  0  0
   19.2724   -1.8871  -15.6270 C   0  0  0  1  0  0  0  0  0  0  0  0
   18.9069   -1.1580  -16.3196 H   0  0  0  1  0  0  0  0  0  0  0  0
   18.8971   -1.6700  -14.6487 H   0  0  0  1  0  0  0  0  0  0  0  0
   21.5184   -1.9162  -16.8791 C   0  0  0  1  0  0  0  0  0  0  0  0
   21.3318   -1.0603  -17.4935 H   0  0  0  1  0  0  0  0  0  0  0  0
   21.1878   -2.7982  -17.3868 H   0  0  0  1  0  0  0  0  0  0  0  0
   22.5672   -1.9905  -16.6804 H   0  0  0  1  0  0  0  0  0  0  0  0
   18.7316   -3.2444  -16.0461 C   0  0  0  1  0  0  0  0  0  0  0  0
   19.0742   -3.9693  -15.3375 H   0  0  0  1  0  0  0  0  0  0  0  0
   19.1293   -3.4741  -17.0126 H   0  0  0  1  0  0  0  0  0  0  0  0
   17.2331   -3.3450  -16.1250 C   0  0  0  1  0  0  0  0  0  0  0  0
   16.7756   -2.8432  -16.9128 H   0  0  0  1  0  0  0  0  0  0  0  0
   16.4309   -4.0050  -15.2982 C   0  0  0  1  0  0  0  0  0  0  0  0
   16.9756   -4.7675  -14.1238 C   0  0  0  1  0  0  0  0  0  0  0  0
   16.3412   -4.5923  -13.2801 H   0  0  0  1  0  0  0  0  0  0  0  0
   17.9605   -4.4074  -13.9110 H   0  0  0  1  0  0  0  0  0  0  0  0
   14.9383   -4.0583  -15.4439 C   0  0  0  1  0  0  0  0  0  0  0  0
   14.6514   -5.0120  -15.8351 H   0  0  0  1  0  0  0  0  0  0  0  0
   14.6177   -3.2875  -16.1132 H   0  0  0  1  0  0  0  0  0  0  0  0
   14.4814   -3.9134  -14.4872 H   0  0  0  1  0  0  0  0  0  0  0  0
   17.0509   -6.2656  -14.3697 C   0  0  0  1  0  0  0  0  0  0  0  0
   17.6975   -6.4418  -15.2038 H   0  0  0  1  0  0  0  0  0  0  0  0
   16.0684   -6.6231  -14.5975 H   0  0  0  1  0  0  0  0  0  0  0  0
   17.5768   -7.0319  -13.1855 C   0  0  0  1  0  0  0  0  0  0  0  0
   18.5451   -6.8062  -12.8802 H   0  0  0  1  0  0  0  0  0  0  0  0
   16.9383   -7.9653  -12.4880 C   0  0  0  1  0  0  0  0  0  0  0  0
   15.5368   -8.4168  -12.7872 C   0  0  0  1  0  0  0  0  0  0  0  0
   15.1432   -7.7633  -13.5375 H   0  0  0  1  0  0  0  0  0  0  0  0
   14.9675   -8.3113  -11.8874 H   0  0  0  1  0  0  0  0  0  0  0  0
   17.5857   -8.6552  -11.3204 C   0  0  0  1  0  0  0  0  0  0  0  0
   18.6454   -8.5135  -11.3645 H   0  0  0  1  0  0  0  0  0  0  0  0
   17.3642   -9.7013  -11.3570 H   0  0  0  1  0  0  0  0  0  0  0  0
   17.2085   -8.2419  -10.4084 H   0  0  0  1  0  0  0  0  0  0  0  0
   15.3476   -9.8420  -13.2807 C   0  0  0  1  0  0  0  0  0  0  0  0
   15.5773  -10.5215  -12.4867 H   0  0  0  1  0  0  0  0  0  0  0  0
   16.0077  -10.0186  -14.1041 H   0  0  0  1  0  0  0  0  0  0  0  0
   13.9438  -10.0653  -13.7237 C   0  0  0  1  0  0  0  0  0  0  0  0
   13.6717   -9.8238  -14.6980 H   0  0  0  1  0  0  0  0  0  0  0  0
   13.0321  -10.5675  -12.8977 C   0  0  0  1  0  0  0  0  0  0  0  0
   13.4277  -11.2357  -11.6082 C   0  0  0  1  0  0  0  0  0  0  0  0
   13.7690  -10.4850  -10.9263 H   0  0  0  1  0  0  0  0  0  0  0  0
   14.2227  -11.9226  -11.8104 H   0  0  0  1  0  0  0  0  0  0  0  0
   11.5543  -10.5234  -13.1546 C   0  0  0  1  0  0  0  0  0  0  0  0
   11.1788  -11.5206  -13.2521 H   0  0  0  1  0  0  0  0  0  0  0  0
   11.3655   -9.9816  -14.0578 H   0  0  0  1  0  0  0  0  0  0  0  0
   11.0648  -10.0366  -12.3371 H   0  0  0  1  0  0  0  0  0  0  0  0
   12.2845  -11.9970  -10.9570 C   0  0  0  1  0  0  0  0  0  0  0  0
   11.7573  -12.5352  -11.7168 H   0  0  0  1  0  0  0  0  0  0  0  0
   11.6249  -11.2920  -10.4957 H   0  0  0  1  0  0  0  0  0  0  0  0
   12.7442  -12.9676   -9.9190 C   0  0  0  1  0  0  0  0  0  0  0  0
   13.1440  -12.5934   -9.0349 H   0  0  0  1  0  0  0  0  0  0  0  0
   12.6674  -14.2855  -10.0696 C   0  0  0  1  0  0  0  0  0  0  0  0
   12.4224  -14.9604  -11.3879 C   0  0  0  1  0  0  0  0  0  0  0  0
   13.3393  -15.4137  -11.7021 H   0  0  0  1  0  0  0  0  0  0  0  0
   12.1345  -14.2101  -12.0944 H   0  0  0  1  0  0  0  0  0  0  0  0
   12.8238  -15.2207   -8.9036 C   0  0  0  1  0  0  0  0  0  0  0  0
   12.0564  -15.9655   -8.9377 H   0  0  0  1  0  0  0  0  0  0  0  0
   12.7442  -14.6684   -7.9906 H   0  0  0  1  0  0  0  0  0  0  0  0
   13.7822  -15.6939   -8.9524 H   0  0  0  1  0  0  0  0  0  0  0  0
   11.3469  -16.0344  -11.3802 C   0  0  0  1  0  0  0  0  0  0  0  0
   10.4303  -15.6105  -11.0267 H   0  0  0  1  0  0  0  0  0  0  0  0
   11.6482  -16.8278  -10.7285 H   0  0  0  1  0  0  0  0  0  0  0  0
   11.1353  -16.5830  -12.7555 C   0  0  0  1  0  0  0  0  0  0  0  0
   10.4201  -16.1053  -13.3402 H   0  0  0  1  0  0  0  0  0  0  0  0
   11.7620  -17.6145  -13.3113 C   0  0  0  1  0  0  0  0  0  0  0  0
   13.0241  -18.2154  -12.7641 C   0  0  0  1  0  0  0  0  0  0  0  0
   13.4755  -18.7981  -13.5398 H   0  0  0  1  0  0  0  0  0  0  0  0
   12.7588  -18.8530  -11.9468 H   0  0  0  1  0  0  0  0  0  0  0  0
   11.2423  -18.2707  -14.5568 C   0  0  0  1  0  0  0  0  0  0  0  0
   10.4802  -18.9756  -14.2977 H   0  0  0  1  0  0  0  0  0  0  0  0
   12.0431  -18.7779  -15.0531 H   0  0  0  1  0  0  0  0  0  0  0  0
   10.8331  -17.5265  -15.2076 H   0  0  0  1  0  0  0  0  0  0  0  0
   14.0573  -17.2185  -12.2649 C   0  0  0  1  0  0  0  0  0  0  0  0
   14.6346  -17.6839  -11.4935 H   0  0  0  1  0  0  0  0  0  0  0  0
   13.5449  -16.3688  -11.8644 H   0  0  0  1  0  0  0  0  0  0  0  0
   14.9932  -16.7480  -13.3460 C   0  0  0  1  0  0  0  0  0  0  0  0
   15.3870  -15.7895  -13.2580 H   0  0  0  1  0  0  0  0  0  0  0  0
   15.3533  -17.4654  -14.4035 C   0  0  0  1  0  0  0  0  0  0  0  0
   16.0151  -16.8266  -15.5934 C   0  0  0  1  0  0  0  0  0  0  0  0
   15.3252  -16.8335  -16.4113 H   0  0  0  1  0  0  0  0  0  0  0  0
   16.8803  -17.4010  -15.8511 H   0  0  0  1  0  0  0  0  0  0  0  0
   15.1448  -18.9469  -14.5212 C   0  0  0  1  0  0  0  0  0  0  0  0
   14.1311  -19.0684  -14.8413 H   0  0  0  1  0  0  0  0  0  0  0  0
   15.2974  -19.4222  -13.5748 H   0  0  0  1  0  0  0  0  0  0  0  0
   15.8170  -19.3629  -15.2423 H   0  0  0  1  0  0  0  0  0  0  0  0
   16.4459  -15.3918  -15.3361 C   0  0  0  1  0  0  0  0  0  0  0  0
   16.9837  -15.3583  -14.4117 H   0  0  0  1  0  0  0  0  0  0  0  0
   15.5703  -14.7813  -15.2623 H   0  0  0  1  0  0  0  0  0  0  0  0
   17.3267  -14.8366  -16.4232 C   0  0  0  1  0  0  0  0  0  0  0  0
   17.7475  -15.5274  -17.0770 H   0  0  0  1  0  0  0  0  0  0  0  0
   17.6248  -13.5608  -16.6380 C   0  0  0  1  0  0  0  0  0  0  0  0
   17.0971  -12.4751  -15.7458 C   0  0  0  1  0  0  0  0  0  0  0  0
   17.7252  -11.6123  -15.8234 H   0  0  0  1  0  0  0  0  0  0  0  0
   17.0878  -12.8193  -14.7328 H   0  0  0  1  0  0  0  0  0  0  0  0
   16.1022  -12.2197  -16.0455 H   0  0  0  1  0  0  0  0  0  0  0  0
   18.5005  -13.0790  -17.7691 C   0  0  0  1  0  0  0  0  0  0  0  0
   18.0633  -13.4263  -18.6818 H   0  0  0  1  0  0  0  0  0  0  0  0
   19.4880  -13.4767  -17.6620 H   0  0  0  1  0  0  0  0  0  0  0  0
   18.5439  -12.0098  -17.7681 H   0  0  0  1  0  0  0  0  0  0  0  0
   16.2049   -5.1110   -1.7407 C   0  0  0  1  0  0  0  0  0  0  0  0
   16.5446   -5.6560   -0.8848 H   0  0  0  1  0  0  0  0  0  0  0  0
   14.9137   -5.7318   -2.2581 C   0  0  0  1  0  0  0  0  0  0  0  0
   15.0962   -6.7401   -2.5661 H   0  0  0  1  0  0  0  0  0  0  0  0
   15.9657   -3.7500   -1.3748 O   0  0  0  1  0  0  0  0  0  0  0  0
   14.4231   -4.9075   -3.4525 C   0  0  0  1  0  0  0  0  0  0  0  0
   13.4508   -5.2548   -3.7332 H   0  0  0  1  0  0  0  0  0  0  0  0
   15.6326   -2.9312   -2.5066 C   0  0  0  1  0  0  0  0  0  0  0  0
   16.4215   -2.9844   -3.2276 H   0  0  0  1  0  0  0  0  0  0  0  0
   14.3387   -3.4241   -3.1371 C   0  0  0  1  0  0  0  0  0  0  0  0
   14.1614   -2.8825   -4.0427 H   0  0  0  1  0  0  0  0  0  0  0  0
   17.1966   -5.1608   -2.7599 O   0  0  0  1  0  0  0  0  0  0  0  0
   13.9259   -5.7198   -1.2259 O   0  0  0  1  0  0  0  0  0  0  0  0
   13.0582   -5.5863   -1.6143 H   0  0  0  1  0  0  0  0  0  0  0  0
   15.3235   -5.0928   -4.5349 O   0  0  0  1  0  0  0  0  0  0  0  0
   15.7346   -5.9576   -4.4653 H   0  0  0  1  0  0  0  0  0  0  0  0
   15.4561   -1.4913   -2.0529 C   0  0  0  1  0  0  0  0  0  0  0  0
   14.4396   -1.1921   -2.2016 H   0  0  0  1  0  0  0  0  0  0  0  0
   16.1016   -0.8563   -2.6229 H   0  0  0  1  0  0  0  0  0  0  0  0
   15.7028   -1.4120   -1.0147 H   0  0  0  1  0  0  0  0  0  0  0  0
   19.2933   -6.0760   -4.6265 C   0  0  0  1  0  0  0  0  0  0  0  0
   18.4019   -5.6783   -5.0647 H   0  0  0  1  0  0  0  0  0  0  0  0
   18.9497   -6.7185   -3.2856 C   0  0  0  1  0  0  0  0  0  0  0  0
   19.8223   -7.1895   -2.8835 H   0  0  0  1  0  0  0  0  0  0  0  0
   20.2361   -5.0263   -4.4501 O   0  0  0  1  0  0  0  0  0  0  0  0
   18.4558   -5.6510   -2.3116 C   0  0  0  1  0  0  0  0  0  0  0  0
   18.3438   -6.0888   -1.3417 H   0  0  0  1  0  0  0  0  0  0  0  0
   19.7495   -3.9601   -3.6199 C   0  0  0  1  0  0  0  0  0  0  0  0
   20.4966   -3.1977   -3.5467 H   0  0  0  1  0  0  0  0  0  0  0  0
   19.4320   -4.4959   -2.2223 C   0  0  0  1  0  0  0  0  0  0  0  0
   19.0000   -3.7134   -1.6341 H   0  0  0  1  0  0  0  0  0  0  0  0
   17.9064   -7.7142   -3.4805 N   0  0  0  1  0  0  0  0  0  0  0  0
   17.8340   -8.1593   -4.3506 H   0  0  0  1  0  0  0  0  0  0  0  0
   20.6349   -4.9443   -1.6068 O   0  0  0  1  0  0  0  0  0  0  0  0
   21.2656   -5.0886   -2.3161 H   0  0  0  1  0  0  0  0  0  0  0  0
   18.5032   -3.3839   -4.2279 C   0  0  0  1  0  0  0  0  0  0  0  0
   17.6684   -4.0083   -3.9868 H   0  0  0  1  0  0  0  0  0  0  0  0
   18.6165   -3.3337   -5.2907 H   0  0  0  1  0  0  0  0  0  0  0  0
   18.2799   -2.0774   -3.7143 O   0  0  0  1  0  0  0  0  0  0  0  0
   17.3978   -1.8001   -3.9722 H   0  0  0  1  0  0  0  0  0  0  0  0
   17.0439   -8.0427   -2.5144 C   0  0  0  1  0  0  0  0  0  0  0  0
   17.2134   -7.7416   -1.3359 O   0  0  0  1  0  0  0  0  0  0  0  0
   15.8217   -8.8219   -2.9596 C   0  0  0  1  0  0  0  0  0  0  0  0
   16.2203   -9.6844   -3.4515 H   0  0  0  1  0  0  0  0  0  0  0  0
   15.2282   -8.2416   -3.6349 H   0  0  0  1  0  0  0  0  0  0  0  0
   15.2274   -9.1076   -2.1169 H   0  0  0  1  0  0  0  0  0  0  0  0
  1  2  1  0  0  0  0
  1  3  1  0  0  0  0
  1  4  1  0  0  0  0
  1 44  1  0  0  0  0
  3 20  1  0  0  0  0
  4  5  1  0  0  0  0
  4  6  1  0  0  0  0
  4  8  1  0  0  0  0
  6  7  1  0  0  0  0
  8  9  1  0  0  0  0
  8 10  1  0  0  0  0
  8 20  1  0  0  0  0
 10 11  1  0  0  0  0
 12 13  1  0  0  0  0
 12 14  1  0  0  0  0
 12 15  1  0  0  0  0
 12 17  1  0  0  0  0
 15 16  1  0  0  0  0
 17 18  1  0  0  0  0
 17 19  1  0  0  0  0
 17 20  1  0  0  0  0
 19 22  1  0  0  0  0
 20 21  1  0  0  0  0
 22 23  1  0  0  0  0
 22 24  1  0  0  0  0
 22 25  1  0  0  0  0
 24 42  1  0  0  0  0
 25 26  1  0  0  0  0
 25 27  1  0  0  0  0
 25 29  1  0  0  0  0
 27 28  1  0  0  0  0
 29 30  1  0  0  0  0
 29 31  1  0  0  0  0
 29 42  1  0  0  0  0
 31 32  1  0  0  0  0
 33 34  1  0  0  0  0
 33 35  1  0  0  0  0
 33 36  1  0  0  0  0
 33 38  1  0  0  0  0
 36 37  1  0  0  0  0
 38 39  1  0  0  0  0
 38 40  1  0  0  0  0
 38 42  1  0  0  0  0
 40 41  1  0  0  0  0
 42 43  1  0  0  0  0
 44194  1  0  0  0  0
 45 46  1  0  0  0  0
 45 54  1  0  0  0  0
 46 47  1  0  0  0  0
 46 48  1  0  0  0  0
 46 49  2  0  0  0  0
 47 50  1  0  0  0  0
 50 51  1  0  0  0  0
 50 52  1  0  0  0  0
 50 53  2  0  0  0  0
 51205  1  0  0  0  0
 54 55  1  0  0  0  0
 54 56  1  0  0  0  0
 54 57  1  0  0  0  0
 57 58  1  0  0  0  0
 57 59  2  0  0  0  0
 59 60  1  0  0  0  0
 59 64  1  0  0  0  0
 60 61  1  0  0  0  0
 60 62  1  0  0  0  0
 60 63  1  0  0  0  0
 64 65  1  0  0  0  0
 64 66  1  0  0  0  0
 64 67  1  0  0  0  0
 67 68  1  0  0  0  0
 67 69  1  0  0  0  0
 67 70  1  0  0  0  0
 70 71  1  0  0  0  0
 70 72  2  0  0  0  0
 72 73  1  0  0  0  0
 72 77  1  0  0  0  0
 73 74  1  0  0  0  0
 73 75  1  0  0  0  0
 73 76  1  0  0  0  0
 77 78  1  0  0  0  0
 77 79  1  0  0  0  0
 77 80  1  0  0  0  0
 80 81  1  0  0  0  0
 80 82  1  0  0  0  0
 80 83  1  0  0  0  0
 83 84  1  0  0  0  0
 83 85  2  0  0  0  0
 85 86  1  0  0  0  0
 85 89  1  0  0  0  0
 86 87  1  0  0  0  0
 86 88  1  0  0  0  0
 86 93  1  0  0  0  0
 89 90  1  0  0  0  0
 89 91  1  0  0  0  0
 89 92  1  0  0  0  0
 93 94  1  0  0  0  0
 93 95  1  0  0  0  0
 93 96  1  0  0  0  0
 96 97  1  0  0  0  0
 96 98  2  0  0  0  0
 98 99  1  0  0  0  0
 98102  1  0  0  0  0
 99100  1  0  0  0  0
 99101  1  0  0  0  0
 99106  1  0  0  0  0
102103  1  0  0  0  0
102104  1  0  0  0  0
102105  1  0  0  0  0
106107  1  0  0  0  0
106108  1  0  0  0  0
106109  1  0  0  0  0
109110  1  0  0  0  0
109111  2  0  0  0  0
111112  1  0  0  0  0
111115  1  0  0  0  0
112113  1  0  0  0  0
112114  1  0  0  0  0
112119  1  0  0  0  0
115116  1  0  0  0  0
115117  1  0  0  0  0
115118  1  0  0  0  0
119120  1  0  0  0  0
119121  1  0  0  0  0
119122  1  0  0  0  0
122123  1  0  0  0  0
122124  2  0  0  0  0
124125  1  0  0  0  0
124128  1  0  0  0  0
125126  1  0  0  0  0
125127  1  0  0  0  0
125132  1  0  0  0  0
128129  1  0  0  0  0
128130  1  0  0  0  0
128131  1  0  0  0  0
132133  1  0  0  0  0
132134  1  0  0  0  0
132135  1  0  0  0  0
135136  1  0  0  0  0
135137  2  0  0  0  0
137138  1  0  0  0  0
137141  1  0  0  0  0
138139  1  0  0  0  0
138140  1  0  0  0  0
138145  1  0  0  0  0
141142  1  0  0  0  0
141143  1  0  0  0  0
141144  1  0  0  0  0
145146  1  0  0  0  0
145147  1  0  0  0  0
145148  1  0  0  0  0
148149  1  0  0  0  0
148150  2  0  0  0  0
150151  1  0  0  0  0
150154  1  0  0  0  0
151152  1  0  0  0  0
151153  1  0  0  0  0
151158  1  0  0  0  0
154155  1  0  0  0  0
154156  1  0  0  0  0
154157  1  0  0  0  0
158159  1  0  0  0  0
158160  1  0  0  0  0
158161  1  0  0  0  0
161162  1  0  0  0  0
161163  2  0  0  0  0
163164  1  0  0  0  0
163167  1  0  0  0  0
164165  1  0  0  0  0
164166  1  0  0  0  0
164171  1  0  0  0  0
167168  1  0  0  0  0
167169  1  0  0  0  0
167170  1  0  0  0  0
171172  1  0  0  0  0
171173  1  0  0  0  0
171174  1  0  0  0  0
174175  1  0  0  0  0
174176  2  0  0  0  0
176177  1  0  0  0  0
176181  1  0  0  0  0
177178  1  0  0  0  0
177179  1  0  0  0  0
177180  1  0  0  0  0
181182  1  0  0  0  0
181183  1  0  0  0  0
181184  1  0  0  0  0
185186  1  0  0  0  0
185187  1  0  0  0  0
185189  1  0  0  0  0
185196  1  0  0  0  0
187188  1  0  0  0  0
187190  1  0  0  0  0
187197  1  0  0  0  0
189192  1  0  0  0  0
190191  1  0  0  0  0
190194  1  0  0  0  0
190199  1  0  0  0  0
192193  1  0  0  0  0
192194  1  0  0  0  0
192201  1  0  0  0  0
194195  1  0  0  0  0
196210  1  0  0  0  0
197198  1  0  0  0  0
199200  1  0  0  0  0
201202  1  0  0  0  0
201203  1  0  0  0  0
201204  1  0  0  0  0
205206  1  0  0  0  0
205207  1  0  0  0  0
205209  1  0  0  0  0
207208  1  0  0  0  0
207210  1  0  0  0  0
207216  1  0  0  0  0
209212  1  0  0  0  0
210211  1  0  0  0  0
210214  1  0  0  0  0
212213  1  0  0  0  0
212214  1  0  0  0  0
212220  1  0  0  0  0
214215  1  0  0  0  0
214218  1  0  0  0  0
216217  1  0  0  0  0
216225  1  0  0  0  0
218219  1  0  0  0  0
220221  1  0  0  0  0
220222  1  0  0  0  0
220223  1  0  0  0  0
223224  1  0  0  0  0
225226  2  0  0  0  0
225227  1  0  0  0  0
227228  1  0  0  0  0
227229  1  0  0  0  0
227230  1  0  0  0  0
M  BCL ATM C_TeTeTeTe H_S O_Te2Te2TeTe C_TeTeTeTe H_S O_Te2Te2TeTe H_S C_TeTeTeTe H_S O_Te2Te2TeTe H_S C_TeTeTeTe H_S H_S O_Te2Te2TeTe H_S C_TeTeTeTe H_S O_Te2Te2TeTe C_TeTeTeTe H_S C_TeTeTeTe H_S O_Te2Te2TeTe C_TeTeTeTe H_S O_Te2Te2TeTe H_S C_TeTeTeTe H_S O_Te2Te2TeTe H_S C_TeTeTeTe H_S H_S O_Te2Te2TeTe H_S C_TeTeTeTe H_S O_Te2Te2TeTe H_S C_TeTeTeTe H_S O_Te2Te2TeTe O_Tr2TrTrPi2 P_TeTeTeTePi O_Tr2TrTrPi2 O_Te2Te2TeTe O_Tr2Tr2TrPi P_TeTeTeTePi O_Tr2TrTrPi2 O_Te2Te2TeTe O_Tr2Tr2TrPi C_TeTeTeTe H_S H_S C_TrTrTrPi H_S C_TrTrTrPi C_TeTeTeTe H_S H_S H_S C_TeTeTeTe H_S H_S C_TeTeTeTe H_S H_S C_TrTrTrPi H_S C_TrTrTrPi C_TeTeTeTe H_S H_S H_S C_TeTeTeTe H_S H_S C_TeTeTeTe H_S H_S C_TrTrTrPi H_S C_TrTrTrPi C_TeTeTeTe H_S H_S C_TeTeTeTe H_S H_S H_S C_TeTeTeTe H_S H_S C_TrTrTrPi H_S C_TrTrTrPi C_TeTeTeTe H_S H_S C_TeTeTeTe H_S H_S H_S C_TeTeTeTe H_S H_S C_TrTrTrPi H_S C_TrTrTrPi C_TeTeTeTe H_S H_S C_TeTeTeTe H_S H_S H_S C_TeTeTeTe H_S H_S C_TrTrTrPi H_S C_TrTrTrPi C_TeTeTeTe H_S H_S C_TeTeTeTe H_S H_S H_S C_TeTeTeTe H_S H_S C_TrTrTrPi H_S C_TrTrTrPi C_TeTeTeTe H_S H_S C_TeTeTeTe H_S H_S H_S C_TeTeTeTe H_S H_S C_TrTrTrPi H_S C_TrTrTrPi C_TeTeTeTe H_S H_S C_TeTeTeTe H_S H_S H_S C_TeTeTeTe H_S H_S C_TrTrTrPi H_S C_TrTrTrPi C_TeTeTeTe H_S H_S C_TeTeTeTe H_S H_S H_S C_TeTeTeTe H_S H_S C_TrTrTrPi H_S C_TrTrTrPi C_TeTeTeTe H_S H_S H_S C_TeTeTeTe H_S H_S H_S C_TeTeTeTe H_S C_TeTeTeTe H_S O_Te2Te2TeTe C_TeTeTeTe H_S C_TeTeTeTe H_S C_TeTeTeTe H_S O_Te2Te2TeTe O_Te2Te2TeTe H_S O_Te2Te2TeTe H_S C_TeTeTeTe H_S H_S H_S C_TeTeTeTe H_S C_TeTeTeTe H_S O_Te2Te2TeTe C_TeTeTeTe H_S C_TeTeTeTe H_S C_TeTeTeTe H_S N_TrTrTrPi2 H_S O_Te2Te2TeTe H_S C_TeTeTeTe H_S H_S O_Te2Te2TeTe H_S C_TrTrTrPi O_Tr2Tr2TrPi C_TeTeTeTe H_S H_S H_S
M  BCL BND NonConjugatedSingleBond NonConjugatedSingleBondInRing NonConjugatedSingleBondInRing NonConjugatedSingleBond NonConjugatedSingleBondInRing NonConjugatedSingleBond NonConjugatedSingleBond NonConjugatedSingleBondInRing NonConjugatedSingleBond NonConjugatedSingleBond NonConjugatedSingleBond NonConjugatedSingleBondInRing NonConjugatedSingleBond NonConjugatedSingleBond NonConjugatedSingleBond NonConjugatedSingleBond NonConjugatedSingleBond NonConjugatedSingleBond NonConjugatedSingleBond NonConjugatedSingleBond NonConjugatedSingleBond NonConjugatedSingleBond NonConjugatedSingleBond NonConjugatedSingleBond NonConjugatedSingleBondInRing NonConjugatedSingleBondInRing NonConjugatedSingleBondInRing NonConjugatedSingleBond NonConjugatedSingleBond NonConjugatedSingleBondInRing NonConjugatedSingleBond NonConjugatedSingleBond NonConjugatedSingleBond NonConjugatedSingleBondInRing NonConjugatedSingleBond NonConjugatedSingleBond NonConjugatedSingleBond NonConjugatedSingleBond NonConjugatedSingleBond NonConjugatedSingleBond NonConjugatedSingleBond NonConjugatedSingleBond NonConjugatedSingleBond NonConjugatedSingleBond NonConjugatedSingleBond NonConjugatedSingleBond ConjugatedSingleBond NonConjugatedSingleBond ConjugatedSingleBond ConjugatedSingleBond ConjugatedDoubleBond ConjugatedSingleBond ConjugatedSingleBond ConjugatedSingleBond ConjugatedDoubleBond NonConjugatedSingleBond NonConjugatedSingleBond NonConjugatedSingleBond NonConjugatedSingleBond NonConjugatedSingleBond ConjugatedDoubleBond NonConjugatedSingleBond NonConjugatedSingleBond NonConjugatedSingleBond NonConjugatedSingleBond NonConjugatedSingleBond NonConjugatedSingleBond NonConjugatedSingleBond NonConjugatedSingleBond NonConjugatedSingleBond NonConjugatedSingleBond NonConjugatedSingleBond NonConjugatedSingleBond ConjugatedDoubleBond NonConjugatedSingleBond NonConjugatedSingleBond NonConjugatedSingleBond NonConjugatedSingleBond NonConjugatedSingleBond NonConjugatedSingleBond NonConjugatedSingleBond NonConjugatedSingleBond NonConjugatedSingleBond NonConjugatedSingleBond NonConjugatedSingleBond NonConjugatedSingleBond ConjugatedDoubleBond NonConjugatedSingleBond NonConjugatedSingleBond NonConjugatedSingleBond NonConjugatedSingleBond NonConjugatedSingleBond NonConjugatedSingleBond NonConjugatedSingleBond NonConjugatedSingleBond NonConjugatedSingleBond NonConjugatedSingleBond NonConjugatedSingleBond NonConjugatedSingleBond ConjugatedDoubleBond NonConjugatedSingleBond NonConjugatedSingleBond NonConjugatedSingleBond NonConjugatedSingleBond NonConjugatedSingleBond NonConjugatedSingleBond NonConjugatedSingleBond NonConjugatedSingleBond NonConjugatedSingleBond NonConjugatedSingleBond NonConjugatedSingleBond NonConjugatedSingleBond ConjugatedDoubleBond NonConjugatedSingleBond NonConjugatedSingleBond NonConjugatedSingleBond NonConjugatedSingleBond NonConjugatedSingleBond NonConjugatedSingleBond NonConjugatedSingleBond NonConjugatedSingleBond NonConjugatedSingleBond NonConjugatedSingleBond NonConjugatedSingleBond NonConjugatedSingleBond ConjugatedDoubleBond NonConjugatedSingleBond NonConjugatedSingleBond NonConjugatedSingleBond NonConjugatedSingleBond NonConjugatedSingleBond NonConjugatedSingleBond NonConjugatedSingleBond NonConjugatedSingleBond NonConjugatedSingleBond NonConjugatedSingleBond NonConjugatedSingleBond NonConjugatedSingleBond ConjugatedDoubleBond NonConjugatedSingleBond NonConjugatedSingleBond NonConjugatedSingleBond NonConjugatedSingleBond NonConjugatedSingleBond NonConjugatedSingleBond NonConjugatedSingleBond NonConjugatedSingleBond NonConjugatedSingleBond NonConjugatedSingleBond NonConjugatedSingleBond NonConjugatedSingleBond ConjugatedDoubleBond NonConjugatedSingleBond NonConjugatedSingleBond NonConjugatedSingleBond NonConjugatedSingleBond NonConjugatedSingleBond NonConjugatedSingleBond NonConjugatedSingleBond NonConjugatedSingleBond NonConjugatedSingleBond NonConjugatedSingleBond NonConjugatedSingleBond NonConjugatedSingleBond ConjugatedDoubleBond NonConjugatedSingleBond NonConjugatedSingleBond NonConjugatedSingleBond NonConjugatedSingleBond NonConjugatedSingleBond NonConjugatedSingleBond NonConjugatedSingleBond NonConjugatedSingleBond NonConjugatedSingleBond NonConjugatedSingleBond NonConjugatedSingleBond NonConjugatedSingleBond ConjugatedDoubleBond NonConjugatedSingleBond NonConjugatedSingleBond NonConjugatedSingleBond NonConjugatedSingleBond NonConjugatedSingleBond NonConjugatedSingleBond NonConjugatedSingleBond NonConjugatedSingleBond NonConjugatedSingleBond NonConjugatedSingleBondInRing NonConjugatedSingleBondInRing NonConjugatedSingleBond NonConjugatedSingleBond NonConjugatedSingleBondInRing NonConjugatedSingleBond NonConjugatedSingleBondInRing NonConjugatedSingleBond NonConjugatedSingleBondInRing NonConjugatedSingleBond NonConjugatedSingleBond NonConjugatedSingleBondInRing NonConjugatedSingleBond NonConjugatedSingleBond NonConjugatedSingleBond NonConjugatedSingleBond NonConjugatedSingleBond NonConjugatedSingleBond NonConjugatedSingleBond NonConjugatedSingleBond NonConjugatedSingleBond NonConjugatedSingleBondInRing NonConjugatedSingleBondInRing NonConjugatedSingleBond NonConjugatedSingleBondInRing NonConjugatedSingleBond NonConjugatedSingleBondInRing NonConjugatedSingleBond NonConjugatedSingleBondInRing NonConjugatedSingleBond NonConjugatedSingleBondInRing NonConjugatedSingleBond NonConjugatedSingleBond NonConjugatedSingleBond NonConjugatedSingleBond AmideSingleBond NonConjugatedSingleBond NonConjugatedSingleBond NonConjugatedSingleBond NonConjugatedSingleBond NonConjugatedSingleBond ConjugatedDoubleBond NonConjugatedSingleBond NonConjugatedSingleBond NonConjugatedSingleBond NonConjugatedSingleBond
M  BCL CHI   1   R   4   R   8   R  17   S  20   R  22   S  25   R  29   S  38   S  42   R  46   R  50   S 185   R 187   S 190   S 192   R 194   R 205   R 207   S 210   R 212   S 214   S
M  BCL DBI - - E E E E E E E E Z - -
M  END
> <ConfClashScore>
0.0160409 

> <ConfOneFourInteractionScore>
-0.966622 

> <ConfScore>
1.82807 

> <ConfScorePBest>
0.00685847 

> <ConfTolerance>
4.32096 

$$$$
L05.****
  PyMOL2.5          3D                             0

230233  0  0  0  0  0  0  0  0999 V2000
   12.6099   -1.9817   -2.5307 C   0  0  0  1  0  0  0  0  0  0  0  0
   12.8043   -1.4520   -1.6216 H   0  0  0  1  0  0  0  0  0  0  0  0
   11.2306   -2.1079   -2.7467 O   0  0  0  1  0  0  0  0  0  0  0  0
   13.1116   -1.1838   -3.7430 C   0  0  0  1  0  0  0  0  0  0  0  0
   14.1366   -1.4067   -3.9541 H   0  0  0  1  0  0  0  0  0  0  0  0
   12.9628    0.2211   -3.5322 O   0  0  0  1  0  0  0  0  0  0  0  0
   12.0683    0.4861   -3.7586 H   0  0  0  1  0  0  0  0  0  0  0  0
   12.2119   -1.6649   -4.8510 C   0  0  0  1  0  0  0  0  0  0  0  0
   12.1057   -0.9187   -5.6105 H   0  0  0  1  0  0  0  0  0  0  0  0
   12.7143   -2.8690   -5.4325 O   0  0  0  1  0  0  0  0  0  0  0  0
   13.6693   -2.8124   -5.5118 H   0  0  0  1  0  0  0  0  0  0  0  0
    8.6041   -1.0208   -4.9243 C   0  0  0  1  0  0  0  0  0  0  0  0
    8.1264   -1.8188   -4.3952 H   0  0  0  1  0  0  0  0  0  0  0  0
    7.9818   -0.1508   -4.8963 H   0  0  0  1  0  0  0  0  0  0  0  0
    8.8409   -1.4061   -6.2749 O   0  0  0  1  0  0  0  0  0  0  0  0
    9.6139   -1.9740   -6.3154 H   0  0  0  1  0  0  0  0  0  0  0  0
    9.9570   -0.7135   -4.2919 C   0  0  0  1  0  0  0  0  0  0  0  0
    9.7814   -0.3029   -3.3196 H   0  0  0  1  0  0  0  0  0  0  0  0
   10.6043    0.2641   -5.1057 O   0  0  0  1  0  0  0  0  0  0  0  0
   10.8807   -1.9142   -4.1357 C   0  0  0  1  0  0  0  0  0  0  0  0
   10.4014   -2.7869   -4.5276 H   0  0  0  1  0  0  0  0  0  0  0  0
   10.4092    1.5688   -4.6078 C   0  0  0  1  0  0  0  0  0  0  0  0
   11.1106    1.7601   -3.8227 H   0  0  0  1  0  0  0  0  0  0  0  0
   10.5448    2.5417   -5.6608 O   0  0  0  1  0  0  0  0  0  0  0  0
    9.0063    1.7445   -4.1188 C   0  0  0  1  0  0  0  0  0  0  0  0
    8.9263    1.4658   -3.0888 H   0  0  0  1  0  0  0  0  0  0  0  0
    8.0980    0.9627   -4.8962 O   0  0  0  1  0  0  0  0  0  0  0  0
    8.0787    1.2951   -5.7966 H   0  0  0  1  0  0  0  0  0  0  0  0
    8.7378    3.1809   -4.2923 C   0  0  0  1  0  0  0  0  0  0  0  0
    8.9656    3.7155   -3.3938 H   0  0  0  1  0  0  0  0  0  0  0  0
    7.3727    3.3944   -4.6396 O   0  0  0  1  0  0  0  0  0  0  0  0
    6.8134    2.8258   -4.1052 H   0  0  0  1  0  0  0  0  0  0  0  0
    9.4360    6.0291   -4.9221 C   0  0  0  1  0  0  0  0  0  0  0  0
    8.9722    6.0515   -3.9581 H   0  0  0  1  0  0  0  0  0  0  0  0
    9.9734    6.9406   -5.0811 H   0  0  0  1  0  0  0  0  0  0  0  0
    8.4380    5.8887   -5.9229 O   0  0  0  1  0  0  0  0  0  0  0  0
    7.6867    5.4125   -5.5618 H   0  0  0  1  0  0  0  0  0  0  0  0
   10.3980    4.8577   -4.9918 C   0  0  0  1  0  0  0  0  0  0  0  0
   10.9227    4.7233   -4.0690 H   0  0  0  1  0  0  0  0  0  0  0  0
   11.3010    5.1063   -6.1169 O   0  0  0  1  0  0  0  0  0  0  0  0
   11.9705    4.4190   -6.1484 H   0  0  0  1  0  0  0  0  0  0  0  0
    9.6333    3.6195   -5.4018 C   0  0  0  1  0  0  0  0  0  0  0  0
    9.0559    3.8300   -6.2777 H   0  0  0  1  0  0  0  0  0  0  0  0
   13.2140   -3.2262   -2.4787 O   0  0  0  1  0  0  0  0  0  0  0  0
   22.2024  -10.0400   -6.8147 O   0  0  0  1  0  0  0  0  0  0  0  0
   22.7727  -10.0633   -5.3519 P   0  0  0  1  0  0  0  0  0  0  0  0
   21.7389   -9.0509   -4.6538 O   0  0  0  1  0  0  0  0  0  0  0  0
   24.1152   -9.4389   -5.4713 O   0  0  0  0  0  0  0  0  0  0  0  0
   22.6554  -11.3852   -4.6872 O   0  0  0  1  0  0  0  0  0  0  0  0
   20.8728   -7.8591   -5.2149 P   0  0  0  1  0  0  0  0  0  0  0  0
   20.7034   -7.0251   -3.8953 O   0  0  0  1  0  0  0  0  0  0  0  0
   19.5956   -8.4863   -5.5990 O   0  0  0  0  0  0  0  0  0  0  0  0
   21.5843   -7.0228   -6.2086 O   0  0  0  1  0  0  0  0  0  0  0  0
   20.9228  -10.5890   -7.1679 C   0  0  0  1  0  0  0  0  0  0  0  0
   20.1530  -10.0950   -6.6127 H   0  0  0  1  0  0  0  0  0  0  0  0
   20.9065  -11.6359   -6.9474 H   0  0  0  1  0  0  0  0  0  0  0  0
   20.7024  -10.3797   -8.6277 C   0  0  0  1  0  0  0  0  0  0  0  0
   21.1621   -9.5486   -9.0515 H   0  0  0  1  0  0  0  0  0  0  0  0
   19.9762  -11.1464   -9.4528 C   0  0  0  1  0  0  0  0  0  0  0  0
   20.1450  -10.9715  -10.9456 C   0  0  0  1  0  0  0  0  0  0  0  0
   19.2064  -10.7005  -11.3819 H   0  0  0  1  0  0  0  0  0  0  0  0
   20.4860  -11.8900  -11.3757 H   0  0  0  1  0  0  0  0  0  0  0  0
   20.8621  -10.2004  -11.1353 H   0  0  0  1  0  0  0  0  0  0  0  0
   18.9984  -12.1754   -8.9540 C   0  0  0  1  0  0  0  0  0  0  0  0
   19.3409  -13.1318   -9.2899 H   0  0  0  1  0  0  0  0  0  0  0  0
   18.0502  -11.9587   -9.4001 H   0  0  0  1  0  0  0  0  0  0  0  0
   18.7833  -12.2709   -7.4523 C   0  0  0  1  0  0  0  0  0  0  0  0
   18.3970  -11.3399   -7.0934 H   0  0  0  1  0  0  0  0  0  0  0  0
   19.7193  -12.4766   -6.9763 H   0  0  0  1  0  0  0  0  0  0  0  0
   17.8093  -13.3699   -7.1215 C   0  0  0  1  0  0  0  0  0  0  0  0
   18.1986  -14.3326   -7.0639 H   0  0  0  1  0  0  0  0  0  0  0  0
   16.5072  -13.2436   -6.8953 C   0  0  0  1  0  0  0  0  0  0  0  0
   15.7146  -14.3484   -6.2592 C   0  0  0  1  0  0  0  0  0  0  0  0
   16.1596  -15.2914   -6.4996 H   0  0  0  1  0  0  0  0  0  0  0  0
   14.7102  -14.3241   -6.6273 H   0  0  0  1  0  0  0  0  0  0  0  0
   15.7091  -14.2174   -5.1973 H   0  0  0  1  0  0  0  0  0  0  0  0
   15.7120  -12.0192   -7.2409 C   0  0  0  1  0  0  0  0  0  0  0  0
   16.3841  -11.1919   -7.3345 H   0  0  0  1  0  0  0  0  0  0  0  0
   15.0188  -11.8284   -6.4485 H   0  0  0  1  0  0  0  0  0  0  0  0
   14.9352  -12.1608   -8.5397 C   0  0  0  1  0  0  0  0  0  0  0  0
   14.4008  -13.0875   -8.5177 H   0  0  0  1  0  0  0  0  0  0  0  0
   15.6303  -12.1687   -9.3532 H   0  0  0  1  0  0  0  0  0  0  0  0
   13.9593  -11.0552   -8.7601 C   0  0  0  1  0  0  0  0  0  0  0  0
   14.3640  -10.0973   -8.7439 H   0  0  0  1  0  0  0  0  0  0  0  0
   12.6436  -11.1128   -8.9749 C   0  0  0  1  0  0  0  0  0  0  0  0
   11.9735  -12.4019   -9.3526 C   0  0  0  1  0  0  0  0  0  0  0  0
   11.0981  -12.1757   -9.9250 H   0  0  0  1  0  0  0  0  0  0  0  0
   11.6918  -12.9146   -8.4567 H   0  0  0  1  0  0  0  0  0  0  0  0
   11.7798   -9.8897   -8.8475 C   0  0  0  1  0  0  0  0  0  0  0  0
   10.7637  -10.1851   -8.6885 H   0  0  0  1  0  0  0  0  0  0  0  0
   11.8465   -9.3111   -9.7450 H   0  0  0  1  0  0  0  0  0  0  0  0
   12.1140   -9.3022   -8.0181 H   0  0  0  1  0  0  0  0  0  0  0  0
   12.8654  -13.3181  -10.1744 C   0  0  0  1  0  0  0  0  0  0  0  0
   13.7452  -13.5365   -9.6060 H   0  0  0  1  0  0  0  0  0  0  0  0
   13.1391  -12.8091  -11.0749 H   0  0  0  1  0  0  0  0  0  0  0  0
   12.1980  -14.6164  -10.5419 C   0  0  0  1  0  0  0  0  0  0  0  0
   11.8971  -15.3049   -9.8227 H   0  0  0  1  0  0  0  0  0  0  0  0
   12.0176  -14.8282  -11.8336 C   0  0  0  1  0  0  0  0  0  0  0  0
   12.4353  -13.8634  -12.9070 C   0  0  0  1  0  0  0  0  0  0  0  0
   12.9417  -14.3991  -13.6825 H   0  0  0  1  0  0  0  0  0  0  0  0
   13.0963  -13.1348  -12.4859 H   0  0  0  1  0  0  0  0  0  0  0  0
   11.4498  -16.1261  -12.3290 C   0  0  0  1  0  0  0  0  0  0  0  0
   12.1848  -16.6368  -12.9154 H   0  0  0  1  0  0  0  0  0  0  0  0
   10.5867  -15.9310  -12.9305 H   0  0  0  1  0  0  0  0  0  0  0  0
   11.1732  -16.7358  -11.4944 H   0  0  0  1  0  0  0  0  0  0  0  0
   11.2258  -13.1569  -13.4971 C   0  0  0  1  0  0  0  0  0  0  0  0
   10.4904  -13.8926  -13.7478 H   0  0  0  1  0  0  0  0  0  0  0  0
   11.5315  -12.6410  -14.3833 H   0  0  0  1  0  0  0  0  0  0  0  0
   10.6094  -12.1681  -12.5592 C   0  0  0  1  0  0  0  0  0  0  0  0
   10.1952  -12.5995  -11.7084 H   0  0  0  1  0  0  0  0  0  0  0  0
   10.4877  -10.8400  -12.6021 C   0  0  0  1  0  0  0  0  0  0  0  0
   11.2956  -10.0161  -13.5622 C   0  0  0  1  0  0  0  0  0  0  0  0
   10.6244   -9.4504  -14.1740 H   0  0  0  1  0  0  0  0  0  0  0  0
   11.8699  -10.6763  -14.1780 H   0  0  0  1  0  0  0  0  0  0  0  0
    9.5370  -10.1156  -11.6911 C   0  0  0  1  0  0  0  0  0  0  0  0
    9.0070  -10.8252  -11.0907 H   0  0  0  1  0  0  0  0  0  0  0  0
    8.8403   -9.5536  -12.2771 H   0  0  0  1  0  0  0  0  0  0  0  0
   10.0870   -9.4523  -11.0567 H   0  0  0  1  0  0  0  0  0  0  0  0
   12.2453   -9.0535  -12.8679 C   0  0  0  1  0  0  0  0  0  0  0  0
   12.8360   -9.6249  -12.1828 H   0  0  0  1  0  0  0  0  0  0  0  0
   11.6484   -8.3507  -12.3249 H   0  0  0  1  0  0  0  0  0  0  0  0
   13.1873   -8.2712  -13.7268 C   0  0  0  1  0  0  0  0  0  0  0  0
   12.7630   -7.7316  -14.5081 H   0  0  0  1  0  0  0  0  0  0  0  0
   14.5089   -8.1907  -13.5997 C   0  0  0  1  0  0  0  0  0  0  0  0
   15.2986   -8.6093  -12.3919 C   0  0  0  1  0  0  0  0  0  0  0  0
   16.2358   -8.9999  -12.7295 H   0  0  0  1  0  0  0  0  0  0  0  0
   14.7508   -9.3791  -11.8899 H   0  0  0  1  0  0  0  0  0  0  0  0
   15.3241   -7.6412  -14.7335 C   0  0  0  1  0  0  0  0  0  0  0  0
   16.3513   -7.5834  -14.4397 H   0  0  0  1  0  0  0  0  0  0  0  0
   14.9701   -6.6636  -14.9860 H   0  0  0  1  0  0  0  0  0  0  0  0
   15.2322   -8.2849  -15.5833 H   0  0  0  1  0  0  0  0  0  0  0  0
   15.5854   -7.5060  -11.3865 C   0  0  0  1  0  0  0  0  0  0  0  0
   16.1553   -6.7361  -11.8634 H   0  0  0  1  0  0  0  0  0  0  0  0
   16.1460   -7.9119  -10.5705 H   0  0  0  1  0  0  0  0  0  0  0  0
   14.3120   -6.9209  -10.8636 C   0  0  0  1  0  0  0  0  0  0  0  0
   13.6778   -7.5485  -10.3292 H   0  0  0  1  0  0  0  0  0  0  0  0
   13.9270   -5.6471  -11.0325 C   0  0  0  1  0  0  0  0  0  0  0  0
   14.5497   -4.7020  -12.0353 C   0  0  0  1  0  0  0  0  0  0  0  0
   13.7827   -4.3493  -12.6928 H   0  0  0  1  0  0  0  0  0  0  0  0
   15.2841   -5.2388  -12.5987 H   0  0  0  1  0  0  0  0  0  0  0  0
   12.8278   -4.9911  -10.2493 C   0  0  0  1  0  0  0  0  0  0  0  0
   12.8216   -5.3763   -9.2510 H   0  0  0  1  0  0  0  0  0  0  0  0
   11.8868   -5.1954  -10.7159 H   0  0  0  1  0  0  0  0  0  0  0  0
   12.9912   -3.9340  -10.2224 H   0  0  0  1  0  0  0  0  0  0  0  0
   15.2212   -3.4996  -11.3848 C   0  0  0  1  0  0  0  0  0  0  0  0
   15.9742   -3.8530  -10.7116 H   0  0  0  1  0  0  0  0  0  0  0  0
   14.4825   -2.9513  -10.8384 H   0  0  0  1  0  0  0  0  0  0  0  0
   15.8617   -2.5794  -12.3749 C   0  0  0  1  0  0  0  0  0  0  0  0
   15.2479   -2.0478  -13.0247 H   0  0  0  1  0  0  0  0  0  0  0  0
   17.1817   -2.4070  -12.4654 C   0  0  0  1  0  0  0  0  0  0  0  0
   18.1033   -2.8676  -11.3718 C   0  0  0  1  0  0  0  0  0  0  0  0
   17.5213   -3.3597  -10.6208 H   0  0  0  1  0  0  0  0  0  0  0  0
   18.5832   -2.0106  -10.9473 H   0  0  0  1  0  0  0  0  0  0  0  0
   17.7990   -1.7461  -13.6631 C   0  0  0  1  0  0  0  0  0  0  0  0
   17.0304   -1.4704  -14.3546 H   0  0  0  1  0  0  0  0  0  0  0  0
   18.4765   -2.4262  -14.1357 H   0  0  0  1  0  0  0  0  0  0  0  0
   18.3301   -0.8706  -13.3528 H   0  0  0  1  0  0  0  0  0  0  0  0
   19.1742   -3.8289  -11.8611 C   0  0  0  1  0  0  0  0  0  0  0  0
   19.7255   -4.1837  -11.0155 H   0  0  0  1  0  0  0  0  0  0  0  0
   19.8313   -3.3003  -12.5197 H   0  0  0  1  0  0  0  0  0  0  0  0
   18.6103   -5.0148  -12.5972 C   0  0  0  1  0  0  0  0  0  0  0  0
   17.9331   -5.6189  -12.0893 H   0  0  0  1  0  0  0  0  0  0  0  0
   18.9133   -5.3472  -13.8475 C   0  0  0  1  0  0  0  0  0  0  0  0
   18.3334   -6.5392  -14.5580 C   0  0  0  1  0  0  0  0  0  0  0  0
   17.5642   -6.1805  -15.2096 H   0  0  0  1  0  0  0  0  0  0  0  0
   17.9029   -7.1769  -13.8144 H   0  0  0  1  0  0  0  0  0  0  0  0
   19.8796   -4.5387  -14.6628 C   0  0  0  1  0  0  0  0  0  0  0  0
   20.6994   -5.1950  -14.8683 H   0  0  0  1  0  0  0  0  0  0  0  0
   20.2133   -3.6858  -14.1096 H   0  0  0  1  0  0  0  0  0  0  0  0
   19.4213   -4.2163  -15.5743 H   0  0  0  1  0  0  0  0  0  0  0  0
   19.2780   -7.3878  -15.3934 C   0  0  0  1  0  0  0  0  0  0  0  0
   20.0899   -7.7170  -14.7792 H   0  0  0  1  0  0  0  0  0  0  0  0
   19.6577   -6.7980  -16.2014 H   0  0  0  1  0  0  0  0  0  0  0  0
   18.5680   -8.5813  -15.9488 C   0  0  0  1  0  0  0  0  0  0  0  0
   17.5854   -8.4529  -16.2646 H   0  0  0  1  0  0  0  0  0  0  0  0
   19.1012   -9.7985  -16.0695 C   0  0  0  1  0  0  0  0  0  0  0  0
   18.2968  -10.9510  -16.6009 C   0  0  0  1  0  0  0  0  0  0  0  0
   17.9956  -10.7429  -17.6063 H   0  0  0  1  0  0  0  0  0  0  0  0
   17.4292  -11.0915  -15.9906 H   0  0  0  1  0  0  0  0  0  0  0  0
   18.8929  -11.8394  -16.5841 H   0  0  0  1  0  0  0  0  0  0  0  0
   20.5338  -10.0670  -15.6771 C   0  0  0  1  0  0  0  0  0  0  0  0
   21.0117  -10.5340  -16.5127 H   0  0  0  1  0  0  0  0  0  0  0  0
   20.5646  -10.7171  -14.8278 H   0  0  0  1  0  0  0  0  0  0  0  0
   21.0268   -9.1471  -15.4409 H   0  0  0  1  0  0  0  0  0  0  0  0
   16.0523   -5.1876   -1.6475 C   0  0  0  1  0  0  0  0  0  0  0  0
   16.3195   -5.7296   -0.7645 H   0  0  0  1  0  0  0  0  0  0  0  0
   14.8110   -5.8097   -2.2740 C   0  0  0  1  0  0  0  0  0  0  0  0
   15.0128   -6.8254   -2.5431 H   0  0  0  1  0  0  0  0  0  0  0  0
   15.7657   -3.8336   -1.3098 O   0  0  0  1  0  0  0  0  0  0  0  0
   14.4481   -5.0118   -3.5171 C   0  0  0  1  0  0  0  0  0  0  0  0
   13.4923   -5.3405   -3.8682 H   0  0  0  1  0  0  0  0  0  0  0  0
   15.6160   -3.0336   -2.4897 C   0  0  0  1  0  0  0  0  0  0  0  0
   16.4835   -3.1374   -3.1074 H   0  0  0  1  0  0  0  0  0  0  0  0
   14.3815   -3.5124   -3.2528 C   0  0  0  1  0  0  0  0  0  0  0  0
   14.3259   -2.9949   -4.1876 H   0  0  0  1  0  0  0  0  0  0  0  0
   17.1296   -5.2311   -2.5759 O   0  0  0  1  0  0  0  0  0  0  0  0
   13.7287   -5.7692   -1.3422 O   0  0  0  1  0  0  0  0  0  0  0  0
   14.0208   -5.3491   -0.5298 H   0  0  0  1  0  0  0  0  0  0  0  0
   15.4288   -5.2543   -4.5153 O   0  0  0  1  0  0  0  0  0  0  0  0
   15.4724   -4.5027   -5.1110 H   0  0  0  1  0  0  0  0  0  0  0  0
   15.4428   -1.5799   -2.1012 C   0  0  0  1  0  0  0  0  0  0  0  0
   16.2952   -1.2558   -1.5414 H   0  0  0  1  0  0  0  0  0  0  0  0
   14.5620   -1.4733   -1.5030 H   0  0  0  1  0  0  0  0  0  0  0  0
   15.3488   -0.9836   -2.9846 H   0  0  0  1  0  0  0  0  0  0  0  0
   19.6790   -6.0716   -3.7109 C   0  0  0  1  0  0  0  0  0  0  0  0
   18.7866   -6.4076   -4.1963 H   0  0  0  1  0  0  0  0  0  0  0  0
   19.4111   -5.8984   -2.2235 C   0  0  0  1  0  0  0  0  0  0  0  0
   20.3178   -5.6266   -1.7246 H   0  0  0  1  0  0  0  0  0  0  0  0
   20.0827   -4.8301   -4.2716 O   0  0  0  1  0  0  0  0  0  0  0  0
   18.3723   -4.7975   -2.0334 C   0  0  0  1  0  0  0  0  0  0  0  0
   18.2568   -4.6021   -0.9878 H   0  0  0  1  0  0  0  0  0  0  0  0
   19.0574   -3.8224   -4.2062 C   0  0  0  1  0  0  0  0  0  0  0  0
   19.3852   -2.9351   -4.7063 H   0  0  0  1  0  0  0  0  0  0  0  0
   18.7994   -3.5239   -2.7308 C   0  0  0  1  0  0  0  0  0  0  0  0
   18.0244   -2.7913   -2.6441 H   0  0  0  1  0  0  0  0  0  0  0  0
   18.9071   -7.1463   -1.6696 N   0  0  0  1  0  0  0  0  0  0  0  0
   18.8972   -7.2619   -0.6965 H   0  0  0  1  0  0  0  0  0  0  0  0
   19.9911   -3.0285   -2.1297 O   0  0  0  1  0  0  0  0  0  0  0  0
   19.8136   -2.1173   -1.8854 H   0  0  0  1  0  0  0  0  0  0  0  0
   17.8005   -4.3276   -4.8541 C   0  0  0  1  0  0  0  0  0  0  0  0
   17.0197   -3.6075   -4.7252 H   0  0  0  1  0  0  0  0  0  0  0  0
   17.5125   -5.2521   -4.3988 H   0  0  0  1  0  0  0  0  0  0  0  0
   18.0278   -4.5355   -6.2448 O   0  0  0  1  0  0  0  0  0  0  0  0
   18.7605   -5.1483   -6.3409 H   0  0  0  1  0  0  0  0  0  0  0  0
   18.4531   -8.1495   -2.4491 C   0  0  0  1  0  0  0  0  0  0  0  0
   18.4161   -8.0360   -3.6736 O   0  0  0  1  0  0  0  0  0  0  0  0
   17.9885   -9.4241   -1.7719 C   0  0  0  1  0  0  0  0  0  0  0  0
   18.1670  -10.1910   -2.4964 H   0  0  0  1  0  0  0  0  0  0  0  0
   16.9477   -9.3666   -1.5304 H   0  0  0  1  0  0  0  0  0  0  0  0
   18.5523   -9.6065   -0.8810 H   0  0  0  1  0  0  0  0  0  0  0  0
  1  2  1  0  0  0  0
  1  3  1  0  0  0  0
  1  4  1  0  0  0  0
  1 44  1  0  0  0  0
  3 20  1  0  0  0  0
  4  5  1  0  0  0  0
  4  6  1  0  0  0  0
  4  8  1  0  0  0  0
  6  7  1  0  0  0  0
  8  9  1  0  0  0  0
  8 10  1  0  0  0  0
  8 20  1  0  0  0  0
 10 11  1  0  0  0  0
 12 13  1  0  0  0  0
 12 14  1  0  0  0  0
 12 15  1  0  0  0  0
 12 17  1  0  0  0  0
 15 16  1  0  0  0  0
 17 18  1  0  0  0  0
 17 19  1  0  0  0  0
 17 20  1  0  0  0  0
 19 22  1  0  0  0  0
 20 21  1  0  0  0  0
 22 23  1  0  0  0  0
 22 24  1  0  0  0  0
 22 25  1  0  0  0  0
 24 42  1  0  0  0  0
 25 26  1  0  0  0  0
 25 27  1  0  0  0  0
 25 29  1  0  0  0  0
 27 28  1  0  0  0  0
 29 30  1  0  0  0  0
 29 31  1  0  0  0  0
 29 42  1  0  0  0  0
 31 32  1  0  0  0  0
 33 34  1  0  0  0  0
 33 35  1  0  0  0  0
 33 36  1  0  0  0  0
 33 38  1  0  0  0  0
 36 37  1  0  0  0  0
 38 39  1  0  0  0  0
 38 40  1  0  0  0  0
 38 42  1  0  0  0  0
 40 41  1  0  0  0  0
 42 43  1  0  0  0  0
 44194  1  0  0  0  0
 45 46  1  0  0  0  0
 45 54  1  0  0  0  0
 46 47  1  0  0  0  0
 46 48  1  0  0  0  0
 46 49  2  0  0  0  0
 47 50  1  0  0  0  0
 50 51  1  0  0  0  0
 50 52  1  0  0  0  0
 50 53  2  0  0  0  0
 51205  1  0  0  0  0
 54 55  1  0  0  0  0
 54 56  1  0  0  0  0
 54 57  1  0  0  0  0
 57 58  1  0  0  0  0
 57 59  2  0  0  0  0
 59 60  1  0  0  0  0
 59 64  1  0  0  0  0
 60 61  1  0  0  0  0
 60 62  1  0  0  0  0
 60 63  1  0  0  0  0
 64 65  1  0  0  0  0
 64 66  1  0  0  0  0
 64 67  1  0  0  0  0
 67 68  1  0  0  0  0
 67 69  1  0  0  0  0
 67 70  1  0  0  0  0
 70 71  1  0  0  0  0
 70 72  2  0  0  0  0
 72 73  1  0  0  0  0
 72 77  1  0  0  0  0
 73 74  1  0  0  0  0
 73 75  1  0  0  0  0
 73 76  1  0  0  0  0
 77 78  1  0  0  0  0
 77 79  1  0  0  0  0
 77 80  1  0  0  0  0
 80 81  1  0  0  0  0
 80 82  1  0  0  0  0
 80 83  1  0  0  0  0
 83 84  1  0  0  0  0
 83 85  2  0  0  0  0
 85 86  1  0  0  0  0
 85 89  1  0  0  0  0
 86 87  1  0  0  0  0
 86 88  1  0  0  0  0
 86 93  1  0  0  0  0
 89 90  1  0  0  0  0
 89 91  1  0  0  0  0
 89 92  1  0  0  0  0
 93 94  1  0  0  0  0
 93 95  1  0  0  0  0
 93 96  1  0  0  0  0
 96 97  1  0  0  0  0
 96 98  2  0  0  0  0
 98 99  1  0  0  0  0
 98102  1  0  0  0  0
 99100  1  0  0  0  0
 99101  1  0  0  0  0
 99106  1  0  0  0  0
102103  1  0  0  0  0
102104  1  0  0  0  0
102105  1  0  0  0  0
106107  1  0  0  0  0
106108  1  0  0  0  0
106109  1  0  0  0  0
109110  1  0  0  0  0
109111  2  0  0  0  0
111112  1  0  0  0  0
111115  1  0  0  0  0
112113  1  0  0  0  0
112114  1  0  0  0  0
112119  1  0  0  0  0
115116  1  0  0  0  0
115117  1  0  0  0  0
115118  1  0  0  0  0
119120  1  0  0  0  0
119121  1  0  0  0  0
119122  1  0  0  0  0
122123  1  0  0  0  0
122124  2  0  0  0  0
124125  1  0  0  0  0
124128  1  0  0  0  0
125126  1  0  0  0  0
125127  1  0  0  0  0
125132  1  0  0  0  0
128129  1  0  0  0  0
128130  1  0  0  0  0
128131  1  0  0  0  0
132133  1  0  0  0  0
132134  1  0  0  0  0
132135  1  0  0  0  0
135136  1  0  0  0  0
135137  2  0  0  0  0
137138  1  0  0  0  0
137141  1  0  0  0  0
138139  1  0  0  0  0
138140  1  0  0  0  0
138145  1  0  0  0  0
141142  1  0  0  0  0
141143  1  0  0  0  0
141144  1  0  0  0  0
145146  1  0  0  0  0
145147  1  0  0  0  0
145148  1  0  0  0  0
148149  1  0  0  0  0
148150  2  0  0  0  0
150151  1  0  0  0  0
150154  1  0  0  0  0
151152  1  0  0  0  0
151153  1  0  0  0  0
151158  1  0  0  0  0
154155  1  0  0  0  0
154156  1  0  0  0  0
154157  1  0  0  0  0
158159  1  0  0  0  0
158160  1  0  0  0  0
158161  1  0  0  0  0
161162  1  0  0  0  0
161163  2  0  0  0  0
163164  1  0  0  0  0
163167  1  0  0  0  0
164165  1  0  0  0  0
164166  1  0  0  0  0
164171  1  0  0  0  0
167168  1  0  0  0  0
167169  1  0  0  0  0
167170  1  0  0  0  0
171172  1  0  0  0  0
171173  1  0  0  0  0
171174  1  0  0  0  0
174175  1  0  0  0  0
174176  2  0  0  0  0
176177  1  0  0  0  0
176181  1  0  0  0  0
177178  1  0  0  0  0
177179  1  0  0  0  0
177180  1  0  0  0  0
181182  1  0  0  0  0
181183  1  0  0  0  0
181184  1  0  0  0  0
185186  1  0  0  0  0
185187  1  0  0  0  0
185189  1  0  0  0  0
185196  1  0  0  0  0
187188  1  0  0  0  0
187190  1  0  0  0  0
187197  1  0  0  0  0
189192  1  0  0  0  0
190191  1  0  0  0  0
190194  1  0  0  0  0
190199  1  0  0  0  0
192193  1  0  0  0  0
192194  1  0  0  0  0
192201  1  0  0  0  0
194195  1  0  0  0  0
196210  1  0  0  0  0
197198  1  0  0  0  0
199200  1  0  0  0  0
201202  1  0  0  0  0
201203  1  0  0  0  0
201204  1  0  0  0  0
205206  1  0  0  0  0
205207  1  0  0  0  0
205209  1  0  0  0  0
207208  1  0  0  0  0
207210  1  0  0  0  0
207216  1  0  0  0  0
209212  1  0  0  0  0
210211  1  0  0  0  0
210214  1  0  0  0  0
212213  1  0  0  0  0
212214  1  0  0  0  0
212220  1  0  0  0  0
214215  1  0  0  0  0
214218  1  0  0  0  0
216217  1  0  0  0  0
216225  1  0  0  0  0
218219  1  0  0  0  0
220221  1  0  0  0  0
220222  1  0  0  0  0
220223  1  0  0  0  0
223224  1  0  0  0  0
225226  2  0  0  0  0
225227  1  0  0  0  0
227228  1  0  0  0  0
227229  1  0  0  0  0
227230  1  0  0  0  0
M  BCL ATM C_TeTeTeTe H_S O_Te2Te2TeTe C_TeTeTeTe H_S O_Te2Te2TeTe H_S C_TeTeTeTe H_S O_Te2Te2TeTe H_S C_TeTeTeTe H_S H_S O_Te2Te2TeTe H_S C_TeTeTeTe H_S O_Te2Te2TeTe C_TeTeTeTe H_S C_TeTeTeTe H_S O_Te2Te2TeTe C_TeTeTeTe H_S O_Te2Te2TeTe H_S C_TeTeTeTe H_S O_Te2Te2TeTe H_S C_TeTeTeTe H_S H_S O_Te2Te2TeTe H_S C_TeTeTeTe H_S O_Te2Te2TeTe H_S C_TeTeTeTe H_S O_Te2Te2TeTe O_Tr2TrTrPi2 P_TeTeTeTePi O_Tr2TrTrPi2 O_Te2Te2TeTe O_Tr2Tr2TrPi P_TeTeTeTePi O_Tr2TrTrPi2 O_Te2Te2TeTe O_Tr2Tr2TrPi C_TeTeTeTe H_S H_S C_TrTrTrPi H_S C_TrTrTrPi C_TeTeTeTe H_S H_S H_S C_TeTeTeTe H_S H_S C_TeTeTeTe H_S H_S C_TrTrTrPi H_S C_TrTrTrPi C_TeTeTeTe H_S H_S H_S C_TeTeTeTe H_S H_S C_TeTeTeTe H_S H_S C_TrTrTrPi H_S C_TrTrTrPi C_TeTeTeTe H_S H_S C_TeTeTeTe H_S H_S H_S C_TeTeTeTe H_S H_S C_TrTrTrPi H_S C_TrTrTrPi C_TeTeTeTe H_S H_S C_TeTeTeTe H_S H_S H_S C_TeTeTeTe H_S H_S C_TrTrTrPi H_S C_TrTrTrPi C_TeTeTeTe H_S H_S C_TeTeTeTe H_S H_S H_S C_TeTeTeTe H_S H_S C_TrTrTrPi H_S C_TrTrTrPi C_TeTeTeTe H_S H_S C_TeTeTeTe H_S H_S H_S C_TeTeTeTe H_S H_S C_TrTrTrPi H_S C_TrTrTrPi C_TeTeTeTe H_S H_S C_TeTeTeTe H_S H_S H_S C_TeTeTeTe H_S H_S C_TrTrTrPi H_S C_TrTrTrPi C_TeTeTeTe H_S H_S C_TeTeTeTe H_S H_S H_S C_TeTeTeTe H_S H_S C_TrTrTrPi H_S C_TrTrTrPi C_TeTeTeTe H_S H_S C_TeTeTeTe H_S H_S H_S C_TeTeTeTe H_S H_S C_TrTrTrPi H_S C_TrTrTrPi C_TeTeTeTe H_S H_S H_S C_TeTeTeTe H_S H_S H_S C_TeTeTeTe H_S C_TeTeTeTe H_S O_Te2Te2TeTe C_TeTeTeTe H_S C_TeTeTeTe H_S C_TeTeTeTe H_S O_Te2Te2TeTe O_Te2Te2TeTe H_S O_Te2Te2TeTe H_S C_TeTeTeTe H_S H_S H_S C_TeTeTeTe H_S C_TeTeTeTe H_S O_Te2Te2TeTe C_TeTeTeTe H_S C_TeTeTeTe H_S C_TeTeTeTe H_S N_TrTrTrPi2 H_S O_Te2Te2TeTe H_S C_TeTeTeTe H_S H_S O_Te2Te2TeTe H_S C_TrTrTrPi O_Tr2Tr2TrPi C_TeTeTeTe H_S H_S H_S
M  BCL BND NonConjugatedSingleBond NonConjugatedSingleBondInRing NonConjugatedSingleBondInRing NonConjugatedSingleBond NonConjugatedSingleBondInRing NonConjugatedSingleBond NonConjugatedSingleBond NonConjugatedSingleBondInRing NonConjugatedSingleBond NonConjugatedSingleBond NonConjugatedSingleBond NonConjugatedSingleBondInRing NonConjugatedSingleBond NonConjugatedSingleBond NonConjugatedSingleBond NonConjugatedSingleBond NonConjugatedSingleBond NonConjugatedSingleBond NonConjugatedSingleBond NonConjugatedSingleBond NonConjugatedSingleBond NonConjugatedSingleBond NonConjugatedSingleBond NonConjugatedSingleBond NonConjugatedSingleBondInRing NonConjugatedSingleBondInRing NonConjugatedSingleBondInRing NonConjugatedSingleBond NonConjugatedSingleBond NonConjugatedSingleBondInRing NonConjugatedSingleBond NonConjugatedSingleBond NonConjugatedSingleBond NonConjugatedSingleBondInRing NonConjugatedSingleBond NonConjugatedSingleBond NonConjugatedSingleBond NonConjugatedSingleBond NonConjugatedSingleBond NonConjugatedSingleBond NonConjugatedSingleBond NonConjugatedSingleBond NonConjugatedSingleBond NonConjugatedSingleBond NonConjugatedSingleBond NonConjugatedSingleBond ConjugatedSingleBond NonConjugatedSingleBond ConjugatedSingleBond ConjugatedSingleBond ConjugatedDoubleBond ConjugatedSingleBond ConjugatedSingleBond ConjugatedSingleBond ConjugatedDoubleBond NonConjugatedSingleBond NonConjugatedSingleBond NonConjugatedSingleBond NonConjugatedSingleBond NonConjugatedSingleBond ConjugatedDoubleBond NonConjugatedSingleBond NonConjugatedSingleBond NonConjugatedSingleBond NonConjugatedSingleBond NonConjugatedSingleBond NonConjugatedSingleBond NonConjugatedSingleBond NonConjugatedSingleBond NonConjugatedSingleBond NonConjugatedSingleBond NonConjugatedSingleBond NonConjugatedSingleBond ConjugatedDoubleBond NonConjugatedSingleBond NonConjugatedSingleBond NonConjugatedSingleBond NonConjugatedSingleBond NonConjugatedSingleBond NonConjugatedSingleBond NonConjugatedSingleBond NonConjugatedSingleBond NonConjugatedSingleBond NonConjugatedSingleBond NonConjugatedSingleBond NonConjugatedSingleBond ConjugatedDoubleBond NonConjugatedSingleBond NonConjugatedSingleBond NonConjugatedSingleBond NonConjugatedSingleBond NonConjugatedSingleBond NonConjugatedSingleBond NonConjugatedSingleBond NonConjugatedSingleBond NonConjugatedSingleBond NonConjugatedSingleBond NonConjugatedSingleBond NonConjugatedSingleBond ConjugatedDoubleBond NonConjugatedSingleBond NonConjugatedSingleBond NonConjugatedSingleBond NonConjugatedSingleBond NonConjugatedSingleBond NonConjugatedSingleBond NonConjugatedSingleBond NonConjugatedSingleBond NonConjugatedSingleBond NonConjugatedSingleBond NonConjugatedSingleBond NonConjugatedSingleBond ConjugatedDoubleBond NonConjugatedSingleBond NonConjugatedSingleBond NonConjugatedSingleBond NonConjugatedSingleBond NonConjugatedSingleBond NonConjugatedSingleBond NonConjugatedSingleBond NonConjugatedSingleBond NonConjugatedSingleBond NonConjugatedSingleBond NonConjugatedSingleBond NonConjugatedSingleBond ConjugatedDoubleBond NonConjugatedSingleBond NonConjugatedSingleBond NonConjugatedSingleBond NonConjugatedSingleBond NonConjugatedSingleBond NonConjugatedSingleBond NonConjugatedSingleBond NonConjugatedSingleBond NonConjugatedSingleBond NonConjugatedSingleBond NonConjugatedSingleBond NonConjugatedSingleBond ConjugatedDoubleBond NonConjugatedSingleBond NonConjugatedSingleBond NonConjugatedSingleBond NonConjugatedSingleBond NonConjugatedSingleBond NonConjugatedSingleBond NonConjugatedSingleBond NonConjugatedSingleBond NonConjugatedSingleBond NonConjugatedSingleBond NonConjugatedSingleBond NonConjugatedSingleBond ConjugatedDoubleBond NonConjugatedSingleBond NonConjugatedSingleBond NonConjugatedSingleBond NonConjugatedSingleBond NonConjugatedSingleBond NonConjugatedSingleBond NonConjugatedSingleBond NonConjugatedSingleBond NonConjugatedSingleBond NonConjugatedSingleBond NonConjugatedSingleBond NonConjugatedSingleBond ConjugatedDoubleBond NonConjugatedSingleBond NonConjugatedSingleBond NonConjugatedSingleBond NonConjugatedSingleBond NonConjugatedSingleBond NonConjugatedSingleBond NonConjugatedSingleBond NonConjugatedSingleBond NonConjugatedSingleBond NonConjugatedSingleBond NonConjugatedSingleBond NonConjugatedSingleBond ConjugatedDoubleBond NonConjugatedSingleBond NonConjugatedSingleBond NonConjugatedSingleBond NonConjugatedSingleBond NonConjugatedSingleBond NonConjugatedSingleBond NonConjugatedSingleBond NonConjugatedSingleBond NonConjugatedSingleBond NonConjugatedSingleBondInRing NonConjugatedSingleBondInRing NonConjugatedSingleBond NonConjugatedSingleBond NonConjugatedSingleBondInRing NonConjugatedSingleBond NonConjugatedSingleBondInRing NonConjugatedSingleBond NonConjugatedSingleBondInRing NonConjugatedSingleBond NonConjugatedSingleBond NonConjugatedSingleBondInRing NonConjugatedSingleBond NonConjugatedSingleBond NonConjugatedSingleBond NonConjugatedSingleBond NonConjugatedSingleBond NonConjugatedSingleBond NonConjugatedSingleBond NonConjugatedSingleBond NonConjugatedSingleBond NonConjugatedSingleBondInRing NonConjugatedSingleBondInRing NonConjugatedSingleBond NonConjugatedSingleBondInRing NonConjugatedSingleBond NonConjugatedSingleBondInRing NonConjugatedSingleBond NonConjugatedSingleBondInRing NonConjugatedSingleBond NonConjugatedSingleBondInRing NonConjugatedSingleBond NonConjugatedSingleBond NonConjugatedSingleBond NonConjugatedSingleBond AmideSingleBond NonConjugatedSingleBond NonConjugatedSingleBond NonConjugatedSingleBond NonConjugatedSingleBond NonConjugatedSingleBond ConjugatedDoubleBond NonConjugatedSingleBond NonConjugatedSingleBond NonConjugatedSingleBond NonConjugatedSingleBond
M  BCL CHI   1   R   4   R   8   R  17   S  20   R  22   S  25   R  29   S  38   S  42   R  46   R  50   S 185   R 187   S 190   S 192   R 194   R 205   R 207   S 210   R 212   S 214   S
M  BCL DBI - - E E E E E E E E Z - -
M  END
> <ConfClashScore>
0.0180152 

> <ConfOneFourInteractionScore>
-0.968037 

> <ConfScore>
1.8978 

> <ConfScorePBest>
0.00675547 

> <ConfTolerance>
4.46381 

$$$$
L05.****
  PyMOL2.5          3D                             0

230233  0  0  0  0  0  0  0  0999 V2000
   12.4619   -2.2381   -2.3138 C   0  0  0  1  0  0  0  0  0  0  0  0
   12.7235   -1.3721   -1.7425 H   0  0  0  1  0  0  0  0  0  0  0  0
   11.0910   -2.6188   -2.0590 O   0  0  0  1  0  0  0  0  0  0  0  0
   12.5179   -1.9303   -3.8131 C   0  0  0  1  0  0  0  0  0  0  0  0
   13.4359   -2.2746   -4.2415 H   0  0  0  1  0  0  0  0  0  0  0  0
   12.3749   -0.5296   -4.0542 O   0  0  0  1  0  0  0  0  0  0  0  0
   13.2420   -0.1181   -4.0761 H   0  0  0  1  0  0  0  0  0  0  0  0
   11.3438   -2.6959   -4.3643 C   0  0  0  1  0  0  0  0  0  0  0  0
   10.9721   -2.2409   -5.2586 H   0  0  0  1  0  0  0  0  0  0  0  0
   11.6945   -4.0547   -4.6310 O   0  0  0  1  0  0  0  0  0  0  0  0
   12.4749   -4.2898   -4.1237 H   0  0  0  1  0  0  0  0  0  0  0  0
   10.2402   -0.1504   -2.6601 C   0  0  0  1  0  0  0  0  0  0  0  0
   10.6884   -0.4875   -1.7489 H   0  0  0  1  0  0  0  0  0  0  0  0
   11.0001    0.2195   -3.3164 H   0  0  0  1  0  0  0  0  0  0  0  0
    9.3147    0.8901   -2.3749 O   0  0  0  1  0  0  0  0  0  0  0  0
    8.4436    0.6397   -2.6912 H   0  0  0  1  0  0  0  0  0  0  0  0
    9.5176   -1.3096   -3.3267 C   0  0  0  1  0  0  0  0  0  0  0  0
    9.3561   -1.0760   -4.3583 H   0  0  0  1  0  0  0  0  0  0  0  0
    8.2792   -1.5812   -2.6809 O   0  0  0  1  0  0  0  0  0  0  0  0
   10.3163   -2.6024   -3.2271 C   0  0  0  1  0  0  0  0  0  0  0  0
    9.6480   -3.4377   -3.2505 H   0  0  0  1  0  0  0  0  0  0  0  0
    7.1588   -1.2633   -3.4545 C   0  0  0  1  0  0  0  0  0  0  0  0
    7.2568   -0.2671   -3.8325 H   0  0  0  1  0  0  0  0  0  0  0  0
    7.0164   -2.1822   -4.5172 O   0  0  0  1  0  0  0  0  0  0  0  0
    5.8908   -1.3953   -2.6306 C   0  0  0  1  0  0  0  0  0  0  0  0
    5.6598   -0.4803   -2.1262 H   0  0  0  1  0  0  0  0  0  0  0  0
    6.0029   -2.4513   -1.6752 O   0  0  0  1  0  0  0  0  0  0  0  0
    6.4944   -3.1807   -2.0599 H   0  0  0  1  0  0  0  0  0  0  0  0
    4.8571   -1.7160   -3.6791 C   0  0  0  1  0  0  0  0  0  0  0  0
    4.5323   -0.8337   -4.1900 H   0  0  0  1  0  0  0  0  0  0  0  0
    3.7307   -2.3795   -3.1128 O   0  0  0  1  0  0  0  0  0  0  0  0
    3.4258   -3.0632   -3.7139 H   0  0  0  1  0  0  0  0  0  0  0  0
    6.2122   -2.9171   -7.0294 C   0  0  0  1  0  0  0  0  0  0  0  0
    6.9477   -2.1406   -7.0611 H   0  0  0  1  0  0  0  0  0  0  0  0
    6.6679   -3.8275   -6.7001 H   0  0  0  1  0  0  0  0  0  0  0  0
    5.6989   -3.1123   -8.3393 O   0  0  0  1  0  0  0  0  0  0  0  0
    4.7688   -3.3447   -8.2876 H   0  0  0  1  0  0  0  0  0  0  0  0
    5.1309   -2.5247   -6.0342 C   0  0  0  1  0  0  0  0  0  0  0  0
    4.3030   -3.1920   -6.1539 H   0  0  0  1  0  0  0  0  0  0  0  0
    4.7123   -1.1877   -6.2951 O   0  0  0  1  0  0  0  0  0  0  0  0
    4.6894   -1.0383   -7.2431 H   0  0  0  1  0  0  0  0  0  0  0  0
    5.6404   -2.6421   -4.6085 C   0  0  0  1  0  0  0  0  0  0  0  0
    5.5604   -3.6582   -4.2831 H   0  0  0  1  0  0  0  0  0  0  0  0
   13.3457   -3.3062   -1.9895 O   0  0  0  1  0  0  0  0  0  0  0  0
   22.1270   -5.6523   -0.9916 O   0  0  0  1  0  0  0  0  0  0  0  0
   23.4998   -6.2530   -1.5538 P   0  0  0  1  0  0  0  0  0  0  0  0
   23.0641   -6.8678   -2.9693 O   0  0  0  1  0  0  0  0  0  0  0  0
   23.9445   -7.3761   -0.6718 O   0  0  0  0  0  0  0  0  0  0  0  0
   24.4014   -5.1130   -1.8329 O   0  0  0  1  0  0  0  0  0  0  0  0
   21.9509   -7.9986   -3.3301 P   0  0  0  1  0  0  0  0  0  0  0  0
   20.6827   -7.5805   -2.4976 O   0  0  0  1  0  0  0  0  0  0  0  0
   22.3401   -9.3312   -2.8106 O   0  0  0  0  0  0  0  0  0  0  0  0
   21.7314   -7.8234   -4.7539 O   0  0  0  1  0  0  0  0  0  0  0  0
   22.1749   -4.4653   -0.1838 C   0  0  0  1  0  0  0  0  0  0  0  0
   23.1861   -4.1250   -0.1028 H   0  0  0  1  0  0  0  0  0  0  0  0
   21.7903   -4.6776    0.7919 H   0  0  0  1  0  0  0  0  0  0  0  0
   21.3423   -3.4145   -0.8338 C   0  0  0  1  0  0  0  0  0  0  0  0
   20.4026   -3.6640   -1.2030 H   0  0  0  1  0  0  0  0  0  0  0  0
   21.7774   -2.1656   -0.9506 C   0  0  0  1  0  0  0  0  0  0  0  0
   21.1114   -1.1903   -1.8772 C   0  0  0  1  0  0  0  0  0  0  0  0
   21.4504   -1.3598   -2.8779 H   0  0  0  1  0  0  0  0  0  0  0  0
   21.3584   -0.1921   -1.5815 H   0  0  0  1  0  0  0  0  0  0  0  0
   20.0507   -1.3239   -1.8328 H   0  0  0  1  0  0  0  0  0  0  0  0
   22.9584   -1.6064   -0.1838 C   0  0  0  1  0  0  0  0  0  0  0  0
   22.9156   -0.5372   -0.1857 H   0  0  0  1  0  0  0  0  0  0  0  0
   23.8704   -1.9281   -0.6418 H   0  0  0  1  0  0  0  0  0  0  0  0
   22.8950   -2.1187    1.2459 C   0  0  0  1  0  0  0  0  0  0  0  0
   23.8874   -2.3585    1.5660 H   0  0  0  1  0  0  0  0  0  0  0  0
   22.2905   -3.0013    1.2649 H   0  0  0  1  0  0  0  0  0  0  0  0
   22.3113   -1.1179    2.2049 C   0  0  0  1  0  0  0  0  0  0  0  0
   22.6400   -0.1319    2.2411 H   0  0  0  1  0  0  0  0  0  0  0  0
   21.3502   -1.5701    3.0033 C   0  0  0  1  0  0  0  0  0  0  0  0
   20.4313   -0.6794    3.7878 C   0  0  0  1  0  0  0  0  0  0  0  0
   20.1634   -1.1614    4.7047 H   0  0  0  1  0  0  0  0  0  0  0  0
   19.5481   -0.4859    3.2156 H   0  0  0  1  0  0  0  0  0  0  0  0
   20.9273    0.2441    4.0022 H   0  0  0  1  0  0  0  0  0  0  0  0
   21.1059   -3.0418    3.1844 C   0  0  0  1  0  0  0  0  0  0  0  0
   21.5456   -3.3375    4.1140 H   0  0  0  1  0  0  0  0  0  0  0  0
   21.5886   -3.5579    2.3809 H   0  0  0  1  0  0  0  0  0  0  0  0
   19.6454   -3.4626    3.2017 C   0  0  0  1  0  0  0  0  0  0  0  0
   19.6078   -4.5281    3.1119 H   0  0  0  1  0  0  0  0  0  0  0  0
   19.1632   -3.0157    2.3575 H   0  0  0  1  0  0  0  0  0  0  0  0
   18.8770   -3.0735    4.4347 C   0  0  0  1  0  0  0  0  0  0  0  0
   19.3679   -2.4539    5.1106 H   0  0  0  1  0  0  0  0  0  0  0  0
   17.6401   -3.4353    4.7539 C   0  0  0  1  0  0  0  0  0  0  0  0
   16.8318   -4.3274    3.8572 C   0  0  0  1  0  0  0  0  0  0  0  0
   17.4329   -4.5981    3.0144 H   0  0  0  1  0  0  0  0  0  0  0  0
   15.9718   -3.7854    3.5231 H   0  0  0  1  0  0  0  0  0  0  0  0
   16.9375   -3.0031    6.0101 C   0  0  0  1  0  0  0  0  0  0  0  0
   17.5693   -2.3393    6.5624 H   0  0  0  1  0  0  0  0  0  0  0  0
   16.7146   -3.8624    6.6074 H   0  0  0  1  0  0  0  0  0  0  0  0
   16.0283   -2.5000    5.7548 H   0  0  0  1  0  0  0  0  0  0  0  0
   16.3645   -5.5989    4.5466 C   0  0  0  1  0  0  0  0  0  0  0  0
   17.0846   -5.8513    5.2967 H   0  0  0  1  0  0  0  0  0  0  0  0
   16.3252   -6.3768    3.8130 H   0  0  0  1  0  0  0  0  0  0  0  0
   15.0148   -5.5156    5.2079 C   0  0  0  1  0  0  0  0  0  0  0  0
   14.2018   -5.3442    4.5823 H   0  0  0  1  0  0  0  0  0  0  0  0
   14.7494   -5.6374    6.5041 C   0  0  0  1  0  0  0  0  0  0  0  0
   15.7988   -5.8870    7.5501 C   0  0  0  1  0  0  0  0  0  0  0  0
   16.7562   -5.8408    7.0747 H   0  0  0  1  0  0  0  0  0  0  0  0
   15.6435   -6.8690    7.9457 H   0  0  0  1  0  0  0  0  0  0  0  0
   13.3486   -5.5322    7.0322 C   0  0  0  1  0  0  0  0  0  0  0  0
   12.8370   -4.7369    6.5315 H   0  0  0  1  0  0  0  0  0  0  0  0
   13.3779   -5.3315    8.0828 H   0  0  0  1  0  0  0  0  0  0  0  0
   12.8322   -6.4531    6.8587 H   0  0  0  1  0  0  0  0  0  0  0  0
   15.8050   -4.9085    8.7132 C   0  0  0  1  0  0  0  0  0  0  0  0
   14.8346   -4.9249    9.1636 H   0  0  0  1  0  0  0  0  0  0  0  0
   16.0007   -3.9320    8.3220 H   0  0  0  1  0  0  0  0  0  0  0  0
   16.7981   -5.1840    9.7641 C   0  0  0  1  0  0  0  0  0  0  0  0
   17.7984   -5.3353    9.5235 H   0  0  0  1  0  0  0  0  0  0  0  0
   16.3882   -5.2350   11.0270 C   0  0  0  1  0  0  0  0  0  0  0  0
   15.0403   -4.7015   11.4326 C   0  0  0  1  0  0  0  0  0  0  0  0
   14.6127   -5.3679   12.1523 H   0  0  0  1  0  0  0  0  0  0  0  0
   14.4145   -4.6627   10.5656 H   0  0  0  1  0  0  0  0  0  0  0  0
   17.2344   -5.9261   12.0779 C   0  0  0  1  0  0  0  0  0  0  0  0
   18.0831   -6.3806   11.6109 H   0  0  0  1  0  0  0  0  0  0  0  0
   16.6513   -6.6783   12.5668 H   0  0  0  1  0  0  0  0  0  0  0  0
   17.5661   -5.2073   12.7977 H   0  0  0  1  0  0  0  0  0  0  0  0
   15.1092   -3.3108   12.0421 C   0  0  0  1  0  0  0  0  0  0  0  0
   15.5210   -2.6409   11.3164 H   0  0  0  1  0  0  0  0  0  0  0  0
   15.7487   -3.3459   12.8992 H   0  0  0  1  0  0  0  0  0  0  0  0
   13.7642   -2.7867   12.4690 C   0  0  0  1  0  0  0  0  0  0  0  0
   12.9914   -2.8217   11.7739 H   0  0  0  1  0  0  0  0  0  0  0  0
   13.4909   -2.2832   13.6667 C   0  0  0  1  0  0  0  0  0  0  0  0
   14.5859   -1.8846   14.6151 C   0  0  0  1  0  0  0  0  0  0  0  0
   15.0017   -2.7708   15.0471 H   0  0  0  1  0  0  0  0  0  0  0  0
   14.1633   -1.2755   15.3867 H   0  0  0  1  0  0  0  0  0  0  0  0
   12.1000   -2.0648   14.1860 C   0  0  0  1  0  0  0  0  0  0  0  0
   11.8694   -2.8131   14.9152 H   0  0  0  1  0  0  0  0  0  0  0  0
   11.4031   -2.1290   13.3766 H   0  0  0  1  0  0  0  0  0  0  0  0
   12.0358   -1.0964   14.6366 H   0  0  0  1  0  0  0  0  0  0  0  0
   15.7031   -1.1050   13.9408 C   0  0  0  1  0  0  0  0  0  0  0  0
   15.2939   -0.2014   13.5397 H   0  0  0  1  0  0  0  0  0  0  0  0
   16.1020   -1.7001   13.1461 H   0  0  0  1  0  0  0  0  0  0  0  0
   16.8146   -0.7506   14.8733 C   0  0  0  1  0  0  0  0  0  0  0  0
   17.2259   -1.5035   15.4612 H   0  0  0  1  0  0  0  0  0  0  0  0
   17.3036    0.4784   14.9888 C   0  0  0  1  0  0  0  0  0  0  0  0
   16.8244    1.6022   14.0977 C   0  0  0  1  0  0  0  0  0  0  0  0
   16.6594    2.4565   14.7206 H   0  0  0  1  0  0  0  0  0  0  0  0
   15.8970    1.2928   13.6629 H   0  0  0  1  0  0  0  0  0  0  0  0
   18.3546    0.8726   15.9880 C   0  0  0  1  0  0  0  0  0  0  0  0
   18.3571    0.1738   16.7982 H   0  0  0  1  0  0  0  0  0  0  0  0
   18.1408    1.8518   16.3626 H   0  0  0  1  0  0  0  0  0  0  0  0
   19.3141    0.8729   15.5146 H   0  0  0  1  0  0  0  0  0  0  0  0
   17.7367    2.0366   12.9622 C   0  0  0  1  0  0  0  0  0  0  0  0
   17.9908    1.1676   12.3920 H   0  0  0  1  0  0  0  0  0  0  0  0
   18.6233    2.4536   13.3922 H   0  0  0  1  0  0  0  0  0  0  0  0
   17.1544    3.0550   12.0210 C   0  0  0  1  0  0  0  0  0  0  0  0
   16.2085    3.4172   12.2573 H   0  0  0  1  0  0  0  0  0  0  0  0
   17.7173    3.5423   10.9205 C   0  0  0  1  0  0  0  0  0  0  0  0
   19.0768    3.1333   10.4283 C   0  0  0  1  0  0  0  0  0  0  0  0
   19.4244    2.3173   11.0268 H   0  0  0  1  0  0  0  0  0  0  0  0
   19.7422    3.9643   10.5361 H   0  0  0  1  0  0  0  0  0  0  0  0
   17.0206    4.5613   10.0672 C   0  0  0  1  0  0  0  0  0  0  0  0
   16.0323    4.7260   10.4427 H   0  0  0  1  0  0  0  0  0  0  0  0
   16.9643    4.2044    9.0600 H   0  0  0  1  0  0  0  0  0  0  0  0
   17.5684    5.4802   10.0904 H   0  0  0  1  0  0  0  0  0  0  0  0
   19.0769    2.6994    8.9716 C   0  0  0  1  0  0  0  0  0  0  0  0
   18.5546    3.4355    8.3969 H   0  0  0  1  0  0  0  0  0  0  0  0
   18.5689    1.7607    8.8958 H   0  0  0  1  0  0  0  0  0  0  0  0
   20.4607    2.5421    8.4038 C   0  0  0  1  0  0  0  0  0  0  0  0
   21.2212    2.2687    9.0584 H   0  0  0  1  0  0  0  0  0  0  0  0
   20.7854    2.7271    7.1229 C   0  0  0  1  0  0  0  0  0  0  0  0
   22.1970    2.5469    6.6450 C   0  0  0  1  0  0  0  0  0  0  0  0
   22.7630    2.0795    7.4235 H   0  0  0  1  0  0  0  0  0  0  0  0
   22.6102    3.5107    6.4323 H   0  0  0  1  0  0  0  0  0  0  0  0
   19.7512    3.1233    6.1070 C   0  0  0  1  0  0  0  0  0  0  0  0
   20.1105    2.7478    5.1718 H   0  0  0  1  0  0  0  0  0  0  0  0
   19.6530    4.1882    6.0694 H   0  0  0  1  0  0  0  0  0  0  0  0
   18.8047    2.6856    6.3469 H   0  0  0  1  0  0  0  0  0  0  0  0
   22.2971    1.6905    5.3932 C   0  0  0  1  0  0  0  0  0  0  0  0
   21.6439    2.0969    4.6494 H   0  0  0  1  0  0  0  0  0  0  0  0
   21.9871    0.6955    5.6356 H   0  0  0  1  0  0  0  0  0  0  0  0
   23.6909    1.6337    4.8275 C   0  0  0  1  0  0  0  0  0  0  0  0
   24.3841    1.0688    5.3585 H   0  0  0  1  0  0  0  0  0  0  0  0
   24.1335    2.2296    3.7186 C   0  0  0  1  0  0  0  0  0  0  0  0
   23.2030    2.9946    2.8231 C   0  0  0  1  0  0  0  0  0  0  0  0
   22.2250    3.0135    3.2567 H   0  0  0  1  0  0  0  0  0  0  0  0
   23.1591    2.5194    1.8654 H   0  0  0  1  0  0  0  0  0  0  0  0
   23.5616    3.9962    2.7087 H   0  0  0  1  0  0  0  0  0  0  0  0
   25.5875    2.1584    3.3199 C   0  0  0  1  0  0  0  0  0  0  0  0
   25.9905    1.2607    3.7403 H   0  0  0  1  0  0  0  0  0  0  0  0
   26.1133    3.0088    3.7011 H   0  0  0  1  0  0  0  0  0  0  0  0
   25.6736    2.1337    2.2537 H   0  0  0  1  0  0  0  0  0  0  0  0
   16.3367   -5.0371   -1.7552 C   0  0  0  1  0  0  0  0  0  0  0  0
   16.7514   -5.5258   -0.8984 H   0  0  0  1  0  0  0  0  0  0  0  0
   15.0503   -5.7216   -2.1351 C   0  0  0  1  0  0  0  0  0  0  0  0
   15.2580   -6.7332   -2.4149 H   0  0  0  1  0  0  0  0  0  0  0  0
   16.1220   -3.6679   -1.4474 O   0  0  0  1  0  0  0  0  0  0  0  0
   14.4010   -5.0080   -3.2944 C   0  0  0  1  0  0  0  0  0  0  0  0
   13.4165   -5.4001   -3.4419 H   0  0  0  1  0  0  0  0  0  0  0  0
   15.6416   -2.9459   -2.5788 C   0  0  0  1  0  0  0  0  0  0  0  0
   16.3479   -3.0252   -3.3786 H   0  0  0  1  0  0  0  0  0  0  0  0
   14.3092   -3.5259   -3.0208 C   0  0  0  1  0  0  0  0  0  0  0  0
   13.9953   -3.0284   -3.9147 H   0  0  0  1  0  0  0  0  0  0  0  0
   17.2494   -5.1296   -2.8429 O   0  0  0  1  0  0  0  0  0  0  0  0
   14.1732   -5.7092   -1.0311 O   0  0  0  1  0  0  0  0  0  0  0  0
   13.3905   -6.2252   -1.2379 H   0  0  0  1  0  0  0  0  0  0  0  0
   15.1758   -5.2193   -4.4657 O   0  0  0  1  0  0  0  0  0  0  0  0
   14.6805   -4.9277   -5.2345 H   0  0  0  1  0  0  0  0  0  0  0  0
   15.4589   -1.4836   -2.2063 C   0  0  0  1  0  0  0  0  0  0  0  0
   15.5426   -1.3722   -1.1454 H   0  0  0  1  0  0  0  0  0  0  0  0
   14.4922   -1.1529   -2.5242 H   0  0  0  1  0  0  0  0  0  0  0  0
   16.2132   -0.8964   -2.6870 H   0  0  0  1  0  0  0  0  0  0  0  0
   19.7344   -6.6414   -3.0237 C   0  0  0  1  0  0  0  0  0  0  0  0
   18.8264   -7.1508   -3.2704 H   0  0  0  1  0  0  0  0  0  0  0  0
   19.4473   -5.5735   -1.9789 C   0  0  0  1  0  0  0  0  0  0  0  0
   20.3631   -5.1071   -1.6812 H   0  0  0  1  0  0  0  0  0  0  0  0
   20.2685   -6.0354   -4.1925 O   0  0  0  1  0  0  0  0  0  0  0  0
   18.5138   -4.5293   -2.5834 C   0  0  0  1  0  0  0  0  0  0  0  0
   18.3915   -3.7250   -1.8884 H   0  0  0  1  0  0  0  0  0  0  0  0
   19.3426   -5.1419   -4.8371 C   0  0  0  1  0  0  0  0  0  0  0  0
   19.7659   -4.7722   -5.7476 H   0  0  0  1  0  0  0  0  0  0  0  0
   19.0776   -3.9836   -3.8777 C   0  0  0  1  0  0  0  0  0  0  0  0
   18.3741   -3.3081   -4.3178 H   0  0  0  1  0  0  0  0  0  0  0  0
   18.8117   -6.1840   -0.8170 N   0  0  0  1  0  0  0  0  0  0  0  0
   18.2070   -6.9431   -0.9530 H   0  0  0  1  0  0  0  0  0  0  0  0
   20.2998   -3.2934   -3.6129 O   0  0  0  1  0  0  0  0  0  0  0  0
   20.2808   -3.0541   -2.6834 H   0  0  0  1  0  0  0  0  0  0  0  0
   18.0578   -5.8637   -5.1374 C   0  0  0  1  0  0  0  0  0  0  0  0
   17.3907   -5.7354   -4.3107 H   0  0  0  1  0  0  0  0  0  0  0  0
   18.2706   -6.9043   -5.2665 H   0  0  0  1  0  0  0  0  0  0  0  0
   17.4235   -5.3773   -6.3163 O   0  0  0  1  0  0  0  0  0  0  0  0
   18.0896   -4.9539   -6.8628 H   0  0  0  1  0  0  0  0  0  0  0  0
   19.0251   -5.7444    0.4264 C   0  0  0  1  0  0  0  0  0  0  0  0
   19.8055   -4.8438    0.6879 O   0  0  0  1  0  0  0  0  0  0  0  0
   18.2305   -6.4380    1.5158 C   0  0  0  1  0  0  0  0  0  0  0  0
   18.2581   -5.7568    2.3404 H   0  0  0  1  0  0  0  0  0  0  0  0
   18.6841   -7.3704    1.7798 H   0  0  0  1  0  0  0  0  0  0  0  0
   17.2227   -6.6081    1.1991 H   0  0  0  1  0  0  0  0  0  0  0  0
  1  2  1  0  0  0  0
  1  3  1  0  0  0  0
  1  4  1  0  0  0  0
  1 44  1  0  0  0  0
  3 20  1  0  0  0  0
  4  5  1  0  0  0  0
  4  6  1  0  0  0  0
  4  8  1  0  0  0  0
  6  7  1  0  0  0  0
  8  9  1  0  0  0  0
  8 10  1  0  0  0  0
  8 20  1  0  0  0  0
 10 11  1  0  0  0  0
 12 13  1  0  0  0  0
 12 14  1  0  0  0  0
 12 15  1  0  0  0  0
 12 17  1  0  0  0  0
 15 16  1  0  0  0  0
 17 18  1  0  0  0  0
 17 19  1  0  0  0  0
 17 20  1  0  0  0  0
 19 22  1  0  0  0  0
 20 21  1  0  0  0  0
 22 23  1  0  0  0  0
 22 24  1  0  0  0  0
 22 25  1  0  0  0  0
 24 42  1  0  0  0  0
 25 26  1  0  0  0  0
 25 27  1  0  0  0  0
 25 29  1  0  0  0  0
 27 28  1  0  0  0  0
 29 30  1  0  0  0  0
 29 31  1  0  0  0  0
 29 42  1  0  0  0  0
 31 32  1  0  0  0  0
 33 34  1  0  0  0  0
 33 35  1  0  0  0  0
 33 36  1  0  0  0  0
 33 38  1  0  0  0  0
 36 37  1  0  0  0  0
 38 39  1  0  0  0  0
 38 40  1  0  0  0  0
 38 42  1  0  0  0  0
 40 41  1  0  0  0  0
 42 43  1  0  0  0  0
 44194  1  0  0  0  0
 45 46  1  0  0  0  0
 45 54  1  0  0  0  0
 46 47  1  0  0  0  0
 46 48  1  0  0  0  0
 46 49  2  0  0  0  0
 47 50  1  0  0  0  0
 50 51  1  0  0  0  0
 50 52  1  0  0  0  0
 50 53  2  0  0  0  0
 51205  1  0  0  0  0
 54 55  1  0  0  0  0
 54 56  1  0  0  0  0
 54 57  1  0  0  0  0
 57 58  1  0  0  0  0
 57 59  2  0  0  0  0
 59 60  1  0  0  0  0
 59 64  1  0  0  0  0
 60 61  1  0  0  0  0
 60 62  1  0  0  0  0
 60 63  1  0  0  0  0
 64 65  1  0  0  0  0
 64 66  1  0  0  0  0
 64 67  1  0  0  0  0
 67 68  1  0  0  0  0
 67 69  1  0  0  0  0
 67 70  1  0  0  0  0
 70 71  1  0  0  0  0
 70 72  2  0  0  0  0
 72 73  1  0  0  0  0
 72 77  1  0  0  0  0
 73 74  1  0  0  0  0
 73 75  1  0  0  0  0
 73 76  1  0  0  0  0
 77 78  1  0  0  0  0
 77 79  1  0  0  0  0
 77 80  1  0  0  0  0
 80 81  1  0  0  0  0
 80 82  1  0  0  0  0
 80 83  1  0  0  0  0
 83 84  1  0  0  0  0
 83 85  2  0  0  0  0
 85 86  1  0  0  0  0
 85 89  1  0  0  0  0
 86 87  1  0  0  0  0
 86 88  1  0  0  0  0
 86 93  1  0  0  0  0
 89 90  1  0  0  0  0
 89 91  1  0  0  0  0
 89 92  1  0  0  0  0
 93 94  1  0  0  0  0
 93 95  1  0  0  0  0
 93 96  1  0  0  0  0
 96 97  1  0  0  0  0
 96 98  2  0  0  0  0
 98 99  1  0  0  0  0
 98102  1  0  0  0  0
 99100  1  0  0  0  0
 99101  1  0  0  0  0
 99106  1  0  0  0  0
102103  1  0  0  0  0
102104  1  0  0  0  0
102105  1  0  0  0  0
106107  1  0  0  0  0
106108  1  0  0  0  0
106109  1  0  0  0  0
109110  1  0  0  0  0
109111  2  0  0  0  0
111112  1  0  0  0  0
111115  1  0  0  0  0
112113  1  0  0  0  0
112114  1  0  0  0  0
112119  1  0  0  0  0
115116  1  0  0  0  0
115117  1  0  0  0  0
115118  1  0  0  0  0
119120  1  0  0  0  0
119121  1  0  0  0  0
119122  1  0  0  0  0
122123  1  0  0  0  0
122124  2  0  0  0  0
124125  1  0  0  0  0
124128  1  0  0  0  0
125126  1  0  0  0  0
125127  1  0  0  0  0
125132  1  0  0  0  0
128129  1  0  0  0  0
128130  1  0  0  0  0
128131  1  0  0  0  0
132133  1  0  0  0  0
132134  1  0  0  0  0
132135  1  0  0  0  0
135136  1  0  0  0  0
135137  2  0  0  0  0
137138  1  0  0  0  0
137141  1  0  0  0  0
138139  1  0  0  0  0
138140  1  0  0  0  0
138145  1  0  0  0  0
141142  1  0  0  0  0
141143  1  0  0  0  0
141144  1  0  0  0  0
145146  1  0  0  0  0
145147  1  0  0  0  0
145148  1  0  0  0  0
148149  1  0  0  0  0
148150  2  0  0  0  0
150151  1  0  0  0  0
150154  1  0  0  0  0
151152  1  0  0  0  0
151153  1  0  0  0  0
151158  1  0  0  0  0
154155  1  0  0  0  0
154156  1  0  0  0  0
154157  1  0  0  0  0
158159  1  0  0  0  0
158160  1  0  0  0  0
158161  1  0  0  0  0
161162  1  0  0  0  0
161163  2  0  0  0  0
163164  1  0  0  0  0
163167  1  0  0  0  0
164165  1  0  0  0  0
164166  1  0  0  0  0
164171  1  0  0  0  0
167168  1  0  0  0  0
167169  1  0  0  0  0
167170  1  0  0  0  0
171172  1  0  0  0  0
171173  1  0  0  0  0
171174  1  0  0  0  0
174175  1  0  0  0  0
174176  2  0  0  0  0
176177  1  0  0  0  0
176181  1  0  0  0  0
177178  1  0  0  0  0
177179  1  0  0  0  0
177180  1  0  0  0  0
181182  1  0  0  0  0
181183  1  0  0  0  0
181184  1  0  0  0  0
185186  1  0  0  0  0
185187  1  0  0  0  0
185189  1  0  0  0  0
185196  1  0  0  0  0
187188  1  0  0  0  0
187190  1  0  0  0  0
187197  1  0  0  0  0
189192  1  0  0  0  0
190191  1  0  0  0  0
190194  1  0  0  0  0
190199  1  0  0  0  0
192193  1  0  0  0  0
192194  1  0  0  0  0
192201  1  0  0  0  0
194195  1  0  0  0  0
196210  1  0  0  0  0
197198  1  0  0  0  0
199200  1  0  0  0  0
201202  1  0  0  0  0
201203  1  0  0  0  0
201204  1  0  0  0  0
205206  1  0  0  0  0
205207  1  0  0  0  0
205209  1  0  0  0  0
207208  1  0  0  0  0
207210  1  0  0  0  0
207216  1  0  0  0  0
209212  1  0  0  0  0
210211  1  0  0  0  0
210214  1  0  0  0  0
212213  1  0  0  0  0
212214  1  0  0  0  0
212220  1  0  0  0  0
214215  1  0  0  0  0
214218  1  0  0  0  0
216217  1  0  0  0  0
216225  1  0  0  0  0
218219  1  0  0  0  0
220221  1  0  0  0  0
220222  1  0  0  0  0
220223  1  0  0  0  0
223224  1  0  0  0  0
225226  2  0  0  0  0
225227  1  0  0  0  0
227228  1  0  0  0  0
227229  1  0  0  0  0
227230  1  0  0  0  0
M  BCL ATM C_TeTeTeTe H_S O_Te2Te2TeTe C_TeTeTeTe H_S O_Te2Te2TeTe H_S C_TeTeTeTe H_S O_Te2Te2TeTe H_S C_TeTeTeTe H_S H_S O_Te2Te2TeTe H_S C_TeTeTeTe H_S O_Te2Te2TeTe C_TeTeTeTe H_S C_TeTeTeTe H_S O_Te2Te2TeTe C_TeTeTeTe H_S O_Te2Te2TeTe H_S C_TeTeTeTe H_S O_Te2Te2TeTe H_S C_TeTeTeTe H_S H_S O_Te2Te2TeTe H_S C_TeTeTeTe H_S O_Te2Te2TeTe H_S C_TeTeTeTe H_S O_Te2Te2TeTe O_Tr2TrTrPi2 P_TeTeTeTePi O_Tr2TrTrPi2 O_Te2Te2TeTe O_Tr2Tr2TrPi P_TeTeTeTePi O_Tr2TrTrPi2 O_Te2Te2TeTe O_Tr2Tr2TrPi C_TeTeTeTe H_S H_S C_TrTrTrPi H_S C_TrTrTrPi C_TeTeTeTe H_S H_S H_S C_TeTeTeTe H_S H_S C_TeTeTeTe H_S H_S C_TrTrTrPi H_S C_TrTrTrPi C_TeTeTeTe H_S H_S H_S C_TeTeTeTe H_S H_S C_TeTeTeTe H_S H_S C_TrTrTrPi H_S C_TrTrTrPi C_TeTeTeTe H_S H_S C_TeTeTeTe H_S H_S H_S C_TeTeTeTe H_S H_S C_TrTrTrPi H_S C_TrTrTrPi C_TeTeTeTe H_S H_S C_TeTeTeTe H_S H_S H_S C_TeTeTeTe H_S H_S C_TrTrTrPi H_S C_TrTrTrPi C_TeTeTeTe H_S H_S C_TeTeTeTe H_S H_S H_S C_TeTeTeTe H_S H_S C_TrTrTrPi H_S C_TrTrTrPi C_TeTeTeTe H_S H_S C_TeTeTeTe H_S H_S H_S C_TeTeTeTe H_S H_S C_TrTrTrPi H_S C_TrTrTrPi C_TeTeTeTe H_S H_S C_TeTeTeTe H_S H_S H_S C_TeTeTeTe H_S H_S C_TrTrTrPi H_S C_TrTrTrPi C_TeTeTeTe H_S H_S C_TeTeTeTe H_S H_S H_S C_TeTeTeTe H_S H_S C_TrTrTrPi H_S C_TrTrTrPi C_TeTeTeTe H_S H_S C_TeTeTeTe H_S H_S H_S C_TeTeTeTe H_S H_S C_TrTrTrPi H_S C_TrTrTrPi C_TeTeTeTe H_S H_S H_S C_TeTeTeTe H_S H_S H_S C_TeTeTeTe H_S C_TeTeTeTe H_S O_Te2Te2TeTe C_TeTeTeTe H_S C_TeTeTeTe H_S C_TeTeTeTe H_S O_Te2Te2TeTe O_Te2Te2TeTe H_S O_Te2Te2TeTe H_S C_TeTeTeTe H_S H_S H_S C_TeTeTeTe H_S C_TeTeTeTe H_S O_Te2Te2TeTe C_TeTeTeTe H_S C_TeTeTeTe H_S C_TeTeTeTe H_S N_TrTrTrPi2 H_S O_Te2Te2TeTe H_S C_TeTeTeTe H_S H_S O_Te2Te2TeTe H_S C_TrTrTrPi O_Tr2Tr2TrPi C_TeTeTeTe H_S H_S H_S
M  BCL BND NonConjugatedSingleBond NonConjugatedSingleBondInRing NonConjugatedSingleBondInRing NonConjugatedSingleBond NonConjugatedSingleBondInRing NonConjugatedSingleBond NonConjugatedSingleBond NonConjugatedSingleBondInRing NonConjugatedSingleBond NonConjugatedSingleBond NonConjugatedSingleBond NonConjugatedSingleBondInRing NonConjugatedSingleBond NonConjugatedSingleBond NonConjugatedSingleBond NonConjugatedSingleBond NonConjugatedSingleBond NonConjugatedSingleBond NonConjugatedSingleBond NonConjugatedSingleBond NonConjugatedSingleBond NonConjugatedSingleBond NonConjugatedSingleBond NonConjugatedSingleBond NonConjugatedSingleBondInRing NonConjugatedSingleBondInRing NonConjugatedSingleBondInRing NonConjugatedSingleBond NonConjugatedSingleBond NonConjugatedSingleBondInRing NonConjugatedSingleBond NonConjugatedSingleBond NonConjugatedSingleBond NonConjugatedSingleBondInRing NonConjugatedSingleBond NonConjugatedSingleBond NonConjugatedSingleBond NonConjugatedSingleBond NonConjugatedSingleBond NonConjugatedSingleBond NonConjugatedSingleBond NonConjugatedSingleBond NonConjugatedSingleBond NonConjugatedSingleBond NonConjugatedSingleBond NonConjugatedSingleBond ConjugatedSingleBond NonConjugatedSingleBond ConjugatedSingleBond ConjugatedSingleBond ConjugatedDoubleBond ConjugatedSingleBond ConjugatedSingleBond ConjugatedSingleBond ConjugatedDoubleBond NonConjugatedSingleBond NonConjugatedSingleBond NonConjugatedSingleBond NonConjugatedSingleBond NonConjugatedSingleBond ConjugatedDoubleBond NonConjugatedSingleBond NonConjugatedSingleBond NonConjugatedSingleBond NonConjugatedSingleBond NonConjugatedSingleBond NonConjugatedSingleBond NonConjugatedSingleBond NonConjugatedSingleBond NonConjugatedSingleBond NonConjugatedSingleBond NonConjugatedSingleBond NonConjugatedSingleBond ConjugatedDoubleBond NonConjugatedSingleBond NonConjugatedSingleBond NonConjugatedSingleBond NonConjugatedSingleBond NonConjugatedSingleBond NonConjugatedSingleBond NonConjugatedSingleBond NonConjugatedSingleBond NonConjugatedSingleBond NonConjugatedSingleBond NonConjugatedSingleBond NonConjugatedSingleBond ConjugatedDoubleBond NonConjugatedSingleBond NonConjugatedSingleBond NonConjugatedSingleBond NonConjugatedSingleBond NonConjugatedSingleBond NonConjugatedSingleBond NonConjugatedSingleBond NonConjugatedSingleBond NonConjugatedSingleBond NonConjugatedSingleBond NonConjugatedSingleBond NonConjugatedSingleBond ConjugatedDoubleBond NonConjugatedSingleBond NonConjugatedSingleBond NonConjugatedSingleBond NonConjugatedSingleBond NonConjugatedSingleBond NonConjugatedSingleBond NonConjugatedSingleBond NonConjugatedSingleBond NonConjugatedSingleBond NonConjugatedSingleBond NonConjugatedSingleBond NonConjugatedSingleBond ConjugatedDoubleBond NonConjugatedSingleBond NonConjugatedSingleBond NonConjugatedSingleBond NonConjugatedSingleBond NonConjugatedSingleBond NonConjugatedSingleBond NonConjugatedSingleBond NonConjugatedSingleBond NonConjugatedSingleBond NonConjugatedSingleBond NonConjugatedSingleBond NonConjugatedSingleBond ConjugatedDoubleBond NonConjugatedSingleBond NonConjugatedSingleBond NonConjugatedSingleBond NonConjugatedSingleBond NonConjugatedSingleBond NonConjugatedSingleBond NonConjugatedSingleBond NonConjugatedSingleBond NonConjugatedSingleBond NonConjugatedSingleBond NonConjugatedSingleBond NonConjugatedSingleBond ConjugatedDoubleBond NonConjugatedSingleBond NonConjugatedSingleBond NonConjugatedSingleBond NonConjugatedSingleBond NonConjugatedSingleBond NonConjugatedSingleBond NonConjugatedSingleBond NonConjugatedSingleBond NonConjugatedSingleBond NonConjugatedSingleBond NonConjugatedSingleBond NonConjugatedSingleBond ConjugatedDoubleBond NonConjugatedSingleBond NonConjugatedSingleBond NonConjugatedSingleBond NonConjugatedSingleBond NonConjugatedSingleBond NonConjugatedSingleBond NonConjugatedSingleBond NonConjugatedSingleBond NonConjugatedSingleBond NonConjugatedSingleBond NonConjugatedSingleBond NonConjugatedSingleBond ConjugatedDoubleBond NonConjugatedSingleBond NonConjugatedSingleBond NonConjugatedSingleBond NonConjugatedSingleBond NonConjugatedSingleBond NonConjugatedSingleBond NonConjugatedSingleBond NonConjugatedSingleBond NonConjugatedSingleBond NonConjugatedSingleBond NonConjugatedSingleBond NonConjugatedSingleBond ConjugatedDoubleBond NonConjugatedSingleBond NonConjugatedSingleBond NonConjugatedSingleBond NonConjugatedSingleBond NonConjugatedSingleBond NonConjugatedSingleBond NonConjugatedSingleBond NonConjugatedSingleBond NonConjugatedSingleBond NonConjugatedSingleBondInRing NonConjugatedSingleBondInRing NonConjugatedSingleBond NonConjugatedSingleBond NonConjugatedSingleBondInRing NonConjugatedSingleBond NonConjugatedSingleBondInRing NonConjugatedSingleBond NonConjugatedSingleBondInRing NonConjugatedSingleBond NonConjugatedSingleBond NonConjugatedSingleBondInRing NonConjugatedSingleBond NonConjugatedSingleBond NonConjugatedSingleBond NonConjugatedSingleBond NonConjugatedSingleBond NonConjugatedSingleBond NonConjugatedSingleBond NonConjugatedSingleBond NonConjugatedSingleBond NonConjugatedSingleBondInRing NonConjugatedSingleBondInRing NonConjugatedSingleBond NonConjugatedSingleBondInRing NonConjugatedSingleBond NonConjugatedSingleBondInRing NonConjugatedSingleBond NonConjugatedSingleBondInRing NonConjugatedSingleBond NonConjugatedSingleBondInRing NonConjugatedSingleBond NonConjugatedSingleBond NonConjugatedSingleBond NonConjugatedSingleBond AmideSingleBond NonConjugatedSingleBond NonConjugatedSingleBond NonConjugatedSingleBond NonConjugatedSingleBond NonConjugatedSingleBond ConjugatedDoubleBond NonConjugatedSingleBond NonConjugatedSingleBond NonConjugatedSingleBond NonConjugatedSingleBond
M  BCL CHI   1   R   4   R   8   R  17   S  20   R  22   S  25   R  29   S  38   S  42   R  46   R  50   S 185   R 187   S 190   S 192   R 194   R 205   R 207   S 210   R 212   S 214   S
M  BCL DBI - - E E E E E E E E Z - -
M  END
> <ConfClashScore>
0.0177652 

> <ConfOneFourInteractionScore>
-0.963471 

> <ConfScore>
1.94332 

> <ConfScorePBest>
0.00665247 

> <ConfTolerance>
4.31696 

$$$$
L05.****
  PyMOL2.5          3D                             0

230233  0  0  0  0  0  0  0  0999 V2000
   12.5502   -2.0420   -2.3743 C   0  0  0  1  0  0  0  0  0  0  0  0
   13.2622   -1.2857   -2.6308 H   0  0  0  1  0  0  0  0  0  0  0  0
   11.7940   -1.6586   -1.1856 O   0  0  0  1  0  0  0  0  0  0  0  0
   11.5024   -2.1795   -3.4550 C   0  0  0  1  0  0  0  0  0  0  0  0
   11.0753   -3.1605   -3.4509 H   0  0  0  1  0  0  0  0  0  0  0  0
   12.0581   -1.9068   -4.7423 O   0  0  0  1  0  0  0  0  0  0  0  0
   12.7198   -1.2154   -4.6658 H   0  0  0  1  0  0  0  0  0  0  0  0
   10.4553   -1.1240   -3.0750 C   0  0  0  1  0  0  0  0  0  0  0  0
   10.6805   -0.1787   -3.5229 H   0  0  0  1  0  0  0  0  0  0  0  0
    9.1443   -1.5359   -3.4647 O   0  0  0  1  0  0  0  0  0  0  0  0
    8.8855   -1.0690   -4.2625 H   0  0  0  1  0  0  0  0  0  0  0  0
    9.8601    0.5949    0.2415 C   0  0  0  1  0  0  0  0  0  0  0  0
    9.0760    1.3146    0.1323 H   0  0  0  1  0  0  0  0  0  0  0  0
    9.4483   -0.3339    0.5770 H   0  0  0  1  0  0  0  0  0  0  0  0
   10.8251    1.0653    1.1776 O   0  0  0  1  0  0  0  0  0  0  0  0
   11.6613    0.6182    1.0280 H   0  0  0  1  0  0  0  0  0  0  0  0
   10.5728    0.3969   -1.0893 C   0  0  0  1  0  0  0  0  0  0  0  0
   11.5807    0.7459   -1.0042 H   0  0  0  1  0  0  0  0  0  0  0  0
    9.8865    1.1097   -2.1118 O   0  0  0  1  0  0  0  0  0  0  0  0
   10.5827   -1.0562   -1.5449 C   0  0  0  1  0  0  0  0  0  0  0  0
    9.7679   -1.5790   -1.0892 H   0  0  0  1  0  0  0  0  0  0  0  0
   10.4519    2.3677   -2.4050 C   0  0  0  1  0  0  0  0  0  0  0  0
   10.5723    2.9249   -1.4995 H   0  0  0  1  0  0  0  0  0  0  0  0
   11.7121    2.2023   -3.0530 O   0  0  0  1  0  0  0  0  0  0  0  0
    9.5766    3.1179   -3.3615 C   0  0  0  1  0  0  0  0  0  0  0  0
    8.9759    3.8349   -2.8420 H   0  0  0  1  0  0  0  0  0  0  0  0
    8.7310    2.2205   -4.0827 O   0  0  0  1  0  0  0  0  0  0  0  0
    8.2232    1.6912   -3.4634 H   0  0  0  1  0  0  0  0  0  0  0  0
   10.5487    3.8109   -4.2999 C   0  0  0  1  0  0  0  0  0  0  0  0
   10.4221    4.8726   -4.2594 H   0  0  0  1  0  0  0  0  0  0  0  0
   10.3641    3.3608   -5.6389 O   0  0  0  1  0  0  0  0  0  0  0  0
   10.6503    2.4474   -5.7123 H   0  0  0  1  0  0  0  0  0  0  0  0
   12.7438    5.8015   -3.6019 C   0  0  0  1  0  0  0  0  0  0  0  0
   11.8169    6.1768   -3.9826 H   0  0  0  1  0  0  0  0  0  0  0  0
   13.1535    6.5021   -2.9047 H   0  0  0  1  0  0  0  0  0  0  0  0
   13.6525    5.6499   -4.6830 O   0  0  0  1  0  0  0  0  0  0  0  0
   13.5639    4.7694   -5.0550 H   0  0  0  1  0  0  0  0  0  0  0  0
   12.4788    4.4906   -2.8778 C   0  0  0  1  0  0  0  0  0  0  0  0
   11.7724    4.6744   -2.0954 H   0  0  0  1  0  0  0  0  0  0  0  0
   13.6821    3.9655   -2.3233 O   0  0  0  1  0  0  0  0  0  0  0  0
   13.6697    3.0073   -2.3802 H   0  0  0  1  0  0  0  0  0  0  0  0
   11.9206    3.4135   -3.7841 C   0  0  0  1  0  0  0  0  0  0  0  0
   12.5940    3.2482   -4.5990 H   0  0  0  1  0  0  0  0  0  0  0  0
   13.2246   -3.2785   -2.1657 O   0  0  0  1  0  0  0  0  0  0  0  0
   20.3284   -3.4520   -9.9802 O   0  0  0  1  0  0  0  0  0  0  0  0
   20.9771   -4.6577   -9.2045 P   0  0  0  1  0  0  0  0  0  0  0  0
   20.1444   -4.8414   -7.8298 O   0  0  0  1  0  0  0  0  0  0  0  0
   22.3755   -4.2345   -8.8842 O   0  0  0  0  0  0  0  0  0  0  0  0
   20.8546   -5.9223   -9.9530 O   0  0  0  1  0  0  0  0  0  0  0  0
   19.2212   -6.0807   -7.4933 P   0  0  0  1  0  0  0  0  0  0  0  0
   19.7201   -6.5265   -6.0596 O   0  0  0  1  0  0  0  0  0  0  0  0
   19.5614   -7.1671   -8.5009 O   0  0  0  0  0  0  0  0  0  0  0  0
   17.7840   -5.6811   -7.4051 O   0  0  0  1  0  0  0  0  0  0  0  0
   20.7207   -3.1470  -11.3277 C   0  0  0  1  0  0  0  0  0  0  0  0
   20.6067   -4.0252  -11.9284 H   0  0  0  1  0  0  0  0  0  0  0  0
   21.7469   -2.8441  -11.3292 H   0  0  0  1  0  0  0  0  0  0  0  0
   19.8889   -2.0456  -11.9161 C   0  0  0  1  0  0  0  0  0  0  0  0
   20.0932   -1.7585  -12.8946 H   0  0  0  1  0  0  0  0  0  0  0  0
   18.9015   -1.4035  -11.2742 C   0  0  0  1  0  0  0  0  0  0  0  0
   17.8780   -0.5430  -11.9563 C   0  0  0  1  0  0  0  0  0  0  0  0
   17.3539   -1.1226  -12.6872 H   0  0  0  1  0  0  0  0  0  0  0  0
   18.3665    0.2790  -12.4367 H   0  0  0  1  0  0  0  0  0  0  0  0
   17.1841   -0.1718  -11.2313 H   0  0  0  1  0  0  0  0  0  0  0  0
   18.6887   -1.4601   -9.7876 C   0  0  0  1  0  0  0  0  0  0  0  0
   18.4498   -2.4699   -9.5266 H   0  0  0  1  0  0  0  0  0  0  0  0
   17.8622   -0.8242   -9.5480 H   0  0  0  1  0  0  0  0  0  0  0  0
   19.8751   -1.0256   -8.9425 C   0  0  0  1  0  0  0  0  0  0  0  0
   20.0858   -0.0017   -9.1712 H   0  0  0  1  0  0  0  0  0  0  0  0
   20.7137   -1.6321   -9.2142 H   0  0  0  1  0  0  0  0  0  0  0  0
   19.6844   -1.1380   -7.4655 C   0  0  0  1  0  0  0  0  0  0  0  0
   20.5175   -1.3272   -6.8724 H   0  0  0  1  0  0  0  0  0  0  0  0
   18.5037   -1.0083   -6.8723 C   0  0  0  1  0  0  0  0  0  0  0  0
   18.2910   -1.4470   -5.4526 C   0  0  0  1  0  0  0  0  0  0  0  0
   17.5466   -2.2151   -5.4239 H   0  0  0  1  0  0  0  0  0  0  0  0
   17.9653   -0.6129   -4.8668 H   0  0  0  1  0  0  0  0  0  0  0  0
   19.2094   -1.8257   -5.0552 H   0  0  0  1  0  0  0  0  0  0  0  0
   17.2912   -0.4264   -7.5381 C   0  0  0  1  0  0  0  0  0  0  0  0
   16.4957   -0.4396   -6.8225 H   0  0  0  1  0  0  0  0  0  0  0  0
   17.0417   -1.0626   -8.3614 H   0  0  0  1  0  0  0  0  0  0  0  0
   17.3966    0.9918   -8.0749 C   0  0  0  1  0  0  0  0  0  0  0  0
   16.5205    1.2036   -8.6515 H   0  0  0  1  0  0  0  0  0  0  0  0
   18.2611    1.0551   -8.7022 H   0  0  0  1  0  0  0  0  0  0  0  0
   17.5155    2.0182   -6.9964 C   0  0  0  1  0  0  0  0  0  0  0  0
   18.1878    1.8460   -6.2219 H   0  0  0  1  0  0  0  0  0  0  0  0
   16.8046    3.1406   -6.9779 C   0  0  0  1  0  0  0  0  0  0  0  0
   15.8023    3.5093   -8.0328 C   0  0  0  1  0  0  0  0  0  0  0  0
   14.9630    3.9617   -7.5470 H   0  0  0  1  0  0  0  0  0  0  0  0
   15.4903    2.6095   -8.5205 H   0  0  0  1  0  0  0  0  0  0  0  0
   16.9547    4.1484   -5.8731 C   0  0  0  1  0  0  0  0  0  0  0  0
   17.2064    5.1010   -6.2904 H   0  0  0  1  0  0  0  0  0  0  0  0
   17.7313    3.8344   -5.2074 H   0  0  0  1  0  0  0  0  0  0  0  0
   16.0332    4.2272   -5.3350 H   0  0  0  1  0  0  0  0  0  0  0  0
   16.3018    4.4712   -9.0984 C   0  0  0  1  0  0  0  0  0  0  0  0
   17.1470    4.0393   -9.5925 H   0  0  0  1  0  0  0  0  0  0  0  0
   16.5913    5.3904   -8.6333 H   0  0  0  1  0  0  0  0  0  0  0  0
   15.2324    4.7474  -10.1070 C   0  0  0  1  0  0  0  0  0  0  0  0
   14.4245    4.0934  -10.1431 H   0  0  0  1  0  0  0  0  0  0  0  0
   15.2375    5.7659  -10.9603 C   0  0  0  1  0  0  0  0  0  0  0  0
   16.3335    6.7915  -11.0276 C   0  0  0  1  0  0  0  0  0  0  0  0
   16.3020    7.2610  -11.9886 H   0  0  0  1  0  0  0  0  0  0  0  0
   17.2730    6.2947  -10.9035 H   0  0  0  1  0  0  0  0  0  0  0  0
   14.1226    5.9724  -11.9433 C   0  0  0  1  0  0  0  0  0  0  0  0
   14.5318    6.2166  -12.9014 H   0  0  0  1  0  0  0  0  0  0  0  0
   13.4961    6.7727  -11.6088 H   0  0  0  1  0  0  0  0  0  0  0  0
   13.5450    5.0750  -12.0208 H   0  0  0  1  0  0  0  0  0  0  0  0
   16.2097    7.8662   -9.9599 C   0  0  0  1  0  0  0  0  0  0  0  0
   16.4281    7.4378   -9.0040 H   0  0  0  1  0  0  0  0  0  0  0  0
   15.2100    8.2477   -9.9603 H   0  0  0  1  0  0  0  0  0  0  0  0
   17.1690    8.9954  -10.2254 C   0  0  0  1  0  0  0  0  0  0  0  0
   18.1817    8.7644  -10.2773 H   0  0  0  1  0  0  0  0  0  0  0  0
   16.8185   10.2653  -10.3985 C   0  0  0  1  0  0  0  0  0  0  0  0
   15.4681   10.8120  -10.0414 C   0  0  0  1  0  0  0  0  0  0  0  0
   14.7274   10.0604  -10.2181 H   0  0  0  1  0  0  0  0  0  0  0  0
   15.2628   11.6664  -10.6520 H   0  0  0  1  0  0  0  0  0  0  0  0
   17.7699   11.2705  -10.9776 C   0  0  0  1  0  0  0  0  0  0  0  0
   17.3359   11.7114  -11.8506 H   0  0  0  1  0  0  0  0  0  0  0  0
   18.6854   10.7837  -11.2418 H   0  0  0  1  0  0  0  0  0  0  0  0
   17.9669   12.0332  -10.2535 H   0  0  0  1  0  0  0  0  0  0  0  0
   15.4225   11.2225   -8.5786 C   0  0  0  1  0  0  0  0  0  0  0  0
   16.0462   12.0818   -8.4463 H   0  0  0  1  0  0  0  0  0  0  0  0
   15.7977   10.4142   -7.9862 H   0  0  0  1  0  0  0  0  0  0  0  0
   14.0453   11.5576   -8.1077 C   0  0  0  1  0  0  0  0  0  0  0  0
   13.6146   12.4470   -8.4320 H   0  0  0  1  0  0  0  0  0  0  0  0
   13.3438   10.7762   -7.2954 C   0  0  0  1  0  0  0  0  0  0  0  0
   13.7413    9.3484   -7.0485 C   0  0  0  1  0  0  0  0  0  0  0  0
   14.7408    9.2069   -7.4035 H   0  0  0  1  0  0  0  0  0  0  0  0
   13.0757    8.7107   -7.5919 H   0  0  0  1  0  0  0  0  0  0  0  0
   12.1149   11.2221   -6.5585 C   0  0  0  1  0  0  0  0  0  0  0  0
   12.2129   10.9798   -5.5209 H   0  0  0  1  0  0  0  0  0  0  0  0
   11.2575   10.7245   -6.9613 H   0  0  0  1  0  0  0  0  0  0  0  0
   11.9980   12.2801   -6.6679 H   0  0  0  1  0  0  0  0  0  0  0  0
   13.6904    8.9616   -5.5794 C   0  0  0  1  0  0  0  0  0  0  0  0
   12.9988    8.1534   -5.4638 H   0  0  0  1  0  0  0  0  0  0  0  0
   13.3506    9.8058   -5.0166 H   0  0  0  1  0  0  0  0  0  0  0  0
   15.0265    8.5302   -5.0366 C   0  0  0  1  0  0  0  0  0  0  0  0
   15.5722    7.8413   -5.5926 H   0  0  0  1  0  0  0  0  0  0  0  0
   15.5630    8.9659   -3.8952 C   0  0  0  1  0  0  0  0  0  0  0  0
   14.7351    9.6878   -2.8737 C   0  0  0  1  0  0  0  0  0  0  0  0
   13.7556    9.2574   -2.8634 H   0  0  0  1  0  0  0  0  0  0  0  0
   14.6697   10.7181   -3.1548 H   0  0  0  1  0  0  0  0  0  0  0  0
   17.0181    8.7509   -3.5870 C   0  0  0  1  0  0  0  0  0  0  0  0
   17.1130    8.2249   -2.6601 H   0  0  0  1  0  0  0  0  0  0  0  0
   17.5101    9.6981   -3.5112 H   0  0  0  1  0  0  0  0  0  0  0  0
   17.4673    8.1768   -4.3703 H   0  0  0  1  0  0  0  0  0  0  0  0
   15.3170    9.6045   -1.4657 C   0  0  0  1  0  0  0  0  0  0  0  0
   16.3524    9.8710   -1.5087 H   0  0  0  1  0  0  0  0  0  0  0  0
   15.2216    8.5976   -1.1167 H   0  0  0  1  0  0  0  0  0  0  0  0
   14.6274   10.5179   -0.4877 C   0  0  0  1  0  0  0  0  0  0  0  0
   13.6024   10.6419   -0.6127 H   0  0  0  1  0  0  0  0  0  0  0  0
   15.1868   11.1835    0.5188 C   0  0  0  1  0  0  0  0  0  0  0  0
   16.6659   11.0498    0.7567 C   0  0  0  1  0  0  0  0  0  0  0  0
   17.1827   11.3663   -0.1251 H   0  0  0  1  0  0  0  0  0  0  0  0
   16.8880   10.0214    0.9511 H   0  0  0  1  0  0  0  0  0  0  0  0
   14.4671   12.0870    1.4761 C   0  0  0  1  0  0  0  0  0  0  0  0
   13.4263   11.8388    1.4876 H   0  0  0  1  0  0  0  0  0  0  0  0
   14.5876   13.1039    1.1655 H   0  0  0  1  0  0  0  0  0  0  0  0
   14.8740   11.9628    2.4578 H   0  0  0  1  0  0  0  0  0  0  0  0
   17.1576   11.8812    1.9303 C   0  0  0  1  0  0  0  0  0  0  0  0
   16.6124   11.5924    2.8045 H   0  0  0  1  0  0  0  0  0  0  0  0
   16.9717   12.9134    1.7182 H   0  0  0  1  0  0  0  0  0  0  0  0
   18.6276   11.7053    2.2027 C   0  0  0  1  0  0  0  0  0  0  0  0
   19.2950   12.0509    1.4838 H   0  0  0  1  0  0  0  0  0  0  0  0
   19.1357   11.1419    3.2922 C   0  0  0  1  0  0  0  0  0  0  0  0
   20.6187   11.0074    3.4823 C   0  0  0  1  0  0  0  0  0  0  0  0
   21.1166   11.3163    2.5870 H   0  0  0  1  0  0  0  0  0  0  0  0
   20.8547    9.9841    3.6873 H   0  0  0  1  0  0  0  0  0  0  0  0
   18.3051   10.5945    4.4187 C   0  0  0  1  0  0  0  0  0  0  0  0
   18.9300   10.6459    5.2858 H   0  0  0  1  0  0  0  0  0  0  0  0
   18.0256    9.5812    4.2189 H   0  0  0  1  0  0  0  0  0  0  0  0
   17.4251   11.1873    4.5565 H   0  0  0  1  0  0  0  0  0  0  0  0
   21.0941   11.8701    4.6400 C   0  0  0  1  0  0  0  0  0  0  0  0
   20.5700   11.5725    5.5241 H   0  0  0  1  0  0  0  0  0  0  0  0
   20.8685   12.8922    4.4180 H   0  0  0  1  0  0  0  0  0  0  0  0
   22.5726   11.7504    4.8962 C   0  0  0  1  0  0  0  0  0  0  0  0
   23.2169   11.9788    4.1124 H   0  0  0  1  0  0  0  0  0  0  0  0
   23.1155   11.3751    6.0482 C   0  0  0  1  0  0  0  0  0  0  0  0
   22.2650   11.0241    7.2342 C   0  0  0  1  0  0  0  0  0  0  0  0
   22.2043    9.9599    7.3278 H   0  0  0  1  0  0  0  0  0  0  0  0
   21.2828   11.4268    7.1001 H   0  0  0  1  0  0  0  0  0  0  0  0
   22.7018   11.4354    8.1202 H   0  0  0  1  0  0  0  0  0  0  0  0
   24.6025   11.2642    6.2823 C   0  0  0  1  0  0  0  0  0  0  0  0
   24.8541   11.9465    7.0672 H   0  0  0  1  0  0  0  0  0  0  0  0
   25.1335   11.5217    5.3897 H   0  0  0  1  0  0  0  0  0  0  0  0
   24.8537   10.2651    6.5717 H   0  0  0  1  0  0  0  0  0  0  0  0
   16.1596   -5.2348   -1.8787 C   0  0  0  1  0  0  0  0  0  0  0  0
   16.5363   -5.8073   -1.0569 H   0  0  0  1  0  0  0  0  0  0  0  0
   14.8355   -5.8262   -2.3448 C   0  0  0  1  0  0  0  0  0  0  0  0
   14.9890   -6.8275   -2.6894 H   0  0  0  1  0  0  0  0  0  0  0  0
   15.9570   -3.8819   -1.4636 O   0  0  0  1  0  0  0  0  0  0  0  0
   14.2942   -4.9633   -3.4889 C   0  0  0  1  0  0  0  0  0  0  0  0
   13.3042   -5.2916   -3.7279 H   0  0  0  1  0  0  0  0  0  0  0  0
   15.5762   -3.0281   -2.5537 C   0  0  0  1  0  0  0  0  0  0  0  0
   16.3259   -3.0699   -3.3160 H   0  0  0  1  0  0  0  0  0  0  0  0
   14.2451   -3.4884   -3.1290 C   0  0  0  1  0  0  0  0  0  0  0  0
   14.0280   -2.9198   -4.0091 H   0  0  0  1  0  0  0  0  0  0  0  0
   17.0970   -5.2672   -2.9498 O   0  0  0  1  0  0  0  0  0  0  0  0
   13.9028   -5.8320   -1.2625 O   0  0  0  1  0  0  0  0  0  0  0  0
   14.0865   -5.0935   -0.6772 H   0  0  0  1  0  0  0  0  0  0  0  0
   15.1348   -5.1284   -4.6215 O   0  0  0  1  0  0  0  0  0  0  0  0
   15.9830   -4.7108   -4.4547 H   0  0  0  1  0  0  0  0  0  0  0  0
   15.4417   -1.5995   -2.0521 C   0  0  0  1  0  0  0  0  0  0  0  0
   14.5691   -1.5171   -1.4383 H   0  0  0  1  0  0  0  0  0  0  0  0
   15.3545   -0.9355   -2.8866 H   0  0  0  1  0  0  0  0  0  0  0  0
   16.3069   -1.3403   -1.4783 H   0  0  0  1  0  0  0  0  0  0  0  0
   19.2277   -5.8271   -4.9157 C   0  0  0  1  0  0  0  0  0  0  0  0
   18.4651   -5.1401   -5.2179 H   0  0  0  1  0  0  0  0  0  0  0  0
   18.6364   -6.8310   -3.9300 C   0  0  0  1  0  0  0  0  0  0  0  0
   19.3733   -7.5685   -3.6895 H   0  0  0  1  0  0  0  0  0  0  0  0
   20.2949   -5.1057   -4.3137 O   0  0  0  1  0  0  0  0  0  0  0  0
   18.2048   -6.1110   -2.6542 C   0  0  0  1  0  0  0  0  0  0  0  0
   17.9154   -6.8380   -1.9244 H   0  0  0  1  0  0  0  0  0  0  0  0
   19.8869   -4.3368   -3.1713 C   0  0  0  1  0  0  0  0  0  0  0  0
   20.7297   -3.8048   -2.7818 H   0  0  0  1  0  0  0  0  0  0  0  0
   19.3313   -5.2683   -2.0920 C   0  0  0  1  0  0  0  0  0  0  0  0
   18.9608   -4.6824   -1.2769 H   0  0  0  1  0  0  0  0  0  0  0  0
   17.4786   -7.4789   -4.5353 N   0  0  0  1  0  0  0  0  0  0  0  0
   16.7183   -6.9392   -4.8368 H   0  0  0  1  0  0  0  0  0  0  0  0
   20.3755   -6.1267   -1.6269 O   0  0  0  1  0  0  0  0  0  0  0  0
   20.7842   -6.5056   -2.4086 H   0  0  0  1  0  0  0  0  0  0  0  0
   18.8234   -3.3596   -3.5821 C   0  0  0  1  0  0  0  0  0  0  0  0
   19.1143   -2.8795   -4.4931 H   0  0  0  1  0  0  0  0  0  0  0  0
   18.7002   -2.6244   -2.8145 H   0  0  0  1  0  0  0  0  0  0  0  0
   17.5943   -4.0453   -3.7811 O   0  0  0  1  0  0  0  0  0  0  0  0
   16.8780   -3.4153   -3.6730 H   0  0  0  1  0  0  0  0  0  0  0  0
   17.4520   -8.8200   -4.6810 C   0  0  0  1  0  0  0  0  0  0  0  0
   18.4572   -9.5176   -4.5544 O   0  0  0  1  0  0  0  0  0  0  0  0
   16.1296   -9.4236   -5.1122 C   0  0  0  1  0  0  0  0  0  0  0  0
   16.0859   -9.2441   -6.1661 H   0  0  0  1  0  0  0  0  0  0  0  0
   15.3139   -8.9442   -4.6125 H   0  0  0  1  0  0  0  0  0  0  0  0
   16.1075  -10.4733   -4.9059 H   0  0  0  1  0  0  0  0  0  0  0  0
  1  2  1  0  0  0  0
  1  3  1  0  0  0  0
  1  4  1  0  0  0  0
  1 44  1  0  0  0  0
  3 20  1  0  0  0  0
  4  5  1  0  0  0  0
  4  6  1  0  0  0  0
  4  8  1  0  0  0  0
  6  7  1  0  0  0  0
  8  9  1  0  0  0  0
  8 10  1  0  0  0  0
  8 20  1  0  0  0  0
 10 11  1  0  0  0  0
 12 13  1  0  0  0  0
 12 14  1  0  0  0  0
 12 15  1  0  0  0  0
 12 17  1  0  0  0  0
 15 16  1  0  0  0  0
 17 18  1  0  0  0  0
 17 19  1  0  0  0  0
 17 20  1  0  0  0  0
 19 22  1  0  0  0  0
 20 21  1  0  0  0  0
 22 23  1  0  0  0  0
 22 24  1  0  0  0  0
 22 25  1  0  0  0  0
 24 42  1  0  0  0  0
 25 26  1  0  0  0  0
 25 27  1  0  0  0  0
 25 29  1  0  0  0  0
 27 28  1  0  0  0  0
 29 30  1  0  0  0  0
 29 31  1  0  0  0  0
 29 42  1  0  0  0  0
 31 32  1  0  0  0  0
 33 34  1  0  0  0  0
 33 35  1  0  0  0  0
 33 36  1  0  0  0  0
 33 38  1  0  0  0  0
 36 37  1  0  0  0  0
 38 39  1  0  0  0  0
 38 40  1  0  0  0  0
 38 42  1  0  0  0  0
 40 41  1  0  0  0  0
 42 43  1  0  0  0  0
 44194  1  0  0  0  0
 45 46  1  0  0  0  0
 45 54  1  0  0  0  0
 46 47  1  0  0  0  0
 46 48  1  0  0  0  0
 46 49  2  0  0  0  0
 47 50  1  0  0  0  0
 50 51  1  0  0  0  0
 50 52  1  0  0  0  0
 50 53  2  0  0  0  0
 51205  1  0  0  0  0
 54 55  1  0  0  0  0
 54 56  1  0  0  0  0
 54 57  1  0  0  0  0
 57 58  1  0  0  0  0
 57 59  2  0  0  0  0
 59 60  1  0  0  0  0
 59 64  1  0  0  0  0
 60 61  1  0  0  0  0
 60 62  1  0  0  0  0
 60 63  1  0  0  0  0
 64 65  1  0  0  0  0
 64 66  1  0  0  0  0
 64 67  1  0  0  0  0
 67 68  1  0  0  0  0
 67 69  1  0  0  0  0
 67 70  1  0  0  0  0
 70 71  1  0  0  0  0
 70 72  2  0  0  0  0
 72 73  1  0  0  0  0
 72 77  1  0  0  0  0
 73 74  1  0  0  0  0
 73 75  1  0  0  0  0
 73 76  1  0  0  0  0
 77 78  1  0  0  0  0
 77 79  1  0  0  0  0
 77 80  1  0  0  0  0
 80 81  1  0  0  0  0
 80 82  1  0  0  0  0
 80 83  1  0  0  0  0
 83 84  1  0  0  0  0
 83 85  2  0  0  0  0
 85 86  1  0  0  0  0
 85 89  1  0  0  0  0
 86 87  1  0  0  0  0
 86 88  1  0  0  0  0
 86 93  1  0  0  0  0
 89 90  1  0  0  0  0
 89 91  1  0  0  0  0
 89 92  1  0  0  0  0
 93 94  1  0  0  0  0
 93 95  1  0  0  0  0
 93 96  1  0  0  0  0
 96 97  1  0  0  0  0
 96 98  2  0  0  0  0
 98 99  1  0  0  0  0
 98102  1  0  0  0  0
 99100  1  0  0  0  0
 99101  1  0  0  0  0
 99106  1  0  0  0  0
102103  1  0  0  0  0
102104  1  0  0  0  0
102105  1  0  0  0  0
106107  1  0  0  0  0
106108  1  0  0  0  0
106109  1  0  0  0  0
109110  1  0  0  0  0
109111  2  0  0  0  0
111112  1  0  0  0  0
111115  1  0  0  0  0
112113  1  0  0  0  0
112114  1  0  0  0  0
112119  1  0  0  0  0
115116  1  0  0  0  0
115117  1  0  0  0  0
115118  1  0  0  0  0
119120  1  0  0  0  0
119121  1  0  0  0  0
119122  1  0  0  0  0
122123  1  0  0  0  0
122124  2  0  0  0  0
124125  1  0  0  0  0
124128  1  0  0  0  0
125126  1  0  0  0  0
125127  1  0  0  0  0
125132  1  0  0  0  0
128129  1  0  0  0  0
128130  1  0  0  0  0
128131  1  0  0  0  0
132133  1  0  0  0  0
132134  1  0  0  0  0
132135  1  0  0  0  0
135136  1  0  0  0  0
135137  2  0  0  0  0
137138  1  0  0  0  0
137141  1  0  0  0  0
138139  1  0  0  0  0
138140  1  0  0  0  0
138145  1  0  0  0  0
141142  1  0  0  0  0
141143  1  0  0  0  0
141144  1  0  0  0  0
145146  1  0  0  0  0
145147  1  0  0  0  0
145148  1  0  0  0  0
148149  1  0  0  0  0
148150  2  0  0  0  0
150151  1  0  0  0  0
150154  1  0  0  0  0
151152  1  0  0  0  0
151153  1  0  0  0  0
151158  1  0  0  0  0
154155  1  0  0  0  0
154156  1  0  0  0  0
154157  1  0  0  0  0
158159  1  0  0  0  0
158160  1  0  0  0  0
158161  1  0  0  0  0
161162  1  0  0  0  0
161163  2  0  0  0  0
163164  1  0  0  0  0
163167  1  0  0  0  0
164165  1  0  0  0  0
164166  1  0  0  0  0
164171  1  0  0  0  0
167168  1  0  0  0  0
167169  1  0  0  0  0
167170  1  0  0  0  0
171172  1  0  0  0  0
171173  1  0  0  0  0
171174  1  0  0  0  0
174175  1  0  0  0  0
174176  2  0  0  0  0
176177  1  0  0  0  0
176181  1  0  0  0  0
177178  1  0  0  0  0
177179  1  0  0  0  0
177180  1  0  0  0  0
181182  1  0  0  0  0
181183  1  0  0  0  0
181184  1  0  0  0  0
185186  1  0  0  0  0
185187  1  0  0  0  0
185189  1  0  0  0  0
185196  1  0  0  0  0
187188  1  0  0  0  0
187190  1  0  0  0  0
187197  1  0  0  0  0
189192  1  0  0  0  0
190191  1  0  0  0  0
190194  1  0  0  0  0
190199  1  0  0  0  0
192193  1  0  0  0  0
192194  1  0  0  0  0
192201  1  0  0  0  0
194195  1  0  0  0  0
196210  1  0  0  0  0
197198  1  0  0  0  0
199200  1  0  0  0  0
201202  1  0  0  0  0
201203  1  0  0  0  0
201204  1  0  0  0  0
205206  1  0  0  0  0
205207  1  0  0  0  0
205209  1  0  0  0  0
207208  1  0  0  0  0
207210  1  0  0  0  0
207216  1  0  0  0  0
209212  1  0  0  0  0
210211  1  0  0  0  0
210214  1  0  0  0  0
212213  1  0  0  0  0
212214  1  0  0  0  0
212220  1  0  0  0  0
214215  1  0  0  0  0
214218  1  0  0  0  0
216217  1  0  0  0  0
216225  1  0  0  0  0
218219  1  0  0  0  0
220221  1  0  0  0  0
220222  1  0  0  0  0
220223  1  0  0  0  0
223224  1  0  0  0  0
225226  2  0  0  0  0
225227  1  0  0  0  0
227228  1  0  0  0  0
227229  1  0  0  0  0
227230  1  0  0  0  0
M  BCL ATM C_TeTeTeTe H_S O_Te2Te2TeTe C_TeTeTeTe H_S O_Te2Te2TeTe H_S C_TeTeTeTe H_S O_Te2Te2TeTe H_S C_TeTeTeTe H_S H_S O_Te2Te2TeTe H_S C_TeTeTeTe H_S O_Te2Te2TeTe C_TeTeTeTe H_S C_TeTeTeTe H_S O_Te2Te2TeTe C_TeTeTeTe H_S O_Te2Te2TeTe H_S C_TeTeTeTe H_S O_Te2Te2TeTe H_S C_TeTeTeTe H_S H_S O_Te2Te2TeTe H_S C_TeTeTeTe H_S O_Te2Te2TeTe H_S C_TeTeTeTe H_S O_Te2Te2TeTe O_Tr2TrTrPi2 P_TeTeTeTePi O_Tr2TrTrPi2 O_Te2Te2TeTe O_Tr2Tr2TrPi P_TeTeTeTePi O_Tr2TrTrPi2 O_Te2Te2TeTe O_Tr2Tr2TrPi C_TeTeTeTe H_S H_S C_TrTrTrPi H_S C_TrTrTrPi C_TeTeTeTe H_S H_S H_S C_TeTeTeTe H_S H_S C_TeTeTeTe H_S H_S C_TrTrTrPi H_S C_TrTrTrPi C_TeTeTeTe H_S H_S H_S C_TeTeTeTe H_S H_S C_TeTeTeTe H_S H_S C_TrTrTrPi H_S C_TrTrTrPi C_TeTeTeTe H_S H_S C_TeTeTeTe H_S H_S H_S C_TeTeTeTe H_S H_S C_TrTrTrPi H_S C_TrTrTrPi C_TeTeTeTe H_S H_S C_TeTeTeTe H_S H_S H_S C_TeTeTeTe H_S H_S C_TrTrTrPi H_S C_TrTrTrPi C_TeTeTeTe H_S H_S C_TeTeTeTe H_S H_S H_S C_TeTeTeTe H_S H_S C_TrTrTrPi H_S C_TrTrTrPi C_TeTeTeTe H_S H_S C_TeTeTeTe H_S H_S H_S C_TeTeTeTe H_S H_S C_TrTrTrPi H_S C_TrTrTrPi C_TeTeTeTe H_S H_S C_TeTeTeTe H_S H_S H_S C_TeTeTeTe H_S H_S C_TrTrTrPi H_S C_TrTrTrPi C_TeTeTeTe H_S H_S C_TeTeTeTe H_S H_S H_S C_TeTeTeTe H_S H_S C_TrTrTrPi H_S C_TrTrTrPi C_TeTeTeTe H_S H_S C_TeTeTeTe H_S H_S H_S C_TeTeTeTe H_S H_S C_TrTrTrPi H_S C_TrTrTrPi C_TeTeTeTe H_S H_S H_S C_TeTeTeTe H_S H_S H_S C_TeTeTeTe H_S C_TeTeTeTe H_S O_Te2Te2TeTe C_TeTeTeTe H_S C_TeTeTeTe H_S C_TeTeTeTe H_S O_Te2Te2TeTe O_Te2Te2TeTe H_S O_Te2Te2TeTe H_S C_TeTeTeTe H_S H_S H_S C_TeTeTeTe H_S C_TeTeTeTe H_S O_Te2Te2TeTe C_TeTeTeTe H_S C_TeTeTeTe H_S C_TeTeTeTe H_S N_TrTrTrPi2 H_S O_Te2Te2TeTe H_S C_TeTeTeTe H_S H_S O_Te2Te2TeTe H_S C_TrTrTrPi O_Tr2Tr2TrPi C_TeTeTeTe H_S H_S H_S
M  BCL BND NonConjugatedSingleBond NonConjugatedSingleBondInRing NonConjugatedSingleBondInRing NonConjugatedSingleBond NonConjugatedSingleBondInRing NonConjugatedSingleBond NonConjugatedSingleBond NonConjugatedSingleBondInRing NonConjugatedSingleBond NonConjugatedSingleBond NonConjugatedSingleBond NonConjugatedSingleBondInRing NonConjugatedSingleBond NonConjugatedSingleBond NonConjugatedSingleBond NonConjugatedSingleBond NonConjugatedSingleBond NonConjugatedSingleBond NonConjugatedSingleBond NonConjugatedSingleBond NonConjugatedSingleBond NonConjugatedSingleBond NonConjugatedSingleBond NonConjugatedSingleBond NonConjugatedSingleBondInRing NonConjugatedSingleBondInRing NonConjugatedSingleBondInRing NonConjugatedSingleBond NonConjugatedSingleBond NonConjugatedSingleBondInRing NonConjugatedSingleBond NonConjugatedSingleBond NonConjugatedSingleBond NonConjugatedSingleBondInRing NonConjugatedSingleBond NonConjugatedSingleBond NonConjugatedSingleBond NonConjugatedSingleBond NonConjugatedSingleBond NonConjugatedSingleBond NonConjugatedSingleBond NonConjugatedSingleBond NonConjugatedSingleBond NonConjugatedSingleBond NonConjugatedSingleBond NonConjugatedSingleBond ConjugatedSingleBond NonConjugatedSingleBond ConjugatedSingleBond ConjugatedSingleBond ConjugatedDoubleBond ConjugatedSingleBond ConjugatedSingleBond ConjugatedSingleBond ConjugatedDoubleBond NonConjugatedSingleBond NonConjugatedSingleBond NonConjugatedSingleBond NonConjugatedSingleBond NonConjugatedSingleBond ConjugatedDoubleBond NonConjugatedSingleBond NonConjugatedSingleBond NonConjugatedSingleBond NonConjugatedSingleBond NonConjugatedSingleBond NonConjugatedSingleBond NonConjugatedSingleBond NonConjugatedSingleBond NonConjugatedSingleBond NonConjugatedSingleBond NonConjugatedSingleBond NonConjugatedSingleBond ConjugatedDoubleBond NonConjugatedSingleBond NonConjugatedSingleBond NonConjugatedSingleBond NonConjugatedSingleBond NonConjugatedSingleBond NonConjugatedSingleBond NonConjugatedSingleBond NonConjugatedSingleBond NonConjugatedSingleBond NonConjugatedSingleBond NonConjugatedSingleBond NonConjugatedSingleBond ConjugatedDoubleBond NonConjugatedSingleBond NonConjugatedSingleBond NonConjugatedSingleBond NonConjugatedSingleBond NonConjugatedSingleBond NonConjugatedSingleBond NonConjugatedSingleBond NonConjugatedSingleBond NonConjugatedSingleBond NonConjugatedSingleBond NonConjugatedSingleBond NonConjugatedSingleBond ConjugatedDoubleBond NonConjugatedSingleBond NonConjugatedSingleBond NonConjugatedSingleBond NonConjugatedSingleBond NonConjugatedSingleBond NonConjugatedSingleBond NonConjugatedSingleBond NonConjugatedSingleBond NonConjugatedSingleBond NonConjugatedSingleBond NonConjugatedSingleBond NonConjugatedSingleBond ConjugatedDoubleBond NonConjugatedSingleBond NonConjugatedSingleBond NonConjugatedSingleBond NonConjugatedSingleBond NonConjugatedSingleBond NonConjugatedSingleBond NonConjugatedSingleBond NonConjugatedSingleBond NonConjugatedSingleBond NonConjugatedSingleBond NonConjugatedSingleBond NonConjugatedSingleBond ConjugatedDoubleBond NonConjugatedSingleBond NonConjugatedSingleBond NonConjugatedSingleBond NonConjugatedSingleBond NonConjugatedSingleBond NonConjugatedSingleBond NonConjugatedSingleBond NonConjugatedSingleBond NonConjugatedSingleBond NonConjugatedSingleBond NonConjugatedSingleBond NonConjugatedSingleBond ConjugatedDoubleBond NonConjugatedSingleBond NonConjugatedSingleBond NonConjugatedSingleBond NonConjugatedSingleBond NonConjugatedSingleBond NonConjugatedSingleBond NonConjugatedSingleBond NonConjugatedSingleBond NonConjugatedSingleBond NonConjugatedSingleBond NonConjugatedSingleBond NonConjugatedSingleBond ConjugatedDoubleBond NonConjugatedSingleBond NonConjugatedSingleBond NonConjugatedSingleBond NonConjugatedSingleBond NonConjugatedSingleBond NonConjugatedSingleBond NonConjugatedSingleBond NonConjugatedSingleBond NonConjugatedSingleBond NonConjugatedSingleBond NonConjugatedSingleBond NonConjugatedSingleBond ConjugatedDoubleBond NonConjugatedSingleBond NonConjugatedSingleBond NonConjugatedSingleBond NonConjugatedSingleBond NonConjugatedSingleBond NonConjugatedSingleBond NonConjugatedSingleBond NonConjugatedSingleBond NonConjugatedSingleBond NonConjugatedSingleBond NonConjugatedSingleBond NonConjugatedSingleBond ConjugatedDoubleBond NonConjugatedSingleBond NonConjugatedSingleBond NonConjugatedSingleBond NonConjugatedSingleBond NonConjugatedSingleBond NonConjugatedSingleBond NonConjugatedSingleBond NonConjugatedSingleBond NonConjugatedSingleBond NonConjugatedSingleBondInRing NonConjugatedSingleBondInRing NonConjugatedSingleBond NonConjugatedSingleBond NonConjugatedSingleBondInRing NonConjugatedSingleBond NonConjugatedSingleBondInRing NonConjugatedSingleBond NonConjugatedSingleBondInRing NonConjugatedSingleBond NonConjugatedSingleBond NonConjugatedSingleBondInRing NonConjugatedSingleBond NonConjugatedSingleBond NonConjugatedSingleBond NonConjugatedSingleBond NonConjugatedSingleBond NonConjugatedSingleBond NonConjugatedSingleBond NonConjugatedSingleBond NonConjugatedSingleBond NonConjugatedSingleBondInRing NonConjugatedSingleBondInRing NonConjugatedSingleBond NonConjugatedSingleBondInRing NonConjugatedSingleBond NonConjugatedSingleBondInRing NonConjugatedSingleBond NonConjugatedSingleBondInRing NonConjugatedSingleBond NonConjugatedSingleBondInRing NonConjugatedSingleBond NonConjugatedSingleBond NonConjugatedSingleBond NonConjugatedSingleBond AmideSingleBond NonConjugatedSingleBond NonConjugatedSingleBond NonConjugatedSingleBond NonConjugatedSingleBond NonConjugatedSingleBond ConjugatedDoubleBond NonConjugatedSingleBond NonConjugatedSingleBond NonConjugatedSingleBond NonConjugatedSingleBond
M  BCL CHI   1   R   4   R   8   R  17   S  20   R  22   S  25   R  29   S  38   S  42   R  46   R  50   S 185   R 187   S 190   S 192   R 194   R 205   R 207   S 210   R 212   S 214   S
M  BCL DBI - - E E E E E E E E Z - -
M  END
> <ConfClashScore>
0.0190286 

> <ConfOneFourInteractionScore>
-0.971134 

> <ConfScore>
2.03927 

> <ConfScorePBest>
0.00654947 

> <ConfTolerance>
4.04257 

$$$$
L05.****
  PyMOL2.5          3D                             0

230233  0  0  0  0  0  0  0  0999 V2000
   12.3681   -2.4079   -3.1936 C   0  0  0  1  0  0  0  0  0  0  0  0
   11.9261   -3.0038   -3.9646 H   0  0  0  1  0  0  0  0  0  0  0  0
   13.0070   -1.2777   -3.7490 O   0  0  0  1  0  0  0  0  0  0  0  0
   11.2971   -1.8562   -2.2702 C   0  0  0  1  0  0  0  0  0  0  0  0
   11.0899   -2.5343   -1.4689 H   0  0  0  1  0  0  0  0  0  0  0  0
   10.0914   -1.5794   -2.9844 O   0  0  0  1  0  0  0  0  0  0  0  0
   10.2777   -1.5420   -3.9254 H   0  0  0  1  0  0  0  0  0  0  0  0
   11.9325   -0.5882   -1.7610 C   0  0  0  1  0  0  0  0  0  0  0  0
   11.1953    0.1082   -1.4196 H   0  0  0  1  0  0  0  0  0  0  0  0
   12.8597   -0.8563   -0.7071 O   0  0  0  1  0  0  0  0  0  0  0  0
   12.4015   -0.8336    0.1362 H   0  0  0  1  0  0  0  0  0  0  0  0
   12.3563    1.2208   -5.1553 C   0  0  0  1  0  0  0  0  0  0  0  0
   11.6240    1.7269   -5.7492 H   0  0  0  1  0  0  0  0  0  0  0  0
   13.1657    1.8873   -4.9420 H   0  0  0  1  0  0  0  0  0  0  0  0
   12.8584    0.1154   -5.8946 O   0  0  0  1  0  0  0  0  0  0  0  0
   12.1597   -0.5312   -6.0185 H   0  0  0  1  0  0  0  0  0  0  0  0
   11.7120    0.7974   -3.8406 C   0  0  0  1  0  0  0  0  0  0  0  0
   10.8521    0.2082   -4.0823 H   0  0  0  1  0  0  0  0  0  0  0  0
   11.2909    1.9261   -3.0835 O   0  0  0  1  0  0  0  0  0  0  0  0
   12.6441   -0.0777   -3.0132 C   0  0  0  1  0  0  0  0  0  0  0  0
   13.5176    0.4809   -2.7490 H   0  0  0  1  0  0  0  0  0  0  0  0
   10.0515    1.8056   -2.4140 C   0  0  0  1  0  0  0  0  0  0  0  0
   10.0642    0.9343   -1.7931 H   0  0  0  1  0  0  0  0  0  0  0  0
    9.7833    2.9798   -1.6319 O   0  0  0  1  0  0  0  0  0  0  0  0
    8.9241    1.7349   -3.3995 C   0  0  0  1  0  0  0  0  0  0  0  0
    8.7633    0.7295   -3.7284 H   0  0  0  1  0  0  0  0  0  0  0  0
    9.1765    2.5716   -4.5293 O   0  0  0  1  0  0  0  0  0  0  0  0
    9.7513    2.1125   -5.1461 H   0  0  0  1  0  0  0  0  0  0  0  0
    7.7420    2.2419   -2.5998 C   0  0  0  1  0  0  0  0  0  0  0  0
    7.1777    1.4235   -2.2038 H   0  0  0  1  0  0  0  0  0  0  0  0
    6.8983    3.0518   -3.4133 O   0  0  0  1  0  0  0  0  0  0  0  0
    6.2147    2.5060   -3.8089 H   0  0  0  1  0  0  0  0  0  0  0  0
    8.1104    0.9895   -0.0458 C   0  0  0  1  0  0  0  0  0  0  0  0
    8.9339    0.6806   -0.6552 H   0  0  0  1  0  0  0  0  0  0  0  0
    8.2914    0.7054    0.9698 H   0  0  0  1  0  0  0  0  0  0  0  0
    6.9106    0.3883   -0.5111 O   0  0  0  1  0  0  0  0  0  0  0  0
    7.1149   -0.4484   -0.9351 H   0  0  0  1  0  0  0  0  0  0  0  0
    7.9319    2.4985   -0.1394 C   0  0  0  1  0  0  0  0  0  0  0  0
    8.5418    2.9521    0.6137 H   0  0  0  1  0  0  0  0  0  0  0  0
    6.5603    2.7681    0.1383 O   0  0  0  1  0  0  0  0  0  0  0  0
    6.4243    2.7916    1.0883 H   0  0  0  1  0  0  0  0  0  0  0  0
    8.3465    3.0620   -1.4796 C   0  0  0  1  0  0  0  0  0  0  0  0
    8.0257    4.0801   -1.5537 H   0  0  0  1  0  0  0  0  0  0  0  0
   13.3000   -3.1954   -2.4597 O   0  0  0  1  0  0  0  0  0  0  0  0
   16.4355  -10.4882   -2.4764 O   0  0  0  1  0  0  0  0  0  0  0  0
   17.3795   -9.2030   -2.3532 P   0  0  0  1  0  0  0  0  0  0  0  0
   18.8534   -9.8320   -2.5884 O   0  0  0  1  0  0  0  0  0  0  0  0
   17.2503   -8.7282   -0.9640 O   0  0  0  0  0  0  0  0  0  0  0  0
   17.1876   -8.3018   -3.4999 O   0  0  0  1  0  0  0  0  0  0  0  0
   20.3411   -9.3239   -2.5730 P   0  0  0  1  0  0  0  0  0  0  0  0
   20.3506   -7.9444   -1.8159 O   0  0  0  1  0  0  0  0  0  0  0  0
   20.7158   -9.1056   -4.0079 O   0  0  0  0  0  0  0  0  0  0  0  0
   21.2245  -10.2331   -1.8198 O   0  0  0  1  0  0  0  0  0  0  0  0
   15.0195  -10.3208   -2.3046 C   0  0  0  1  0  0  0  0  0  0  0  0
   14.7008   -9.4693   -2.8687 H   0  0  0  1  0  0  0  0  0  0  0  0
   14.8136  -10.1593   -1.2671 H   0  0  0  1  0  0  0  0  0  0  0  0
   14.2540  -11.5247   -2.7693 C   0  0  0  1  0  0  0  0  0  0  0  0
   14.7783  -12.4164   -2.8767 H   0  0  0  1  0  0  0  0  0  0  0  0
   12.9572  -11.5365   -3.0537 C   0  0  0  1  0  0  0  0  0  0  0  0
   12.1998  -12.8252   -3.1907 C   0  0  0  1  0  0  0  0  0  0  0  0
   12.8838  -13.6212   -3.3989 H   0  0  0  1  0  0  0  0  0  0  0  0
   11.4958  -12.7415   -3.9922 H   0  0  0  1  0  0  0  0  0  0  0  0
   11.6797  -13.0316   -2.2786 H   0  0  0  1  0  0  0  0  0  0  0  0
   12.1330  -10.2974   -3.2629 C   0  0  0  1  0  0  0  0  0  0  0  0
   12.2954   -9.9446   -4.2599 H   0  0  0  1  0  0  0  0  0  0  0  0
   12.4535   -9.5532   -2.5640 H   0  0  0  1  0  0  0  0  0  0  0  0
   10.6439  -10.5331   -3.0696 C   0  0  0  1  0  0  0  0  0  0  0  0
   10.4687  -10.7813   -2.0437 H   0  0  0  1  0  0  0  0  0  0  0  0
   10.3452  -11.3514   -3.6910 H   0  0  0  1  0  0  0  0  0  0  0  0
    9.8070   -9.3342   -3.4218 C   0  0  0  1  0  0  0  0  0  0  0  0
   10.2989   -8.4957   -3.7915 H   0  0  0  1  0  0  0  0  0  0  0  0
    8.4860   -9.2663   -3.2960 C   0  0  0  1  0  0  0  0  0  0  0  0
    7.6754   -8.0535   -3.6563 C   0  0  0  1  0  0  0  0  0  0  0  0
    6.8597   -7.9527   -2.9712 H   0  0  0  1  0  0  0  0  0  0  0  0
    7.2947   -8.1618   -4.6504 H   0  0  0  1  0  0  0  0  0  0  0  0
    8.2946   -7.1825   -3.6038 H   0  0  0  1  0  0  0  0  0  0  0  0
    7.6867  -10.4230   -2.7723 C   0  0  0  1  0  0  0  0  0  0  0  0
    8.3193  -11.0436   -2.1727 H   0  0  0  1  0  0  0  0  0  0  0  0
    7.3082  -10.9898   -3.5971 H   0  0  0  1  0  0  0  0  0  0  0  0
    6.5218   -9.9344   -1.9269 C   0  0  0  1  0  0  0  0  0  0  0  0
    5.9028   -9.3049   -2.5314 H   0  0  0  1  0  0  0  0  0  0  0  0
    6.9105   -9.3700   -1.1051 H   0  0  0  1  0  0  0  0  0  0  0  0
    5.6971  -11.0297   -1.3942 C   0  0  0  1  0  0  0  0  0  0  0  0
    4.8133  -11.1577   -1.9273 H   0  0  0  1  0  0  0  0  0  0  0  0
    5.8159  -11.8941   -0.3921 C   0  0  0  1  0  0  0  0  0  0  0  0
    6.9928  -11.9333    0.5389 C   0  0  0  1  0  0  0  0  0  0  0  0
    7.8659  -11.6348   -0.0030 H   0  0  0  1  0  0  0  0  0  0  0  0
    7.1161  -12.9365    0.8900 H   0  0  0  1  0  0  0  0  0  0  0  0
    4.7558  -12.9211   -0.1096 C   0  0  0  1  0  0  0  0  0  0  0  0
    4.9672  -13.8136   -0.6607 H   0  0  0  1  0  0  0  0  0  0  0  0
    3.8011  -12.5381   -0.4040 H   0  0  0  1  0  0  0  0  0  0  0  0
    4.7444  -13.1429    0.9371 H   0  0  0  1  0  0  0  0  0  0  0  0
    6.8323  -11.0165    1.7405 C   0  0  0  1  0  0  0  0  0  0  0  0
    6.0126  -11.3879    2.3193 H   0  0  0  1  0  0  0  0  0  0  0  0
    6.5948  -10.0413    1.3697 H   0  0  0  1  0  0  0  0  0  0  0  0
    8.0082  -10.8716    2.6669 C   0  0  0  1  0  0  0  0  0  0  0  0
    8.4984  -11.7401    2.9617 H   0  0  0  1  0  0  0  0  0  0  0  0
    8.4615   -9.7315    3.1308 C   0  0  0  1  0  0  0  0  0  0  0  0
    7.8068   -8.4337    2.7505 C   0  0  0  1  0  0  0  0  0  0  0  0
    7.9647   -7.7192    3.5312 H   0  0  0  1  0  0  0  0  0  0  0  0
    6.7570   -8.5951    2.6210 H   0  0  0  1  0  0  0  0  0  0  0  0
    9.6930   -9.6068    3.9786 C   0  0  0  1  0  0  0  0  0  0  0  0
   10.5306  -10.0175    3.4545 H   0  0  0  1  0  0  0  0  0  0  0  0
    9.5500  -10.1398    4.8954 H   0  0  0  1  0  0  0  0  0  0  0  0
    9.8767   -8.5743    4.1907 H   0  0  0  1  0  0  0  0  0  0  0  0
    8.3916   -7.8942    1.4554 C   0  0  0  1  0  0  0  0  0  0  0  0
    8.1028   -8.5530    0.6632 H   0  0  0  1  0  0  0  0  0  0  0  0
    9.4575   -7.8942    1.5493 H   0  0  0  1  0  0  0  0  0  0  0  0
    7.9587   -6.5029    1.0829 C   0  0  0  1  0  0  0  0  0  0  0  0
    6.9372   -6.3140    1.0327 H   0  0  0  1  0  0  0  0  0  0  0  0
    8.7839   -5.4971    0.8131 C   0  0  0  1  0  0  0  0  0  0  0  0
   10.2473   -5.5077    1.1477 C   0  0  0  1  0  0  0  0  0  0  0  0
   10.6973   -4.6531    0.6873 H   0  0  0  1  0  0  0  0  0  0  0  0
   10.6731   -6.3998    0.7382 H   0  0  0  1  0  0  0  0  0  0  0  0
    8.3023   -4.2444    0.1368 C   0  0  0  1  0  0  0  0  0  0  0  0
    7.9635   -3.5477    0.8749 H   0  0  0  1  0  0  0  0  0  0  0  0
    7.4956   -4.4838   -0.5241 H   0  0  0  1  0  0  0  0  0  0  0  0
    9.1048   -3.8098   -0.4217 H   0  0  0  1  0  0  0  0  0  0  0  0
   10.5767   -5.4690    2.6311 C   0  0  0  1  0  0  0  0  0  0  0  0
   10.2819   -6.3994    3.0698 H   0  0  0  1  0  0  0  0  0  0  0  0
   10.0248   -4.6708    3.0818 H   0  0  0  1  0  0  0  0  0  0  0  0
   12.0411   -5.2531    2.9045 C   0  0  0  1  0  0  0  0  0  0  0  0
   12.6186   -4.9246    2.1043 H   0  0  0  1  0  0  0  0  0  0  0  0
   12.6767   -5.4368    4.0584 C   0  0  0  1  0  0  0  0  0  0  0  0
   12.1408   -6.1902    5.2409 C   0  0  0  1  0  0  0  0  0  0  0  0
   11.1751   -6.5823    4.9988 H   0  0  0  1  0  0  0  0  0  0  0  0
   12.0570   -5.5231    6.0733 H   0  0  0  1  0  0  0  0  0  0  0  0
   14.0500   -4.8599    4.2409 C   0  0  0  1  0  0  0  0  0  0  0  0
   13.9973   -3.7921    4.1990 H   0  0  0  1  0  0  0  0  0  0  0  0
   14.6924   -5.2159    3.4628 H   0  0  0  1  0  0  0  0  0  0  0  0
   14.4394   -5.1606    5.1911 H   0  0  0  1  0  0  0  0  0  0  0  0
   13.0656   -7.3377    5.6130 C   0  0  0  1  0  0  0  0  0  0  0  0
   14.0172   -6.9328    5.8877 H   0  0  0  1  0  0  0  0  0  0  0  0
   13.1806   -7.9729    4.7597 H   0  0  0  1  0  0  0  0  0  0  0  0
   12.5510   -8.1592    6.7521 C   0  0  0  1  0  0  0  0  0  0  0  0
   11.6792   -8.6989    6.5778 H   0  0  0  1  0  0  0  0  0  0  0  0
   13.0864   -8.2741    7.9616 C   0  0  0  1  0  0  0  0  0  0  0  0
   14.4921   -7.8263    8.2388 C   0  0  0  1  0  0  0  0  0  0  0  0
   14.8260   -8.3186    9.1283 H   0  0  0  1  0  0  0  0  0  0  0  0
   14.4757   -6.7688    8.4006 H   0  0  0  1  0  0  0  0  0  0  0  0
   12.3638   -8.8480    9.1478 C   0  0  0  1  0  0  0  0  0  0  0  0
   11.4450   -9.2919    8.8258 H   0  0  0  1  0  0  0  0  0  0  0  0
   12.1558   -8.0679    9.8501 H   0  0  0  1  0  0  0  0  0  0  0  0
   12.9760   -9.5927    9.6120 H   0  0  0  1  0  0  0  0  0  0  0  0
   15.4977   -8.1167    7.1366 C   0  0  0  1  0  0  0  0  0  0  0  0
   15.2447   -7.5265    6.2807 H   0  0  0  1  0  0  0  0  0  0  0  0
   15.4371   -9.1549    6.8852 H   0  0  0  1  0  0  0  0  0  0  0  0
   16.9139   -7.8020    7.5334 C   0  0  0  1  0  0  0  0  0  0  0  0
   17.2220   -6.8106    7.4715 H   0  0  0  1  0  0  0  0  0  0  0  0
   17.8000   -8.6955    7.9567 C   0  0  0  1  0  0  0  0  0  0  0  0
   17.4644  -10.1586    8.0215 C   0  0  0  1  0  0  0  0  0  0  0  0
   18.0650  -10.6674    7.2967 H   0  0  0  1  0  0  0  0  0  0  0  0
   16.4303  -10.2715    7.7711 H   0  0  0  1  0  0  0  0  0  0  0  0
   19.1906   -8.3498    8.4026 C   0  0  0  1  0  0  0  0  0  0  0  0
   19.2019   -7.3559    8.7987 H   0  0  0  1  0  0  0  0  0  0  0  0
   19.8574   -8.4085    7.5679 H   0  0  0  1  0  0  0  0  0  0  0  0
   19.5038   -9.0386    9.1591 H   0  0  0  1  0  0  0  0  0  0  0  0
   17.6953  -10.8209    9.3700 C   0  0  0  1  0  0  0  0  0  0  0  0
   18.7318  -10.7317    9.6202 H   0  0  0  1  0  0  0  0  0  0  0  0
   17.4349  -11.8557    9.2902 H   0  0  0  1  0  0  0  0  0  0  0  0
   16.8814  -10.2062   10.4753 C   0  0  0  1  0  0  0  0  0  0  0  0
   17.3955   -9.8044   11.2852 H   0  0  0  1  0  0  0  0  0  0  0  0
   15.5619  -10.1387   10.4942 C   0  0  0  1  0  0  0  0  0  0  0  0
   14.8290   -9.5056   11.6411 C   0  0  0  1  0  0  0  0  0  0  0  0
   15.5468   -9.2579   12.3950 H   0  0  0  1  0  0  0  0  0  0  0  0
   14.1379  -10.2247   12.0284 H   0  0  0  1  0  0  0  0  0  0  0  0
   14.6789  -10.6726    9.4016 C   0  0  0  1  0  0  0  0  0  0  0  0
   13.7493  -10.9095    9.8754 H   0  0  0  1  0  0  0  0  0  0  0  0
   15.1110  -11.5496    8.9668 H   0  0  0  1  0  0  0  0  0  0  0  0
   14.5338   -9.9322    8.6429 H   0  0  0  1  0  0  0  0  0  0  0  0
   14.0520   -8.2442   11.3010 C   0  0  0  1  0  0  0  0  0  0  0  0
   13.2239   -8.5118   10.6785 H   0  0  0  1  0  0  0  0  0  0  0  0
   14.6989   -7.5789   10.7684 H   0  0  0  1  0  0  0  0  0  0  0  0
   13.5294   -7.5343   12.5094 C   0  0  0  1  0  0  0  0  0  0  0  0
   14.2107   -7.3601   13.2756 H   0  0  0  1  0  0  0  0  0  0  0  0
   12.2891   -7.1021   12.7101 C   0  0  0  1  0  0  0  0  0  0  0  0
   11.9338   -6.0105   13.6772 C   0  0  0  1  0  0  0  0  0  0  0  0
   10.9470   -6.1763   14.0562 H   0  0  0  1  0  0  0  0  0  0  0  0
   11.9692   -5.0654   13.1767 H   0  0  0  1  0  0  0  0  0  0  0  0
   12.6318   -6.0115   14.4881 H   0  0  0  1  0  0  0  0  0  0  0  0
   11.1170   -7.6905   11.9630 C   0  0  0  1  0  0  0  0  0  0  0  0
   11.3627   -7.6771   10.9217 H   0  0  0  1  0  0  0  0  0  0  0  0
   10.2393   -7.1043   12.1392 H   0  0  0  1  0  0  0  0  0  0  0  0
   10.9454   -8.6963   12.2854 H   0  0  0  1  0  0  0  0  0  0  0  0
   16.0628   -5.0311   -1.4828 C   0  0  0  1  0  0  0  0  0  0  0  0
   16.2370   -5.5175   -0.5458 H   0  0  0  1  0  0  0  0  0  0  0  0
   14.8792   -5.6741   -2.1562 C   0  0  0  1  0  0  0  0  0  0  0  0
   15.1062   -6.6984   -2.3664 H   0  0  0  1  0  0  0  0  0  0  0  0
   15.8372   -3.6488   -1.2511 O   0  0  0  1  0  0  0  0  0  0  0  0
   14.5603   -4.9605   -3.4461 C   0  0  0  1  0  0  0  0  0  0  0  0
   13.6252   -5.3180   -3.8239 H   0  0  0  1  0  0  0  0  0  0  0  0
   15.6755   -2.9325   -2.4729 C   0  0  0  1  0  0  0  0  0  0  0  0
   16.5505   -3.0548   -3.0764 H   0  0  0  1  0  0  0  0  0  0  0  0
   14.4667   -3.4706   -3.2189 C   0  0  0  1  0  0  0  0  0  0  0  0
   14.3996   -2.9801   -4.1674 H   0  0  0  1  0  0  0  0  0  0  0  0
   17.2069   -5.1804   -2.3154 O   0  0  0  1  0  0  0  0  0  0  0  0
   13.7474   -5.6051   -1.2870 O   0  0  0  1  0  0  0  0  0  0  0  0
   13.1783   -6.3626   -1.4412 H   0  0  0  1  0  0  0  0  0  0  0  0
   15.5861   -5.2249   -4.3919 O   0  0  0  1  0  0  0  0  0  0  0  0
   15.1961   -5.3566   -5.2592 H   0  0  0  1  0  0  0  0  0  0  0  0
   15.4705   -1.4672   -2.1736 C   0  0  0  1  0  0  0  0  0  0  0  0
   16.4106   -0.9583   -2.2199 H   0  0  0  1  0  0  0  0  0  0  0  0
   15.0542   -1.3583   -1.1940 H   0  0  0  1  0  0  0  0  0  0  0  0
   14.8015   -1.0463   -2.8949 H   0  0  0  1  0  0  0  0  0  0  0  0
   19.6184   -6.8256   -2.3220 C   0  0  0  1  0  0  0  0  0  0  0  0
   18.7781   -7.1739   -2.8853 H   0  0  0  1  0  0  0  0  0  0  0  0
   19.1378   -5.9797   -1.1746 C   0  0  0  1  0  0  0  0  0  0  0  0
   19.9762   -5.6697   -0.5865 H   0  0  0  1  0  0  0  0  0  0  0  0
   20.4576   -6.0507   -3.1565 O   0  0  0  1  0  0  0  0  0  0  0  0
   18.4225   -4.7687   -1.6993 C   0  0  0  1  0  0  0  0  0  0  0  0
   18.2046   -4.1127   -0.8825 H   0  0  0  1  0  0  0  0  0  0  0  0
   19.7270   -4.9865   -3.7919 C   0  0  0  1  0  0  0  0  0  0  0  0
   20.3617   -4.4737   -4.4840 H   0  0  0  1  0  0  0  0  0  0  0  0
   19.2607   -4.0272   -2.7143 C   0  0  0  1  0  0  0  0  0  0  0  0
   18.6750   -3.2502   -3.1594 H   0  0  0  1  0  0  0  0  0  0  0  0
   18.2224   -6.7624   -0.3450 N   0  0  0  1  0  0  0  0  0  0  0  0
   17.2894   -6.8568   -0.6297 H   0  0  0  1  0  0  0  0  0  0  0  0
   20.3980   -3.4546   -2.0637 O   0  0  0  1  0  0  0  0  0  0  0  0
   20.8594   -4.1793   -1.6353 H   0  0  0  1  0  0  0  0  0  0  0  0
   18.5314   -5.5527   -4.5269 C   0  0  0  1  0  0  0  0  0  0  0  0
   18.8337   -6.4408   -5.0414 H   0  0  0  1  0  0  0  0  0  0  0  0
   18.1895   -4.8279   -5.2360 H   0  0  0  1  0  0  0  0  0  0  0  0
   17.4568   -5.8760   -3.6497 O   0  0  0  1  0  0  0  0  0  0  0  0
   16.6953   -6.1149   -4.1832 H   0  0  0  1  0  0  0  0  0  0  0  0
   18.6138   -7.3533    0.7875 C   0  0  0  1  0  0  0  0  0  0  0  0
   19.7726   -7.3205    1.1930 O   0  0  0  1  0  0  0  0  0  0  0  0
   17.5301   -8.0802    1.5599 C   0  0  0  1  0  0  0  0  0  0  0  0
   16.6319   -7.8746    1.0160 H   0  0  0  1  0  0  0  0  0  0  0  0
   17.4616   -7.7052    2.5596 H   0  0  0  1  0  0  0  0  0  0  0  0
   17.7245   -9.1321    1.5856 H   0  0  0  1  0  0  0  0  0  0  0  0
  1  2  1  0  0  0  0
  1  3  1  0  0  0  0
  1  4  1  0  0  0  0
  1 44  1  0  0  0  0
  3 20  1  0  0  0  0
  4  5  1  0  0  0  0
  4  6  1  0  0  0  0
  4  8  1  0  0  0  0
  6  7  1  0  0  0  0
  8  9  1  0  0  0  0
  8 10  1  0  0  0  0
  8 20  1  0  0  0  0
 10 11  1  0  0  0  0
 12 13  1  0  0  0  0
 12 14  1  0  0  0  0
 12 15  1  0  0  0  0
 12 17  1  0  0  0  0
 15 16  1  0  0  0  0
 17 18  1  0  0  0  0
 17 19  1  0  0  0  0
 17 20  1  0  0  0  0
 19 22  1  0  0  0  0
 20 21  1  0  0  0  0
 22 23  1  0  0  0  0
 22 24  1  0  0  0  0
 22 25  1  0  0  0  0
 24 42  1  0  0  0  0
 25 26  1  0  0  0  0
 25 27  1  0  0  0  0
 25 29  1  0  0  0  0
 27 28  1  0  0  0  0
 29 30  1  0  0  0  0
 29 31  1  0  0  0  0
 29 42  1  0  0  0  0
 31 32  1  0  0  0  0
 33 34  1  0  0  0  0
 33 35  1  0  0  0  0
 33 36  1  0  0  0  0
 33 38  1  0  0  0  0
 36 37  1  0  0  0  0
 38 39  1  0  0  0  0
 38 40  1  0  0  0  0
 38 42  1  0  0  0  0
 40 41  1  0  0  0  0
 42 43  1  0  0  0  0
 44194  1  0  0  0  0
 45 46  1  0  0  0  0
 45 54  1  0  0  0  0
 46 47  1  0  0  0  0
 46 48  1  0  0  0  0
 46 49  2  0  0  0  0
 47 50  1  0  0  0  0
 50 51  1  0  0  0  0
 50 52  1  0  0  0  0
 50 53  2  0  0  0  0
 51205  1  0  0  0  0
 54 55  1  0  0  0  0
 54 56  1  0  0  0  0
 54 57  1  0  0  0  0
 57 58  1  0  0  0  0
 57 59  2  0  0  0  0
 59 60  1  0  0  0  0
 59 64  1  0  0  0  0
 60 61  1  0  0  0  0
 60 62  1  0  0  0  0
 60 63  1  0  0  0  0
 64 65  1  0  0  0  0
 64 66  1  0  0  0  0
 64 67  1  0  0  0  0
 67 68  1  0  0  0  0
 67 69  1  0  0  0  0
 67 70  1  0  0  0  0
 70 71  1  0  0  0  0
 70 72  2  0  0  0  0
 72 73  1  0  0  0  0
 72 77  1  0  0  0  0
 73 74  1  0  0  0  0
 73 75  1  0  0  0  0
 73 76  1  0  0  0  0
 77 78  1  0  0  0  0
 77 79  1  0  0  0  0
 77 80  1  0  0  0  0
 80 81  1  0  0  0  0
 80 82  1  0  0  0  0
 80 83  1  0  0  0  0
 83 84  1  0  0  0  0
 83 85  2  0  0  0  0
 85 86  1  0  0  0  0
 85 89  1  0  0  0  0
 86 87  1  0  0  0  0
 86 88  1  0  0  0  0
 86 93  1  0  0  0  0
 89 90  1  0  0  0  0
 89 91  1  0  0  0  0
 89 92  1  0  0  0  0
 93 94  1  0  0  0  0
 93 95  1  0  0  0  0
 93 96  1  0  0  0  0
 96 97  1  0  0  0  0
 96 98  2  0  0  0  0
 98 99  1  0  0  0  0
 98102  1  0  0  0  0
 99100  1  0  0  0  0
 99101  1  0  0  0  0
 99106  1  0  0  0  0
102103  1  0  0  0  0
102104  1  0  0  0  0
102105  1  0  0  0  0
106107  1  0  0  0  0
106108  1  0  0  0  0
106109  1  0  0  0  0
109110  1  0  0  0  0
109111  2  0  0  0  0
111112  1  0  0  0  0
111115  1  0  0  0  0
112113  1  0  0  0  0
112114  1  0  0  0  0
112119  1  0  0  0  0
115116  1  0  0  0  0
115117  1  0  0  0  0
115118  1  0  0  0  0
119120  1  0  0  0  0
119121  1  0  0  0  0
119122  1  0  0  0  0
122123  1  0  0  0  0
122124  2  0  0  0  0
124125  1  0  0  0  0
124128  1  0  0  0  0
125126  1  0  0  0  0
125127  1  0  0  0  0
125132  1  0  0  0  0
128129  1  0  0  0  0
128130  1  0  0  0  0
128131  1  0  0  0  0
132133  1  0  0  0  0
132134  1  0  0  0  0
132135  1  0  0  0  0
135136  1  0  0  0  0
135137  2  0  0  0  0
137138  1  0  0  0  0
137141  1  0  0  0  0
138139  1  0  0  0  0
138140  1  0  0  0  0
138145  1  0  0  0  0
141142  1  0  0  0  0
141143  1  0  0  0  0
141144  1  0  0  0  0
145146  1  0  0  0  0
145147  1  0  0  0  0
145148  1  0  0  0  0
148149  1  0  0  0  0
148150  2  0  0  0  0
150151  1  0  0  0  0
150154  1  0  0  0  0
151152  1  0  0  0  0
151153  1  0  0  0  0
151158  1  0  0  0  0
154155  1  0  0  0  0
154156  1  0  0  0  0
154157  1  0  0  0  0
158159  1  0  0  0  0
158160  1  0  0  0  0
158161  1  0  0  0  0
161162  1  0  0  0  0
161163  2  0  0  0  0
163164  1  0  0  0  0
163167  1  0  0  0  0
164165  1  0  0  0  0
164166  1  0  0  0  0
164171  1  0  0  0  0
167168  1  0  0  0  0
167169  1  0  0  0  0
167170  1  0  0  0  0
171172  1  0  0  0  0
171173  1  0  0  0  0
171174  1  0  0  0  0
174175  1  0  0  0  0
174176  2  0  0  0  0
176177  1  0  0  0  0
176181  1  0  0  0  0
177178  1  0  0  0  0
177179  1  0  0  0  0
177180  1  0  0  0  0
181182  1  0  0  0  0
181183  1  0  0  0  0
181184  1  0  0  0  0
185186  1  0  0  0  0
185187  1  0  0  0  0
185189  1  0  0  0  0
185196  1  0  0  0  0
187188  1  0  0  0  0
187190  1  0  0  0  0
187197  1  0  0  0  0
189192  1  0  0  0  0
190191  1  0  0  0  0
190194  1  0  0  0  0
190199  1  0  0  0  0
192193  1  0  0  0  0
192194  1  0  0  0  0
192201  1  0  0  0  0
194195  1  0  0  0  0
196210  1  0  0  0  0
197198  1  0  0  0  0
199200  1  0  0  0  0
201202  1  0  0  0  0
201203  1  0  0  0  0
201204  1  0  0  0  0
205206  1  0  0  0  0
205207  1  0  0  0  0
205209  1  0  0  0  0
207208  1  0  0  0  0
207210  1  0  0  0  0
207216  1  0  0  0  0
209212  1  0  0  0  0
210211  1  0  0  0  0
210214  1  0  0  0  0
212213  1  0  0  0  0
212214  1  0  0  0  0
212220  1  0  0  0  0
214215  1  0  0  0  0
214218  1  0  0  0  0
216217  1  0  0  0  0
216225  1  0  0  0  0
218219  1  0  0  0  0
220221  1  0  0  0  0
220222  1  0  0  0  0
220223  1  0  0  0  0
223224  1  0  0  0  0
225226  2  0  0  0  0
225227  1  0  0  0  0
227228  1  0  0  0  0
227229  1  0  0  0  0
227230  1  0  0  0  0
M  BCL ATM C_TeTeTeTe H_S O_Te2Te2TeTe C_TeTeTeTe H_S O_Te2Te2TeTe H_S C_TeTeTeTe H_S O_Te2Te2TeTe H_S C_TeTeTeTe H_S H_S O_Te2Te2TeTe H_S C_TeTeTeTe H_S O_Te2Te2TeTe C_TeTeTeTe H_S C_TeTeTeTe H_S O_Te2Te2TeTe C_TeTeTeTe H_S O_Te2Te2TeTe H_S C_TeTeTeTe H_S O_Te2Te2TeTe H_S C_TeTeTeTe H_S H_S O_Te2Te2TeTe H_S C_TeTeTeTe H_S O_Te2Te2TeTe H_S C_TeTeTeTe H_S O_Te2Te2TeTe O_Tr2TrTrPi2 P_TeTeTeTePi O_Tr2TrTrPi2 O_Te2Te2TeTe O_Tr2Tr2TrPi P_TeTeTeTePi O_Tr2TrTrPi2 O_Te2Te2TeTe O_Tr2Tr2TrPi C_TeTeTeTe H_S H_S C_TrTrTrPi H_S C_TrTrTrPi C_TeTeTeTe H_S H_S H_S C_TeTeTeTe H_S H_S C_TeTeTeTe H_S H_S C_TrTrTrPi H_S C_TrTrTrPi C_TeTeTeTe H_S H_S H_S C_TeTeTeTe H_S H_S C_TeTeTeTe H_S H_S C_TrTrTrPi H_S C_TrTrTrPi C_TeTeTeTe H_S H_S C_TeTeTeTe H_S H_S H_S C_TeTeTeTe H_S H_S C_TrTrTrPi H_S C_TrTrTrPi C_TeTeTeTe H_S H_S C_TeTeTeTe H_S H_S H_S C_TeTeTeTe H_S H_S C_TrTrTrPi H_S C_TrTrTrPi C_TeTeTeTe H_S H_S C_TeTeTeTe H_S H_S H_S C_TeTeTeTe H_S H_S C_TrTrTrPi H_S C_TrTrTrPi C_TeTeTeTe H_S H_S C_TeTeTeTe H_S H_S H_S C_TeTeTeTe H_S H_S C_TrTrTrPi H_S C_TrTrTrPi C_TeTeTeTe H_S H_S C_TeTeTeTe H_S H_S H_S C_TeTeTeTe H_S H_S C_TrTrTrPi H_S C_TrTrTrPi C_TeTeTeTe H_S H_S C_TeTeTeTe H_S H_S H_S C_TeTeTeTe H_S H_S C_TrTrTrPi H_S C_TrTrTrPi C_TeTeTeTe H_S H_S C_TeTeTeTe H_S H_S H_S C_TeTeTeTe H_S H_S C_TrTrTrPi H_S C_TrTrTrPi C_TeTeTeTe H_S H_S H_S C_TeTeTeTe H_S H_S H_S C_TeTeTeTe H_S C_TeTeTeTe H_S O_Te2Te2TeTe C_TeTeTeTe H_S C_TeTeTeTe H_S C_TeTeTeTe H_S O_Te2Te2TeTe O_Te2Te2TeTe H_S O_Te2Te2TeTe H_S C_TeTeTeTe H_S H_S H_S C_TeTeTeTe H_S C_TeTeTeTe H_S O_Te2Te2TeTe C_TeTeTeTe H_S C_TeTeTeTe H_S C_TeTeTeTe H_S N_TrTrTrPi2 H_S O_Te2Te2TeTe H_S C_TeTeTeTe H_S H_S O_Te2Te2TeTe H_S C_TrTrTrPi O_Tr2Tr2TrPi C_TeTeTeTe H_S H_S H_S
M  BCL BND NonConjugatedSingleBond NonConjugatedSingleBondInRing NonConjugatedSingleBondInRing NonConjugatedSingleBond NonConjugatedSingleBondInRing NonConjugatedSingleBond NonConjugatedSingleBond NonConjugatedSingleBondInRing NonConjugatedSingleBond NonConjugatedSingleBond NonConjugatedSingleBond NonConjugatedSingleBondInRing NonConjugatedSingleBond NonConjugatedSingleBond NonConjugatedSingleBond NonConjugatedSingleBond NonConjugatedSingleBond NonConjugatedSingleBond NonConjugatedSingleBond NonConjugatedSingleBond NonConjugatedSingleBond NonConjugatedSingleBond NonConjugatedSingleBond NonConjugatedSingleBond NonConjugatedSingleBondInRing NonConjugatedSingleBondInRing NonConjugatedSingleBondInRing NonConjugatedSingleBond NonConjugatedSingleBond NonConjugatedSingleBondInRing NonConjugatedSingleBond NonConjugatedSingleBond NonConjugatedSingleBond NonConjugatedSingleBondInRing NonConjugatedSingleBond NonConjugatedSingleBond NonConjugatedSingleBond NonConjugatedSingleBond NonConjugatedSingleBond NonConjugatedSingleBond NonConjugatedSingleBond NonConjugatedSingleBond NonConjugatedSingleBond NonConjugatedSingleBond NonConjugatedSingleBond NonConjugatedSingleBond ConjugatedSingleBond NonConjugatedSingleBond ConjugatedSingleBond ConjugatedSingleBond ConjugatedDoubleBond ConjugatedSingleBond ConjugatedSingleBond ConjugatedSingleBond ConjugatedDoubleBond NonConjugatedSingleBond NonConjugatedSingleBond NonConjugatedSingleBond NonConjugatedSingleBond NonConjugatedSingleBond ConjugatedDoubleBond NonConjugatedSingleBond NonConjugatedSingleBond NonConjugatedSingleBond NonConjugatedSingleBond NonConjugatedSingleBond NonConjugatedSingleBond NonConjugatedSingleBond NonConjugatedSingleBond NonConjugatedSingleBond NonConjugatedSingleBond NonConjugatedSingleBond NonConjugatedSingleBond ConjugatedDoubleBond NonConjugatedSingleBond NonConjugatedSingleBond NonConjugatedSingleBond NonConjugatedSingleBond NonConjugatedSingleBond NonConjugatedSingleBond NonConjugatedSingleBond NonConjugatedSingleBond NonConjugatedSingleBond NonConjugatedSingleBond NonConjugatedSingleBond NonConjugatedSingleBond ConjugatedDoubleBond NonConjugatedSingleBond NonConjugatedSingleBond NonConjugatedSingleBond NonConjugatedSingleBond NonConjugatedSingleBond NonConjugatedSingleBond NonConjugatedSingleBond NonConjugatedSingleBond NonConjugatedSingleBond NonConjugatedSingleBond NonConjugatedSingleBond NonConjugatedSingleBond ConjugatedDoubleBond NonConjugatedSingleBond NonConjugatedSingleBond NonConjugatedSingleBond NonConjugatedSingleBond NonConjugatedSingleBond NonConjugatedSingleBond NonConjugatedSingleBond NonConjugatedSingleBond NonConjugatedSingleBond NonConjugatedSingleBond NonConjugatedSingleBond NonConjugatedSingleBond ConjugatedDoubleBond NonConjugatedSingleBond NonConjugatedSingleBond NonConjugatedSingleBond NonConjugatedSingleBond NonConjugatedSingleBond NonConjugatedSingleBond NonConjugatedSingleBond NonConjugatedSingleBond NonConjugatedSingleBond NonConjugatedSingleBond NonConjugatedSingleBond NonConjugatedSingleBond ConjugatedDoubleBond NonConjugatedSingleBond NonConjugatedSingleBond NonConjugatedSingleBond NonConjugatedSingleBond NonConjugatedSingleBond NonConjugatedSingleBond NonConjugatedSingleBond NonConjugatedSingleBond NonConjugatedSingleBond NonConjugatedSingleBond NonConjugatedSingleBond NonConjugatedSingleBond ConjugatedDoubleBond NonConjugatedSingleBond NonConjugatedSingleBond NonConjugatedSingleBond NonConjugatedSingleBond NonConjugatedSingleBond NonConjugatedSingleBond NonConjugatedSingleBond NonConjugatedSingleBond NonConjugatedSingleBond NonConjugatedSingleBond NonConjugatedSingleBond NonConjugatedSingleBond ConjugatedDoubleBond NonConjugatedSingleBond NonConjugatedSingleBond NonConjugatedSingleBond NonConjugatedSingleBond NonConjugatedSingleBond NonConjugatedSingleBond NonConjugatedSingleBond NonConjugatedSingleBond NonConjugatedSingleBond NonConjugatedSingleBond NonConjugatedSingleBond NonConjugatedSingleBond ConjugatedDoubleBond NonConjugatedSingleBond NonConjugatedSingleBond NonConjugatedSingleBond NonConjugatedSingleBond NonConjugatedSingleBond NonConjugatedSingleBond NonConjugatedSingleBond NonConjugatedSingleBond NonConjugatedSingleBond NonConjugatedSingleBond NonConjugatedSingleBond NonConjugatedSingleBond ConjugatedDoubleBond NonConjugatedSingleBond NonConjugatedSingleBond NonConjugatedSingleBond NonConjugatedSingleBond NonConjugatedSingleBond NonConjugatedSingleBond NonConjugatedSingleBond NonConjugatedSingleBond NonConjugatedSingleBond NonConjugatedSingleBondInRing NonConjugatedSingleBondInRing NonConjugatedSingleBond NonConjugatedSingleBond NonConjugatedSingleBondInRing NonConjugatedSingleBond NonConjugatedSingleBondInRing NonConjugatedSingleBond NonConjugatedSingleBondInRing NonConjugatedSingleBond NonConjugatedSingleBond NonConjugatedSingleBondInRing NonConjugatedSingleBond NonConjugatedSingleBond NonConjugatedSingleBond NonConjugatedSingleBond NonConjugatedSingleBond NonConjugatedSingleBond NonConjugatedSingleBond NonConjugatedSingleBond NonConjugatedSingleBond NonConjugatedSingleBondInRing NonConjugatedSingleBondInRing NonConjugatedSingleBond NonConjugatedSingleBondInRing NonConjugatedSingleBond NonConjugatedSingleBondInRing NonConjugatedSingleBond NonConjugatedSingleBondInRing NonConjugatedSingleBond NonConjugatedSingleBondInRing NonConjugatedSingleBond NonConjugatedSingleBond NonConjugatedSingleBond NonConjugatedSingleBond AmideSingleBond NonConjugatedSingleBond NonConjugatedSingleBond NonConjugatedSingleBond NonConjugatedSingleBond NonConjugatedSingleBond ConjugatedDoubleBond NonConjugatedSingleBond NonConjugatedSingleBond NonConjugatedSingleBond NonConjugatedSingleBond
M  BCL CHI   1   R   4   R   8   R  17   S  20   R  22   S  25   R  29   S  38   S  42   R  46   R  50   S 185   R 187   S 190   S 192   R 194   R 205   R 207   S 210   R 212   S 214   S
M  BCL DBI - - E E E E E E E E Z - -
M  END
> <ConfClashScore>
0.0188271 

> <ConfOneFourInteractionScore>
-0.967963 

> <ConfScore>
2.04997 

> <ConfScorePBest>
0.00644647 

> <ConfTolerance>
4.78548 

$$$$
L05.****
  PyMOL2.5          3D                             0

230233  0  0  0  0  0  0  0  0999 V2000
   12.0001   -2.6970   -2.6409 C   0  0  0  1  0  0  0  0  0  0  0  0
   11.3571   -2.5195   -1.8043 H   0  0  0  1  0  0  0  0  0  0  0  0
   11.3974   -3.6351   -3.5283 O   0  0  0  1  0  0  0  0  0  0  0  0
   12.2054   -1.4294   -3.4060 C   0  0  0  1  0  0  0  0  0  0  0  0
   13.2492   -1.2511   -3.5599 H   0  0  0  1  0  0  0  0  0  0  0  0
   11.6314   -0.3254   -2.7046 O   0  0  0  1  0  0  0  0  0  0  0  0
   11.2391    0.2847   -3.3335 H   0  0  0  1  0  0  0  0  0  0  0  0
   11.5113   -1.6334   -4.7170 C   0  0  0  1  0  0  0  0  0  0  0  0
   10.8673   -0.8080   -4.9378 H   0  0  0  1  0  0  0  0  0  0  0  0
   12.4601   -1.7937   -5.7728 O   0  0  0  1  0  0  0  0  0  0  0  0
   12.7771   -2.6998   -5.7840 H   0  0  0  1  0  0  0  0  0  0  0  0
    9.2997   -1.6874   -2.8086 C   0  0  0  1  0  0  0  0  0  0  0  0
    9.4481   -2.3137   -1.9538 H   0  0  0  1  0  0  0  0  0  0  0  0
   10.0982   -0.9782   -2.8747 H   0  0  0  1  0  0  0  0  0  0  0  0
    8.0754   -0.9826   -2.6507 O   0  0  0  1  0  0  0  0  0  0  0  0
    7.4351   -1.3056   -3.2888 H   0  0  0  1  0  0  0  0  0  0  0  0
    9.3134   -2.5559   -4.0584 C   0  0  0  1  0  0  0  0  0  0  0  0
    8.8363   -2.0035   -4.8408 H   0  0  0  1  0  0  0  0  0  0  0  0
    8.5640   -3.7394   -3.8086 O   0  0  0  1  0  0  0  0  0  0  0  0
   10.7174   -2.8890   -4.5212 C   0  0  0  1  0  0  0  0  0  0  0  0
   10.6701   -3.4442   -5.4347 H   0  0  0  1  0  0  0  0  0  0  0  0
    8.5147   -4.6229   -4.9064 C   0  0  0  1  0  0  0  0  0  0  0  0
    8.0805   -4.1238   -5.7473 H   0  0  0  1  0  0  0  0  0  0  0  0
    9.7957   -5.0991   -5.2185 O   0  0  0  1  0  0  0  0  0  0  0  0
    7.7170   -5.8863   -4.5523 C   0  0  0  1  0  0  0  0  0  0  0  0
    6.6736   -5.7510   -4.7473 H   0  0  0  1  0  0  0  0  0  0  0  0
    7.9033   -6.2461   -3.1826 O   0  0  0  1  0  0  0  0  0  0  0  0
    7.8926   -7.2023   -3.0981 H   0  0  0  1  0  0  0  0  0  0  0  0
    8.3113   -6.9212   -5.4712 C   0  0  0  1  0  0  0  0  0  0  0  0
    7.8442   -6.8936   -6.4335 H   0  0  0  1  0  0  0  0  0  0  0  0
    8.1851   -8.2282   -4.9185 O   0  0  0  1  0  0  0  0  0  0  0  0
    7.8770   -8.8343   -5.5962 H   0  0  0  1  0  0  0  0  0  0  0  0
    9.8579   -8.0060   -7.6373 C   0  0  0  1  0  0  0  0  0  0  0  0
   10.3807   -8.1000   -8.5662 H   0  0  0  1  0  0  0  0  0  0  0  0
   10.1192   -8.8219   -6.9963 H   0  0  0  1  0  0  0  0  0  0  0  0
    8.4647   -8.0804   -7.9036 O   0  0  0  1  0  0  0  0  0  0  0  0
    8.0253   -8.5412   -7.1851 H   0  0  0  1  0  0  0  0  0  0  0  0
   10.3077   -6.7113   -6.9671 C   0  0  0  1  0  0  0  0  0  0  0  0
    9.9129   -5.9116   -7.5584 H   0  0  0  1  0  0  0  0  0  0  0  0
   11.7257   -6.5716   -6.9448 O   0  0  0  1  0  0  0  0  0  0  0  0
   12.1306   -7.4327   -6.8172 H   0  0  0  1  0  0  0  0  0  0  0  0
    9.7819   -6.5029   -5.5624 C   0  0  0  1  0  0  0  0  0  0  0  0
   10.3756   -7.0646   -4.8718 H   0  0  0  1  0  0  0  0  0  0  0  0
   13.2431   -3.1930   -2.1841 O   0  0  0  1  0  0  0  0  0  0  0  0
   22.0654   -9.1134   -1.3910 O   0  0  0  1  0  0  0  0  0  0  0  0
   22.2338   -9.5653   -2.9135 P   0  0  0  1  0  0  0  0  0  0  0  0
   21.6752   -8.3078   -3.7429 O   0  0  0  1  0  0  0  0  0  0  0  0
   21.3468  -10.7454   -3.0171 O   0  0  0  0  0  0  0  0  0  0  0  0
   23.6454   -9.6492   -3.3008 O   0  0  0  1  0  0  0  0  0  0  0  0
   22.3122   -6.8422   -3.8544 P   0  0  0  1  0  0  0  0  0  0  0  0
   21.0427   -5.9825   -4.2466 O   0  0  0  1  0  0  0  0  0  0  0  0
   23.3222   -6.8431   -4.9507 O   0  0  0  0  0  0  0  0  0  0  0  0
   22.7236   -6.3998   -2.5215 O   0  0  0  1  0  0  0  0  0  0  0  0
   22.5430   -7.8188   -0.9420 C   0  0  0  1  0  0  0  0  0  0  0  0
   21.7580   -7.0942   -1.0025 H   0  0  0  1  0  0  0  0  0  0  0  0
   23.3694   -7.5012   -1.5430 H   0  0  0  1  0  0  0  0  0  0  0  0
   22.9766   -7.9949    0.4835 C   0  0  0  1  0  0  0  0  0  0  0  0
   22.9181   -8.9505    0.8897 H   0  0  0  1  0  0  0  0  0  0  0  0
   23.4299   -7.0211    1.2656 C   0  0  0  1  0  0  0  0  0  0  0  0
   23.5527   -7.1395    2.7570 C   0  0  0  1  0  0  0  0  0  0  0  0
   22.9322   -6.4047    3.2259 H   0  0  0  1  0  0  0  0  0  0  0  0
   24.5712   -6.9818    3.0444 H   0  0  0  1  0  0  0  0  0  0  0  0
   23.2422   -8.1165    3.0637 H   0  0  0  1  0  0  0  0  0  0  0  0
   23.8637   -5.6973    0.7018 C   0  0  0  1  0  0  0  0  0  0  0  0
   23.0206   -5.0398    0.7436 H   0  0  0  1  0  0  0  0  0  0  0  0
   24.1401   -5.8591   -0.3191 H   0  0  0  1  0  0  0  0  0  0  0  0
   25.0255   -4.9907    1.3810 C   0  0  0  1  0  0  0  0  0  0  0  0
   25.7959   -5.7083    1.5718 H   0  0  0  1  0  0  0  0  0  0  0  0
   24.6807   -4.5819    2.3078 H   0  0  0  1  0  0  0  0  0  0  0  0
   25.6040   -3.8758    0.5513 C   0  0  0  1  0  0  0  0  0  0  0  0
   26.0582   -4.1510   -0.3429 H   0  0  0  1  0  0  0  0  0  0  0  0
   25.5973   -2.5783    0.8375 C   0  0  0  1  0  0  0  0  0  0  0  0
   26.4605   -1.5661    0.1390 C   0  0  0  1  0  0  0  0  0  0  0  0
   26.6153   -1.8682   -0.8758 H   0  0  0  1  0  0  0  0  0  0  0  0
   27.4043   -1.4972    0.6383 H   0  0  0  1  0  0  0  0  0  0  0  0
   25.9765   -0.6120    0.1569 H   0  0  0  1  0  0  0  0  0  0  0  0
   24.7063   -2.0143    1.9047 C   0  0  0  1  0  0  0  0  0  0  0  0
   24.5118   -0.9869    1.6780 H   0  0  0  1  0  0  0  0  0  0  0  0
   25.2144   -2.0829    2.8439 H   0  0  0  1  0  0  0  0  0  0  0  0
   23.3781   -2.7445    2.0187 C   0  0  0  1  0  0  0  0  0  0  0  0
   23.5472   -3.6864    2.4975 H   0  0  0  1  0  0  0  0  0  0  0  0
   22.9940   -2.9085    1.0336 H   0  0  0  1  0  0  0  0  0  0  0  0
   22.3517   -1.9811    2.8122 C   0  0  0  1  0  0  0  0  0  0  0  0
   22.6993   -1.1668    3.3578 H   0  0  0  1  0  0  0  0  0  0  0  0
   21.0498   -2.2349    2.8912 C   0  0  0  1  0  0  0  0  0  0  0  0
   20.3768   -3.3676    2.1720 C   0  0  0  1  0  0  0  0  0  0  0  0
   20.9914   -4.2408    2.2400 H   0  0  0  1  0  0  0  0  0  0  0  0
   20.2462   -3.1020    1.1437 H   0  0  0  1  0  0  0  0  0  0  0  0
   20.1326   -1.3865    3.7264 C   0  0  0  1  0  0  0  0  0  0  0  0
   19.9421   -1.8770    4.6581 H   0  0  0  1  0  0  0  0  0  0  0  0
   19.2095   -1.2402    3.2054 H   0  0  0  1  0  0  0  0  0  0  0  0
   20.5931   -0.4384    3.9104 H   0  0  0  1  0  0  0  0  0  0  0  0
   19.0187   -3.6650    2.7863 C   0  0  0  1  0  0  0  0  0  0  0  0
   18.5921   -4.5051    2.2791 H   0  0  0  1  0  0  0  0  0  0  0  0
   18.3897   -2.8098    2.6524 H   0  0  0  1  0  0  0  0  0  0  0  0
   19.0922   -3.9778    4.2471 C   0  0  0  1  0  0  0  0  0  0  0  0
   19.8121   -4.6613    4.5572 H   0  0  0  1  0  0  0  0  0  0  0  0
   18.3064   -3.4476    5.1781 C   0  0  0  1  0  0  0  0  0  0  0  0
   17.0305   -2.7094    4.8728 C   0  0  0  1  0  0  0  0  0  0  0  0
   17.2802   -1.7474    4.4763 H   0  0  0  1  0  0  0  0  0  0  0  0
   16.4806   -2.5889    5.7827 H   0  0  0  1  0  0  0  0  0  0  0  0
   18.6403   -3.5476    6.6374 C   0  0  0  1  0  0  0  0  0  0  0  0
   19.5872   -3.0841    6.8197 H   0  0  0  1  0  0  0  0  0  0  0  0
   18.6869   -4.5779    6.9225 H   0  0  0  1  0  0  0  0  0  0  0  0
   17.8847   -3.0523    7.2106 H   0  0  0  1  0  0  0  0  0  0  0  0
   16.1498   -3.4332    3.8675 C   0  0  0  1  0  0  0  0  0  0  0  0
   15.6731   -4.2541    4.3612 H   0  0  0  1  0  0  0  0  0  0  0  0
   16.7685   -3.8027    3.0765 H   0  0  0  1  0  0  0  0  0  0  0  0
   15.0866   -2.5499    3.2713 C   0  0  0  1  0  0  0  0  0  0  0  0
   15.4094   -1.6552    2.8508 H   0  0  0  1  0  0  0  0  0  0  0  0
   13.7815   -2.7892    3.2242 C   0  0  0  1  0  0  0  0  0  0  0  0
   13.2139   -4.1100    3.6563 C   0  0  0  1  0  0  0  0  0  0  0  0
   12.5254   -3.9391    4.4573 H   0  0  0  1  0  0  0  0  0  0  0  0
   14.0159   -4.7290    4.0006 H   0  0  0  1  0  0  0  0  0  0  0  0
   12.7627   -1.7927    2.7472 C   0  0  0  1  0  0  0  0  0  0  0  0
   12.0988   -1.5486    3.5500 H   0  0  0  1  0  0  0  0  0  0  0  0
   12.2037   -2.2141    1.9380 H   0  0  0  1  0  0  0  0  0  0  0  0
   13.2602   -0.9060    2.4140 H   0  0  0  1  0  0  0  0  0  0  0  0
   12.4852   -4.8390    2.5392 C   0  0  0  1  0  0  0  0  0  0  0  0
   11.8381   -4.1449    2.0449 H   0  0  0  1  0  0  0  0  0  0  0  0
   11.9024   -5.6263    2.9698 H   0  0  0  1  0  0  0  0  0  0  0  0
   13.4097   -5.4311    1.5265 C   0  0  0  1  0  0  0  0  0  0  0  0
   14.1135   -4.8111    1.0773 H   0  0  0  1  0  0  0  0  0  0  0  0
   13.3771   -6.7165    1.1698 C   0  0  0  1  0  0  0  0  0  0  0  0
   12.2028   -7.5892    1.5118 C   0  0  0  1  0  0  0  0  0  0  0  0
   11.7853   -7.9395    0.5909 H   0  0  0  1  0  0  0  0  0  0  0  0
   11.4862   -6.9775    2.0190 H   0  0  0  1  0  0  0  0  0  0  0  0
   14.5118   -7.3422    0.4129 C   0  0  0  1  0  0  0  0  0  0  0  0
   14.1797   -7.6161   -0.5667 H   0  0  0  1  0  0  0  0  0  0  0  0
   14.8483   -8.2151    0.9322 H   0  0  0  1  0  0  0  0  0  0  0  0
   15.3166   -6.6414    0.3334 H   0  0  0  1  0  0  0  0  0  0  0  0
   12.4619   -8.8057    2.3855 C   0  0  0  1  0  0  0  0  0  0  0  0
   13.1974   -9.4047    1.8904 H   0  0  0  1  0  0  0  0  0  0  0  0
   11.5442   -9.3516    2.4545 H   0  0  0  1  0  0  0  0  0  0  0  0
   12.9484   -8.5638    3.7885 C   0  0  0  1  0  0  0  0  0  0  0  0
   12.4586   -7.9160    4.4382 H   0  0  0  1  0  0  0  0  0  0  0  0
   14.0410   -9.2275    4.1469 C   0  0  0  1  0  0  0  0  0  0  0  0
   14.8938   -9.9347    3.1319 C   0  0  0  1  0  0  0  0  0  0  0  0
   15.6873   -9.2698    2.8614 H   0  0  0  1  0  0  0  0  0  0  0  0
   14.2807  -10.1258    2.2760 H   0  0  0  1  0  0  0  0  0  0  0  0
   14.5276   -9.3393    5.5644 C   0  0  0  1  0  0  0  0  0  0  0  0
   15.5555   -9.0462    5.6133 H   0  0  0  1  0  0  0  0  0  0  0  0
   14.4295  -10.3519    5.8960 H   0  0  0  1  0  0  0  0  0  0  0  0
   13.9441   -8.6995    6.1929 H   0  0  0  1  0  0  0  0  0  0  0  0
   15.5262  -11.2545    3.5422 C   0  0  0  1  0  0  0  0  0  0  0  0
   16.1238  -11.0893    4.4142 H   0  0  0  1  0  0  0  0  0  0  0  0
   16.1488  -11.5971    2.7422 H   0  0  0  1  0  0  0  0  0  0  0  0
   14.5123  -12.3233    3.8516 C   0  0  0  1  0  0  0  0  0  0  0  0
   13.8708  -12.5916    3.0782 H   0  0  0  1  0  0  0  0  0  0  0  0
   14.3466  -12.9664    5.0155 C   0  0  0  1  0  0  0  0  0  0  0  0
   14.9929  -12.4048    6.2502 C   0  0  0  1  0  0  0  0  0  0  0  0
   14.2302  -12.2087    6.9747 H   0  0  0  1  0  0  0  0  0  0  0  0
   15.4835  -11.4898    5.9916 H   0  0  0  1  0  0  0  0  0  0  0  0
   13.5510  -14.2104    5.1347 C   0  0  0  1  0  0  0  0  0  0  0  0
   13.4256  -14.6483    4.1665 H   0  0  0  1  0  0  0  0  0  0  0  0
   12.5915  -13.9815    5.5493 H   0  0  0  1  0  0  0  0  0  0  0  0
   14.0612  -14.8999    5.7744 H   0  0  0  1  0  0  0  0  0  0  0  0
   16.0158  -13.3448    6.8669 C   0  0  0  1  0  0  0  0  0  0  0  0
   15.5248  -14.2703    7.0842 H   0  0  0  1  0  0  0  0  0  0  0  0
   16.3637  -12.9027    7.7771 H   0  0  0  1  0  0  0  0  0  0  0  0
   17.2143  -13.6455    6.0095 C   0  0  0  1  0  0  0  0  0  0  0  0
   17.0234  -14.0588    5.0744 H   0  0  0  1  0  0  0  0  0  0  0  0
   18.4906  -13.4404    6.3170 C   0  0  0  1  0  0  0  0  0  0  0  0
   19.6368  -13.8884    5.4575 C   0  0  0  1  0  0  0  0  0  0  0  0
   19.5363  -13.4180    4.5018 H   0  0  0  1  0  0  0  0  0  0  0  0
   19.5677  -14.9500    5.3422 H   0  0  0  1  0  0  0  0  0  0  0  0
   18.8909  -12.7278    7.5781 C   0  0  0  1  0  0  0  0  0  0  0  0
   18.7044  -11.6907    7.3920 H   0  0  0  1  0  0  0  0  0  0  0  0
   19.9280  -12.8896    7.7858 H   0  0  0  1  0  0  0  0  0  0  0  0
   18.3034  -13.0709    8.4040 H   0  0  0  1  0  0  0  0  0  0  0  0
   21.0207  -13.5645    5.9964 C   0  0  0  1  0  0  0  0  0  0  0  0
   21.0486  -13.8151    7.0362 H   0  0  0  1  0  0  0  0  0  0  0  0
   21.1958  -12.5157    5.8769 H   0  0  0  1  0  0  0  0  0  0  0  0
   22.1099  -14.3108    5.2982 C   0  0  0  1  0  0  0  0  0  0  0  0
   22.9341  -14.6169    5.8536 H   0  0  0  1  0  0  0  0  0  0  0  0
   22.0776  -14.6032    4.0010 C   0  0  0  1  0  0  0  0  0  0  0  0
   21.1537  -13.9896    2.9896 C   0  0  0  1  0  0  0  0  0  0  0  0
   21.7287  -13.5195    2.2194 H   0  0  0  1  0  0  0  0  0  0  0  0
   20.5352  -13.2595    3.4685 H   0  0  0  1  0  0  0  0  0  0  0  0
   20.5384  -14.7523    2.5599 H   0  0  0  1  0  0  0  0  0  0  0  0
   23.0331  -15.6346    3.4518 C   0  0  0  1  0  0  0  0  0  0  0  0
   22.9774  -15.5853    2.3844 H   0  0  0  1  0  0  0  0  0  0  0  0
   22.7508  -16.6104    3.7880 H   0  0  0  1  0  0  0  0  0  0  0  0
   24.0297  -15.4194    3.7764 H   0  0  0  1  0  0  0  0  0  0  0  0
   16.1379   -5.2132   -1.8583 C   0  0  0  1  0  0  0  0  0  0  0  0
   16.4888   -5.7944   -1.0313 H   0  0  0  1  0  0  0  0  0  0  0  0
   14.8093   -5.7759   -2.3467 C   0  0  0  1  0  0  0  0  0  0  0  0
   14.9470   -6.7799   -2.6900 H   0  0  0  1  0  0  0  0  0  0  0  0
   15.9574   -3.8567   -1.4449 O   0  0  0  1  0  0  0  0  0  0  0  0
   14.3052   -4.9006   -3.4984 C   0  0  0  1  0  0  0  0  0  0  0  0
   13.3125   -5.2075   -3.7539 H   0  0  0  1  0  0  0  0  0  0  0  0
   15.6126   -2.9940   -2.5400 C   0  0  0  1  0  0  0  0  0  0  0  0
   16.3736   -3.0510   -3.2900 H   0  0  0  1  0  0  0  0  0  0  0  0
   14.2816   -3.4253   -3.1375 C   0  0  0  1  0  0  0  0  0  0  0  0
   14.0910   -2.8514   -4.0202 H   0  0  0  1  0  0  0  0  0  0  0  0
   17.0917   -5.2646   -2.9141 O   0  0  0  1  0  0  0  0  0  0  0  0
   13.8578   -5.7628   -1.2783 O   0  0  0  1  0  0  0  0  0  0  0  0
   13.9007   -4.9196   -0.8214 H   0  0  0  1  0  0  0  0  0  0  0  0
   15.1674   -5.0840   -4.6264 O   0  0  0  1  0  0  0  0  0  0  0  0
   15.8512   -5.7210   -4.4068 H   0  0  0  1  0  0  0  0  0  0  0  0
   15.5004   -1.5634   -2.0388 C   0  0  0  1  0  0  0  0  0  0  0  0
   15.7732   -1.5247   -1.0049 H   0  0  0  1  0  0  0  0  0  0  0  0
   14.4926   -1.2232   -2.1545 H   0  0  0  1  0  0  0  0  0  0  0  0
   16.1566   -0.9351   -2.6043 H   0  0  0  1  0  0  0  0  0  0  0  0
   19.9309   -5.9225   -3.4044 C   0  0  0  1  0  0  0  0  0  0  0  0
   19.7057   -4.9002   -3.1825 H   0  0  0  1  0  0  0  0  0  0  0  0
   18.7347   -6.5588   -4.1065 C   0  0  0  1  0  0  0  0  0  0  0  0
   18.9863   -7.5554   -4.4036 H   0  0  0  1  0  0  0  0  0  0  0  0
   20.2234   -6.6099   -2.1945 O   0  0  0  1  0  0  0  0  0  0  0  0
   17.5390   -6.5996   -3.1573 C   0  0  0  1  0  0  0  0  0  0  0  0
   16.7514   -7.1628   -3.6126 H   0  0  0  1  0  0  0  0  0  0  0  0
   19.1469   -6.5699   -1.2446 C   0  0  0  1  0  0  0  0  0  0  0  0
   19.4401   -7.0849   -0.3537 H   0  0  0  1  0  0  0  0  0  0  0  0
   17.9082   -7.2448   -1.8373 C   0  0  0  1  0  0  0  0  0  0  0  0
   17.0907   -7.1441   -1.1543 H   0  0  0  1  0  0  0  0  0  0  0  0
   18.3894   -5.7695   -5.2882 N   0  0  0  1  0  0  0  0  0  0  0  0
   18.0184   -4.8708   -5.1649 H   0  0  0  1  0  0  0  0  0  0  0  0
   18.1833   -8.6302   -2.0507 O   0  0  0  1  0  0  0  0  0  0  0  0
   19.1368   -8.7291   -1.9983 H   0  0  0  1  0  0  0  0  0  0  0  0
   18.8259   -5.1403   -0.9147 C   0  0  0  1  0  0  0  0  0  0  0  0
   17.7934   -5.0497   -0.6491 H   0  0  0  1  0  0  0  0  0  0  0  0
   19.0341   -4.5152   -1.7579 H   0  0  0  1  0  0  0  0  0  0  0  0
   19.6462   -4.7607    0.1861 O   0  0  0  1  0  0  0  0  0  0  0  0
   19.8105   -3.8167    0.1268 H   0  0  0  1  0  0  0  0  0  0  0  0
   18.5621   -6.2309   -6.5301 C   0  0  0  1  0  0  0  0  0  0  0  0
   19.0948   -7.2904   -6.8047 O   0  0  0  1  0  0  0  0  0  0  0  0
   18.1257   -5.2690   -7.6366 C   0  0  0  1  0  0  0  0  0  0  0  0
   17.1124   -5.0256   -7.3935 H   0  0  0  1  0  0  0  0  0  0  0  0
   18.1817   -5.7431   -8.5941 H   0  0  0  1  0  0  0  0  0  0  0  0
   18.7363   -4.3903   -7.6368 H   0  0  0  1  0  0  0  0  0  0  0  0
  1  2  1  0  0  0  0
  1  3  1  0  0  0  0
  1  4  1  0  0  0  0
  1 44  1  0  0  0  0
  3 20  1  0  0  0  0
  4  5  1  0  0  0  0
  4  6  1  0  0  0  0
  4  8  1  0  0  0  0
  6  7  1  0  0  0  0
  8  9  1  0  0  0  0
  8 10  1  0  0  0  0
  8 20  1  0  0  0  0
 10 11  1  0  0  0  0
 12 13  1  0  0  0  0
 12 14  1  0  0  0  0
 12 15  1  0  0  0  0
 12 17  1  0  0  0  0
 15 16  1  0  0  0  0
 17 18  1  0  0  0  0
 17 19  1  0  0  0  0
 17 20  1  0  0  0  0
 19 22  1  0  0  0  0
 20 21  1  0  0  0  0
 22 23  1  0  0  0  0
 22 24  1  0  0  0  0
 22 25  1  0  0  0  0
 24 42  1  0  0  0  0
 25 26  1  0  0  0  0
 25 27  1  0  0  0  0
 25 29  1  0  0  0  0
 27 28  1  0  0  0  0
 29 30  1  0  0  0  0
 29 31  1  0  0  0  0
 29 42  1  0  0  0  0
 31 32  1  0  0  0  0
 33 34  1  0  0  0  0
 33 35  1  0  0  0  0
 33 36  1  0  0  0  0
 33 38  1  0  0  0  0
 36 37  1  0  0  0  0
 38 39  1  0  0  0  0
 38 40  1  0  0  0  0
 38 42  1  0  0  0  0
 40 41  1  0  0  0  0
 42 43  1  0  0  0  0
 44194  1  0  0  0  0
 45 46  1  0  0  0  0
 45 54  1  0  0  0  0
 46 47  1  0  0  0  0
 46 48  1  0  0  0  0
 46 49  2  0  0  0  0
 47 50  1  0  0  0  0
 50 51  1  0  0  0  0
 50 52  1  0  0  0  0
 50 53  2  0  0  0  0
 51205  1  0  0  0  0
 54 55  1  0  0  0  0
 54 56  1  0  0  0  0
 54 57  1  0  0  0  0
 57 58  1  0  0  0  0
 57 59  2  0  0  0  0
 59 60  1  0  0  0  0
 59 64  1  0  0  0  0
 60 61  1  0  0  0  0
 60 62  1  0  0  0  0
 60 63  1  0  0  0  0
 64 65  1  0  0  0  0
 64 66  1  0  0  0  0
 64 67  1  0  0  0  0
 67 68  1  0  0  0  0
 67 69  1  0  0  0  0
 67 70  1  0  0  0  0
 70 71  1  0  0  0  0
 70 72  2  0  0  0  0
 72 73  1  0  0  0  0
 72 77  1  0  0  0  0
 73 74  1  0  0  0  0
 73 75  1  0  0  0  0
 73 76  1  0  0  0  0
 77 78  1  0  0  0  0
 77 79  1  0  0  0  0
 77 80  1  0  0  0  0
 80 81  1  0  0  0  0
 80 82  1  0  0  0  0
 80 83  1  0  0  0  0
 83 84  1  0  0  0  0
 83 85  2  0  0  0  0
 85 86  1  0  0  0  0
 85 89  1  0  0  0  0
 86 87  1  0  0  0  0
 86 88  1  0  0  0  0
 86 93  1  0  0  0  0
 89 90  1  0  0  0  0
 89 91  1  0  0  0  0
 89 92  1  0  0  0  0
 93 94  1  0  0  0  0
 93 95  1  0  0  0  0
 93 96  1  0  0  0  0
 96 97  1  0  0  0  0
 96 98  2  0  0  0  0
 98 99  1  0  0  0  0
 98102  1  0  0  0  0
 99100  1  0  0  0  0
 99101  1  0  0  0  0
 99106  1  0  0  0  0
102103  1  0  0  0  0
102104  1  0  0  0  0
102105  1  0  0  0  0
106107  1  0  0  0  0
106108  1  0  0  0  0
106109  1  0  0  0  0
109110  1  0  0  0  0
109111  2  0  0  0  0
111112  1  0  0  0  0
111115  1  0  0  0  0
112113  1  0  0  0  0
112114  1  0  0  0  0
112119  1  0  0  0  0
115116  1  0  0  0  0
115117  1  0  0  0  0
115118  1  0  0  0  0
119120  1  0  0  0  0
119121  1  0  0  0  0
119122  1  0  0  0  0
122123  1  0  0  0  0
122124  2  0  0  0  0
124125  1  0  0  0  0
124128  1  0  0  0  0
125126  1  0  0  0  0
125127  1  0  0  0  0
125132  1  0  0  0  0
128129  1  0  0  0  0
128130  1  0  0  0  0
128131  1  0  0  0  0
132133  1  0  0  0  0
132134  1  0  0  0  0
132135  1  0  0  0  0
135136  1  0  0  0  0
135137  2  0  0  0  0
137138  1  0  0  0  0
137141  1  0  0  0  0
138139  1  0  0  0  0
138140  1  0  0  0  0
138145  1  0  0  0  0
141142  1  0  0  0  0
141143  1  0  0  0  0
141144  1  0  0  0  0
145146  1  0  0  0  0
145147  1  0  0  0  0
145148  1  0  0  0  0
148149  1  0  0  0  0
148150  2  0  0  0  0
150151  1  0  0  0  0
150154  1  0  0  0  0
151152  1  0  0  0  0
151153  1  0  0  0  0
151158  1  0  0  0  0
154155  1  0  0  0  0
154156  1  0  0  0  0
154157  1  0  0  0  0
158159  1  0  0  0  0
158160  1  0  0  0  0
158161  1  0  0  0  0
161162  1  0  0  0  0
161163  2  0  0  0  0
163164  1  0  0  0  0
163167  1  0  0  0  0
164165  1  0  0  0  0
164166  1  0  0  0  0
164171  1  0  0  0  0
167168  1  0  0  0  0
167169  1  0  0  0  0
167170  1  0  0  0  0
171172  1  0  0  0  0
171173  1  0  0  0  0
171174  1  0  0  0  0
174175  1  0  0  0  0
174176  2  0  0  0  0
176177  1  0  0  0  0
176181  1  0  0  0  0
177178  1  0  0  0  0
177179  1  0  0  0  0
177180  1  0  0  0  0
181182  1  0  0  0  0
181183  1  0  0  0  0
181184  1  0  0  0  0
185186  1  0  0  0  0
185187  1  0  0  0  0
185189  1  0  0  0  0
185196  1  0  0  0  0
187188  1  0  0  0  0
187190  1  0  0  0  0
187197  1  0  0  0  0
189192  1  0  0  0  0
190191  1  0  0  0  0
190194  1  0  0  0  0
190199  1  0  0  0  0
192193  1  0  0  0  0
192194  1  0  0  0  0
192201  1  0  0  0  0
194195  1  0  0  0  0
196210  1  0  0  0  0
197198  1  0  0  0  0
199200  1  0  0  0  0
201202  1  0  0  0  0
201203  1  0  0  0  0
201204  1  0  0  0  0
205206  1  0  0  0  0
205207  1  0  0  0  0
205209  1  0  0  0  0
207208  1  0  0  0  0
207210  1  0  0  0  0
207216  1  0  0  0  0
209212  1  0  0  0  0
210211  1  0  0  0  0
210214  1  0  0  0  0
212213  1  0  0  0  0
212214  1  0  0  0  0
212220  1  0  0  0  0
214215  1  0  0  0  0
214218  1  0  0  0  0
216217  1  0  0  0  0
216225  1  0  0  0  0
218219  1  0  0  0  0
220221  1  0  0  0  0
220222  1  0  0  0  0
220223  1  0  0  0  0
223224  1  0  0  0  0
225226  2  0  0  0  0
225227  1  0  0  0  0
227228  1  0  0  0  0
227229  1  0  0  0  0
227230  1  0  0  0  0
M  BCL ATM C_TeTeTeTe H_S O_Te2Te2TeTe C_TeTeTeTe H_S O_Te2Te2TeTe H_S C_TeTeTeTe H_S O_Te2Te2TeTe H_S C_TeTeTeTe H_S H_S O_Te2Te2TeTe H_S C_TeTeTeTe H_S O_Te2Te2TeTe C_TeTeTeTe H_S C_TeTeTeTe H_S O_Te2Te2TeTe C_TeTeTeTe H_S O_Te2Te2TeTe H_S C_TeTeTeTe H_S O_Te2Te2TeTe H_S C_TeTeTeTe H_S H_S O_Te2Te2TeTe H_S C_TeTeTeTe H_S O_Te2Te2TeTe H_S C_TeTeTeTe H_S O_Te2Te2TeTe O_Tr2TrTrPi2 P_TeTeTeTePi O_Tr2TrTrPi2 O_Te2Te2TeTe O_Tr2Tr2TrPi P_TeTeTeTePi O_Tr2TrTrPi2 O_Te2Te2TeTe O_Tr2Tr2TrPi C_TeTeTeTe H_S H_S C_TrTrTrPi H_S C_TrTrTrPi C_TeTeTeTe H_S H_S H_S C_TeTeTeTe H_S H_S C_TeTeTeTe H_S H_S C_TrTrTrPi H_S C_TrTrTrPi C_TeTeTeTe H_S H_S H_S C_TeTeTeTe H_S H_S C_TeTeTeTe H_S H_S C_TrTrTrPi H_S C_TrTrTrPi C_TeTeTeTe H_S H_S C_TeTeTeTe H_S H_S H_S C_TeTeTeTe H_S H_S C_TrTrTrPi H_S C_TrTrTrPi C_TeTeTeTe H_S H_S C_TeTeTeTe H_S H_S H_S C_TeTeTeTe H_S H_S C_TrTrTrPi H_S C_TrTrTrPi C_TeTeTeTe H_S H_S C_TeTeTeTe H_S H_S H_S C_TeTeTeTe H_S H_S C_TrTrTrPi H_S C_TrTrTrPi C_TeTeTeTe H_S H_S C_TeTeTeTe H_S H_S H_S C_TeTeTeTe H_S H_S C_TrTrTrPi H_S C_TrTrTrPi C_TeTeTeTe H_S H_S C_TeTeTeTe H_S H_S H_S C_TeTeTeTe H_S H_S C_TrTrTrPi H_S C_TrTrTrPi C_TeTeTeTe H_S H_S C_TeTeTeTe H_S H_S H_S C_TeTeTeTe H_S H_S C_TrTrTrPi H_S C_TrTrTrPi C_TeTeTeTe H_S H_S C_TeTeTeTe H_S H_S H_S C_TeTeTeTe H_S H_S C_TrTrTrPi H_S C_TrTrTrPi C_TeTeTeTe H_S H_S H_S C_TeTeTeTe H_S H_S H_S C_TeTeTeTe H_S C_TeTeTeTe H_S O_Te2Te2TeTe C_TeTeTeTe H_S C_TeTeTeTe H_S C_TeTeTeTe H_S O_Te2Te2TeTe O_Te2Te2TeTe H_S O_Te2Te2TeTe H_S C_TeTeTeTe H_S H_S H_S C_TeTeTeTe H_S C_TeTeTeTe H_S O_Te2Te2TeTe C_TeTeTeTe H_S C_TeTeTeTe H_S C_TeTeTeTe H_S N_TrTrTrPi2 H_S O_Te2Te2TeTe H_S C_TeTeTeTe H_S H_S O_Te2Te2TeTe H_S C_TrTrTrPi O_Tr2Tr2TrPi C_TeTeTeTe H_S H_S H_S
M  BCL BND NonConjugatedSingleBond NonConjugatedSingleBondInRing NonConjugatedSingleBondInRing NonConjugatedSingleBond NonConjugatedSingleBondInRing NonConjugatedSingleBond NonConjugatedSingleBond NonConjugatedSingleBondInRing NonConjugatedSingleBond NonConjugatedSingleBond NonConjugatedSingleBond NonConjugatedSingleBondInRing NonConjugatedSingleBond NonConjugatedSingleBond NonConjugatedSingleBond NonConjugatedSingleBond NonConjugatedSingleBond NonConjugatedSingleBond NonConjugatedSingleBond NonConjugatedSingleBond NonConjugatedSingleBond NonConjugatedSingleBond NonConjugatedSingleBond NonConjugatedSingleBond NonConjugatedSingleBondInRing NonConjugatedSingleBondInRing NonConjugatedSingleBondInRing NonConjugatedSingleBond NonConjugatedSingleBond NonConjugatedSingleBondInRing NonConjugatedSingleBond NonConjugatedSingleBond NonConjugatedSingleBond NonConjugatedSingleBondInRing NonConjugatedSingleBond NonConjugatedSingleBond NonConjugatedSingleBond NonConjugatedSingleBond NonConjugatedSingleBond NonConjugatedSingleBond NonConjugatedSingleBond NonConjugatedSingleBond NonConjugatedSingleBond NonConjugatedSingleBond NonConjugatedSingleBond NonConjugatedSingleBond ConjugatedSingleBond NonConjugatedSingleBond ConjugatedSingleBond ConjugatedSingleBond ConjugatedDoubleBond ConjugatedSingleBond ConjugatedSingleBond ConjugatedSingleBond ConjugatedDoubleBond NonConjugatedSingleBond NonConjugatedSingleBond NonConjugatedSingleBond NonConjugatedSingleBond NonConjugatedSingleBond ConjugatedDoubleBond NonConjugatedSingleBond NonConjugatedSingleBond NonConjugatedSingleBond NonConjugatedSingleBond NonConjugatedSingleBond NonConjugatedSingleBond NonConjugatedSingleBond NonConjugatedSingleBond NonConjugatedSingleBond NonConjugatedSingleBond NonConjugatedSingleBond NonConjugatedSingleBond ConjugatedDoubleBond NonConjugatedSingleBond NonConjugatedSingleBond NonConjugatedSingleBond NonConjugatedSingleBond NonConjugatedSingleBond NonConjugatedSingleBond NonConjugatedSingleBond NonConjugatedSingleBond NonConjugatedSingleBond NonConjugatedSingleBond NonConjugatedSingleBond NonConjugatedSingleBond ConjugatedDoubleBond NonConjugatedSingleBond NonConjugatedSingleBond NonConjugatedSingleBond NonConjugatedSingleBond NonConjugatedSingleBond NonConjugatedSingleBond NonConjugatedSingleBond NonConjugatedSingleBond NonConjugatedSingleBond NonConjugatedSingleBond NonConjugatedSingleBond NonConjugatedSingleBond ConjugatedDoubleBond NonConjugatedSingleBond NonConjugatedSingleBond NonConjugatedSingleBond NonConjugatedSingleBond NonConjugatedSingleBond NonConjugatedSingleBond NonConjugatedSingleBond NonConjugatedSingleBond NonConjugatedSingleBond NonConjugatedSingleBond NonConjugatedSingleBond NonConjugatedSingleBond ConjugatedDoubleBond NonConjugatedSingleBond NonConjugatedSingleBond NonConjugatedSingleBond NonConjugatedSingleBond NonConjugatedSingleBond NonConjugatedSingleBond NonConjugatedSingleBond NonConjugatedSingleBond NonConjugatedSingleBond NonConjugatedSingleBond NonConjugatedSingleBond NonConjugatedSingleBond ConjugatedDoubleBond NonConjugatedSingleBond NonConjugatedSingleBond NonConjugatedSingleBond NonConjugatedSingleBond NonConjugatedSingleBond NonConjugatedSingleBond NonConjugatedSingleBond NonConjugatedSingleBond NonConjugatedSingleBond NonConjugatedSingleBond NonConjugatedSingleBond NonConjugatedSingleBond ConjugatedDoubleBond NonConjugatedSingleBond NonConjugatedSingleBond NonConjugatedSingleBond NonConjugatedSingleBond NonConjugatedSingleBond NonConjugatedSingleBond NonConjugatedSingleBond NonConjugatedSingleBond NonConjugatedSingleBond NonConjugatedSingleBond NonConjugatedSingleBond NonConjugatedSingleBond ConjugatedDoubleBond NonConjugatedSingleBond NonConjugatedSingleBond NonConjugatedSingleBond NonConjugatedSingleBond NonConjugatedSingleBond NonConjugatedSingleBond NonConjugatedSingleBond NonConjugatedSingleBond NonConjugatedSingleBond NonConjugatedSingleBond NonConjugatedSingleBond NonConjugatedSingleBond ConjugatedDoubleBond NonConjugatedSingleBond NonConjugatedSingleBond NonConjugatedSingleBond NonConjugatedSingleBond NonConjugatedSingleBond NonConjugatedSingleBond NonConjugatedSingleBond NonConjugatedSingleBond NonConjugatedSingleBond NonConjugatedSingleBond NonConjugatedSingleBond NonConjugatedSingleBond ConjugatedDoubleBond NonConjugatedSingleBond NonConjugatedSingleBond NonConjugatedSingleBond NonConjugatedSingleBond NonConjugatedSingleBond NonConjugatedSingleBond NonConjugatedSingleBond NonConjugatedSingleBond NonConjugatedSingleBond NonConjugatedSingleBondInRing NonConjugatedSingleBondInRing NonConjugatedSingleBond NonConjugatedSingleBond NonConjugatedSingleBondInRing NonConjugatedSingleBond NonConjugatedSingleBondInRing NonConjugatedSingleBond NonConjugatedSingleBondInRing NonConjugatedSingleBond NonConjugatedSingleBond NonConjugatedSingleBondInRing NonConjugatedSingleBond NonConjugatedSingleBond NonConjugatedSingleBond NonConjugatedSingleBond NonConjugatedSingleBond NonConjugatedSingleBond NonConjugatedSingleBond NonConjugatedSingleBond NonConjugatedSingleBond NonConjugatedSingleBondInRing NonConjugatedSingleBondInRing NonConjugatedSingleBond NonConjugatedSingleBondInRing NonConjugatedSingleBond NonConjugatedSingleBondInRing NonConjugatedSingleBond NonConjugatedSingleBondInRing NonConjugatedSingleBond NonConjugatedSingleBondInRing NonConjugatedSingleBond NonConjugatedSingleBond NonConjugatedSingleBond NonConjugatedSingleBond AmideSingleBond NonConjugatedSingleBond NonConjugatedSingleBond NonConjugatedSingleBond NonConjugatedSingleBond NonConjugatedSingleBond ConjugatedDoubleBond NonConjugatedSingleBond NonConjugatedSingleBond NonConjugatedSingleBond NonConjugatedSingleBond
M  BCL CHI   1   R   4   R   8   R  17   S  20   R  22   S  25   R  29   S  38   S  42   R  46   R  50   S 185   R 187   S 190   S 192   R 194   R 205   R 207   S 210   R 212   S 214   S
M  BCL DBI - - E E E E E E E E Z - -
M  END
> <ConfClashScore>
0.0189382 

> <ConfOneFourInteractionScore>
-0.956471 

> <ConfScore>
2.06501 

> <ConfScorePBest>
0.00634346 

> <ConfTolerance>
4.68444 

$$$$
L05.****
  PyMOL2.5          3D                             0

230233  0  0  0  0  0  0  0  0999 V2000
   12.1414   -3.0696   -3.4711 C   0  0  0  1  0  0  0  0  0  0  0  0
   11.2538   -2.8490   -2.9158 H   0  0  0  1  0  0  0  0  0  0  0  0
   11.9526   -4.2648   -4.2516 O   0  0  0  1  0  0  0  0  0  0  0  0
   12.4377   -1.9477   -4.4472 C   0  0  0  1  0  0  0  0  0  0  0  0
   13.4918   -1.7979   -4.5535 H   0  0  0  1  0  0  0  0  0  0  0  0
   11.8223   -0.7277   -4.0309 O   0  0  0  1  0  0  0  0  0  0  0  0
   11.4291   -0.8469   -3.1633 H   0  0  0  1  0  0  0  0  0  0  0  0
   11.8241   -2.4566   -5.7407 C   0  0  0  1  0  0  0  0  0  0  0  0
   10.7753   -2.2487   -5.7827 H   0  0  0  1  0  0  0  0  0  0  0  0
   12.4690   -1.8882   -6.8814 O   0  0  0  1  0  0  0  0  0  0  0  0
   12.6994   -0.9746   -6.6972 H   0  0  0  1  0  0  0  0  0  0  0  0
   10.1393   -5.5079   -5.5680 C   0  0  0  1  0  0  0  0  0  0  0  0
    9.4007   -5.9968   -6.1683 H   0  0  0  1  0  0  0  0  0  0  0  0
   10.6972   -6.2396   -5.0219 H   0  0  0  1  0  0  0  0  0  0  0  0
    9.4985   -4.6252   -4.6564 O   0  0  0  1  0  0  0  0  0  0  0  0
    8.5651   -4.8427   -4.6023 H   0  0  0  1  0  0  0  0  0  0  0  0
   11.0780   -4.7238   -6.4634 C   0  0  0  1  0  0  0  0  0  0  0  0
   10.4952   -4.0211   -7.0215 H   0  0  0  1  0  0  0  0  0  0  0  0
   11.7794   -5.5737   -7.3636 O   0  0  0  1  0  0  0  0  0  0  0  0
   12.0890   -3.9496   -5.6418 C   0  0  0  1  0  0  0  0  0  0  0  0
   13.0770   -4.1785   -5.9829 H   0  0  0  1  0  0  0  0  0  0  0  0
   12.0456   -4.9779   -8.6209 C   0  0  0  1  0  0  0  0  0  0  0  0
   12.3627   -3.9662   -8.4768 H   0  0  0  1  0  0  0  0  0  0  0  0
   13.0571   -5.7380   -9.3495 O   0  0  0  1  0  0  0  0  0  0  0  0
   10.8242   -5.0346   -9.5095 C   0  0  0  1  0  0  0  0  0  0  0  0
   10.8432   -4.2493  -10.2360 H   0  0  0  1  0  0  0  0  0  0  0  0
    9.6264   -4.9407   -8.7371 O   0  0  0  1  0  0  0  0  0  0  0  0
    9.1291   -5.7580   -8.8164 H   0  0  0  1  0  0  0  0  0  0  0  0
   10.9354   -6.4085  -10.1840 C   0  0  0  1  0  0  0  0  0  0  0  0
   10.5147   -6.3902  -11.1677 H   0  0  0  1  0  0  0  0  0  0  0  0
   10.2896   -7.4146   -9.4092 O   0  0  0  1  0  0  0  0  0  0  0  0
   10.9086   -7.7724   -8.7686 H   0  0  0  1  0  0  0  0  0  0  0  0
   12.4140   -5.1999  -12.4536 C   0  0  0  1  0  0  0  0  0  0  0  0
   12.9160   -5.1401  -13.3967 H   0  0  0  1  0  0  0  0  0  0  0  0
   11.3630   -5.3190  -12.6154 H   0  0  0  1  0  0  0  0  0  0  0  0
   12.6579   -4.0216  -11.6990 O   0  0  0  1  0  0  0  0  0  0  0  0
   12.7635   -4.2504  -10.7726 H   0  0  0  1  0  0  0  0  0  0  0  0
   12.9623   -6.3967  -11.6376 C   0  0  0  1  0  0  0  0  0  0  0  0
   14.0199   -6.2519  -11.5629 H   0  0  0  1  0  0  0  0  0  0  0  0
   12.7380   -7.5868  -12.4141 O   0  0  0  1  0  0  0  0  0  0  0  0
   13.5589   -7.8557  -12.8328 H   0  0  0  1  0  0  0  0  0  0  0  0
   12.4541   -6.6386  -10.2353 C   0  0  0  1  0  0  0  0  0  0  0  0
   12.6794   -7.6426   -9.9419 H   0  0  0  1  0  0  0  0  0  0  0  0
   13.2337   -3.2387   -2.5737 O   0  0  0  1  0  0  0  0  0  0  0  0
   23.8157   -1.8052   -0.6318 O   0  0  0  1  0  0  0  0  0  0  0  0
   23.8529   -3.2572    0.0799 P   0  0  0  1  0  0  0  0  0  0  0  0
   22.4492   -3.8984   -0.3672 O   0  0  0  1  0  0  0  0  0  0  0  0
   23.9683   -3.0215    1.5602 O   0  0  0  0  0  0  0  0  0  0  0  0
   24.9698   -3.9940   -0.4800 O   0  0  0  1  0  0  0  0  0  0  0  0
   21.0001   -3.2053   -0.3541 P   0  0  0  1  0  0  0  0  0  0  0  0
   20.1784   -4.2721    0.4733 O   0  0  0  1  0  0  0  0  0  0  0  0
   20.4830   -3.0577   -1.7534 O   0  0  0  0  0  0  0  0  0  0  0  0
   21.0414   -1.9564    0.4595 O   0  0  0  1  0  0  0  0  0  0  0  0
   24.9172   -0.9559   -0.9897 C   0  0  0  1  0  0  0  0  0  0  0  0
   25.6983   -1.5431   -1.4255 H   0  0  0  1  0  0  0  0  0  0  0  0
   25.2878   -0.4594   -0.1173 H   0  0  0  1  0  0  0  0  0  0  0  0
   24.4347    0.0601   -1.9828 C   0  0  0  1  0  0  0  0  0  0  0  0
   23.6683    0.6886   -1.6679 H   0  0  0  1  0  0  0  0  0  0  0  0
   24.8800    0.2438   -3.2200 C   0  0  0  1  0  0  0  0  0  0  0  0
   24.5519    1.4882   -3.9904 C   0  0  0  1  0  0  0  0  0  0  0  0
   23.5708    1.8237   -3.7261 H   0  0  0  1  0  0  0  0  0  0  0  0
   24.5861    1.2777   -5.0389 H   0  0  0  1  0  0  0  0  0  0  0  0
   25.2646    2.2510   -3.7558 H   0  0  0  1  0  0  0  0  0  0  0  0
   25.7342   -0.7448   -3.9582 C   0  0  0  1  0  0  0  0  0  0  0  0
   25.8978   -1.5925   -3.3260 H   0  0  0  1  0  0  0  0  0  0  0  0
   26.6720   -0.2822   -4.1851 H   0  0  0  1  0  0  0  0  0  0  0  0
   25.1045   -1.2236   -5.2560 C   0  0  0  1  0  0  0  0  0  0  0  0
   25.2273   -0.4518   -5.9869 H   0  0  0  1  0  0  0  0  0  0  0  0
   24.0617   -1.3838   -5.0775 H   0  0  0  1  0  0  0  0  0  0  0  0
   25.6748   -2.4847   -5.8173 C   0  0  0  1  0  0  0  0  0  0  0  0
   25.7563   -3.3117   -5.1920 H   0  0  0  1  0  0  0  0  0  0  0  0
   26.0833   -2.6021   -7.0763 C   0  0  0  1  0  0  0  0  0  0  0  0
   26.3531   -3.9199   -7.7458 C   0  0  0  1  0  0  0  0  0  0  0  0
   26.2441   -3.8115   -8.8047 H   0  0  0  1  0  0  0  0  0  0  0  0
   25.6572   -4.6501   -7.3888 H   0  0  0  1  0  0  0  0  0  0  0  0
   27.3501   -4.2365   -7.5207 H   0  0  0  1  0  0  0  0  0  0  0  0
   26.3107   -1.3990   -7.9432 C   0  0  0  1  0  0  0  0  0  0  0  0
   27.2793   -1.4913   -8.3884 H   0  0  0  1  0  0  0  0  0  0  0  0
   26.2865   -0.5316   -7.3171 H   0  0  0  1  0  0  0  0  0  0  0  0
   25.2987   -1.1997   -9.0597 C   0  0  0  1  0  0  0  0  0  0  0  0
   24.3284   -1.0851   -8.6234 H   0  0  0  1  0  0  0  0  0  0  0  0
   25.3082   -2.0667   -9.6867 H   0  0  0  1  0  0  0  0  0  0  0  0
   25.5879    0.0091   -9.9089 C   0  0  0  1  0  0  0  0  0  0  0  0
   26.5844    0.2294  -10.1089 H   0  0  0  1  0  0  0  0  0  0  0  0
   24.6650    0.8155  -10.4221 C   0  0  0  1  0  0  0  0  0  0  0  0
   23.2069    0.4678  -10.5027 C   0  0  0  1  0  0  0  0  0  0  0  0
   23.0612   -0.4947  -10.0586 H   0  0  0  1  0  0  0  0  0  0  0  0
   22.9217    0.4325  -11.5334 H   0  0  0  1  0  0  0  0  0  0  0  0
   25.0207    2.1677  -10.9731 C   0  0  0  1  0  0  0  0  0  0  0  0
   24.3388    2.4248  -11.7566 H   0  0  0  1  0  0  0  0  0  0  0  0
   26.0173    2.1433  -11.3617 H   0  0  0  1  0  0  0  0  0  0  0  0
   24.9592    2.8977  -10.1932 H   0  0  0  1  0  0  0  0  0  0  0  0
   22.3154    1.4703   -9.7881 C   0  0  0  1  0  0  0  0  0  0  0  0
   21.4877    0.9365   -9.3698 H   0  0  0  1  0  0  0  0  0  0  0  0
   21.9584    2.1707  -10.5140 H   0  0  0  1  0  0  0  0  0  0  0  0
   22.9757    2.2459   -8.6798 C   0  0  0  1  0  0  0  0  0  0  0  0
   23.4816    1.7053   -7.9494 H   0  0  0  1  0  0  0  0  0  0  0  0
   22.9605    3.5695   -8.5652 C   0  0  0  1  0  0  0  0  0  0  0  0
   22.0230    4.4644   -9.3333 C   0  0  0  1  0  0  0  0  0  0  0  0
   21.0312    4.0672   -9.2736 H   0  0  0  1  0  0  0  0  0  0  0  0
   22.3323    4.5004  -10.3570 H   0  0  0  1  0  0  0  0  0  0  0  0
   23.8997    4.2895   -7.6389 C   0  0  0  1  0  0  0  0  0  0  0  0
   23.3431    4.7334   -6.8401 H   0  0  0  1  0  0  0  0  0  0  0  0
   24.4179    5.0535   -8.1799 H   0  0  0  1  0  0  0  0  0  0  0  0
   24.6068    3.5942   -7.2372 H   0  0  0  1  0  0  0  0  0  0  0  0
   22.0313    5.8722   -8.7603 C   0  0  0  1  0  0  0  0  0  0  0  0
   23.0136    6.2808   -8.8748 H   0  0  0  1  0  0  0  0  0  0  0  0
   21.7860    5.8181   -7.7202 H   0  0  0  1  0  0  0  0  0  0  0  0
   21.0487    6.7901   -9.4371 C   0  0  0  1  0  0  0  0  0  0  0  0
   20.4927    6.3815  -10.2152 H   0  0  0  1  0  0  0  0  0  0  0  0
   20.8149    8.0647   -9.1484 C   0  0  0  1  0  0  0  0  0  0  0  0
   21.7540    8.8541   -8.2832 C   0  0  0  1  0  0  0  0  0  0  0  0
   22.6819    8.9518   -8.8069 H   0  0  0  1  0  0  0  0  0  0  0  0
   21.9105    8.3043   -7.3787 H   0  0  0  1  0  0  0  0  0  0  0  0
   19.6204    8.8313   -9.6422 C   0  0  0  1  0  0  0  0  0  0  0  0
   19.9045    9.4358  -10.4781 H   0  0  0  1  0  0  0  0  0  0  0  0
   19.2503    9.4584   -8.8582 H   0  0  0  1  0  0  0  0  0  0  0  0
   18.8558    8.1454   -9.9420 H   0  0  0  1  0  0  0  0  0  0  0  0
   21.2781   10.2482   -7.9082 C   0  0  0  1  0  0  0  0  0  0  0  0
   21.9983   10.6745   -7.2415 H   0  0  0  1  0  0  0  0  0  0  0  0
   20.3386   10.1521   -7.4052 H   0  0  0  1  0  0  0  0  0  0  0  0
   21.0928   11.1976   -9.0598 C   0  0  0  1  0  0  0  0  0  0  0  0
   21.6637   11.0354   -9.9139 H   0  0  0  1  0  0  0  0  0  0  0  0
   20.2549   12.2274   -9.0674 C   0  0  0  1  0  0  0  0  0  0  0  0
   19.1621   12.3558   -8.0383 C   0  0  0  1  0  0  0  0  0  0  0  0
   18.9821   13.3955   -7.8606 H   0  0  0  1  0  0  0  0  0  0  0  0
   19.4907   11.8903   -7.1327 H   0  0  0  1  0  0  0  0  0  0  0  0
   20.3052   13.3423  -10.0735 C   0  0  0  1  0  0  0  0  0  0  0  0
   20.0005   12.9737  -11.0306 H   0  0  0  1  0  0  0  0  0  0  0  0
   21.3046   13.7190  -10.1383 H   0  0  0  1  0  0  0  0  0  0  0  0
   19.6464   14.1281   -9.7679 H   0  0  0  1  0  0  0  0  0  0  0  0
   17.8659   11.7100   -8.4680 C   0  0  0  1  0  0  0  0  0  0  0  0
   18.0921   10.7094   -8.7722 H   0  0  0  1  0  0  0  0  0  0  0  0
   17.4950   12.2628   -9.3057 H   0  0  0  1  0  0  0  0  0  0  0  0
   16.7822   11.6340   -7.4762 C   0  0  0  1  0  0  0  0  0  0  0  0
   16.4302   12.5726   -7.1990 H   0  0  0  1  0  0  0  0  0  0  0  0
   16.1446   10.6440   -6.8486 C   0  0  0  1  0  0  0  0  0  0  0  0
   16.6953    9.2488   -6.8389 C   0  0  0  1  0  0  0  0  0  0  0  0
   17.7609    9.3038   -6.7583 H   0  0  0  1  0  0  0  0  0  0  0  0
   16.4310    8.7719   -7.7596 H   0  0  0  1  0  0  0  0  0  0  0  0
   14.8515   10.8864   -6.1276 C   0  0  0  1  0  0  0  0  0  0  0  0
   14.9962   11.6345   -5.3764 H   0  0  0  1  0  0  0  0  0  0  0  0
   14.5244    9.9776   -5.6671 H   0  0  0  1  0  0  0  0  0  0  0  0
   14.1117   11.2199   -6.8249 H   0  0  0  1  0  0  0  0  0  0  0  0
   16.1658    8.4077   -5.6889 C   0  0  0  1  0  0  0  0  0  0  0  0
   15.1064    8.2990   -5.7925 H   0  0  0  1  0  0  0  0  0  0  0  0
   16.3857    8.8994   -4.7644 H   0  0  0  1  0  0  0  0  0  0  0  0
   16.8040    7.0444   -5.6868 C   0  0  0  1  0  0  0  0  0  0  0  0
   16.6314    6.4504   -6.5228 H   0  0  0  1  0  0  0  0  0  0  0  0
   17.5640    6.5176   -4.7326 C   0  0  0  1  0  0  0  0  0  0  0  0
   17.6592    7.0751   -3.3375 C   0  0  0  1  0  0  0  0  0  0  0  0
   18.2142    7.9896   -3.3623 H   0  0  0  1  0  0  0  0  0  0  0  0
   18.1626    6.3687   -2.7111 H   0  0  0  1  0  0  0  0  0  0  0  0
   18.4048    5.2973   -4.9810 C   0  0  0  1  0  0  0  0  0  0  0  0
   19.1580    5.5241   -5.7064 H   0  0  0  1  0  0  0  0  0  0  0  0
   17.7847    4.5056   -5.3467 H   0  0  0  1  0  0  0  0  0  0  0  0
   18.8704    4.9931   -4.0669 H   0  0  0  1  0  0  0  0  0  0  0  0
   16.2755    7.3470   -2.7702 C   0  0  0  1  0  0  0  0  0  0  0  0
   15.7452    6.4184   -2.7343 H   0  0  0  1  0  0  0  0  0  0  0  0
   15.7732    8.0198   -3.4335 H   0  0  0  1  0  0  0  0  0  0  0  0
   16.2507    7.9492   -1.3923 C   0  0  0  1  0  0  0  0  0  0  0  0
   16.8119    7.4634   -0.6639 H   0  0  0  1  0  0  0  0  0  0  0  0
   15.5894    9.0345   -1.0046 C   0  0  0  1  0  0  0  0  0  0  0  0
   15.3493    9.3944    0.4328 C   0  0  0  1  0  0  0  0  0  0  0  0
   15.5926    8.5484    1.0410 H   0  0  0  1  0  0  0  0  0  0  0  0
   14.3141    9.6363    0.5550 H   0  0  0  1  0  0  0  0  0  0  0  0
   15.0193   10.0054   -1.9999 C   0  0  0  1  0  0  0  0  0  0  0  0
   15.1558   10.9736   -1.5654 H   0  0  0  1  0  0  0  0  0  0  0  0
   13.9793    9.8103   -2.1589 H   0  0  0  1  0  0  0  0  0  0  0  0
   15.5420    9.9365   -2.9310 H   0  0  0  1  0  0  0  0  0  0  0  0
   16.1809   10.5791    0.8969 C   0  0  0  1  0  0  0  0  0  0  0  0
   15.8682   11.4476    0.3558 H   0  0  0  1  0  0  0  0  0  0  0  0
   17.2099   10.3770    0.6843 H   0  0  0  1  0  0  0  0  0  0  0  0
   16.0429   10.8538    2.3560 C   0  0  0  1  0  0  0  0  0  0  0  0
   16.3471   10.0818    2.9828 H   0  0  0  1  0  0  0  0  0  0  0  0
   15.5869   11.9435    2.9765 C   0  0  0  1  0  0  0  0  0  0  0  0
   15.3911   11.9659    4.4635 C   0  0  0  1  0  0  0  0  0  0  0  0
   15.0046   12.9190    4.7585 H   0  0  0  1  0  0  0  0  0  0  0  0
   16.3293   11.7959    4.9490 H   0  0  0  1  0  0  0  0  0  0  0  0
   14.6998   11.1987    4.7435 H   0  0  0  1  0  0  0  0  0  0  0  0
   15.2516   13.1902    2.2120 C   0  0  0  1  0  0  0  0  0  0  0  0
   15.8377   13.9849    2.6241 H   0  0  0  1  0  0  0  0  0  0  0  0
   14.2100   13.4129    2.3142 H   0  0  0  1  0  0  0  0  0  0  0  0
   15.4890   13.0594    1.1769 H   0  0  0  1  0  0  0  0  0  0  0  0
   16.0407   -5.1703   -1.5748 C   0  0  0  1  0  0  0  0  0  0  0  0
   16.2453   -5.7178   -0.6785 H   0  0  0  1  0  0  0  0  0  0  0  0
   14.8655   -5.8029   -2.2925 C   0  0  0  1  0  0  0  0  0  0  0  0
   15.1112   -6.8071   -2.5685 H   0  0  0  1  0  0  0  0  0  0  0  0
   15.7364   -3.8185   -1.2433 O   0  0  0  1  0  0  0  0  0  0  0  0
   14.5578   -4.9913   -3.5404 C   0  0  0  1  0  0  0  0  0  0  0  0
   13.6272   -5.3297   -3.9459 H   0  0  0  1  0  0  0  0  0  0  0  0
   15.6184   -3.0018   -2.4281 C   0  0  0  1  0  0  0  0  0  0  0  0
   16.5225   -3.0651   -2.9968 H   0  0  0  1  0  0  0  0  0  0  0  0
   14.4535   -3.4995   -3.2698 C   0  0  0  1  0  0  0  0  0  0  0  0
   14.4509   -2.9765   -4.2032 H   0  0  0  1  0  0  0  0  0  0  0  0
   17.1834   -5.2023   -2.4221 O   0  0  0  1  0  0  0  0  0  0  0  0
   13.7251   -5.8104   -1.4317 O   0  0  0  1  0  0  0  0  0  0  0  0
   13.8061   -5.1043   -0.7864 H   0  0  0  1  0  0  0  0  0  0  0  0
   15.5939   -5.2075   -4.4870 O   0  0  0  1  0  0  0  0  0  0  0  0
   15.2575   -5.0490   -5.3721 H   0  0  0  1  0  0  0  0  0  0  0  0
   15.3740   -1.5665   -2.0283 C   0  0  0  1  0  0  0  0  0  0  0  0
   14.6924   -1.1146   -2.7183 H   0  0  0  1  0  0  0  0  0  0  0  0
   16.3001   -1.0307   -2.0396 H   0  0  0  1  0  0  0  0  0  0  0  0
   14.9563   -1.5370   -1.0436 H   0  0  0  1  0  0  0  0  0  0  0  0
   20.0168   -5.6289   -0.0154 C   0  0  0  1  0  0  0  0  0  0  0  0
   20.1523   -6.3178    0.7920 H   0  0  0  1  0  0  0  0  0  0  0  0
   18.6107   -5.7959   -0.5950 C   0  0  0  1  0  0  0  0  0  0  0  0
   17.8839   -5.5432    0.1485 H   0  0  0  1  0  0  0  0  0  0  0  0
   20.9961   -5.8887   -1.0333 O   0  0  0  1  0  0  0  0  0  0  0  0
   18.4335   -4.9064   -1.8086 C   0  0  0  1  0  0  0  0  0  0  0  0
   18.4445   -3.8833   -1.4957 H   0  0  0  1  0  0  0  0  0  0  0  0
   20.9081   -4.9979   -2.1381 C   0  0  0  1  0  0  0  0  0  0  0  0
   21.0314   -3.9934   -1.7906 H   0  0  0  1  0  0  0  0  0  0  0  0
   19.5516   -5.1283   -2.8249 C   0  0  0  1  0  0  0  0  0  0  0  0
   19.4595   -6.1076   -3.2459 H   0  0  0  1  0  0  0  0  0  0  0  0
   18.4172   -7.1969   -1.0463 N   0  0  0  1  0  0  0  0  0  0  0  0
   17.5394   -7.4665   -1.3888 H   0  0  0  1  0  0  0  0  0  0  0  0
   19.4496   -4.1507   -3.8634 O   0  0  0  1  0  0  0  0  0  0  0  0
   20.3025   -3.7122   -3.9084 H   0  0  0  1  0  0  0  0  0  0  0  0
   21.9952   -5.3248   -3.1246 C   0  0  0  1  0  0  0  0  0  0  0  0
   21.8975   -4.6768   -3.9704 H   0  0  0  1  0  0  0  0  0  0  0  0
   21.8798   -6.3413   -3.4383 H   0  0  0  1  0  0  0  0  0  0  0  0
   23.2953   -5.1624   -2.5733 O   0  0  0  1  0  0  0  0  0  0  0  0
   23.6552   -4.3317   -2.8927 H   0  0  0  1  0  0  0  0  0  0  0  0
   19.4487   -8.1498   -0.9994 C   0  0  0  1  0  0  0  0  0  0  0  0
   20.4267   -7.9923   -0.2698 O   0  0  0  1  0  0  0  0  0  0  0  0
   19.3255   -9.3493   -1.8531 C   0  0  0  1  0  0  0  0  0  0  0  0
   19.3254   -8.9663   -2.8522 H   0  0  0  1  0  0  0  0  0  0  0  0
   18.4130   -9.8686   -1.6468 H   0  0  0  1  0  0  0  0  0  0  0  0
   20.1541  -10.0089   -1.7008 H   0  0  0  1  0  0  0  0  0  0  0  0
  1  2  1  0  0  0  0
  1  3  1  0  0  0  0
  1  4  1  0  0  0  0
  1 44  1  0  0  0  0
  3 20  1  0  0  0  0
  4  5  1  0  0  0  0
  4  6  1  0  0  0  0
  4  8  1  0  0  0  0
  6  7  1  0  0  0  0
  8  9  1  0  0  0  0
  8 10  1  0  0  0  0
  8 20  1  0  0  0  0
 10 11  1  0  0  0  0
 12 13  1  0  0  0  0
 12 14  1  0  0  0  0
 12 15  1  0  0  0  0
 12 17  1  0  0  0  0
 15 16  1  0  0  0  0
 17 18  1  0  0  0  0
 17 19  1  0  0  0  0
 17 20  1  0  0  0  0
 19 22  1  0  0  0  0
 20 21  1  0  0  0  0
 22 23  1  0  0  0  0
 22 24  1  0  0  0  0
 22 25  1  0  0  0  0
 24 42  1  0  0  0  0
 25 26  1  0  0  0  0
 25 27  1  0  0  0  0
 25 29  1  0  0  0  0
 27 28  1  0  0  0  0
 29 30  1  0  0  0  0
 29 31  1  0  0  0  0
 29 42  1  0  0  0  0
 31 32  1  0  0  0  0
 33 34  1  0  0  0  0
 33 35  1  0  0  0  0
 33 36  1  0  0  0  0
 33 38  1  0  0  0  0
 36 37  1  0  0  0  0
 38 39  1  0  0  0  0
 38 40  1  0  0  0  0
 38 42  1  0  0  0  0
 40 41  1  0  0  0  0
 42 43  1  0  0  0  0
 44194  1  0  0  0  0
 45 46  1  0  0  0  0
 45 54  1  0  0  0  0
 46 47  1  0  0  0  0
 46 48  1  0  0  0  0
 46 49  2  0  0  0  0
 47 50  1  0  0  0  0
 50 51  1  0  0  0  0
 50 52  1  0  0  0  0
 50 53  2  0  0  0  0
 51205  1  0  0  0  0
 54 55  1  0  0  0  0
 54 56  1  0  0  0  0
 54 57  1  0  0  0  0
 57 58  1  0  0  0  0
 57 59  2  0  0  0  0
 59 60  1  0  0  0  0
 59 64  1  0  0  0  0
 60 61  1  0  0  0  0
 60 62  1  0  0  0  0
 60 63  1  0  0  0  0
 64 65  1  0  0  0  0
 64 66  1  0  0  0  0
 64 67  1  0  0  0  0
 67 68  1  0  0  0  0
 67 69  1  0  0  0  0
 67 70  1  0  0  0  0
 70 71  1  0  0  0  0
 70 72  2  0  0  0  0
 72 73  1  0  0  0  0
 72 77  1  0  0  0  0
 73 74  1  0  0  0  0
 73 75  1  0  0  0  0
 73 76  1  0  0  0  0
 77 78  1  0  0  0  0
 77 79  1  0  0  0  0
 77 80  1  0  0  0  0
 80 81  1  0  0  0  0
 80 82  1  0  0  0  0
 80 83  1  0  0  0  0
 83 84  1  0  0  0  0
 83 85  2  0  0  0  0
 85 86  1  0  0  0  0
 85 89  1  0  0  0  0
 86 87  1  0  0  0  0
 86 88  1  0  0  0  0
 86 93  1  0  0  0  0
 89 90  1  0  0  0  0
 89 91  1  0  0  0  0
 89 92  1  0  0  0  0
 93 94  1  0  0  0  0
 93 95  1  0  0  0  0
 93 96  1  0  0  0  0
 96 97  1  0  0  0  0
 96 98  2  0  0  0  0
 98 99  1  0  0  0  0
 98102  1  0  0  0  0
 99100  1  0  0  0  0
 99101  1  0  0  0  0
 99106  1  0  0  0  0
102103  1  0  0  0  0
102104  1  0  0  0  0
102105  1  0  0  0  0
106107  1  0  0  0  0
106108  1  0  0  0  0
106109  1  0  0  0  0
109110  1  0  0  0  0
109111  2  0  0  0  0
111112  1  0  0  0  0
111115  1  0  0  0  0
112113  1  0  0  0  0
112114  1  0  0  0  0
112119  1  0  0  0  0
115116  1  0  0  0  0
115117  1  0  0  0  0
115118  1  0  0  0  0
119120  1  0  0  0  0
119121  1  0  0  0  0
119122  1  0  0  0  0
122123  1  0  0  0  0
122124  2  0  0  0  0
124125  1  0  0  0  0
124128  1  0  0  0  0
125126  1  0  0  0  0
125127  1  0  0  0  0
125132  1  0  0  0  0
128129  1  0  0  0  0
128130  1  0  0  0  0
128131  1  0  0  0  0
132133  1  0  0  0  0
132134  1  0  0  0  0
132135  1  0  0  0  0
135136  1  0  0  0  0
135137  2  0  0  0  0
137138  1  0  0  0  0
137141  1  0  0  0  0
138139  1  0  0  0  0
138140  1  0  0  0  0
138145  1  0  0  0  0
141142  1  0  0  0  0
141143  1  0  0  0  0
141144  1  0  0  0  0
145146  1  0  0  0  0
145147  1  0  0  0  0
145148  1  0  0  0  0
148149  1  0  0  0  0
148150  2  0  0  0  0
150151  1  0  0  0  0
150154  1  0  0  0  0
151152  1  0  0  0  0
151153  1  0  0  0  0
151158  1  0  0  0  0
154155  1  0  0  0  0
154156  1  0  0  0  0
154157  1  0  0  0  0
158159  1  0  0  0  0
158160  1  0  0  0  0
158161  1  0  0  0  0
161162  1  0  0  0  0
161163  2  0  0  0  0
163164  1  0  0  0  0
163167  1  0  0  0  0
164165  1  0  0  0  0
164166  1  0  0  0  0
164171  1  0  0  0  0
167168  1  0  0  0  0
167169  1  0  0  0  0
167170  1  0  0  0  0
171172  1  0  0  0  0
171173  1  0  0  0  0
171174  1  0  0  0  0
174175  1  0  0  0  0
174176  2  0  0  0  0
176177  1  0  0  0  0
176181  1  0  0  0  0
177178  1  0  0  0  0
177179  1  0  0  0  0
177180  1  0  0  0  0
181182  1  0  0  0  0
181183  1  0  0  0  0
181184  1  0  0  0  0
185186  1  0  0  0  0
185187  1  0  0  0  0
185189  1  0  0  0  0
185196  1  0  0  0  0
187188  1  0  0  0  0
187190  1  0  0  0  0
187197  1  0  0  0  0
189192  1  0  0  0  0
190191  1  0  0  0  0
190194  1  0  0  0  0
190199  1  0  0  0  0
192193  1  0  0  0  0
192194  1  0  0  0  0
192201  1  0  0  0  0
194195  1  0  0  0  0
196210  1  0  0  0  0
197198  1  0  0  0  0
199200  1  0  0  0  0
201202  1  0  0  0  0
201203  1  0  0  0  0
201204  1  0  0  0  0
205206  1  0  0  0  0
205207  1  0  0  0  0
205209  1  0  0  0  0
207208  1  0  0  0  0
207210  1  0  0  0  0
207216  1  0  0  0  0
209212  1  0  0  0  0
210211  1  0  0  0  0
210214  1  0  0  0  0
212213  1  0  0  0  0
212214  1  0  0  0  0
212220  1  0  0  0  0
214215  1  0  0  0  0
214218  1  0  0  0  0
216217  1  0  0  0  0
216225  1  0  0  0  0
218219  1  0  0  0  0
220221  1  0  0  0  0
220222  1  0  0  0  0
220223  1  0  0  0  0
223224  1  0  0  0  0
225226  2  0  0  0  0
225227  1  0  0  0  0
227228  1  0  0  0  0
227229  1  0  0  0  0
227230  1  0  0  0  0
M  BCL ATM C_TeTeTeTe H_S O_Te2Te2TeTe C_TeTeTeTe H_S O_Te2Te2TeTe H_S C_TeTeTeTe H_S O_Te2Te2TeTe H_S C_TeTeTeTe H_S H_S O_Te2Te2TeTe H_S C_TeTeTeTe H_S O_Te2Te2TeTe C_TeTeTeTe H_S C_TeTeTeTe H_S O_Te2Te2TeTe C_TeTeTeTe H_S O_Te2Te2TeTe H_S C_TeTeTeTe H_S O_Te2Te2TeTe H_S C_TeTeTeTe H_S H_S O_Te2Te2TeTe H_S C_TeTeTeTe H_S O_Te2Te2TeTe H_S C_TeTeTeTe H_S O_Te2Te2TeTe O_Tr2TrTrPi2 P_TeTeTeTePi O_Tr2TrTrPi2 O_Te2Te2TeTe O_Tr2Tr2TrPi P_TeTeTeTePi O_Tr2TrTrPi2 O_Te2Te2TeTe O_Tr2Tr2TrPi C_TeTeTeTe H_S H_S C_TrTrTrPi H_S C_TrTrTrPi C_TeTeTeTe H_S H_S H_S C_TeTeTeTe H_S H_S C_TeTeTeTe H_S H_S C_TrTrTrPi H_S C_TrTrTrPi C_TeTeTeTe H_S H_S H_S C_TeTeTeTe H_S H_S C_TeTeTeTe H_S H_S C_TrTrTrPi H_S C_TrTrTrPi C_TeTeTeTe H_S H_S C_TeTeTeTe H_S H_S H_S C_TeTeTeTe H_S H_S C_TrTrTrPi H_S C_TrTrTrPi C_TeTeTeTe H_S H_S C_TeTeTeTe H_S H_S H_S C_TeTeTeTe H_S H_S C_TrTrTrPi H_S C_TrTrTrPi C_TeTeTeTe H_S H_S C_TeTeTeTe H_S H_S H_S C_TeTeTeTe H_S H_S C_TrTrTrPi H_S C_TrTrTrPi C_TeTeTeTe H_S H_S C_TeTeTeTe H_S H_S H_S C_TeTeTeTe H_S H_S C_TrTrTrPi H_S C_TrTrTrPi C_TeTeTeTe H_S H_S C_TeTeTeTe H_S H_S H_S C_TeTeTeTe H_S H_S C_TrTrTrPi H_S C_TrTrTrPi C_TeTeTeTe H_S H_S C_TeTeTeTe H_S H_S H_S C_TeTeTeTe H_S H_S C_TrTrTrPi H_S C_TrTrTrPi C_TeTeTeTe H_S H_S C_TeTeTeTe H_S H_S H_S C_TeTeTeTe H_S H_S C_TrTrTrPi H_S C_TrTrTrPi C_TeTeTeTe H_S H_S H_S C_TeTeTeTe H_S H_S H_S C_TeTeTeTe H_S C_TeTeTeTe H_S O_Te2Te2TeTe C_TeTeTeTe H_S C_TeTeTeTe H_S C_TeTeTeTe H_S O_Te2Te2TeTe O_Te2Te2TeTe H_S O_Te2Te2TeTe H_S C_TeTeTeTe H_S H_S H_S C_TeTeTeTe H_S C_TeTeTeTe H_S O_Te2Te2TeTe C_TeTeTeTe H_S C_TeTeTeTe H_S C_TeTeTeTe H_S N_TrTrTrPi2 H_S O_Te2Te2TeTe H_S C_TeTeTeTe H_S H_S O_Te2Te2TeTe H_S C_TrTrTrPi O_Tr2Tr2TrPi C_TeTeTeTe H_S H_S H_S
M  BCL BND NonConjugatedSingleBond NonConjugatedSingleBondInRing NonConjugatedSingleBondInRing NonConjugatedSingleBond NonConjugatedSingleBondInRing NonConjugatedSingleBond NonConjugatedSingleBond NonConjugatedSingleBondInRing NonConjugatedSingleBond NonConjugatedSingleBond NonConjugatedSingleBond NonConjugatedSingleBondInRing NonConjugatedSingleBond NonConjugatedSingleBond NonConjugatedSingleBond NonConjugatedSingleBond NonConjugatedSingleBond NonConjugatedSingleBond NonConjugatedSingleBond NonConjugatedSingleBond NonConjugatedSingleBond NonConjugatedSingleBond NonConjugatedSingleBond NonConjugatedSingleBond NonConjugatedSingleBondInRing NonConjugatedSingleBondInRing NonConjugatedSingleBondInRing NonConjugatedSingleBond NonConjugatedSingleBond NonConjugatedSingleBondInRing NonConjugatedSingleBond NonConjugatedSingleBond NonConjugatedSingleBond NonConjugatedSingleBondInRing NonConjugatedSingleBond NonConjugatedSingleBond NonConjugatedSingleBond NonConjugatedSingleBond NonConjugatedSingleBond NonConjugatedSingleBond NonConjugatedSingleBond NonConjugatedSingleBond NonConjugatedSingleBond NonConjugatedSingleBond NonConjugatedSingleBond NonConjugatedSingleBond ConjugatedSingleBond NonConjugatedSingleBond ConjugatedSingleBond ConjugatedSingleBond ConjugatedDoubleBond ConjugatedSingleBond ConjugatedSingleBond ConjugatedSingleBond ConjugatedDoubleBond NonConjugatedSingleBond NonConjugatedSingleBond NonConjugatedSingleBond NonConjugatedSingleBond NonConjugatedSingleBond ConjugatedDoubleBond NonConjugatedSingleBond NonConjugatedSingleBond NonConjugatedSingleBond NonConjugatedSingleBond NonConjugatedSingleBond NonConjugatedSingleBond NonConjugatedSingleBond NonConjugatedSingleBond NonConjugatedSingleBond NonConjugatedSingleBond NonConjugatedSingleBond NonConjugatedSingleBond ConjugatedDoubleBond NonConjugatedSingleBond NonConjugatedSingleBond NonConjugatedSingleBond NonConjugatedSingleBond NonConjugatedSingleBond NonConjugatedSingleBond NonConjugatedSingleBond NonConjugatedSingleBond NonConjugatedSingleBond NonConjugatedSingleBond NonConjugatedSingleBond NonConjugatedSingleBond ConjugatedDoubleBond NonConjugatedSingleBond NonConjugatedSingleBond NonConjugatedSingleBond NonConjugatedSingleBond NonConjugatedSingleBond NonConjugatedSingleBond NonConjugatedSingleBond NonConjugatedSingleBond NonConjugatedSingleBond NonConjugatedSingleBond NonConjugatedSingleBond NonConjugatedSingleBond ConjugatedDoubleBond NonConjugatedSingleBond NonConjugatedSingleBond NonConjugatedSingleBond NonConjugatedSingleBond NonConjugatedSingleBond NonConjugatedSingleBond NonConjugatedSingleBond NonConjugatedSingleBond NonConjugatedSingleBond NonConjugatedSingleBond NonConjugatedSingleBond NonConjugatedSingleBond ConjugatedDoubleBond NonConjugatedSingleBond NonConjugatedSingleBond NonConjugatedSingleBond NonConjugatedSingleBond NonConjugatedSingleBond NonConjugatedSingleBond NonConjugatedSingleBond NonConjugatedSingleBond NonConjugatedSingleBond NonConjugatedSingleBond NonConjugatedSingleBond NonConjugatedSingleBond ConjugatedDoubleBond NonConjugatedSingleBond NonConjugatedSingleBond NonConjugatedSingleBond NonConjugatedSingleBond NonConjugatedSingleBond NonConjugatedSingleBond NonConjugatedSingleBond NonConjugatedSingleBond NonConjugatedSingleBond NonConjugatedSingleBond NonConjugatedSingleBond NonConjugatedSingleBond ConjugatedDoubleBond NonConjugatedSingleBond NonConjugatedSingleBond NonConjugatedSingleBond NonConjugatedSingleBond NonConjugatedSingleBond NonConjugatedSingleBond NonConjugatedSingleBond NonConjugatedSingleBond NonConjugatedSingleBond NonConjugatedSingleBond NonConjugatedSingleBond NonConjugatedSingleBond ConjugatedDoubleBond NonConjugatedSingleBond NonConjugatedSingleBond NonConjugatedSingleBond NonConjugatedSingleBond NonConjugatedSingleBond NonConjugatedSingleBond NonConjugatedSingleBond NonConjugatedSingleBond NonConjugatedSingleBond NonConjugatedSingleBond NonConjugatedSingleBond NonConjugatedSingleBond ConjugatedDoubleBond NonConjugatedSingleBond NonConjugatedSingleBond NonConjugatedSingleBond NonConjugatedSingleBond NonConjugatedSingleBond NonConjugatedSingleBond NonConjugatedSingleBond NonConjugatedSingleBond NonConjugatedSingleBond NonConjugatedSingleBond NonConjugatedSingleBond NonConjugatedSingleBond ConjugatedDoubleBond NonConjugatedSingleBond NonConjugatedSingleBond NonConjugatedSingleBond NonConjugatedSingleBond NonConjugatedSingleBond NonConjugatedSingleBond NonConjugatedSingleBond NonConjugatedSingleBond NonConjugatedSingleBond NonConjugatedSingleBondInRing NonConjugatedSingleBondInRing NonConjugatedSingleBond NonConjugatedSingleBond NonConjugatedSingleBondInRing NonConjugatedSingleBond NonConjugatedSingleBondInRing NonConjugatedSingleBond NonConjugatedSingleBondInRing NonConjugatedSingleBond NonConjugatedSingleBond NonConjugatedSingleBondInRing NonConjugatedSingleBond NonConjugatedSingleBond NonConjugatedSingleBond NonConjugatedSingleBond NonConjugatedSingleBond NonConjugatedSingleBond NonConjugatedSingleBond NonConjugatedSingleBond NonConjugatedSingleBond NonConjugatedSingleBondInRing NonConjugatedSingleBondInRing NonConjugatedSingleBond NonConjugatedSingleBondInRing NonConjugatedSingleBond NonConjugatedSingleBondInRing NonConjugatedSingleBond NonConjugatedSingleBondInRing NonConjugatedSingleBond NonConjugatedSingleBondInRing NonConjugatedSingleBond NonConjugatedSingleBond NonConjugatedSingleBond NonConjugatedSingleBond AmideSingleBond NonConjugatedSingleBond NonConjugatedSingleBond NonConjugatedSingleBond NonConjugatedSingleBond NonConjugatedSingleBond ConjugatedDoubleBond NonConjugatedSingleBond NonConjugatedSingleBond NonConjugatedSingleBond NonConjugatedSingleBond
M  BCL CHI   1   R   4   R   8   R  17   S  20   R  22   S  25   R  29   S  38   S  42   R  46   R  50   S 185   R 187   S 190   S 192   R 194   R 205   R 207   S 210   R 212   S 214   S
M  BCL DBI - - E E E E E E E E Z - -
M  END
> <ConfClashScore>
0.0131303 

> <ConfOneFourInteractionScore>
-0.959509 

> <ConfScore>
2.08988 

> <ConfScorePBest>
0.00624046 

> <ConfTolerance>
4.94958 

$$$$
L05.****
  PyMOL2.5          3D                             0

230233  0  0  0  0  0  0  0  0999 V2000
   11.9384   -3.0850   -2.4555 C   0  0  0  1  0  0  0  0  0  0  0  0
   11.6444   -2.0630   -2.3373 H   0  0  0  1  0  0  0  0  0  0  0  0
   11.0916   -3.9225   -1.7223 O   0  0  0  1  0  0  0  0  0  0  0  0
   11.7909   -3.5173   -3.9230 C   0  0  0  1  0  0  0  0  0  0  0  0
   12.4545   -4.3234   -4.1566 H   0  0  0  1  0  0  0  0  0  0  0  0
   12.0373   -2.4246   -4.8094 O   0  0  0  1  0  0  0  0  0  0  0  0
   12.5444   -2.7324   -5.5642 H   0  0  0  1  0  0  0  0  0  0  0  0
   10.3410   -3.9633   -3.9930 C   0  0  0  1  0  0  0  0  0  0  0  0
    9.6954   -3.1409   -4.2207 H   0  0  0  1  0  0  0  0  0  0  0  0
   10.1657   -4.9915   -4.9689 O   0  0  0  1  0  0  0  0  0  0  0  0
    9.2462   -5.0195   -5.2432 H   0  0  0  1  0  0  0  0  0  0  0  0
    8.4473   -2.5913   -2.3259 C   0  0  0  1  0  0  0  0  0  0  0  0
    7.7235   -2.2463   -1.6173 H   0  0  0  1  0  0  0  0  0  0  0  0
    9.3669   -2.0632   -2.1831 H   0  0  0  1  0  0  0  0  0  0  0  0
    7.9662   -2.3233   -3.6364 O   0  0  0  1  0  0  0  0  0  0  0  0
    7.4536   -1.5116   -3.6298 H   0  0  0  1  0  0  0  0  0  0  0  0
    8.6943   -4.0764   -2.0889 C   0  0  0  1  0  0  0  0  0  0  0  0
    7.9777   -4.6158   -2.6724 H   0  0  0  1  0  0  0  0  0  0  0  0
    8.5151   -4.4189   -0.7195 O   0  0  0  1  0  0  0  0  0  0  0  0
   10.0778   -4.4997   -2.5642 C   0  0  0  1  0  0  0  0  0  0  0  0
   10.1490   -5.5673   -2.5506 H   0  0  0  1  0  0  0  0  0  0  0  0
    7.3504   -3.8440   -0.1893 C   0  0  0  1  0  0  0  0  0  0  0  0
    7.2047   -4.1913    0.8122 H   0  0  0  1  0  0  0  0  0  0  0  0
    7.4404   -2.4350   -0.2144 O   0  0  0  1  0  0  0  0  0  0  0  0
    6.1491   -4.1897   -1.0504 C   0  0  0  1  0  0  0  0  0  0  0  0
    5.7002   -5.1092   -0.7375 H   0  0  0  1  0  0  0  0  0  0  0  0
    6.5106   -4.2806   -2.4293 O   0  0  0  1  0  0  0  0  0  0  0  0
    6.0515   -3.5997   -2.9265 H   0  0  0  1  0  0  0  0  0  0  0  0
    5.2290   -3.0220   -0.8037 C   0  0  0  1  0  0  0  0  0  0  0  0
    4.7015   -3.1291    0.1210 H   0  0  0  1  0  0  0  0  0  0  0  0
    4.2954   -2.8619   -1.8679 O   0  0  0  1  0  0  0  0  0  0  0  0
    3.6736   -3.5932   -1.8614 H   0  0  0  1  0  0  0  0  0  0  0  0
    6.6161    0.4589    0.2414 C   0  0  0  1  0  0  0  0  0  0  0  0
    6.0103    1.3128    0.4622 H   0  0  0  1  0  0  0  0  0  0  0  0
    7.3138    0.3005    1.0370 H   0  0  0  1  0  0  0  0  0  0  0  0
    7.3455    0.7294   -0.9363 O   0  0  0  1  0  0  0  0  0  0  0  0
    6.8757    1.3813   -1.4616 H   0  0  0  1  0  0  0  0  0  0  0  0
    5.7037   -0.7638    0.1572 C   0  0  0  1  0  0  0  0  0  0  0  0
    4.7831   -0.4247   -0.2698 H   0  0  0  1  0  0  0  0  0  0  0  0
    5.4110   -1.2611    1.4736 O   0  0  0  1  0  0  0  0  0  0  0  0
    5.9902   -2.0002    1.6731 H   0  0  0  1  0  0  0  0  0  0  0  0
    6.2181   -1.8585   -0.7499 C   0  0  0  1  0  0  0  0  0  0  0  0
    6.3864   -1.4613   -1.7292 H   0  0  0  1  0  0  0  0  0  0  0  0
   13.2854   -3.2446   -2.0257 O   0  0  0  1  0  0  0  0  0  0  0  0
   21.3084   -2.1164    3.0496 O   0  0  0  1  0  0  0  0  0  0  0  0
   22.0534   -2.3935    1.6660 P   0  0  0  1  0  0  0  0  0  0  0  0
   20.8413   -2.0409    0.6722 O   0  0  0  1  0  0  0  0  0  0  0  0
   22.4252   -3.8225    1.5346 O   0  0  0  0  0  0  0  0  0  0  0  0
   23.0035   -1.3390    1.4794 O   0  0  0  1  0  0  0  0  0  0  0  0
   20.7928   -1.3659   -0.6786 P   0  0  0  1  0  0  0  0  0  0  0  0
   19.9779   -2.2980   -1.6497 O   0  0  0  1  0  0  0  0  0  0  0  0
   22.1605   -1.3445   -1.3568 O   0  0  0  0  0  0  0  0  0  0  0  0
   20.0916   -0.0307   -0.6895 O   0  0  0  1  0  0  0  0  0  0  0  0
   20.5393   -0.9209    3.2444 C   0  0  0  1  0  0  0  0  0  0  0  0
   20.5612   -0.3372    2.3479 H   0  0  0  1  0  0  0  0  0  0  0  0
   20.9623   -0.3562    4.0488 H   0  0  0  1  0  0  0  0  0  0  0  0
   19.1215   -1.2646    3.5748 C   0  0  0  1  0  0  0  0  0  0  0  0
   18.6457   -1.9335    2.9362 H   0  0  0  1  0  0  0  0  0  0  0  0
   18.4047   -0.8085    4.5950 C   0  0  0  1  0  0  0  0  0  0  0  0
   16.9110   -0.9670    4.6331 C   0  0  0  1  0  0  0  0  0  0  0  0
   16.5997   -1.1778    5.6349 H   0  0  0  1  0  0  0  0  0  0  0  0
   16.6218   -1.7740    3.9928 H   0  0  0  1  0  0  0  0  0  0  0  0
   16.4479   -0.0622    4.2989 H   0  0  0  1  0  0  0  0  0  0  0  0
   18.9930   -0.1054    5.7857 C   0  0  0  1  0  0  0  0  0  0  0  0
   20.0575   -0.0869    5.6787 H   0  0  0  1  0  0  0  0  0  0  0  0
   18.7321   -0.6525    6.6675 H   0  0  0  1  0  0  0  0  0  0  0  0
   18.4973    1.3234    5.9385 C   0  0  0  1  0  0  0  0  0  0  0  0
   17.4494    1.3100    6.1543 H   0  0  0  1  0  0  0  0  0  0  0  0
   18.6669    1.8532    5.0244 H   0  0  0  1  0  0  0  0  0  0  0  0
   19.2180    2.0189    7.0494 C   0  0  0  1  0  0  0  0  0  0  0  0
   20.2573    1.9828    7.0457 H   0  0  0  1  0  0  0  0  0  0  0  0
   18.6293    2.6794    8.0407 C   0  0  0  1  0  0  0  0  0  0  0  0
   19.3336    3.0901    9.3028 C   0  0  0  1  0  0  0  0  0  0  0  0
   18.7195    2.8556   10.1471 H   0  0  0  1  0  0  0  0  0  0  0  0
   19.5208    4.1434    9.2798 H   0  0  0  1  0  0  0  0  0  0  0  0
   20.2621    2.5639    9.3802 H   0  0  0  1  0  0  0  0  0  0  0  0
   17.1833    3.0733    7.9718 C   0  0  0  1  0  0  0  0  0  0  0  0
   17.0320    3.9252    8.6013 H   0  0  0  1  0  0  0  0  0  0  0  0
   16.5905    2.2566    8.3276 H   0  0  0  1  0  0  0  0  0  0  0  0
   16.7282    3.4245    6.5647 C   0  0  0  1  0  0  0  0  0  0  0  0
   16.8900    2.5693    5.9424 H   0  0  0  1  0  0  0  0  0  0  0  0
   17.3296    4.2383    6.2169 H   0  0  0  1  0  0  0  0  0  0  0  0
   15.2946    3.8232    6.4363 C   0  0  0  1  0  0  0  0  0  0  0  0
   14.5826    3.2880    6.9731 H   0  0  0  1  0  0  0  0  0  0  0  0
   14.8840    4.8280    5.6699 C   0  0  0  1  0  0  0  0  0  0  0  0
   15.8070    5.6781    4.8460 C   0  0  0  1  0  0  0  0  0  0  0  0
   15.2259    6.2987    4.1963 H   0  0  0  1  0  0  0  0  0  0  0  0
   16.4404    5.0437    4.2618 H   0  0  0  1  0  0  0  0  0  0  0  0
   13.4307    5.1969    5.5687 C   0  0  0  1  0  0  0  0  0  0  0  0
   13.2524    5.6942    4.6382 H   0  0  0  1  0  0  0  0  0  0  0  0
   13.1713    5.8487    6.3766 H   0  0  0  1  0  0  0  0  0  0  0  0
   12.8337    4.3104    5.6191 H   0  0  0  1  0  0  0  0  0  0  0  0
   16.6684    6.5582    5.7370 C   0  0  0  1  0  0  0  0  0  0  0  0
   17.2667    5.9283    6.3617 H   0  0  0  1  0  0  0  0  0  0  0  0
   16.0256    7.1586    6.3463 H   0  0  0  1  0  0  0  0  0  0  0  0
   17.5812    7.4692    4.9607 C   0  0  0  1  0  0  0  0  0  0  0  0
   18.6058    7.3509    5.0935 H   0  0  0  1  0  0  0  0  0  0  0  0
   17.1753    8.4133    4.1183 C   0  0  0  1  0  0  0  0  0  0  0  0
   15.7775    8.5004    3.5743 C   0  0  0  1  0  0  0  0  0  0  0  0
   15.4895    9.5302    3.5384 H   0  0  0  1  0  0  0  0  0  0  0  0
   15.1222    7.9689    4.2324 H   0  0  0  1  0  0  0  0  0  0  0  0
   18.1051    9.4882    3.6364 C   0  0  0  1  0  0  0  0  0  0  0  0
   17.5787   10.1468    2.9776 H   0  0  0  1  0  0  0  0  0  0  0  0
   18.9253    9.0421    3.1139 H   0  0  0  1  0  0  0  0  0  0  0  0
   18.4741   10.0422    4.4741 H   0  0  0  1  0  0  0  0  0  0  0  0
   15.6438    7.9118    2.1793 C   0  0  0  1  0  0  0  0  0  0  0  0
   15.9845    6.8978    2.2033 H   0  0  0  1  0  0  0  0  0  0  0  0
   16.2568    8.4788    1.5102 H   0  0  0  1  0  0  0  0  0  0  0  0
   14.2292    7.9298    1.6647 C   0  0  0  1  0  0  0  0  0  0  0  0
   13.5106    7.4818    2.2685 H   0  0  0  1  0  0  0  0  0  0  0  0
   13.7992    8.4559    0.5229 C   0  0  0  1  0  0  0  0  0  0  0  0
   14.6995    9.1437   -0.4733 C   0  0  0  1  0  0  0  0  0  0  0  0
   15.6826    9.2261   -0.0592 H   0  0  0  1  0  0  0  0  0  0  0  0
   14.3148   10.1210   -0.6774 H   0  0  0  1  0  0  0  0  0  0  0  0
   12.3497    8.4037    0.1296 C   0  0  0  1  0  0  0  0  0  0  0  0
   11.9154    7.4932    0.4863 H   0  0  0  1  0  0  0  0  0  0  0  0
   12.2680    8.4439   -0.9365 H   0  0  0  1  0  0  0  0  0  0  0  0
   11.8337    9.2369    0.5591 H   0  0  0  1  0  0  0  0  0  0  0  0
   14.7696    8.3548   -1.7707 C   0  0  0  1  0  0  0  0  0  0  0  0
   13.7740    8.2073   -2.1339 H   0  0  0  1  0  0  0  0  0  0  0  0
   15.2203    7.4056   -1.5682 H   0  0  0  1  0  0  0  0  0  0  0  0
   15.5718    9.0477   -2.8395 C   0  0  0  1  0  0  0  0  0  0  0  0
   15.1334    9.8590   -3.3203 H   0  0  0  1  0  0  0  0  0  0  0  0
   16.7982    8.7001   -3.2145 C   0  0  0  1  0  0  0  0  0  0  0  0
   17.6855    7.7801   -2.4193 C   0  0  0  1  0  0  0  0  0  0  0  0
   18.1409    7.0821   -3.0903 H   0  0  0  1  0  0  0  0  0  0  0  0
   17.0814    7.2525   -1.7110 H   0  0  0  1  0  0  0  0  0  0  0  0
   17.4089    9.2149   -4.4986 C   0  0  0  1  0  0  0  0  0  0  0  0
   17.6658   10.2472   -4.3832 H   0  0  0  1  0  0  0  0  0  0  0  0
   16.7031    9.1103   -5.2960 H   0  0  0  1  0  0  0  0  0  0  0  0
   18.2899    8.6516   -4.7252 H   0  0  0  1  0  0  0  0  0  0  0  0
   18.7831    8.5147   -1.6669 C   0  0  0  1  0  0  0  0  0  0  0  0
   18.3289    9.1400   -0.9269 H   0  0  0  1  0  0  0  0  0  0  0  0
   19.3258    9.1205   -2.3622 H   0  0  0  1  0  0  0  0  0  0  0  0
   19.7448    7.5931   -0.9864 C   0  0  0  1  0  0  0  0  0  0  0  0
   20.2771    6.9434   -1.5996 H   0  0  0  1  0  0  0  0  0  0  0  0
   19.9928    7.5146    0.3166 C   0  0  0  1  0  0  0  0  0  0  0  0
   19.4415    8.4889    1.3375 C   0  0  0  1  0  0  0  0  0  0  0  0
   19.4657    8.0438    2.3102 H   0  0  0  1  0  0  0  0  0  0  0  0
   18.4329    8.7423    1.0857 H   0  0  0  1  0  0  0  0  0  0  0  0
   20.8592    6.4278    0.8881 C   0  0  0  1  0  0  0  0  0  0  0  0
   20.6117    5.4943    0.4274 H   0  0  0  1  0  0  0  0  0  0  0  0
   20.6951    6.3590    1.9432 H   0  0  0  1  0  0  0  0  0  0  0  0
   21.8876    6.6562    0.7007 H   0  0  0  1  0  0  0  0  0  0  0  0
   20.3021    9.7418    1.3264 C   0  0  0  1  0  0  0  0  0  0  0  0
   21.3310    9.4599    1.2448 H   0  0  0  1  0  0  0  0  0  0  0  0
   20.1503   10.2798    2.2388 H   0  0  0  1  0  0  0  0  0  0  0  0
   19.9430   10.6196    0.1758 C   0  0  0  1  0  0  0  0  0  0  0  0
   20.7385   10.9002   -0.4325 H   0  0  0  1  0  0  0  0  0  0  0  0
   18.7515   11.0988   -0.1891 C   0  0  0  1  0  0  0  0  0  0  0  0
   17.5230   10.8503    0.6421 C   0  0  0  1  0  0  0  0  0  0  0  0
   17.8127   10.2727    1.4949 H   0  0  0  1  0  0  0  0  0  0  0  0
   16.8311   10.2894    0.0491 H   0  0  0  1  0  0  0  0  0  0  0  0
   18.6278   11.9936   -1.4064 C   0  0  0  1  0  0  0  0  0  0  0  0
   18.9593   12.9805   -1.1594 H   0  0  0  1  0  0  0  0  0  0  0  0
   17.6054   12.0292   -1.7202 H   0  0  0  1  0  0  0  0  0  0  0  0
   19.2312   11.6028   -2.1989 H   0  0  0  1  0  0  0  0  0  0  0  0
   16.8104   12.0971    1.1404 C   0  0  0  1  0  0  0  0  0  0  0  0
   16.5518   12.6823    0.2827 H   0  0  0  1  0  0  0  0  0  0  0  0
   17.5033   12.6407    1.7480 H   0  0  0  1  0  0  0  0  0  0  0  0
   15.5637   11.9064    1.9446 C   0  0  0  1  0  0  0  0  0  0  0  0
   15.2800   10.9113    2.0480 H   0  0  0  1  0  0  0  0  0  0  0  0
   14.7414   12.7688    2.5577 C   0  0  0  1  0  0  0  0  0  0  0  0
   13.5416   12.2264    3.3018 C   0  0  0  1  0  0  0  0  0  0  0  0
   13.3459   11.2334    2.9546 H   0  0  0  1  0  0  0  0  0  0  0  0
   12.6989   12.8512    3.0908 H   0  0  0  1  0  0  0  0  0  0  0  0
   14.9599   14.2339    2.5362 C   0  0  0  1  0  0  0  0  0  0  0  0
   13.9841   14.6676    2.4676 H   0  0  0  1  0  0  0  0  0  0  0  0
   15.5525   14.5111    1.6895 H   0  0  0  1  0  0  0  0  0  0  0  0
   15.4481   14.5522    3.4335 H   0  0  0  1  0  0  0  0  0  0  0  0
   13.7453   12.1812    4.8074 C   0  0  0  1  0  0  0  0  0  0  0  0
   13.7799   13.1886    5.1662 H   0  0  0  1  0  0  0  0  0  0  0  0
   14.6821   11.7013    4.9995 H   0  0  0  1  0  0  0  0  0  0  0  0
   12.6881   11.4537    5.5758 C   0  0  0  1  0  0  0  0  0  0  0  0
   12.5826   10.4392    5.3727 H   0  0  0  1  0  0  0  0  0  0  0  0
   11.8692   11.9631    6.4899 C   0  0  0  1  0  0  0  0  0  0  0  0
   11.9246   13.3890    6.9558 C   0  0  0  1  0  0  0  0  0  0  0  0
   11.0481   13.6123    7.5274 H   0  0  0  1  0  0  0  0  0  0  0  0
   11.9723   14.0395    6.1075 H   0  0  0  1  0  0  0  0  0  0  0  0
   12.7930   13.5316    7.5645 H   0  0  0  1  0  0  0  0  0  0  0  0
   10.7966   11.1260    7.1435 C   0  0  0  1  0  0  0  0  0  0  0  0
   11.0018   10.1027    6.9075 H   0  0  0  1  0  0  0  0  0  0  0  0
    9.8350   11.4029    6.7647 H   0  0  0  1  0  0  0  0  0  0  0  0
   10.8172   11.2680    8.2038 H   0  0  0  1  0  0  0  0  0  0  0  0
   16.2936   -5.1265   -1.8712 C   0  0  0  1  0  0  0  0  0  0  0  0
   16.7618   -5.6546   -1.0670 H   0  0  0  1  0  0  0  0  0  0  0  0
   14.9693   -5.7853   -2.2009 C   0  0  0  1  0  0  0  0  0  0  0  0
   15.1388   -6.7918   -2.5221 H   0  0  0  1  0  0  0  0  0  0  0  0
   16.0788   -3.7720   -1.4848 O   0  0  0  1  0  0  0  0  0  0  0  0
   14.2946   -5.0009   -3.3146 C   0  0  0  1  0  0  0  0  0  0  0  0
   13.2914   -5.3570   -3.4225 H   0  0  0  1  0  0  0  0  0  0  0  0
   15.6039   -2.9792   -2.5942 C   0  0  0  1  0  0  0  0  0  0  0  0
   16.3012   -3.0435   -3.4033 H   0  0  0  1  0  0  0  0  0  0  0  0
   14.2509   -3.5055   -3.0475 C   0  0  0  1  0  0  0  0  0  0  0  0
   13.9650   -3.0003   -3.9464 H   0  0  0  1  0  0  0  0  0  0  0  0
   17.1362   -5.1620   -3.0172 O   0  0  0  1  0  0  0  0  0  0  0  0
   14.1335   -5.7889   -1.0421 O   0  0  0  1  0  0  0  0  0  0  0  0
   13.2148   -5.7105   -1.3094 H   0  0  0  1  0  0  0  0  0  0  0  0
   15.0165   -5.2260   -4.5337 O   0  0  0  1  0  0  0  0  0  0  0  0
   15.8532   -4.7563   -4.5022 H   0  0  0  1  0  0  0  0  0  0  0  0
   15.4653   -1.5393   -2.1616 C   0  0  0  1  0  0  0  0  0  0  0  0
   15.5448   -1.4772   -1.0964 H   0  0  0  1  0  0  0  0  0  0  0  0
   14.5117   -1.1647   -2.4703 H   0  0  0  1  0  0  0  0  0  0  0  0
   16.2410   -0.9557   -2.6116 H   0  0  0  1  0  0  0  0  0  0  0  0
   20.3616   -3.6658   -1.8505 C   0  0  0  1  0  0  0  0  0  0  0  0
   21.0324   -3.9664   -1.0731 H   0  0  0  1  0  0  0  0  0  0  0  0
   19.1154   -4.5530   -1.8174 C   0  0  0  1  0  0  0  0  0  0  0  0
   18.5930   -4.3934   -0.8973 H   0  0  0  1  0  0  0  0  0  0  0  0
   21.0166   -3.7954   -3.1220 O   0  0  0  1  0  0  0  0  0  0  0  0
   18.1999   -4.2167   -2.9766 C   0  0  0  1  0  0  0  0  0  0  0  0
   17.7999   -3.2349   -2.8317 H   0  0  0  1  0  0  0  0  0  0  0  0
   20.2047   -3.3893   -4.2164 C   0  0  0  1  0  0  0  0  0  0  0  0
   19.9164   -2.3679   -4.0805 H   0  0  0  1  0  0  0  0  0  0  0  0
   18.9521   -4.2566   -4.3051 C   0  0  0  1  0  0  0  0  0  0  0  0
   19.2336   -5.2655   -4.5235 H   0  0  0  1  0  0  0  0  0  0  0  0
   19.5171   -5.9485   -1.9122 N   0  0  0  1  0  0  0  0  0  0  0  0
   19.7174   -6.3241   -2.7950 H   0  0  0  1  0  0  0  0  0  0  0  0
   18.1049   -3.7616   -5.3452 O   0  0  0  1  0  0  0  0  0  0  0  0
   18.5607   -3.0107   -5.7325 H   0  0  0  1  0  0  0  0  0  0  0  0
   20.9894   -3.5236   -5.4900 C   0  0  0  1  0  0  0  0  0  0  0  0
   21.8464   -2.8836   -5.4602 H   0  0  0  1  0  0  0  0  0  0  0  0
   20.3761   -3.2606   -6.3264 H   0  0  0  1  0  0  0  0  0  0  0  0
   21.4012   -4.8829   -5.5974 O   0  0  0  1  0  0  0  0  0  0  0  0
   22.2833   -4.9596   -5.2265 H   0  0  0  1  0  0  0  0  0  0  0  0
   19.6225   -6.7355   -0.8377 C   0  0  0  1  0  0  0  0  0  0  0  0
   19.4122   -6.3383    0.3053 O   0  0  0  1  0  0  0  0  0  0  0  0
   20.0231   -8.1723   -1.1102 C   0  0  0  1  0  0  0  0  0  0  0  0
   20.7348   -8.1039   -1.9063 H   0  0  0  1  0  0  0  0  0  0  0  0
   19.1747   -8.7514   -1.4096 H   0  0  0  1  0  0  0  0  0  0  0  0
   20.4676   -8.6124   -0.2420 H   0  0  0  1  0  0  0  0  0  0  0  0
  1  2  1  0  0  0  0
  1  3  1  0  0  0  0
  1  4  1  0  0  0  0
  1 44  1  0  0  0  0
  3 20  1  0  0  0  0
  4  5  1  0  0  0  0
  4  6  1  0  0  0  0
  4  8  1  0  0  0  0
  6  7  1  0  0  0  0
  8  9  1  0  0  0  0
  8 10  1  0  0  0  0
  8 20  1  0  0  0  0
 10 11  1  0  0  0  0
 12 13  1  0  0  0  0
 12 14  1  0  0  0  0
 12 15  1  0  0  0  0
 12 17  1  0  0  0  0
 15 16  1  0  0  0  0
 17 18  1  0  0  0  0
 17 19  1  0  0  0  0
 17 20  1  0  0  0  0
 19 22  1  0  0  0  0
 20 21  1  0  0  0  0
 22 23  1  0  0  0  0
 22 24  1  0  0  0  0
 22 25  1  0  0  0  0
 24 42  1  0  0  0  0
 25 26  1  0  0  0  0
 25 27  1  0  0  0  0
 25 29  1  0  0  0  0
 27 28  1  0  0  0  0
 29 30  1  0  0  0  0
 29 31  1  0  0  0  0
 29 42  1  0  0  0  0
 31 32  1  0  0  0  0
 33 34  1  0  0  0  0
 33 35  1  0  0  0  0
 33 36  1  0  0  0  0
 33 38  1  0  0  0  0
 36 37  1  0  0  0  0
 38 39  1  0  0  0  0
 38 40  1  0  0  0  0
 38 42  1  0  0  0  0
 40 41  1  0  0  0  0
 42 43  1  0  0  0  0
 44194  1  0  0  0  0
 45 46  1  0  0  0  0
 45 54  1  0  0  0  0
 46 47  1  0  0  0  0
 46 48  1  0  0  0  0
 46 49  2  0  0  0  0
 47 50  1  0  0  0  0
 50 51  1  0  0  0  0
 50 52  1  0  0  0  0
 50 53  2  0  0  0  0
 51205  1  0  0  0  0
 54 55  1  0  0  0  0
 54 56  1  0  0  0  0
 54 57  1  0  0  0  0
 57 58  1  0  0  0  0
 57 59  2  0  0  0  0
 59 60  1  0  0  0  0
 59 64  1  0  0  0  0
 60 61  1  0  0  0  0
 60 62  1  0  0  0  0
 60 63  1  0  0  0  0
 64 65  1  0  0  0  0
 64 66  1  0  0  0  0
 64 67  1  0  0  0  0
 67 68  1  0  0  0  0
 67 69  1  0  0  0  0
 67 70  1  0  0  0  0
 70 71  1  0  0  0  0
 70 72  2  0  0  0  0
 72 73  1  0  0  0  0
 72 77  1  0  0  0  0
 73 74  1  0  0  0  0
 73 75  1  0  0  0  0
 73 76  1  0  0  0  0
 77 78  1  0  0  0  0
 77 79  1  0  0  0  0
 77 80  1  0  0  0  0
 80 81  1  0  0  0  0
 80 82  1  0  0  0  0
 80 83  1  0  0  0  0
 83 84  1  0  0  0  0
 83 85  2  0  0  0  0
 85 86  1  0  0  0  0
 85 89  1  0  0  0  0
 86 87  1  0  0  0  0
 86 88  1  0  0  0  0
 86 93  1  0  0  0  0
 89 90  1  0  0  0  0
 89 91  1  0  0  0  0
 89 92  1  0  0  0  0
 93 94  1  0  0  0  0
 93 95  1  0  0  0  0
 93 96  1  0  0  0  0
 96 97  1  0  0  0  0
 96 98  2  0  0  0  0
 98 99  1  0  0  0  0
 98102  1  0  0  0  0
 99100  1  0  0  0  0
 99101  1  0  0  0  0
 99106  1  0  0  0  0
102103  1  0  0  0  0
102104  1  0  0  0  0
102105  1  0  0  0  0
106107  1  0  0  0  0
106108  1  0  0  0  0
106109  1  0  0  0  0
109110  1  0  0  0  0
109111  2  0  0  0  0
111112  1  0  0  0  0
111115  1  0  0  0  0
112113  1  0  0  0  0
112114  1  0  0  0  0
112119  1  0  0  0  0
115116  1  0  0  0  0
115117  1  0  0  0  0
115118  1  0  0  0  0
119120  1  0  0  0  0
119121  1  0  0  0  0
119122  1  0  0  0  0
122123  1  0  0  0  0
122124  2  0  0  0  0
124125  1  0  0  0  0
124128  1  0  0  0  0
125126  1  0  0  0  0
125127  1  0  0  0  0
125132  1  0  0  0  0
128129  1  0  0  0  0
128130  1  0  0  0  0
128131  1  0  0  0  0
132133  1  0  0  0  0
132134  1  0  0  0  0
132135  1  0  0  0  0
135136  1  0  0  0  0
135137  2  0  0  0  0
137138  1  0  0  0  0
137141  1  0  0  0  0
138139  1  0  0  0  0
138140  1  0  0  0  0
138145  1  0  0  0  0
141142  1  0  0  0  0
141143  1  0  0  0  0
141144  1  0  0  0  0
145146  1  0  0  0  0
145147  1  0  0  0  0
145148  1  0  0  0  0
148149  1  0  0  0  0
148150  2  0  0  0  0
150151  1  0  0  0  0
150154  1  0  0  0  0
151152  1  0  0  0  0
151153  1  0  0  0  0
151158  1  0  0  0  0
154155  1  0  0  0  0
154156  1  0  0  0  0
154157  1  0  0  0  0
158159  1  0  0  0  0
158160  1  0  0  0  0
158161  1  0  0  0  0
161162  1  0  0  0  0
161163  2  0  0  0  0
163164  1  0  0  0  0
163167  1  0  0  0  0
164165  1  0  0  0  0
164166  1  0  0  0  0
164171  1  0  0  0  0
167168  1  0  0  0  0
167169  1  0  0  0  0
167170  1  0  0  0  0
171172  1  0  0  0  0
171173  1  0  0  0  0
171174  1  0  0  0  0
174175  1  0  0  0  0
174176  2  0  0  0  0
176177  1  0  0  0  0
176181  1  0  0  0  0
177178  1  0  0  0  0
177179  1  0  0  0  0
177180  1  0  0  0  0
181182  1  0  0  0  0
181183  1  0  0  0  0
181184  1  0  0  0  0
185186  1  0  0  0  0
185187  1  0  0  0  0
185189  1  0  0  0  0
185196  1  0  0  0  0
187188  1  0  0  0  0
187190  1  0  0  0  0
187197  1  0  0  0  0
189192  1  0  0  0  0
190191  1  0  0  0  0
190194  1  0  0  0  0
190199  1  0  0  0  0
192193  1  0  0  0  0
192194  1  0  0  0  0
192201  1  0  0  0  0
194195  1  0  0  0  0
196210  1  0  0  0  0
197198  1  0  0  0  0
199200  1  0  0  0  0
201202  1  0  0  0  0
201203  1  0  0  0  0
201204  1  0  0  0  0
205206  1  0  0  0  0
205207  1  0  0  0  0
205209  1  0  0  0  0
207208  1  0  0  0  0
207210  1  0  0  0  0
207216  1  0  0  0  0
209212  1  0  0  0  0
210211  1  0  0  0  0
210214  1  0  0  0  0
212213  1  0  0  0  0
212214  1  0  0  0  0
212220  1  0  0  0  0
214215  1  0  0  0  0
214218  1  0  0  0  0
216217  1  0  0  0  0
216225  1  0  0  0  0
218219  1  0  0  0  0
220221  1  0  0  0  0
220222  1  0  0  0  0
220223  1  0  0  0  0
223224  1  0  0  0  0
225226  2  0  0  0  0
225227  1  0  0  0  0
227228  1  0  0  0  0
227229  1  0  0  0  0
227230  1  0  0  0  0
M  BCL ATM C_TeTeTeTe H_S O_Te2Te2TeTe C_TeTeTeTe H_S O_Te2Te2TeTe H_S C_TeTeTeTe H_S O_Te2Te2TeTe H_S C_TeTeTeTe H_S H_S O_Te2Te2TeTe H_S C_TeTeTeTe H_S O_Te2Te2TeTe C_TeTeTeTe H_S C_TeTeTeTe H_S O_Te2Te2TeTe C_TeTeTeTe H_S O_Te2Te2TeTe H_S C_TeTeTeTe H_S O_Te2Te2TeTe H_S C_TeTeTeTe H_S H_S O_Te2Te2TeTe H_S C_TeTeTeTe H_S O_Te2Te2TeTe H_S C_TeTeTeTe H_S O_Te2Te2TeTe O_Tr2TrTrPi2 P_TeTeTeTePi O_Tr2TrTrPi2 O_Te2Te2TeTe O_Tr2Tr2TrPi P_TeTeTeTePi O_Tr2TrTrPi2 O_Te2Te2TeTe O_Tr2Tr2TrPi C_TeTeTeTe H_S H_S C_TrTrTrPi H_S C_TrTrTrPi C_TeTeTeTe H_S H_S H_S C_TeTeTeTe H_S H_S C_TeTeTeTe H_S H_S C_TrTrTrPi H_S C_TrTrTrPi C_TeTeTeTe H_S H_S H_S C_TeTeTeTe H_S H_S C_TeTeTeTe H_S H_S C_TrTrTrPi H_S C_TrTrTrPi C_TeTeTeTe H_S H_S C_TeTeTeTe H_S H_S H_S C_TeTeTeTe H_S H_S C_TrTrTrPi H_S C_TrTrTrPi C_TeTeTeTe H_S H_S C_TeTeTeTe H_S H_S H_S C_TeTeTeTe H_S H_S C_TrTrTrPi H_S C_TrTrTrPi C_TeTeTeTe H_S H_S C_TeTeTeTe H_S H_S H_S C_TeTeTeTe H_S H_S C_TrTrTrPi H_S C_TrTrTrPi C_TeTeTeTe H_S H_S C_TeTeTeTe H_S H_S H_S C_TeTeTeTe H_S H_S C_TrTrTrPi H_S C_TrTrTrPi C_TeTeTeTe H_S H_S C_TeTeTeTe H_S H_S H_S C_TeTeTeTe H_S H_S C_TrTrTrPi H_S C_TrTrTrPi C_TeTeTeTe H_S H_S C_TeTeTeTe H_S H_S H_S C_TeTeTeTe H_S H_S C_TrTrTrPi H_S C_TrTrTrPi C_TeTeTeTe H_S H_S C_TeTeTeTe H_S H_S H_S C_TeTeTeTe H_S H_S C_TrTrTrPi H_S C_TrTrTrPi C_TeTeTeTe H_S H_S H_S C_TeTeTeTe H_S H_S H_S C_TeTeTeTe H_S C_TeTeTeTe H_S O_Te2Te2TeTe C_TeTeTeTe H_S C_TeTeTeTe H_S C_TeTeTeTe H_S O_Te2Te2TeTe O_Te2Te2TeTe H_S O_Te2Te2TeTe H_S C_TeTeTeTe H_S H_S H_S C_TeTeTeTe H_S C_TeTeTeTe H_S O_Te2Te2TeTe C_TeTeTeTe H_S C_TeTeTeTe H_S C_TeTeTeTe H_S N_TrTrTrPi2 H_S O_Te2Te2TeTe H_S C_TeTeTeTe H_S H_S O_Te2Te2TeTe H_S C_TrTrTrPi O_Tr2Tr2TrPi C_TeTeTeTe H_S H_S H_S
M  BCL BND NonConjugatedSingleBond NonConjugatedSingleBondInRing NonConjugatedSingleBondInRing NonConjugatedSingleBond NonConjugatedSingleBondInRing NonConjugatedSingleBond NonConjugatedSingleBond NonConjugatedSingleBondInRing NonConjugatedSingleBond NonConjugatedSingleBond NonConjugatedSingleBond NonConjugatedSingleBondInRing NonConjugatedSingleBond NonConjugatedSingleBond NonConjugatedSingleBond NonConjugatedSingleBond NonConjugatedSingleBond NonConjugatedSingleBond NonConjugatedSingleBond NonConjugatedSingleBond NonConjugatedSingleBond NonConjugatedSingleBond NonConjugatedSingleBond NonConjugatedSingleBond NonConjugatedSingleBondInRing NonConjugatedSingleBondInRing NonConjugatedSingleBondInRing NonConjugatedSingleBond NonConjugatedSingleBond NonConjugatedSingleBondInRing NonConjugatedSingleBond NonConjugatedSingleBond NonConjugatedSingleBond NonConjugatedSingleBondInRing NonConjugatedSingleBond NonConjugatedSingleBond NonConjugatedSingleBond NonConjugatedSingleBond NonConjugatedSingleBond NonConjugatedSingleBond NonConjugatedSingleBond NonConjugatedSingleBond NonConjugatedSingleBond NonConjugatedSingleBond NonConjugatedSingleBond NonConjugatedSingleBond ConjugatedSingleBond NonConjugatedSingleBond ConjugatedSingleBond ConjugatedSingleBond ConjugatedDoubleBond ConjugatedSingleBond ConjugatedSingleBond ConjugatedSingleBond ConjugatedDoubleBond NonConjugatedSingleBond NonConjugatedSingleBond NonConjugatedSingleBond NonConjugatedSingleBond NonConjugatedSingleBond ConjugatedDoubleBond NonConjugatedSingleBond NonConjugatedSingleBond NonConjugatedSingleBond NonConjugatedSingleBond NonConjugatedSingleBond NonConjugatedSingleBond NonConjugatedSingleBond NonConjugatedSingleBond NonConjugatedSingleBond NonConjugatedSingleBond NonConjugatedSingleBond NonConjugatedSingleBond ConjugatedDoubleBond NonConjugatedSingleBond NonConjugatedSingleBond NonConjugatedSingleBond NonConjugatedSingleBond NonConjugatedSingleBond NonConjugatedSingleBond NonConjugatedSingleBond NonConjugatedSingleBond NonConjugatedSingleBond NonConjugatedSingleBond NonConjugatedSingleBond NonConjugatedSingleBond ConjugatedDoubleBond NonConjugatedSingleBond NonConjugatedSingleBond NonConjugatedSingleBond NonConjugatedSingleBond NonConjugatedSingleBond NonConjugatedSingleBond NonConjugatedSingleBond NonConjugatedSingleBond NonConjugatedSingleBond NonConjugatedSingleBond NonConjugatedSingleBond NonConjugatedSingleBond ConjugatedDoubleBond NonConjugatedSingleBond NonConjugatedSingleBond NonConjugatedSingleBond NonConjugatedSingleBond NonConjugatedSingleBond NonConjugatedSingleBond NonConjugatedSingleBond NonConjugatedSingleBond NonConjugatedSingleBond NonConjugatedSingleBond NonConjugatedSingleBond NonConjugatedSingleBond ConjugatedDoubleBond NonConjugatedSingleBond NonConjugatedSingleBond NonConjugatedSingleBond NonConjugatedSingleBond NonConjugatedSingleBond NonConjugatedSingleBond NonConjugatedSingleBond NonConjugatedSingleBond NonConjugatedSingleBond NonConjugatedSingleBond NonConjugatedSingleBond NonConjugatedSingleBond ConjugatedDoubleBond NonConjugatedSingleBond NonConjugatedSingleBond NonConjugatedSingleBond NonConjugatedSingleBond NonConjugatedSingleBond NonConjugatedSingleBond NonConjugatedSingleBond NonConjugatedSingleBond NonConjugatedSingleBond NonConjugatedSingleBond NonConjugatedSingleBond NonConjugatedSingleBond ConjugatedDoubleBond NonConjugatedSingleBond NonConjugatedSingleBond NonConjugatedSingleBond NonConjugatedSingleBond NonConjugatedSingleBond NonConjugatedSingleBond NonConjugatedSingleBond NonConjugatedSingleBond NonConjugatedSingleBond NonConjugatedSingleBond NonConjugatedSingleBond NonConjugatedSingleBond ConjugatedDoubleBond NonConjugatedSingleBond NonConjugatedSingleBond NonConjugatedSingleBond NonConjugatedSingleBond NonConjugatedSingleBond NonConjugatedSingleBond NonConjugatedSingleBond NonConjugatedSingleBond NonConjugatedSingleBond NonConjugatedSingleBond NonConjugatedSingleBond NonConjugatedSingleBond ConjugatedDoubleBond NonConjugatedSingleBond NonConjugatedSingleBond NonConjugatedSingleBond NonConjugatedSingleBond NonConjugatedSingleBond NonConjugatedSingleBond NonConjugatedSingleBond NonConjugatedSingleBond NonConjugatedSingleBond NonConjugatedSingleBond NonConjugatedSingleBond NonConjugatedSingleBond ConjugatedDoubleBond NonConjugatedSingleBond NonConjugatedSingleBond NonConjugatedSingleBond NonConjugatedSingleBond NonConjugatedSingleBond NonConjugatedSingleBond NonConjugatedSingleBond NonConjugatedSingleBond NonConjugatedSingleBond NonConjugatedSingleBondInRing NonConjugatedSingleBondInRing NonConjugatedSingleBond NonConjugatedSingleBond NonConjugatedSingleBondInRing NonConjugatedSingleBond NonConjugatedSingleBondInRing NonConjugatedSingleBond NonConjugatedSingleBondInRing NonConjugatedSingleBond NonConjugatedSingleBond NonConjugatedSingleBondInRing NonConjugatedSingleBond NonConjugatedSingleBond NonConjugatedSingleBond NonConjugatedSingleBond NonConjugatedSingleBond NonConjugatedSingleBond NonConjugatedSingleBond NonConjugatedSingleBond NonConjugatedSingleBond NonConjugatedSingleBondInRing NonConjugatedSingleBondInRing NonConjugatedSingleBond NonConjugatedSingleBondInRing NonConjugatedSingleBond NonConjugatedSingleBondInRing NonConjugatedSingleBond NonConjugatedSingleBondInRing NonConjugatedSingleBond NonConjugatedSingleBondInRing NonConjugatedSingleBond NonConjugatedSingleBond NonConjugatedSingleBond NonConjugatedSingleBond AmideSingleBond NonConjugatedSingleBond NonConjugatedSingleBond NonConjugatedSingleBond NonConjugatedSingleBond NonConjugatedSingleBond ConjugatedDoubleBond NonConjugatedSingleBond NonConjugatedSingleBond NonConjugatedSingleBond NonConjugatedSingleBond
M  BCL CHI   1   R   4   R   8   R  17   S  20   R  22   S  25   R  29   S  38   S  42   R  46   R  50   S 185   R 187   S 190   S 192   R 194   R 205   R 207   S 210   R 212   S 214   S
M  BCL DBI - - E E E E E E E E Z - -
M  END
> <ConfClashScore>
0.0197497 

> <ConfOneFourInteractionScore>
-0.970023 

> <ConfScore>
2.14004 

> <ConfScorePBest>
0.00613746 

> <ConfTolerance>
4.34555 

$$$$
L05.****
  PyMOL2.5          3D                             0

230233  0  0  0  0  0  0  0  0999 V2000
   12.3931   -2.2415   -3.1739 C   0  0  0  1  0  0  0  0  0  0  0  0
   12.9885   -1.3775   -3.3834 H   0  0  0  1  0  0  0  0  0  0  0  0
   11.3515   -1.9141   -2.3000 O   0  0  0  1  0  0  0  0  0  0  0  0
   11.7206   -2.7514   -4.4583 C   0  0  0  1  0  0  0  0  0  0  0  0
   11.5036   -3.7971   -4.3916 H   0  0  0  1  0  0  0  0  0  0  0  0
   12.5410   -2.5067   -5.6017 O   0  0  0  1  0  0  0  0  0  0  0  0
   11.9846   -2.3213   -6.3617 H   0  0  0  1  0  0  0  0  0  0  0  0
   10.4449   -1.9295   -4.5133 C   0  0  0  1  0  0  0  0  0  0  0  0
   10.6054   -1.0025   -5.0229 H   0  0  0  1  0  0  0  0  0  0  0  0
    9.3937   -2.6530   -5.1583 O   0  0  0  1  0  0  0  0  0  0  0  0
    8.6168   -2.0937   -5.2300 H   0  0  0  1  0  0  0  0  0  0  0  0
    8.7928   -0.1293   -1.5351 C   0  0  0  1  0  0  0  0  0  0  0  0
    7.8612   -0.6380   -1.6699 H   0  0  0  1  0  0  0  0  0  0  0  0
    9.3187   -0.5601   -0.7088 H   0  0  0  1  0  0  0  0  0  0  0  0
    8.5461    1.2487   -1.2726 O   0  0  0  1  0  0  0  0  0  0  0  0
    8.4287    1.7170   -2.1024 H   0  0  0  1  0  0  0  0  0  0  0  0
    9.6345   -0.2688   -2.8001 C   0  0  0  1  0  0  0  0  0  0  0  0
   10.4864    0.3726   -2.7126 H   0  0  0  1  0  0  0  0  0  0  0  0
    8.7970    0.1820   -3.8585 O   0  0  0  1  0  0  0  0  0  0  0  0
   10.1234   -1.6947   -3.0166 C   0  0  0  1  0  0  0  0  0  0  0  0
    9.3740   -2.3833   -2.6865 H   0  0  0  1  0  0  0  0  0  0  0  0
    7.5801   -0.5229   -3.9597 C   0  0  0  1  0  0  0  0  0  0  0  0
    7.7104   -1.3703   -4.5999 H   0  0  0  1  0  0  0  0  0  0  0  0
    7.1304   -0.9217   -2.6933 O   0  0  0  1  0  0  0  0  0  0  0  0
    6.4644    0.3908   -4.4873 C   0  0  0  1  0  0  0  0  0  0  0  0
    6.4359    0.3867   -5.5569 H   0  0  0  1  0  0  0  0  0  0  0  0
    6.6317    1.7302   -4.0200 O   0  0  0  1  0  0  0  0  0  0  0  0
    7.5556    1.8829   -3.8087 H   0  0  0  1  0  0  0  0  0  0  0  0
    5.2228   -0.2352   -3.9085 C   0  0  0  1  0  0  0  0  0  0  0  0
    4.8682   -1.0303   -4.5306 H   0  0  0  1  0  0  0  0  0  0  0  0
    4.1920    0.7340   -3.7418 O   0  0  0  1  0  0  0  0  0  0  0  0
    3.7617    0.6016   -2.8939 H   0  0  0  1  0  0  0  0  0  0  0  0
    3.6715   -2.2352   -2.8761 C   0  0  0  1  0  0  0  0  0  0  0  0
    3.7267   -1.9840   -3.9147 H   0  0  0  1  0  0  0  0  0  0  0  0
    3.3308   -3.2440   -2.7702 H   0  0  0  1  0  0  0  0  0  0  0  0
    2.7619   -1.3591   -2.2261 O   0  0  0  1  0  0  0  0  0  0  0  0
    2.4629   -0.6900   -2.8462 H   0  0  0  1  0  0  0  0  0  0  0  0
    5.0505   -2.0989   -2.2491 C   0  0  0  1  0  0  0  0  0  0  0  0
    5.6766   -2.8786   -2.6300 H   0  0  0  1  0  0  0  0  0  0  0  0
    4.8822   -2.2565   -0.8427 O   0  0  0  1  0  0  0  0  0  0  0  0
    4.4387   -1.4841   -0.4845 H   0  0  0  1  0  0  0  0  0  0  0  0
    5.6999   -0.7682   -2.5543 C   0  0  0  1  0  0  0  0  0  0  0  0
    5.4709   -0.0719   -1.7748 H   0  0  0  1  0  0  0  0  0  0  0  0
   13.2130   -3.2574   -2.6078 O   0  0  0  1  0  0  0  0  0  0  0  0
   20.3307   -3.3961   -7.5596 O   0  0  0  1  0  0  0  0  0  0  0  0
   20.0189   -2.7831   -6.0938 P   0  0  0  1  0  0  0  0  0  0  0  0
   21.0464   -3.5232   -5.1167 O   0  0  0  1  0  0  0  0  0  0  0  0
   18.6091   -3.1824   -5.8103 O   0  0  0  0  0  0  0  0  0  0  0  0
   20.3709   -1.3463   -6.0013 O   0  0  0  1  0  0  0  0  0  0  0  0
   21.6674   -4.9716   -5.0358 P   0  0  0  1  0  0  0  0  0  0  0  0
   20.3595   -5.8616   -5.0492 O   0  0  0  1  0  0  0  0  0  0  0  0
   22.5207   -5.1261   -3.8020 O   0  0  0  0  0  0  0  0  0  0  0  0
   22.3382   -5.1561   -6.3276 O   0  0  0  1  0  0  0  0  0  0  0  0
   21.4529   -2.9334   -8.3279 C   0  0  0  1  0  0  0  0  0  0  0  0
   22.2596   -3.6313   -8.2439 H   0  0  0  1  0  0  0  0  0  0  0  0
   21.7684   -1.9775   -7.9652 H   0  0  0  1  0  0  0  0  0  0  0  0
   21.0365   -2.8167   -9.7538 C   0  0  0  1  0  0  0  0  0  0  0  0
   20.7511   -3.6977  -10.2270 H   0  0  0  1  0  0  0  0  0  0  0  0
   20.9902   -1.7047  -10.4892 C   0  0  0  1  0  0  0  0  0  0  0  0
   20.2348   -1.6871  -11.8061 C   0  0  0  1  0  0  0  0  0  0  0  0
   20.9209   -1.5157  -12.6091 H   0  0  0  1  0  0  0  0  0  0  0  0
   19.5049   -0.9049  -11.7879 H   0  0  0  1  0  0  0  0  0  0  0  0
   19.7463   -2.6282  -11.9494 H   0  0  0  1  0  0  0  0  0  0  0  0
   21.7595   -0.4759  -10.0890 C   0  0  0  1  0  0  0  0  0  0  0  0
   21.1332    0.1127   -9.4517 H   0  0  0  1  0  0  0  0  0  0  0  0
   21.9848    0.0763  -10.9774 H   0  0  0  1  0  0  0  0  0  0  0  0
   23.0647   -0.7349   -9.3544 C   0  0  0  1  0  0  0  0  0  0  0  0
   23.7202   -1.2931   -9.9897 H   0  0  0  1  0  0  0  0  0  0  0  0
   22.8623   -1.2978   -8.4672 H   0  0  0  1  0  0  0  0  0  0  0  0
   23.7229    0.5471   -8.9795 C   0  0  0  1  0  0  0  0  0  0  0  0
   24.3635    0.9185   -9.7099 H   0  0  0  1  0  0  0  0  0  0  0  0
   23.6509    1.3088   -7.8931 C   0  0  0  1  0  0  0  0  0  0  0  0
   24.6337    2.3993   -7.5729 C   0  0  0  1  0  0  0  0  0  0  0  0
   25.4454    2.3644   -8.2692 H   0  0  0  1  0  0  0  0  0  0  0  0
   25.0090    2.2607   -6.5806 H   0  0  0  1  0  0  0  0  0  0  0  0
   24.1464    3.3495   -7.6410 H   0  0  0  1  0  0  0  0  0  0  0  0
   22.5534    1.1317   -6.8783 C   0  0  0  1  0  0  0  0  0  0  0  0
   21.9504    0.2927   -7.1564 H   0  0  0  1  0  0  0  0  0  0  0  0
   21.9491    2.0145   -6.8574 H   0  0  0  1  0  0  0  0  0  0  0  0
   23.1331    0.8917   -5.4938 C   0  0  0  1  0  0  0  0  0  0  0  0
   22.3181    0.7821   -4.8092 H   0  0  0  1  0  0  0  0  0  0  0  0
   23.7123    1.7503   -5.2251 H   0  0  0  1  0  0  0  0  0  0  0  0
   24.0143   -0.3219   -5.3648 C   0  0  0  1  0  0  0  0  0  0  0  0
   23.5837   -1.2358   -5.6115 H   0  0  0  1  0  0  0  0  0  0  0  0
   25.2756   -0.3518   -4.9721 C   0  0  0  1  0  0  0  0  0  0  0  0
   26.0584    0.8668   -4.5776 C   0  0  0  1  0  0  0  0  0  0  0  0
   25.7340    1.6896   -5.1797 H   0  0  0  1  0  0  0  0  0  0  0  0
   27.0960    0.6786   -4.7591 H   0  0  0  1  0  0  0  0  0  0  0  0
   25.9996   -1.6579   -4.8029 C   0  0  0  1  0  0  0  0  0  0  0  0
   26.4646   -1.6864   -3.8397 H   0  0  0  1  0  0  0  0  0  0  0  0
   26.7472   -1.7520   -5.5626 H   0  0  0  1  0  0  0  0  0  0  0  0
   25.3023   -2.4653   -4.8861 H   0  0  0  1  0  0  0  0  0  0  0  0
   25.8830    1.2392   -3.1144 C   0  0  0  1  0  0  0  0  0  0  0  0
   26.2957    0.4501   -2.5212 H   0  0  0  1  0  0  0  0  0  0  0  0
   24.8344    1.3224   -2.9184 H   0  0  0  1  0  0  0  0  0  0  0  0
   26.5378    2.5276   -2.6935 C   0  0  0  1  0  0  0  0  0  0  0  0
   26.2495    3.3840   -3.2085 H   0  0  0  1  0  0  0  0  0  0  0  0
   27.4442    2.6895   -1.7355 C   0  0  0  1  0  0  0  0  0  0  0  0
   27.7421    1.6552   -0.6851 C   0  0  0  1  0  0  0  0  0  0  0  0
   28.2931    2.1210    0.1050 H   0  0  0  1  0  0  0  0  0  0  0  0
   28.3355    0.8822   -1.1269 H   0  0  0  1  0  0  0  0  0  0  0  0
   28.2569    3.9460   -1.6279 C   0  0  0  1  0  0  0  0  0  0  0  0
   28.4786    4.1411   -0.5995 H   0  0  0  1  0  0  0  0  0  0  0  0
   27.7019    4.7655   -2.0345 H   0  0  0  1  0  0  0  0  0  0  0  0
   29.1700    3.8276   -2.1731 H   0  0  0  1  0  0  0  0  0  0  0  0
   26.4896    1.0267   -0.0963 C   0  0  0  1  0  0  0  0  0  0  0  0
   26.0211    0.4157   -0.8394 H   0  0  0  1  0  0  0  0  0  0  0  0
   25.8165    1.8019    0.2050 H   0  0  0  1  0  0  0  0  0  0  0  0
   26.8279    0.1821    1.0909 C   0  0  0  1  0  0  0  0  0  0  0  0
   27.8200   -0.1069    1.2089 H   0  0  0  1  0  0  0  0  0  0  0  0
   25.9555   -0.2265    2.0061 C   0  0  0  1  0  0  0  0  0  0  0  0
   24.4928    0.1092    1.9709 C   0  0  0  1  0  0  0  0  0  0  0  0
   23.9343   -0.8034    1.9539 H   0  0  0  1  0  0  0  0  0  0  0  0
   24.2928    0.6670    1.0800 H   0  0  0  1  0  0  0  0  0  0  0  0
   26.3783   -1.0752    3.1720 C   0  0  0  1  0  0  0  0  0  0  0  0
   25.8859   -2.0237    3.1205 H   0  0  0  1  0  0  0  0  0  0  0  0
   26.1123   -0.5846    4.0849 H   0  0  0  1  0  0  0  0  0  0  0  0
   27.4378   -1.2215    3.1407 H   0  0  0  1  0  0  0  0  0  0  0  0
   24.0414    0.9305    3.1676 C   0  0  0  1  0  0  0  0  0  0  0  0
   24.7507    1.7151    3.3291 H   0  0  0  1  0  0  0  0  0  0  0  0
   24.0121    0.2931    4.0265 H   0  0  0  1  0  0  0  0  0  0  0  0
   22.6910    1.5410    2.9823 C   0  0  0  1  0  0  0  0  0  0  0  0
   22.5068    2.0787    2.1114 H   0  0  0  1  0  0  0  0  0  0  0  0
   21.7134    1.4310    3.8754 C   0  0  0  1  0  0  0  0  0  0  0  0
   21.7218    0.4375    5.0026 C   0  0  0  1  0  0  0  0  0  0  0  0
   20.7584    0.4578    5.4677 H   0  0  0  1  0  0  0  0  0  0  0  0
   22.4655    0.7447    5.7079 H   0  0  0  1  0  0  0  0  0  0  0  0
   20.4995    2.3117    3.8234 C   0  0  0  1  0  0  0  0  0  0  0  0
   20.6287    3.0535    3.0632 H   0  0  0  1  0  0  0  0  0  0  0  0
   20.3664    2.7915    4.7705 H   0  0  0  1  0  0  0  0  0  0  0  0
   19.6378    1.7182    3.5995 H   0  0  0  1  0  0  0  0  0  0  0  0
   22.0194   -0.9986    4.6031 C   0  0  0  1  0  0  0  0  0  0  0  0
   22.9144   -1.0105    4.0168 H   0  0  0  1  0  0  0  0  0  0  0  0
   21.2031   -1.3650    4.0163 H   0  0  0  1  0  0  0  0  0  0  0  0
   22.2083   -1.9122    5.7844 C   0  0  0  1  0  0  0  0  0  0  0  0
   23.0596   -1.7549    6.3607 H   0  0  0  1  0  0  0  0  0  0  0  0
   21.4015   -2.9025    6.1726 C   0  0  0  1  0  0  0  0  0  0  0  0
   19.9984   -3.0206    5.6403 C   0  0  0  1  0  0  0  0  0  0  0  0
   19.6538   -2.0446    5.3691 H   0  0  0  1  0  0  0  0  0  0  0  0
   19.3735   -3.4182    6.4125 H   0  0  0  1  0  0  0  0  0  0  0  0
   21.9175   -3.9941    7.0892 C   0  0  0  1  0  0  0  0  0  0  0  0
   21.1044   -4.4003    7.6538 H   0  0  0  1  0  0  0  0  0  0  0  0
   22.6455   -3.5837    7.7574 H   0  0  0  1  0  0  0  0  0  0  0  0
   22.3668   -4.7686    6.5034 H   0  0  0  1  0  0  0  0  0  0  0  0
   19.8976   -3.9248    4.4227 C   0  0  0  1  0  0  0  0  0  0  0  0
   20.1273   -4.9261    4.7221 H   0  0  0  1  0  0  0  0  0  0  0  0
   20.6106   -3.5972    3.6952 H   0  0  0  1  0  0  0  0  0  0  0  0
   18.5307   -3.9149    3.7923 C   0  0  0  1  0  0  0  0  0  0  0  0
   17.8077   -3.3334    4.2622 H   0  0  0  1  0  0  0  0  0  0  0  0
   18.1479   -4.5679    2.7015 C   0  0  0  1  0  0  0  0  0  0  0  0
   19.0920   -5.4718    1.9604 C   0  0  0  1  0  0  0  0  0  0  0  0
   20.0169   -5.4951    2.4978 H   0  0  0  1  0  0  0  0  0  0  0  0
   19.2540   -5.0544    0.9885 H   0  0  0  1  0  0  0  0  0  0  0  0
   16.7700   -4.4757    2.1088 C   0  0  0  1  0  0  0  0  0  0  0  0
   16.3543   -5.4574    2.0168 H   0  0  0  1  0  0  0  0  0  0  0  0
   16.8277   -4.0211    1.1419 H   0  0  0  1  0  0  0  0  0  0  0  0
   16.1470   -3.8830    2.7456 H   0  0  0  1  0  0  0  0  0  0  0  0
   18.6171   -6.9047    1.7821 C   0  0  0  1  0  0  0  0  0  0  0  0
   19.3517   -7.4391    1.2169 H   0  0  0  1  0  0  0  0  0  0  0  0
   17.6921   -6.8924    1.2444 H   0  0  0  1  0  0  0  0  0  0  0  0
   18.4075   -7.6052    3.0584 C   0  0  0  1  0  0  0  0  0  0  0  0
   19.2654   -7.6269    3.6459 H   0  0  0  1  0  0  0  0  0  0  0  0
   17.3805   -8.2164    3.6367 C   0  0  0  1  0  0  0  0  0  0  0  0
   17.5434   -8.9640    4.9282 C   0  0  0  1  0  0  0  0  0  0  0  0
   16.6582   -8.8438    5.5172 H   0  0  0  1  0  0  0  0  0  0  0  0
   18.3828   -8.5669    5.4599 H   0  0  0  1  0  0  0  0  0  0  0  0
   15.9859   -8.2251    3.0767 C   0  0  0  1  0  0  0  0  0  0  0  0
   15.9616   -7.4332    2.3576 H   0  0  0  1  0  0  0  0  0  0  0  0
   15.2705   -8.0478    3.8524 H   0  0  0  1  0  0  0  0  0  0  0  0
   15.7777   -9.1635    2.6066 H   0  0  0  1  0  0  0  0  0  0  0  0
   17.7725  -10.4441    4.6691 C   0  0  0  1  0  0  0  0  0  0  0  0
   18.5767  -10.5471    3.9709 H   0  0  0  1  0  0  0  0  0  0  0  0
   16.8798  -10.8585    4.2492 H   0  0  0  1  0  0  0  0  0  0  0  0
   18.1182  -11.2144    5.9153 C   0  0  0  1  0  0  0  0  0  0  0  0
   18.8807  -10.8239    6.5051 H   0  0  0  1  0  0  0  0  0  0  0  0
   17.5554  -12.3381    6.3432 C   0  0  0  1  0  0  0  0  0  0  0  0
   16.4277  -12.9822    5.5905 C   0  0  0  1  0  0  0  0  0  0  0  0
   16.1413  -13.8882    6.0824 H   0  0  0  1  0  0  0  0  0  0  0  0
   16.7454  -13.2033    4.5930 H   0  0  0  1  0  0  0  0  0  0  0  0
   15.5924  -12.3141    5.5594 H   0  0  0  1  0  0  0  0  0  0  0  0
   17.9765  -13.0675    7.5958 C   0  0  0  1  0  0  0  0  0  0  0  0
   17.9113  -12.3729    8.4071 H   0  0  0  1  0  0  0  0  0  0  0  0
   18.9824  -13.4179    7.4943 H   0  0  0  1  0  0  0  0  0  0  0  0
   17.3251  -13.8978    7.7721 H   0  0  0  1  0  0  0  0  0  0  0  0
   16.0141   -5.1523   -1.5320 C   0  0  0  1  0  0  0  0  0  0  0  0
   16.2234   -5.6752   -0.6222 H   0  0  0  1  0  0  0  0  0  0  0  0
   14.8346   -5.8072   -2.2392 C   0  0  0  1  0  0  0  0  0  0  0  0
   15.0737   -6.8232   -2.4748 H   0  0  0  1  0  0  0  0  0  0  0  0
   15.6795   -3.7987   -1.2402 O   0  0  0  1  0  0  0  0  0  0  0  0
   14.5528   -5.0361   -3.5197 C   0  0  0  1  0  0  0  0  0  0  0  0
   13.6320   -5.3880   -3.9359 H   0  0  0  1  0  0  0  0  0  0  0  0
   15.6054   -3.0205   -2.4417 C   0  0  0  1  0  0  0  0  0  0  0  0
   16.5188   -3.1180   -2.9905 H   0  0  0  1  0  0  0  0  0  0  0  0
   14.4405   -3.5342   -3.2870 C   0  0  0  1  0  0  0  0  0  0  0  0
   14.4467   -3.0327   -4.2321 H   0  0  0  1  0  0  0  0  0  0  0  0
   17.1597   -5.1907   -2.3765 O   0  0  0  1  0  0  0  0  0  0  0  0
   13.6964   -5.7724   -1.4009 O   0  0  0  1  0  0  0  0  0  0  0  0
   12.9877   -5.2985   -1.8422 H   0  0  0  1  0  0  0  0  0  0  0  0
   15.6185   -5.2781   -4.4444 O   0  0  0  1  0  0  0  0  0  0  0  0
   16.2995   -4.6112   -4.3302 H   0  0  0  1  0  0  0  0  0  0  0  0
   15.3790   -1.5689   -2.0935 C   0  0  0  1  0  0  0  0  0  0  0  0
   15.1734   -1.0155   -2.9859 H   0  0  0  1  0  0  0  0  0  0  0  0
   16.2554   -1.1743   -1.6233 H   0  0  0  1  0  0  0  0  0  0  0  0
   14.5477   -1.4883   -1.4246 H   0  0  0  1  0  0  0  0  0  0  0  0
   19.5667   -5.9362   -3.8559 C   0  0  0  1  0  0  0  0  0  0  0  0
   19.5535   -4.9801   -3.3756 H   0  0  0  1  0  0  0  0  0  0  0  0
   18.1615   -6.3390   -4.2112 C   0  0  0  1  0  0  0  0  0  0  0  0
   18.1810   -7.2738   -4.7315 H   0  0  0  1  0  0  0  0  0  0  0  0
   20.1226   -6.8972   -2.9793 O   0  0  0  1  0  0  0  0  0  0  0  0
   17.3413   -6.4812   -2.9621 C   0  0  0  1  0  0  0  0  0  0  0  0
   16.3881   -6.8949   -3.2174 H   0  0  0  1  0  0  0  0  0  0  0  0
   19.4358   -6.9130   -1.7151 C   0  0  0  1  0  0  0  0  0  0  0  0
   19.9307   -7.5814   -1.0418 H   0  0  0  1  0  0  0  0  0  0  0  0
   18.0157   -7.3857   -1.9571 C   0  0  0  1  0  0  0  0  0  0  0  0
   17.4714   -7.3620   -1.0362 H   0  0  0  1  0  0  0  0  0  0  0  0
   17.5673   -5.3181   -5.0665 N   0  0  0  1  0  0  0  0  0  0  0  0
   17.2286   -4.4870   -4.6729 H   0  0  0  1  0  0  0  0  0  0  0  0
   18.0399   -8.7216   -2.4623 O   0  0  0  1  0  0  0  0  0  0  0  0
   18.5407   -9.2422   -1.8300 H   0  0  0  1  0  0  0  0  0  0  0  0
   19.4191   -5.5312   -1.1276 C   0  0  0  1  0  0  0  0  0  0  0  0
   18.8513   -5.5371   -0.2207 H   0  0  0  1  0  0  0  0  0  0  0  0
   18.9717   -4.8538   -1.8246 H   0  0  0  1  0  0  0  0  0  0  0  0
   20.7517   -5.1122   -0.8491 O   0  0  0  1  0  0  0  0  0  0  0  0
   21.2579   -5.8816   -0.5784 H   0  0  0  1  0  0  0  0  0  0  0  0
   17.4838   -5.5133   -6.3834 C   0  0  0  1  0  0  0  0  0  0  0  0
   17.9320   -6.5032   -6.9380 O   0  0  0  1  0  0  0  0  0  0  0  0
   16.7889   -4.4182   -7.1689 C   0  0  0  1  0  0  0  0  0  0  0  0
   16.4012   -4.9154   -8.0334 H   0  0  0  1  0  0  0  0  0  0  0  0
   17.4841   -3.6554   -7.4511 H   0  0  0  1  0  0  0  0  0  0  0  0
   15.9969   -3.9848   -6.5946 H   0  0  0  1  0  0  0  0  0  0  0  0
  1  2  1  0  0  0  0
  1  3  1  0  0  0  0
  1  4  1  0  0  0  0
  1 44  1  0  0  0  0
  3 20  1  0  0  0  0
  4  5  1  0  0  0  0
  4  6  1  0  0  0  0
  4  8  1  0  0  0  0
  6  7  1  0  0  0  0
  8  9  1  0  0  0  0
  8 10  1  0  0  0  0
  8 20  1  0  0  0  0
 10 11  1  0  0  0  0
 12 13  1  0  0  0  0
 12 14  1  0  0  0  0
 12 15  1  0  0  0  0
 12 17  1  0  0  0  0
 15 16  1  0  0  0  0
 17 18  1  0  0  0  0
 17 19  1  0  0  0  0
 17 20  1  0  0  0  0
 19 22  1  0  0  0  0
 20 21  1  0  0  0  0
 22 23  1  0  0  0  0
 22 24  1  0  0  0  0
 22 25  1  0  0  0  0
 24 42  1  0  0  0  0
 25 26  1  0  0  0  0
 25 27  1  0  0  0  0
 25 29  1  0  0  0  0
 27 28  1  0  0  0  0
 29 30  1  0  0  0  0
 29 31  1  0  0  0  0
 29 42  1  0  0  0  0
 31 32  1  0  0  0  0
 33 34  1  0  0  0  0
 33 35  1  0  0  0  0
 33 36  1  0  0  0  0
 33 38  1  0  0  0  0
 36 37  1  0  0  0  0
 38 39  1  0  0  0  0
 38 40  1  0  0  0  0
 38 42  1  0  0  0  0
 40 41  1  0  0  0  0
 42 43  1  0  0  0  0
 44194  1  0  0  0  0
 45 46  1  0  0  0  0
 45 54  1  0  0  0  0
 46 47  1  0  0  0  0
 46 48  1  0  0  0  0
 46 49  2  0  0  0  0
 47 50  1  0  0  0  0
 50 51  1  0  0  0  0
 50 52  1  0  0  0  0
 50 53  2  0  0  0  0
 51205  1  0  0  0  0
 54 55  1  0  0  0  0
 54 56  1  0  0  0  0
 54 57  1  0  0  0  0
 57 58  1  0  0  0  0
 57 59  2  0  0  0  0
 59 60  1  0  0  0  0
 59 64  1  0  0  0  0
 60 61  1  0  0  0  0
 60 62  1  0  0  0  0
 60 63  1  0  0  0  0
 64 65  1  0  0  0  0
 64 66  1  0  0  0  0
 64 67  1  0  0  0  0
 67 68  1  0  0  0  0
 67 69  1  0  0  0  0
 67 70  1  0  0  0  0
 70 71  1  0  0  0  0
 70 72  2  0  0  0  0
 72 73  1  0  0  0  0
 72 77  1  0  0  0  0
 73 74  1  0  0  0  0
 73 75  1  0  0  0  0
 73 76  1  0  0  0  0
 77 78  1  0  0  0  0
 77 79  1  0  0  0  0
 77 80  1  0  0  0  0
 80 81  1  0  0  0  0
 80 82  1  0  0  0  0
 80 83  1  0  0  0  0
 83 84  1  0  0  0  0
 83 85  2  0  0  0  0
 85 86  1  0  0  0  0
 85 89  1  0  0  0  0
 86 87  1  0  0  0  0
 86 88  1  0  0  0  0
 86 93  1  0  0  0  0
 89 90  1  0  0  0  0
 89 91  1  0  0  0  0
 89 92  1  0  0  0  0
 93 94  1  0  0  0  0
 93 95  1  0  0  0  0
 93 96  1  0  0  0  0
 96 97  1  0  0  0  0
 96 98  2  0  0  0  0
 98 99  1  0  0  0  0
 98102  1  0  0  0  0
 99100  1  0  0  0  0
 99101  1  0  0  0  0
 99106  1  0  0  0  0
102103  1  0  0  0  0
102104  1  0  0  0  0
102105  1  0  0  0  0
106107  1  0  0  0  0
106108  1  0  0  0  0
106109  1  0  0  0  0
109110  1  0  0  0  0
109111  2  0  0  0  0
111112  1  0  0  0  0
111115  1  0  0  0  0
112113  1  0  0  0  0
112114  1  0  0  0  0
112119  1  0  0  0  0
115116  1  0  0  0  0
115117  1  0  0  0  0
115118  1  0  0  0  0
119120  1  0  0  0  0
119121  1  0  0  0  0
119122  1  0  0  0  0
122123  1  0  0  0  0
122124  2  0  0  0  0
124125  1  0  0  0  0
124128  1  0  0  0  0
125126  1  0  0  0  0
125127  1  0  0  0  0
125132  1  0  0  0  0
128129  1  0  0  0  0
128130  1  0  0  0  0
128131  1  0  0  0  0
132133  1  0  0  0  0
132134  1  0  0  0  0
132135  1  0  0  0  0
135136  1  0  0  0  0
135137  2  0  0  0  0
137138  1  0  0  0  0
137141  1  0  0  0  0
138139  1  0  0  0  0
138140  1  0  0  0  0
138145  1  0  0  0  0
141142  1  0  0  0  0
141143  1  0  0  0  0
141144  1  0  0  0  0
145146  1  0  0  0  0
145147  1  0  0  0  0
145148  1  0  0  0  0
148149  1  0  0  0  0
148150  2  0  0  0  0
150151  1  0  0  0  0
150154  1  0  0  0  0
151152  1  0  0  0  0
151153  1  0  0  0  0
151158  1  0  0  0  0
154155  1  0  0  0  0
154156  1  0  0  0  0
154157  1  0  0  0  0
158159  1  0  0  0  0
158160  1  0  0  0  0
158161  1  0  0  0  0
161162  1  0  0  0  0
161163  2  0  0  0  0
163164  1  0  0  0  0
163167  1  0  0  0  0
164165  1  0  0  0  0
164166  1  0  0  0  0
164171  1  0  0  0  0
167168  1  0  0  0  0
167169  1  0  0  0  0
167170  1  0  0  0  0
171172  1  0  0  0  0
171173  1  0  0  0  0
171174  1  0  0  0  0
174175  1  0  0  0  0
174176  2  0  0  0  0
176177  1  0  0  0  0
176181  1  0  0  0  0
177178  1  0  0  0  0
177179  1  0  0  0  0
177180  1  0  0  0  0
181182  1  0  0  0  0
181183  1  0  0  0  0
181184  1  0  0  0  0
185186  1  0  0  0  0
185187  1  0  0  0  0
185189  1  0  0  0  0
185196  1  0  0  0  0
187188  1  0  0  0  0
187190  1  0  0  0  0
187197  1  0  0  0  0
189192  1  0  0  0  0
190191  1  0  0  0  0
190194  1  0  0  0  0
190199  1  0  0  0  0
192193  1  0  0  0  0
192194  1  0  0  0  0
192201  1  0  0  0  0
194195  1  0  0  0  0
196210  1  0  0  0  0
197198  1  0  0  0  0
199200  1  0  0  0  0
201202  1  0  0  0  0
201203  1  0  0  0  0
201204  1  0  0  0  0
205206  1  0  0  0  0
205207  1  0  0  0  0
205209  1  0  0  0  0
207208  1  0  0  0  0
207210  1  0  0  0  0
207216  1  0  0  0  0
209212  1  0  0  0  0
210211  1  0  0  0  0
210214  1  0  0  0  0
212213  1  0  0  0  0
212214  1  0  0  0  0
212220  1  0  0  0  0
214215  1  0  0  0  0
214218  1  0  0  0  0
216217  1  0  0  0  0
216225  1  0  0  0  0
218219  1  0  0  0  0
220221  1  0  0  0  0
220222  1  0  0  0  0
220223  1  0  0  0  0
223224  1  0  0  0  0
225226  2  0  0  0  0
225227  1  0  0  0  0
227228  1  0  0  0  0
227229  1  0  0  0  0
227230  1  0  0  0  0
M  BCL ATM C_TeTeTeTe H_S O_Te2Te2TeTe C_TeTeTeTe H_S O_Te2Te2TeTe H_S C_TeTeTeTe H_S O_Te2Te2TeTe H_S C_TeTeTeTe H_S H_S O_Te2Te2TeTe H_S C_TeTeTeTe H_S O_Te2Te2TeTe C_TeTeTeTe H_S C_TeTeTeTe H_S O_Te2Te2TeTe C_TeTeTeTe H_S O_Te2Te2TeTe H_S C_TeTeTeTe H_S O_Te2Te2TeTe H_S C_TeTeTeTe H_S H_S O_Te2Te2TeTe H_S C_TeTeTeTe H_S O_Te2Te2TeTe H_S C_TeTeTeTe H_S O_Te2Te2TeTe O_Tr2TrTrPi2 P_TeTeTeTePi O_Tr2TrTrPi2 O_Te2Te2TeTe O_Tr2Tr2TrPi P_TeTeTeTePi O_Tr2TrTrPi2 O_Te2Te2TeTe O_Tr2Tr2TrPi C_TeTeTeTe H_S H_S C_TrTrTrPi H_S C_TrTrTrPi C_TeTeTeTe H_S H_S H_S C_TeTeTeTe H_S H_S C_TeTeTeTe H_S H_S C_TrTrTrPi H_S C_TrTrTrPi C_TeTeTeTe H_S H_S H_S C_TeTeTeTe H_S H_S C_TeTeTeTe H_S H_S C_TrTrTrPi H_S C_TrTrTrPi C_TeTeTeTe H_S H_S C_TeTeTeTe H_S H_S H_S C_TeTeTeTe H_S H_S C_TrTrTrPi H_S C_TrTrTrPi C_TeTeTeTe H_S H_S C_TeTeTeTe H_S H_S H_S C_TeTeTeTe H_S H_S C_TrTrTrPi H_S C_TrTrTrPi C_TeTeTeTe H_S H_S C_TeTeTeTe H_S H_S H_S C_TeTeTeTe H_S H_S C_TrTrTrPi H_S C_TrTrTrPi C_TeTeTeTe H_S H_S C_TeTeTeTe H_S H_S H_S C_TeTeTeTe H_S H_S C_TrTrTrPi H_S C_TrTrTrPi C_TeTeTeTe H_S H_S C_TeTeTeTe H_S H_S H_S C_TeTeTeTe H_S H_S C_TrTrTrPi H_S C_TrTrTrPi C_TeTeTeTe H_S H_S C_TeTeTeTe H_S H_S H_S C_TeTeTeTe H_S H_S C_TrTrTrPi H_S C_TrTrTrPi C_TeTeTeTe H_S H_S C_TeTeTeTe H_S H_S H_S C_TeTeTeTe H_S H_S C_TrTrTrPi H_S C_TrTrTrPi C_TeTeTeTe H_S H_S H_S C_TeTeTeTe H_S H_S H_S C_TeTeTeTe H_S C_TeTeTeTe H_S O_Te2Te2TeTe C_TeTeTeTe H_S C_TeTeTeTe H_S C_TeTeTeTe H_S O_Te2Te2TeTe O_Te2Te2TeTe H_S O_Te2Te2TeTe H_S C_TeTeTeTe H_S H_S H_S C_TeTeTeTe H_S C_TeTeTeTe H_S O_Te2Te2TeTe C_TeTeTeTe H_S C_TeTeTeTe H_S C_TeTeTeTe H_S N_TrTrTrPi2 H_S O_Te2Te2TeTe H_S C_TeTeTeTe H_S H_S O_Te2Te2TeTe H_S C_TrTrTrPi O_Tr2Tr2TrPi C_TeTeTeTe H_S H_S H_S
M  BCL BND NonConjugatedSingleBond NonConjugatedSingleBondInRing NonConjugatedSingleBondInRing NonConjugatedSingleBond NonConjugatedSingleBondInRing NonConjugatedSingleBond NonConjugatedSingleBond NonConjugatedSingleBondInRing NonConjugatedSingleBond NonConjugatedSingleBond NonConjugatedSingleBond NonConjugatedSingleBondInRing NonConjugatedSingleBond NonConjugatedSingleBond NonConjugatedSingleBond NonConjugatedSingleBond NonConjugatedSingleBond NonConjugatedSingleBond NonConjugatedSingleBond NonConjugatedSingleBond NonConjugatedSingleBond NonConjugatedSingleBond NonConjugatedSingleBond NonConjugatedSingleBond NonConjugatedSingleBondInRing NonConjugatedSingleBondInRing NonConjugatedSingleBondInRing NonConjugatedSingleBond NonConjugatedSingleBond NonConjugatedSingleBondInRing NonConjugatedSingleBond NonConjugatedSingleBond NonConjugatedSingleBond NonConjugatedSingleBondInRing NonConjugatedSingleBond NonConjugatedSingleBond NonConjugatedSingleBond NonConjugatedSingleBond NonConjugatedSingleBond NonConjugatedSingleBond NonConjugatedSingleBond NonConjugatedSingleBond NonConjugatedSingleBond NonConjugatedSingleBond NonConjugatedSingleBond NonConjugatedSingleBond ConjugatedSingleBond NonConjugatedSingleBond ConjugatedSingleBond ConjugatedSingleBond ConjugatedDoubleBond ConjugatedSingleBond ConjugatedSingleBond ConjugatedSingleBond ConjugatedDoubleBond NonConjugatedSingleBond NonConjugatedSingleBond NonConjugatedSingleBond NonConjugatedSingleBond NonConjugatedSingleBond ConjugatedDoubleBond NonConjugatedSingleBond NonConjugatedSingleBond NonConjugatedSingleBond NonConjugatedSingleBond NonConjugatedSingleBond NonConjugatedSingleBond NonConjugatedSingleBond NonConjugatedSingleBond NonConjugatedSingleBond NonConjugatedSingleBond NonConjugatedSingleBond NonConjugatedSingleBond ConjugatedDoubleBond NonConjugatedSingleBond NonConjugatedSingleBond NonConjugatedSingleBond NonConjugatedSingleBond NonConjugatedSingleBond NonConjugatedSingleBond NonConjugatedSingleBond NonConjugatedSingleBond NonConjugatedSingleBond NonConjugatedSingleBond NonConjugatedSingleBond NonConjugatedSingleBond ConjugatedDoubleBond NonConjugatedSingleBond NonConjugatedSingleBond NonConjugatedSingleBond NonConjugatedSingleBond NonConjugatedSingleBond NonConjugatedSingleBond NonConjugatedSingleBond NonConjugatedSingleBond NonConjugatedSingleBond NonConjugatedSingleBond NonConjugatedSingleBond NonConjugatedSingleBond ConjugatedDoubleBond NonConjugatedSingleBond NonConjugatedSingleBond NonConjugatedSingleBond NonConjugatedSingleBond NonConjugatedSingleBond NonConjugatedSingleBond NonConjugatedSingleBond NonConjugatedSingleBond NonConjugatedSingleBond NonConjugatedSingleBond NonConjugatedSingleBond NonConjugatedSingleBond ConjugatedDoubleBond NonConjugatedSingleBond NonConjugatedSingleBond NonConjugatedSingleBond NonConjugatedSingleBond NonConjugatedSingleBond NonConjugatedSingleBond NonConjugatedSingleBond NonConjugatedSingleBond NonConjugatedSingleBond NonConjugatedSingleBond NonConjugatedSingleBond NonConjugatedSingleBond ConjugatedDoubleBond NonConjugatedSingleBond NonConjugatedSingleBond NonConjugatedSingleBond NonConjugatedSingleBond NonConjugatedSingleBond NonConjugatedSingleBond NonConjugatedSingleBond NonConjugatedSingleBond NonConjugatedSingleBond NonConjugatedSingleBond NonConjugatedSingleBond NonConjugatedSingleBond ConjugatedDoubleBond NonConjugatedSingleBond NonConjugatedSingleBond NonConjugatedSingleBond NonConjugatedSingleBond NonConjugatedSingleBond NonConjugatedSingleBond NonConjugatedSingleBond NonConjugatedSingleBond NonConjugatedSingleBond NonConjugatedSingleBond NonConjugatedSingleBond NonConjugatedSingleBond ConjugatedDoubleBond NonConjugatedSingleBond NonConjugatedSingleBond NonConjugatedSingleBond NonConjugatedSingleBond NonConjugatedSingleBond NonConjugatedSingleBond NonConjugatedSingleBond NonConjugatedSingleBond NonConjugatedSingleBond NonConjugatedSingleBond NonConjugatedSingleBond NonConjugatedSingleBond ConjugatedDoubleBond NonConjugatedSingleBond NonConjugatedSingleBond NonConjugatedSingleBond NonConjugatedSingleBond NonConjugatedSingleBond NonConjugatedSingleBond NonConjugatedSingleBond NonConjugatedSingleBond NonConjugatedSingleBond NonConjugatedSingleBond NonConjugatedSingleBond NonConjugatedSingleBond ConjugatedDoubleBond NonConjugatedSingleBond NonConjugatedSingleBond NonConjugatedSingleBond NonConjugatedSingleBond NonConjugatedSingleBond NonConjugatedSingleBond NonConjugatedSingleBond NonConjugatedSingleBond NonConjugatedSingleBond NonConjugatedSingleBondInRing NonConjugatedSingleBondInRing NonConjugatedSingleBond NonConjugatedSingleBond NonConjugatedSingleBondInRing NonConjugatedSingleBond NonConjugatedSingleBondInRing NonConjugatedSingleBond NonConjugatedSingleBondInRing NonConjugatedSingleBond NonConjugatedSingleBond NonConjugatedSingleBondInRing NonConjugatedSingleBond NonConjugatedSingleBond NonConjugatedSingleBond NonConjugatedSingleBond NonConjugatedSingleBond NonConjugatedSingleBond NonConjugatedSingleBond NonConjugatedSingleBond NonConjugatedSingleBond NonConjugatedSingleBondInRing NonConjugatedSingleBondInRing NonConjugatedSingleBond NonConjugatedSingleBondInRing NonConjugatedSingleBond NonConjugatedSingleBondInRing NonConjugatedSingleBond NonConjugatedSingleBondInRing NonConjugatedSingleBond NonConjugatedSingleBondInRing NonConjugatedSingleBond NonConjugatedSingleBond NonConjugatedSingleBond NonConjugatedSingleBond AmideSingleBond NonConjugatedSingleBond NonConjugatedSingleBond NonConjugatedSingleBond NonConjugatedSingleBond NonConjugatedSingleBond ConjugatedDoubleBond NonConjugatedSingleBond NonConjugatedSingleBond NonConjugatedSingleBond NonConjugatedSingleBond
M  BCL CHI   1   R   4   R   8   R  17   S  20   R  22   S  25   R  29   S  38   S  42   R  46   R  50   S 185   R 187   S 190   S 192   R 194   R 205   R 207   S 210   R 212   S 214   S
M  BCL DBI - - E E E E E E E E Z - -
M  END
> <ConfClashScore>
0.0209063 

> <ConfOneFourInteractionScore>
-0.968348 

> <ConfScore>
2.19847 

> <ConfScorePBest>
0.00603446 

> <ConfTolerance>
4.77088 

$$$$
L05.****
  PyMOL2.5          3D                             0

230233  0  0  0  0  0  0  0  0999 V2000
   12.0104   -3.7533   -2.7414 C   0  0  0  1  0  0  0  0  0  0  0  0
   12.0285   -3.8198   -3.8091 H   0  0  0  1  0  0  0  0  0  0  0  0
   10.9569   -2.9142   -2.3172 O   0  0  0  1  0  0  0  0  0  0  0  0
   11.7188   -5.1120   -2.1305 C   0  0  0  1  0  0  0  0  0  0  0  0
   12.6204   -5.6643   -1.9664 H   0  0  0  1  0  0  0  0  0  0  0  0
   10.8376   -5.8725   -2.9583 O   0  0  0  1  0  0  0  0  0  0  0  0
   11.3506   -6.4635   -3.5143 H   0  0  0  1  0  0  0  0  0  0  0  0
   11.0598   -4.7441   -0.8261 C   0  0  0  1  0  0  0  0  0  0  0  0
   10.4519   -5.5434   -0.4567 H   0  0  0  1  0  0  0  0  0  0  0  0
   12.0257   -4.3835    0.1624 O   0  0  0  1  0  0  0  0  0  0  0  0
   12.7112   -5.0545    0.2004 H   0  0  0  1  0  0  0  0  0  0  0  0
    8.0621   -4.8514   -0.7181 C   0  0  0  1  0  0  0  0  0  0  0  0
    7.0660   -4.9845   -1.0854 H   0  0  0  1  0  0  0  0  0  0  0  0
    8.5405   -5.8045   -0.6297 H   0  0  0  1  0  0  0  0  0  0  0  0
    7.9973   -4.2524    0.5694 O   0  0  0  1  0  0  0  0  0  0  0  0
    8.4048   -4.8348    1.2146 H   0  0  0  1  0  0  0  0  0  0  0  0
    8.8504   -3.9944   -1.7267 C   0  0  0  1  0  0  0  0  0  0  0  0
    8.2753   -3.1069   -1.8894 H   0  0  0  1  0  0  0  0  0  0  0  0
    9.0512   -4.6262   -2.9858 O   0  0  0  1  0  0  0  0  0  0  0  0
   10.2104   -3.5431   -1.2400 C   0  0  0  1  0  0  0  0  0  0  0  0
   10.0898   -2.8663   -0.4200 H   0  0  0  1  0  0  0  0  0  0  0  0
    7.9689   -5.4600   -3.3284 C   0  0  0  1  0  0  0  0  0  0  0  0
    7.0554   -5.0162   -2.9915 H   0  0  0  1  0  0  0  0  0  0  0  0
    7.9321   -5.6825   -4.7120 O   0  0  0  1  0  0  0  0  0  0  0  0
    8.1485   -6.8603   -2.7244 C   0  0  0  1  0  0  0  0  0  0  0  0
    7.7393   -6.9098   -1.7370 H   0  0  0  1  0  0  0  0  0  0  0  0
    9.5271   -7.2326   -2.6885 O   0  0  0  1  0  0  0  0  0  0  0  0
   10.0606   -6.4655   -2.4687 H   0  0  0  1  0  0  0  0  0  0  0  0
    7.3748   -7.7333   -3.6772 C   0  0  0  1  0  0  0  0  0  0  0  0
    6.3361   -7.7542   -3.4213 H   0  0  0  1  0  0  0  0  0  0  0  0
    7.8894   -9.0618   -3.6856 O   0  0  0  1  0  0  0  0  0  0  0  0
    8.5408   -9.1575   -2.9869 H   0  0  0  1  0  0  0  0  0  0  0  0
    6.6355   -6.6474   -7.2804 C   0  0  0  1  0  0  0  0  0  0  0  0
    7.4124   -7.2582   -7.6905 H   0  0  0  1  0  0  0  0  0  0  0  0
    5.7558   -6.7359   -7.8832 H   0  0  0  1  0  0  0  0  0  0  0  0
    7.0605   -5.2922   -7.2617 O   0  0  0  1  0  0  0  0  0  0  0  0
    7.9882   -5.2440   -7.5036 H   0  0  0  1  0  0  0  0  0  0  0  0
    6.3264   -7.1059   -5.8663 C   0  0  0  1  0  0  0  0  0  0  0  0
    6.0231   -8.1305   -5.9210 H   0  0  0  1  0  0  0  0  0  0  0  0
    5.2653   -6.3467   -5.3107 O   0  0  0  1  0  0  0  0  0  0  0  0
    4.4666   -6.4886   -5.8241 H   0  0  0  1  0  0  0  0  0  0  0  0
    7.5935   -7.0510   -5.0309 C   0  0  0  1  0  0  0  0  0  0  0  0
    8.3933   -7.5214   -5.5637 H   0  0  0  1  0  0  0  0  0  0  0  0
   13.2597   -3.2567   -2.2752 O   0  0  0  1  0  0  0  0  0  0  0  0
   23.1854   -3.7215   -6.4711 O   0  0  0  1  0  0  0  0  0  0  0  0
   23.4251   -5.1575   -5.9209 P   0  0  0  1  0  0  0  0  0  0  0  0
   22.0628   -5.6812   -5.2493 O   0  0  0  1  0  0  0  0  0  0  0  0
   24.4339   -5.1078   -4.7694 O   0  0  0  0  0  0  0  0  0  0  0  0
   23.8618   -6.0041   -7.0555 O   0  0  0  1  0  0  0  0  0  0  0  0
   21.4263   -7.1689   -5.0707 P   0  0  0  1  0  0  0  0  0  0  0  0
   20.8874   -6.8350   -3.6342 O   0  0  0  1  0  0  0  0  0  0  0  0
   22.5038   -8.1723   -4.9893 O   0  0  0  0  0  0  0  0  0  0  0  0
   20.3017   -7.3770   -6.0081 O   0  0  0  1  0  0  0  0  0  0  0  0
   22.6513   -3.5738   -7.7839 C   0  0  0  1  0  0  0  0  0  0  0  0
   21.6740   -4.0090   -7.7994 H   0  0  0  1  0  0  0  0  0  0  0  0
   23.2870   -4.0989   -8.4658 H   0  0  0  1  0  0  0  0  0  0  0  0
   22.5399   -2.1505   -8.2455 C   0  0  0  1  0  0  0  0  0  0  0  0
   22.1342   -1.9806   -9.1879 H   0  0  0  1  0  0  0  0  0  0  0  0
   22.9207   -1.0918   -7.5406 C   0  0  0  1  0  0  0  0  0  0  0  0
   23.0857    0.2550   -8.1825 C   0  0  0  1  0  0  0  0  0  0  0  0
   24.0376    0.6640   -7.9148 H   0  0  0  1  0  0  0  0  0  0  0  0
   22.3091    0.9087   -7.8441 H   0  0  0  1  0  0  0  0  0  0  0  0
   23.0282    0.1525   -9.2460 H   0  0  0  1  0  0  0  0  0  0  0  0
   23.2179   -1.1273   -6.0705 C   0  0  0  1  0  0  0  0  0  0  0  0
   24.2297   -1.4480   -5.9353 H   0  0  0  1  0  0  0  0  0  0  0  0
   22.5560   -1.8280   -5.6060 H   0  0  0  1  0  0  0  0  0  0  0  0
   23.0441    0.2233   -5.3951 C   0  0  0  1  0  0  0  0  0  0  0  0
   22.0389    0.5551   -5.5510 H   0  0  0  1  0  0  0  0  0  0  0  0
   23.7232    0.9181   -5.8434 H   0  0  0  1  0  0  0  0  0  0  0  0
   23.3103    0.1806   -3.9142 C   0  0  0  1  0  0  0  0  0  0  0  0
   22.8070   -0.5515   -3.3735 H   0  0  0  1  0  0  0  0  0  0  0  0
   24.1221    0.9802   -3.2198 C   0  0  0  1  0  0  0  0  0  0  0  0
   24.5500    0.6307   -1.8240 C   0  0  0  1  0  0  0  0  0  0  0  0
   23.9612    1.1824   -1.1213 H   0  0  0  1  0  0  0  0  0  0  0  0
   25.5830    0.8782   -1.6954 H   0  0  0  1  0  0  0  0  0  0  0  0
   24.4107   -0.4175   -1.6604 H   0  0  0  1  0  0  0  0  0  0  0  0
   24.6399    2.2605   -3.8060 C   0  0  0  1  0  0  0  0  0  0  0  0
   25.4268    2.0270   -4.4924 H   0  0  0  1  0  0  0  0  0  0  0  0
   25.0257    2.8666   -3.0131 H   0  0  0  1  0  0  0  0  0  0  0  0
   23.5727    3.0517   -4.5445 C   0  0  0  1  0  0  0  0  0  0  0  0
   22.7449    3.2217   -3.8881 H   0  0  0  1  0  0  0  0  0  0  0  0
   23.2451    2.4904   -5.3945 H   0  0  0  1  0  0  0  0  0  0  0  0
   24.1097    4.3628   -5.0026 C   0  0  0  1  0  0  0  0  0  0  0  0
   25.0366    4.6012   -4.5955 H   0  0  0  1  0  0  0  0  0  0  0  0
   23.6375    5.2822   -5.8258 C   0  0  0  1  0  0  0  0  0  0  0  0
   22.3209    5.1707   -6.5383 C   0  0  0  1  0  0  0  0  0  0  0  0
   21.9653    4.1662   -6.4414 H   0  0  0  1  0  0  0  0  0  0  0  0
   22.4733    5.3974   -7.5728 H   0  0  0  1  0  0  0  0  0  0  0  0
   24.3688    6.5780   -6.0353 C   0  0  0  1  0  0  0  0  0  0  0  0
   23.7294    7.3953   -5.7742 H   0  0  0  1  0  0  0  0  0  0  0  0
   24.6550    6.6636   -7.0628 H   0  0  0  1  0  0  0  0  0  0  0  0
   25.2427    6.5979   -5.4182 H   0  0  0  1  0  0  0  0  0  0  0  0
   21.2638    6.1135   -5.9869 C   0  0  0  1  0  0  0  0  0  0  0  0
   21.6946    7.0880   -5.8884 H   0  0  0  1  0  0  0  0  0  0  0  0
   20.9595    5.7585   -5.0245 H   0  0  0  1  0  0  0  0  0  0  0  0
   20.0468    6.2144   -6.8672 C   0  0  0  1  0  0  0  0  0  0  0  0
   20.1346    6.7586   -7.7491 H   0  0  0  1  0  0  0  0  0  0  0  0
   18.8639    5.6577   -6.6004 C   0  0  0  1  0  0  0  0  0  0  0  0
   18.6554    4.8284   -5.3649 C   0  0  0  1  0  0  0  0  0  0  0  0
   19.6185    4.6435   -4.9370 H   0  0  0  1  0  0  0  0  0  0  0  0
   18.2170    3.9017   -5.6716 H   0  0  0  1  0  0  0  0  0  0  0  0
   17.6943    5.8374   -7.5233 C   0  0  0  1  0  0  0  0  0  0  0  0
   18.0306    6.2564   -8.4486 H   0  0  0  1  0  0  0  0  0  0  0  0
   16.9820    6.4958   -7.0718 H   0  0  0  1  0  0  0  0  0  0  0  0
   17.2365    4.8879   -7.7074 H   0  0  0  1  0  0  0  0  0  0  0  0
   17.7748    5.4077   -4.2698 C   0  0  0  1  0  0  0  0  0  0  0  0
   16.8519    5.7144   -4.7160 H   0  0  0  1  0  0  0  0  0  0  0  0
   18.2747    6.2608   -3.8609 H   0  0  0  1  0  0  0  0  0  0  0  0
   17.4537    4.4703   -3.1366 C   0  0  0  1  0  0  0  0  0  0  0  0
   17.0102    3.5605   -3.3756 H   0  0  0  1  0  0  0  0  0  0  0  0
   17.6966    4.7208   -1.8427 C   0  0  0  1  0  0  0  0  0  0  0  0
   18.5903    5.8780   -1.4845 C   0  0  0  1  0  0  0  0  0  0  0  0
   18.0561    6.5488   -0.8445 H   0  0  0  1  0  0  0  0  0  0  0  0
   18.8768    6.3900   -2.3792 H   0  0  0  1  0  0  0  0  0  0  0  0
   17.1209    3.9041   -0.7490 C   0  0  0  1  0  0  0  0  0  0  0  0
   16.4169    3.2083   -1.1554 H   0  0  0  1  0  0  0  0  0  0  0  0
   16.6258    4.5442   -0.0489 H   0  0  0  1  0  0  0  0  0  0  0  0
   17.9040    3.3701   -0.2527 H   0  0  0  1  0  0  0  0  0  0  0  0
   19.8389    5.3925   -0.7664 C   0  0  0  1  0  0  0  0  0  0  0  0
   20.2759    4.6018   -1.3399 H   0  0  0  1  0  0  0  0  0  0  0  0
   19.5556    5.0211    0.1962 H   0  0  0  1  0  0  0  0  0  0  0  0
   20.8626    6.4670   -0.5797 C   0  0  0  1  0  0  0  0  0  0  0  0
   21.1438    7.0147   -1.4179 H   0  0  0  1  0  0  0  0  0  0  0  0
   21.4395    6.7739    0.5772 C   0  0  0  1  0  0  0  0  0  0  0  0
   21.1705    6.0438    1.8625 C   0  0  0  1  0  0  0  0  0  0  0  0
   20.4786    5.2517    1.6659 H   0  0  0  1  0  0  0  0  0  0  0  0
   20.7385    6.7305    2.5602 H   0  0  0  1  0  0  0  0  0  0  0  0
   22.4261    7.8993    0.6885 C   0  0  0  1  0  0  0  0  0  0  0  0
   23.2885    7.6782    0.0951 H   0  0  0  1  0  0  0  0  0  0  0  0
   22.7179    8.0176    1.7112 H   0  0  0  1  0  0  0  0  0  0  0  0
   21.9752    8.8044    0.3388 H   0  0  0  1  0  0  0  0  0  0  0  0
   22.4240    5.4485    2.4827 C   0  0  0  1  0  0  0  0  0  0  0  0
   23.1012    6.2443    2.7127 H   0  0  0  1  0  0  0  0  0  0  0  0
   22.8759    4.7893    1.7713 H   0  0  0  1  0  0  0  0  0  0  0  0
   22.1493    4.6800    3.7362 C   0  0  0  1  0  0  0  0  0  0  0  0
   21.7158    5.2097    4.5192 H   0  0  0  1  0  0  0  0  0  0  0  0
   22.3993    3.3926    3.9581 C   0  0  0  1  0  0  0  0  0  0  0  0
   22.9312    2.5449    2.8393 C   0  0  0  1  0  0  0  0  0  0  0  0
   23.8561    2.1017    3.1442 H   0  0  0  1  0  0  0  0  0  0  0  0
   23.0964    3.1611    1.9803 H   0  0  0  1  0  0  0  0  0  0  0  0
   22.1958    2.6721    5.2647 C   0  0  0  1  0  0  0  0  0  0  0  0
   23.1366    2.3093    5.6228 H   0  0  0  1  0  0  0  0  0  0  0  0
   21.5288    1.8485    5.1174 H   0  0  0  1  0  0  0  0  0  0  0  0
   21.7774    3.3466    5.9823 H   0  0  0  1  0  0  0  0  0  0  0  0
   21.9455    1.4446    2.4812 C   0  0  0  1  0  0  0  0  0  0  0  0
   21.5867    1.6187    1.4883 H   0  0  0  1  0  0  0  0  0  0  0  0
   21.1267    1.4839    3.1689 H   0  0  0  1  0  0  0  0  0  0  0  0
   22.5523    0.0682    2.5369 C   0  0  0  1  0  0  0  0  0  0  0  0
   23.1047   -0.2289    1.7073 H   0  0  0  1  0  0  0  0  0  0  0  0
   22.4581   -0.8161    3.5398 C   0  0  0  1  0  0  0  0  0  0  0  0
   21.6931   -0.5307    4.8045 C   0  0  0  1  0  0  0  0  0  0  0  0
   21.0343    0.2931    4.6254 H   0  0  0  1  0  0  0  0  0  0  0  0
   22.3906   -0.2698    5.5728 H   0  0  0  1  0  0  0  0  0  0  0  0
   23.1472   -2.1546    3.3966 C   0  0  0  1  0  0  0  0  0  0  0  0
   22.7959   -2.8204    4.1570 H   0  0  0  1  0  0  0  0  0  0  0  0
   24.2044   -2.0239    3.4979 H   0  0  0  1  0  0  0  0  0  0  0  0
   22.9290   -2.5667    2.4335 H   0  0  0  1  0  0  0  0  0  0  0  0
   20.8684   -1.7150    5.2816 C   0  0  0  1  0  0  0  0  0  0  0  0
   21.5184   -2.4048    5.7782 H   0  0  0  1  0  0  0  0  0  0  0  0
   20.4285   -2.1892    4.4292 H   0  0  0  1  0  0  0  0  0  0  0  0
   19.7941   -1.3322    6.2106 C   0  0  0  1  0  0  0  0  0  0  0  0
   19.0829   -0.7180    5.7650 H   0  0  0  1  0  0  0  0  0  0  0  0
   19.5189   -1.5866    7.4854 C   0  0  0  1  0  0  0  0  0  0  0  0
   18.1847   -1.3104    8.1223 C   0  0  0  1  0  0  0  0  0  0  0  0
   18.3503   -0.8500    9.0739 H   0  0  0  1  0  0  0  0  0  0  0  0
   17.6737   -2.2404    8.2595 H   0  0  0  1  0  0  0  0  0  0  0  0
   20.5431   -2.1827    8.4061 C   0  0  0  1  0  0  0  0  0  0  0  0
   20.1546   -3.1399    8.6847 H   0  0  0  1  0  0  0  0  0  0  0  0
   20.6725   -1.5658    9.2708 H   0  0  0  1  0  0  0  0  0  0  0  0
   21.4804   -2.2920    7.9018 H   0  0  0  1  0  0  0  0  0  0  0  0
   17.3050   -0.3936    7.2879 C   0  0  0  1  0  0  0  0  0  0  0  0
   16.3494   -0.2994    7.7599 H   0  0  0  1  0  0  0  0  0  0  0  0
   17.1817   -0.8174    6.3131 H   0  0  0  1  0  0  0  0  0  0  0  0
   17.9279    0.9706    7.1577 C   0  0  0  1  0  0  0  0  0  0  0  0
   18.3213    1.3854    8.0265 H   0  0  0  1  0  0  0  0  0  0  0  0
   18.0300    1.7049    6.0494 C   0  0  0  1  0  0  0  0  0  0  0  0
   18.6903    3.0518    6.1027 C   0  0  0  1  0  0  0  0  0  0  0  0
   18.3469    3.5840    6.9652 H   0  0  0  1  0  0  0  0  0  0  0  0
   18.4431    3.6051    5.2208 H   0  0  0  1  0  0  0  0  0  0  0  0
   19.7514    2.9266    6.1602 H   0  0  0  1  0  0  0  0  0  0  0  0
   17.6046    1.2112    4.6879 C   0  0  0  1  0  0  0  0  0  0  0  0
   16.8479    1.8771    4.3288 H   0  0  0  1  0  0  0  0  0  0  0  0
   17.2120    0.2188    4.7649 H   0  0  0  1  0  0  0  0  0  0  0  0
   18.4408    1.2137    4.0202 H   0  0  0  1  0  0  0  0  0  0  0  0
   16.0771   -5.0735   -1.5331 C   0  0  0  1  0  0  0  0  0  0  0  0
   16.2443   -5.5484   -0.5890 H   0  0  0  1  0  0  0  0  0  0  0  0
   14.8842   -5.7238   -2.2079 C   0  0  0  1  0  0  0  0  0  0  0  0
   15.1486   -6.7233   -2.4836 H   0  0  0  1  0  0  0  0  0  0  0  0
   15.8610   -3.6925   -1.3213 O   0  0  0  1  0  0  0  0  0  0  0  0
   14.4425   -4.9752   -3.4542 C   0  0  0  1  0  0  0  0  0  0  0  0
   13.4874   -5.3431   -3.7659 H   0  0  0  1  0  0  0  0  0  0  0  0
   15.6275   -2.9727   -2.5455 C   0  0  0  1  0  0  0  0  0  0  0  0
   16.4431   -3.1329   -3.2194 H   0  0  0  1  0  0  0  0  0  0  0  0
   14.3364   -3.4865   -3.1705 C   0  0  0  1  0  0  0  0  0  0  0  0
   14.1563   -2.9648   -4.0871 H   0  0  0  1  0  0  0  0  0  0  0  0
   17.2245   -5.2412   -2.3593 O   0  0  0  1  0  0  0  0  0  0  0  0
   13.7958   -5.7562   -1.2829 O   0  0  0  1  0  0  0  0  0  0  0  0
   13.6019   -6.6666   -1.0480 H   0  0  0  1  0  0  0  0  0  0  0  0
   15.3927   -5.1872   -4.4881 O   0  0  0  1  0  0  0  0  0  0  0  0
   15.4677   -4.3931   -5.0222 H   0  0  0  1  0  0  0  0  0  0  0  0
   15.4980   -1.4873   -2.2499 C   0  0  0  1  0  0  0  0  0  0  0  0
   16.3954   -1.1361   -1.7850 H   0  0  0  1  0  0  0  0  0  0  0  0
   14.6693   -1.3257   -1.5927 H   0  0  0  1  0  0  0  0  0  0  0  0
   15.3381   -0.9546   -3.1640 H   0  0  0  1  0  0  0  0  0  0  0  0
   19.8767   -5.8883   -3.3931 C   0  0  0  1  0  0  0  0  0  0  0  0
   19.0349   -6.0972   -4.0197 H   0  0  0  1  0  0  0  0  0  0  0  0
   19.4578   -5.9578   -1.9499 C   0  0  0  1  0  0  0  0  0  0  0  0
   20.3103   -5.7933   -1.3246 H   0  0  0  1  0  0  0  0  0  0  0  0
   20.3667   -4.5921   -3.6774 O   0  0  0  1  0  0  0  0  0  0  0  0
   18.4236   -4.9067   -1.6687 C   0  0  0  1  0  0  0  0  0  0  0  0
   18.2337   -4.8788   -0.6161 H   0  0  0  1  0  0  0  0  0  0  0  0
   19.3270   -3.6033   -3.5697 C   0  0  0  1  0  0  0  0  0  0  0  0
   19.7011   -2.6489   -3.8762 H   0  0  0  1  0  0  0  0  0  0  0  0
   18.8855   -3.5408   -2.1205 C   0  0  0  1  0  0  0  0  0  0  0  0
   18.0798   -2.8434   -2.0242 H   0  0  0  1  0  0  0  0  0  0  0  0
   18.8985   -7.2711   -1.6727 N   0  0  0  1  0  0  0  0  0  0  0  0
   17.9557   -7.4525   -1.8690 H   0  0  0  1  0  0  0  0  0  0  0  0
   19.9782   -3.1194   -1.3110 O   0  0  0  1  0  0  0  0  0  0  0  0
   20.2752   -3.8954   -0.8301 H   0  0  0  1  0  0  0  0  0  0  0  0
   18.1652   -3.9894   -4.4396 C   0  0  0  1  0  0  0  0  0  0  0  0
   18.5175   -4.3164   -5.3956 H   0  0  0  1  0  0  0  0  0  0  0  0
   17.5105   -3.1527   -4.5672 H   0  0  0  1  0  0  0  0  0  0  0  0
   17.4758   -5.0509   -3.7863 O   0  0  0  1  0  0  0  0  0  0  0  0
   16.5379   -4.8463   -3.7890 H   0  0  0  1  0  0  0  0  0  0  0  0
   19.6681   -8.2320   -1.1502 C   0  0  0  1  0  0  0  0  0  0  0  0
   20.8657   -8.0805   -0.9239 O   0  0  0  1  0  0  0  0  0  0  0  0
   18.9696   -9.5431   -0.8466 C   0  0  0  1  0  0  0  0  0  0  0  0
   19.7515  -10.1884   -0.5042 H   0  0  0  1  0  0  0  0  0  0  0  0
   18.5100   -9.9400   -1.7276 H   0  0  0  1  0  0  0  0  0  0  0  0
   18.2286   -9.4100   -0.0863 H   0  0  0  1  0  0  0  0  0  0  0  0
  1  2  1  0  0  0  0
  1  3  1  0  0  0  0
  1  4  1  0  0  0  0
  1 44  1  0  0  0  0
  3 20  1  0  0  0  0
  4  5  1  0  0  0  0
  4  6  1  0  0  0  0
  4  8  1  0  0  0  0
  6  7  1  0  0  0  0
  8  9  1  0  0  0  0
  8 10  1  0  0  0  0
  8 20  1  0  0  0  0
 10 11  1  0  0  0  0
 12 13  1  0  0  0  0
 12 14  1  0  0  0  0
 12 15  1  0  0  0  0
 12 17  1  0  0  0  0
 15 16  1  0  0  0  0
 17 18  1  0  0  0  0
 17 19  1  0  0  0  0
 17 20  1  0  0  0  0
 19 22  1  0  0  0  0
 20 21  1  0  0  0  0
 22 23  1  0  0  0  0
 22 24  1  0  0  0  0
 22 25  1  0  0  0  0
 24 42  1  0  0  0  0
 25 26  1  0  0  0  0
 25 27  1  0  0  0  0
 25 29  1  0  0  0  0
 27 28  1  0  0  0  0
 29 30  1  0  0  0  0
 29 31  1  0  0  0  0
 29 42  1  0  0  0  0
 31 32  1  0  0  0  0
 33 34  1  0  0  0  0
 33 35  1  0  0  0  0
 33 36  1  0  0  0  0
 33 38  1  0  0  0  0
 36 37  1  0  0  0  0
 38 39  1  0  0  0  0
 38 40  1  0  0  0  0
 38 42  1  0  0  0  0
 40 41  1  0  0  0  0
 42 43  1  0  0  0  0
 44194  1  0  0  0  0
 45 46  1  0  0  0  0
 45 54  1  0  0  0  0
 46 47  1  0  0  0  0
 46 48  1  0  0  0  0
 46 49  2  0  0  0  0
 47 50  1  0  0  0  0
 50 51  1  0  0  0  0
 50 52  1  0  0  0  0
 50 53  2  0  0  0  0
 51205  1  0  0  0  0
 54 55  1  0  0  0  0
 54 56  1  0  0  0  0
 54 57  1  0  0  0  0
 57 58  1  0  0  0  0
 57 59  2  0  0  0  0
 59 60  1  0  0  0  0
 59 64  1  0  0  0  0
 60 61  1  0  0  0  0
 60 62  1  0  0  0  0
 60 63  1  0  0  0  0
 64 65  1  0  0  0  0
 64 66  1  0  0  0  0
 64 67  1  0  0  0  0
 67 68  1  0  0  0  0
 67 69  1  0  0  0  0
 67 70  1  0  0  0  0
 70 71  1  0  0  0  0
 70 72  2  0  0  0  0
 72 73  1  0  0  0  0
 72 77  1  0  0  0  0
 73 74  1  0  0  0  0
 73 75  1  0  0  0  0
 73 76  1  0  0  0  0
 77 78  1  0  0  0  0
 77 79  1  0  0  0  0
 77 80  1  0  0  0  0
 80 81  1  0  0  0  0
 80 82  1  0  0  0  0
 80 83  1  0  0  0  0
 83 84  1  0  0  0  0
 83 85  2  0  0  0  0
 85 86  1  0  0  0  0
 85 89  1  0  0  0  0
 86 87  1  0  0  0  0
 86 88  1  0  0  0  0
 86 93  1  0  0  0  0
 89 90  1  0  0  0  0
 89 91  1  0  0  0  0
 89 92  1  0  0  0  0
 93 94  1  0  0  0  0
 93 95  1  0  0  0  0
 93 96  1  0  0  0  0
 96 97  1  0  0  0  0
 96 98  2  0  0  0  0
 98 99  1  0  0  0  0
 98102  1  0  0  0  0
 99100  1  0  0  0  0
 99101  1  0  0  0  0
 99106  1  0  0  0  0
102103  1  0  0  0  0
102104  1  0  0  0  0
102105  1  0  0  0  0
106107  1  0  0  0  0
106108  1  0  0  0  0
106109  1  0  0  0  0
109110  1  0  0  0  0
109111  2  0  0  0  0
111112  1  0  0  0  0
111115  1  0  0  0  0
112113  1  0  0  0  0
112114  1  0  0  0  0
112119  1  0  0  0  0
115116  1  0  0  0  0
115117  1  0  0  0  0
115118  1  0  0  0  0
119120  1  0  0  0  0
119121  1  0  0  0  0
119122  1  0  0  0  0
122123  1  0  0  0  0
122124  2  0  0  0  0
124125  1  0  0  0  0
124128  1  0  0  0  0
125126  1  0  0  0  0
125127  1  0  0  0  0
125132  1  0  0  0  0
128129  1  0  0  0  0
128130  1  0  0  0  0
128131  1  0  0  0  0
132133  1  0  0  0  0
132134  1  0  0  0  0
132135  1  0  0  0  0
135136  1  0  0  0  0
135137  2  0  0  0  0
137138  1  0  0  0  0
137141  1  0  0  0  0
138139  1  0  0  0  0
138140  1  0  0  0  0
138145  1  0  0  0  0
141142  1  0  0  0  0
141143  1  0  0  0  0
141144  1  0  0  0  0
145146  1  0  0  0  0
145147  1  0  0  0  0
145148  1  0  0  0  0
148149  1  0  0  0  0
148150  2  0  0  0  0
150151  1  0  0  0  0
150154  1  0  0  0  0
151152  1  0  0  0  0
151153  1  0  0  0  0
151158  1  0  0  0  0
154155  1  0  0  0  0
154156  1  0  0  0  0
154157  1  0  0  0  0
158159  1  0  0  0  0
158160  1  0  0  0  0
158161  1  0  0  0  0
161162  1  0  0  0  0
161163  2  0  0  0  0
163164  1  0  0  0  0
163167  1  0  0  0  0
164165  1  0  0  0  0
164166  1  0  0  0  0
164171  1  0  0  0  0
167168  1  0  0  0  0
167169  1  0  0  0  0
167170  1  0  0  0  0
171172  1  0  0  0  0
171173  1  0  0  0  0
171174  1  0  0  0  0
174175  1  0  0  0  0
174176  2  0  0  0  0
176177  1  0  0  0  0
176181  1  0  0  0  0
177178  1  0  0  0  0
177179  1  0  0  0  0
177180  1  0  0  0  0
181182  1  0  0  0  0
181183  1  0  0  0  0
181184  1  0  0  0  0
185186  1  0  0  0  0
185187  1  0  0  0  0
185189  1  0  0  0  0
185196  1  0  0  0  0
187188  1  0  0  0  0
187190  1  0  0  0  0
187197  1  0  0  0  0
189192  1  0  0  0  0
190191  1  0  0  0  0
190194  1  0  0  0  0
190199  1  0  0  0  0
192193  1  0  0  0  0
192194  1  0  0  0  0
192201  1  0  0  0  0
194195  1  0  0  0  0
196210  1  0  0  0  0
197198  1  0  0  0  0
199200  1  0  0  0  0
201202  1  0  0  0  0
201203  1  0  0  0  0
201204  1  0  0  0  0
205206  1  0  0  0  0
205207  1  0  0  0  0
205209  1  0  0  0  0
207208  1  0  0  0  0
207210  1  0  0  0  0
207216  1  0  0  0  0
209212  1  0  0  0  0
210211  1  0  0  0  0
210214  1  0  0  0  0
212213  1  0  0  0  0
212214  1  0  0  0  0
212220  1  0  0  0  0
214215  1  0  0  0  0
214218  1  0  0  0  0
216217  1  0  0  0  0
216225  1  0  0  0  0
218219  1  0  0  0  0
220221  1  0  0  0  0
220222  1  0  0  0  0
220223  1  0  0  0  0
223224  1  0  0  0  0
225226  2  0  0  0  0
225227  1  0  0  0  0
227228  1  0  0  0  0
227229  1  0  0  0  0
227230  1  0  0  0  0
M  BCL ATM C_TeTeTeTe H_S O_Te2Te2TeTe C_TeTeTeTe H_S O_Te2Te2TeTe H_S C_TeTeTeTe H_S O_Te2Te2TeTe H_S C_TeTeTeTe H_S H_S O_Te2Te2TeTe H_S C_TeTeTeTe H_S O_Te2Te2TeTe C_TeTeTeTe H_S C_TeTeTeTe H_S O_Te2Te2TeTe C_TeTeTeTe H_S O_Te2Te2TeTe H_S C_TeTeTeTe H_S O_Te2Te2TeTe H_S C_TeTeTeTe H_S H_S O_Te2Te2TeTe H_S C_TeTeTeTe H_S O_Te2Te2TeTe H_S C_TeTeTeTe H_S O_Te2Te2TeTe O_Tr2TrTrPi2 P_TeTeTeTePi O_Tr2TrTrPi2 O_Te2Te2TeTe O_Tr2Tr2TrPi P_TeTeTeTePi O_Tr2TrTrPi2 O_Te2Te2TeTe O_Tr2Tr2TrPi C_TeTeTeTe H_S H_S C_TrTrTrPi H_S C_TrTrTrPi C_TeTeTeTe H_S H_S H_S C_TeTeTeTe H_S H_S C_TeTeTeTe H_S H_S C_TrTrTrPi H_S C_TrTrTrPi C_TeTeTeTe H_S H_S H_S C_TeTeTeTe H_S H_S C_TeTeTeTe H_S H_S C_TrTrTrPi H_S C_TrTrTrPi C_TeTeTeTe H_S H_S C_TeTeTeTe H_S H_S H_S C_TeTeTeTe H_S H_S C_TrTrTrPi H_S C_TrTrTrPi C_TeTeTeTe H_S H_S C_TeTeTeTe H_S H_S H_S C_TeTeTeTe H_S H_S C_TrTrTrPi H_S C_TrTrTrPi C_TeTeTeTe H_S H_S C_TeTeTeTe H_S H_S H_S C_TeTeTeTe H_S H_S C_TrTrTrPi H_S C_TrTrTrPi C_TeTeTeTe H_S H_S C_TeTeTeTe H_S H_S H_S C_TeTeTeTe H_S H_S C_TrTrTrPi H_S C_TrTrTrPi C_TeTeTeTe H_S H_S C_TeTeTeTe H_S H_S H_S C_TeTeTeTe H_S H_S C_TrTrTrPi H_S C_TrTrTrPi C_TeTeTeTe H_S H_S C_TeTeTeTe H_S H_S H_S C_TeTeTeTe H_S H_S C_TrTrTrPi H_S C_TrTrTrPi C_TeTeTeTe H_S H_S C_TeTeTeTe H_S H_S H_S C_TeTeTeTe H_S H_S C_TrTrTrPi H_S C_TrTrTrPi C_TeTeTeTe H_S H_S H_S C_TeTeTeTe H_S H_S H_S C_TeTeTeTe H_S C_TeTeTeTe H_S O_Te2Te2TeTe C_TeTeTeTe H_S C_TeTeTeTe H_S C_TeTeTeTe H_S O_Te2Te2TeTe O_Te2Te2TeTe H_S O_Te2Te2TeTe H_S C_TeTeTeTe H_S H_S H_S C_TeTeTeTe H_S C_TeTeTeTe H_S O_Te2Te2TeTe C_TeTeTeTe H_S C_TeTeTeTe H_S C_TeTeTeTe H_S N_TrTrTrPi2 H_S O_Te2Te2TeTe H_S C_TeTeTeTe H_S H_S O_Te2Te2TeTe H_S C_TrTrTrPi O_Tr2Tr2TrPi C_TeTeTeTe H_S H_S H_S
M  BCL BND NonConjugatedSingleBond NonConjugatedSingleBondInRing NonConjugatedSingleBondInRing NonConjugatedSingleBond NonConjugatedSingleBondInRing NonConjugatedSingleBond NonConjugatedSingleBond NonConjugatedSingleBondInRing NonConjugatedSingleBond NonConjugatedSingleBond NonConjugatedSingleBond NonConjugatedSingleBondInRing NonConjugatedSingleBond NonConjugatedSingleBond NonConjugatedSingleBond NonConjugatedSingleBond NonConjugatedSingleBond NonConjugatedSingleBond NonConjugatedSingleBond NonConjugatedSingleBond NonConjugatedSingleBond NonConjugatedSingleBond NonConjugatedSingleBond NonConjugatedSingleBond NonConjugatedSingleBondInRing NonConjugatedSingleBondInRing NonConjugatedSingleBondInRing NonConjugatedSingleBond NonConjugatedSingleBond NonConjugatedSingleBondInRing NonConjugatedSingleBond NonConjugatedSingleBond NonConjugatedSingleBond NonConjugatedSingleBondInRing NonConjugatedSingleBond NonConjugatedSingleBond NonConjugatedSingleBond NonConjugatedSingleBond NonConjugatedSingleBond NonConjugatedSingleBond NonConjugatedSingleBond NonConjugatedSingleBond NonConjugatedSingleBond NonConjugatedSingleBond NonConjugatedSingleBond NonConjugatedSingleBond ConjugatedSingleBond NonConjugatedSingleBond ConjugatedSingleBond ConjugatedSingleBond ConjugatedDoubleBond ConjugatedSingleBond ConjugatedSingleBond ConjugatedSingleBond ConjugatedDoubleBond NonConjugatedSingleBond NonConjugatedSingleBond NonConjugatedSingleBond NonConjugatedSingleBond NonConjugatedSingleBond ConjugatedDoubleBond NonConjugatedSingleBond NonConjugatedSingleBond NonConjugatedSingleBond NonConjugatedSingleBond NonConjugatedSingleBond NonConjugatedSingleBond NonConjugatedSingleBond NonConjugatedSingleBond NonConjugatedSingleBond NonConjugatedSingleBond NonConjugatedSingleBond NonConjugatedSingleBond ConjugatedDoubleBond NonConjugatedSingleBond NonConjugatedSingleBond NonConjugatedSingleBond NonConjugatedSingleBond NonConjugatedSingleBond NonConjugatedSingleBond NonConjugatedSingleBond NonConjugatedSingleBond NonConjugatedSingleBond NonConjugatedSingleBond NonConjugatedSingleBond NonConjugatedSingleBond ConjugatedDoubleBond NonConjugatedSingleBond NonConjugatedSingleBond NonConjugatedSingleBond NonConjugatedSingleBond NonConjugatedSingleBond NonConjugatedSingleBond NonConjugatedSingleBond NonConjugatedSingleBond NonConjugatedSingleBond NonConjugatedSingleBond NonConjugatedSingleBond NonConjugatedSingleBond ConjugatedDoubleBond NonConjugatedSingleBond NonConjugatedSingleBond NonConjugatedSingleBond NonConjugatedSingleBond NonConjugatedSingleBond NonConjugatedSingleBond NonConjugatedSingleBond NonConjugatedSingleBond NonConjugatedSingleBond NonConjugatedSingleBond NonConjugatedSingleBond NonConjugatedSingleBond ConjugatedDoubleBond NonConjugatedSingleBond NonConjugatedSingleBond NonConjugatedSingleBond NonConjugatedSingleBond NonConjugatedSingleBond NonConjugatedSingleBond NonConjugatedSingleBond NonConjugatedSingleBond NonConjugatedSingleBond NonConjugatedSingleBond NonConjugatedSingleBond NonConjugatedSingleBond ConjugatedDoubleBond NonConjugatedSingleBond NonConjugatedSingleBond NonConjugatedSingleBond NonConjugatedSingleBond NonConjugatedSingleBond NonConjugatedSingleBond NonConjugatedSingleBond NonConjugatedSingleBond NonConjugatedSingleBond NonConjugatedSingleBond NonConjugatedSingleBond NonConjugatedSingleBond ConjugatedDoubleBond NonConjugatedSingleBond NonConjugatedSingleBond NonConjugatedSingleBond NonConjugatedSingleBond NonConjugatedSingleBond NonConjugatedSingleBond NonConjugatedSingleBond NonConjugatedSingleBond NonConjugatedSingleBond NonConjugatedSingleBond NonConjugatedSingleBond NonConjugatedSingleBond ConjugatedDoubleBond NonConjugatedSingleBond NonConjugatedSingleBond NonConjugatedSingleBond NonConjugatedSingleBond NonConjugatedSingleBond NonConjugatedSingleBond NonConjugatedSingleBond NonConjugatedSingleBond NonConjugatedSingleBond NonConjugatedSingleBond NonConjugatedSingleBond NonConjugatedSingleBond ConjugatedDoubleBond NonConjugatedSingleBond NonConjugatedSingleBond NonConjugatedSingleBond NonConjugatedSingleBond NonConjugatedSingleBond NonConjugatedSingleBond NonConjugatedSingleBond NonConjugatedSingleBond NonConjugatedSingleBond NonConjugatedSingleBond NonConjugatedSingleBond NonConjugatedSingleBond ConjugatedDoubleBond NonConjugatedSingleBond NonConjugatedSingleBond NonConjugatedSingleBond NonConjugatedSingleBond NonConjugatedSingleBond NonConjugatedSingleBond NonConjugatedSingleBond NonConjugatedSingleBond NonConjugatedSingleBond NonConjugatedSingleBondInRing NonConjugatedSingleBondInRing NonConjugatedSingleBond NonConjugatedSingleBond NonConjugatedSingleBondInRing NonConjugatedSingleBond NonConjugatedSingleBondInRing NonConjugatedSingleBond NonConjugatedSingleBondInRing NonConjugatedSingleBond NonConjugatedSingleBond NonConjugatedSingleBondInRing NonConjugatedSingleBond NonConjugatedSingleBond NonConjugatedSingleBond NonConjugatedSingleBond NonConjugatedSingleBond NonConjugatedSingleBond NonConjugatedSingleBond NonConjugatedSingleBond NonConjugatedSingleBond NonConjugatedSingleBondInRing NonConjugatedSingleBondInRing NonConjugatedSingleBond NonConjugatedSingleBondInRing NonConjugatedSingleBond NonConjugatedSingleBondInRing NonConjugatedSingleBond NonConjugatedSingleBondInRing NonConjugatedSingleBond NonConjugatedSingleBondInRing NonConjugatedSingleBond NonConjugatedSingleBond NonConjugatedSingleBond NonConjugatedSingleBond AmideSingleBond NonConjugatedSingleBond NonConjugatedSingleBond NonConjugatedSingleBond NonConjugatedSingleBond NonConjugatedSingleBond ConjugatedDoubleBond NonConjugatedSingleBond NonConjugatedSingleBond NonConjugatedSingleBond NonConjugatedSingleBond
M  BCL CHI   1   R   4   R   8   R  17   S  20   R  22   S  25   R  29   S  38   S  42   R  46   R  50   S 185   R 187   S 190   S 192   R 194   R 205   R 207   S 210   R 212   S 214   S
M  BCL DBI - - E E E E E E E E Z - -
M  END
> <ConfClashScore>
0.0219645 

> <ConfOneFourInteractionScore>
-0.968149 

> <ConfScore>
2.25917 

> <ConfScorePBest>
0.00593146 

> <ConfTolerance>
4.55916 

$$$$
L05.****
  PyMOL2.5          3D                             0

230233  0  0  0  0  0  0  0  0999 V2000
   12.2175   -2.8148   -3.5967 C   0  0  0  1  0  0  0  0  0  0  0  0
   12.6222   -2.6768   -4.5776 H   0  0  0  1  0  0  0  0  0  0  0  0
   11.5454   -1.6020   -3.1393 O   0  0  0  1  0  0  0  0  0  0  0  0
   11.1285   -3.8629   -3.6095 C   0  0  0  1  0  0  0  0  0  0  0  0
   11.0277   -4.3213   -2.6479 H   0  0  0  1  0  0  0  0  0  0  0  0
   11.3972   -4.8662   -4.5901 O   0  0  0  1  0  0  0  0  0  0  0  0
   10.5918   -5.3528   -4.7797 H   0  0  0  1  0  0  0  0  0  0  0  0
    9.8683   -3.0657   -3.9717 C   0  0  0  1  0  0  0  0  0  0  0  0
    9.7308   -3.0226   -5.0319 H   0  0  0  1  0  0  0  0  0  0  0  0
    8.7075   -3.6334   -3.3630 O   0  0  0  1  0  0  0  0  0  0  0  0
    8.8796   -3.7937   -2.4323 H   0  0  0  1  0  0  0  0  0  0  0  0
   10.3825   -0.7850   -5.7979 C   0  0  0  1  0  0  0  0  0  0  0  0
   10.3949    0.1558   -6.3073 H   0  0  0  1  0  0  0  0  0  0  0  0
   11.3825   -1.1544   -5.7055 H   0  0  0  1  0  0  0  0  0  0  0  0
    9.6026   -1.7136   -6.5395 O   0  0  0  1  0  0  0  0  0  0  0  0
    8.6850   -1.4313   -6.5422 H   0  0  0  1  0  0  0  0  0  0  0  0
    9.7764   -0.6006   -4.4016 C   0  0  0  1  0  0  0  0  0  0  0  0
    8.7139   -0.6559   -4.5156 H   0  0  0  1  0  0  0  0  0  0  0  0
   10.1090    0.7159   -3.9765 O   0  0  0  1  0  0  0  0  0  0  0  0
   10.1711   -1.6735   -3.3955 C   0  0  0  1  0  0  0  0  0  0  0  0
    9.6244   -1.5296   -2.4870 H   0  0  0  1  0  0  0  0  0  0  0  0
   10.7780    1.4427   -4.9952 C   0  0  0  1  0  0  0  0  0  0  0  0
   10.2435    1.3408   -5.9165 H   0  0  0  1  0  0  0  0  0  0  0  0
   10.9087    2.8493   -4.6261 O   0  0  0  1  0  0  0  0  0  0  0  0
   12.2032    0.9627   -5.1473 C   0  0  0  1  0  0  0  0  0  0  0  0
   12.5676    1.1537   -6.1351 H   0  0  0  1  0  0  0  0  0  0  0  0
   12.3046   -0.4335   -4.8633 O   0  0  0  1  0  0  0  0  0  0  0  0
   13.2271   -0.6984   -4.8833 H   0  0  0  1  0  0  0  0  0  0  0  0
   12.9727    1.7907   -4.1094 C   0  0  0  1  0  0  0  0  0  0  0  0
   13.9749    1.9796   -4.4331 H   0  0  0  1  0  0  0  0  0  0  0  0
   12.9971    1.1346   -2.8451 O   0  0  0  1  0  0  0  0  0  0  0  0
   12.1704    0.6652   -2.7116 H   0  0  0  1  0  0  0  0  0  0  0  0
   11.8571    4.8300   -5.8410 C   0  0  0  1  0  0  0  0  0  0  0  0
   11.8688    4.2034   -6.7083 H   0  0  0  1  0  0  0  0  0  0  0  0
   10.8600    4.8910   -5.4578 H   0  0  0  1  0  0  0  0  0  0  0  0
   12.3289    6.1277   -6.1739 O   0  0  0  1  0  0  0  0  0  0  0  0
   12.4653    6.1855   -7.1224 H   0  0  0  1  0  0  0  0  0  0  0  0
   12.7896    4.2630   -4.7770 C   0  0  0  1  0  0  0  0  0  0  0  0
   12.9605    5.0367   -4.0579 H   0  0  0  1  0  0  0  0  0  0  0  0
   14.0425    3.8791   -5.3372 O   0  0  0  1  0  0  0  0  0  0  0  0
   14.6597    3.6737   -4.6312 H   0  0  0  1  0  0  0  0  0  0  0  0
   12.1577    3.0919   -4.0425 C   0  0  0  1  0  0  0  0  0  0  0  0
   12.0381    3.3609   -3.0138 H   0  0  0  1  0  0  0  0  0  0  0  0
   13.2597   -3.1819   -2.7002 O   0  0  0  1  0  0  0  0  0  0  0  0
   20.7223   -9.5593   -4.9686 O   0  0  0  1  0  0  0  0  0  0  0  0
   22.3095   -9.4647   -4.8177 P   0  0  0  1  0  0  0  0  0  0  0  0
   22.4290   -8.9511   -3.3001 O   0  0  0  1  0  0  0  0  0  0  0  0
   22.8653   -8.4719   -5.7938 O   0  0  0  0  0  0  0  0  0  0  0  0
   22.9096  -10.8360   -4.8671 O   0  0  0  1  0  0  0  0  0  0  0  0
   21.6913   -7.7626   -2.4879 P   0  0  0  1  0  0  0  0  0  0  0  0
   20.5700   -7.3087   -3.4943 O   0  0  0  1  0  0  0  0  0  0  0  0
   22.7251   -6.7058   -2.2144 O   0  0  0  0  0  0  0  0  0  0  0  0
   21.1181   -8.3393   -1.2868 O   0  0  0  1  0  0  0  0  0  0  0  0
   19.9477   -8.6163   -5.7259 C   0  0  0  1  0  0  0  0  0  0  0  0
   20.1411   -8.7671   -6.7674 H   0  0  0  1  0  0  0  0  0  0  0  0
   20.2407   -7.6255   -5.4480 H   0  0  0  1  0  0  0  0  0  0  0  0
   18.4764   -8.7746   -5.4778 C   0  0  0  1  0  0  0  0  0  0  0  0
   18.1683   -8.5824   -4.5033 H   0  0  0  1  0  0  0  0  0  0  0  0
   17.5048   -9.1254   -6.3224 C   0  0  0  1  0  0  0  0  0  0  0  0
   16.1005   -9.3496   -5.8416 C   0  0  0  1  0  0  0  0  0  0  0  0
   16.0628   -9.2273   -4.7793 H   0  0  0  1  0  0  0  0  0  0  0  0
   15.7902  -10.3411   -6.0975 H   0  0  0  1  0  0  0  0  0  0  0  0
   15.4474   -8.6401   -6.3054 H   0  0  0  1  0  0  0  0  0  0  0  0
   17.7770   -9.3101   -7.7887 C   0  0  0  1  0  0  0  0  0  0  0  0
   18.8291   -9.1956   -7.9461 H   0  0  0  1  0  0  0  0  0  0  0  0
   17.2509   -8.5455   -8.3211 H   0  0  0  1  0  0  0  0  0  0  0  0
   17.3603  -10.6537   -8.3645 C   0  0  0  1  0  0  0  0  0  0  0  0
   16.3616  -10.8571   -8.0387 H   0  0  0  1  0  0  0  0  0  0  0  0
   18.0218  -11.3992   -7.9751 H   0  0  0  1  0  0  0  0  0  0  0  0
   17.3870  -10.7482   -9.8653 C   0  0  0  1  0  0  0  0  0  0  0  0
   16.7783  -10.0821  -10.3826 H   0  0  0  1  0  0  0  0  0  0  0  0
   18.0999  -11.5857  -10.5980 C   0  0  0  1  0  0  0  0  0  0  0  0
   18.0162  -11.5555  -12.0979 C   0  0  0  1  0  0  0  0  0  0  0  0
   17.5973  -12.4746  -12.4509 H   0  0  0  1  0  0  0  0  0  0  0  0
   18.9969  -11.4304  -12.5072 H   0  0  0  1  0  0  0  0  0  0  0  0
   17.3949  -10.7399  -12.4039 H   0  0  0  1  0  0  0  0  0  0  0  0
   18.9581  -12.6738  -10.0232 C   0  0  0  1  0  0  0  0  0  0  0  0
   19.2753  -12.3767   -9.0455 H   0  0  0  1  0  0  0  0  0  0  0  0
   19.8137  -12.8013  -10.6530 H   0  0  0  1  0  0  0  0  0  0  0  0
   18.2355  -14.0066   -9.9132 C   0  0  0  1  0  0  0  0  0  0  0  0
   17.6937  -14.1643  -10.8223 H   0  0  0  1  0  0  0  0  0  0  0  0
   17.5491  -13.9433   -9.0948 H   0  0  0  1  0  0  0  0  0  0  0  0
   19.1199  -15.2033   -9.6861 C   0  0  0  1  0  0  0  0  0  0  0  0
   20.0612  -15.1969  -10.1284 H   0  0  0  1  0  0  0  0  0  0  0  0
   18.7864  -16.2716   -8.9595 C   0  0  0  1  0  0  0  0  0  0  0  0
   17.4486  -16.3661   -8.2852 C   0  0  0  1  0  0  0  0  0  0  0  0
   17.0011  -17.3024   -8.5459 H   0  0  0  1  0  0  0  0  0  0  0  0
   16.8324  -15.5654   -8.6373 H   0  0  0  1  0  0  0  0  0  0  0  0
   19.7364  -17.4232   -8.7871 C   0  0  0  1  0  0  0  0  0  0  0  0
   19.6088  -18.1153   -9.5931 H   0  0  0  1  0  0  0  0  0  0  0  0
   19.5345  -17.9159   -7.8590 H   0  0  0  1  0  0  0  0  0  0  0  0
   20.7423  -17.0584   -8.7864 H   0  0  0  1  0  0  0  0  0  0  0  0
   17.5379  -16.2777   -6.7704 C   0  0  0  1  0  0  0  0  0  0  0  0
   18.2466  -17.0026   -6.4281 H   0  0  0  1  0  0  0  0  0  0  0  0
   16.5749  -16.4978   -6.3591 H   0  0  0  1  0  0  0  0  0  0  0  0
   17.9680  -14.9199   -6.2832 C   0  0  0  1  0  0  0  0  0  0  0  0
   17.4135  -14.0980   -6.5974 H   0  0  0  1  0  0  0  0  0  0  0  0
   19.0025  -14.6933   -5.4825 C   0  0  0  1  0  0  0  0  0  0  0  0
   19.6823  -15.8140   -4.7480 C   0  0  0  1  0  0  0  0  0  0  0  0
   20.7351  -15.7499   -4.9278 H   0  0  0  1  0  0  0  0  0  0  0  0
   19.3113  -16.7436   -5.1264 H   0  0  0  1  0  0  0  0  0  0  0  0
   19.5863  -13.3336   -5.2326 C   0  0  0  1  0  0  0  0  0  0  0  0
   19.0078  -12.5962   -5.7487 H   0  0  0  1  0  0  0  0  0  0  0  0
   20.5952  -13.3081   -5.5882 H   0  0  0  1  0  0  0  0  0  0  0  0
   19.5723  -13.1271   -4.1828 H   0  0  0  1  0  0  0  0  0  0  0  0
   19.4444  -15.7731   -3.2473 C   0  0  0  1  0  0  0  0  0  0  0  0
   18.3916  -15.8610   -3.0775 H   0  0  0  1  0  0  0  0  0  0  0  0
   19.7869  -14.8266   -2.8845 H   0  0  0  1  0  0  0  0  0  0  0  0
   20.1266  -16.8396   -2.4636 C   0  0  0  1  0  0  0  0  0  0  0  0
   20.0204  -17.8328   -2.7533 H   0  0  0  1  0  0  0  0  0  0  0  0
   20.8687  -16.5462   -1.4012 C   0  0  0  1  0  0  0  0  0  0  0  0
   20.7947  -15.1979   -0.7455 C   0  0  0  1  0  0  0  0  0  0  0  0
   19.9957  -14.6521   -1.2023 H   0  0  0  1  0  0  0  0  0  0  0  0
   21.7206  -14.6925   -0.9247 H   0  0  0  1  0  0  0  0  0  0  0  0
   21.8331  -17.5046   -0.7610 C   0  0  0  1  0  0  0  0  0  0  0  0
   22.0967  -17.1489    0.2131 H   0  0  0  1  0  0  0  0  0  0  0  0
   22.7141  -17.5794   -1.3636 H   0  0  0  1  0  0  0  0  0  0  0  0
   21.3752  -18.4680   -0.6768 H   0  0  0  1  0  0  0  0  0  0  0  0
   20.5528  -15.2154    0.7550 C   0  0  0  1  0  0  0  0  0  0  0  0
   21.4077  -15.6465    1.2328 H   0  0  0  1  0  0  0  0  0  0  0  0
   19.6910  -15.8175    0.9540 H   0  0  0  1  0  0  0  0  0  0  0  0
   20.3240  -13.8527    1.3276 C   0  0  0  1  0  0  0  0  0  0  0  0
   19.6528  -13.2300    0.8344 H   0  0  0  1  0  0  0  0  0  0  0  0
   20.9140  -13.3788    2.4185 C   0  0  0  1  0  0  0  0  0  0  0  0
   21.6304  -14.2876    3.3768 C   0  0  0  1  0  0  0  0  0  0  0  0
   22.6836  -14.1303    3.2727 H   0  0  0  1  0  0  0  0  0  0  0  0
   21.3942  -15.3008    3.1265 H   0  0  0  1  0  0  0  0  0  0  0  0
   20.9281  -11.9274    2.7999 C   0  0  0  1  0  0  0  0  0  0  0  0
   21.9373  -11.5721    2.8160 H   0  0  0  1  0  0  0  0  0  0  0  0
   20.4933  -11.8098    3.7704 H   0  0  0  1  0  0  0  0  0  0  0  0
   20.3638  -11.3656    2.0852 H   0  0  0  1  0  0  0  0  0  0  0  0
   21.2461  -14.0454    4.8273 C   0  0  0  1  0  0  0  0  0  0  0  0
   20.2230  -14.3241    4.9705 H   0  0  0  1  0  0  0  0  0  0  0  0
   21.3684  -13.0068    5.0539 H   0  0  0  1  0  0  0  0  0  0  0  0
   22.1035  -14.8489    5.7419 C   0  0  0  1  0  0  0  0  0  0  0  0
   22.8338  -15.4714    5.3410 H   0  0  0  1  0  0  0  0  0  0  0  0
   21.9532  -14.7855    7.0595 C   0  0  0  1  0  0  0  0  0  0  0  0
   20.7182  -14.1730    7.6817 C   0  0  0  1  0  0  0  0  0  0  0  0
   20.5049  -14.6891    8.5943 H   0  0  0  1  0  0  0  0  0  0  0  0
   19.8996  -14.2936    7.0033 H   0  0  0  1  0  0  0  0  0  0  0  0
   22.9629  -15.2997    8.0434 C   0  0  0  1  0  0  0  0  0  0  0  0
   22.9234  -14.7113    8.9362 H   0  0  0  1  0  0  0  0  0  0  0  0
   23.9419  -15.2344    7.6165 H   0  0  0  1  0  0  0  0  0  0  0  0
   22.7433  -16.3201    8.2791 H   0  0  0  1  0  0  0  0  0  0  0  0
   20.8779  -12.6929    7.9889 C   0  0  0  1  0  0  0  0  0  0  0  0
   21.0979  -12.1683    7.0826 H   0  0  0  1  0  0  0  0  0  0  0  0
   21.6834  -12.5632    8.6812 H   0  0  0  1  0  0  0  0  0  0  0  0
   19.6172  -12.1338    8.5887 C   0  0  0  1  0  0  0  0  0  0  0  0
   18.7771  -12.1234    7.9758 H   0  0  0  1  0  0  0  0  0  0  0  0
   19.4603  -11.6515    9.8169 C   0  0  0  1  0  0  0  0  0  0  0  0
   20.5634  -11.5886   10.8351 C   0  0  0  1  0  0  0  0  0  0  0  0
   21.2636  -12.3662   10.6116 H   0  0  0  1  0  0  0  0  0  0  0  0
   20.1330  -11.7618   11.7992 H   0  0  0  1  0  0  0  0  0  0  0  0
   18.1383  -11.1214   10.2894 C   0  0  0  1  0  0  0  0  0  0  0  0
   17.8978  -10.2291    9.7500 H   0  0  0  1  0  0  0  0  0  0  0  0
   18.1957  -10.9012   11.3349 H   0  0  0  1  0  0  0  0  0  0  0  0
   17.3787  -11.8557   10.1202 H   0  0  0  1  0  0  0  0  0  0  0  0
   21.3245  -10.2741   10.8906 C   0  0  0  1  0  0  0  0  0  0  0  0
   22.0980  -10.3713   11.6235 H   0  0  0  1  0  0  0  0  0  0  0  0
   20.6402   -9.5090   11.1928 H   0  0  0  1  0  0  0  0  0  0  0  0
   21.9620   -9.8424    9.5971 C   0  0  0  1  0  0  0  0  0  0  0  0
   22.5689  -10.5300    9.1067 H   0  0  0  1  0  0  0  0  0  0  0  0
   21.8064   -8.6434    9.0327 C   0  0  0  1  0  0  0  0  0  0  0  0
   22.7218   -8.1747    7.9334 C   0  0  0  1  0  0  0  0  0  0  0  0
   22.1248   -7.6832    7.1939 H   0  0  0  1  0  0  0  0  0  0  0  0
   23.1875   -9.0360    7.5020 H   0  0  0  1  0  0  0  0  0  0  0  0
   20.7131   -7.7142    9.4709 C   0  0  0  1  0  0  0  0  0  0  0  0
   21.1825   -6.7616    9.6012 H   0  0  0  1  0  0  0  0  0  0  0  0
   20.2849   -8.0491   10.3925 H   0  0  0  1  0  0  0  0  0  0  0  0
   19.9501   -7.6557    8.7230 H   0  0  0  1  0  0  0  0  0  0  0  0
   23.8189   -7.2148    8.3641 C   0  0  0  1  0  0  0  0  0  0  0  0
   24.4414   -7.7086    9.0807 H   0  0  0  1  0  0  0  0  0  0  0  0
   23.3639   -6.3583    8.8161 H   0  0  0  1  0  0  0  0  0  0  0  0
   24.6734   -6.7555    7.2285 C   0  0  0  1  0  0  0  0  0  0  0  0
   25.1406   -7.4739    6.6392 H   0  0  0  1  0  0  0  0  0  0  0  0
   24.8662   -5.4729    6.9337 C   0  0  0  1  0  0  0  0  0  0  0  0
   25.7477   -4.9514    5.8363 C   0  0  0  1  0  0  0  0  0  0  0  0
   25.2116   -4.2245    5.2626 H   0  0  0  1  0  0  0  0  0  0  0  0
   26.0422   -5.7603    5.2009 H   0  0  0  1  0  0  0  0  0  0  0  0
   26.6175   -4.4975    6.2632 H   0  0  0  1  0  0  0  0  0  0  0  0
   24.1595   -4.4138    7.7444 C   0  0  0  1  0  0  0  0  0  0  0  0
   24.2517   -4.6859    8.7751 H   0  0  0  1  0  0  0  0  0  0  0  0
   23.1266   -4.3706    7.4685 H   0  0  0  1  0  0  0  0  0  0  0  0
   24.6143   -3.4600    7.5758 H   0  0  0  1  0  0  0  0  0  0  0  0
   15.8585   -5.1171   -1.4966 C   0  0  0  1  0  0  0  0  0  0  0  0
   15.9225   -5.6327   -0.5612 H   0  0  0  1  0  0  0  0  0  0  0  0
   14.7360   -5.7095   -2.3070 C   0  0  0  1  0  0  0  0  0  0  0  0
   14.9586   -6.7337   -2.5225 H   0  0  0  1  0  0  0  0  0  0  0  0
   15.6438   -3.7358   -1.2490 O   0  0  0  1  0  0  0  0  0  0  0  0
   14.5702   -4.9534   -3.6014 C   0  0  0  1  0  0  0  0  0  0  0  0
   13.6711   -5.2751   -4.0840 H   0  0  0  1  0  0  0  0  0  0  0  0
   15.6273   -2.9831   -2.4595 C   0  0  0  1  0  0  0  0  0  0  0  0
   16.5571   -3.1132   -2.9728 H   0  0  0  1  0  0  0  0  0  0  0  0
   14.4899   -3.4681   -3.3416 C   0  0  0  1  0  0  0  0  0  0  0  0
   14.5337   -2.9509   -4.2773 H   0  0  0  1  0  0  0  0  0  0  0  0
   17.0790   -5.2753   -2.2107 O   0  0  0  1  0  0  0  0  0  0  0  0
   13.5220   -5.6327   -1.5575 O   0  0  0  1  0  0  0  0  0  0  0  0
   13.3054   -6.5004   -1.2086 H   0  0  0  1  0  0  0  0  0  0  0  0
   15.6903   -5.2224   -4.4500 O   0  0  0  1  0  0  0  0  0  0  0  0
   16.3607   -4.5479   -4.3192 H   0  0  0  1  0  0  0  0  0  0  0  0
   15.4268   -1.5111   -2.1380 C   0  0  0  1  0  0  0  0  0  0  0  0
   15.5609   -0.9300   -3.0264 H   0  0  0  1  0  0  0  0  0  0  0  0
   16.1409   -1.2066   -1.4017 H   0  0  0  1  0  0  0  0  0  0  0  0
   14.4373   -1.3605   -1.7596 H   0  0  0  1  0  0  0  0  0  0  0  0
   19.6930   -6.2565   -3.1708 C   0  0  0  1  0  0  0  0  0  0  0  0
   18.9023   -6.2165   -3.8906 H   0  0  0  1  0  0  0  0  0  0  0  0
   19.0997   -6.5054   -1.7870 C   0  0  0  1  0  0  0  0  0  0  0  0
   19.8917   -6.6285   -1.0781 H   0  0  0  1  0  0  0  0  0  0  0  0
   20.4085   -5.0279   -3.1937 O   0  0  0  1  0  0  0  0  0  0  0  0
   18.2309   -5.3189   -1.3753 C   0  0  0  1  0  0  0  0  0  0  0  0
   17.9288   -5.4448   -0.3566 H   0  0  0  1  0  0  0  0  0  0  0  0
   19.5844   -3.8860   -2.9113 C   0  0  0  1  0  0  0  0  0  0  0  0
   20.1781   -2.9975   -2.9656 H   0  0  0  1  0  0  0  0  0  0  0  0
   18.9870   -4.0129   -1.5084 C   0  0  0  1  0  0  0  0  0  0  0  0
   18.3162   -3.1975   -1.3355 H   0  0  0  1  0  0  0  0  0  0  0  0
   18.2841   -7.7139   -1.8205 N   0  0  0  1  0  0  0  0  0  0  0  0
   18.7233   -8.5253   -2.1509 H   0  0  0  1  0  0  0  0  0  0  0  0
   20.0399   -3.9774   -0.5429 O   0  0  0  1  0  0  0  0  0  0  0  0
   20.3918   -3.0843   -0.5574 H   0  0  0  1  0  0  0  0  0  0  0  0
   18.4749   -3.8101   -3.9207 C   0  0  0  1  0  0  0  0  0  0  0  0
   17.7782   -3.0477   -3.6410 H   0  0  0  1  0  0  0  0  0  0  0  0
   17.9696   -4.7514   -3.9796 H   0  0  0  1  0  0  0  0  0  0  0  0
   19.0623   -3.4939   -5.1792 O   0  0  0  1  0  0  0  0  0  0  0  0
   18.3857   -3.5755   -5.8553 H   0  0  0  1  0  0  0  0  0  0  0  0
   17.0062   -7.8406   -1.4518 C   0  0  0  1  0  0  0  0  0  0  0  0
   16.4460   -7.0470   -0.7137 O   0  0  0  1  0  0  0  0  0  0  0  0
   16.2758   -9.0462   -2.0106 C   0  0  0  1  0  0  0  0  0  0  0  0
   15.2572   -8.7279   -2.0886 H   0  0  0  1  0  0  0  0  0  0  0  0
   16.3615   -9.8815   -1.3474 H   0  0  0  1  0  0  0  0  0  0  0  0
   16.6640   -9.3119   -2.9716 H   0  0  0  1  0  0  0  0  0  0  0  0
  1  2  1  0  0  0  0
  1  3  1  0  0  0  0
  1  4  1  0  0  0  0
  1 44  1  0  0  0  0
  3 20  1  0  0  0  0
  4  5  1  0  0  0  0
  4  6  1  0  0  0  0
  4  8  1  0  0  0  0
  6  7  1  0  0  0  0
  8  9  1  0  0  0  0
  8 10  1  0  0  0  0
  8 20  1  0  0  0  0
 10 11  1  0  0  0  0
 12 13  1  0  0  0  0
 12 14  1  0  0  0  0
 12 15  1  0  0  0  0
 12 17  1  0  0  0  0
 15 16  1  0  0  0  0
 17 18  1  0  0  0  0
 17 19  1  0  0  0  0
 17 20  1  0  0  0  0
 19 22  1  0  0  0  0
 20 21  1  0  0  0  0
 22 23  1  0  0  0  0
 22 24  1  0  0  0  0
 22 25  1  0  0  0  0
 24 42  1  0  0  0  0
 25 26  1  0  0  0  0
 25 27  1  0  0  0  0
 25 29  1  0  0  0  0
 27 28  1  0  0  0  0
 29 30  1  0  0  0  0
 29 31  1  0  0  0  0
 29 42  1  0  0  0  0
 31 32  1  0  0  0  0
 33 34  1  0  0  0  0
 33 35  1  0  0  0  0
 33 36  1  0  0  0  0
 33 38  1  0  0  0  0
 36 37  1  0  0  0  0
 38 39  1  0  0  0  0
 38 40  1  0  0  0  0
 38 42  1  0  0  0  0
 40 41  1  0  0  0  0
 42 43  1  0  0  0  0
 44194  1  0  0  0  0
 45 46  1  0  0  0  0
 45 54  1  0  0  0  0
 46 47  1  0  0  0  0
 46 48  1  0  0  0  0
 46 49  2  0  0  0  0
 47 50  1  0  0  0  0
 50 51  1  0  0  0  0
 50 52  1  0  0  0  0
 50 53  2  0  0  0  0
 51205  1  0  0  0  0
 54 55  1  0  0  0  0
 54 56  1  0  0  0  0
 54 57  1  0  0  0  0
 57 58  1  0  0  0  0
 57 59  2  0  0  0  0
 59 60  1  0  0  0  0
 59 64  1  0  0  0  0
 60 61  1  0  0  0  0
 60 62  1  0  0  0  0
 60 63  1  0  0  0  0
 64 65  1  0  0  0  0
 64 66  1  0  0  0  0
 64 67  1  0  0  0  0
 67 68  1  0  0  0  0
 67 69  1  0  0  0  0
 67 70  1  0  0  0  0
 70 71  1  0  0  0  0
 70 72  2  0  0  0  0
 72 73  1  0  0  0  0
 72 77  1  0  0  0  0
 73 74  1  0  0  0  0
 73 75  1  0  0  0  0
 73 76  1  0  0  0  0
 77 78  1  0  0  0  0
 77 79  1  0  0  0  0
 77 80  1  0  0  0  0
 80 81  1  0  0  0  0
 80 82  1  0  0  0  0
 80 83  1  0  0  0  0
 83 84  1  0  0  0  0
 83 85  2  0  0  0  0
 85 86  1  0  0  0  0
 85 89  1  0  0  0  0
 86 87  1  0  0  0  0
 86 88  1  0  0  0  0
 86 93  1  0  0  0  0
 89 90  1  0  0  0  0
 89 91  1  0  0  0  0
 89 92  1  0  0  0  0
 93 94  1  0  0  0  0
 93 95  1  0  0  0  0
 93 96  1  0  0  0  0
 96 97  1  0  0  0  0
 96 98  2  0  0  0  0
 98 99  1  0  0  0  0
 98102  1  0  0  0  0
 99100  1  0  0  0  0
 99101  1  0  0  0  0
 99106  1  0  0  0  0
102103  1  0  0  0  0
102104  1  0  0  0  0
102105  1  0  0  0  0
106107  1  0  0  0  0
106108  1  0  0  0  0
106109  1  0  0  0  0
109110  1  0  0  0  0
109111  2  0  0  0  0
111112  1  0  0  0  0
111115  1  0  0  0  0
112113  1  0  0  0  0
112114  1  0  0  0  0
112119  1  0  0  0  0
115116  1  0  0  0  0
115117  1  0  0  0  0
115118  1  0  0  0  0
119120  1  0  0  0  0
119121  1  0  0  0  0
119122  1  0  0  0  0
122123  1  0  0  0  0
122124  2  0  0  0  0
124125  1  0  0  0  0
124128  1  0  0  0  0
125126  1  0  0  0  0
125127  1  0  0  0  0
125132  1  0  0  0  0
128129  1  0  0  0  0
128130  1  0  0  0  0
128131  1  0  0  0  0
132133  1  0  0  0  0
132134  1  0  0  0  0
132135  1  0  0  0  0
135136  1  0  0  0  0
135137  2  0  0  0  0
137138  1  0  0  0  0
137141  1  0  0  0  0
138139  1  0  0  0  0
138140  1  0  0  0  0
138145  1  0  0  0  0
141142  1  0  0  0  0
141143  1  0  0  0  0
141144  1  0  0  0  0
145146  1  0  0  0  0
145147  1  0  0  0  0
145148  1  0  0  0  0
148149  1  0  0  0  0
148150  2  0  0  0  0
150151  1  0  0  0  0
150154  1  0  0  0  0
151152  1  0  0  0  0
151153  1  0  0  0  0
151158  1  0  0  0  0
154155  1  0  0  0  0
154156  1  0  0  0  0
154157  1  0  0  0  0
158159  1  0  0  0  0
158160  1  0  0  0  0
158161  1  0  0  0  0
161162  1  0  0  0  0
161163  2  0  0  0  0
163164  1  0  0  0  0
163167  1  0  0  0  0
164165  1  0  0  0  0
164166  1  0  0  0  0
164171  1  0  0  0  0
167168  1  0  0  0  0
167169  1  0  0  0  0
167170  1  0  0  0  0
171172  1  0  0  0  0
171173  1  0  0  0  0
171174  1  0  0  0  0
174175  1  0  0  0  0
174176  2  0  0  0  0
176177  1  0  0  0  0
176181  1  0  0  0  0
177178  1  0  0  0  0
177179  1  0  0  0  0
177180  1  0  0  0  0
181182  1  0  0  0  0
181183  1  0  0  0  0
181184  1  0  0  0  0
185186  1  0  0  0  0
185187  1  0  0  0  0
185189  1  0  0  0  0
185196  1  0  0  0  0
187188  1  0  0  0  0
187190  1  0  0  0  0
187197  1  0  0  0  0
189192  1  0  0  0  0
190191  1  0  0  0  0
190194  1  0  0  0  0
190199  1  0  0  0  0
192193  1  0  0  0  0
192194  1  0  0  0  0
192201  1  0  0  0  0
194195  1  0  0  0  0
196210  1  0  0  0  0
197198  1  0  0  0  0
199200  1  0  0  0  0
201202  1  0  0  0  0
201203  1  0  0  0  0
201204  1  0  0  0  0
205206  1  0  0  0  0
205207  1  0  0  0  0
205209  1  0  0  0  0
207208  1  0  0  0  0
207210  1  0  0  0  0
207216  1  0  0  0  0
209212  1  0  0  0  0
210211  1  0  0  0  0
210214  1  0  0  0  0
212213  1  0  0  0  0
212214  1  0  0  0  0
212220  1  0  0  0  0
214215  1  0  0  0  0
214218  1  0  0  0  0
216217  1  0  0  0  0
216225  1  0  0  0  0
218219  1  0  0  0  0
220221  1  0  0  0  0
220222  1  0  0  0  0
220223  1  0  0  0  0
223224  1  0  0  0  0
225226  2  0  0  0  0
225227  1  0  0  0  0
227228  1  0  0  0  0
227229  1  0  0  0  0
227230  1  0  0  0  0
M  BCL ATM C_TeTeTeTe H_S O_Te2Te2TeTe C_TeTeTeTe H_S O_Te2Te2TeTe H_S C_TeTeTeTe H_S O_Te2Te2TeTe H_S C_TeTeTeTe H_S H_S O_Te2Te2TeTe H_S C_TeTeTeTe H_S O_Te2Te2TeTe C_TeTeTeTe H_S C_TeTeTeTe H_S O_Te2Te2TeTe C_TeTeTeTe H_S O_Te2Te2TeTe H_S C_TeTeTeTe H_S O_Te2Te2TeTe H_S C_TeTeTeTe H_S H_S O_Te2Te2TeTe H_S C_TeTeTeTe H_S O_Te2Te2TeTe H_S C_TeTeTeTe H_S O_Te2Te2TeTe O_Tr2TrTrPi2 P_TeTeTeTePi O_Tr2TrTrPi2 O_Te2Te2TeTe O_Tr2Tr2TrPi P_TeTeTeTePi O_Tr2TrTrPi2 O_Te2Te2TeTe O_Tr2Tr2TrPi C_TeTeTeTe H_S H_S C_TrTrTrPi H_S C_TrTrTrPi C_TeTeTeTe H_S H_S H_S C_TeTeTeTe H_S H_S C_TeTeTeTe H_S H_S C_TrTrTrPi H_S C_TrTrTrPi C_TeTeTeTe H_S H_S H_S C_TeTeTeTe H_S H_S C_TeTeTeTe H_S H_S C_TrTrTrPi H_S C_TrTrTrPi C_TeTeTeTe H_S H_S C_TeTeTeTe H_S H_S H_S C_TeTeTeTe H_S H_S C_TrTrTrPi H_S C_TrTrTrPi C_TeTeTeTe H_S H_S C_TeTeTeTe H_S H_S H_S C_TeTeTeTe H_S H_S C_TrTrTrPi H_S C_TrTrTrPi C_TeTeTeTe H_S H_S C_TeTeTeTe H_S H_S H_S C_TeTeTeTe H_S H_S C_TrTrTrPi H_S C_TrTrTrPi C_TeTeTeTe H_S H_S C_TeTeTeTe H_S H_S H_S C_TeTeTeTe H_S H_S C_TrTrTrPi H_S C_TrTrTrPi C_TeTeTeTe H_S H_S C_TeTeTeTe H_S H_S H_S C_TeTeTeTe H_S H_S C_TrTrTrPi H_S C_TrTrTrPi C_TeTeTeTe H_S H_S C_TeTeTeTe H_S H_S H_S C_TeTeTeTe H_S H_S C_TrTrTrPi H_S C_TrTrTrPi C_TeTeTeTe H_S H_S C_TeTeTeTe H_S H_S H_S C_TeTeTeTe H_S H_S C_TrTrTrPi H_S C_TrTrTrPi C_TeTeTeTe H_S H_S H_S C_TeTeTeTe H_S H_S H_S C_TeTeTeTe H_S C_TeTeTeTe H_S O_Te2Te2TeTe C_TeTeTeTe H_S C_TeTeTeTe H_S C_TeTeTeTe H_S O_Te2Te2TeTe O_Te2Te2TeTe H_S O_Te2Te2TeTe H_S C_TeTeTeTe H_S H_S H_S C_TeTeTeTe H_S C_TeTeTeTe H_S O_Te2Te2TeTe C_TeTeTeTe H_S C_TeTeTeTe H_S C_TeTeTeTe H_S N_TrTrTrPi2 H_S O_Te2Te2TeTe H_S C_TeTeTeTe H_S H_S O_Te2Te2TeTe H_S C_TrTrTrPi O_Tr2Tr2TrPi C_TeTeTeTe H_S H_S H_S
M  BCL BND NonConjugatedSingleBond NonConjugatedSingleBondInRing NonConjugatedSingleBondInRing NonConjugatedSingleBond NonConjugatedSingleBondInRing NonConjugatedSingleBond NonConjugatedSingleBond NonConjugatedSingleBondInRing NonConjugatedSingleBond NonConjugatedSingleBond NonConjugatedSingleBond NonConjugatedSingleBondInRing NonConjugatedSingleBond NonConjugatedSingleBond NonConjugatedSingleBond NonConjugatedSingleBond NonConjugatedSingleBond NonConjugatedSingleBond NonConjugatedSingleBond NonConjugatedSingleBond NonConjugatedSingleBond NonConjugatedSingleBond NonConjugatedSingleBond NonConjugatedSingleBond NonConjugatedSingleBondInRing NonConjugatedSingleBondInRing NonConjugatedSingleBondInRing NonConjugatedSingleBond NonConjugatedSingleBond NonConjugatedSingleBondInRing NonConjugatedSingleBond NonConjugatedSingleBond NonConjugatedSingleBond NonConjugatedSingleBondInRing NonConjugatedSingleBond NonConjugatedSingleBond NonConjugatedSingleBond NonConjugatedSingleBond NonConjugatedSingleBond NonConjugatedSingleBond NonConjugatedSingleBond NonConjugatedSingleBond NonConjugatedSingleBond NonConjugatedSingleBond NonConjugatedSingleBond NonConjugatedSingleBond ConjugatedSingleBond NonConjugatedSingleBond ConjugatedSingleBond ConjugatedSingleBond ConjugatedDoubleBond ConjugatedSingleBond ConjugatedSingleBond ConjugatedSingleBond ConjugatedDoubleBond NonConjugatedSingleBond NonConjugatedSingleBond NonConjugatedSingleBond NonConjugatedSingleBond NonConjugatedSingleBond ConjugatedDoubleBond NonConjugatedSingleBond NonConjugatedSingleBond NonConjugatedSingleBond NonConjugatedSingleBond NonConjugatedSingleBond NonConjugatedSingleBond NonConjugatedSingleBond NonConjugatedSingleBond NonConjugatedSingleBond NonConjugatedSingleBond NonConjugatedSingleBond NonConjugatedSingleBond ConjugatedDoubleBond NonConjugatedSingleBond NonConjugatedSingleBond NonConjugatedSingleBond NonConjugatedSingleBond NonConjugatedSingleBond NonConjugatedSingleBond NonConjugatedSingleBond NonConjugatedSingleBond NonConjugatedSingleBond NonConjugatedSingleBond NonConjugatedSingleBond NonConjugatedSingleBond ConjugatedDoubleBond NonConjugatedSingleBond NonConjugatedSingleBond NonConjugatedSingleBond NonConjugatedSingleBond NonConjugatedSingleBond NonConjugatedSingleBond NonConjugatedSingleBond NonConjugatedSingleBond NonConjugatedSingleBond NonConjugatedSingleBond NonConjugatedSingleBond NonConjugatedSingleBond ConjugatedDoubleBond NonConjugatedSingleBond NonConjugatedSingleBond NonConjugatedSingleBond NonConjugatedSingleBond NonConjugatedSingleBond NonConjugatedSingleBond NonConjugatedSingleBond NonConjugatedSingleBond NonConjugatedSingleBond NonConjugatedSingleBond NonConjugatedSingleBond NonConjugatedSingleBond ConjugatedDoubleBond NonConjugatedSingleBond NonConjugatedSingleBond NonConjugatedSingleBond NonConjugatedSingleBond NonConjugatedSingleBond NonConjugatedSingleBond NonConjugatedSingleBond NonConjugatedSingleBond NonConjugatedSingleBond NonConjugatedSingleBond NonConjugatedSingleBond NonConjugatedSingleBond ConjugatedDoubleBond NonConjugatedSingleBond NonConjugatedSingleBond NonConjugatedSingleBond NonConjugatedSingleBond NonConjugatedSingleBond NonConjugatedSingleBond NonConjugatedSingleBond NonConjugatedSingleBond NonConjugatedSingleBond NonConjugatedSingleBond NonConjugatedSingleBond NonConjugatedSingleBond ConjugatedDoubleBond NonConjugatedSingleBond NonConjugatedSingleBond NonConjugatedSingleBond NonConjugatedSingleBond NonConjugatedSingleBond NonConjugatedSingleBond NonConjugatedSingleBond NonConjugatedSingleBond NonConjugatedSingleBond NonConjugatedSingleBond NonConjugatedSingleBond NonConjugatedSingleBond ConjugatedDoubleBond NonConjugatedSingleBond NonConjugatedSingleBond NonConjugatedSingleBond NonConjugatedSingleBond NonConjugatedSingleBond NonConjugatedSingleBond NonConjugatedSingleBond NonConjugatedSingleBond NonConjugatedSingleBond NonConjugatedSingleBond NonConjugatedSingleBond NonConjugatedSingleBond ConjugatedDoubleBond NonConjugatedSingleBond NonConjugatedSingleBond NonConjugatedSingleBond NonConjugatedSingleBond NonConjugatedSingleBond NonConjugatedSingleBond NonConjugatedSingleBond NonConjugatedSingleBond NonConjugatedSingleBond NonConjugatedSingleBond NonConjugatedSingleBond NonConjugatedSingleBond ConjugatedDoubleBond NonConjugatedSingleBond NonConjugatedSingleBond NonConjugatedSingleBond NonConjugatedSingleBond NonConjugatedSingleBond NonConjugatedSingleBond NonConjugatedSingleBond NonConjugatedSingleBond NonConjugatedSingleBond NonConjugatedSingleBondInRing NonConjugatedSingleBondInRing NonConjugatedSingleBond NonConjugatedSingleBond NonConjugatedSingleBondInRing NonConjugatedSingleBond NonConjugatedSingleBondInRing NonConjugatedSingleBond NonConjugatedSingleBondInRing NonConjugatedSingleBond NonConjugatedSingleBond NonConjugatedSingleBondInRing NonConjugatedSingleBond NonConjugatedSingleBond NonConjugatedSingleBond NonConjugatedSingleBond NonConjugatedSingleBond NonConjugatedSingleBond NonConjugatedSingleBond NonConjugatedSingleBond NonConjugatedSingleBond NonConjugatedSingleBondInRing NonConjugatedSingleBondInRing NonConjugatedSingleBond NonConjugatedSingleBondInRing NonConjugatedSingleBond NonConjugatedSingleBondInRing NonConjugatedSingleBond NonConjugatedSingleBondInRing NonConjugatedSingleBond NonConjugatedSingleBondInRing NonConjugatedSingleBond NonConjugatedSingleBond NonConjugatedSingleBond NonConjugatedSingleBond AmideSingleBond NonConjugatedSingleBond NonConjugatedSingleBond NonConjugatedSingleBond NonConjugatedSingleBond NonConjugatedSingleBond ConjugatedDoubleBond NonConjugatedSingleBond NonConjugatedSingleBond NonConjugatedSingleBond NonConjugatedSingleBond
M  BCL CHI   1   R   4   R   8   R  17   S  20   R  22   S  25   R  29   S  38   S  42   R  46   R  50   S 185   R 187   S 190   S 192   R 194   R 205   R 207   S 210   R 212   S 214   S
M  BCL DBI - - E E E E E E E E Z - -
M  END
> <ConfClashScore>
0.015266 

> <ConfOneFourInteractionScore>
-0.966545 

> <ConfScore>
2.27156 

> <ConfScorePBest>
0.00582846 

> <ConfTolerance>
4.50391 

$$$$
L05.****
  PyMOL2.5          3D                             0

230233  0  0  0  0  0  0  0  0999 V2000
   12.4817   -2.0416   -2.5107 C   0  0  0  1  0  0  0  0  0  0  0  0
   12.6651   -1.3547   -1.7111 H   0  0  0  1  0  0  0  0  0  0  0  0
   11.0787   -2.3506   -2.5989 O   0  0  0  1  0  0  0  0  0  0  0  0
   12.8322   -1.4140   -3.8391 C   0  0  0  1  0  0  0  0  0  0  0  0
   13.8632   -1.5681   -4.0803 H   0  0  0  1  0  0  0  0  0  0  0  0
   12.5460   -0.0146   -3.8414 O   0  0  0  1  0  0  0  0  0  0  0  0
   13.3668    0.4805   -3.7873 H   0  0  0  1  0  0  0  0  0  0  0  0
   11.9308   -2.1575   -4.7938 C   0  0  0  1  0  0  0  0  0  0  0  0
   11.7201   -1.5661   -5.6603 H   0  0  0  1  0  0  0  0  0  0  0  0
   12.5201   -3.3958   -5.1935 O   0  0  0  1  0  0  0  0  0  0  0  0
   12.5496   -3.9936   -4.4430 H   0  0  0  1  0  0  0  0  0  0  0  0
   10.1374    0.1562   -4.2771 C   0  0  0  1  0  0  0  0  0  0  0  0
   10.4973    0.3981   -3.2989 H   0  0  0  1  0  0  0  0  0  0  0  0
   10.9381    0.2368   -4.9823 H   0  0  0  1  0  0  0  0  0  0  0  0
    9.1462    1.0981   -4.6269 O   0  0  0  1  0  0  0  0  0  0  0  0
    9.2866    1.9094   -4.1333 H   0  0  0  1  0  0  0  0  0  0  0  0
    9.6546   -1.3072   -4.2632 C   0  0  0  1  0  0  0  0  0  0  0  0
    9.2489   -1.5082   -5.2327 H   0  0  0  1  0  0  0  0  0  0  0  0
    8.6119   -1.4370   -3.3038 O   0  0  0  1  0  0  0  0  0  0  0  0
   10.6756   -2.3927   -3.9803 C   0  0  0  1  0  0  0  0  0  0  0  0
   10.2553   -3.3483   -4.2149 H   0  0  0  1  0  0  0  0  0  0  0  0
    7.3987   -1.8882   -3.8450 C   0  0  0  1  0  0  0  0  0  0  0  0
    7.1787   -1.3383   -4.7361 H   0  0  0  1  0  0  0  0  0  0  0  0
    7.4738   -3.2923   -4.1326 O   0  0  0  1  0  0  0  0  0  0  0  0
    6.3480   -1.7334   -2.8977 C   0  0  0  1  0  0  0  0  0  0  0  0
    5.7458   -0.8926   -3.1721 H   0  0  0  1  0  0  0  0  0  0  0  0
    6.9091   -1.5156   -1.6023 O   0  0  0  1  0  0  0  0  0  0  0  0
    6.6304   -0.6582   -1.2724 H   0  0  0  1  0  0  0  0  0  0  0  0
    5.5383   -2.9009   -2.8681 C   0  0  0  1  0  0  0  0  0  0  0  0
    4.5706   -2.6925   -3.2744 H   0  0  0  1  0  0  0  0  0  0  0  0
    5.4009   -3.3741   -1.5314 O   0  0  0  1  0  0  0  0  0  0  0  0
    4.7637   -4.0919   -1.5094 H   0  0  0  1  0  0  0  0  0  0  0  0
    5.9997   -5.3365   -5.8368 C   0  0  0  1  0  0  0  0  0  0  0  0
    6.2304   -6.2177   -5.2755 H   0  0  0  1  0  0  0  0  0  0  0  0
    5.2927   -5.5761   -6.6034 H   0  0  0  1  0  0  0  0  0  0  0  0
    7.1868   -4.8309   -6.4307 O   0  0  0  1  0  0  0  0  0  0  0  0
    7.5191   -4.0972   -5.9084 H   0  0  0  1  0  0  0  0  0  0  0  0
    5.4021   -4.2844   -4.9066 C   0  0  0  1  0  0  0  0  0  0  0  0
    4.4943   -4.6993   -4.5210 H   0  0  0  1  0  0  0  0  0  0  0  0
    5.0609   -3.1387   -5.6823 O   0  0  0  1  0  0  0  0  0  0  0  0
    4.5510   -3.4109   -6.4488 H   0  0  0  1  0  0  0  0  0  0  0  0
    6.2462   -3.9141   -3.7071 C   0  0  0  1  0  0  0  0  0  0  0  0
    6.4545   -4.7921   -3.1322 H   0  0  0  1  0  0  0  0  0  0  0  0
   13.2416   -3.2265   -2.3026 O   0  0  0  1  0  0  0  0  0  0  0  0
   20.1641   -9.4365    3.1821 O   0  0  0  1  0  0  0  0  0  0  0  0
   19.4688   -9.2885    1.7687 P   0  0  0  1  0  0  0  0  0  0  0  0
   19.4545   -7.7131    1.4094 O   0  0  0  1  0  0  0  0  0  0  0  0
   18.0566   -9.7707    1.9515 O   0  0  0  0  0  0  0  0  0  0  0  0
   20.2355   -9.9643    0.7058 O   0  0  0  1  0  0  0  0  0  0  0  0
   20.3915   -6.4397    1.6665 P   0  0  0  1  0  0  0  0  0  0  0  0
   19.5646   -5.3022    0.9606 O   0  0  0  1  0  0  0  0  0  0  0  0
   21.6871   -6.6601    0.9863 O   0  0  0  0  0  0  0  0  0  0  0  0
   20.3934   -6.1317    3.0971 O   0  0  0  1  0  0  0  0  0  0  0  0
   20.4195  -10.7329    3.7448 C   0  0  0  1  0  0  0  0  0  0  0  0
   20.8521  -10.6095    4.7157 H   0  0  0  1  0  0  0  0  0  0  0  0
   21.1057  -11.2557    3.1119 H   0  0  0  1  0  0  0  0  0  0  0  0
   19.1636  -11.5438    3.8729 C   0  0  0  1  0  0  0  0  0  0  0  0
   19.2937  -12.5740    3.8154 H   0  0  0  1  0  0  0  0  0  0  0  0
   17.9108  -11.1409    4.0487 C   0  0  0  1  0  0  0  0  0  0  0  0
   16.7534  -12.0707    3.8269 C   0  0  0  1  0  0  0  0  0  0  0  0
   16.2631  -12.2595    4.7590 H   0  0  0  1  0  0  0  0  0  0  0  0
   17.1104  -12.9931    3.4187 H   0  0  0  1  0  0  0  0  0  0  0  0
   16.0616  -11.6223    3.1448 H   0  0  0  1  0  0  0  0  0  0  0  0
   17.5285   -9.7518    4.4761 C   0  0  0  1  0  0  0  0  0  0  0  0
   16.5203   -9.7709    4.8341 H   0  0  0  1  0  0  0  0  0  0  0  0
   17.5937   -9.1041    3.6269 H   0  0  0  1  0  0  0  0  0  0  0  0
   18.4217   -9.2000    5.5752 C   0  0  0  1  0  0  0  0  0  0  0  0
   19.4368   -9.2342    5.2384 H   0  0  0  1  0  0  0  0  0  0  0  0
   18.3126   -9.8152    6.4438 H   0  0  0  1  0  0  0  0  0  0  0  0
   18.0906   -7.7893    5.9463 C   0  0  0  1  0  0  0  0  0  0  0  0
   18.1815   -7.0390    5.2319 H   0  0  0  1  0  0  0  0  0  0  0  0
   17.6825   -7.4768    7.1716 C   0  0  0  1  0  0  0  0  0  0  0  0
   17.3494   -6.0605    7.5468 C   0  0  0  1  0  0  0  0  0  0  0  0
   17.1019   -6.0153    8.5868 H   0  0  0  1  0  0  0  0  0  0  0  0
   16.5150   -5.7251    6.9670 H   0  0  0  1  0  0  0  0  0  0  0  0
   18.1940   -5.4326    7.3537 H   0  0  0  1  0  0  0  0  0  0  0  0
   17.5157   -8.4753    8.2789 C   0  0  0  1  0  0  0  0  0  0  0  0
   18.0513   -9.3612    8.0080 H   0  0  0  1  0  0  0  0  0  0  0  0
   16.4733   -8.7007    8.3658 H   0  0  0  1  0  0  0  0  0  0  0  0
   18.0134   -8.0251    9.6427 C   0  0  0  1  0  0  0  0  0  0  0  0
   17.4693   -7.1503    9.9320 H   0  0  0  1  0  0  0  0  0  0  0  0
   19.0541   -7.7889    9.5645 H   0  0  0  1  0  0  0  0  0  0  0  0
   17.8386   -9.0727   10.7095 C   0  0  0  1  0  0  0  0  0  0  0  0
   18.0999  -10.0456   10.4511 H   0  0  0  1  0  0  0  0  0  0  0  0
   17.3868   -8.8891   11.9455 C   0  0  0  1  0  0  0  0  0  0  0  0
   16.6694   -7.6493   12.3945 C   0  0  0  1  0  0  0  0  0  0  0  0
   17.3972   -6.8690   12.4732 H   0  0  0  1  0  0  0  0  0  0  0  0
   16.2559   -7.8508   13.3606 H   0  0  0  1  0  0  0  0  0  0  0  0
   17.5646   -9.9338   13.0110 C   0  0  0  1  0  0  0  0  0  0  0  0
   17.9148   -9.4711   13.9100 H   0  0  0  1  0  0  0  0  0  0  0  0
   18.2784  -10.6601   12.6825 H   0  0  0  1  0  0  0  0  0  0  0  0
   16.6271  -10.4141   13.1993 H   0  0  0  1  0  0  0  0  0  0  0  0
   15.5417   -7.1325   11.5160 C   0  0  0  1  0  0  0  0  0  0  0  0
   14.9179   -7.9625   11.2574 H   0  0  0  1  0  0  0  0  0  0  0  0
   15.9763   -6.7221   10.6286 H   0  0  0  1  0  0  0  0  0  0  0  0
   14.6771   -6.0808   12.1353 C   0  0  0  1  0  0  0  0  0  0  0  0
   14.8851   -5.8025   13.1155 H   0  0  0  1  0  0  0  0  0  0  0  0
   13.6637   -5.4761   11.5269 C   0  0  0  1  0  0  0  0  0  0  0  0
   13.2890   -5.8127   10.1113 C   0  0  0  1  0  0  0  0  0  0  0  0
   13.1591   -6.8728   10.0474 H   0  0  0  1  0  0  0  0  0  0  0  0
   14.0962   -5.5129    9.4760 H   0  0  0  1  0  0  0  0  0  0  0  0
   12.8093   -4.4227   12.1691 C   0  0  0  1  0  0  0  0  0  0  0  0
   12.0467   -4.8904   12.7561 H   0  0  0  1  0  0  0  0  0  0  0  0
   12.3556   -3.8202   11.4101 H   0  0  0  1  0  0  0  0  0  0  0  0
   13.4163   -3.8066   12.7989 H   0  0  0  1  0  0  0  0  0  0  0  0
   12.0191   -5.1529    9.5990 C   0  0  0  1  0  0  0  0  0  0  0  0
   11.8634   -5.4557    8.5847 H   0  0  0  1  0  0  0  0  0  0  0  0
   12.1468   -4.0913    9.6393 H   0  0  0  1  0  0  0  0  0  0  0  0
   10.7993   -5.5195   10.4012 C   0  0  0  1  0  0  0  0  0  0  0  0
   10.8169   -5.3208   11.4219 H   0  0  0  1  0  0  0  0  0  0  0  0
    9.7025   -6.0777    9.9029 C   0  0  0  1  0  0  0  0  0  0  0  0
    9.5861   -6.4011    8.4416 C   0  0  0  1  0  0  0  0  0  0  0  0
   10.4715   -6.0615    7.9460 H   0  0  0  1  0  0  0  0  0  0  0  0
    8.7356   -5.8865    8.0457 H   0  0  0  1  0  0  0  0  0  0  0  0
    8.4958   -6.4351   10.7241 C   0  0  0  1  0  0  0  0  0  0  0  0
    8.7085   -6.2742   11.7603 H   0  0  0  1  0  0  0  0  0  0  0  0
    8.2494   -7.4643   10.5664 H   0  0  0  1  0  0  0  0  0  0  0  0
    7.6701   -5.8211   10.4302 H   0  0  0  1  0  0  0  0  0  0  0  0
    9.4207   -7.8878    8.1721 C   0  0  0  1  0  0  0  0  0  0  0  0
    8.4506   -8.1890    8.5082 H   0  0  0  1  0  0  0  0  0  0  0  0
   10.1698   -8.4189    8.7214 H   0  0  0  1  0  0  0  0  0  0  0  0
    9.5541   -8.2411    6.7163 C   0  0  0  1  0  0  0  0  0  0  0  0
   10.3849   -7.8593    6.2208 H   0  0  0  1  0  0  0  0  0  0  0  0
    8.7262   -8.9875    5.9951 C   0  0  0  1  0  0  0  0  0  0  0  0
    7.6895   -9.8577    6.6475 C   0  0  0  1  0  0  0  0  0  0  0  0
    6.7298   -9.4644    6.3844 H   0  0  0  1  0  0  0  0  0  0  0  0
    7.8284   -9.7826    7.7057 H   0  0  0  1  0  0  0  0  0  0  0  0
    8.7369   -9.0403    4.4954 C   0  0  0  1  0  0  0  0  0  0  0  0
    7.7400   -9.1889    4.1361 H   0  0  0  1  0  0  0  0  0  0  0  0
    9.3568   -9.8502    4.1717 H   0  0  0  1  0  0  0  0  0  0  0  0
    9.1215   -8.1196    4.1091 H   0  0  0  1  0  0  0  0  0  0  0  0
    7.6881  -11.3266    6.2949 C   0  0  0  1  0  0  0  0  0  0  0  0
    8.6604  -11.7184    6.5093 H   0  0  0  1  0  0  0  0  0  0  0  0
    7.4909  -11.4143    5.2469 H   0  0  0  1  0  0  0  0  0  0  0  0
    6.6779  -12.1648    7.0288 C   0  0  0  1  0  0  0  0  0  0  0  0
    6.5830  -11.9887    8.0494 H   0  0  0  1  0  0  0  0  0  0  0  0
    5.8934  -13.1060    6.5148 C   0  0  0  1  0  0  0  0  0  0  0  0
    6.1059  -13.7209    5.1573 C   0  0  0  1  0  0  0  0  0  0  0  0
    6.9410  -13.2398    4.6925 H   0  0  0  1  0  0  0  0  0  0  0  0
    5.2272  -13.5587    4.5686 H   0  0  0  1  0  0  0  0  0  0  0  0
    4.7075  -13.6393    7.2683 C   0  0  0  1  0  0  0  0  0  0  0  0
    4.9784  -13.8043    8.2902 H   0  0  0  1  0  0  0  0  0  0  0  0
    4.3924  -14.5629    6.8295 H   0  0  0  1  0  0  0  0  0  0  0  0
    3.9074  -12.9304    7.2217 H   0  0  0  1  0  0  0  0  0  0  0  0
    6.3795  -15.2149    5.2166 C   0  0  0  1  0  0  0  0  0  0  0  0
    6.2187  -15.6189    4.2389 H   0  0  0  1  0  0  0  0  0  0  0  0
    5.6834  -15.6510    5.9022 H   0  0  0  1  0  0  0  0  0  0  0  0
    7.7353  -15.5910    5.6456 C   0  0  0  1  0  0  0  0  0  0  0  0
    8.3069  -14.7681    5.9245 H   0  0  0  1  0  0  0  0  0  0  0  0
    8.4070  -16.7448    5.7616 C   0  0  0  1  0  0  0  0  0  0  0  0
    7.7125  -18.0256    5.3946 C   0  0  0  1  0  0  0  0  0  0  0  0
    7.5940  -18.0562    4.3316 H   0  0  0  1  0  0  0  0  0  0  0  0
    6.7500  -18.0371    5.8618 H   0  0  0  1  0  0  0  0  0  0  0  0
    9.8084  -16.8090    6.2377 C   0  0  0  1  0  0  0  0  0  0  0  0
   10.4466  -17.1030    5.4308 H   0  0  0  1  0  0  0  0  0  0  0  0
    9.8832  -17.5242    7.0301 H   0  0  0  1  0  0  0  0  0  0  0  0
   10.1075  -15.8462    6.5961 H   0  0  0  1  0  0  0  0  0  0  0  0
    8.4774  -19.2642    5.8320 C   0  0  0  1  0  0  0  0  0  0  0  0
    8.5765  -19.2448    6.8972 H   0  0  0  1  0  0  0  0  0  0  0  0
    9.4481  -19.2414    5.3825 H   0  0  0  1  0  0  0  0  0  0  0  0
    7.7967  -20.5475    5.4374 C   0  0  0  1  0  0  0  0  0  0  0  0
    7.6154  -20.6830    4.4223 H   0  0  0  1  0  0  0  0  0  0  0  0
    7.4027  -21.5252    6.2446 C   0  0  0  1  0  0  0  0  0  0  0  0
    6.7320  -22.7569    5.7095 C   0  0  0  1  0  0  0  0  0  0  0  0
    7.3866  -23.5871    5.8741 H   0  0  0  1  0  0  0  0  0  0  0  0
    6.5838  -22.6218    4.6584 H   0  0  0  1  0  0  0  0  0  0  0  0
    7.5807  -21.5040    7.7367 C   0  0  0  1  0  0  0  0  0  0  0  0
    8.4676  -20.9312    7.9108 H   0  0  0  1  0  0  0  0  0  0  0  0
    7.6983  -22.4987    8.1133 H   0  0  0  1  0  0  0  0  0  0  0  0
    6.7385  -21.0413    8.2072 H   0  0  0  1  0  0  0  0  0  0  0  0
    5.3866  -23.0895    6.3337 C   0  0  0  1  0  0  0  0  0  0  0  0
    4.7602  -22.2241    6.2742 H   0  0  0  1  0  0  0  0  0  0  0  0
    5.5421  -23.3480    7.3604 H   0  0  0  1  0  0  0  0  0  0  0  0
    4.6917  -24.2277    5.6563 C   0  0  0  1  0  0  0  0  0  0  0  0
    4.2673  -24.9604    6.2601 H   0  0  0  1  0  0  0  0  0  0  0  0
    4.5763  -24.3725    4.3405 C   0  0  0  1  0  0  0  0  0  0  0  0
    4.8386  -23.2709    3.3552 C   0  0  0  1  0  0  0  0  0  0  0  0
    3.9936  -23.1620    2.7078 H   0  0  0  1  0  0  0  0  0  0  0  0
    5.7043  -23.5111    2.7740 H   0  0  0  1  0  0  0  0  0  0  0  0
    5.0048  -22.3541    3.8814 H   0  0  0  1  0  0  0  0  0  0  0  0
    4.1629  -25.6867    3.7237 C   0  0  0  1  0  0  0  0  0  0  0  0
    4.9657  -26.0110    3.0951 H   0  0  0  1  0  0  0  0  0  0  0  0
    3.2740  -25.5546    3.1429 H   0  0  0  1  0  0  0  0  0  0  0  0
    3.9839  -26.4105    4.4911 H   0  0  0  1  0  0  0  0  0  0  0  0
   16.0926   -5.1311   -1.6294 C   0  0  0  1  0  0  0  0  0  0  0  0
   16.3097   -5.6606   -0.7252 H   0  0  0  1  0  0  0  0  0  0  0  0
   14.8766   -5.7324   -2.2870 C   0  0  0  1  0  0  0  0  0  0  0  0
   15.1009   -6.7335   -2.5910 H   0  0  0  1  0  0  0  0  0  0  0  0
   15.8309   -3.7621   -1.3298 O   0  0  0  1  0  0  0  0  0  0  0  0
   14.4664   -4.9193   -3.5084 C   0  0  0  1  0  0  0  0  0  0  0  0
   13.5195   -5.2729   -3.8596 H   0  0  0  1  0  0  0  0  0  0  0  0
   15.6173   -2.9481   -2.4980 C   0  0  0  1  0  0  0  0  0  0  0  0
   16.4468   -3.0473   -3.1667 H   0  0  0  1  0  0  0  0  0  0  0  0
   14.3489   -3.4291   -3.1757 C   0  0  0  1  0  0  0  0  0  0  0  0
   14.1978   -2.8753   -4.0787 H   0  0  0  1  0  0  0  0  0  0  0  0
   17.2053   -5.2216   -2.5117 O   0  0  0  1  0  0  0  0  0  0  0  0
   13.7974   -5.7488   -1.3508 O   0  0  0  1  0  0  0  0  0  0  0  0
   12.9665   -5.6329   -1.8176 H   0  0  0  1  0  0  0  0  0  0  0  0
   15.4428   -5.0896   -4.5255 O   0  0  0  1  0  0  0  0  0  0  0  0
   16.1385   -5.6700   -4.2079 H   0  0  0  1  0  0  0  0  0  0  0  0
   15.4649   -1.4915   -2.0914 C   0  0  0  1  0  0  0  0  0  0  0  0
   14.6639   -1.0480   -2.6451 H   0  0  0  1  0  0  0  0  0  0  0  0
   16.3742   -0.9667   -2.2978 H   0  0  0  1  0  0  0  0  0  0  0  0
   15.2492   -1.4342   -1.0449 H   0  0  0  1  0  0  0  0  0  0  0  0
   19.2172   -5.4005   -0.4041 C   0  0  0  1  0  0  0  0  0  0  0  0
   18.5734   -6.2429   -0.5490 H   0  0  0  1  0  0  0  0  0  0  0  0
   18.5064   -4.1460   -0.8328 C   0  0  0  1  0  0  0  0  0  0  0  0
   19.1346   -3.3003   -0.6451 H   0  0  0  1  0  0  0  0  0  0  0  0
   20.3894   -5.5636   -1.1789 O   0  0  0  1  0  0  0  0  0  0  0  0
   18.1897   -4.2156   -2.2985 C   0  0  0  1  0  0  0  0  0  0  0  0
   17.8072   -3.2684   -2.6168 H   0  0  0  1  0  0  0  0  0  0  0  0
   20.0745   -5.7986   -2.5631 C   0  0  0  1  0  0  0  0  0  0  0  0
   20.9710   -6.0075   -3.1085 H   0  0  0  1  0  0  0  0  0  0  0  0
   19.4168   -4.5488   -3.1147 C   0  0  0  1  0  0  0  0  0  0  0  0
   19.1319   -4.7167   -4.1323 H   0  0  0  1  0  0  0  0  0  0  0  0
   17.2672   -4.0094   -0.0761 N   0  0  0  1  0  0  0  0  0  0  0  0
   16.8114   -4.8192    0.2351 H   0  0  0  1  0  0  0  0  0  0  0  0
   20.3399   -3.4587   -3.0511 O   0  0  0  1  0  0  0  0  0  0  0  0
   20.7914   -3.5339   -2.2072 H   0  0  0  1  0  0  0  0  0  0  0  0
   19.1336   -6.9630   -2.6804 C   0  0  0  1  0  0  0  0  0  0  0  0
   19.6969   -7.8707   -2.7410 H   0  0  0  1  0  0  0  0  0  0  0  0
   18.5389   -6.8521   -3.5629 H   0  0  0  1  0  0  0  0  0  0  0  0
   18.2829   -7.0091   -1.5389 O   0  0  0  1  0  0  0  0  0  0  0  0
   17.3771   -7.1024   -1.8431 H   0  0  0  1  0  0  0  0  0  0  0  0
   16.7319   -2.8186    0.2078 C   0  0  0  1  0  0  0  0  0  0  0  0
   17.2220   -1.7646   -0.1627 O   0  0  0  1  0  0  0  0  0  0  0  0
   15.4586   -2.8481    1.0306 C   0  0  0  1  0  0  0  0  0  0  0  0
   14.6735   -2.7518    0.3100 H   0  0  0  1  0  0  0  0  0  0  0  0
   15.4375   -2.0338    1.7245 H   0  0  0  1  0  0  0  0  0  0  0  0
   15.3729   -3.7727    1.5623 H   0  0  0  1  0  0  0  0  0  0  0  0
  1  2  1  0  0  0  0
  1  3  1  0  0  0  0
  1  4  1  0  0  0  0
  1 44  1  0  0  0  0
  3 20  1  0  0  0  0
  4  5  1  0  0  0  0
  4  6  1  0  0  0  0
  4  8  1  0  0  0  0
  6  7  1  0  0  0  0
  8  9  1  0  0  0  0
  8 10  1  0  0  0  0
  8 20  1  0  0  0  0
 10 11  1  0  0  0  0
 12 13  1  0  0  0  0
 12 14  1  0  0  0  0
 12 15  1  0  0  0  0
 12 17  1  0  0  0  0
 15 16  1  0  0  0  0
 17 18  1  0  0  0  0
 17 19  1  0  0  0  0
 17 20  1  0  0  0  0
 19 22  1  0  0  0  0
 20 21  1  0  0  0  0
 22 23  1  0  0  0  0
 22 24  1  0  0  0  0
 22 25  1  0  0  0  0
 24 42  1  0  0  0  0
 25 26  1  0  0  0  0
 25 27  1  0  0  0  0
 25 29  1  0  0  0  0
 27 28  1  0  0  0  0
 29 30  1  0  0  0  0
 29 31  1  0  0  0  0
 29 42  1  0  0  0  0
 31 32  1  0  0  0  0
 33 34  1  0  0  0  0
 33 35  1  0  0  0  0
 33 36  1  0  0  0  0
 33 38  1  0  0  0  0
 36 37  1  0  0  0  0
 38 39  1  0  0  0  0
 38 40  1  0  0  0  0
 38 42  1  0  0  0  0
 40 41  1  0  0  0  0
 42 43  1  0  0  0  0
 44194  1  0  0  0  0
 45 46  1  0  0  0  0
 45 54  1  0  0  0  0
 46 47  1  0  0  0  0
 46 48  1  0  0  0  0
 46 49  2  0  0  0  0
 47 50  1  0  0  0  0
 50 51  1  0  0  0  0
 50 52  1  0  0  0  0
 50 53  2  0  0  0  0
 51205  1  0  0  0  0
 54 55  1  0  0  0  0
 54 56  1  0  0  0  0
 54 57  1  0  0  0  0
 57 58  1  0  0  0  0
 57 59  2  0  0  0  0
 59 60  1  0  0  0  0
 59 64  1  0  0  0  0
 60 61  1  0  0  0  0
 60 62  1  0  0  0  0
 60 63  1  0  0  0  0
 64 65  1  0  0  0  0
 64 66  1  0  0  0  0
 64 67  1  0  0  0  0
 67 68  1  0  0  0  0
 67 69  1  0  0  0  0
 67 70  1  0  0  0  0
 70 71  1  0  0  0  0
 70 72  2  0  0  0  0
 72 73  1  0  0  0  0
 72 77  1  0  0  0  0
 73 74  1  0  0  0  0
 73 75  1  0  0  0  0
 73 76  1  0  0  0  0
 77 78  1  0  0  0  0
 77 79  1  0  0  0  0
 77 80  1  0  0  0  0
 80 81  1  0  0  0  0
 80 82  1  0  0  0  0
 80 83  1  0  0  0  0
 83 84  1  0  0  0  0
 83 85  2  0  0  0  0
 85 86  1  0  0  0  0
 85 89  1  0  0  0  0
 86 87  1  0  0  0  0
 86 88  1  0  0  0  0
 86 93  1  0  0  0  0
 89 90  1  0  0  0  0
 89 91  1  0  0  0  0
 89 92  1  0  0  0  0
 93 94  1  0  0  0  0
 93 95  1  0  0  0  0
 93 96  1  0  0  0  0
 96 97  1  0  0  0  0
 96 98  2  0  0  0  0
 98 99  1  0  0  0  0
 98102  1  0  0  0  0
 99100  1  0  0  0  0
 99101  1  0  0  0  0
 99106  1  0  0  0  0
102103  1  0  0  0  0
102104  1  0  0  0  0
102105  1  0  0  0  0
106107  1  0  0  0  0
106108  1  0  0  0  0
106109  1  0  0  0  0
109110  1  0  0  0  0
109111  2  0  0  0  0
111112  1  0  0  0  0
111115  1  0  0  0  0
112113  1  0  0  0  0
112114  1  0  0  0  0
112119  1  0  0  0  0
115116  1  0  0  0  0
115117  1  0  0  0  0
115118  1  0  0  0  0
119120  1  0  0  0  0
119121  1  0  0  0  0
119122  1  0  0  0  0
122123  1  0  0  0  0
122124  2  0  0  0  0
124125  1  0  0  0  0
124128  1  0  0  0  0
125126  1  0  0  0  0
125127  1  0  0  0  0
125132  1  0  0  0  0
128129  1  0  0  0  0
128130  1  0  0  0  0
128131  1  0  0  0  0
132133  1  0  0  0  0
132134  1  0  0  0  0
132135  1  0  0  0  0
135136  1  0  0  0  0
135137  2  0  0  0  0
137138  1  0  0  0  0
137141  1  0  0  0  0
138139  1  0  0  0  0
138140  1  0  0  0  0
138145  1  0  0  0  0
141142  1  0  0  0  0
141143  1  0  0  0  0
141144  1  0  0  0  0
145146  1  0  0  0  0
145147  1  0  0  0  0
145148  1  0  0  0  0
148149  1  0  0  0  0
148150  2  0  0  0  0
150151  1  0  0  0  0
150154  1  0  0  0  0
151152  1  0  0  0  0
151153  1  0  0  0  0
151158  1  0  0  0  0
154155  1  0  0  0  0
154156  1  0  0  0  0
154157  1  0  0  0  0
158159  1  0  0  0  0
158160  1  0  0  0  0
158161  1  0  0  0  0
161162  1  0  0  0  0
161163  2  0  0  0  0
163164  1  0  0  0  0
163167  1  0  0  0  0
164165  1  0  0  0  0
164166  1  0  0  0  0
164171  1  0  0  0  0
167168  1  0  0  0  0
167169  1  0  0  0  0
167170  1  0  0  0  0
171172  1  0  0  0  0
171173  1  0  0  0  0
171174  1  0  0  0  0
174175  1  0  0  0  0
174176  2  0  0  0  0
176177  1  0  0  0  0
176181  1  0  0  0  0
177178  1  0  0  0  0
177179  1  0  0  0  0
177180  1  0  0  0  0
181182  1  0  0  0  0
181183  1  0  0  0  0
181184  1  0  0  0  0
185186  1  0  0  0  0
185187  1  0  0  0  0
185189  1  0  0  0  0
185196  1  0  0  0  0
187188  1  0  0  0  0
187190  1  0  0  0  0
187197  1  0  0  0  0
189192  1  0  0  0  0
190191  1  0  0  0  0
190194  1  0  0  0  0
190199  1  0  0  0  0
192193  1  0  0  0  0
192194  1  0  0  0  0
192201  1  0  0  0  0
194195  1  0  0  0  0
196210  1  0  0  0  0
197198  1  0  0  0  0
199200  1  0  0  0  0
201202  1  0  0  0  0
201203  1  0  0  0  0
201204  1  0  0  0  0
205206  1  0  0  0  0
205207  1  0  0  0  0
205209  1  0  0  0  0
207208  1  0  0  0  0
207210  1  0  0  0  0
207216  1  0  0  0  0
209212  1  0  0  0  0
210211  1  0  0  0  0
210214  1  0  0  0  0
212213  1  0  0  0  0
212214  1  0  0  0  0
212220  1  0  0  0  0
214215  1  0  0  0  0
214218  1  0  0  0  0
216217  1  0  0  0  0
216225  1  0  0  0  0
218219  1  0  0  0  0
220221  1  0  0  0  0
220222  1  0  0  0  0
220223  1  0  0  0  0
223224  1  0  0  0  0
225226  2  0  0  0  0
225227  1  0  0  0  0
227228  1  0  0  0  0
227229  1  0  0  0  0
227230  1  0  0  0  0
M  BCL ATM C_TeTeTeTe H_S O_Te2Te2TeTe C_TeTeTeTe H_S O_Te2Te2TeTe H_S C_TeTeTeTe H_S O_Te2Te2TeTe H_S C_TeTeTeTe H_S H_S O_Te2Te2TeTe H_S C_TeTeTeTe H_S O_Te2Te2TeTe C_TeTeTeTe H_S C_TeTeTeTe H_S O_Te2Te2TeTe C_TeTeTeTe H_S O_Te2Te2TeTe H_S C_TeTeTeTe H_S O_Te2Te2TeTe H_S C_TeTeTeTe H_S H_S O_Te2Te2TeTe H_S C_TeTeTeTe H_S O_Te2Te2TeTe H_S C_TeTeTeTe H_S O_Te2Te2TeTe O_Tr2TrTrPi2 P_TeTeTeTePi O_Tr2TrTrPi2 O_Te2Te2TeTe O_Tr2Tr2TrPi P_TeTeTeTePi O_Tr2TrTrPi2 O_Te2Te2TeTe O_Tr2Tr2TrPi C_TeTeTeTe H_S H_S C_TrTrTrPi H_S C_TrTrTrPi C_TeTeTeTe H_S H_S H_S C_TeTeTeTe H_S H_S C_TeTeTeTe H_S H_S C_TrTrTrPi H_S C_TrTrTrPi C_TeTeTeTe H_S H_S H_S C_TeTeTeTe H_S H_S C_TeTeTeTe H_S H_S C_TrTrTrPi H_S C_TrTrTrPi C_TeTeTeTe H_S H_S C_TeTeTeTe H_S H_S H_S C_TeTeTeTe H_S H_S C_TrTrTrPi H_S C_TrTrTrPi C_TeTeTeTe H_S H_S C_TeTeTeTe H_S H_S H_S C_TeTeTeTe H_S H_S C_TrTrTrPi H_S C_TrTrTrPi C_TeTeTeTe H_S H_S C_TeTeTeTe H_S H_S H_S C_TeTeTeTe H_S H_S C_TrTrTrPi H_S C_TrTrTrPi C_TeTeTeTe H_S H_S C_TeTeTeTe H_S H_S H_S C_TeTeTeTe H_S H_S C_TrTrTrPi H_S C_TrTrTrPi C_TeTeTeTe H_S H_S C_TeTeTeTe H_S H_S H_S C_TeTeTeTe H_S H_S C_TrTrTrPi H_S C_TrTrTrPi C_TeTeTeTe H_S H_S C_TeTeTeTe H_S H_S H_S C_TeTeTeTe H_S H_S C_TrTrTrPi H_S C_TrTrTrPi C_TeTeTeTe H_S H_S C_TeTeTeTe H_S H_S H_S C_TeTeTeTe H_S H_S C_TrTrTrPi H_S C_TrTrTrPi C_TeTeTeTe H_S H_S H_S C_TeTeTeTe H_S H_S H_S C_TeTeTeTe H_S C_TeTeTeTe H_S O_Te2Te2TeTe C_TeTeTeTe H_S C_TeTeTeTe H_S C_TeTeTeTe H_S O_Te2Te2TeTe O_Te2Te2TeTe H_S O_Te2Te2TeTe H_S C_TeTeTeTe H_S H_S H_S C_TeTeTeTe H_S C_TeTeTeTe H_S O_Te2Te2TeTe C_TeTeTeTe H_S C_TeTeTeTe H_S C_TeTeTeTe H_S N_TrTrTrPi2 H_S O_Te2Te2TeTe H_S C_TeTeTeTe H_S H_S O_Te2Te2TeTe H_S C_TrTrTrPi O_Tr2Tr2TrPi C_TeTeTeTe H_S H_S H_S
M  BCL BND NonConjugatedSingleBond NonConjugatedSingleBondInRing NonConjugatedSingleBondInRing NonConjugatedSingleBond NonConjugatedSingleBondInRing NonConjugatedSingleBond NonConjugatedSingleBond NonConjugatedSingleBondInRing NonConjugatedSingleBond NonConjugatedSingleBond NonConjugatedSingleBond NonConjugatedSingleBondInRing NonConjugatedSingleBond NonConjugatedSingleBond NonConjugatedSingleBond NonConjugatedSingleBond NonConjugatedSingleBond NonConjugatedSingleBond NonConjugatedSingleBond NonConjugatedSingleBond NonConjugatedSingleBond NonConjugatedSingleBond NonConjugatedSingleBond NonConjugatedSingleBond NonConjugatedSingleBondInRing NonConjugatedSingleBondInRing NonConjugatedSingleBondInRing NonConjugatedSingleBond NonConjugatedSingleBond NonConjugatedSingleBondInRing NonConjugatedSingleBond NonConjugatedSingleBond NonConjugatedSingleBond NonConjugatedSingleBondInRing NonConjugatedSingleBond NonConjugatedSingleBond NonConjugatedSingleBond NonConjugatedSingleBond NonConjugatedSingleBond NonConjugatedSingleBond NonConjugatedSingleBond NonConjugatedSingleBond NonConjugatedSingleBond NonConjugatedSingleBond NonConjugatedSingleBond NonConjugatedSingleBond ConjugatedSingleBond NonConjugatedSingleBond ConjugatedSingleBond ConjugatedSingleBond ConjugatedDoubleBond ConjugatedSingleBond ConjugatedSingleBond ConjugatedSingleBond ConjugatedDoubleBond NonConjugatedSingleBond NonConjugatedSingleBond NonConjugatedSingleBond NonConjugatedSingleBond NonConjugatedSingleBond ConjugatedDoubleBond NonConjugatedSingleBond NonConjugatedSingleBond NonConjugatedSingleBond NonConjugatedSingleBond NonConjugatedSingleBond NonConjugatedSingleBond NonConjugatedSingleBond NonConjugatedSingleBond NonConjugatedSingleBond NonConjugatedSingleBond NonConjugatedSingleBond NonConjugatedSingleBond ConjugatedDoubleBond NonConjugatedSingleBond NonConjugatedSingleBond NonConjugatedSingleBond NonConjugatedSingleBond NonConjugatedSingleBond NonConjugatedSingleBond NonConjugatedSingleBond NonConjugatedSingleBond NonConjugatedSingleBond NonConjugatedSingleBond NonConjugatedSingleBond NonConjugatedSingleBond ConjugatedDoubleBond NonConjugatedSingleBond NonConjugatedSingleBond NonConjugatedSingleBond NonConjugatedSingleBond NonConjugatedSingleBond NonConjugatedSingleBond NonConjugatedSingleBond NonConjugatedSingleBond NonConjugatedSingleBond NonConjugatedSingleBond NonConjugatedSingleBond NonConjugatedSingleBond ConjugatedDoubleBond NonConjugatedSingleBond NonConjugatedSingleBond NonConjugatedSingleBond NonConjugatedSingleBond NonConjugatedSingleBond NonConjugatedSingleBond NonConjugatedSingleBond NonConjugatedSingleBond NonConjugatedSingleBond NonConjugatedSingleBond NonConjugatedSingleBond NonConjugatedSingleBond ConjugatedDoubleBond NonConjugatedSingleBond NonConjugatedSingleBond NonConjugatedSingleBond NonConjugatedSingleBond NonConjugatedSingleBond NonConjugatedSingleBond NonConjugatedSingleBond NonConjugatedSingleBond NonConjugatedSingleBond NonConjugatedSingleBond NonConjugatedSingleBond NonConjugatedSingleBond ConjugatedDoubleBond NonConjugatedSingleBond NonConjugatedSingleBond NonConjugatedSingleBond NonConjugatedSingleBond NonConjugatedSingleBond NonConjugatedSingleBond NonConjugatedSingleBond NonConjugatedSingleBond NonConjugatedSingleBond NonConjugatedSingleBond NonConjugatedSingleBond NonConjugatedSingleBond ConjugatedDoubleBond NonConjugatedSingleBond NonConjugatedSingleBond NonConjugatedSingleBond NonConjugatedSingleBond NonConjugatedSingleBond NonConjugatedSingleBond NonConjugatedSingleBond NonConjugatedSingleBond NonConjugatedSingleBond NonConjugatedSingleBond NonConjugatedSingleBond NonConjugatedSingleBond ConjugatedDoubleBond NonConjugatedSingleBond NonConjugatedSingleBond NonConjugatedSingleBond NonConjugatedSingleBond NonConjugatedSingleBond NonConjugatedSingleBond NonConjugatedSingleBond NonConjugatedSingleBond NonConjugatedSingleBond NonConjugatedSingleBond NonConjugatedSingleBond NonConjugatedSingleBond ConjugatedDoubleBond NonConjugatedSingleBond NonConjugatedSingleBond NonConjugatedSingleBond NonConjugatedSingleBond NonConjugatedSingleBond NonConjugatedSingleBond NonConjugatedSingleBond NonConjugatedSingleBond NonConjugatedSingleBond NonConjugatedSingleBond NonConjugatedSingleBond NonConjugatedSingleBond ConjugatedDoubleBond NonConjugatedSingleBond NonConjugatedSingleBond NonConjugatedSingleBond NonConjugatedSingleBond NonConjugatedSingleBond NonConjugatedSingleBond NonConjugatedSingleBond NonConjugatedSingleBond NonConjugatedSingleBond NonConjugatedSingleBondInRing NonConjugatedSingleBondInRing NonConjugatedSingleBond NonConjugatedSingleBond NonConjugatedSingleBondInRing NonConjugatedSingleBond NonConjugatedSingleBondInRing NonConjugatedSingleBond NonConjugatedSingleBondInRing NonConjugatedSingleBond NonConjugatedSingleBond NonConjugatedSingleBondInRing NonConjugatedSingleBond NonConjugatedSingleBond NonConjugatedSingleBond NonConjugatedSingleBond NonConjugatedSingleBond NonConjugatedSingleBond NonConjugatedSingleBond NonConjugatedSingleBond NonConjugatedSingleBond NonConjugatedSingleBondInRing NonConjugatedSingleBondInRing NonConjugatedSingleBond NonConjugatedSingleBondInRing NonConjugatedSingleBond NonConjugatedSingleBondInRing NonConjugatedSingleBond NonConjugatedSingleBondInRing NonConjugatedSingleBond NonConjugatedSingleBondInRing NonConjugatedSingleBond NonConjugatedSingleBond NonConjugatedSingleBond NonConjugatedSingleBond AmideSingleBond NonConjugatedSingleBond NonConjugatedSingleBond NonConjugatedSingleBond NonConjugatedSingleBond NonConjugatedSingleBond ConjugatedDoubleBond NonConjugatedSingleBond NonConjugatedSingleBond NonConjugatedSingleBond NonConjugatedSingleBond
M  BCL CHI   1   R   4   R   8   R  17   S  20   R  22   S  25   R  29   S  38   S  42   R  46   R  50   S 185   R 187   S 190   S 192   R 194   R 205   R 207   S 210   R 212   S 214   S
M  BCL DBI - - E E E E E E E E Z - -
M  END
> <ConfClashScore>
0.0215902 

> <ConfOneFourInteractionScore>
-0.966583 

> <ConfScore>
2.3357 

> <ConfScorePBest>
0.00572546 

> <ConfTolerance>
5.07228 

$$$$
L05.****
  PyMOL2.5          3D                             0

230233  0  0  0  0  0  0  0  0999 V2000
   13.7475   -2.4728   -0.9325 C   0  0  0  1  0  0  0  0  0  0  0  0
   14.3051   -1.6259   -1.2741 H   0  0  0  1  0  0  0  0  0  0  0  0
   14.5651   -3.3141   -0.0840 O   0  0  0  1  0  0  0  0  0  0  0  0
   12.6178   -2.0417   -0.0600 C   0  0  0  1  0  0  0  0  0  0  0  0
   11.8386   -2.7750   -0.0545 H   0  0  0  1  0  0  0  0  0  0  0  0
   12.0893   -0.7876   -0.4935 O   0  0  0  1  0  0  0  0  0  0  0  0
   12.7160   -0.3625   -1.0836 H   0  0  0  1  0  0  0  0  0  0  0  0
   13.2485   -1.9170    1.3043 C   0  0  0  1  0  0  0  0  0  0  0  0
   13.5062   -0.8986    1.5077 H   0  0  0  1  0  0  0  0  0  0  0  0
   12.3584   -2.3945    2.3143 O   0  0  0  1  0  0  0  0  0  0  0  0
   12.8651   -2.6895    3.0745 H   0  0  0  1  0  0  0  0  0  0  0  0
   15.7192   -1.5185    2.9996 C   0  0  0  1  0  0  0  0  0  0  0  0
   16.5770   -0.9088    3.1929 H   0  0  0  1  0  0  0  0  0  0  0  0
   14.8305   -0.9651    3.2206 H   0  0  0  1  0  0  0  0  0  0  0  0
   15.7697   -2.6785    3.8197 O   0  0  0  1  0  0  0  0  0  0  0  0
   16.5485   -3.1941    3.5979 H   0  0  0  1  0  0  0  0  0  0  0  0
   15.7091   -1.9273    1.5337 C   0  0  0  1  0  0  0  0  0  0  0  0
   16.5853   -2.5063    1.3288 H   0  0  0  1  0  0  0  0  0  0  0  0
   15.6595   -0.7881    0.6812 O   0  0  0  1  0  0  0  0  0  0  0  0
   14.4809   -2.7701    1.2414 C   0  0  0  1  0  0  0  0  0  0  0  0
   14.4128   -3.5625    1.9572 H   0  0  0  1  0  0  0  0  0  0  0  0
   16.2067    0.3829    1.2608 C   0  0  0  1  0  0  0  0  0  0  0  0
   15.6984    0.5987    2.1773 H   0  0  0  1  0  0  0  0  0  0  0  0
   17.6402    0.2255    1.4892 O   0  0  0  1  0  0  0  0  0  0  0  0
   16.1068    1.5500    0.3056 C   0  0  0  1  0  0  0  0  0  0  0  0
   16.0903    2.4786    0.8369 H   0  0  0  1  0  0  0  0  0  0  0  0
   14.9369    1.4451   -0.5079 O   0  0  0  1  0  0  0  0  0  0  0  0
   14.1737    1.2744    0.0488 H   0  0  0  1  0  0  0  0  0  0  0  0
   17.3785    1.4270   -0.5444 C   0  0  0  1  0  0  0  0  0  0  0  0
   17.7274    2.3888   -0.8576 H   0  0  0  1  0  0  0  0  0  0  0  0
   17.1546    0.6069   -1.6877 O   0  0  0  1  0  0  0  0  0  0  0  0
   17.0181    1.1624   -2.4587 H   0  0  0  1  0  0  0  0  0  0  0  0
   18.6326    3.0406    1.4761 C   0  0  0  1  0  0  0  0  0  0  0  0
   19.3475    3.7797    1.7720 H   0  0  0  1  0  0  0  0  0  0  0  0
   17.9943    3.4445    0.7182 H   0  0  0  1  0  0  0  0  0  0  0  0
   17.8592    2.6377    2.5972 O   0  0  0  1  0  0  0  0  0  0  0  0
   16.9465    2.5111    2.3281 H   0  0  0  1  0  0  0  0  0  0  0  0
   19.3506    1.8046    0.9473 C   0  0  0  1  0  0  0  0  0  0  0  0
   19.8752    1.3644    1.7695 H   0  0  0  1  0  0  0  0  0  0  0  0
   20.2972    2.1472   -0.0643 O   0  0  0  1  0  0  0  0  0  0  0  0
   20.0640    1.7055   -0.8841 H   0  0  0  1  0  0  0  0  0  0  0  0
   18.3713    0.7665    0.4252 C   0  0  0  1  0  0  0  0  0  0  0  0
   18.9085   -0.0100   -0.0782 H   0  0  0  1  0  0  0  0  0  0  0  0
   13.2653   -3.2069   -2.0520 O   0  0  0  1  0  0  0  0  0  0  0  0
   24.1350   -5.9075   -2.8631 O   0  0  0  1  0  0  0  0  0  0  0  0
   23.8193   -6.4044   -4.3514 P   0  0  0  1  0  0  0  0  0  0  0  0
   22.3416   -7.0018   -4.2186 O   0  0  0  1  0  0  0  0  0  0  0  0
   24.7395   -7.5136   -4.7022 O   0  0  0  0  0  0  0  0  0  0  0  0
   23.7279   -5.2043   -5.2088 O   0  0  0  1  0  0  0  0  0  0  0  0
   21.4472   -7.7368   -5.1895 P   0  0  0  1  0  0  0  0  0  0  0  0
   20.0036   -7.7869   -4.5653 O   0  0  0  1  0  0  0  0  0  0  0  0
   21.7907   -9.2157   -5.2730 O   0  0  0  0  0  0  0  0  0  0  0  0
   21.3010   -7.0731   -6.5358 O   0  0  0  1  0  0  0  0  0  0  0  0
   23.1980   -5.1637   -2.0679 C   0  0  0  1  0  0  0  0  0  0  0  0
   22.3746   -5.7960   -1.8089 H   0  0  0  1  0  0  0  0  0  0  0  0
   22.8421   -4.3270   -2.6321 H   0  0  0  1  0  0  0  0  0  0  0  0
   23.8570   -4.6704   -0.8134 C   0  0  0  1  0  0  0  0  0  0  0  0
   23.2497   -4.2350   -0.0901 H   0  0  0  1  0  0  0  0  0  0  0  0
   25.1575   -4.7483   -0.5580 C   0  0  0  1  0  0  0  0  0  0  0  0
   25.6940   -4.5422    0.8275 C   0  0  0  1  0  0  0  0  0  0  0  0
   24.8799   -4.4320    1.5130 H   0  0  0  1  0  0  0  0  0  0  0  0
   26.2990   -3.6598    0.8478 H   0  0  0  1  0  0  0  0  0  0  0  0
   26.2859   -5.3876    1.1099 H   0  0  0  1  0  0  0  0  0  0  0  0
   26.1989   -5.0421   -1.5972 C   0  0  0  1  0  0  0  0  0  0  0  0
   26.0544   -6.0415   -1.9512 H   0  0  0  1  0  0  0  0  0  0  0  0
   27.1648   -4.9598   -1.1442 H   0  0  0  1  0  0  0  0  0  0  0  0
   26.1392   -4.0949   -2.7845 C   0  0  0  1  0  0  0  0  0  0  0  0
   25.7311   -3.1620   -2.4558 H   0  0  0  1  0  0  0  0  0  0  0  0
   25.5000   -4.5218   -3.5289 H   0  0  0  1  0  0  0  0  0  0  0  0
   27.4878   -3.8371   -3.4016 C   0  0  0  1  0  0  0  0  0  0  0  0
   28.2404   -3.5226   -2.7564 H   0  0  0  1  0  0  0  0  0  0  0  0
   27.8212   -3.9679   -4.6825 C   0  0  0  1  0  0  0  0  0  0  0  0
   29.1093   -3.3493   -5.1781 C   0  0  0  1  0  0  0  0  0  0  0  0
   29.7816   -4.1226   -5.4862 H   0  0  0  1  0  0  0  0  0  0  0  0
   29.5575   -2.7802   -4.3906 H   0  0  0  1  0  0  0  0  0  0  0  0
   28.9001   -2.7073   -6.0082 H   0  0  0  1  0  0  0  0  0  0  0  0
   27.0184   -4.6953   -5.7277 C   0  0  0  1  0  0  0  0  0  0  0  0
   26.1718   -5.1466   -5.2539 H   0  0  0  1  0  0  0  0  0  0  0  0
   27.6332   -5.4565   -6.1607 H   0  0  0  1  0  0  0  0  0  0  0  0
   26.5224   -3.7840   -6.8385 C   0  0  0  1  0  0  0  0  0  0  0  0
   25.7955   -4.3158   -7.4162 H   0  0  0  1  0  0  0  0  0  0  0  0
   27.3525   -3.5234   -7.4613 H   0  0  0  1  0  0  0  0  0  0  0  0
   25.8956   -2.5233   -6.3273 C   0  0  0  1  0  0  0  0  0  0  0  0
   25.3516   -2.5807   -5.4427 H   0  0  0  1  0  0  0  0  0  0  0  0
   25.9831   -1.3321   -6.9221 C   0  0  0  1  0  0  0  0  0  0  0  0
   27.0004   -1.0725   -8.0009 C   0  0  0  1  0  0  0  0  0  0  0  0
   27.6508   -1.9196   -8.0667 H   0  0  0  1  0  0  0  0  0  0  0  0
   27.5682   -0.2063   -7.7322 H   0  0  0  1  0  0  0  0  0  0  0  0
   25.0698   -0.2018   -6.5391 C   0  0  0  1  0  0  0  0  0  0  0  0
   24.0813   -0.5793   -6.3806 H   0  0  0  1  0  0  0  0  0  0  0  0
   25.0524    0.5242   -7.3249 H   0  0  0  1  0  0  0  0  0  0  0  0
   25.4256    0.2546   -5.6390 H   0  0  0  1  0  0  0  0  0  0  0  0
   26.3740   -0.8362   -9.3655 C   0  0  0  1  0  0  0  0  0  0  0  0
   25.7286    0.0149   -9.3013 H   0  0  0  1  0  0  0  0  0  0  0  0
   25.8009   -1.6998   -9.6313 H   0  0  0  1  0  0  0  0  0  0  0  0
   27.3916   -0.5854  -10.4460 C   0  0  0  1  0  0  0  0  0  0  0  0
   28.0769   -1.3416  -10.6466 H   0  0  0  1  0  0  0  0  0  0  0  0
   27.4801    0.5349  -11.1655 C   0  0  0  1  0  0  0  0  0  0  0  0
   26.7721    1.7902  -10.7409 C   0  0  0  1  0  0  0  0  0  0  0  0
   26.0893    1.5465   -9.9539 H   0  0  0  1  0  0  0  0  0  0  0  0
   26.2289    2.1748  -11.5787 H   0  0  0  1  0  0  0  0  0  0  0  0
   28.2902    0.5861  -12.4277 C   0  0  0  1  0  0  0  0  0  0  0  0
   28.1945   -0.3420  -12.9515 H   0  0  0  1  0  0  0  0  0  0  0  0
   29.3187    0.7537  -12.1846 H   0  0  0  1  0  0  0  0  0  0  0  0
   27.9352    1.3831  -13.0470 H   0  0  0  1  0  0  0  0  0  0  0  0
   27.7199    2.8688  -10.2423 C   0  0  0  1  0  0  0  0  0  0  0  0
   28.3842    3.1330  -11.0385 H   0  0  0  1  0  0  0  0  0  0  0  0
   28.2837    2.4746   -9.4228 H   0  0  0  1  0  0  0  0  0  0  0  0
   27.0146    4.1001   -9.7844 C   0  0  0  1  0  0  0  0  0  0  0  0
   27.1571    4.9401  -10.3810 H   0  0  0  1  0  0  0  0  0  0  0  0
   26.2276    4.2840   -8.7227 C   0  0  0  1  0  0  0  0  0  0  0  0
   25.9313    3.1614   -7.7711 C   0  0  0  1  0  0  0  0  0  0  0  0
   26.7237    3.1194   -7.0533 H   0  0  0  1  0  0  0  0  0  0  0  0
   25.9088    2.2505   -8.3320 H   0  0  0  1  0  0  0  0  0  0  0  0
   25.6061    5.6221   -8.4368 C   0  0  0  1  0  0  0  0  0  0  0  0
   25.9269    6.3295   -9.1727 H   0  0  0  1  0  0  0  0  0  0  0  0
   25.9087    5.9555   -7.4661 H   0  0  0  1  0  0  0  0  0  0  0  0
   24.5402    5.5340   -8.4679 H   0  0  0  1  0  0  0  0  0  0  0  0
   24.6185    3.2785   -7.0141 C   0  0  0  1  0  0  0  0  0  0  0  0
   24.6167    4.2281   -6.5210 H   0  0  0  1  0  0  0  0  0  0  0  0
   24.5993    2.4968   -6.2836 H   0  0  0  1  0  0  0  0  0  0  0  0
   23.3453    3.1821   -7.8100 C   0  0  0  1  0  0  0  0  0  0  0  0
   23.1541    2.2880   -8.3056 H   0  0  0  1  0  0  0  0  0  0  0  0
   22.4470    4.1542   -7.9269 C   0  0  0  1  0  0  0  0  0  0  0  0
   22.4062    5.3656   -7.0342 C   0  0  0  1  0  0  0  0  0  0  0  0
   22.6167    6.2319   -7.6260 H   0  0  0  1  0  0  0  0  0  0  0  0
   23.1568    5.2578   -6.2793 H   0  0  0  1  0  0  0  0  0  0  0  0
   21.3811    4.1156   -8.9825 C   0  0  0  1  0  0  0  0  0  0  0  0
   20.4800    3.7166   -8.5658 H   0  0  0  1  0  0  0  0  0  0  0  0
   21.7041    3.4958   -9.7927 H   0  0  0  1  0  0  0  0  0  0  0  0
   21.1992    5.1070   -9.3417 H   0  0  0  1  0  0  0  0  0  0  0  0
   21.0606    5.5593   -6.3544 C   0  0  0  1  0  0  0  0  0  0  0  0
   20.8845    4.7276   -5.7046 H   0  0  0  1  0  0  0  0  0  0  0  0
   20.3005    5.5919   -7.1067 H   0  0  0  1  0  0  0  0  0  0  0  0
   20.9870    6.8171   -5.5483 C   0  0  0  1  0  0  0  0  0  0  0  0
   21.2799    6.7678   -4.5516 H   0  0  0  1  0  0  0  0  0  0  0  0
   20.5737    7.9977   -6.0127 C   0  0  0  1  0  0  0  0  0  0  0  0
   20.2260    8.1848   -7.4610 C   0  0  0  1  0  0  0  0  0  0  0  0
   20.4857    7.2867   -7.9814 H   0  0  0  1  0  0  0  0  0  0  0  0
   20.8103    8.9979   -7.8383 H   0  0  0  1  0  0  0  0  0  0  0  0
   20.4395    9.1877   -5.1046 C   0  0  0  1  0  0  0  0  0  0  0  0
   19.9828    9.9947   -5.6385 H   0  0  0  1  0  0  0  0  0  0  0  0
   21.4087    9.4881   -4.7653 H   0  0  0  1  0  0  0  0  0  0  0  0
   19.8314    8.9274   -4.2636 H   0  0  0  1  0  0  0  0  0  0  0  0
   18.7638    8.4861   -7.7463 C   0  0  0  1  0  0  0  0  0  0  0  0
   18.6552    8.6246   -8.8018 H   0  0  0  1  0  0  0  0  0  0  0  0
   18.5085    9.3930   -7.2390 H   0  0  0  1  0  0  0  0  0  0  0  0
   17.7906    7.4236   -7.3152 C   0  0  0  1  0  0  0  0  0  0  0  0
   17.8652    6.5042   -7.7955 H   0  0  0  1  0  0  0  0  0  0  0  0
   16.8466    7.5320   -6.3880 C   0  0  0  1  0  0  0  0  0  0  0  0
   16.4171    8.8729   -5.8633 C   0  0  0  1  0  0  0  0  0  0  0  0
   17.2051    9.5705   -6.0559 H   0  0  0  1  0  0  0  0  0  0  0  0
   16.2702    8.7825   -4.8073 H   0  0  0  1  0  0  0  0  0  0  0  0
   16.1287    6.3615   -5.7825 C   0  0  0  1  0  0  0  0  0  0  0  0
   15.0890    6.4131   -6.0303 H   0  0  0  1  0  0  0  0  0  0  0  0
   16.2432    6.3845   -4.7189 H   0  0  0  1  0  0  0  0  0  0  0  0
   16.5419    5.4524   -6.1667 H   0  0  0  1  0  0  0  0  0  0  0  0
   15.1390    9.4304   -6.4685 C   0  0  0  1  0  0  0  0  0  0  0  0
   14.3248    8.7942   -6.1905 H   0  0  0  1  0  0  0  0  0  0  0  0
   15.2406    9.4356   -7.5336 H   0  0  0  1  0  0  0  0  0  0  0  0
   14.8342   10.8174   -6.0140 C   0  0  0  1  0  0  0  0  0  0  0  0
   14.9719   10.9909   -4.9978 H   0  0  0  1  0  0  0  0  0  0  0  0
   14.4129   11.8637   -6.7143 C   0  0  0  1  0  0  0  0  0  0  0  0
   14.1611   13.1936   -6.0587 C   0  0  0  1  0  0  0  0  0  0  0  0
   14.3272   13.9735   -6.7721 H   0  0  0  1  0  0  0  0  0  0  0  0
   14.8350   13.3124   -5.2361 H   0  0  0  1  0  0  0  0  0  0  0  0
   14.1508   11.8322   -8.1916 C   0  0  0  1  0  0  0  0  0  0  0  0
   13.1788   12.2612   -8.3187 H   0  0  0  1  0  0  0  0  0  0  0  0
   14.1649   10.8250   -8.5524 H   0  0  0  1  0  0  0  0  0  0  0  0
   14.8851   12.4091   -8.7139 H   0  0  0  1  0  0  0  0  0  0  0  0
   12.7319   13.2809   -5.5486 C   0  0  0  1  0  0  0  0  0  0  0  0
   12.0834   13.1113   -6.3826 H   0  0  0  1  0  0  0  0  0  0  0  0
   12.5845   14.2737   -5.1776 H   0  0  0  1  0  0  0  0  0  0  0  0
   12.3226   12.3277   -4.4588 C   0  0  0  1  0  0  0  0  0  0  0  0
   13.0461   12.0506   -3.7651 H   0  0  0  1  0  0  0  0  0  0  0  0
   11.1009   11.8116   -4.3161 C   0  0  0  1  0  0  0  0  0  0  0  0
    9.9581   12.2920   -5.1928 C   0  0  0  1  0  0  0  0  0  0  0  0
    9.2359   12.8024   -4.5904 H   0  0  0  1  0  0  0  0  0  0  0  0
    9.4961   11.4520   -5.6681 H   0  0  0  1  0  0  0  0  0  0  0  0
   10.3369   12.9601   -5.9378 H   0  0  0  1  0  0  0  0  0  0  0  0
   10.8039   10.8363   -3.2452 C   0  0  0  1  0  0  0  0  0  0  0  0
   11.5242   10.9860   -2.4682 H   0  0  0  1  0  0  0  0  0  0  0  0
   10.8796    9.8396   -3.6270 H   0  0  0  1  0  0  0  0  0  0  0  0
    9.8170   10.9994   -2.8654 H   0  0  0  1  0  0  0  0  0  0  0  0
   16.0799   -5.1682   -1.8126 C   0  0  0  1  0  0  0  0  0  0  0  0
   16.3307   -5.7375   -0.9420 H   0  0  0  1  0  0  0  0  0  0  0  0
   14.7957   -5.7152   -2.4066 C   0  0  0  1  0  0  0  0  0  0  0  0
   14.9889   -6.6902   -2.8028 H   0  0  0  1  0  0  0  0  0  0  0  0
   15.9426   -3.8088   -1.4492 O   0  0  0  1  0  0  0  0  0  0  0  0
   14.2500   -4.8363   -3.5194 C   0  0  0  1  0  0  0  0  0  0  0  0
   13.2528   -5.1447   -3.7546 H   0  0  0  1  0  0  0  0  0  0  0  0
   15.6049   -2.9666   -2.5664 C   0  0  0  1  0  0  0  0  0  0  0  0
   16.3350   -3.0836   -3.3399 H   0  0  0  1  0  0  0  0  0  0  0  0
   14.2340   -3.3801   -3.0873 C   0  0  0  1  0  0  0  0  0  0  0  0
   13.9752   -2.7665   -3.9248 H   0  0  0  1  0  0  0  0  0  0  0  0
   17.1219   -5.2871   -2.7742 O   0  0  0  1  0  0  0  0  0  0  0  0
   13.8147   -5.8066   -1.3719 O   0  0  0  1  0  0  0  0  0  0  0  0
   14.2511   -5.8206   -0.5169 H   0  0  0  1  0  0  0  0  0  0  0  0
   15.0723   -4.9736   -4.6691 O   0  0  0  1  0  0  0  0  0  0  0  0
   15.7951   -5.5751   -4.4762 H   0  0  0  1  0  0  0  0  0  0  0  0
   15.5671   -1.5241   -2.1232 C   0  0  0  1  0  0  0  0  0  0  0  0
   15.5493   -1.4792   -1.0543 H   0  0  0  1  0  0  0  0  0  0  0  0
   14.6891   -1.0540   -2.5143 H   0  0  0  1  0  0  0  0  0  0  0  0
   16.4361   -1.0166   -2.4869 H   0  0  0  1  0  0  0  0  0  0  0  0
   19.3470   -6.5913   -4.1416 C   0  0  0  1  0  0  0  0  0  0  0  0
   18.4307   -6.4762   -4.6821 H   0  0  0  1  0  0  0  0  0  0  0  0
   19.0537   -6.6747   -2.6685 C   0  0  0  1  0  0  0  0  0  0  0  0
   19.9663   -6.8349   -2.1334 H   0  0  0  1  0  0  0  0  0  0  0  0
   20.1849   -5.4791   -4.3908 O   0  0  0  1  0  0  0  0  0  0  0  0
   18.4209   -5.3958   -2.2020 C   0  0  0  1  0  0  0  0  0  0  0  0
   18.3407   -5.4166   -1.1353 H   0  0  0  1  0  0  0  0  0  0  0  0
   19.5127   -4.2406   -4.0999 C   0  0  0  1  0  0  0  0  0  0  0  0
   20.1338   -3.4161   -4.3813 H   0  0  0  1  0  0  0  0  0  0  0  0
   19.2390   -4.1927   -2.6094 C   0  0  0  1  0  0  0  0  0  0  0  0
   18.6980   -3.2995   -2.3759 H   0  0  0  1  0  0  0  0  0  0  0  0
   18.1365   -7.7912   -2.4175 N   0  0  0  1  0  0  0  0  0  0  0  0
   18.0266   -8.4561   -3.1291 H   0  0  0  1  0  0  0  0  0  0  0  0
   20.4742   -4.1990   -1.9014 O   0  0  0  1  0  0  0  0  0  0  0  0
   20.9351   -4.9984   -2.1662 H   0  0  0  1  0  0  0  0  0  0  0  0
   18.2176   -4.1742   -4.8576 C   0  0  0  1  0  0  0  0  0  0  0  0
   18.3472   -4.5809   -5.8388 H   0  0  0  1  0  0  0  0  0  0  0  0
   17.8899   -3.1583   -4.9325 H   0  0  0  1  0  0  0  0  0  0  0  0
   17.2596   -4.9421   -4.1356 O   0  0  0  1  0  0  0  0  0  0  0  0
   17.4110   -5.8701   -4.3294 H   0  0  0  1  0  0  0  0  0  0  0  0
   17.4336   -7.9717   -1.2824 C   0  0  0  1  0  0  0  0  0  0  0  0
   17.4922   -7.2375   -0.2996 O   0  0  0  1  0  0  0  0  0  0  0  0
   16.5335   -9.1917   -1.3104 C   0  0  0  1  0  0  0  0  0  0  0  0
   16.4579   -9.4905   -0.2858 H   0  0  0  1  0  0  0  0  0  0  0  0
   16.9699   -9.9704   -1.9005 H   0  0  0  1  0  0  0  0  0  0  0  0
   15.5703   -8.9424   -1.7040 H   0  0  0  1  0  0  0  0  0  0  0  0
  1  2  1  0  0  0  0
  1  3  1  0  0  0  0
  1  4  1  0  0  0  0
  1 44  1  0  0  0  0
  3 20  1  0  0  0  0
  4  5  1  0  0  0  0
  4  6  1  0  0  0  0
  4  8  1  0  0  0  0
  6  7  1  0  0  0  0
  8  9  1  0  0  0  0
  8 10  1  0  0  0  0
  8 20  1  0  0  0  0
 10 11  1  0  0  0  0
 12 13  1  0  0  0  0
 12 14  1  0  0  0  0
 12 15  1  0  0  0  0
 12 17  1  0  0  0  0
 15 16  1  0  0  0  0
 17 18  1  0  0  0  0
 17 19  1  0  0  0  0
 17 20  1  0  0  0  0
 19 22  1  0  0  0  0
 20 21  1  0  0  0  0
 22 23  1  0  0  0  0
 22 24  1  0  0  0  0
 22 25  1  0  0  0  0
 24 42  1  0  0  0  0
 25 26  1  0  0  0  0
 25 27  1  0  0  0  0
 25 29  1  0  0  0  0
 27 28  1  0  0  0  0
 29 30  1  0  0  0  0
 29 31  1  0  0  0  0
 29 42  1  0  0  0  0
 31 32  1  0  0  0  0
 33 34  1  0  0  0  0
 33 35  1  0  0  0  0
 33 36  1  0  0  0  0
 33 38  1  0  0  0  0
 36 37  1  0  0  0  0
 38 39  1  0  0  0  0
 38 40  1  0  0  0  0
 38 42  1  0  0  0  0
 40 41  1  0  0  0  0
 42 43  1  0  0  0  0
 44194  1  0  0  0  0
 45 46  1  0  0  0  0
 45 54  1  0  0  0  0
 46 47  1  0  0  0  0
 46 48  1  0  0  0  0
 46 49  2  0  0  0  0
 47 50  1  0  0  0  0
 50 51  1  0  0  0  0
 50 52  1  0  0  0  0
 50 53  2  0  0  0  0
 51205  1  0  0  0  0
 54 55  1  0  0  0  0
 54 56  1  0  0  0  0
 54 57  1  0  0  0  0
 57 58  1  0  0  0  0
 57 59  2  0  0  0  0
 59 60  1  0  0  0  0
 59 64  1  0  0  0  0
 60 61  1  0  0  0  0
 60 62  1  0  0  0  0
 60 63  1  0  0  0  0
 64 65  1  0  0  0  0
 64 66  1  0  0  0  0
 64 67  1  0  0  0  0
 67 68  1  0  0  0  0
 67 69  1  0  0  0  0
 67 70  1  0  0  0  0
 70 71  1  0  0  0  0
 70 72  2  0  0  0  0
 72 73  1  0  0  0  0
 72 77  1  0  0  0  0
 73 74  1  0  0  0  0
 73 75  1  0  0  0  0
 73 76  1  0  0  0  0
 77 78  1  0  0  0  0
 77 79  1  0  0  0  0
 77 80  1  0  0  0  0
 80 81  1  0  0  0  0
 80 82  1  0  0  0  0
 80 83  1  0  0  0  0
 83 84  1  0  0  0  0
 83 85  2  0  0  0  0
 85 86  1  0  0  0  0
 85 89  1  0  0  0  0
 86 87  1  0  0  0  0
 86 88  1  0  0  0  0
 86 93  1  0  0  0  0
 89 90  1  0  0  0  0
 89 91  1  0  0  0  0
 89 92  1  0  0  0  0
 93 94  1  0  0  0  0
 93 95  1  0  0  0  0
 93 96  1  0  0  0  0
 96 97  1  0  0  0  0
 96 98  2  0  0  0  0
 98 99  1  0  0  0  0
 98102  1  0  0  0  0
 99100  1  0  0  0  0
 99101  1  0  0  0  0
 99106  1  0  0  0  0
102103  1  0  0  0  0
102104  1  0  0  0  0
102105  1  0  0  0  0
106107  1  0  0  0  0
106108  1  0  0  0  0
106109  1  0  0  0  0
109110  1  0  0  0  0
109111  2  0  0  0  0
111112  1  0  0  0  0
111115  1  0  0  0  0
112113  1  0  0  0  0
112114  1  0  0  0  0
112119  1  0  0  0  0
115116  1  0  0  0  0
115117  1  0  0  0  0
115118  1  0  0  0  0
119120  1  0  0  0  0
119121  1  0  0  0  0
119122  1  0  0  0  0
122123  1  0  0  0  0
122124  2  0  0  0  0
124125  1  0  0  0  0
124128  1  0  0  0  0
125126  1  0  0  0  0
125127  1  0  0  0  0
125132  1  0  0  0  0
128129  1  0  0  0  0
128130  1  0  0  0  0
128131  1  0  0  0  0
132133  1  0  0  0  0
132134  1  0  0  0  0
132135  1  0  0  0  0
135136  1  0  0  0  0
135137  2  0  0  0  0
137138  1  0  0  0  0
137141  1  0  0  0  0
138139  1  0  0  0  0
138140  1  0  0  0  0
138145  1  0  0  0  0
141142  1  0  0  0  0
141143  1  0  0  0  0
141144  1  0  0  0  0
145146  1  0  0  0  0
145147  1  0  0  0  0
145148  1  0  0  0  0
148149  1  0  0  0  0
148150  2  0  0  0  0
150151  1  0  0  0  0
150154  1  0  0  0  0
151152  1  0  0  0  0
151153  1  0  0  0  0
151158  1  0  0  0  0
154155  1  0  0  0  0
154156  1  0  0  0  0
154157  1  0  0  0  0
158159  1  0  0  0  0
158160  1  0  0  0  0
158161  1  0  0  0  0
161162  1  0  0  0  0
161163  2  0  0  0  0
163164  1  0  0  0  0
163167  1  0  0  0  0
164165  1  0  0  0  0
164166  1  0  0  0  0
164171  1  0  0  0  0
167168  1  0  0  0  0
167169  1  0  0  0  0
167170  1  0  0  0  0
171172  1  0  0  0  0
171173  1  0  0  0  0
171174  1  0  0  0  0
174175  1  0  0  0  0
174176  2  0  0  0  0
176177  1  0  0  0  0
176181  1  0  0  0  0
177178  1  0  0  0  0
177179  1  0  0  0  0
177180  1  0  0  0  0
181182  1  0  0  0  0
181183  1  0  0  0  0
181184  1  0  0  0  0
185186  1  0  0  0  0
185187  1  0  0  0  0
185189  1  0  0  0  0
185196  1  0  0  0  0
187188  1  0  0  0  0
187190  1  0  0  0  0
187197  1  0  0  0  0
189192  1  0  0  0  0
190191  1  0  0  0  0
190194  1  0  0  0  0
190199  1  0  0  0  0
192193  1  0  0  0  0
192194  1  0  0  0  0
192201  1  0  0  0  0
194195  1  0  0  0  0
196210  1  0  0  0  0
197198  1  0  0  0  0
199200  1  0  0  0  0
201202  1  0  0  0  0
201203  1  0  0  0  0
201204  1  0  0  0  0
205206  1  0  0  0  0
205207  1  0  0  0  0
205209  1  0  0  0  0
207208  1  0  0  0  0
207210  1  0  0  0  0
207216  1  0  0  0  0
209212  1  0  0  0  0
210211  1  0  0  0  0
210214  1  0  0  0  0
212213  1  0  0  0  0
212214  1  0  0  0  0
212220  1  0  0  0  0
214215  1  0  0  0  0
214218  1  0  0  0  0
216217  1  0  0  0  0
216225  1  0  0  0  0
218219  1  0  0  0  0
220221  1  0  0  0  0
220222  1  0  0  0  0
220223  1  0  0  0  0
223224  1  0  0  0  0
225226  2  0  0  0  0
225227  1  0  0  0  0
227228  1  0  0  0  0
227229  1  0  0  0  0
227230  1  0  0  0  0
M  BCL ATM C_TeTeTeTe H_S O_Te2Te2TeTe C_TeTeTeTe H_S O_Te2Te2TeTe H_S C_TeTeTeTe H_S O_Te2Te2TeTe H_S C_TeTeTeTe H_S H_S O_Te2Te2TeTe H_S C_TeTeTeTe H_S O_Te2Te2TeTe C_TeTeTeTe H_S C_TeTeTeTe H_S O_Te2Te2TeTe C_TeTeTeTe H_S O_Te2Te2TeTe H_S C_TeTeTeTe H_S O_Te2Te2TeTe H_S C_TeTeTeTe H_S H_S O_Te2Te2TeTe H_S C_TeTeTeTe H_S O_Te2Te2TeTe H_S C_TeTeTeTe H_S O_Te2Te2TeTe O_Tr2TrTrPi2 P_TeTeTeTePi O_Tr2TrTrPi2 O_Te2Te2TeTe O_Tr2Tr2TrPi P_TeTeTeTePi O_Tr2TrTrPi2 O_Te2Te2TeTe O_Tr2Tr2TrPi C_TeTeTeTe H_S H_S C_TrTrTrPi H_S C_TrTrTrPi C_TeTeTeTe H_S H_S H_S C_TeTeTeTe H_S H_S C_TeTeTeTe H_S H_S C_TrTrTrPi H_S C_TrTrTrPi C_TeTeTeTe H_S H_S H_S C_TeTeTeTe H_S H_S C_TeTeTeTe H_S H_S C_TrTrTrPi H_S C_TrTrTrPi C_TeTeTeTe H_S H_S C_TeTeTeTe H_S H_S H_S C_TeTeTeTe H_S H_S C_TrTrTrPi H_S C_TrTrTrPi C_TeTeTeTe H_S H_S C_TeTeTeTe H_S H_S H_S C_TeTeTeTe H_S H_S C_TrTrTrPi H_S C_TrTrTrPi C_TeTeTeTe H_S H_S C_TeTeTeTe H_S H_S H_S C_TeTeTeTe H_S H_S C_TrTrTrPi H_S C_TrTrTrPi C_TeTeTeTe H_S H_S C_TeTeTeTe H_S H_S H_S C_TeTeTeTe H_S H_S C_TrTrTrPi H_S C_TrTrTrPi C_TeTeTeTe H_S H_S C_TeTeTeTe H_S H_S H_S C_TeTeTeTe H_S H_S C_TrTrTrPi H_S C_TrTrTrPi C_TeTeTeTe H_S H_S C_TeTeTeTe H_S H_S H_S C_TeTeTeTe H_S H_S C_TrTrTrPi H_S C_TrTrTrPi C_TeTeTeTe H_S H_S C_TeTeTeTe H_S H_S H_S C_TeTeTeTe H_S H_S C_TrTrTrPi H_S C_TrTrTrPi C_TeTeTeTe H_S H_S H_S C_TeTeTeTe H_S H_S H_S C_TeTeTeTe H_S C_TeTeTeTe H_S O_Te2Te2TeTe C_TeTeTeTe H_S C_TeTeTeTe H_S C_TeTeTeTe H_S O_Te2Te2TeTe O_Te2Te2TeTe H_S O_Te2Te2TeTe H_S C_TeTeTeTe H_S H_S H_S C_TeTeTeTe H_S C_TeTeTeTe H_S O_Te2Te2TeTe C_TeTeTeTe H_S C_TeTeTeTe H_S C_TeTeTeTe H_S N_TrTrTrPi2 H_S O_Te2Te2TeTe H_S C_TeTeTeTe H_S H_S O_Te2Te2TeTe H_S C_TrTrTrPi O_Tr2Tr2TrPi C_TeTeTeTe H_S H_S H_S
M  BCL BND NonConjugatedSingleBond NonConjugatedSingleBondInRing NonConjugatedSingleBondInRing NonConjugatedSingleBond NonConjugatedSingleBondInRing NonConjugatedSingleBond NonConjugatedSingleBond NonConjugatedSingleBondInRing NonConjugatedSingleBond NonConjugatedSingleBond NonConjugatedSingleBond NonConjugatedSingleBondInRing NonConjugatedSingleBond NonConjugatedSingleBond NonConjugatedSingleBond NonConjugatedSingleBond NonConjugatedSingleBond NonConjugatedSingleBond NonConjugatedSingleBond NonConjugatedSingleBond NonConjugatedSingleBond NonConjugatedSingleBond NonConjugatedSingleBond NonConjugatedSingleBond NonConjugatedSingleBondInRing NonConjugatedSingleBondInRing NonConjugatedSingleBondInRing NonConjugatedSingleBond NonConjugatedSingleBond NonConjugatedSingleBondInRing NonConjugatedSingleBond NonConjugatedSingleBond NonConjugatedSingleBond NonConjugatedSingleBondInRing NonConjugatedSingleBond NonConjugatedSingleBond NonConjugatedSingleBond NonConjugatedSingleBond NonConjugatedSingleBond NonConjugatedSingleBond NonConjugatedSingleBond NonConjugatedSingleBond NonConjugatedSingleBond NonConjugatedSingleBond NonConjugatedSingleBond NonConjugatedSingleBond ConjugatedSingleBond NonConjugatedSingleBond ConjugatedSingleBond ConjugatedSingleBond ConjugatedDoubleBond ConjugatedSingleBond ConjugatedSingleBond ConjugatedSingleBond ConjugatedDoubleBond NonConjugatedSingleBond NonConjugatedSingleBond NonConjugatedSingleBond NonConjugatedSingleBond NonConjugatedSingleBond ConjugatedDoubleBond NonConjugatedSingleBond NonConjugatedSingleBond NonConjugatedSingleBond NonConjugatedSingleBond NonConjugatedSingleBond NonConjugatedSingleBond NonConjugatedSingleBond NonConjugatedSingleBond NonConjugatedSingleBond NonConjugatedSingleBond NonConjugatedSingleBond NonConjugatedSingleBond ConjugatedDoubleBond NonConjugatedSingleBond NonConjugatedSingleBond NonConjugatedSingleBond NonConjugatedSingleBond NonConjugatedSingleBond NonConjugatedSingleBond NonConjugatedSingleBond NonConjugatedSingleBond NonConjugatedSingleBond NonConjugatedSingleBond NonConjugatedSingleBond NonConjugatedSingleBond ConjugatedDoubleBond NonConjugatedSingleBond NonConjugatedSingleBond NonConjugatedSingleBond NonConjugatedSingleBond NonConjugatedSingleBond NonConjugatedSingleBond NonConjugatedSingleBond NonConjugatedSingleBond NonConjugatedSingleBond NonConjugatedSingleBond NonConjugatedSingleBond NonConjugatedSingleBond ConjugatedDoubleBond NonConjugatedSingleBond NonConjugatedSingleBond NonConjugatedSingleBond NonConjugatedSingleBond NonConjugatedSingleBond NonConjugatedSingleBond NonConjugatedSingleBond NonConjugatedSingleBond NonConjugatedSingleBond NonConjugatedSingleBond NonConjugatedSingleBond NonConjugatedSingleBond ConjugatedDoubleBond NonConjugatedSingleBond NonConjugatedSingleBond NonConjugatedSingleBond NonConjugatedSingleBond NonConjugatedSingleBond NonConjugatedSingleBond NonConjugatedSingleBond NonConjugatedSingleBond NonConjugatedSingleBond NonConjugatedSingleBond NonConjugatedSingleBond NonConjugatedSingleBond ConjugatedDoubleBond NonConjugatedSingleBond NonConjugatedSingleBond NonConjugatedSingleBond NonConjugatedSingleBond NonConjugatedSingleBond NonConjugatedSingleBond NonConjugatedSingleBond NonConjugatedSingleBond NonConjugatedSingleBond NonConjugatedSingleBond NonConjugatedSingleBond NonConjugatedSingleBond ConjugatedDoubleBond NonConjugatedSingleBond NonConjugatedSingleBond NonConjugatedSingleBond NonConjugatedSingleBond NonConjugatedSingleBond NonConjugatedSingleBond NonConjugatedSingleBond NonConjugatedSingleBond NonConjugatedSingleBond NonConjugatedSingleBond NonConjugatedSingleBond NonConjugatedSingleBond ConjugatedDoubleBond NonConjugatedSingleBond NonConjugatedSingleBond NonConjugatedSingleBond NonConjugatedSingleBond NonConjugatedSingleBond NonConjugatedSingleBond NonConjugatedSingleBond NonConjugatedSingleBond NonConjugatedSingleBond NonConjugatedSingleBond NonConjugatedSingleBond NonConjugatedSingleBond ConjugatedDoubleBond NonConjugatedSingleBond NonConjugatedSingleBond NonConjugatedSingleBond NonConjugatedSingleBond NonConjugatedSingleBond NonConjugatedSingleBond NonConjugatedSingleBond NonConjugatedSingleBond NonConjugatedSingleBond NonConjugatedSingleBond NonConjugatedSingleBond NonConjugatedSingleBond ConjugatedDoubleBond NonConjugatedSingleBond NonConjugatedSingleBond NonConjugatedSingleBond NonConjugatedSingleBond NonConjugatedSingleBond NonConjugatedSingleBond NonConjugatedSingleBond NonConjugatedSingleBond NonConjugatedSingleBond NonConjugatedSingleBondInRing NonConjugatedSingleBondInRing NonConjugatedSingleBond NonConjugatedSingleBond NonConjugatedSingleBondInRing NonConjugatedSingleBond NonConjugatedSingleBondInRing NonConjugatedSingleBond NonConjugatedSingleBondInRing NonConjugatedSingleBond NonConjugatedSingleBond NonConjugatedSingleBondInRing NonConjugatedSingleBond NonConjugatedSingleBond NonConjugatedSingleBond NonConjugatedSingleBond NonConjugatedSingleBond NonConjugatedSingleBond NonConjugatedSingleBond NonConjugatedSingleBond NonConjugatedSingleBond NonConjugatedSingleBondInRing NonConjugatedSingleBondInRing NonConjugatedSingleBond NonConjugatedSingleBondInRing NonConjugatedSingleBond NonConjugatedSingleBondInRing NonConjugatedSingleBond NonConjugatedSingleBondInRing NonConjugatedSingleBond NonConjugatedSingleBondInRing NonConjugatedSingleBond NonConjugatedSingleBond NonConjugatedSingleBond NonConjugatedSingleBond AmideSingleBond NonConjugatedSingleBond NonConjugatedSingleBond NonConjugatedSingleBond NonConjugatedSingleBond NonConjugatedSingleBond ConjugatedDoubleBond NonConjugatedSingleBond NonConjugatedSingleBond NonConjugatedSingleBond NonConjugatedSingleBond
M  BCL CHI   1   R   4   R   8   R  17   S  20   R  22   S  25   R  29   S  38   S  42   R  46   R  50   S 185   R 187   S 190   S 192   R 194   R 205   R 207   S 210   R 212   S 214   S
M  BCL DBI - - E E E E E E E E Z - -
M  END
> <ConfClashScore>
0.0227177 

> <ConfOneFourInteractionScore>
-0.959391 

> <ConfScore>
2.39402 

> <ConfScorePBest>
0.00562246 

> <ConfTolerance>
4.4909 

$$$$
L05.****
  PyMOL2.5          3D                             0

230233  0  0  0  0  0  0  0  0999 V2000
   12.3634   -2.2468   -3.3370 C   0  0  0  1  0  0  0  0  0  0  0  0
   12.1942   -2.6324   -4.3207 H   0  0  0  1  0  0  0  0  0  0  0  0
   12.8958   -0.9406   -3.4041 O   0  0  0  1  0  0  0  0  0  0  0  0
   11.0504   -2.1122   -2.5873 C   0  0  0  1  0  0  0  0  0  0  0  0
   10.8072   -3.0152   -2.0673 H   0  0  0  1  0  0  0  0  0  0  0  0
    9.9828   -1.7692   -3.4721 O   0  0  0  1  0  0  0  0  0  0  0  0
    9.3179   -1.2690   -2.9932 H   0  0  0  1  0  0  0  0  0  0  0  0
   11.3426   -0.9903   -1.6245 C   0  0  0  1  0  0  0  0  0  0  0  0
   10.4431   -0.5103   -1.2998 H   0  0  0  1  0  0  0  0  0  0  0  0
   12.0717   -1.4556   -0.4877 O   0  0  0  1  0  0  0  0  0  0  0  0
   11.8570   -0.9133    0.2747 H   0  0  0  1  0  0  0  0  0  0  0  0
   11.5482    0.8686   -4.7565 C   0  0  0  1  0  0  0  0  0  0  0  0
   10.7504    1.3844   -5.2488 H   0  0  0  1  0  0  0  0  0  0  0  0
   12.4755    1.3575   -4.9708 H   0  0  0  1  0  0  0  0  0  0  0  0
   11.6079   -0.4639   -5.2561 O   0  0  0  1  0  0  0  0  0  0  0  0
   12.4671   -0.6182   -5.6555 H   0  0  0  1  0  0  0  0  0  0  0  0
   11.3070    0.9159   -3.2555 C   0  0  0  1  0  0  0  0  0  0  0  0
   10.2835    0.6670   -3.0670 H   0  0  0  1  0  0  0  0  0  0  0  0
   11.5652    2.2515   -2.8383 O   0  0  0  1  0  0  0  0  0  0  0  0
   12.1915   -0.0585   -2.4883 C   0  0  0  1  0  0  0  0  0  0  0  0
   12.8847    0.4883   -1.8838 H   0  0  0  1  0  0  0  0  0  0  0  0
   10.5359    3.1529   -3.1562 C   0  0  0  1  0  0  0  0  0  0  0  0
    9.7636    2.6393   -3.6898 H   0  0  0  1  0  0  0  0  0  0  0  0
   10.0101    3.7537   -1.9674 O   0  0  0  1  0  0  0  0  0  0  0  0
   11.0761    4.3082   -3.9823 C   0  0  0  1  0  0  0  0  0  0  0  0
   10.2997    4.7795   -4.5479 H   0  0  0  1  0  0  0  0  0  0  0  0
   12.1143    3.8765   -4.8646 O   0  0  0  1  0  0  0  0  0  0  0  0
   11.8300    3.0878   -5.3323 H   0  0  0  1  0  0  0  0  0  0  0  0
   11.6150    5.2333   -2.9042 C   0  0  0  1  0  0  0  0  0  0  0  0
   11.6250    6.2497   -3.2383 H   0  0  0  1  0  0  0  0  0  0  0  0
   12.9192    4.8526   -2.5118 O   0  0  0  1  0  0  0  0  0  0  0  0
   13.4320    5.6363   -2.3012 H   0  0  0  1  0  0  0  0  0  0  0  0
   10.1477    7.5423   -1.6528 C   0  0  0  1  0  0  0  0  0  0  0  0
   10.7621    7.7705   -2.4986 H   0  0  0  1  0  0  0  0  0  0  0  0
    9.3456    8.2479   -1.5932 H   0  0  0  1  0  0  0  0  0  0  0  0
   10.9288    7.6143   -0.4687 O   0  0  0  1  0  0  0  0  0  0  0  0
   10.6106    8.3336    0.0818 H   0  0  0  1  0  0  0  0  0  0  0  0
    9.5741    6.1320   -1.8067 C   0  0  0  1  0  0  0  0  0  0  0  0
    9.0784    6.0861   -2.7538 H   0  0  0  1  0  0  0  0  0  0  0  0
    8.6040    6.0056   -0.7704 O   0  0  0  1  0  0  0  0  0  0  0  0
    8.1514    6.8438   -0.6512 H   0  0  0  1  0  0  0  0  0  0  0  0
   10.6257    5.0405   -1.7714 C   0  0  0  1  0  0  0  0  0  0  0  0
   11.1347    5.0651   -0.8306 H   0  0  0  1  0  0  0  0  0  0  0  0
   13.2505   -3.1096   -2.6347 O   0  0  0  1  0  0  0  0  0  0  0  0
   19.2004   -4.1347   -9.2827 O   0  0  0  1  0  0  0  0  0  0  0  0
   20.4513   -4.5625   -8.4211 P   0  0  0  1  0  0  0  0  0  0  0  0
   20.0799   -4.2402   -6.8917 O   0  0  0  1  0  0  0  0  0  0  0  0
   21.6337   -3.8644   -8.9738 O   0  0  0  0  0  0  0  0  0  0  0  0
   20.6332   -6.0411   -8.4618 O   0  0  0  1  0  0  0  0  0  0  0  0
   20.8455   -4.5146   -5.5115 P   0  0  0  1  0  0  0  0  0  0  0  0
   20.1844   -5.8645   -5.0574 O   0  0  0  1  0  0  0  0  0  0  0  0
   20.5281   -3.4184   -4.5671 O   0  0  0  0  0  0  0  0  0  0  0  0
   22.2500   -4.8100   -5.7975 O   0  0  0  1  0  0  0  0  0  0  0  0
   18.7008   -2.7889   -9.2376 C   0  0  0  1  0  0  0  0  0  0  0  0
   18.4985   -2.5290   -8.2195 H   0  0  0  1  0  0  0  0  0  0  0  0
   17.7958   -2.7367   -9.8061 H   0  0  0  1  0  0  0  0  0  0  0  0
   19.6852   -1.8085   -9.8018 C   0  0  0  1  0  0  0  0  0  0  0  0
   20.6067   -1.7494   -9.3234 H   0  0  0  1  0  0  0  0  0  0  0  0
   19.5079   -1.0078  -10.8459 C   0  0  0  1  0  0  0  0  0  0  0  0
   20.4300    0.1490  -11.1089 C   0  0  0  1  0  0  0  0  0  0  0  0
   20.8555    0.0516  -12.0858 H   0  0  0  1  0  0  0  0  0  0  0  0
   21.2120    0.1546  -10.3785 H   0  0  0  1  0  0  0  0  0  0  0  0
   19.8793    1.0644  -11.0496 H   0  0  0  1  0  0  0  0  0  0  0  0
   18.3986   -1.1679  -11.8470 C   0  0  0  1  0  0  0  0  0  0  0  0
   17.8226   -2.0298  -11.5822 H   0  0  0  1  0  0  0  0  0  0  0  0
   18.8315   -1.3111  -12.8150 H   0  0  0  1  0  0  0  0  0  0  0  0
   17.4709    0.0348  -11.9051 C   0  0  0  1  0  0  0  0  0  0  0  0
   18.0516    0.9018  -12.1414 H   0  0  0  1  0  0  0  0  0  0  0  0
   17.0157    0.1605  -10.9450 H   0  0  0  1  0  0  0  0  0  0  0  0
   16.3842   -0.1087  -12.9349 C   0  0  0  1  0  0  0  0  0  0  0  0
   16.6925   -0.2217  -13.9217 H   0  0  0  1  0  0  0  0  0  0  0  0
   15.0739   -0.1066  -12.7209 C   0  0  0  1  0  0  0  0  0  0  0  0
   14.1100   -0.5826  -13.7706 C   0  0  0  1  0  0  0  0  0  0  0  0
   13.6842    0.2606  -14.2733 H   0  0  0  1  0  0  0  0  0  0  0  0
   13.3314   -1.1521  -13.3076 H   0  0  0  1  0  0  0  0  0  0  0  0
   14.6279   -1.1954  -14.4785 H   0  0  0  1  0  0  0  0  0  0  0  0
   14.4322    0.3592  -11.4414 C   0  0  0  1  0  0  0  0  0  0  0  0
   15.1924    0.4091  -10.6900 H   0  0  0  1  0  0  0  0  0  0  0  0
   13.6970   -0.3648  -11.1582 H   0  0  0  1  0  0  0  0  0  0  0  0
   13.7514    1.7165  -11.5104 C   0  0  0  1  0  0  0  0  0  0  0  0
   12.9633    1.6658  -12.2323 H   0  0  0  1  0  0  0  0  0  0  0  0
   14.4726    2.4439  -11.8193 H   0  0  0  1  0  0  0  0  0  0  0  0
   13.1670    2.1507  -10.1928 C   0  0  0  1  0  0  0  0  0  0  0  0
   12.5916    1.4596   -9.6704 H   0  0  0  1  0  0  0  0  0  0  0  0
   13.3322    3.3562   -9.6452 C   0  0  0  1  0  0  0  0  0  0  0  0
   14.1492    4.4185  -10.3309 C   0  0  0  1  0  0  0  0  0  0  0  0
   13.5231    4.9304  -11.0314 H   0  0  0  1  0  0  0  0  0  0  0  0
   14.9552    3.9451  -10.8516 H   0  0  0  1  0  0  0  0  0  0  0  0
   12.7094    3.7021   -8.3219 C   0  0  0  1  0  0  0  0  0  0  0  0
   11.6993    4.0202   -8.4748 H   0  0  0  1  0  0  0  0  0  0  0  0
   13.2660    4.4915   -7.8616 H   0  0  0  1  0  0  0  0  0  0  0  0
   12.7196    2.8407   -7.6872 H   0  0  0  1  0  0  0  0  0  0  0  0
   14.7300    5.4387   -9.3654 C   0  0  0  1  0  0  0  0  0  0  0  0
   15.2900    4.9187   -8.6166 H   0  0  0  1  0  0  0  0  0  0  0  0
   13.9231    5.9689   -8.9041 H   0  0  0  1  0  0  0  0  0  0  0  0
   15.6361    6.4347  -10.0355 C   0  0  0  1  0  0  0  0  0  0  0  0
   15.1977    7.0568  -10.7442 H   0  0  0  1  0  0  0  0  0  0  0  0
   16.9374    6.6060   -9.8200 C   0  0  0  1  0  0  0  0  0  0  0  0
   17.8387    5.6458   -9.0924 C   0  0  0  1  0  0  0  0  0  0  0  0
   17.2838    4.7577   -8.8728 H   0  0  0  1  0  0  0  0  0  0  0  0
   18.1570    6.1031   -8.1789 H   0  0  0  1  0  0  0  0  0  0  0  0
   17.6088    7.8481  -10.3273 C   0  0  0  1  0  0  0  0  0  0  0  0
   18.6321    7.6335  -10.5547 H   0  0  0  1  0  0  0  0  0  0  0  0
   17.5626    8.6099   -9.5774 H   0  0  0  1  0  0  0  0  0  0  0  0
   17.1106    8.1867  -11.2116 H   0  0  0  1  0  0  0  0  0  0  0  0
   19.0705    5.2606   -9.8953 C   0  0  0  1  0  0  0  0  0  0  0  0
   19.4024    6.1182  -10.4424 H   0  0  0  1  0  0  0  0  0  0  0  0
   18.8017    4.4827  -10.5791 H   0  0  0  1  0  0  0  0  0  0  0  0
   20.2056    4.7718   -9.0358 C   0  0  0  1  0  0  0  0  0  0  0  0
   20.1787    3.7810   -8.7209 H   0  0  0  1  0  0  0  0  0  0  0  0
   21.2483    5.5185   -8.6460 C   0  0  0  1  0  0  0  0  0  0  0  0
   21.2542    7.0204   -8.7471 C   0  0  0  1  0  0  0  0  0  0  0  0
   22.0923    7.3954   -8.1978 H   0  0  0  1  0  0  0  0  0  0  0  0
   20.3488    7.3942   -8.3166 H   0  0  0  1  0  0  0  0  0  0  0  0
   22.4609    4.8301   -8.0854 C   0  0  0  1  0  0  0  0  0  0  0  0
   23.3153    5.0678   -8.6841 H   0  0  0  1  0  0  0  0  0  0  0  0
   22.3047    3.7716   -8.0918 H   0  0  0  1  0  0  0  0  0  0  0  0
   22.6261    5.1607   -7.0813 H   0  0  0  1  0  0  0  0  0  0  0  0
   21.3515    7.5204  -10.1792 C   0  0  0  1  0  0  0  0  0  0  0  0
   22.2519    8.0873  -10.2925 H   0  0  0  1  0  0  0  0  0  0  0  0
   20.5079    8.1436  -10.3913 H   0  0  0  1  0  0  0  0  0  0  0  0
   21.3689    6.3749  -11.1408 C   0  0  0  1  0  0  0  0  0  0  0  0
   20.4660    5.8978  -11.3374 H   0  0  0  1  0  0  0  0  0  0  0  0
   22.4567    5.9194  -11.7653 C   0  0  0  1  0  0  0  0  0  0  0  0
   23.8010    6.5621  -11.5568 C   0  0  0  1  0  0  0  0  0  0  0  0
   23.6607    7.5745  -11.2403 H   0  0  0  1  0  0  0  0  0  0  0  0
   24.3433    6.5481  -12.4791 H   0  0  0  1  0  0  0  0  0  0  0  0
   22.3829    4.7481  -12.7005 C   0  0  0  1  0  0  0  0  0  0  0  0
   22.8796    3.9084  -12.2610 H   0  0  0  1  0  0  0  0  0  0  0  0
   22.8589    4.9998  -13.6251 H   0  0  0  1  0  0  0  0  0  0  0  0
   21.3578    4.5010  -12.8820 H   0  0  0  1  0  0  0  0  0  0  0  0
   24.5972    5.8151  -10.4992 C   0  0  0  1  0  0  0  0  0  0  0  0
   24.7976    4.8273  -10.8583 H   0  0  0  1  0  0  0  0  0  0  0  0
   24.0092    5.7585   -9.6071 H   0  0  0  1  0  0  0  0  0  0  0  0
   25.8966    6.4744  -10.1710 C   0  0  0  1  0  0  0  0  0  0  0  0
   26.1471    7.3505  -10.6724 H   0  0  0  1  0  0  0  0  0  0  0  0
   26.7478    5.9970   -9.2708 C   0  0  0  1  0  0  0  0  0  0  0  0
   26.6286    4.5897   -8.7499 C   0  0  0  1  0  0  0  0  0  0  0  0
   27.3334    3.9663   -9.2593 H   0  0  0  1  0  0  0  0  0  0  0  0
   25.6372    4.2309   -8.9322 H   0  0  0  1  0  0  0  0  0  0  0  0
   27.8861    6.7861   -8.6932 C   0  0  0  1  0  0  0  0  0  0  0  0
   28.7247    6.7408   -9.3562 H   0  0  0  1  0  0  0  0  0  0  0  0
   28.1595    6.3748   -7.7440 H   0  0  0  1  0  0  0  0  0  0  0  0
   27.5857    7.8054   -8.5676 H   0  0  0  1  0  0  0  0  0  0  0  0
   26.9091    4.5422   -7.2567 C   0  0  0  1  0  0  0  0  0  0  0  0
   26.2305    5.2048   -6.7615 H   0  0  0  1  0  0  0  0  0  0  0  0
   27.9141    4.8688   -7.0884 H   0  0  0  1  0  0  0  0  0  0  0  0
   26.7483    3.1652   -6.6701 C   0  0  0  1  0  0  0  0  0  0  0  0
   26.6924    2.3641   -7.3309 H   0  0  0  1  0  0  0  0  0  0  0  0
   26.6723    2.8973   -5.3720 C   0  0  0  1  0  0  0  0  0  0  0  0
   26.4115    3.9818   -4.3636 C   0  0  0  1  0  0  0  0  0  0  0  0
   25.7138    3.6041   -3.6457 H   0  0  0  1  0  0  0  0  0  0  0  0
   25.9790    4.8141   -4.8785 H   0  0  0  1  0  0  0  0  0  0  0  0
   26.8341    1.5229   -4.7889 C   0  0  0  1  0  0  0  0  0  0  0  0
   27.2484    0.8683   -5.5270 H   0  0  0  1  0  0  0  0  0  0  0  0
   25.8791    1.1523   -4.4796 H   0  0  0  1  0  0  0  0  0  0  0  0
   27.4900    1.5688   -3.9448 H   0  0  0  1  0  0  0  0  0  0  0  0
   27.6373    4.4809   -3.6099 C   0  0  0  1  0  0  0  0  0  0  0  0
   28.3312    4.8845   -4.3174 H   0  0  0  1  0  0  0  0  0  0  0  0
   28.0858    3.6525   -3.1025 H   0  0  0  1  0  0  0  0  0  0  0  0
   27.3131    5.5453   -2.5961 C   0  0  0  1  0  0  0  0  0  0  0  0
   26.8039    6.3811   -2.9480 H   0  0  0  1  0  0  0  0  0  0  0  0
   27.6095    5.5328   -1.2889 C   0  0  0  1  0  0  0  0  0  0  0  0
   26.9697    6.4727   -0.3024 C   0  0  0  1  0  0  0  0  0  0  0  0
   26.5974    5.9002    0.5213 H   0  0  0  1  0  0  0  0  0  0  0  0
   26.1567    6.9726   -0.7863 H   0  0  0  1  0  0  0  0  0  0  0  0
   28.6210    4.5413   -0.7865 C   0  0  0  1  0  0  0  0  0  0  0  0
   28.0952    3.9265   -0.0861 H   0  0  0  1  0  0  0  0  0  0  0  0
   29.4323    5.0463   -0.3053 H   0  0  0  1  0  0  0  0  0  0  0  0
   28.9975    3.9495   -1.5945 H   0  0  0  1  0  0  0  0  0  0  0  0
   27.9379    7.5265    0.2355 C   0  0  0  1  0  0  0  0  0  0  0  0
   28.3569    8.0584   -0.5930 H   0  0  0  1  0  0  0  0  0  0  0  0
   28.7186    7.0292    0.7723 H   0  0  0  1  0  0  0  0  0  0  0  0
   27.2828    8.5110    1.1513 C   0  0  0  1  0  0  0  0  0  0  0  0
   26.7337    8.1339    1.9499 H   0  0  0  1  0  0  0  0  0  0  0  0
   27.3501    9.8316    1.0205 C   0  0  0  1  0  0  0  0  0  0  0  0
   28.0767   10.5220   -0.0969 C   0  0  0  1  0  0  0  0  0  0  0  0
   27.6064   10.2858   -1.0285 H   0  0  0  1  0  0  0  0  0  0  0  0
   29.0944   10.1921   -0.1177 H   0  0  0  1  0  0  0  0  0  0  0  0
   28.0473   11.5801    0.0590 H   0  0  0  1  0  0  0  0  0  0  0  0
   26.6851   10.7581    2.0093 C   0  0  0  1  0  0  0  0  0  0  0  0
   26.8320   11.7583    1.6586 H   0  0  0  1  0  0  0  0  0  0  0  0
   27.1286   10.6406    2.9760 H   0  0  0  1  0  0  0  0  0  0  0  0
   25.6390   10.5409    2.0675 H   0  0  0  1  0  0  0  0  0  0  0  0
   15.8637   -5.1710   -1.5655 C   0  0  0  1  0  0  0  0  0  0  0  0
   15.9111   -5.7213   -0.6491 H   0  0  0  1  0  0  0  0  0  0  0  0
   14.7000   -5.6920   -2.4040 C   0  0  0  1  0  0  0  0  0  0  0  0
   14.8879   -6.7088   -2.6792 H   0  0  0  1  0  0  0  0  0  0  0  0
   15.6896   -3.7904   -1.2732 O   0  0  0  1  0  0  0  0  0  0  0  0
   14.5510   -4.8448   -3.6658 C   0  0  0  1  0  0  0  0  0  0  0  0
   13.6568   -5.1347   -4.1770 H   0  0  0  1  0  0  0  0  0  0  0  0
   15.6522   -2.9623   -2.4460 C   0  0  0  1  0  0  0  0  0  0  0  0
   16.5637   -3.0809   -2.9938 H   0  0  0  1  0  0  0  0  0  0  0  0
   14.4716   -3.3696   -3.3300 C   0  0  0  1  0  0  0  0  0  0  0  0
   14.4955   -2.7998   -4.2353 H   0  0  0  1  0  0  0  0  0  0  0  0
   17.0766   -5.3467   -2.2884 O   0  0  0  1  0  0  0  0  0  0  0  0
   13.4986   -5.6200   -1.6417 O   0  0  0  1  0  0  0  0  0  0  0  0
   13.7144   -5.5620   -0.7081 H   0  0  0  1  0  0  0  0  0  0  0  0
   15.6723   -5.0680   -4.5083 O   0  0  0  1  0  0  0  0  0  0  0  0
   15.8243   -6.0118   -4.5961 H   0  0  0  1  0  0  0  0  0  0  0  0
   15.4957   -1.5179   -2.0349 C   0  0  0  1  0  0  0  0  0  0  0  0
   16.4271   -1.0071   -2.1631 H   0  0  0  1  0  0  0  0  0  0  0  0
   15.2012   -1.4697   -1.0074 H   0  0  0  1  0  0  0  0  0  0  0  0
   14.7478   -1.0533   -2.6430 H   0  0  0  1  0  0  0  0  0  0  0  0
   19.4437   -5.9968   -3.8684 C   0  0  0  1  0  0  0  0  0  0  0  0
   19.4361   -5.0627   -3.3465 H   0  0  0  1  0  0  0  0  0  0  0  0
   18.0321   -6.3988   -4.1986 C   0  0  0  1  0  0  0  0  0  0  0  0
   18.0445   -7.3098   -4.7596 H   0  0  0  1  0  0  0  0  0  0  0  0
   20.0350   -6.9890   -3.0518 O   0  0  0  1  0  0  0  0  0  0  0  0
   17.2517   -6.6040   -2.9328 C   0  0  0  1  0  0  0  0  0  0  0  0
   16.2951   -7.0164   -3.1772 H   0  0  0  1  0  0  0  0  0  0  0  0
   19.3873   -7.0671   -1.7694 C   0  0  0  1  0  0  0  0  0  0  0  0
   19.9088   -7.7588   -1.1413 H   0  0  0  1  0  0  0  0  0  0  0  0
   17.9649   -7.5441   -1.9891 C   0  0  0  1  0  0  0  0  0  0  0  0
   17.4488   -7.5662   -1.0521 H   0  0  0  1  0  0  0  0  0  0  0  0
   17.4038   -5.3504   -4.9885 N   0  0  0  1  0  0  0  0  0  0  0  0
   17.6185   -4.4151   -4.7894 H   0  0  0  1  0  0  0  0  0  0  0  0
   17.9863   -8.8564   -2.5528 O   0  0  0  1  0  0  0  0  0  0  0  0
   18.5017   -8.7967   -3.3605 H   0  0  0  1  0  0  0  0  0  0  0  0
   19.3755   -5.7103   -1.1208 C   0  0  0  1  0  0  0  0  0  0  0  0
   19.9484   -5.0367   -1.7232 H   0  0  0  1  0  0  0  0  0  0  0  0
   19.8210   -5.7894   -0.1512 H   0  0  0  1  0  0  0  0  0  0  0  0
   18.0610   -5.1885   -0.9775 O   0  0  0  1  0  0  0  0  0  0  0  0
   17.7070   -5.4928   -0.1387 H   0  0  0  1  0  0  0  0  0  0  0  0
   16.5408   -5.6196   -5.9798 C   0  0  0  1  0  0  0  0  0  0  0  0
   16.0630   -4.7845   -6.7307 O   0  0  0  1  0  0  0  0  0  0  0  0
   16.1902   -7.0970   -6.1018 C   0  0  0  1  0  0  0  0  0  0  0  0
   16.9511   -7.4998   -6.7370 H   0  0  0  1  0  0  0  0  0  0  0  0
   15.2235   -7.2213   -6.5434 H   0  0  0  1  0  0  0  0  0  0  0  0
   16.2081   -7.5707   -5.1425 H   0  0  0  1  0  0  0  0  0  0  0  0
  1  2  1  0  0  0  0
  1  3  1  0  0  0  0
  1  4  1  0  0  0  0
  1 44  1  0  0  0  0
  3 20  1  0  0  0  0
  4  5  1  0  0  0  0
  4  6  1  0  0  0  0
  4  8  1  0  0  0  0
  6  7  1  0  0  0  0
  8  9  1  0  0  0  0
  8 10  1  0  0  0  0
  8 20  1  0  0  0  0
 10 11  1  0  0  0  0
 12 13  1  0  0  0  0
 12 14  1  0  0  0  0
 12 15  1  0  0  0  0
 12 17  1  0  0  0  0
 15 16  1  0  0  0  0
 17 18  1  0  0  0  0
 17 19  1  0  0  0  0
 17 20  1  0  0  0  0
 19 22  1  0  0  0  0
 20 21  1  0  0  0  0
 22 23  1  0  0  0  0
 22 24  1  0  0  0  0
 22 25  1  0  0  0  0
 24 42  1  0  0  0  0
 25 26  1  0  0  0  0
 25 27  1  0  0  0  0
 25 29  1  0  0  0  0
 27 28  1  0  0  0  0
 29 30  1  0  0  0  0
 29 31  1  0  0  0  0
 29 42  1  0  0  0  0
 31 32  1  0  0  0  0
 33 34  1  0  0  0  0
 33 35  1  0  0  0  0
 33 36  1  0  0  0  0
 33 38  1  0  0  0  0
 36 37  1  0  0  0  0
 38 39  1  0  0  0  0
 38 40  1  0  0  0  0
 38 42  1  0  0  0  0
 40 41  1  0  0  0  0
 42 43  1  0  0  0  0
 44194  1  0  0  0  0
 45 46  1  0  0  0  0
 45 54  1  0  0  0  0
 46 47  1  0  0  0  0
 46 48  1  0  0  0  0
 46 49  2  0  0  0  0
 47 50  1  0  0  0  0
 50 51  1  0  0  0  0
 50 52  1  0  0  0  0
 50 53  2  0  0  0  0
 51205  1  0  0  0  0
 54 55  1  0  0  0  0
 54 56  1  0  0  0  0
 54 57  1  0  0  0  0
 57 58  1  0  0  0  0
 57 59  2  0  0  0  0
 59 60  1  0  0  0  0
 59 64  1  0  0  0  0
 60 61  1  0  0  0  0
 60 62  1  0  0  0  0
 60 63  1  0  0  0  0
 64 65  1  0  0  0  0
 64 66  1  0  0  0  0
 64 67  1  0  0  0  0
 67 68  1  0  0  0  0
 67 69  1  0  0  0  0
 67 70  1  0  0  0  0
 70 71  1  0  0  0  0
 70 72  2  0  0  0  0
 72 73  1  0  0  0  0
 72 77  1  0  0  0  0
 73 74  1  0  0  0  0
 73 75  1  0  0  0  0
 73 76  1  0  0  0  0
 77 78  1  0  0  0  0
 77 79  1  0  0  0  0
 77 80  1  0  0  0  0
 80 81  1  0  0  0  0
 80 82  1  0  0  0  0
 80 83  1  0  0  0  0
 83 84  1  0  0  0  0
 83 85  2  0  0  0  0
 85 86  1  0  0  0  0
 85 89  1  0  0  0  0
 86 87  1  0  0  0  0
 86 88  1  0  0  0  0
 86 93  1  0  0  0  0
 89 90  1  0  0  0  0
 89 91  1  0  0  0  0
 89 92  1  0  0  0  0
 93 94  1  0  0  0  0
 93 95  1  0  0  0  0
 93 96  1  0  0  0  0
 96 97  1  0  0  0  0
 96 98  2  0  0  0  0
 98 99  1  0  0  0  0
 98102  1  0  0  0  0
 99100  1  0  0  0  0
 99101  1  0  0  0  0
 99106  1  0  0  0  0
102103  1  0  0  0  0
102104  1  0  0  0  0
102105  1  0  0  0  0
106107  1  0  0  0  0
106108  1  0  0  0  0
106109  1  0  0  0  0
109110  1  0  0  0  0
109111  2  0  0  0  0
111112  1  0  0  0  0
111115  1  0  0  0  0
112113  1  0  0  0  0
112114  1  0  0  0  0
112119  1  0  0  0  0
115116  1  0  0  0  0
115117  1  0  0  0  0
115118  1  0  0  0  0
119120  1  0  0  0  0
119121  1  0  0  0  0
119122  1  0  0  0  0
122123  1  0  0  0  0
122124  2  0  0  0  0
124125  1  0  0  0  0
124128  1  0  0  0  0
125126  1  0  0  0  0
125127  1  0  0  0  0
125132  1  0  0  0  0
128129  1  0  0  0  0
128130  1  0  0  0  0
128131  1  0  0  0  0
132133  1  0  0  0  0
132134  1  0  0  0  0
132135  1  0  0  0  0
135136  1  0  0  0  0
135137  2  0  0  0  0
137138  1  0  0  0  0
137141  1  0  0  0  0
138139  1  0  0  0  0
138140  1  0  0  0  0
138145  1  0  0  0  0
141142  1  0  0  0  0
141143  1  0  0  0  0
141144  1  0  0  0  0
145146  1  0  0  0  0
145147  1  0  0  0  0
145148  1  0  0  0  0
148149  1  0  0  0  0
148150  2  0  0  0  0
150151  1  0  0  0  0
150154  1  0  0  0  0
151152  1  0  0  0  0
151153  1  0  0  0  0
151158  1  0  0  0  0
154155  1  0  0  0  0
154156  1  0  0  0  0
154157  1  0  0  0  0
158159  1  0  0  0  0
158160  1  0  0  0  0
158161  1  0  0  0  0
161162  1  0  0  0  0
161163  2  0  0  0  0
163164  1  0  0  0  0
163167  1  0  0  0  0
164165  1  0  0  0  0
164166  1  0  0  0  0
164171  1  0  0  0  0
167168  1  0  0  0  0
167169  1  0  0  0  0
167170  1  0  0  0  0
171172  1  0  0  0  0
171173  1  0  0  0  0
171174  1  0  0  0  0
174175  1  0  0  0  0
174176  2  0  0  0  0
176177  1  0  0  0  0
176181  1  0  0  0  0
177178  1  0  0  0  0
177179  1  0  0  0  0
177180  1  0  0  0  0
181182  1  0  0  0  0
181183  1  0  0  0  0
181184  1  0  0  0  0
185186  1  0  0  0  0
185187  1  0  0  0  0
185189  1  0  0  0  0
185196  1  0  0  0  0
187188  1  0  0  0  0
187190  1  0  0  0  0
187197  1  0  0  0  0
189192  1  0  0  0  0
190191  1  0  0  0  0
190194  1  0  0  0  0
190199  1  0  0  0  0
192193  1  0  0  0  0
192194  1  0  0  0  0
192201  1  0  0  0  0
194195  1  0  0  0  0
196210  1  0  0  0  0
197198  1  0  0  0  0
199200  1  0  0  0  0
201202  1  0  0  0  0
201203  1  0  0  0  0
201204  1  0  0  0  0
205206  1  0  0  0  0
205207  1  0  0  0  0
205209  1  0  0  0  0
207208  1  0  0  0  0
207210  1  0  0  0  0
207216  1  0  0  0  0
209212  1  0  0  0  0
210211  1  0  0  0  0
210214  1  0  0  0  0
212213  1  0  0  0  0
212214  1  0  0  0  0
212220  1  0  0  0  0
214215  1  0  0  0  0
214218  1  0  0  0  0
216217  1  0  0  0  0
216225  1  0  0  0  0
218219  1  0  0  0  0
220221  1  0  0  0  0
220222  1  0  0  0  0
220223  1  0  0  0  0
223224  1  0  0  0  0
225226  2  0  0  0  0
225227  1  0  0  0  0
227228  1  0  0  0  0
227229  1  0  0  0  0
227230  1  0  0  0  0
M  BCL ATM C_TeTeTeTe H_S O_Te2Te2TeTe C_TeTeTeTe H_S O_Te2Te2TeTe H_S C_TeTeTeTe H_S O_Te2Te2TeTe H_S C_TeTeTeTe H_S H_S O_Te2Te2TeTe H_S C_TeTeTeTe H_S O_Te2Te2TeTe C_TeTeTeTe H_S C_TeTeTeTe H_S O_Te2Te2TeTe C_TeTeTeTe H_S O_Te2Te2TeTe H_S C_TeTeTeTe H_S O_Te2Te2TeTe H_S C_TeTeTeTe H_S H_S O_Te2Te2TeTe H_S C_TeTeTeTe H_S O_Te2Te2TeTe H_S C_TeTeTeTe H_S O_Te2Te2TeTe O_Tr2TrTrPi2 P_TeTeTeTePi O_Tr2TrTrPi2 O_Te2Te2TeTe O_Tr2Tr2TrPi P_TeTeTeTePi O_Tr2TrTrPi2 O_Te2Te2TeTe O_Tr2Tr2TrPi C_TeTeTeTe H_S H_S C_TrTrTrPi H_S C_TrTrTrPi C_TeTeTeTe H_S H_S H_S C_TeTeTeTe H_S H_S C_TeTeTeTe H_S H_S C_TrTrTrPi H_S C_TrTrTrPi C_TeTeTeTe H_S H_S H_S C_TeTeTeTe H_S H_S C_TeTeTeTe H_S H_S C_TrTrTrPi H_S C_TrTrTrPi C_TeTeTeTe H_S H_S C_TeTeTeTe H_S H_S H_S C_TeTeTeTe H_S H_S C_TrTrTrPi H_S C_TrTrTrPi C_TeTeTeTe H_S H_S C_TeTeTeTe H_S H_S H_S C_TeTeTeTe H_S H_S C_TrTrTrPi H_S C_TrTrTrPi C_TeTeTeTe H_S H_S C_TeTeTeTe H_S H_S H_S C_TeTeTeTe H_S H_S C_TrTrTrPi H_S C_TrTrTrPi C_TeTeTeTe H_S H_S C_TeTeTeTe H_S H_S H_S C_TeTeTeTe H_S H_S C_TrTrTrPi H_S C_TrTrTrPi C_TeTeTeTe H_S H_S C_TeTeTeTe H_S H_S H_S C_TeTeTeTe H_S H_S C_TrTrTrPi H_S C_TrTrTrPi C_TeTeTeTe H_S H_S C_TeTeTeTe H_S H_S H_S C_TeTeTeTe H_S H_S C_TrTrTrPi H_S C_TrTrTrPi C_TeTeTeTe H_S H_S C_TeTeTeTe H_S H_S H_S C_TeTeTeTe H_S H_S C_TrTrTrPi H_S C_TrTrTrPi C_TeTeTeTe H_S H_S H_S C_TeTeTeTe H_S H_S H_S C_TeTeTeTe H_S C_TeTeTeTe H_S O_Te2Te2TeTe C_TeTeTeTe H_S C_TeTeTeTe H_S C_TeTeTeTe H_S O_Te2Te2TeTe O_Te2Te2TeTe H_S O_Te2Te2TeTe H_S C_TeTeTeTe H_S H_S H_S C_TeTeTeTe H_S C_TeTeTeTe H_S O_Te2Te2TeTe C_TeTeTeTe H_S C_TeTeTeTe H_S C_TeTeTeTe H_S N_TrTrTrPi2 H_S O_Te2Te2TeTe H_S C_TeTeTeTe H_S H_S O_Te2Te2TeTe H_S C_TrTrTrPi O_Tr2Tr2TrPi C_TeTeTeTe H_S H_S H_S
M  BCL BND NonConjugatedSingleBond NonConjugatedSingleBondInRing NonConjugatedSingleBondInRing NonConjugatedSingleBond NonConjugatedSingleBondInRing NonConjugatedSingleBond NonConjugatedSingleBond NonConjugatedSingleBondInRing NonConjugatedSingleBond NonConjugatedSingleBond NonConjugatedSingleBond NonConjugatedSingleBondInRing NonConjugatedSingleBond NonConjugatedSingleBond NonConjugatedSingleBond NonConjugatedSingleBond NonConjugatedSingleBond NonConjugatedSingleBond NonConjugatedSingleBond NonConjugatedSingleBond NonConjugatedSingleBond NonConjugatedSingleBond NonConjugatedSingleBond NonConjugatedSingleBond NonConjugatedSingleBondInRing NonConjugatedSingleBondInRing NonConjugatedSingleBondInRing NonConjugatedSingleBond NonConjugatedSingleBond NonConjugatedSingleBondInRing NonConjugatedSingleBond NonConjugatedSingleBond NonConjugatedSingleBond NonConjugatedSingleBondInRing NonConjugatedSingleBond NonConjugatedSingleBond NonConjugatedSingleBond NonConjugatedSingleBond NonConjugatedSingleBond NonConjugatedSingleBond NonConjugatedSingleBond NonConjugatedSingleBond NonConjugatedSingleBond NonConjugatedSingleBond NonConjugatedSingleBond NonConjugatedSingleBond ConjugatedSingleBond NonConjugatedSingleBond ConjugatedSingleBond ConjugatedSingleBond ConjugatedDoubleBond ConjugatedSingleBond ConjugatedSingleBond ConjugatedSingleBond ConjugatedDoubleBond NonConjugatedSingleBond NonConjugatedSingleBond NonConjugatedSingleBond NonConjugatedSingleBond NonConjugatedSingleBond ConjugatedDoubleBond NonConjugatedSingleBond NonConjugatedSingleBond NonConjugatedSingleBond NonConjugatedSingleBond NonConjugatedSingleBond NonConjugatedSingleBond NonConjugatedSingleBond NonConjugatedSingleBond NonConjugatedSingleBond NonConjugatedSingleBond NonConjugatedSingleBond NonConjugatedSingleBond ConjugatedDoubleBond NonConjugatedSingleBond NonConjugatedSingleBond NonConjugatedSingleBond NonConjugatedSingleBond NonConjugatedSingleBond NonConjugatedSingleBond NonConjugatedSingleBond NonConjugatedSingleBond NonConjugatedSingleBond NonConjugatedSingleBond NonConjugatedSingleBond NonConjugatedSingleBond ConjugatedDoubleBond NonConjugatedSingleBond NonConjugatedSingleBond NonConjugatedSingleBond NonConjugatedSingleBond NonConjugatedSingleBond NonConjugatedSingleBond NonConjugatedSingleBond NonConjugatedSingleBond NonConjugatedSingleBond NonConjugatedSingleBond NonConjugatedSingleBond NonConjugatedSingleBond ConjugatedDoubleBond NonConjugatedSingleBond NonConjugatedSingleBond NonConjugatedSingleBond NonConjugatedSingleBond NonConjugatedSingleBond NonConjugatedSingleBond NonConjugatedSingleBond NonConjugatedSingleBond NonConjugatedSingleBond NonConjugatedSingleBond NonConjugatedSingleBond NonConjugatedSingleBond ConjugatedDoubleBond NonConjugatedSingleBond NonConjugatedSingleBond NonConjugatedSingleBond NonConjugatedSingleBond NonConjugatedSingleBond NonConjugatedSingleBond NonConjugatedSingleBond NonConjugatedSingleBond NonConjugatedSingleBond NonConjugatedSingleBond NonConjugatedSingleBond NonConjugatedSingleBond ConjugatedDoubleBond NonConjugatedSingleBond NonConjugatedSingleBond NonConjugatedSingleBond NonConjugatedSingleBond NonConjugatedSingleBond NonConjugatedSingleBond NonConjugatedSingleBond NonConjugatedSingleBond NonConjugatedSingleBond NonConjugatedSingleBond NonConjugatedSingleBond NonConjugatedSingleBond ConjugatedDoubleBond NonConjugatedSingleBond NonConjugatedSingleBond NonConjugatedSingleBond NonConjugatedSingleBond NonConjugatedSingleBond NonConjugatedSingleBond NonConjugatedSingleBond NonConjugatedSingleBond NonConjugatedSingleBond NonConjugatedSingleBond NonConjugatedSingleBond NonConjugatedSingleBond ConjugatedDoubleBond NonConjugatedSingleBond NonConjugatedSingleBond NonConjugatedSingleBond NonConjugatedSingleBond NonConjugatedSingleBond NonConjugatedSingleBond NonConjugatedSingleBond NonConjugatedSingleBond NonConjugatedSingleBond NonConjugatedSingleBond NonConjugatedSingleBond NonConjugatedSingleBond ConjugatedDoubleBond NonConjugatedSingleBond NonConjugatedSingleBond NonConjugatedSingleBond NonConjugatedSingleBond NonConjugatedSingleBond NonConjugatedSingleBond NonConjugatedSingleBond NonConjugatedSingleBond NonConjugatedSingleBond NonConjugatedSingleBond NonConjugatedSingleBond NonConjugatedSingleBond ConjugatedDoubleBond NonConjugatedSingleBond NonConjugatedSingleBond NonConjugatedSingleBond NonConjugatedSingleBond NonConjugatedSingleBond NonConjugatedSingleBond NonConjugatedSingleBond NonConjugatedSingleBond NonConjugatedSingleBond NonConjugatedSingleBondInRing NonConjugatedSingleBondInRing NonConjugatedSingleBond NonConjugatedSingleBond NonConjugatedSingleBondInRing NonConjugatedSingleBond NonConjugatedSingleBondInRing NonConjugatedSingleBond NonConjugatedSingleBondInRing NonConjugatedSingleBond NonConjugatedSingleBond NonConjugatedSingleBondInRing NonConjugatedSingleBond NonConjugatedSingleBond NonConjugatedSingleBond NonConjugatedSingleBond NonConjugatedSingleBond NonConjugatedSingleBond NonConjugatedSingleBond NonConjugatedSingleBond NonConjugatedSingleBond NonConjugatedSingleBondInRing NonConjugatedSingleBondInRing NonConjugatedSingleBond NonConjugatedSingleBondInRing NonConjugatedSingleBond NonConjugatedSingleBondInRing NonConjugatedSingleBond NonConjugatedSingleBondInRing NonConjugatedSingleBond NonConjugatedSingleBondInRing NonConjugatedSingleBond NonConjugatedSingleBond NonConjugatedSingleBond NonConjugatedSingleBond AmideSingleBond NonConjugatedSingleBond NonConjugatedSingleBond NonConjugatedSingleBond NonConjugatedSingleBond NonConjugatedSingleBond ConjugatedDoubleBond NonConjugatedSingleBond NonConjugatedSingleBond NonConjugatedSingleBond NonConjugatedSingleBond
M  BCL CHI   1   R   4   R   8   R  17   S  20   R  22   S  25   R  29   S  38   S  42   R  46   R  50   S 185   R 187   S 190   S 192   R 194   R 205   R 207   S 210   R 212   S 214   S
M  BCL DBI - - E E E E E E E E Z - -
M  END
> <ConfClashScore>
0.022234 

> <ConfOneFourInteractionScore>
-0.962189 

> <ConfScore>
2.41937 

> <ConfScorePBest>
0.00551946 

> <ConfTolerance>
5.35284 

$$$$
L05.****
  PyMOL2.5          3D                             0

230233  0  0  0  0  0  0  0  0999 V2000
   12.6504   -1.9611   -2.7103 C   0  0  0  1  0  0  0  0  0  0  0  0
   12.6997   -1.6747   -3.7401 H   0  0  0  1  0  0  0  0  0  0  0  0
   13.3346   -1.0245   -1.9048 O   0  0  0  1  0  0  0  0  0  0  0  0
   11.2129   -1.9425   -2.2230 C   0  0  0  1  0  0  0  0  0  0  0  0
   10.7356   -2.8856   -2.3894 H   0  0  0  1  0  0  0  0  0  0  0  0
   10.4633   -0.9090   -2.8636 O   0  0  0  1  0  0  0  0  0  0  0  0
   10.6913   -0.0607   -2.4763 H   0  0  0  1  0  0  0  0  0  0  0  0
   11.3753   -1.6658   -0.7506 C   0  0  0  1  0  0  0  0  0  0  0  0
   10.4866   -1.2410   -0.3328 H   0  0  0  1  0  0  0  0  0  0  0  0
   11.7202   -2.8514   -0.0324 O   0  0  0  1  0  0  0  0  0  0  0  0
   10.9195   -3.2980    0.2522 H   0  0  0  1  0  0  0  0  0  0  0  0
   12.6885    1.7299    0.0455 C   0  0  0  1  0  0  0  0  0  0  0  0
   12.2992    2.7102   -0.1341 H   0  0  0  1  0  0  0  0  0  0  0  0
   12.4787    1.4415    1.0543 H   0  0  0  1  0  0  0  0  0  0  0  0
   14.0979    1.7583   -0.1370 O   0  0  0  1  0  0  0  0  0  0  0  0
   14.3394    1.1740   -0.8594 H   0  0  0  1  0  0  0  0  0  0  0  0
   12.0003    0.7513   -0.8953 C   0  0  0  1  0  0  0  0  0  0  0  0
   12.1987    1.0722   -1.8966 H   0  0  0  1  0  0  0  0  0  0  0  0
   10.5966    0.7985   -0.6675 O   0  0  0  1  0  0  0  0  0  0  0  0
   12.5262   -0.6606   -0.7528 C   0  0  0  1  0  0  0  0  0  0  0  0
   13.0973   -0.7397    0.1485 H   0  0  0  1  0  0  0  0  0  0  0  0
   10.2627    1.7468    0.2996 C   0  0  0  1  0  0  0  0  0  0  0  0
   10.9291    1.6579    1.1320 H   0  0  0  1  0  0  0  0  0  0  0  0
   10.3520    3.0330   -0.2455 O   0  0  0  1  0  0  0  0  0  0  0  0
    8.8143    1.5291    0.7654 C   0  0  0  1  0  0  0  0  0  0  0  0
    8.7318    1.6292    1.8275 H   0  0  0  1  0  0  0  0  0  0  0  0
    8.3337    0.2438    0.3689 O   0  0  0  1  0  0  0  0  0  0  0  0
    8.2317    0.2202   -0.5854 H   0  0  0  1  0  0  0  0  0  0  0  0
    8.0549    2.6503    0.0436 C   0  0  0  1  0  0  0  0  0  0  0  0
    7.2193    2.9814    0.6242 H   0  0  0  1  0  0  0  0  0  0  0  0
    7.6034    2.2174   -1.2352 O   0  0  0  1  0  0  0  0  0  0  0  0
    6.9087    1.5640   -1.1255 H   0  0  0  1  0  0  0  0  0  0  0  0
   10.2287    5.6520    1.1360 C   0  0  0  1  0  0  0  0  0  0  0  0
   10.8753    5.5176    1.9779 H   0  0  0  1  0  0  0  0  0  0  0  0
   10.7972    5.5734    0.2329 H   0  0  0  1  0  0  0  0  0  0  0  0
    9.5699    6.9286    1.2064 O   0  0  0  1  0  0  0  0  0  0  0  0
    9.3964    7.1495    2.1244 H   0  0  0  1  0  0  0  0  0  0  0  0
    9.1105    4.6191    1.1531 C   0  0  0  1  0  0  0  0  0  0  0  0
    8.1781    5.1409    1.2098 H   0  0  0  1  0  0  0  0  0  0  0  0
    9.2878    3.8408    2.3336 O   0  0  0  1  0  0  0  0  0  0  0  0
    9.6079    2.9673    2.0966 H   0  0  0  1  0  0  0  0  0  0  0  0
    9.0874    3.7461   -0.0907 C   0  0  0  1  0  0  0  0  0  0  0  0
    8.8868    4.3526   -0.9491 H   0  0  0  1  0  0  0  0  0  0  0  0
   13.2126   -3.2584   -2.5506 O   0  0  0  1  0  0  0  0  0  0  0  0
   16.1408   -6.3997    3.3352 O   0  0  0  1  0  0  0  0  0  0  0  0
   16.9221   -7.6475    2.6370 P   0  0  0  1  0  0  0  0  0  0  0  0
   18.1480   -6.8299    1.9954 O   0  0  0  1  0  0  0  0  0  0  0  0
   16.0590   -8.2281    1.5795 O   0  0  0  0  0  0  0  0  0  0  0  0
   17.4830   -8.5124    3.7047 O   0  0  0  1  0  0  0  0  0  0  0  0
   19.6141   -7.2493    1.5955 P   0  0  0  1  0  0  0  0  0  0  0  0
   19.9801   -6.0367    0.6619 O   0  0  0  1  0  0  0  0  0  0  0  0
   19.4370   -8.4844    0.7991 O   0  0  0  0  0  0  0  0  0  0  0  0
   20.5590   -7.2645    2.7333 O   0  0  0  1  0  0  0  0  0  0  0  0
   14.7954   -6.4388    3.8372 C   0  0  0  1  0  0  0  0  0  0  0  0
   14.7505   -7.0718    4.6988 H   0  0  0  1  0  0  0  0  0  0  0  0
   14.1395   -6.8174    3.0814 H   0  0  0  1  0  0  0  0  0  0  0  0
   14.3842   -5.0462    4.2115 C   0  0  0  1  0  0  0  0  0  0  0  0
   13.4214   -4.9116    4.5810 H   0  0  0  1  0  0  0  0  0  0  0  0
   15.1610   -3.9675    4.1060 C   0  0  0  1  0  0  0  0  0  0  0  0
   14.5534   -2.5973    4.1877 C   0  0  0  1  0  0  0  0  0  0  0  0
   15.3288   -1.8690    4.3023 H   0  0  0  1  0  0  0  0  0  0  0  0
   13.8928   -2.5499    5.0281 H   0  0  0  1  0  0  0  0  0  0  0  0
   14.0054   -2.3964    3.2909 H   0  0  0  1  0  0  0  0  0  0  0  0
   16.6603   -4.0376    4.0103 C   0  0  0  1  0  0  0  0  0  0  0  0
   17.0442   -3.0436    4.1087 H   0  0  0  1  0  0  0  0  0  0  0  0
   16.9118   -4.4235    3.0445 H   0  0  0  1  0  0  0  0  0  0  0  0
   17.3399   -4.9082    5.0546 C   0  0  0  1  0  0  0  0  0  0  0  0
   17.9412   -5.6298    4.5421 H   0  0  0  1  0  0  0  0  0  0  0  0
   16.5774   -5.4103    5.6126 H   0  0  0  1  0  0  0  0  0  0  0  0
   18.2146   -4.1831    6.0202 C   0  0  0  1  0  0  0  0  0  0  0  0
   18.2532   -3.1514    5.8945 H   0  0  0  1  0  0  0  0  0  0  0  0
   18.9520   -4.6597    7.0175 C   0  0  0  1  0  0  0  0  0  0  0  0
   19.7926   -3.7994    7.9179 C   0  0  0  1  0  0  0  0  0  0  0  0
   19.7827   -2.7911    7.5598 H   0  0  0  1  0  0  0  0  0  0  0  0
   20.7980   -4.1656    7.9239 H   0  0  0  1  0  0  0  0  0  0  0  0
   19.3958   -3.8288    8.9111 H   0  0  0  1  0  0  0  0  0  0  0  0
   19.0011   -6.1272    7.3257 C   0  0  0  1  0  0  0  0  0  0  0  0
   18.0360   -6.5478    7.1348 H   0  0  0  1  0  0  0  0  0  0  0  0
   19.2460   -6.2499    8.3601 H   0  0  0  1  0  0  0  0  0  0  0  0
   20.0287   -6.8764    6.4932 C   0  0  0  1  0  0  0  0  0  0  0  0
   19.8319   -6.7049    5.4555 H   0  0  0  1  0  0  0  0  0  0  0  0
   19.9541   -7.9231    6.7026 H   0  0  0  1  0  0  0  0  0  0  0  0
   21.4131   -6.4096    6.8135 C   0  0  0  1  0  0  0  0  0  0  0  0
   22.0489   -7.0806    7.2902 H   0  0  0  1  0  0  0  0  0  0  0  0
   21.8912   -5.2017    6.5346 C   0  0  0  1  0  0  0  0  0  0  0  0
   21.2338   -4.2452    5.5826 C   0  0  0  1  0  0  0  0  0  0  0  0
   21.2618   -3.2602    5.9997 H   0  0  0  1  0  0  0  0  0  0  0  0
   20.2164   -4.5414    5.4343 H   0  0  0  1  0  0  0  0  0  0  0  0
   23.1556   -4.6912    7.1663 C   0  0  0  1  0  0  0  0  0  0  0  0
   23.8540   -5.4955    7.2682 H   0  0  0  1  0  0  0  0  0  0  0  0
   22.9337   -4.2874    8.1320 H   0  0  0  1  0  0  0  0  0  0  0  0
   23.5795   -3.9272    6.5486 H   0  0  0  1  0  0  0  0  0  0  0  0
   21.9516   -4.2396    4.2427 C   0  0  0  1  0  0  0  0  0  0  0  0
   21.9884   -5.2426    3.8719 H   0  0  0  1  0  0  0  0  0  0  0  0
   22.9472   -3.8769    4.3912 H   0  0  0  1  0  0  0  0  0  0  0  0
   21.2797   -3.3800    3.2227 C   0  0  0  1  0  0  0  0  0  0  0  0
   20.3911   -2.9066    3.4830 H   0  0  0  1  0  0  0  0  0  0  0  0
   21.7553   -3.1928    2.0147 C   0  0  0  1  0  0  0  0  0  0  0  0
   22.8340   -4.0920    1.4635 C   0  0  0  1  0  0  0  0  0  0  0  0
   22.3737   -4.7861    0.7916 H   0  0  0  1  0  0  0  0  0  0  0  0
   23.2707   -4.6240    2.2827 H   0  0  0  1  0  0  0  0  0  0  0  0
   21.3570   -2.0482    1.1296 C   0  0  0  1  0  0  0  0  0  0  0  0
   21.7476   -2.2047    0.1459 H   0  0  0  1  0  0  0  0  0  0  0  0
   21.7496   -1.1361    1.5282 H   0  0  0  1  0  0  0  0  0  0  0  0
   20.2896   -1.9878    1.0838 H   0  0  0  1  0  0  0  0  0  0  0  0
   23.9517   -3.3851    0.7143 C   0  0  0  1  0  0  0  0  0  0  0  0
   24.7791   -4.0597    0.6424 H   0  0  0  1  0  0  0  0  0  0  0  0
   24.2395   -2.5264    1.2842 H   0  0  0  1  0  0  0  0  0  0  0  0
   23.6136   -2.9351   -0.6447 C   0  0  0  1  0  0  0  0  0  0  0  0
   22.6423   -3.1878   -0.9173 H   0  0  0  1  0  0  0  0  0  0  0  0
   24.2570   -2.2822   -1.6052 C   0  0  0  1  0  0  0  0  0  0  0  0
   25.6741   -1.8222   -1.4222 C   0  0  0  1  0  0  0  0  0  0  0  0
   26.3131   -2.6749   -1.5196 H   0  0  0  1  0  0  0  0  0  0  0  0
   25.7653   -1.4183   -0.4355 H   0  0  0  1  0  0  0  0  0  0  0  0
   23.6532   -1.9436   -2.9391 C   0  0  0  1  0  0  0  0  0  0  0  0
   23.7123   -0.8874   -3.1001 H   0  0  0  1  0  0  0  0  0  0  0  0
   22.6281   -2.2497   -2.9543 H   0  0  0  1  0  0  0  0  0  0  0  0
   24.1895   -2.4526   -3.7125 H   0  0  0  1  0  0  0  0  0  0  0  0
   26.1485   -0.7658   -2.4068 C   0  0  0  1  0  0  0  0  0  0  0  0
   25.6518    0.1521   -2.1709 H   0  0  0  1  0  0  0  0  0  0  0  0
   25.8680   -1.0813   -3.3900 H   0  0  0  1  0  0  0  0  0  0  0  0
   27.6310   -0.5046   -2.4084 C   0  0  0  1  0  0  0  0  0  0  0  0
   28.2220   -1.1899   -2.9208 H   0  0  0  1  0  0  0  0  0  0  0  0
   28.2664    0.5067   -1.8261 C   0  0  0  1  0  0  0  0  0  0  0  0
   27.6420    1.3979   -0.7919 C   0  0  0  1  0  0  0  0  0  0  0  0
   26.6316    1.5991   -1.0810 H   0  0  0  1  0  0  0  0  0  0  0  0
   28.1924    2.3148   -0.7554 H   0  0  0  1  0  0  0  0  0  0  0  0
   29.6891    0.8410   -2.1671 C   0  0  0  1  0  0  0  0  0  0  0  0
   29.9736    1.7433   -1.6672 H   0  0  0  1  0  0  0  0  0  0  0  0
   29.7799    0.9756   -3.2247 H   0  0  0  1  0  0  0  0  0  0  0  0
   30.3280    0.0425   -1.8524 H   0  0  0  1  0  0  0  0  0  0  0  0
   27.6343    0.7826    0.5979 C   0  0  0  1  0  0  0  0  0  0  0  0
   28.3875    0.0237    0.6386 H   0  0  0  1  0  0  0  0  0  0  0  0
   26.6743    0.3427    0.7703 H   0  0  0  1  0  0  0  0  0  0  0  0
   27.9030    1.7785    1.6811 C   0  0  0  1  0  0  0  0  0  0  0  0
   28.9056    2.0109    1.8304 H   0  0  0  1  0  0  0  0  0  0  0  0
   27.0504    2.4103    2.4808 C   0  0  0  1  0  0  0  0  0  0  0  0
   25.6167    1.9990    2.6623 C   0  0  0  1  0  0  0  0  0  0  0  0
   25.4633    1.7430    3.6899 H   0  0  0  1  0  0  0  0  0  0  0  0
   25.4276    1.1430    2.0489 H   0  0  0  1  0  0  0  0  0  0  0  0
   27.4660    3.6099    3.2810 C   0  0  0  1  0  0  0  0  0  0  0  0
   28.4934    3.8332    3.0824 H   0  0  0  1  0  0  0  0  0  0  0  0
   27.3411    3.4036    4.3234 H   0  0  0  1  0  0  0  0  0  0  0  0
   26.8597    4.4481    3.0076 H   0  0  0  1  0  0  0  0  0  0  0  0
   24.6311    3.0926    2.2839 C   0  0  0  1  0  0  0  0  0  0  0  0
   24.7623    3.9162    2.9542 H   0  0  0  1  0  0  0  0  0  0  0  0
   23.6384    2.7057    2.3834 H   0  0  0  1  0  0  0  0  0  0  0  0
   24.8129    3.5879    0.8755 C   0  0  0  1  0  0  0  0  0  0  0  0
   25.6223    3.2194    0.3365 H   0  0  0  1  0  0  0  0  0  0  0  0
   24.0170    4.4606    0.2691 C   0  0  0  1  0  0  0  0  0  0  0  0
   22.6607    4.7964    0.8216 C   0  0  0  1  0  0  0  0  0  0  0  0
   22.5775    5.8605    0.8966 H   0  0  0  1  0  0  0  0  0  0  0  0
   22.5725    4.3617    1.7953 H   0  0  0  1  0  0  0  0  0  0  0  0
   24.3763    5.1836   -0.9959 C   0  0  0  1  0  0  0  0  0  0  0  0
   24.1435    6.2228   -0.8918 H   0  0  0  1  0  0  0  0  0  0  0  0
   23.8185    4.7734   -1.8117 H   0  0  0  1  0  0  0  0  0  0  0  0
   25.4231    5.0702   -1.1862 H   0  0  0  1  0  0  0  0  0  0  0  0
   21.5191    4.2807   -0.0448 C   0  0  0  1  0  0  0  0  0  0  0  0
   21.6493    3.2259   -0.1686 H   0  0  0  1  0  0  0  0  0  0  0  0
   21.5841    4.7630   -0.9977 H   0  0  0  1  0  0  0  0  0  0  0  0
   20.1379    4.5168    0.5015 C   0  0  0  1  0  0  0  0  0  0  0  0
   20.0575    5.0370    1.3984 H   0  0  0  1  0  0  0  0  0  0  0  0
   19.0114    4.1099   -0.0770 C   0  0  0  1  0  0  0  0  0  0  0  0
   17.6604    4.0490    0.5824 C   0  0  0  1  0  0  0  0  0  0  0  0
   17.4984    4.9646    1.1119 H   0  0  0  1  0  0  0  0  0  0  0  0
   17.6548    3.2314    1.2726 H   0  0  0  1  0  0  0  0  0  0  0  0
   19.0407    3.6628   -1.5115 C   0  0  0  1  0  0  0  0  0  0  0  0
   18.4123    4.3503   -2.0382 H   0  0  0  1  0  0  0  0  0  0  0  0
   18.6614    2.6662   -1.6003 H   0  0  0  1  0  0  0  0  0  0  0  0
   20.0391    3.7004   -1.8945 H   0  0  0  1  0  0  0  0  0  0  0  0
   16.5231    3.8546   -0.4072 C   0  0  0  1  0  0  0  0  0  0  0  0
   16.6722    2.9371   -0.9371 H   0  0  0  1  0  0  0  0  0  0  0  0
   16.5174    4.6702   -1.0997 H   0  0  0  1  0  0  0  0  0  0  0  0
   15.2126    3.8037    0.2980 C   0  0  0  1  0  0  0  0  0  0  0  0
   15.0982    2.9706    0.9099 H   0  0  0  1  0  0  0  0  0  0  0  0
   14.1610    4.6159    0.2974 C   0  0  0  1  0  0  0  0  0  0  0  0
   14.0984    5.8967   -0.4828 C   0  0  0  1  0  0  0  0  0  0  0  0
   15.0757    6.3287   -0.5393 H   0  0  0  1  0  0  0  0  0  0  0  0
   13.4347    6.5794    0.0056 H   0  0  0  1  0  0  0  0  0  0  0  0
   13.7400    5.6952   -1.4706 H   0  0  0  1  0  0  0  0  0  0  0  0
   12.9215    4.3038    1.1003 C   0  0  0  1  0  0  0  0  0  0  0  0
   12.1411    4.0721    0.4059 H   0  0  0  1  0  0  0  0  0  0  0  0
   12.6453    5.1519    1.6912 H   0  0  0  1  0  0  0  0  0  0  0  0
   13.1019    3.4657    1.7406 H   0  0  0  1  0  0  0  0  0  0  0  0
   16.0054   -5.2207   -1.5924 C   0  0  0  1  0  0  0  0  0  0  0  0
   16.2001   -5.7541   -0.6854 H   0  0  0  1  0  0  0  0  0  0  0  0
   14.7917   -5.8253   -2.2863 C   0  0  0  1  0  0  0  0  0  0  0  0
   14.9940   -6.8436   -2.5451 H   0  0  0  1  0  0  0  0  0  0  0  0
   15.7469   -3.8474   -1.2913 O   0  0  0  1  0  0  0  0  0  0  0  0
   14.5053   -5.0167   -3.5556 C   0  0  0  1  0  0  0  0  0  0  0  0
   13.5779   -5.3495   -3.9728 H   0  0  0  1  0  0  0  0  0  0  0  0
   15.6068   -3.0464   -2.4749 C   0  0  0  1  0  0  0  0  0  0  0  0
   16.4931   -3.1316   -3.0682 H   0  0  0  1  0  0  0  0  0  0  0  0
   14.4102   -3.5254   -3.2834 C   0  0  0  1  0  0  0  0  0  0  0  0
   14.3835   -2.9999   -4.2151 H   0  0  0  1  0  0  0  0  0  0  0  0
   17.1370   -5.3133   -2.4500 O   0  0  0  1  0  0  0  0  0  0  0  0
   13.6611   -5.7702   -1.4145 O   0  0  0  1  0  0  0  0  0  0  0  0
   13.3663   -4.8606   -1.3291 H   0  0  0  1  0  0  0  0  0  0  0  0
   15.5568   -5.2451   -4.4905 O   0  0  0  1  0  0  0  0  0  0  0  0
   16.2391   -4.5798   -4.3742 H   0  0  0  1  0  0  0  0  0  0  0  0
   15.4025   -1.6190   -2.0860 C   0  0  0  1  0  0  0  0  0  0  0  0
   16.3453   -1.1130   -2.0763 H   0  0  0  1  0  0  0  0  0  0  0  0
   14.9641   -1.5745   -1.1109 H   0  0  0  1  0  0  0  0  0  0  0  0
   14.7519   -1.1468   -2.7920 H   0  0  0  1  0  0  0  0  0  0  0  0
   19.4048   -5.9194   -0.6652 C   0  0  0  1  0  0  0  0  0  0  0  0
   18.6935   -6.7043   -0.8167 H   0  0  0  1  0  0  0  0  0  0  0  0
   18.6989   -4.5721   -0.7887 C   0  0  0  1  0  0  0  0  0  0  0  0
   19.3883   -3.7875   -0.5562 H   0  0  0  1  0  0  0  0  0  0  0  0
   20.4388   -6.0320   -1.6346 O   0  0  0  1  0  0  0  0  0  0  0  0
   18.1824   -4.3870   -2.2139 C   0  0  0  1  0  0  0  0  0  0  0  0
   17.8080   -3.3906   -2.3225 H   0  0  0  1  0  0  0  0  0  0  0  0
   19.9589   -5.9654   -2.9866 C   0  0  0  1  0  0  0  0  0  0  0  0
   20.7816   -6.0776   -3.6615 H   0  0  0  1  0  0  0  0  0  0  0  0
   19.2828   -4.6146   -3.2300 C   0  0  0  1  0  0  0  0  0  0  0  0
   18.8625   -4.6026   -4.2140 H   0  0  0  1  0  0  0  0  0  0  0  0
   17.5796   -4.5264    0.1403 N   0  0  0  1  0  0  0  0  0  0  0  0
   17.2707   -5.3612    0.5501 H   0  0  0  1  0  0  0  0  0  0  0  0
   20.2552   -3.5727   -3.1136 O   0  0  0  1  0  0  0  0  0  0  0  0
   20.9038   -3.8767   -2.4745 H   0  0  0  1  0  0  0  0  0  0  0  0
   18.9667   -7.0685   -3.2182 C   0  0  0  1  0  0  0  0  0  0  0  0
   18.0863   -6.8822   -2.6394 H   0  0  0  1  0  0  0  0  0  0  0  0
   19.3975   -8.0023   -2.9227 H   0  0  0  1  0  0  0  0  0  0  0  0
   18.6226   -7.1219   -4.5994 O   0  0  0  1  0  0  0  0  0  0  0  0
   18.8438   -6.2765   -4.9968 H   0  0  0  1  0  0  0  0  0  0  0  0
   16.9559   -3.3809    0.4553 C   0  0  0  1  0  0  0  0  0  0  0  0
   17.3151   -2.2837    0.0300 O   0  0  0  1  0  0  0  0  0  0  0  0
   15.7567   -3.5144    1.3851 C   0  0  0  1  0  0  0  0  0  0  0  0
   14.9991   -2.9103    0.9311 H   0  0  0  1  0  0  0  0  0  0  0  0
   15.9941   -3.1518    2.3634 H   0  0  0  1  0  0  0  0  0  0  0  0
   15.4394   -4.5342    1.4495 H   0  0  0  1  0  0  0  0  0  0  0  0
  1  2  1  0  0  0  0
  1  3  1  0  0  0  0
  1  4  1  0  0  0  0
  1 44  1  0  0  0  0
  3 20  1  0  0  0  0
  4  5  1  0  0  0  0
  4  6  1  0  0  0  0
  4  8  1  0  0  0  0
  6  7  1  0  0  0  0
  8  9  1  0  0  0  0
  8 10  1  0  0  0  0
  8 20  1  0  0  0  0
 10 11  1  0  0  0  0
 12 13  1  0  0  0  0
 12 14  1  0  0  0  0
 12 15  1  0  0  0  0
 12 17  1  0  0  0  0
 15 16  1  0  0  0  0
 17 18  1  0  0  0  0
 17 19  1  0  0  0  0
 17 20  1  0  0  0  0
 19 22  1  0  0  0  0
 20 21  1  0  0  0  0
 22 23  1  0  0  0  0
 22 24  1  0  0  0  0
 22 25  1  0  0  0  0
 24 42  1  0  0  0  0
 25 26  1  0  0  0  0
 25 27  1  0  0  0  0
 25 29  1  0  0  0  0
 27 28  1  0  0  0  0
 29 30  1  0  0  0  0
 29 31  1  0  0  0  0
 29 42  1  0  0  0  0
 31 32  1  0  0  0  0
 33 34  1  0  0  0  0
 33 35  1  0  0  0  0
 33 36  1  0  0  0  0
 33 38  1  0  0  0  0
 36 37  1  0  0  0  0
 38 39  1  0  0  0  0
 38 40  1  0  0  0  0
 38 42  1  0  0  0  0
 40 41  1  0  0  0  0
 42 43  1  0  0  0  0
 44194  1  0  0  0  0
 45 46  1  0  0  0  0
 45 54  1  0  0  0  0
 46 47  1  0  0  0  0
 46 48  1  0  0  0  0
 46 49  2  0  0  0  0
 47 50  1  0  0  0  0
 50 51  1  0  0  0  0
 50 52  1  0  0  0  0
 50 53  2  0  0  0  0
 51205  1  0  0  0  0
 54 55  1  0  0  0  0
 54 56  1  0  0  0  0
 54 57  1  0  0  0  0
 57 58  1  0  0  0  0
 57 59  2  0  0  0  0
 59 60  1  0  0  0  0
 59 64  1  0  0  0  0
 60 61  1  0  0  0  0
 60 62  1  0  0  0  0
 60 63  1  0  0  0  0
 64 65  1  0  0  0  0
 64 66  1  0  0  0  0
 64 67  1  0  0  0  0
 67 68  1  0  0  0  0
 67 69  1  0  0  0  0
 67 70  1  0  0  0  0
 70 71  1  0  0  0  0
 70 72  2  0  0  0  0
 72 73  1  0  0  0  0
 72 77  1  0  0  0  0
 73 74  1  0  0  0  0
 73 75  1  0  0  0  0
 73 76  1  0  0  0  0
 77 78  1  0  0  0  0
 77 79  1  0  0  0  0
 77 80  1  0  0  0  0
 80 81  1  0  0  0  0
 80 82  1  0  0  0  0
 80 83  1  0  0  0  0
 83 84  1  0  0  0  0
 83 85  2  0  0  0  0
 85 86  1  0  0  0  0
 85 89  1  0  0  0  0
 86 87  1  0  0  0  0
 86 88  1  0  0  0  0
 86 93  1  0  0  0  0
 89 90  1  0  0  0  0
 89 91  1  0  0  0  0
 89 92  1  0  0  0  0
 93 94  1  0  0  0  0
 93 95  1  0  0  0  0
 93 96  1  0  0  0  0
 96 97  1  0  0  0  0
 96 98  2  0  0  0  0
 98 99  1  0  0  0  0
 98102  1  0  0  0  0
 99100  1  0  0  0  0
 99101  1  0  0  0  0
 99106  1  0  0  0  0
102103  1  0  0  0  0
102104  1  0  0  0  0
102105  1  0  0  0  0
106107  1  0  0  0  0
106108  1  0  0  0  0
106109  1  0  0  0  0
109110  1  0  0  0  0
109111  2  0  0  0  0
111112  1  0  0  0  0
111115  1  0  0  0  0
112113  1  0  0  0  0
112114  1  0  0  0  0
112119  1  0  0  0  0
115116  1  0  0  0  0
115117  1  0  0  0  0
115118  1  0  0  0  0
119120  1  0  0  0  0
119121  1  0  0  0  0
119122  1  0  0  0  0
122123  1  0  0  0  0
122124  2  0  0  0  0
124125  1  0  0  0  0
124128  1  0  0  0  0
125126  1  0  0  0  0
125127  1  0  0  0  0
125132  1  0  0  0  0
128129  1  0  0  0  0
128130  1  0  0  0  0
128131  1  0  0  0  0
132133  1  0  0  0  0
132134  1  0  0  0  0
132135  1  0  0  0  0
135136  1  0  0  0  0
135137  2  0  0  0  0
137138  1  0  0  0  0
137141  1  0  0  0  0
138139  1  0  0  0  0
138140  1  0  0  0  0
138145  1  0  0  0  0
141142  1  0  0  0  0
141143  1  0  0  0  0
141144  1  0  0  0  0
145146  1  0  0  0  0
145147  1  0  0  0  0
145148  1  0  0  0  0
148149  1  0  0  0  0
148150  2  0  0  0  0
150151  1  0  0  0  0
150154  1  0  0  0  0
151152  1  0  0  0  0
151153  1  0  0  0  0
151158  1  0  0  0  0
154155  1  0  0  0  0
154156  1  0  0  0  0
154157  1  0  0  0  0
158159  1  0  0  0  0
158160  1  0  0  0  0
158161  1  0  0  0  0
161162  1  0  0  0  0
161163  2  0  0  0  0
163164  1  0  0  0  0
163167  1  0  0  0  0
164165  1  0  0  0  0
164166  1  0  0  0  0
164171  1  0  0  0  0
167168  1  0  0  0  0
167169  1  0  0  0  0
167170  1  0  0  0  0
171172  1  0  0  0  0
171173  1  0  0  0  0
171174  1  0  0  0  0
174175  1  0  0  0  0
174176  2  0  0  0  0
176177  1  0  0  0  0
176181  1  0  0  0  0
177178  1  0  0  0  0
177179  1  0  0  0  0
177180  1  0  0  0  0
181182  1  0  0  0  0
181183  1  0  0  0  0
181184  1  0  0  0  0
185186  1  0  0  0  0
185187  1  0  0  0  0
185189  1  0  0  0  0
185196  1  0  0  0  0
187188  1  0  0  0  0
187190  1  0  0  0  0
187197  1  0  0  0  0
189192  1  0  0  0  0
190191  1  0  0  0  0
190194  1  0  0  0  0
190199  1  0  0  0  0
192193  1  0  0  0  0
192194  1  0  0  0  0
192201  1  0  0  0  0
194195  1  0  0  0  0
196210  1  0  0  0  0
197198  1  0  0  0  0
199200  1  0  0  0  0
201202  1  0  0  0  0
201203  1  0  0  0  0
201204  1  0  0  0  0
205206  1  0  0  0  0
205207  1  0  0  0  0
205209  1  0  0  0  0
207208  1  0  0  0  0
207210  1  0  0  0  0
207216  1  0  0  0  0
209212  1  0  0  0  0
210211  1  0  0  0  0
210214  1  0  0  0  0
212213  1  0  0  0  0
212214  1  0  0  0  0
212220  1  0  0  0  0
214215  1  0  0  0  0
214218  1  0  0  0  0
216217  1  0  0  0  0
216225  1  0  0  0  0
218219  1  0  0  0  0
220221  1  0  0  0  0
220222  1  0  0  0  0
220223  1  0  0  0  0
223224  1  0  0  0  0
225226  2  0  0  0  0
225227  1  0  0  0  0
227228  1  0  0  0  0
227229  1  0  0  0  0
227230  1  0  0  0  0
M  BCL ATM C_TeTeTeTe H_S O_Te2Te2TeTe C_TeTeTeTe H_S O_Te2Te2TeTe H_S C_TeTeTeTe H_S O_Te2Te2TeTe H_S C_TeTeTeTe H_S H_S O_Te2Te2TeTe H_S C_TeTeTeTe H_S O_Te2Te2TeTe C_TeTeTeTe H_S C_TeTeTeTe H_S O_Te2Te2TeTe C_TeTeTeTe H_S O_Te2Te2TeTe H_S C_TeTeTeTe H_S O_Te2Te2TeTe H_S C_TeTeTeTe H_S H_S O_Te2Te2TeTe H_S C_TeTeTeTe H_S O_Te2Te2TeTe H_S C_TeTeTeTe H_S O_Te2Te2TeTe O_Tr2TrTrPi2 P_TeTeTeTePi O_Tr2TrTrPi2 O_Te2Te2TeTe O_Tr2Tr2TrPi P_TeTeTeTePi O_Tr2TrTrPi2 O_Te2Te2TeTe O_Tr2Tr2TrPi C_TeTeTeTe H_S H_S C_TrTrTrPi H_S C_TrTrTrPi C_TeTeTeTe H_S H_S H_S C_TeTeTeTe H_S H_S C_TeTeTeTe H_S H_S C_TrTrTrPi H_S C_TrTrTrPi C_TeTeTeTe H_S H_S H_S C_TeTeTeTe H_S H_S C_TeTeTeTe H_S H_S C_TrTrTrPi H_S C_TrTrTrPi C_TeTeTeTe H_S H_S C_TeTeTeTe H_S H_S H_S C_TeTeTeTe H_S H_S C_TrTrTrPi H_S C_TrTrTrPi C_TeTeTeTe H_S H_S C_TeTeTeTe H_S H_S H_S C_TeTeTeTe H_S H_S C_TrTrTrPi H_S C_TrTrTrPi C_TeTeTeTe H_S H_S C_TeTeTeTe H_S H_S H_S C_TeTeTeTe H_S H_S C_TrTrTrPi H_S C_TrTrTrPi C_TeTeTeTe H_S H_S C_TeTeTeTe H_S H_S H_S C_TeTeTeTe H_S H_S C_TrTrTrPi H_S C_TrTrTrPi C_TeTeTeTe H_S H_S C_TeTeTeTe H_S H_S H_S C_TeTeTeTe H_S H_S C_TrTrTrPi H_S C_TrTrTrPi C_TeTeTeTe H_S H_S C_TeTeTeTe H_S H_S H_S C_TeTeTeTe H_S H_S C_TrTrTrPi H_S C_TrTrTrPi C_TeTeTeTe H_S H_S C_TeTeTeTe H_S H_S H_S C_TeTeTeTe H_S H_S C_TrTrTrPi H_S C_TrTrTrPi C_TeTeTeTe H_S H_S H_S C_TeTeTeTe H_S H_S H_S C_TeTeTeTe H_S C_TeTeTeTe H_S O_Te2Te2TeTe C_TeTeTeTe H_S C_TeTeTeTe H_S C_TeTeTeTe H_S O_Te2Te2TeTe O_Te2Te2TeTe H_S O_Te2Te2TeTe H_S C_TeTeTeTe H_S H_S H_S C_TeTeTeTe H_S C_TeTeTeTe H_S O_Te2Te2TeTe C_TeTeTeTe H_S C_TeTeTeTe H_S C_TeTeTeTe H_S N_TrTrTrPi2 H_S O_Te2Te2TeTe H_S C_TeTeTeTe H_S H_S O_Te2Te2TeTe H_S C_TrTrTrPi O_Tr2Tr2TrPi C_TeTeTeTe H_S H_S H_S
M  BCL BND NonConjugatedSingleBond NonConjugatedSingleBondInRing NonConjugatedSingleBondInRing NonConjugatedSingleBond NonConjugatedSingleBondInRing NonConjugatedSingleBond NonConjugatedSingleBond NonConjugatedSingleBondInRing NonConjugatedSingleBond NonConjugatedSingleBond NonConjugatedSingleBond NonConjugatedSingleBondInRing NonConjugatedSingleBond NonConjugatedSingleBond NonConjugatedSingleBond NonConjugatedSingleBond NonConjugatedSingleBond NonConjugatedSingleBond NonConjugatedSingleBond NonConjugatedSingleBond NonConjugatedSingleBond NonConjugatedSingleBond NonConjugatedSingleBond NonConjugatedSingleBond NonConjugatedSingleBondInRing NonConjugatedSingleBondInRing NonConjugatedSingleBondInRing NonConjugatedSingleBond NonConjugatedSingleBond NonConjugatedSingleBondInRing NonConjugatedSingleBond NonConjugatedSingleBond NonConjugatedSingleBond NonConjugatedSingleBondInRing NonConjugatedSingleBond NonConjugatedSingleBond NonConjugatedSingleBond NonConjugatedSingleBond NonConjugatedSingleBond NonConjugatedSingleBond NonConjugatedSingleBond NonConjugatedSingleBond NonConjugatedSingleBond NonConjugatedSingleBond NonConjugatedSingleBond NonConjugatedSingleBond ConjugatedSingleBond NonConjugatedSingleBond ConjugatedSingleBond ConjugatedSingleBond ConjugatedDoubleBond ConjugatedSingleBond ConjugatedSingleBond ConjugatedSingleBond ConjugatedDoubleBond NonConjugatedSingleBond NonConjugatedSingleBond NonConjugatedSingleBond NonConjugatedSingleBond NonConjugatedSingleBond ConjugatedDoubleBond NonConjugatedSingleBond NonConjugatedSingleBond NonConjugatedSingleBond NonConjugatedSingleBond NonConjugatedSingleBond NonConjugatedSingleBond NonConjugatedSingleBond NonConjugatedSingleBond NonConjugatedSingleBond NonConjugatedSingleBond NonConjugatedSingleBond NonConjugatedSingleBond ConjugatedDoubleBond NonConjugatedSingleBond NonConjugatedSingleBond NonConjugatedSingleBond NonConjugatedSingleBond NonConjugatedSingleBond NonConjugatedSingleBond NonConjugatedSingleBond NonConjugatedSingleBond NonConjugatedSingleBond NonConjugatedSingleBond NonConjugatedSingleBond NonConjugatedSingleBond ConjugatedDoubleBond NonConjugatedSingleBond NonConjugatedSingleBond NonConjugatedSingleBond NonConjugatedSingleBond NonConjugatedSingleBond NonConjugatedSingleBond NonConjugatedSingleBond NonConjugatedSingleBond NonConjugatedSingleBond NonConjugatedSingleBond NonConjugatedSingleBond NonConjugatedSingleBond ConjugatedDoubleBond NonConjugatedSingleBond NonConjugatedSingleBond NonConjugatedSingleBond NonConjugatedSingleBond NonConjugatedSingleBond NonConjugatedSingleBond NonConjugatedSingleBond NonConjugatedSingleBond NonConjugatedSingleBond NonConjugatedSingleBond NonConjugatedSingleBond NonConjugatedSingleBond ConjugatedDoubleBond NonConjugatedSingleBond NonConjugatedSingleBond NonConjugatedSingleBond NonConjugatedSingleBond NonConjugatedSingleBond NonConjugatedSingleBond NonConjugatedSingleBond NonConjugatedSingleBond NonConjugatedSingleBond NonConjugatedSingleBond NonConjugatedSingleBond NonConjugatedSingleBond ConjugatedDoubleBond NonConjugatedSingleBond NonConjugatedSingleBond NonConjugatedSingleBond NonConjugatedSingleBond NonConjugatedSingleBond NonConjugatedSingleBond NonConjugatedSingleBond NonConjugatedSingleBond NonConjugatedSingleBond NonConjugatedSingleBond NonConjugatedSingleBond NonConjugatedSingleBond ConjugatedDoubleBond NonConjugatedSingleBond NonConjugatedSingleBond NonConjugatedSingleBond NonConjugatedSingleBond NonConjugatedSingleBond NonConjugatedSingleBond NonConjugatedSingleBond NonConjugatedSingleBond NonConjugatedSingleBond NonConjugatedSingleBond NonConjugatedSingleBond NonConjugatedSingleBond ConjugatedDoubleBond NonConjugatedSingleBond NonConjugatedSingleBond NonConjugatedSingleBond NonConjugatedSingleBond NonConjugatedSingleBond NonConjugatedSingleBond NonConjugatedSingleBond NonConjugatedSingleBond NonConjugatedSingleBond NonConjugatedSingleBond NonConjugatedSingleBond NonConjugatedSingleBond ConjugatedDoubleBond NonConjugatedSingleBond NonConjugatedSingleBond NonConjugatedSingleBond NonConjugatedSingleBond NonConjugatedSingleBond NonConjugatedSingleBond NonConjugatedSingleBond NonConjugatedSingleBond NonConjugatedSingleBond NonConjugatedSingleBond NonConjugatedSingleBond NonConjugatedSingleBond ConjugatedDoubleBond NonConjugatedSingleBond NonConjugatedSingleBond NonConjugatedSingleBond NonConjugatedSingleBond NonConjugatedSingleBond NonConjugatedSingleBond NonConjugatedSingleBond NonConjugatedSingleBond NonConjugatedSingleBond NonConjugatedSingleBondInRing NonConjugatedSingleBondInRing NonConjugatedSingleBond NonConjugatedSingleBond NonConjugatedSingleBondInRing NonConjugatedSingleBond NonConjugatedSingleBondInRing NonConjugatedSingleBond NonConjugatedSingleBondInRing NonConjugatedSingleBond NonConjugatedSingleBond NonConjugatedSingleBondInRing NonConjugatedSingleBond NonConjugatedSingleBond NonConjugatedSingleBond NonConjugatedSingleBond NonConjugatedSingleBond NonConjugatedSingleBond NonConjugatedSingleBond NonConjugatedSingleBond NonConjugatedSingleBond NonConjugatedSingleBondInRing NonConjugatedSingleBondInRing NonConjugatedSingleBond NonConjugatedSingleBondInRing NonConjugatedSingleBond NonConjugatedSingleBondInRing NonConjugatedSingleBond NonConjugatedSingleBondInRing NonConjugatedSingleBond NonConjugatedSingleBondInRing NonConjugatedSingleBond NonConjugatedSingleBond NonConjugatedSingleBond NonConjugatedSingleBond AmideSingleBond NonConjugatedSingleBond NonConjugatedSingleBond NonConjugatedSingleBond NonConjugatedSingleBond NonConjugatedSingleBond ConjugatedDoubleBond NonConjugatedSingleBond NonConjugatedSingleBond NonConjugatedSingleBond NonConjugatedSingleBond
M  BCL CHI   1   R   4   R   8   R  17   S  20   R  22   S  25   R  29   S  38   S  42   R  46   R  50   S 185   R 187   S 190   S 192   R 194   R 205   R 207   S 210   R 212   S 214   S
M  BCL DBI - - E E E E E E E E Z - -
M  END
> <ConfClashScore>
0.0217397 

> <ConfOneFourInteractionScore>
-0.959987 

> <ConfScore>
2.43844 

> <ConfScorePBest>
0.00541646 

> <ConfTolerance>
5.13543 

$$$$
L05.****
  PyMOL2.5          3D                             0

230233  0  0  0  0  0  0  0  0999 V2000
   12.4846   -2.1956   -3.3689 C   0  0  0  1  0  0  0  0  0  0  0  0
   12.7040   -2.2547   -4.4145 H   0  0  0  1  0  0  0  0  0  0  0  0
   12.7203   -0.8887   -2.8887 O   0  0  0  1  0  0  0  0  0  0  0  0
   11.0107   -2.4600   -3.1206 C   0  0  0  1  0  0  0  0  0  0  0  0
   10.8223   -3.5044   -2.9842 H   0  0  0  1  0  0  0  0  0  0  0  0
   10.2090   -1.9672   -4.1953 O   0  0  0  1  0  0  0  0  0  0  0  0
    9.4022   -1.5839   -3.8436 H   0  0  0  1  0  0  0  0  0  0  0  0
   10.7543   -1.6893   -1.8512 C   0  0  0  1  0  0  0  0  0  0  0  0
    9.7181   -1.4446   -1.7455 H   0  0  0  1  0  0  0  0  0  0  0  0
   11.1921   -2.4167   -0.7025 O   0  0  0  1  0  0  0  0  0  0  0  0
   10.4317   -2.6660   -0.1721 H   0  0  0  1  0  0  0  0  0  0  0  0
    9.4010    0.7130   -2.2169 C   0  0  0  1  0  0  0  0  0  0  0  0
    8.8842   -0.2086   -2.3856 H   0  0  0  1  0  0  0  0  0  0  0  0
    9.4667    0.8983   -1.1652 H   0  0  0  1  0  0  0  0  0  0  0  0
    8.6898    1.7744   -2.8402 O   0  0  0  1  0  0  0  0  0  0  0  0
    7.7461    1.6326   -2.7357 H   0  0  0  1  0  0  0  0  0  0  0  0
   10.8065    0.6213   -2.8047 C   0  0  0  1  0  0  0  0  0  0  0  0
   11.2942    1.5674   -2.6947 H   0  0  0  1  0  0  0  0  0  0  0  0
   10.6683    0.2880   -4.1811 O   0  0  0  1  0  0  0  0  0  0  0  0
   11.6026   -0.4383   -2.0757 C   0  0  0  1  0  0  0  0  0  0  0  0
   11.9494   -0.0457   -1.1427 H   0  0  0  1  0  0  0  0  0  0  0  0
   10.4671    1.4110   -4.9609 C   0  0  0  1  0  0  0  0  0  0  0  0
    9.6006    1.9352   -4.6154 H   0  0  0  1  0  0  0  0  0  0  0  0
   11.6358    2.2747   -4.9259 O   0  0  0  1  0  0  0  0  0  0  0  0
   10.3116    1.0244   -6.4311 C   0  0  0  1  0  0  0  0  0  0  0  0
    9.2858    0.8545   -6.6837 H   0  0  0  1  0  0  0  0  0  0  0  0
   11.0795   -0.1375   -6.7486 O   0  0  0  1  0  0  0  0  0  0  0  0
   11.9991    0.0133   -6.5177 H   0  0  0  1  0  0  0  0  0  0  0  0
   10.8533    2.2479   -7.1242 C   0  0  0  1  0  0  0  0  0  0  0  0
   10.1215    3.0277   -7.1614 H   0  0  0  1  0  0  0  0  0  0  0  0
   11.2891    1.9414   -8.4455 O   0  0  0  1  0  0  0  0  0  0  0  0
   10.5892    2.1472   -9.0696 H   0  0  0  1  0  0  0  0  0  0  0  0
   13.1526    4.6427   -5.1850 C   0  0  0  1  0  0  0  0  0  0  0  0
   12.5492    4.7371   -4.3064 H   0  0  0  1  0  0  0  0  0  0  0  0
   13.9383    3.9391   -5.0048 H   0  0  0  1  0  0  0  0  0  0  0  0
   13.7309    5.9063   -5.4787 O   0  0  0  1  0  0  0  0  0  0  0  0
   14.6844    5.8151   -5.5432 H   0  0  0  1  0  0  0  0  0  0  0  0
   12.2827    4.1232   -6.3213 C   0  0  0  1  0  0  0  0  0  0  0  0
   12.7897    4.3185   -7.2431 H   0  0  0  1  0  0  0  0  0  0  0  0
   11.0685    4.8683   -6.2832 O   0  0  0  1  0  0  0  0  0  0  0  0
   11.0711    5.4461   -5.5165 H   0  0  0  1  0  0  0  0  0  0  0  0
   12.0222    2.6335   -6.2359 C   0  0  0  1  0  0  0  0  0  0  0  0
   12.9033    2.0996   -6.5250 H   0  0  0  1  0  0  0  0  0  0  0  0
   13.2843   -3.1365   -2.6619 O   0  0  0  1  0  0  0  0  0  0  0  0
   18.1551  -10.3913   -5.2148 O   0  0  0  1  0  0  0  0  0  0  0  0
   18.0911   -9.5398   -6.5467 P   0  0  0  1  0  0  0  0  0  0  0  0
   18.8662   -8.2103   -6.0450 O   0  0  0  1  0  0  0  0  0  0  0  0
   16.6493   -9.2621   -6.7343 O   0  0  0  0  0  0  0  0  0  0  0  0
   18.8524  -10.1291   -7.6637 O   0  0  0  1  0  0  0  0  0  0  0  0
   20.2557   -8.2061   -5.3154 P   0  0  0  1  0  0  0  0  0  0  0  0
   20.0171   -7.8656   -3.8013 O   0  0  0  1  0  0  0  0  0  0  0  0
   21.0322   -7.0693   -5.9757 O   0  0  0  0  0  0  0  0  0  0  0  0
   20.9503   -9.5202   -5.3670 O   0  0  0  1  0  0  0  0  0  0  0  0
   17.5597  -11.6967   -5.2042 C   0  0  0  1  0  0  0  0  0  0  0  0
   17.1994  -11.9283   -6.1847 H   0  0  0  1  0  0  0  0  0  0  0  0
   16.7436  -11.7068   -4.5122 H   0  0  0  1  0  0  0  0  0  0  0  0
   18.5706  -12.7261   -4.7924 C   0  0  0  1  0  0  0  0  0  0  0  0
   18.5656  -13.0060   -3.7908 H   0  0  0  1  0  0  0  0  0  0  0  0
   19.4708  -13.3184   -5.5680 C   0  0  0  1  0  0  0  0  0  0  0  0
   20.4359  -14.3261   -5.0145 C   0  0  0  1  0  0  0  0  0  0  0  0
   21.4282  -14.0821   -5.3318 H   0  0  0  1  0  0  0  0  0  0  0  0
   20.1771  -15.3010   -5.3718 H   0  0  0  1  0  0  0  0  0  0  0  0
   20.3902  -14.3137   -3.9456 H   0  0  0  1  0  0  0  0  0  0  0  0
   19.6157  -13.0512   -7.0398 C   0  0  0  1  0  0  0  0  0  0  0  0
   18.6637  -12.7366   -7.4135 H   0  0  0  1  0  0  0  0  0  0  0  0
   19.9012  -13.9665   -7.5148 H   0  0  0  1  0  0  0  0  0  0  0  0
   20.6392  -11.9907   -7.4118 C   0  0  0  1  0  0  0  0  0  0  0  0
   21.6119  -12.3477   -7.1449 H   0  0  0  1  0  0  0  0  0  0  0  0
   20.4221  -11.0997   -6.8605 H   0  0  0  1  0  0  0  0  0  0  0  0
   20.6369  -11.6605   -8.8706 C   0  0  0  1  0  0  0  0  0  0  0  0
   20.0672  -12.2504   -9.5101 H   0  0  0  1  0  0  0  0  0  0  0  0
   21.3271  -10.6507   -9.3896 C   0  0  0  1  0  0  0  0  0  0  0  0
   21.0952  -10.1048  -10.7702 C   0  0  0  1  0  0  0  0  0  0  0  0
   21.8141  -10.5214  -11.4444 H   0  0  0  1  0  0  0  0  0  0  0  0
   21.1969   -9.0398  -10.7541 H   0  0  0  1  0  0  0  0  0  0  0  0
   20.1094  -10.3646  -11.0952 H   0  0  0  1  0  0  0  0  0  0  0  0
   22.4149   -9.9642   -8.6174 C   0  0  0  1  0  0  0  0  0  0  0  0
   23.3130  -10.5385   -8.7103 H   0  0  0  1  0  0  0  0  0  0  0  0
   22.1252   -9.9182   -7.5885 H   0  0  0  1  0  0  0  0  0  0  0  0
   22.6914   -8.5516   -9.1058 C   0  0  0  1  0  0  0  0  0  0  0  0
   22.9817   -8.5977  -10.1347 H   0  0  0  1  0  0  0  0  0  0  0  0
   23.4924   -8.1417   -8.5267 H   0  0  0  1  0  0  0  0  0  0  0  0
   21.4993   -7.6426   -8.9850 C   0  0  0  1  0  0  0  0  0  0  0  0
   20.7779   -7.8866   -8.2768 H   0  0  0  1  0  0  0  0  0  0  0  0
   21.3017   -6.5650   -9.7062 C   0  0  0  1  0  0  0  0  0  0  0  0
   22.2929   -6.0297  -10.7027 C   0  0  0  1  0  0  0  0  0  0  0  0
   23.2488   -6.4657  -10.5002 H   0  0  0  1  0  0  0  0  0  0  0  0
   22.3529   -4.9677  -10.5865 H   0  0  0  1  0  0  0  0  0  0  0  0
   19.9941   -5.8267   -9.6470 C   0  0  0  1  0  0  0  0  0  0  0  0
   20.0277   -5.1033   -8.8593 H   0  0  0  1  0  0  0  0  0  0  0  0
   19.2012   -6.5205   -9.4601 H   0  0  0  1  0  0  0  0  0  0  0  0
   19.8223   -5.3307  -10.5793 H   0  0  0  1  0  0  0  0  0  0  0  0
   21.9156   -6.3382  -12.1424 C   0  0  0  1  0  0  0  0  0  0  0  0
   20.9505   -5.9292  -12.3576 H   0  0  0  1  0  0  0  0  0  0  0  0
   21.8956   -7.3978  -12.2905 H   0  0  0  1  0  0  0  0  0  0  0  0
   22.9364   -5.7225  -13.0459 C   0  0  0  1  0  0  0  0  0  0  0  0
   22.8362   -4.7044  -13.2328 H   0  0  0  1  0  0  0  0  0  0  0  0
   23.9566   -6.3348  -13.6349 C   0  0  0  1  0  0  0  0  0  0  0  0
   24.0256   -7.8395  -13.7197 C   0  0  0  1  0  0  0  0  0  0  0  0
   23.3734   -8.2526  -12.9789 H   0  0  0  1  0  0  0  0  0  0  0  0
   25.0313   -8.1460  -13.5212 H   0  0  0  1  0  0  0  0  0  0  0  0
   25.1162   -5.6168  -14.2610 C   0  0  0  1  0  0  0  0  0  0  0  0
   25.4080   -6.1231  -15.1573 H   0  0  0  1  0  0  0  0  0  0  0  0
   25.9382   -5.6023  -13.5761 H   0  0  0  1  0  0  0  0  0  0  0  0
   24.8292   -4.6131  -14.4958 H   0  0  0  1  0  0  0  0  0  0  0  0
   23.6152   -8.3786  -15.0804 C   0  0  0  1  0  0  0  0  0  0  0  0
   24.3609   -8.0863  -15.7898 H   0  0  0  1  0  0  0  0  0  0  0  0
   22.6784   -7.9332  -15.3430 H   0  0  0  1  0  0  0  0  0  0  0  0
   23.4578   -9.8721  -15.1613 C   0  0  0  1  0  0  0  0  0  0  0  0
   24.2461  -10.4419  -14.7933 H   0  0  0  1  0  0  0  0  0  0  0  0
   22.4198  -10.5432  -15.6526 C   0  0  0  1  0  0  0  0  0  0  0  0
   21.0639   -9.9672  -15.9408 C   0  0  0  1  0  0  0  0  0  0  0  0
   20.8020  -10.2017  -16.9514 H   0  0  0  1  0  0  0  0  0  0  0  0
   21.1128   -8.9049  -15.8218 H   0  0  0  1  0  0  0  0  0  0  0  0
   22.5690  -12.0063  -15.9616 C   0  0  0  1  0  0  0  0  0  0  0  0
   22.1958  -12.2036  -16.9448 H   0  0  0  1  0  0  0  0  0  0  0  0
   22.0146  -12.5796  -15.2482 H   0  0  0  1  0  0  0  0  0  0  0  0
   23.6029  -12.2775  -15.9117 H   0  0  0  1  0  0  0  0  0  0  0  0
   19.9800  -10.5075  -15.0223 C   0  0  0  1  0  0  0  0  0  0  0  0
   20.1837  -10.1784  -14.0248 H   0  0  0  1  0  0  0  0  0  0  0  0
   20.0052  -11.5766  -15.0578 H   0  0  0  1  0  0  0  0  0  0  0  0
   18.5989  -10.0478  -15.4059 C   0  0  0  1  0  0  0  0  0  0  0  0
   18.4962   -9.5265  -16.3000 H   0  0  0  1  0  0  0  0  0  0  0  0
   17.5012  -10.2584  -14.6875 C   0  0  0  1  0  0  0  0  0  0  0  0
   17.4190  -11.2504  -13.5620 C   0  0  0  1  0  0  0  0  0  0  0  0
   18.3753  -11.7205  -13.4659 H   0  0  0  1  0  0  0  0  0  0  0  0
   16.6847  -11.9841  -13.8217 H   0  0  0  1  0  0  0  0  0  0  0  0
   16.2319   -9.5031  -14.9530 C   0  0  0  1  0  0  0  0  0  0  0  0
   15.9110   -9.6859  -15.9573 H   0  0  0  1  0  0  0  0  0  0  0  0
   16.4058   -8.4558  -14.8195 H   0  0  0  1  0  0  0  0  0  0  0  0
   15.4740   -9.8290  -14.2717 H   0  0  0  1  0  0  0  0  0  0  0  0
   17.0436  -10.6702  -12.2082 C   0  0  0  1  0  0  0  0  0  0  0  0
   17.9184  -10.6767  -11.5922 H   0  0  0  1  0  0  0  0  0  0  0  0
   16.2965  -11.3014  -11.7742 H   0  0  0  1  0  0  0  0  0  0  0  0
   16.5087   -9.2736  -12.2352 C   0  0  0  1  0  0  0  0  0  0  0  0
   17.1930   -8.4946  -12.1552 H   0  0  0  1  0  0  0  0  0  0  0  0
   15.2255   -8.9543  -12.3537 C   0  0  0  1  0  0  0  0  0  0  0  0
   14.1446   -9.9749  -12.1450 C   0  0  0  1  0  0  0  0  0  0  0  0
   13.3097   -9.7344  -12.7696 H   0  0  0  1  0  0  0  0  0  0  0  0
   13.8399   -9.9585  -11.1195 H   0  0  0  1  0  0  0  0  0  0  0  0
   14.7329   -7.5798  -12.6986 C   0  0  0  1  0  0  0  0  0  0  0  0
   13.9633   -7.2936  -12.0126 H   0  0  0  1  0  0  0  0  0  0  0  0
   14.3405   -7.5812  -13.6941 H   0  0  0  1  0  0  0  0  0  0  0  0
   15.5435   -6.8844  -12.6352 H   0  0  0  1  0  0  0  0  0  0  0  0
   14.6436  -11.3675  -12.4944 C   0  0  0  1  0  0  0  0  0  0  0  0
   15.5444  -11.2735  -13.0643 H   0  0  0  1  0  0  0  0  0  0  0  0
   13.8977  -11.8586  -13.0838 H   0  0  0  1  0  0  0  0  0  0  0  0
   14.9296  -12.2128  -11.2822 C   0  0  0  1  0  0  0  0  0  0  0  0
   15.3107  -11.7174  -10.4509 H   0  0  0  1  0  0  0  0  0  0  0  0
   14.7480  -13.5233  -11.1589 C   0  0  0  1  0  0  0  0  0  0  0  0
   13.9213  -14.3452  -12.1113 C   0  0  0  1  0  0  0  0  0  0  0  0
   14.5327  -15.1319  -12.5014 H   0  0  0  1  0  0  0  0  0  0  0  0
   13.5969  -13.7143  -12.9124 H   0  0  0  1  0  0  0  0  0  0  0  0
   15.3680  -14.2995  -10.0347 C   0  0  0  1  0  0  0  0  0  0  0  0
   15.6296  -13.6313   -9.2409 H   0  0  0  1  0  0  0  0  0  0  0  0
   16.2479  -14.7960  -10.3871 H   0  0  0  1  0  0  0  0  0  0  0  0
   14.6688  -15.0248   -9.6741 H   0  0  0  1  0  0  0  0  0  0  0  0
   12.6945  -14.9647  -11.4549 C   0  0  0  1  0  0  0  0  0  0  0  0
   12.0447  -14.1698  -11.1534 H   0  0  0  1  0  0  0  0  0  0  0  0
   13.0202  -15.5066  -10.5917 H   0  0  0  1  0  0  0  0  0  0  0  0
   11.9042  -15.9064  -12.3235 C   0  0  0  1  0  0  0  0  0  0  0  0
   12.0134  -15.7911  -13.3513 H   0  0  0  1  0  0  0  0  0  0  0  0
   11.0821  -16.8690  -11.9196 C   0  0  0  1  0  0  0  0  0  0  0  0
   10.0896  -17.5520  -12.8208 C   0  0  0  1  0  0  0  0  0  0  0  0
   10.5697  -18.3884  -13.2843 H   0  0  0  1  0  0  0  0  0  0  0  0
    9.7780  -16.8573  -13.5726 H   0  0  0  1  0  0  0  0  0  0  0  0
   11.0825  -17.3579  -10.5008 C   0  0  0  1  0  0  0  0  0  0  0  0
   10.0720  -17.2580  -10.1636 H   0  0  0  1  0  0  0  0  0  0  0  0
   11.7376  -16.7620   -9.9002 H   0  0  0  1  0  0  0  0  0  0  0  0
   11.3913  -18.3815  -10.4583 H   0  0  0  1  0  0  0  0  0  0  0  0
    8.8582  -18.0495  -12.0816 C   0  0  0  1  0  0  0  0  0  0  0  0
    9.1803  -18.7426  -11.3328 H   0  0  0  1  0  0  0  0  0  0  0  0
    8.2303  -18.5523  -12.7873 H   0  0  0  1  0  0  0  0  0  0  0  0
    8.0377  -16.9852  -11.4064 C   0  0  0  1  0  0  0  0  0  0  0  0
    7.5349  -17.2668  -10.5407 H   0  0  0  1  0  0  0  0  0  0  0  0
    7.8856  -15.7250  -11.7957 C   0  0  0  1  0  0  0  0  0  0  0  0
    7.0167  -14.7695  -11.0279 C   0  0  0  1  0  0  0  0  0  0  0  0
    6.3411  -14.2824  -11.6996 H   0  0  0  1  0  0  0  0  0  0  0  0
    7.6308  -14.0371  -10.5468 H   0  0  0  1  0  0  0  0  0  0  0  0
    6.4594  -15.3084  -10.2904 H   0  0  0  1  0  0  0  0  0  0  0  0
    8.5496  -15.1340  -13.0156 C   0  0  0  1  0  0  0  0  0  0  0  0
    8.1314  -14.1609  -13.1671 H   0  0  0  1  0  0  0  0  0  0  0  0
    8.3605  -15.7503  -13.8696 H   0  0  0  1  0  0  0  0  0  0  0  0
    9.6050  -15.0578  -12.8568 H   0  0  0  1  0  0  0  0  0  0  0  0
   15.9952   -5.0544   -1.4386 C   0  0  0  1  0  0  0  0  0  0  0  0
   16.1299   -5.5480   -0.4989 H   0  0  0  1  0  0  0  0  0  0  0  0
   14.8263   -5.6880   -2.1819 C   0  0  0  1  0  0  0  0  0  0  0  0
   15.0414   -6.7167   -2.3829 H   0  0  0  1  0  0  0  0  0  0  0  0
   15.7223   -3.6692   -1.2144 O   0  0  0  1  0  0  0  0  0  0  0  0
   14.6239   -4.9351   -3.5006 C   0  0  0  1  0  0  0  0  0  0  0  0
   13.7240   -5.2853   -3.9614 H   0  0  0  1  0  0  0  0  0  0  0  0
   15.6605   -2.9203   -2.4381 C   0  0  0  1  0  0  0  0  0  0  0  0
   16.5826   -3.0315   -2.9693 H   0  0  0  1  0  0  0  0  0  0  0  0
   14.5165   -3.4334   -3.2999 C   0  0  0  1  0  0  0  0  0  0  0  0
   14.5509   -2.9488   -4.2532 H   0  0  0  1  0  0  0  0  0  0  0  0
   17.1789   -5.1846   -2.2175 O   0  0  0  1  0  0  0  0  0  0  0  0
   13.6425   -5.5947   -1.3872 O   0  0  0  1  0  0  0  0  0  0  0  0
   13.1669   -6.4279   -1.4218 H   0  0  0  1  0  0  0  0  0  0  0  0
   15.7281   -5.2033   -4.3526 O   0  0  0  1  0  0  0  0  0  0  0  0
   15.4082   -5.4913   -5.2107 H   0  0  0  1  0  0  0  0  0  0  0  0
   15.4325   -1.4516   -2.1195 C   0  0  0  1  0  0  0  0  0  0  0  0
   15.4823   -0.8785   -3.0217 H   0  0  0  1  0  0  0  0  0  0  0  0
   16.1865   -1.1130   -1.4401 H   0  0  0  1  0  0  0  0  0  0  0  0
   14.4680   -1.3295   -1.6725 H   0  0  0  1  0  0  0  0  0  0  0  0
   19.4143   -6.6659   -3.3655 C   0  0  0  1  0  0  0  0  0  0  0  0
   18.5970   -6.4216   -4.0115 H   0  0  0  1  0  0  0  0  0  0  0  0
   18.9001   -6.8452   -1.9451 C   0  0  0  1  0  0  0  0  0  0  0  0
   19.7242   -7.1165   -1.3189 H   0  0  0  1  0  0  0  0  0  0  0  0
   20.3721   -5.6170   -3.3984 O   0  0  0  1  0  0  0  0  0  0  0  0
   18.3386   -5.5154   -1.4514 C   0  0  0  1  0  0  0  0  0  0  0  0
   18.0703   -5.6102   -0.4199 H   0  0  0  1  0  0  0  0  0  0  0  0
   19.8160   -4.3354   -3.0533 C   0  0  0  1  0  0  0  0  0  0  0  0
   20.5584   -3.5731   -3.1656 H   0  0  0  1  0  0  0  0  0  0  0  0
   19.3606   -4.4086   -1.5973 C   0  0  0  1  0  0  0  0  0  0  0  0
   18.9209   -3.4757   -1.3125 H   0  0  0  1  0  0  0  0  0  0  0  0
   17.8587   -7.8922   -1.8496 N   0  0  0  1  0  0  0  0  0  0  0  0
   17.0579   -7.6959   -1.3200 H   0  0  0  1  0  0  0  0  0  0  0  0
   20.4852   -4.6823   -0.7577 O   0  0  0  1  0  0  0  0  0  0  0  0
   20.1303   -4.9403    0.0962 H   0  0  0  1  0  0  0  0  0  0  0  0
   18.6429   -4.0286   -3.9430 C   0  0  0  1  0  0  0  0  0  0  0  0
   17.9473   -4.8397   -3.8859 H   0  0  0  1  0  0  0  0  0  0  0  0
   18.9923   -3.9280   -4.9493 H   0  0  0  1  0  0  0  0  0  0  0  0
   17.9757   -2.8272   -3.5685 O   0  0  0  1  0  0  0  0  0  0  0  0
   18.5764   -2.0925   -3.7136 H   0  0  0  1  0  0  0  0  0  0  0  0
   17.9391   -9.0629   -2.4269 C   0  0  0  1  0  0  0  0  0  0  0  0
   19.0013   -9.5518   -2.8025 O   0  0  0  1  0  0  0  0  0  0  0  0
   16.6258   -9.7981   -2.6110 C   0  0  0  1  0  0  0  0  0  0  0  0
   16.8942  -10.6988   -3.1226 H   0  0  0  1  0  0  0  0  0  0  0  0
   15.9461   -9.2172   -3.1988 H   0  0  0  1  0  0  0  0  0  0  0  0
   16.1799  -10.0193   -1.6639 H   0  0  0  1  0  0  0  0  0  0  0  0
  1  2  1  0  0  0  0
  1  3  1  0  0  0  0
  1  4  1  0  0  0  0
  1 44  1  0  0  0  0
  3 20  1  0  0  0  0
  4  5  1  0  0  0  0
  4  6  1  0  0  0  0
  4  8  1  0  0  0  0
  6  7  1  0  0  0  0
  8  9  1  0  0  0  0
  8 10  1  0  0  0  0
  8 20  1  0  0  0  0
 10 11  1  0  0  0  0
 12 13  1  0  0  0  0
 12 14  1  0  0  0  0
 12 15  1  0  0  0  0
 12 17  1  0  0  0  0
 15 16  1  0  0  0  0
 17 18  1  0  0  0  0
 17 19  1  0  0  0  0
 17 20  1  0  0  0  0
 19 22  1  0  0  0  0
 20 21  1  0  0  0  0
 22 23  1  0  0  0  0
 22 24  1  0  0  0  0
 22 25  1  0  0  0  0
 24 42  1  0  0  0  0
 25 26  1  0  0  0  0
 25 27  1  0  0  0  0
 25 29  1  0  0  0  0
 27 28  1  0  0  0  0
 29 30  1  0  0  0  0
 29 31  1  0  0  0  0
 29 42  1  0  0  0  0
 31 32  1  0  0  0  0
 33 34  1  0  0  0  0
 33 35  1  0  0  0  0
 33 36  1  0  0  0  0
 33 38  1  0  0  0  0
 36 37  1  0  0  0  0
 38 39  1  0  0  0  0
 38 40  1  0  0  0  0
 38 42  1  0  0  0  0
 40 41  1  0  0  0  0
 42 43  1  0  0  0  0
 44194  1  0  0  0  0
 45 46  1  0  0  0  0
 45 54  1  0  0  0  0
 46 47  1  0  0  0  0
 46 48  1  0  0  0  0
 46 49  2  0  0  0  0
 47 50  1  0  0  0  0
 50 51  1  0  0  0  0
 50 52  1  0  0  0  0
 50 53  2  0  0  0  0
 51205  1  0  0  0  0
 54 55  1  0  0  0  0
 54 56  1  0  0  0  0
 54 57  1  0  0  0  0
 57 58  1  0  0  0  0
 57 59  2  0  0  0  0
 59 60  1  0  0  0  0
 59 64  1  0  0  0  0
 60 61  1  0  0  0  0
 60 62  1  0  0  0  0
 60 63  1  0  0  0  0
 64 65  1  0  0  0  0
 64 66  1  0  0  0  0
 64 67  1  0  0  0  0
 67 68  1  0  0  0  0
 67 69  1  0  0  0  0
 67 70  1  0  0  0  0
 70 71  1  0  0  0  0
 70 72  2  0  0  0  0
 72 73  1  0  0  0  0
 72 77  1  0  0  0  0
 73 74  1  0  0  0  0
 73 75  1  0  0  0  0
 73 76  1  0  0  0  0
 77 78  1  0  0  0  0
 77 79  1  0  0  0  0
 77 80  1  0  0  0  0
 80 81  1  0  0  0  0
 80 82  1  0  0  0  0
 80 83  1  0  0  0  0
 83 84  1  0  0  0  0
 83 85  2  0  0  0  0
 85 86  1  0  0  0  0
 85 89  1  0  0  0  0
 86 87  1  0  0  0  0
 86 88  1  0  0  0  0
 86 93  1  0  0  0  0
 89 90  1  0  0  0  0
 89 91  1  0  0  0  0
 89 92  1  0  0  0  0
 93 94  1  0  0  0  0
 93 95  1  0  0  0  0
 93 96  1  0  0  0  0
 96 97  1  0  0  0  0
 96 98  2  0  0  0  0
 98 99  1  0  0  0  0
 98102  1  0  0  0  0
 99100  1  0  0  0  0
 99101  1  0  0  0  0
 99106  1  0  0  0  0
102103  1  0  0  0  0
102104  1  0  0  0  0
102105  1  0  0  0  0
106107  1  0  0  0  0
106108  1  0  0  0  0
106109  1  0  0  0  0
109110  1  0  0  0  0
109111  2  0  0  0  0
111112  1  0  0  0  0
111115  1  0  0  0  0
112113  1  0  0  0  0
112114  1  0  0  0  0
112119  1  0  0  0  0
115116  1  0  0  0  0
115117  1  0  0  0  0
115118  1  0  0  0  0
119120  1  0  0  0  0
119121  1  0  0  0  0
119122  1  0  0  0  0
122123  1  0  0  0  0
122124  2  0  0  0  0
124125  1  0  0  0  0
124128  1  0  0  0  0
125126  1  0  0  0  0
125127  1  0  0  0  0
125132  1  0  0  0  0
128129  1  0  0  0  0
128130  1  0  0  0  0
128131  1  0  0  0  0
132133  1  0  0  0  0
132134  1  0  0  0  0
132135  1  0  0  0  0
135136  1  0  0  0  0
135137  2  0  0  0  0
137138  1  0  0  0  0
137141  1  0  0  0  0
138139  1  0  0  0  0
138140  1  0  0  0  0
138145  1  0  0  0  0
141142  1  0  0  0  0
141143  1  0  0  0  0
141144  1  0  0  0  0
145146  1  0  0  0  0
145147  1  0  0  0  0
145148  1  0  0  0  0
148149  1  0  0  0  0
148150  2  0  0  0  0
150151  1  0  0  0  0
150154  1  0  0  0  0
151152  1  0  0  0  0
151153  1  0  0  0  0
151158  1  0  0  0  0
154155  1  0  0  0  0
154156  1  0  0  0  0
154157  1  0  0  0  0
158159  1  0  0  0  0
158160  1  0  0  0  0
158161  1  0  0  0  0
161162  1  0  0  0  0
161163  2  0  0  0  0
163164  1  0  0  0  0
163167  1  0  0  0  0
164165  1  0  0  0  0
164166  1  0  0  0  0
164171  1  0  0  0  0
167168  1  0  0  0  0
167169  1  0  0  0  0
167170  1  0  0  0  0
171172  1  0  0  0  0
171173  1  0  0  0  0
171174  1  0  0  0  0
174175  1  0  0  0  0
174176  2  0  0  0  0
176177  1  0  0  0  0
176181  1  0  0  0  0
177178  1  0  0  0  0
177179  1  0  0  0  0
177180  1  0  0  0  0
181182  1  0  0  0  0
181183  1  0  0  0  0
181184  1  0  0  0  0
185186  1  0  0  0  0
185187  1  0  0  0  0
185189  1  0  0  0  0
185196  1  0  0  0  0
187188  1  0  0  0  0
187190  1  0  0  0  0
187197  1  0  0  0  0
189192  1  0  0  0  0
190191  1  0  0  0  0
190194  1  0  0  0  0
190199  1  0  0  0  0
192193  1  0  0  0  0
192194  1  0  0  0  0
192201  1  0  0  0  0
194195  1  0  0  0  0
196210  1  0  0  0  0
197198  1  0  0  0  0
199200  1  0  0  0  0
201202  1  0  0  0  0
201203  1  0  0  0  0
201204  1  0  0  0  0
205206  1  0  0  0  0
205207  1  0  0  0  0
205209  1  0  0  0  0
207208  1  0  0  0  0
207210  1  0  0  0  0
207216  1  0  0  0  0
209212  1  0  0  0  0
210211  1  0  0  0  0
210214  1  0  0  0  0
212213  1  0  0  0  0
212214  1  0  0  0  0
212220  1  0  0  0  0
214215  1  0  0  0  0
214218  1  0  0  0  0
216217  1  0  0  0  0
216225  1  0  0  0  0
218219  1  0  0  0  0
220221  1  0  0  0  0
220222  1  0  0  0  0
220223  1  0  0  0  0
223224  1  0  0  0  0
225226  2  0  0  0  0
225227  1  0  0  0  0
227228  1  0  0  0  0
227229  1  0  0  0  0
227230  1  0  0  0  0
M  BCL ATM C_TeTeTeTe H_S O_Te2Te2TeTe C_TeTeTeTe H_S O_Te2Te2TeTe H_S C_TeTeTeTe H_S O_Te2Te2TeTe H_S C_TeTeTeTe H_S H_S O_Te2Te2TeTe H_S C_TeTeTeTe H_S O_Te2Te2TeTe C_TeTeTeTe H_S C_TeTeTeTe H_S O_Te2Te2TeTe C_TeTeTeTe H_S O_Te2Te2TeTe H_S C_TeTeTeTe H_S O_Te2Te2TeTe H_S C_TeTeTeTe H_S H_S O_Te2Te2TeTe H_S C_TeTeTeTe H_S O_Te2Te2TeTe H_S C_TeTeTeTe H_S O_Te2Te2TeTe O_Tr2TrTrPi2 P_TeTeTeTePi O_Tr2TrTrPi2 O_Te2Te2TeTe O_Tr2Tr2TrPi P_TeTeTeTePi O_Tr2TrTrPi2 O_Te2Te2TeTe O_Tr2Tr2TrPi C_TeTeTeTe H_S H_S C_TrTrTrPi H_S C_TrTrTrPi C_TeTeTeTe H_S H_S H_S C_TeTeTeTe H_S H_S C_TeTeTeTe H_S H_S C_TrTrTrPi H_S C_TrTrTrPi C_TeTeTeTe H_S H_S H_S C_TeTeTeTe H_S H_S C_TeTeTeTe H_S H_S C_TrTrTrPi H_S C_TrTrTrPi C_TeTeTeTe H_S H_S C_TeTeTeTe H_S H_S H_S C_TeTeTeTe H_S H_S C_TrTrTrPi H_S C_TrTrTrPi C_TeTeTeTe H_S H_S C_TeTeTeTe H_S H_S H_S C_TeTeTeTe H_S H_S C_TrTrTrPi H_S C_TrTrTrPi C_TeTeTeTe H_S H_S C_TeTeTeTe H_S H_S H_S C_TeTeTeTe H_S H_S C_TrTrTrPi H_S C_TrTrTrPi C_TeTeTeTe H_S H_S C_TeTeTeTe H_S H_S H_S C_TeTeTeTe H_S H_S C_TrTrTrPi H_S C_TrTrTrPi C_TeTeTeTe H_S H_S C_TeTeTeTe H_S H_S H_S C_TeTeTeTe H_S H_S C_TrTrTrPi H_S C_TrTrTrPi C_TeTeTeTe H_S H_S C_TeTeTeTe H_S H_S H_S C_TeTeTeTe H_S H_S C_TrTrTrPi H_S C_TrTrTrPi C_TeTeTeTe H_S H_S C_TeTeTeTe H_S H_S H_S C_TeTeTeTe H_S H_S C_TrTrTrPi H_S C_TrTrTrPi C_TeTeTeTe H_S H_S H_S C_TeTeTeTe H_S H_S H_S C_TeTeTeTe H_S C_TeTeTeTe H_S O_Te2Te2TeTe C_TeTeTeTe H_S C_TeTeTeTe H_S C_TeTeTeTe H_S O_Te2Te2TeTe O_Te2Te2TeTe H_S O_Te2Te2TeTe H_S C_TeTeTeTe H_S H_S H_S C_TeTeTeTe H_S C_TeTeTeTe H_S O_Te2Te2TeTe C_TeTeTeTe H_S C_TeTeTeTe H_S C_TeTeTeTe H_S N_TrTrTrPi2 H_S O_Te2Te2TeTe H_S C_TeTeTeTe H_S H_S O_Te2Te2TeTe H_S C_TrTrTrPi O_Tr2Tr2TrPi C_TeTeTeTe H_S H_S H_S
M  BCL BND NonConjugatedSingleBond NonConjugatedSingleBondInRing NonConjugatedSingleBondInRing NonConjugatedSingleBond NonConjugatedSingleBondInRing NonConjugatedSingleBond NonConjugatedSingleBond NonConjugatedSingleBondInRing NonConjugatedSingleBond NonConjugatedSingleBond NonConjugatedSingleBond NonConjugatedSingleBondInRing NonConjugatedSingleBond NonConjugatedSingleBond NonConjugatedSingleBond NonConjugatedSingleBond NonConjugatedSingleBond NonConjugatedSingleBond NonConjugatedSingleBond NonConjugatedSingleBond NonConjugatedSingleBond NonConjugatedSingleBond NonConjugatedSingleBond NonConjugatedSingleBond NonConjugatedSingleBondInRing NonConjugatedSingleBondInRing NonConjugatedSingleBondInRing NonConjugatedSingleBond NonConjugatedSingleBond NonConjugatedSingleBondInRing NonConjugatedSingleBond NonConjugatedSingleBond NonConjugatedSingleBond NonConjugatedSingleBondInRing NonConjugatedSingleBond NonConjugatedSingleBond NonConjugatedSingleBond NonConjugatedSingleBond NonConjugatedSingleBond NonConjugatedSingleBond NonConjugatedSingleBond NonConjugatedSingleBond NonConjugatedSingleBond NonConjugatedSingleBond NonConjugatedSingleBond NonConjugatedSingleBond ConjugatedSingleBond NonConjugatedSingleBond ConjugatedSingleBond ConjugatedSingleBond ConjugatedDoubleBond ConjugatedSingleBond ConjugatedSingleBond ConjugatedSingleBond ConjugatedDoubleBond NonConjugatedSingleBond NonConjugatedSingleBond NonConjugatedSingleBond NonConjugatedSingleBond NonConjugatedSingleBond ConjugatedDoubleBond NonConjugatedSingleBond NonConjugatedSingleBond NonConjugatedSingleBond NonConjugatedSingleBond NonConjugatedSingleBond NonConjugatedSingleBond NonConjugatedSingleBond NonConjugatedSingleBond NonConjugatedSingleBond NonConjugatedSingleBond NonConjugatedSingleBond NonConjugatedSingleBond ConjugatedDoubleBond NonConjugatedSingleBond NonConjugatedSingleBond NonConjugatedSingleBond NonConjugatedSingleBond NonConjugatedSingleBond NonConjugatedSingleBond NonConjugatedSingleBond NonConjugatedSingleBond NonConjugatedSingleBond NonConjugatedSingleBond NonConjugatedSingleBond NonConjugatedSingleBond ConjugatedDoubleBond NonConjugatedSingleBond NonConjugatedSingleBond NonConjugatedSingleBond NonConjugatedSingleBond NonConjugatedSingleBond NonConjugatedSingleBond NonConjugatedSingleBond NonConjugatedSingleBond NonConjugatedSingleBond NonConjugatedSingleBond NonConjugatedSingleBond NonConjugatedSingleBond ConjugatedDoubleBond NonConjugatedSingleBond NonConjugatedSingleBond NonConjugatedSingleBond NonConjugatedSingleBond NonConjugatedSingleBond NonConjugatedSingleBond NonConjugatedSingleBond NonConjugatedSingleBond NonConjugatedSingleBond NonConjugatedSingleBond NonConjugatedSingleBond NonConjugatedSingleBond ConjugatedDoubleBond NonConjugatedSingleBond NonConjugatedSingleBond NonConjugatedSingleBond NonConjugatedSingleBond NonConjugatedSingleBond NonConjugatedSingleBond NonConjugatedSingleBond NonConjugatedSingleBond NonConjugatedSingleBond NonConjugatedSingleBond NonConjugatedSingleBond NonConjugatedSingleBond ConjugatedDoubleBond NonConjugatedSingleBond NonConjugatedSingleBond NonConjugatedSingleBond NonConjugatedSingleBond NonConjugatedSingleBond NonConjugatedSingleBond NonConjugatedSingleBond NonConjugatedSingleBond NonConjugatedSingleBond NonConjugatedSingleBond NonConjugatedSingleBond NonConjugatedSingleBond ConjugatedDoubleBond NonConjugatedSingleBond NonConjugatedSingleBond NonConjugatedSingleBond NonConjugatedSingleBond NonConjugatedSingleBond NonConjugatedSingleBond NonConjugatedSingleBond NonConjugatedSingleBond NonConjugatedSingleBond NonConjugatedSingleBond NonConjugatedSingleBond NonConjugatedSingleBond ConjugatedDoubleBond NonConjugatedSingleBond NonConjugatedSingleBond NonConjugatedSingleBond NonConjugatedSingleBond NonConjugatedSingleBond NonConjugatedSingleBond NonConjugatedSingleBond NonConjugatedSingleBond NonConjugatedSingleBond NonConjugatedSingleBond NonConjugatedSingleBond NonConjugatedSingleBond ConjugatedDoubleBond NonConjugatedSingleBond NonConjugatedSingleBond NonConjugatedSingleBond NonConjugatedSingleBond NonConjugatedSingleBond NonConjugatedSingleBond NonConjugatedSingleBond NonConjugatedSingleBond NonConjugatedSingleBond NonConjugatedSingleBond NonConjugatedSingleBond NonConjugatedSingleBond ConjugatedDoubleBond NonConjugatedSingleBond NonConjugatedSingleBond NonConjugatedSingleBond NonConjugatedSingleBond NonConjugatedSingleBond NonConjugatedSingleBond NonConjugatedSingleBond NonConjugatedSingleBond NonConjugatedSingleBond NonConjugatedSingleBondInRing NonConjugatedSingleBondInRing NonConjugatedSingleBond NonConjugatedSingleBond NonConjugatedSingleBondInRing NonConjugatedSingleBond NonConjugatedSingleBondInRing NonConjugatedSingleBond NonConjugatedSingleBondInRing NonConjugatedSingleBond NonConjugatedSingleBond NonConjugatedSingleBondInRing NonConjugatedSingleBond NonConjugatedSingleBond NonConjugatedSingleBond NonConjugatedSingleBond NonConjugatedSingleBond NonConjugatedSingleBond NonConjugatedSingleBond NonConjugatedSingleBond NonConjugatedSingleBond NonConjugatedSingleBondInRing NonConjugatedSingleBondInRing NonConjugatedSingleBond NonConjugatedSingleBondInRing NonConjugatedSingleBond NonConjugatedSingleBondInRing NonConjugatedSingleBond NonConjugatedSingleBondInRing NonConjugatedSingleBond NonConjugatedSingleBondInRing NonConjugatedSingleBond NonConjugatedSingleBond NonConjugatedSingleBond NonConjugatedSingleBond AmideSingleBond NonConjugatedSingleBond NonConjugatedSingleBond NonConjugatedSingleBond NonConjugatedSingleBond NonConjugatedSingleBond ConjugatedDoubleBond NonConjugatedSingleBond NonConjugatedSingleBond NonConjugatedSingleBond NonConjugatedSingleBond
M  BCL CHI   1   R   4   R   8   R  17   S  20   R  22   S  25   R  29   S  38   S  42   R  46   R  50   S 185   R 187   S 190   S 192   R 194   R 205   R 207   S 210   R 212   S 214   S
M  BCL DBI - - E E E E E E E E Z - -
M  END
> <ConfClashScore>
0.0161346 

> <ConfOneFourInteractionScore>
-0.960149 

> <ConfScore>
2.46859 

> <ConfScorePBest>
0.00531345 

> <ConfTolerance>
4.94167 

$$$$
L05.****
  PyMOL2.5          3D                             0

230233  0  0  0  0  0  0  0  0999 V2000
   13.4557   -2.5826   -1.3899 C   0  0  0  1  0  0  0  0  0  0  0  0
   14.1024   -1.7313   -1.4330 H   0  0  0  1  0  0  0  0  0  0  0  0
   14.0133   -3.5822   -0.5383 O   0  0  0  1  0  0  0  0  0  0  0  0
   12.1369   -2.2005   -0.7909 C   0  0  0  1  0  0  0  0  0  0  0  0
   11.4041   -2.0479   -1.5555 H   0  0  0  1  0  0  0  0  0  0  0  0
   12.2631   -1.0128   -0.0075 O   0  0  0  1  0  0  0  0  0  0  0  0
   11.5151   -0.9421    0.5901 H   0  0  0  1  0  0  0  0  0  0  0  0
   11.7618   -3.3836    0.0840 C   0  0  0  1  0  0  0  0  0  0  0  0
   11.6843   -3.0866    1.1091 H   0  0  0  1  0  0  0  0  0  0  0  0
   10.5237   -3.9545   -0.3420 O   0  0  0  1  0  0  0  0  0  0  0  0
   10.5503   -4.9061   -0.2184 H   0  0  0  1  0  0  0  0  0  0  0  0
   12.1765   -6.1170    1.5346 C   0  0  0  1  0  0  0  0  0  0  0  0
   11.2054   -5.6685    1.5099 H   0  0  0  1  0  0  0  0  0  0  0  0
   12.2245   -6.9050    0.8124 H   0  0  0  1  0  0  0  0  0  0  0  0
   12.4186   -6.6485    2.8306 O   0  0  0  1  0  0  0  0  0  0  0  0
   12.8637   -5.9901    3.3690 H   0  0  0  1  0  0  0  0  0  0  0  0
   13.2233   -5.0702    1.2085 C   0  0  0  1  0  0  0  0  0  0  0  0
   14.1655   -5.5651    1.0975 H   0  0  0  1  0  0  0  0  0  0  0  0
   13.3241   -4.0890    2.2340 O   0  0  0  1  0  0  0  0  0  0  0  0
   12.9011   -4.3697   -0.1048 C   0  0  0  1  0  0  0  0  0  0  0  0
   12.6468   -5.0988   -0.8455 H   0  0  0  1  0  0  0  0  0  0  0  0
   14.6469   -3.6820    2.4318 C   0  0  0  1  0  0  0  0  0  0  0  0
   15.3113   -4.4419    2.0767 H   0  0  0  1  0  0  0  0  0  0  0  0
   14.8922   -2.4616    1.7651 O   0  0  0  1  0  0  0  0  0  0  0  0
   14.9008   -3.4002    3.9015 C   0  0  0  1  0  0  0  0  0  0  0  0
   15.2164   -4.2837    4.4162 H   0  0  0  1  0  0  0  0  0  0  0  0
   13.7355   -2.8699    4.5350 O   0  0  0  1  0  0  0  0  0  0  0  0
   13.6333   -3.2677    5.4027 H   0  0  0  1  0  0  0  0  0  0  0  0
   16.0056   -2.3767    3.8473 C   0  0  0  1  0  0  0  0  0  0  0  0
   16.9575   -2.8379    3.6858 H   0  0  0  1  0  0  0  0  0  0  0  0
   16.0509   -1.5971    5.0389 O   0  0  0  1  0  0  0  0  0  0  0  0
   15.6017   -2.0660    5.7459 H   0  0  0  1  0  0  0  0  0  0  0  0
   16.4316   -0.1969    0.6906 C   0  0  0  1  0  0  0  0  0  0  0  0
   16.0547   -0.8921   -0.0302 H   0  0  0  1  0  0  0  0  0  0  0  0
   15.6771    0.5273    0.9169 H   0  0  0  1  0  0  0  0  0  0  0  0
   17.5548    0.4734    0.1339 O   0  0  0  1  0  0  0  0  0  0  0  0
   17.8880   -0.0271   -0.6145 H   0  0  0  1  0  0  0  0  0  0  0  0
   16.7789   -0.9537    1.9632 C   0  0  0  1  0  0  0  0  0  0  0  0
   17.2581   -0.2759    2.6384 H   0  0  0  1  0  0  0  0  0  0  0  0
   17.6502   -2.0458    1.6818 O   0  0  0  1  0  0  0  0  0  0  0  0
   18.5597   -1.7764    1.8295 H   0  0  0  1  0  0  0  0  0  0  0  0
   15.5833   -1.5335    2.6450 C   0  0  0  1  0  0  0  0  0  0  0  0
   14.9281   -0.7443    2.9497 H   0  0  0  1  0  0  0  0  0  0  0  0
   13.2675   -3.1034   -2.7015 O   0  0  0  1  0  0  0  0  0  0  0  0
   24.1493   -2.4064   -2.1678 O   0  0  0  1  0  0  0  0  0  0  0  0
   22.9375   -3.0456   -1.5386 P   0  0  0  1  0  0  0  0  0  0  0  0
   22.4577   -4.2946   -2.4059 O   0  0  0  1  0  0  0  0  0  0  0  0
   21.7169   -2.0727   -1.5264 O   0  0  0  0  0  0  0  0  0  0  0  0
   23.1639   -3.5812   -0.1545 O   0  0  0  1  0  0  0  0  0  0  0  0
   22.2130   -4.5730   -3.9912 P   0  0  0  1  0  0  0  0  0  0  0  0
   21.0925   -5.6356   -3.6966 O   0  0  0  1  0  0  0  0  0  0  0  0
   23.4037   -5.2344   -4.5803 O   0  0  0  0  0  0  0  0  0  0  0  0
   21.6379   -3.3894   -4.6485 O   0  0  0  1  0  0  0  0  0  0  0  0
   25.4266   -3.0576   -2.2516 C   0  0  0  1  0  0  0  0  0  0  0  0
   25.3631   -3.8912   -2.9194 H   0  0  0  1  0  0  0  0  0  0  0  0
   25.7214   -3.3990   -1.2813 H   0  0  0  1  0  0  0  0  0  0  0  0
   26.4254   -2.0795   -2.7639 C   0  0  0  1  0  0  0  0  0  0  0  0
   26.1044   -1.2805   -3.3472 H   0  0  0  1  0  0  0  0  0  0  0  0
   27.7247   -2.2087   -2.4889 C   0  0  0  1  0  0  0  0  0  0  0  0
   28.6857   -1.0769   -2.7099 C   0  0  0  1  0  0  0  0  0  0  0  0
   29.2574   -0.9148   -1.8200 H   0  0  0  1  0  0  0  0  0  0  0  0
   28.1405   -0.1882   -2.9501 H   0  0  0  1  0  0  0  0  0  0  0  0
   29.3443   -1.3211   -3.5171 H   0  0  0  1  0  0  0  0  0  0  0  0
   28.3461   -3.4641   -1.9446 C   0  0  0  1  0  0  0  0  0  0  0  0
   28.3526   -3.3816   -0.8778 H   0  0  0  1  0  0  0  0  0  0  0  0
   29.3524   -3.5059   -2.3057 H   0  0  0  1  0  0  0  0  0  0  0  0
   27.6821   -4.7859   -2.2944 C   0  0  0  1  0  0  0  0  0  0  0  0
   27.5040   -4.8089   -3.3492 H   0  0  0  1  0  0  0  0  0  0  0  0
   26.7496   -4.8470   -1.7733 H   0  0  0  1  0  0  0  0  0  0  0  0
   28.5122   -5.9743   -1.9257 C   0  0  0  1  0  0  0  0  0  0  0  0
   29.2337   -6.2677   -2.6149 H   0  0  0  1  0  0  0  0  0  0  0  0
   28.4279   -6.6957   -0.8130 C   0  0  0  1  0  0  0  0  0  0  0  0
   29.0583   -8.0479   -0.6474 C   0  0  0  1  0  0  0  0  0  0  0  0
   29.9446   -8.1044   -1.2443 H   0  0  0  1  0  0  0  0  0  0  0  0
   28.3687   -8.8036   -0.9610 H   0  0  0  1  0  0  0  0  0  0  0  0
   29.3112   -8.1997    0.3812 H   0  0  0  1  0  0  0  0  0  0  0  0
   27.6760   -6.1990    0.3928 C   0  0  0  1  0  0  0  0  0  0  0  0
   26.7529   -5.7548    0.0840 H   0  0  0  1  0  0  0  0  0  0  0  0
   28.2662   -5.4726    0.9113 H   0  0  0  1  0  0  0  0  0  0  0  0
   27.3950   -7.3788    1.3090 C   0  0  0  1  0  0  0  0  0  0  0  0
   28.2288   -7.5202    1.9646 H   0  0  0  1  0  0  0  0  0  0  0  0
   27.2540   -8.2580    0.7157 H   0  0  0  1  0  0  0  0  0  0  0  0
   26.1653   -7.1354    2.1251 C   0  0  0  1  0  0  0  0  0  0  0  0
   25.8215   -6.1546    2.1642 H   0  0  0  1  0  0  0  0  0  0  0  0
   25.4645   -8.0363    2.8054 C   0  0  0  1  0  0  0  0  0  0  0  0
   25.8145   -9.4950    2.8609 C   0  0  0  1  0  0  0  0  0  0  0  0
   26.6806   -9.6608    2.2549 H   0  0  0  1  0  0  0  0  0  0  0  0
   24.9923  -10.0576    2.4704 H   0  0  0  1  0  0  0  0  0  0  0  0
   24.2405   -7.6528    3.5884 C   0  0  0  1  0  0  0  0  0  0  0  0
   24.4384   -7.7577    4.6347 H   0  0  0  1  0  0  0  0  0  0  0  0
   23.4271   -8.2914    3.3137 H   0  0  0  1  0  0  0  0  0  0  0  0
   23.9845   -6.6361    3.3743 H   0  0  0  1  0  0  0  0  0  0  0  0
   26.1091   -9.9835    4.2698 C   0  0  0  1  0  0  0  0  0  0  0  0
   25.2262   -9.8868    4.8664 H   0  0  0  1  0  0  0  0  0  0  0  0
   26.8918   -9.3878    4.6911 H   0  0  0  1  0  0  0  0  0  0  0  0
   26.5397  -11.4258    4.2555 C   0  0  0  1  0  0  0  0  0  0  0  0
   27.4994  -11.6382    3.9157 H   0  0  0  1  0  0  0  0  0  0  0  0
   25.7818  -12.4522    4.6463 C   0  0  0  1  0  0  0  0  0  0  0  0
   24.3817  -12.2382    5.1519 C   0  0  0  1  0  0  0  0  0  0  0  0
   24.4051  -11.4842    5.9108 H   0  0  0  1  0  0  0  0  0  0  0  0
   24.0271  -13.1564    5.5716 H   0  0  0  1  0  0  0  0  0  0  0  0
   26.2959  -13.8608    4.5970 C   0  0  0  1  0  0  0  0  0  0  0  0
   26.0044  -14.3153    3.6732 H   0  0  0  1  0  0  0  0  0  0  0  0
   25.8864  -14.4184    5.4133 H   0  0  0  1  0  0  0  0  0  0  0  0
   27.3634  -13.8534    4.6694 H   0  0  0  1  0  0  0  0  0  0  0  0
   23.4161  -11.7990    4.0633 C   0  0  0  1  0  0  0  0  0  0  0  0
   23.5778  -12.4082    3.1986 H   0  0  0  1  0  0  0  0  0  0  0  0
   23.6170  -10.7761    3.8222 H   0  0  0  1  0  0  0  0  0  0  0  0
   21.9814  -11.9196    4.4690 C   0  0  0  1  0  0  0  0  0  0  0  0
   21.6819  -11.3522    5.2875 H   0  0  0  1  0  0  0  0  0  0  0  0
   21.0449  -12.6757    3.8952 C   0  0  0  1  0  0  0  0  0  0  0  0
   21.2857  -13.2596    2.5296 C   0  0  0  1  0  0  0  0  0  0  0  0
   20.8722  -14.2465    2.5259 H   0  0  0  1  0  0  0  0  0  0  0  0
   22.3447  -13.3155    2.3875 H   0  0  0  1  0  0  0  0  0  0  0  0
   19.7612  -13.0801    4.5925 C   0  0  0  1  0  0  0  0  0  0  0  0
   19.9063  -14.0138    5.0946 H   0  0  0  1  0  0  0  0  0  0  0  0
   18.9795  -13.1823    3.8690 H   0  0  0  1  0  0  0  0  0  0  0  0
   19.4915  -12.3298    5.3061 H   0  0  0  1  0  0  0  0  0  0  0  0
   20.7051  -12.5188    1.3360 C   0  0  0  1  0  0  0  0  0  0  0  0
   21.1742  -11.5579    1.2965 H   0  0  0  1  0  0  0  0  0  0  0  0
   19.6569  -12.3976    1.5133 H   0  0  0  1  0  0  0  0  0  0  0  0
   20.8620  -13.1522   -0.0191 C   0  0  0  1  0  0  0  0  0  0  0  0
   20.4372  -14.0933   -0.1430 H   0  0  0  1  0  0  0  0  0  0  0  0
   21.4871  -12.6375   -1.0797 C   0  0  0  1  0  0  0  0  0  0  0  0
   21.8461  -11.1797   -1.1395 C   0  0  0  1  0  0  0  0  0  0  0  0
   22.8939  -11.0685   -0.9535 H   0  0  0  1  0  0  0  0  0  0  0  0
   21.2926  -10.6512   -0.3917 H   0  0  0  1  0  0  0  0  0  0  0  0
   21.8567  -13.4936   -2.2550 C   0  0  0  1  0  0  0  0  0  0  0  0
   22.3500  -14.3786   -1.9112 H   0  0  0  1  0  0  0  0  0  0  0  0
   22.5124  -12.9481   -2.9011 H   0  0  0  1  0  0  0  0  0  0  0  0
   20.9711  -13.7645   -2.7910 H   0  0  0  1  0  0  0  0  0  0  0  0
   21.5180  -10.5995   -2.5055 C   0  0  0  1  0  0  0  0  0  0  0  0
   22.1108  -11.1131   -3.2333 H   0  0  0  1  0  0  0  0  0  0  0  0
   21.7830   -9.5629   -2.4961 H   0  0  0  1  0  0  0  0  0  0  0  0
   20.0768  -10.7061   -2.9220 C   0  0  0  1  0  0  0  0  0  0  0  0
   19.3585  -10.3306   -2.2704 H   0  0  0  1  0  0  0  0  0  0  0  0
   19.6528  -11.2445   -4.0604 C   0  0  0  1  0  0  0  0  0  0  0  0
   20.5221  -12.0747   -4.9665 C   0  0  0  1  0  0  0  0  0  0  0  0
   21.5250  -12.0481   -4.5945 H   0  0  0  1  0  0  0  0  0  0  0  0
   20.4939  -11.6503   -5.9483 H   0  0  0  1  0  0  0  0  0  0  0  0
   18.2403  -11.0601   -4.5394 C   0  0  0  1  0  0  0  0  0  0  0  0
   17.6356  -11.8701   -4.1886 H   0  0  0  1  0  0  0  0  0  0  0  0
   18.2262  -11.0420   -5.6092 H   0  0  0  1  0  0  0  0  0  0  0  0
   17.8535  -10.1368   -4.1615 H   0  0  0  1  0  0  0  0  0  0  0  0
   20.0768  -13.5254   -5.0536 C   0  0  0  1  0  0  0  0  0  0  0  0
   19.1981  -13.5650   -5.6628 H   0  0  0  1  0  0  0  0  0  0  0  0
   19.8409  -13.8583   -4.0644 H   0  0  0  1  0  0  0  0  0  0  0  0
   21.0880  -14.4770   -5.6349 C   0  0  0  1  0  0  0  0  0  0  0  0
   22.0011  -14.5416   -5.1412 H   0  0  0  1  0  0  0  0  0  0  0  0
   20.9425  -15.2335   -6.6965 C   0  0  0  1  0  0  0  0  0  0  0  0
   19.8489  -15.0507   -7.7127 C   0  0  0  1  0  0  0  0  0  0  0  0
   19.1592  -14.3208   -7.3432 H   0  0  0  1  0  0  0  0  0  0  0  0
   19.3445  -15.9855   -7.8420 H   0  0  0  1  0  0  0  0  0  0  0  0
   21.9433  -16.3046   -7.0222 C   0  0  0  1  0  0  0  0  0  0  0  0
   22.7092  -15.8989   -7.6496 H   0  0  0  1  0  0  0  0  0  0  0  0
   21.4529  -17.1074   -7.5322 H   0  0  0  1  0  0  0  0  0  0  0  0
   22.3807  -16.6708   -6.1170 H   0  0  0  1  0  0  0  0  0  0  0  0
   20.3645  -14.5880   -9.0656 C   0  0  0  1  0  0  0  0  0  0  0  0
   19.5468  -14.5756   -9.7556 H   0  0  0  1  0  0  0  0  0  0  0  0
   21.1060  -15.2817   -9.4029 H   0  0  0  1  0  0  0  0  0  0  0  0
   20.9717  -13.2267   -9.0248 C   0  0  0  1  0  0  0  0  0  0  0  0
   20.8131  -12.6971   -8.1439 H   0  0  0  1  0  0  0  0  0  0  0  0
   21.6854  -12.5901   -9.9472 C   0  0  0  1  0  0  0  0  0  0  0  0
   22.1267  -11.1622   -9.8192 C   0  0  0  1  0  0  0  0  0  0  0  0
   22.9707  -11.0080  -10.4586 H   0  0  0  1  0  0  0  0  0  0  0  0
   22.4109  -10.9834   -8.8032 H   0  0  0  1  0  0  0  0  0  0  0  0
   22.1136  -13.2694  -11.2175 C   0  0  0  1  0  0  0  0  0  0  0  0
   21.2485  -13.2700  -11.8471 H   0  0  0  1  0  0  0  0  0  0  0  0
   22.4307  -14.2715  -11.0170 H   0  0  0  1  0  0  0  0  0  0  0  0
   22.9122  -12.7279  -11.6801 H   0  0  0  1  0  0  0  0  0  0  0  0
   21.0425  -10.1675  -10.2006 C   0  0  0  1  0  0  0  0  0  0  0  0
   20.1924  -10.3507   -9.5772 H   0  0  0  1  0  0  0  0  0  0  0  0
   20.7799  -10.3414  -11.2231 H   0  0  0  1  0  0  0  0  0  0  0  0
   21.4158   -8.7282  -10.0592 C   0  0  0  1  0  0  0  0  0  0  0  0
   21.2242   -8.2544   -9.1534 H   0  0  0  1  0  0  0  0  0  0  0  0
   21.9813   -8.0227  -11.0346 C   0  0  0  1  0  0  0  0  0  0  0  0
   22.2984   -6.5738  -10.8034 C   0  0  0  1  0  0  0  0  0  0  0  0
   21.5112   -5.9680  -11.2010 H   0  0  0  1  0  0  0  0  0  0  0  0
   23.2184   -6.3281  -11.2914 H   0  0  0  1  0  0  0  0  0  0  0  0
   22.3918   -6.3927   -9.7530 H   0  0  0  1  0  0  0  0  0  0  0  0
   22.3502   -8.5490  -12.4004 C   0  0  0  1  0  0  0  0  0  0  0  0
   23.3027   -8.1341  -12.6560 H   0  0  0  1  0  0  0  0  0  0  0  0
   21.6159   -8.2490  -13.1185 H   0  0  0  1  0  0  0  0  0  0  0  0
   22.4109   -9.6171  -12.3765 H   0  0  0  1  0  0  0  0  0  0  0  0
   15.9362   -5.1042   -1.5100 C   0  0  0  1  0  0  0  0  0  0  0  0
   16.0851   -5.6389   -0.5952 H   0  0  0  1  0  0  0  0  0  0  0  0
   14.7659   -5.7112   -2.2731 C   0  0  0  1  0  0  0  0  0  0  0  0
   14.9775   -6.7343   -2.5044 H   0  0  0  1  0  0  0  0  0  0  0  0
   15.6393   -3.7405   -1.2246 O   0  0  0  1  0  0  0  0  0  0  0  0
   14.5703   -4.9239   -3.5598 C   0  0  0  1  0  0  0  0  0  0  0  0
   13.6566   -5.2393   -4.0187 H   0  0  0  1  0  0  0  0  0  0  0  0
   15.6478   -2.9543   -2.4231 C   0  0  0  1  0  0  0  0  0  0  0  0
   16.5804   -3.0831   -2.9315 H   0  0  0  1  0  0  0  0  0  0  0  0
   14.5034   -3.4201   -3.3226 C   0  0  0  1  0  0  0  0  0  0  0  0
   14.5704   -2.9146   -4.2632 H   0  0  0  1  0  0  0  0  0  0  0  0
   17.1154   -5.1812   -2.3025 O   0  0  0  1  0  0  0  0  0  0  0  0
   13.5911   -5.6378   -1.4843 O   0  0  0  1  0  0  0  0  0  0  0  0
   12.8201   -5.7334   -2.0482 H   0  0  0  1  0  0  0  0  0  0  0  0
   15.6578   -5.1989   -4.4308 O   0  0  0  1  0  0  0  0  0  0  0  0
   16.2652   -5.8069   -4.0030 H   0  0  0  1  0  0  0  0  0  0  0  0
   15.4587   -1.4871   -2.0736 C   0  0  0  1  0  0  0  0  0  0  0  0
   15.9309   -0.8792   -2.8168 H   0  0  0  1  0  0  0  0  0  0  0  0
   15.8987   -1.2887   -1.1186 H   0  0  0  1  0  0  0  0  0  0  0  0
   14.4135   -1.2607   -2.0392 H   0  0  0  1  0  0  0  0  0  0  0  0
   20.0016   -5.5371   -2.8133 C   0  0  0  1  0  0  0  0  0  0  0  0
   19.6364   -4.5314   -2.8075 H   0  0  0  1  0  0  0  0  0  0  0  0
   18.8903   -6.4718   -3.2824 C   0  0  0  1  0  0  0  0  0  0  0  0
   19.2756   -7.4663   -3.3688 H   0  0  0  1  0  0  0  0  0  0  0  0
   20.4283   -5.8870   -1.5028 O   0  0  0  1  0  0  0  0  0  0  0  0
   17.7430   -6.4586   -2.2745 C   0  0  0  1  0  0  0  0  0  0  0  0
   17.0326   -7.2117   -2.5449 H   0  0  0  1  0  0  0  0  0  0  0  0
   19.3871   -5.7796   -0.5194 C   0  0  0  1  0  0  0  0  0  0  0  0
   19.7795   -6.0352    0.4427 H   0  0  0  1  0  0  0  0  0  0  0  0
   18.2428   -6.7326   -0.8708 C   0  0  0  1  0  0  0  0  0  0  0  0
   17.4406   -6.5918   -0.1768 H   0  0  0  1  0  0  0  0  0  0  0  0
   18.3987   -6.0257   -4.5809 N   0  0  0  1  0  0  0  0  0  0  0  0
   18.4341   -5.0752   -4.8169 H   0  0  0  1  0  0  0  0  0  0  0  0
   18.7107   -8.0799   -0.7918 O   0  0  0  1  0  0  0  0  0  0  0  0
   19.6288   -8.0329   -0.5153 H   0  0  0  1  0  0  0  0  0  0  0  0
   18.8670   -4.3587   -0.4916 C   0  0  0  1  0  0  0  0  0  0  0  0
   18.0172   -4.3168    0.1572 H   0  0  0  1  0  0  0  0  0  0  0  0
   18.5739   -4.0810   -1.4825 H   0  0  0  1  0  0  0  0  0  0  0  0
   19.8342   -3.4397   -0.0311 O   0  0  0  1  0  0  0  0  0  0  0  0
   19.4394   -2.5646   -0.0282 H   0  0  0  1  0  0  0  0  0  0  0  0
   17.8954   -6.9188   -5.4580 C   0  0  0  1  0  0  0  0  0  0  0  0
   17.8323   -8.1158   -5.1806 O   0  0  0  1  0  0  0  0  0  0  0  0
   17.4100   -6.4061   -6.7950 C   0  0  0  1  0  0  0  0  0  0  0  0
   17.4797   -5.3415   -6.7132 H   0  0  0  1  0  0  0  0  0  0  0  0
   16.3983   -6.7067   -6.9709 H   0  0  0  1  0  0  0  0  0  0  0  0
   18.0325   -6.7663   -7.5871 H   0  0  0  1  0  0  0  0  0  0  0  0
  1  2  1  0  0  0  0
  1  3  1  0  0  0  0
  1  4  1  0  0  0  0
  1 44  1  0  0  0  0
  3 20  1  0  0  0  0
  4  5  1  0  0  0  0
  4  6  1  0  0  0  0
  4  8  1  0  0  0  0
  6  7  1  0  0  0  0
  8  9  1  0  0  0  0
  8 10  1  0  0  0  0
  8 20  1  0  0  0  0
 10 11  1  0  0  0  0
 12 13  1  0  0  0  0
 12 14  1  0  0  0  0
 12 15  1  0  0  0  0
 12 17  1  0  0  0  0
 15 16  1  0  0  0  0
 17 18  1  0  0  0  0
 17 19  1  0  0  0  0
 17 20  1  0  0  0  0
 19 22  1  0  0  0  0
 20 21  1  0  0  0  0
 22 23  1  0  0  0  0
 22 24  1  0  0  0  0
 22 25  1  0  0  0  0
 24 42  1  0  0  0  0
 25 26  1  0  0  0  0
 25 27  1  0  0  0  0
 25 29  1  0  0  0  0
 27 28  1  0  0  0  0
 29 30  1  0  0  0  0
 29 31  1  0  0  0  0
 29 42  1  0  0  0  0
 31 32  1  0  0  0  0
 33 34  1  0  0  0  0
 33 35  1  0  0  0  0
 33 36  1  0  0  0  0
 33 38  1  0  0  0  0
 36 37  1  0  0  0  0
 38 39  1  0  0  0  0
 38 40  1  0  0  0  0
 38 42  1  0  0  0  0
 40 41  1  0  0  0  0
 42 43  1  0  0  0  0
 44194  1  0  0  0  0
 45 46  1  0  0  0  0
 45 54  1  0  0  0  0
 46 47  1  0  0  0  0
 46 48  1  0  0  0  0
 46 49  2  0  0  0  0
 47 50  1  0  0  0  0
 50 51  1  0  0  0  0
 50 52  1  0  0  0  0
 50 53  2  0  0  0  0
 51205  1  0  0  0  0
 54 55  1  0  0  0  0
 54 56  1  0  0  0  0
 54 57  1  0  0  0  0
 57 58  1  0  0  0  0
 57 59  2  0  0  0  0
 59 60  1  0  0  0  0
 59 64  1  0  0  0  0
 60 61  1  0  0  0  0
 60 62  1  0  0  0  0
 60 63  1  0  0  0  0
 64 65  1  0  0  0  0
 64 66  1  0  0  0  0
 64 67  1  0  0  0  0
 67 68  1  0  0  0  0
 67 69  1  0  0  0  0
 67 70  1  0  0  0  0
 70 71  1  0  0  0  0
 70 72  2  0  0  0  0
 72 73  1  0  0  0  0
 72 77  1  0  0  0  0
 73 74  1  0  0  0  0
 73 75  1  0  0  0  0
 73 76  1  0  0  0  0
 77 78  1  0  0  0  0
 77 79  1  0  0  0  0
 77 80  1  0  0  0  0
 80 81  1  0  0  0  0
 80 82  1  0  0  0  0
 80 83  1  0  0  0  0
 83 84  1  0  0  0  0
 83 85  2  0  0  0  0
 85 86  1  0  0  0  0
 85 89  1  0  0  0  0
 86 87  1  0  0  0  0
 86 88  1  0  0  0  0
 86 93  1  0  0  0  0
 89 90  1  0  0  0  0
 89 91  1  0  0  0  0
 89 92  1  0  0  0  0
 93 94  1  0  0  0  0
 93 95  1  0  0  0  0
 93 96  1  0  0  0  0
 96 97  1  0  0  0  0
 96 98  2  0  0  0  0
 98 99  1  0  0  0  0
 98102  1  0  0  0  0
 99100  1  0  0  0  0
 99101  1  0  0  0  0
 99106  1  0  0  0  0
102103  1  0  0  0  0
102104  1  0  0  0  0
102105  1  0  0  0  0
106107  1  0  0  0  0
106108  1  0  0  0  0
106109  1  0  0  0  0
109110  1  0  0  0  0
109111  2  0  0  0  0
111112  1  0  0  0  0
111115  1  0  0  0  0
112113  1  0  0  0  0
112114  1  0  0  0  0
112119  1  0  0  0  0
115116  1  0  0  0  0
115117  1  0  0  0  0
115118  1  0  0  0  0
119120  1  0  0  0  0
119121  1  0  0  0  0
119122  1  0  0  0  0
122123  1  0  0  0  0
122124  2  0  0  0  0
124125  1  0  0  0  0
124128  1  0  0  0  0
125126  1  0  0  0  0
125127  1  0  0  0  0
125132  1  0  0  0  0
128129  1  0  0  0  0
128130  1  0  0  0  0
128131  1  0  0  0  0
132133  1  0  0  0  0
132134  1  0  0  0  0
132135  1  0  0  0  0
135136  1  0  0  0  0
135137  2  0  0  0  0
137138  1  0  0  0  0
137141  1  0  0  0  0
138139  1  0  0  0  0
138140  1  0  0  0  0
138145  1  0  0  0  0
141142  1  0  0  0  0
141143  1  0  0  0  0
141144  1  0  0  0  0
145146  1  0  0  0  0
145147  1  0  0  0  0
145148  1  0  0  0  0
148149  1  0  0  0  0
148150  2  0  0  0  0
150151  1  0  0  0  0
150154  1  0  0  0  0
151152  1  0  0  0  0
151153  1  0  0  0  0
151158  1  0  0  0  0
154155  1  0  0  0  0
154156  1  0  0  0  0
154157  1  0  0  0  0
158159  1  0  0  0  0
158160  1  0  0  0  0
158161  1  0  0  0  0
161162  1  0  0  0  0
161163  2  0  0  0  0
163164  1  0  0  0  0
163167  1  0  0  0  0
164165  1  0  0  0  0
164166  1  0  0  0  0
164171  1  0  0  0  0
167168  1  0  0  0  0
167169  1  0  0  0  0
167170  1  0  0  0  0
171172  1  0  0  0  0
171173  1  0  0  0  0
171174  1  0  0  0  0
174175  1  0  0  0  0
174176  2  0  0  0  0
176177  1  0  0  0  0
176181  1  0  0  0  0
177178  1  0  0  0  0
177179  1  0  0  0  0
177180  1  0  0  0  0
181182  1  0  0  0  0
181183  1  0  0  0  0
181184  1  0  0  0  0
185186  1  0  0  0  0
185187  1  0  0  0  0
185189  1  0  0  0  0
185196  1  0  0  0  0
187188  1  0  0  0  0
187190  1  0  0  0  0
187197  1  0  0  0  0
189192  1  0  0  0  0
190191  1  0  0  0  0
190194  1  0  0  0  0
190199  1  0  0  0  0
192193  1  0  0  0  0
192194  1  0  0  0  0
192201  1  0  0  0  0
194195  1  0  0  0  0
196210  1  0  0  0  0
197198  1  0  0  0  0
199200  1  0  0  0  0
201202  1  0  0  0  0
201203  1  0  0  0  0
201204  1  0  0  0  0
205206  1  0  0  0  0
205207  1  0  0  0  0
205209  1  0  0  0  0
207208  1  0  0  0  0
207210  1  0  0  0  0
207216  1  0  0  0  0
209212  1  0  0  0  0
210211  1  0  0  0  0
210214  1  0  0  0  0
212213  1  0  0  0  0
212214  1  0  0  0  0
212220  1  0  0  0  0
214215  1  0  0  0  0
214218  1  0  0  0  0
216217  1  0  0  0  0
216225  1  0  0  0  0
218219  1  0  0  0  0
220221  1  0  0  0  0
220222  1  0  0  0  0
220223  1  0  0  0  0
223224  1  0  0  0  0
225226  2  0  0  0  0
225227  1  0  0  0  0
227228  1  0  0  0  0
227229  1  0  0  0  0
227230  1  0  0  0  0
M  BCL ATM C_TeTeTeTe H_S O_Te2Te2TeTe C_TeTeTeTe H_S O_Te2Te2TeTe H_S C_TeTeTeTe H_S O_Te2Te2TeTe H_S C_TeTeTeTe H_S H_S O_Te2Te2TeTe H_S C_TeTeTeTe H_S O_Te2Te2TeTe C_TeTeTeTe H_S C_TeTeTeTe H_S O_Te2Te2TeTe C_TeTeTeTe H_S O_Te2Te2TeTe H_S C_TeTeTeTe H_S O_Te2Te2TeTe H_S C_TeTeTeTe H_S H_S O_Te2Te2TeTe H_S C_TeTeTeTe H_S O_Te2Te2TeTe H_S C_TeTeTeTe H_S O_Te2Te2TeTe O_Tr2TrTrPi2 P_TeTeTeTePi O_Tr2TrTrPi2 O_Te2Te2TeTe O_Tr2Tr2TrPi P_TeTeTeTePi O_Tr2TrTrPi2 O_Te2Te2TeTe O_Tr2Tr2TrPi C_TeTeTeTe H_S H_S C_TrTrTrPi H_S C_TrTrTrPi C_TeTeTeTe H_S H_S H_S C_TeTeTeTe H_S H_S C_TeTeTeTe H_S H_S C_TrTrTrPi H_S C_TrTrTrPi C_TeTeTeTe H_S H_S H_S C_TeTeTeTe H_S H_S C_TeTeTeTe H_S H_S C_TrTrTrPi H_S C_TrTrTrPi C_TeTeTeTe H_S H_S C_TeTeTeTe H_S H_S H_S C_TeTeTeTe H_S H_S C_TrTrTrPi H_S C_TrTrTrPi C_TeTeTeTe H_S H_S C_TeTeTeTe H_S H_S H_S C_TeTeTeTe H_S H_S C_TrTrTrPi H_S C_TrTrTrPi C_TeTeTeTe H_S H_S C_TeTeTeTe H_S H_S H_S C_TeTeTeTe H_S H_S C_TrTrTrPi H_S C_TrTrTrPi C_TeTeTeTe H_S H_S C_TeTeTeTe H_S H_S H_S C_TeTeTeTe H_S H_S C_TrTrTrPi H_S C_TrTrTrPi C_TeTeTeTe H_S H_S C_TeTeTeTe H_S H_S H_S C_TeTeTeTe H_S H_S C_TrTrTrPi H_S C_TrTrTrPi C_TeTeTeTe H_S H_S C_TeTeTeTe H_S H_S H_S C_TeTeTeTe H_S H_S C_TrTrTrPi H_S C_TrTrTrPi C_TeTeTeTe H_S H_S C_TeTeTeTe H_S H_S H_S C_TeTeTeTe H_S H_S C_TrTrTrPi H_S C_TrTrTrPi C_TeTeTeTe H_S H_S H_S C_TeTeTeTe H_S H_S H_S C_TeTeTeTe H_S C_TeTeTeTe H_S O_Te2Te2TeTe C_TeTeTeTe H_S C_TeTeTeTe H_S C_TeTeTeTe H_S O_Te2Te2TeTe O_Te2Te2TeTe H_S O_Te2Te2TeTe H_S C_TeTeTeTe H_S H_S H_S C_TeTeTeTe H_S C_TeTeTeTe H_S O_Te2Te2TeTe C_TeTeTeTe H_S C_TeTeTeTe H_S C_TeTeTeTe H_S N_TrTrTrPi2 H_S O_Te2Te2TeTe H_S C_TeTeTeTe H_S H_S O_Te2Te2TeTe H_S C_TrTrTrPi O_Tr2Tr2TrPi C_TeTeTeTe H_S H_S H_S
M  BCL BND NonConjugatedSingleBond NonConjugatedSingleBondInRing NonConjugatedSingleBondInRing NonConjugatedSingleBond NonConjugatedSingleBondInRing NonConjugatedSingleBond NonConjugatedSingleBond NonConjugatedSingleBondInRing NonConjugatedSingleBond NonConjugatedSingleBond NonConjugatedSingleBond NonConjugatedSingleBondInRing NonConjugatedSingleBond NonConjugatedSingleBond NonConjugatedSingleBond NonConjugatedSingleBond NonConjugatedSingleBond NonConjugatedSingleBond NonConjugatedSingleBond NonConjugatedSingleBond NonConjugatedSingleBond NonConjugatedSingleBond NonConjugatedSingleBond NonConjugatedSingleBond NonConjugatedSingleBondInRing NonConjugatedSingleBondInRing NonConjugatedSingleBondInRing NonConjugatedSingleBond NonConjugatedSingleBond NonConjugatedSingleBondInRing NonConjugatedSingleBond NonConjugatedSingleBond NonConjugatedSingleBond NonConjugatedSingleBondInRing NonConjugatedSingleBond NonConjugatedSingleBond NonConjugatedSingleBond NonConjugatedSingleBond NonConjugatedSingleBond NonConjugatedSingleBond NonConjugatedSingleBond NonConjugatedSingleBond NonConjugatedSingleBond NonConjugatedSingleBond NonConjugatedSingleBond NonConjugatedSingleBond ConjugatedSingleBond NonConjugatedSingleBond ConjugatedSingleBond ConjugatedSingleBond ConjugatedDoubleBond ConjugatedSingleBond ConjugatedSingleBond ConjugatedSingleBond ConjugatedDoubleBond NonConjugatedSingleBond NonConjugatedSingleBond NonConjugatedSingleBond NonConjugatedSingleBond NonConjugatedSingleBond ConjugatedDoubleBond NonConjugatedSingleBond NonConjugatedSingleBond NonConjugatedSingleBond NonConjugatedSingleBond NonConjugatedSingleBond NonConjugatedSingleBond NonConjugatedSingleBond NonConjugatedSingleBond NonConjugatedSingleBond NonConjugatedSingleBond NonConjugatedSingleBond NonConjugatedSingleBond ConjugatedDoubleBond NonConjugatedSingleBond NonConjugatedSingleBond NonConjugatedSingleBond NonConjugatedSingleBond NonConjugatedSingleBond NonConjugatedSingleBond NonConjugatedSingleBond NonConjugatedSingleBond NonConjugatedSingleBond NonConjugatedSingleBond NonConjugatedSingleBond NonConjugatedSingleBond ConjugatedDoubleBond NonConjugatedSingleBond NonConjugatedSingleBond NonConjugatedSingleBond NonConjugatedSingleBond NonConjugatedSingleBond NonConjugatedSingleBond NonConjugatedSingleBond NonConjugatedSingleBond NonConjugatedSingleBond NonConjugatedSingleBond NonConjugatedSingleBond NonConjugatedSingleBond ConjugatedDoubleBond NonConjugatedSingleBond NonConjugatedSingleBond NonConjugatedSingleBond NonConjugatedSingleBond NonConjugatedSingleBond NonConjugatedSingleBond NonConjugatedSingleBond NonConjugatedSingleBond NonConjugatedSingleBond NonConjugatedSingleBond NonConjugatedSingleBond NonConjugatedSingleBond ConjugatedDoubleBond NonConjugatedSingleBond NonConjugatedSingleBond NonConjugatedSingleBond NonConjugatedSingleBond NonConjugatedSingleBond NonConjugatedSingleBond NonConjugatedSingleBond NonConjugatedSingleBond NonConjugatedSingleBond NonConjugatedSingleBond NonConjugatedSingleBond NonConjugatedSingleBond ConjugatedDoubleBond NonConjugatedSingleBond NonConjugatedSingleBond NonConjugatedSingleBond NonConjugatedSingleBond NonConjugatedSingleBond NonConjugatedSingleBond NonConjugatedSingleBond NonConjugatedSingleBond NonConjugatedSingleBond NonConjugatedSingleBond NonConjugatedSingleBond NonConjugatedSingleBond ConjugatedDoubleBond NonConjugatedSingleBond NonConjugatedSingleBond NonConjugatedSingleBond NonConjugatedSingleBond NonConjugatedSingleBond NonConjugatedSingleBond NonConjugatedSingleBond NonConjugatedSingleBond NonConjugatedSingleBond NonConjugatedSingleBond NonConjugatedSingleBond NonConjugatedSingleBond ConjugatedDoubleBond NonConjugatedSingleBond NonConjugatedSingleBond NonConjugatedSingleBond NonConjugatedSingleBond NonConjugatedSingleBond NonConjugatedSingleBond NonConjugatedSingleBond NonConjugatedSingleBond NonConjugatedSingleBond NonConjugatedSingleBond NonConjugatedSingleBond NonConjugatedSingleBond ConjugatedDoubleBond NonConjugatedSingleBond NonConjugatedSingleBond NonConjugatedSingleBond NonConjugatedSingleBond NonConjugatedSingleBond NonConjugatedSingleBond NonConjugatedSingleBond NonConjugatedSingleBond NonConjugatedSingleBond NonConjugatedSingleBond NonConjugatedSingleBond NonConjugatedSingleBond ConjugatedDoubleBond NonConjugatedSingleBond NonConjugatedSingleBond NonConjugatedSingleBond NonConjugatedSingleBond NonConjugatedSingleBond NonConjugatedSingleBond NonConjugatedSingleBond NonConjugatedSingleBond NonConjugatedSingleBond NonConjugatedSingleBondInRing NonConjugatedSingleBondInRing NonConjugatedSingleBond NonConjugatedSingleBond NonConjugatedSingleBondInRing NonConjugatedSingleBond NonConjugatedSingleBondInRing NonConjugatedSingleBond NonConjugatedSingleBondInRing NonConjugatedSingleBond NonConjugatedSingleBond NonConjugatedSingleBondInRing NonConjugatedSingleBond NonConjugatedSingleBond NonConjugatedSingleBond NonConjugatedSingleBond NonConjugatedSingleBond NonConjugatedSingleBond NonConjugatedSingleBond NonConjugatedSingleBond NonConjugatedSingleBond NonConjugatedSingleBondInRing NonConjugatedSingleBondInRing NonConjugatedSingleBond NonConjugatedSingleBondInRing NonConjugatedSingleBond NonConjugatedSingleBondInRing NonConjugatedSingleBond NonConjugatedSingleBondInRing NonConjugatedSingleBond NonConjugatedSingleBondInRing NonConjugatedSingleBond NonConjugatedSingleBond NonConjugatedSingleBond NonConjugatedSingleBond AmideSingleBond NonConjugatedSingleBond NonConjugatedSingleBond NonConjugatedSingleBond NonConjugatedSingleBond NonConjugatedSingleBond ConjugatedDoubleBond NonConjugatedSingleBond NonConjugatedSingleBond NonConjugatedSingleBond NonConjugatedSingleBond
M  BCL CHI   1   R   4   R   8   R  17   S  20   R  22   S  25   R  29   S  38   S  42   R  46   R  50   S 185   R 187   S 190   S 192   R 194   R 205   R 207   S 210   R 212   S 214   S
M  BCL DBI - - E E E E E E E E Z - -
M  END
> <ConfClashScore>
0.0243512 

> <ConfOneFourInteractionScore>
-0.968995 

> <ConfScore>
2.55384 

> <ConfScorePBest>
0.00521045 

> <ConfTolerance>
5.56185 

$$$$
L05.****
  PyMOL2.5          3D                             0

230233  0  0  0  0  0  0  0  0999 V2000
   12.0343   -2.8571   -3.0098 C   0  0  0  1  0  0  0  0  0  0  0  0
   12.2513   -2.2540   -3.8666 H   0  0  0  1  0  0  0  0  0  0  0  0
   11.2134   -2.1479   -2.1252 O   0  0  0  1  0  0  0  0  0  0  0  0
   11.2812   -4.1253   -3.4417 C   0  0  0  1  0  0  0  0  0  0  0  0
   11.6498   -4.9872   -2.9258 H   0  0  0  1  0  0  0  0  0  0  0  0
   11.3868   -4.3318   -4.8512 O   0  0  0  1  0  0  0  0  0  0  0  0
   11.8214   -3.5765   -5.2540 H   0  0  0  1  0  0  0  0  0  0  0  0
    9.8345   -3.8143   -3.0353 C   0  0  0  1  0  0  0  0  0  0  0  0
    9.3114   -3.3235   -3.8293 H   0  0  0  1  0  0  0  0  0  0  0  0
    9.1387   -5.0076   -2.6718 O   0  0  0  1  0  0  0  0  0  0  0  0
    8.6208   -5.3167   -3.4187 H   0  0  0  1  0  0  0  0  0  0  0  0
    8.0015   -2.2009   -0.4509 C   0  0  0  1  0  0  0  0  0  0  0  0
    7.4767   -3.1287   -0.5445 H   0  0  0  1  0  0  0  0  0  0  0  0
    8.6788   -2.2555    0.3757 H   0  0  0  1  0  0  0  0  0  0  0  0
    7.0588   -1.1668   -0.2007 O   0  0  0  1  0  0  0  0  0  0  0  0
    7.3319   -0.3671   -0.6562 H   0  0  0  1  0  0  0  0  0  0  0  0
    8.8037   -1.9617   -1.7257 C   0  0  0  1  0  0  0  0  0  0  0  0
    9.1634   -0.9541   -1.7151 H   0  0  0  1  0  0  0  0  0  0  0  0
    7.9728   -2.1653   -2.8628 O   0  0  0  1  0  0  0  0  0  0  0  0
    9.9920   -2.8969   -1.8443 C   0  0  0  1  0  0  0  0  0  0  0  0
   10.0933   -3.4621   -0.9415 H   0  0  0  1  0  0  0  0  0  0  0  0
    8.2362   -1.3574   -3.9791 C   0  0  0  1  0  0  0  0  0  0  0  0
    9.2898   -1.1877   -4.0567 H   0  0  0  1  0  0  0  0  0  0  0  0
    7.7209   -1.9751   -5.1976 O   0  0  0  1  0  0  0  0  0  0  0  0
    7.4889   -0.0472   -3.8799 C   0  0  0  1  0  0  0  0  0  0  0  0
    7.9849    0.7190   -4.4384 H   0  0  0  1  0  0  0  0  0  0  0  0
    7.3583    0.3640   -2.5182 O   0  0  0  1  0  0  0  0  0  0  0  0
    6.4603    0.2027   -2.2195 H   0  0  0  1  0  0  0  0  0  0  0  0
    6.1180   -0.3698   -4.4893 C   0  0  0  1  0  0  0  0  0  0  0  0
    5.7006    0.4875   -4.9749 H   0  0  0  1  0  0  0  0  0  0  0  0
    5.2126   -0.8413   -3.4955 O   0  0  0  1  0  0  0  0  0  0  0  0
    5.7071   -1.2247   -2.7675 H   0  0  0  1  0  0  0  0  0  0  0  0
    7.0154   -1.8543   -7.9495 C   0  0  0  1  0  0  0  0  0  0  0  0
    6.4980   -2.7891   -7.8928 H   0  0  0  1  0  0  0  0  0  0  0  0
    6.8888   -1.4346   -8.9256 H   0  0  0  1  0  0  0  0  0  0  0  0
    8.3981   -2.0642   -7.7016 O   0  0  0  1  0  0  0  0  0  0  0  0
    8.6627   -1.5697   -6.9224 H   0  0  0  1  0  0  0  0  0  0  0  0
    6.4486   -0.8994   -6.9118 C   0  0  0  1  0  0  0  0  0  0  0  0
    5.4304   -0.7052   -7.1773 H   0  0  0  1  0  0  0  0  0  0  0  0
    7.1544    0.3253   -6.8880 O   0  0  0  1  0  0  0  0  0  0  0  0
    7.7193    0.3546   -6.1124 H   0  0  0  1  0  0  0  0  0  0  0  0
    6.4502   -1.4745   -5.5048 C   0  0  0  1  0  0  0  0  0  0  0  0
    5.7252   -2.2587   -5.4385 H   0  0  0  1  0  0  0  0  0  0  0  0
   13.2490   -3.2143   -2.3605 O   0  0  0  1  0  0  0  0  0  0  0  0
   18.7415    3.1942   -1.1360 O   0  0  0  1  0  0  0  0  0  0  0  0
   18.6998    2.8192   -2.6901 P   0  0  0  1  0  0  0  0  0  0  0  0
   18.6245    1.2225   -2.5628 O   0  0  0  1  0  0  0  0  0  0  0  0
   20.0059    3.1045   -3.3626 O   0  0  0  0  0  0  0  0  0  0  0  0
   17.4891    3.3963   -3.3469 O   0  0  0  1  0  0  0  0  0  0  0  0
   18.5521    0.1220   -1.5302 P   0  0  0  1  0  0  0  0  0  0  0  0
   18.5581   -1.2528   -2.2957 O   0  0  0  1  0  0  0  0  0  0  0  0
   17.1980    0.0765   -0.8401 O   0  0  0  0  0  0  0  0  0  0  0  0
   19.7189    0.0776   -0.5757 O   0  0  0  1  0  0  0  0  0  0  0  0
   18.8013    4.5649   -0.7105 C   0  0  0  1  0  0  0  0  0  0  0  0
   17.9298    5.0856   -1.0486 H   0  0  0  1  0  0  0  0  0  0  0  0
   19.6753    5.0304   -1.1160 H   0  0  0  1  0  0  0  0  0  0  0  0
   18.8602    4.5983    0.7884 C   0  0  0  1  0  0  0  0  0  0  0  0
   19.7250    4.2431    1.2440 H   0  0  0  1  0  0  0  0  0  0  0  0
   17.8906    5.0474    1.5764 C   0  0  0  1  0  0  0  0  0  0  0  0
   18.1410    5.3554    3.0241 C   0  0  0  1  0  0  0  0  0  0  0  0
   17.5652    4.6922    3.6351 H   0  0  0  1  0  0  0  0  0  0  0  0
   17.8553    6.3662    3.2280 H   0  0  0  1  0  0  0  0  0  0  0  0
   19.1809    5.2275    3.2410 H   0  0  0  1  0  0  0  0  0  0  0  0
   16.4802    5.2884    1.1170 C   0  0  0  1  0  0  0  0  0  0  0  0
   16.4157    5.0499    0.0759 H   0  0  0  1  0  0  0  0  0  0  0  0
   16.2469    6.3226    1.2617 H   0  0  0  1  0  0  0  0  0  0  0  0
   15.4579    4.4520    1.8691 C   0  0  0  1  0  0  0  0  0  0  0  0
   15.4571    4.7565    2.8949 H   0  0  0  1  0  0  0  0  0  0  0  0
   15.7440    3.4231    1.8022 H   0  0  0  1  0  0  0  0  0  0  0  0
   14.0631    4.5973    1.3256 C   0  0  0  1  0  0  0  0  0  0  0  0
   13.5983    5.5146    1.4807 H   0  0  0  1  0  0  0  0  0  0  0  0
   13.3609    3.6815    0.6691 C   0  0  0  1  0  0  0  0  0  0  0  0
   12.1257    4.0488   -0.1008 C   0  0  0  1  0  0  0  0  0  0  0  0
   12.0618    5.1134   -0.1866 H   0  0  0  1  0  0  0  0  0  0  0  0
   11.2626    3.6802    0.4132 H   0  0  0  1  0  0  0  0  0  0  0  0
   12.1723    3.6146   -1.0776 H   0  0  0  1  0  0  0  0  0  0  0  0
   13.7163    2.2245    0.6278 C   0  0  0  1  0  0  0  0  0  0  0  0
   14.7025    2.0926    1.0213 H   0  0  0  1  0  0  0  0  0  0  0  0
   13.6880    1.8851   -0.3865 H   0  0  0  1  0  0  0  0  0  0  0  0
   12.7367    1.4072    1.4542 C   0  0  0  1  0  0  0  0  0  0  0  0
   11.7517    1.8045    1.3248 H   0  0  0  1  0  0  0  0  0  0  0  0
   13.0132    1.4667    2.4861 H   0  0  0  1  0  0  0  0  0  0  0  0
   12.7477   -0.0258    1.0255 C   0  0  0  1  0  0  0  0  0  0  0  0
   12.4744   -0.2171    0.0404 H   0  0  0  1  0  0  0  0  0  0  0  0
   13.0684   -1.0800    1.7660 C   0  0  0  1  0  0  0  0  0  0  0  0
   13.1570   -0.9853    3.2658 C   0  0  0  1  0  0  0  0  0  0  0  0
   14.0539   -0.4608    3.5215 H   0  0  0  1  0  0  0  0  0  0  0  0
   13.1957   -1.9761    3.6679 H   0  0  0  1  0  0  0  0  0  0  0  0
   13.3680   -2.4387    1.2038 C   0  0  0  1  0  0  0  0  0  0  0  0
   14.3987   -2.6740    1.3685 H   0  0  0  1  0  0  0  0  0  0  0  0
   13.1650   -2.4425    0.1533 H   0  0  0  1  0  0  0  0  0  0  0  0
   12.7539   -3.1685    1.6889 H   0  0  0  1  0  0  0  0  0  0  0  0
   11.9766   -0.2567    3.8872 C   0  0  0  1  0  0  0  0  0  0  0  0
   11.1084   -0.8811    3.8514 H   0  0  0  1  0  0  0  0  0  0  0  0
   11.7879    0.6485    3.3488 H   0  0  0  1  0  0  0  0  0  0  0  0
   12.3033    0.0582    5.2873 C   0  0  0  1  0  0  0  0  0  0  0  0
   12.7043   -0.6671    5.9156 H   0  0  0  1  0  0  0  0  0  0  0  0
   12.0745    1.2896    5.7310 C   0  0  0  1  0  0  0  0  0  0  0  0
   11.2050    2.2486    4.9641 C   0  0  0  1  0  0  0  0  0  0  0  0
   11.2699    2.0095    3.9232 H   0  0  0  1  0  0  0  0  0  0  0  0
   11.5686    3.2419    5.1258 H   0  0  0  1  0  0  0  0  0  0  0  0
   12.6430    1.8401    7.0086 C   0  0  0  1  0  0  0  0  0  0  0  0
   11.8667    1.9172    7.7409 H   0  0  0  1  0  0  0  0  0  0  0  0
   13.0578    2.8093    6.8256 H   0  0  0  1  0  0  0  0  0  0  0  0
   13.4091    1.1858    7.3688 H   0  0  0  1  0  0  0  0  0  0  0  0
    9.7448    2.1938    5.3829 C   0  0  0  1  0  0  0  0  0  0  0  0
    9.6836    2.3954    6.4320 H   0  0  0  1  0  0  0  0  0  0  0  0
    9.3707    1.2109    5.1857 H   0  0  0  1  0  0  0  0  0  0  0  0
    8.8841    3.1896    4.6526 C   0  0  0  1  0  0  0  0  0  0  0  0
    9.3724    4.0104    4.2407 H   0  0  0  1  0  0  0  0  0  0  0  0
    7.5631    3.1336    4.4763 C   0  0  0  1  0  0  0  0  0  0  0  0
    6.7697    1.9842    5.0359 C   0  0  0  1  0  0  0  0  0  0  0  0
    5.9035    2.3945    5.5115 H   0  0  0  1  0  0  0  0  0  0  0  0
    7.3819    1.4983    5.7666 H   0  0  0  1  0  0  0  0  0  0  0  0
    6.8593    4.1384    3.6509 C   0  0  0  1  0  0  0  0  0  0  0  0
    6.4126    3.6570    2.8061 H   0  0  0  1  0  0  0  0  0  0  0  0
    7.5581    4.8749    3.3132 H   0  0  0  1  0  0  0  0  0  0  0  0
    6.0979    4.6102    4.2361 H   0  0  0  1  0  0  0  0  0  0  0  0
    6.2924    0.9194    4.0619 C   0  0  0  1  0  0  0  0  0  0  0  0
    5.5958    1.3660    3.3835 H   0  0  0  1  0  0  0  0  0  0  0  0
    5.8046    0.1449    4.6161 H   0  0  0  1  0  0  0  0  0  0  0  0
    7.4011    0.3114    3.2717 C   0  0  0  1  0  0  0  0  0  0  0  0
    8.1474   -0.1450    3.8341 H   0  0  0  1  0  0  0  0  0  0  0  0
    7.5766    0.2663    1.9564 C   0  0  0  1  0  0  0  0  0  0  0  0
    6.4537    0.5757    1.0072 C   0  0  0  1  0  0  0  0  0  0  0  0
    5.5730    0.7842    1.5780 H   0  0  0  1  0  0  0  0  0  0  0  0
    6.2843   -0.2812    0.3892 H   0  0  0  1  0  0  0  0  0  0  0  0
    8.8770   -0.0880    1.2965 C   0  0  0  1  0  0  0  0  0  0  0  0
    8.7341   -0.9338    0.6569 H   0  0  0  1  0  0  0  0  0  0  0  0
    9.6034   -0.3261    2.0452 H   0  0  0  1  0  0  0  0  0  0  0  0
    9.2207    0.7431    0.7169 H   0  0  0  1  0  0  0  0  0  0  0  0
    6.7432    1.7689    0.1111 C   0  0  0  1  0  0  0  0  0  0  0  0
    7.7186    1.6482   -0.3121 H   0  0  0  1  0  0  0  0  0  0  0  0
    6.7202    2.6566    0.7080 H   0  0  0  1  0  0  0  0  0  0  0  0
    5.7719    1.9160   -0.9849 C   0  0  0  1  0  0  0  0  0  0  0  0
    5.7108    1.2035   -1.7401 H   0  0  0  1  0  0  0  0  0  0  0  0
    4.9747    2.9790   -0.9881 C   0  0  0  1  0  0  0  0  0  0  0  0
    4.9390    3.9967    0.1148 C   0  0  0  1  0  0  0  0  0  0  0  0
    5.2883    3.5357    1.0150 H   0  0  0  1  0  0  0  0  0  0  0  0
    3.9275    4.3192    0.2480 H   0  0  0  1  0  0  0  0  0  0  0  0
    4.0272    3.2479   -2.1232 C   0  0  0  1  0  0  0  0  0  0  0  0
    4.2644    2.6065   -2.9461 H   0  0  0  1  0  0  0  0  0  0  0  0
    4.1186    4.2691   -2.4294 H   0  0  0  1  0  0  0  0  0  0  0  0
    3.0240    3.0597   -1.8022 H   0  0  0  1  0  0  0  0  0  0  0  0
    5.8016    5.2151   -0.1711 C   0  0  0  1  0  0  0  0  0  0  0  0
    5.5699    5.9622    0.5590 H   0  0  0  1  0  0  0  0  0  0  0  0
    5.5486    5.5774   -1.1455 H   0  0  0  1  0  0  0  0  0  0  0  0
    7.2734    4.9786   -0.1361 C   0  0  0  1  0  0  0  0  0  0  0  0
    7.5600    3.9973    0.0553 H   0  0  0  1  0  0  0  0  0  0  0  0
    8.2740    5.8366   -0.3134 C   0  0  0  1  0  0  0  0  0  0  0  0
    7.9620    7.2852   -0.5967 C   0  0  0  1  0  0  0  0  0  0  0  0
    8.4944    7.8826    0.1137 H   0  0  0  1  0  0  0  0  0  0  0  0
    6.9096    7.4278   -0.4659 H   0  0  0  1  0  0  0  0  0  0  0  0
    9.7352    5.4989   -0.2586 C   0  0  0  1  0  0  0  0  0  0  0  0
    9.9628    4.7740   -1.0120 H   0  0  0  1  0  0  0  0  0  0  0  0
    9.9725    5.0983    0.7048 H   0  0  0  1  0  0  0  0  0  0  0  0
   10.3122    6.3837   -0.4294 H   0  0  0  1  0  0  0  0  0  0  0  0
    8.3316    7.7712   -1.9887 C   0  0  0  1  0  0  0  0  0  0  0  0
    9.3877    7.9421   -2.0090 H   0  0  0  1  0  0  0  0  0  0  0  0
    7.8172    8.6929   -2.1639 H   0  0  0  1  0  0  0  0  0  0  0  0
    7.9923    6.8297   -3.1114 C   0  0  0  1  0  0  0  0  0  0  0  0
    7.8336    5.8306   -2.8703 H   0  0  0  1  0  0  0  0  0  0  0  0
    7.8803    7.1793   -4.3884 C   0  0  0  1  0  0  0  0  0  0  0  0
    7.5399    6.2166   -5.4887 C   0  0  0  1  0  0  0  0  0  0  0  0
    6.8165    6.6747   -6.1304 H   0  0  0  1  0  0  0  0  0  0  0  0
    7.1217    5.3339   -5.0517 H   0  0  0  1  0  0  0  0  0  0  0  0
    8.0910    8.5981   -4.8367 C   0  0  0  1  0  0  0  0  0  0  0  0
    9.1353    8.6765   -5.0563 H   0  0  0  1  0  0  0  0  0  0  0  0
    7.8206    9.2803   -4.0580 H   0  0  0  1  0  0  0  0  0  0  0  0
    7.5088    8.8045   -5.7104 H   0  0  0  1  0  0  0  0  0  0  0  0
    8.7450    5.8181   -6.3251 C   0  0  0  1  0  0  0  0  0  0  0  0
    9.2374    6.7135   -6.6422 H   0  0  0  1  0  0  0  0  0  0  0  0
    8.3902    5.2832   -7.1812 H   0  0  0  1  0  0  0  0  0  0  0  0
    9.7581    4.9544   -5.6254 C   0  0  0  1  0  0  0  0  0  0  0  0
   10.3208    5.3906   -4.8674 H   0  0  0  1  0  0  0  0  0  0  0  0
    9.9877    3.6766   -5.9034 C   0  0  0  1  0  0  0  0  0  0  0  0
   10.9411    2.8582   -5.0822 C   0  0  0  1  0  0  0  0  0  0  0  0
   11.0391    3.2932   -4.1096 H   0  0  0  1  0  0  0  0  0  0  0  0
   11.8976    2.8378   -5.5615 H   0  0  0  1  0  0  0  0  0  0  0  0
   10.5664    1.8602   -4.9903 H   0  0  0  1  0  0  0  0  0  0  0  0
    9.3339    2.9313   -7.0416 C   0  0  0  1  0  0  0  0  0  0  0  0
    9.0413    1.9719   -6.6689 H   0  0  0  1  0  0  0  0  0  0  0  0
   10.0270    2.8144   -7.8482 H   0  0  0  1  0  0  0  0  0  0  0  0
    8.4741    3.4682   -7.3843 H   0  0  0  1  0  0  0  0  0  0  0  0
   16.1292   -5.1391   -1.6533 C   0  0  0  1  0  0  0  0  0  0  0  0
   16.4219   -5.6529   -0.7614 H   0  0  0  1  0  0  0  0  0  0  0  0
   14.8538   -5.7640   -2.2037 C   0  0  0  1  0  0  0  0  0  0  0  0
   15.0353   -6.7864   -2.4621 H   0  0  0  1  0  0  0  0  0  0  0  0
   15.8937   -3.7613   -1.3539 O   0  0  0  1  0  0  0  0  0  0  0  0
   14.4298   -4.9831   -3.4516 C   0  0  0  1  0  0  0  0  0  0  0  0
   13.4662   -5.3291   -3.7623 H   0  0  0  1  0  0  0  0  0  0  0  0
   15.6242   -2.9854   -2.5319 C   0  0  0  1  0  0  0  0  0  0  0  0
   16.4440   -3.0781   -3.2132 H   0  0  0  1  0  0  0  0  0  0  0  0
   14.3530   -3.4870   -3.2005 C   0  0  0  1  0  0  0  0  0  0  0  0
   14.2248   -2.9808   -4.1344 H   0  0  0  1  0  0  0  0  0  0  0  0
   17.1652   -5.2433   -2.6231 O   0  0  0  1  0  0  0  0  0  0  0  0
   13.8206   -5.6971   -1.2192 O   0  0  0  1  0  0  0  0  0  0  0  0
   12.9641   -5.7026   -1.6527 H   0  0  0  1  0  0  0  0  0  0  0  0
   15.3755   -5.2241   -4.4833 O   0  0  0  1  0  0  0  0  0  0  0  0
   16.2192   -4.8347   -4.2421 H   0  0  0  1  0  0  0  0  0  0  0  0
   15.4515   -1.5514   -2.1519 C   0  0  0  1  0  0  0  0  0  0  0  0
   16.3653   -1.1789   -1.7383 H   0  0  0  1  0  0  0  0  0  0  0  0
   14.6708   -1.4668   -1.4251 H   0  0  0  1  0  0  0  0  0  0  0  0
   15.1946   -0.9811   -3.0200 H   0  0  0  1  0  0  0  0  0  0  0  0
   19.3610   -2.3207   -1.8544 C   0  0  0  1  0  0  0  0  0  0  0  0
   19.8646   -2.0401   -0.9529 H   0  0  0  1  0  0  0  0  0  0  0  0
   18.4790   -3.5415   -1.5846 C   0  0  0  1  0  0  0  0  0  0  0  0
   17.7121   -3.2757   -0.8874 H   0  0  0  1  0  0  0  0  0  0  0  0
   20.3319   -2.6364   -2.8645 O   0  0  0  1  0  0  0  0  0  0  0  0
   17.8398   -4.0226   -2.8711 C   0  0  0  1  0  0  0  0  0  0  0  0
   17.1377   -3.2885   -3.2075 H   0  0  0  1  0  0  0  0  0  0  0  0
   19.7496   -2.9951   -4.1111 C   0  0  0  1  0  0  0  0  0  0  0  0
   19.1403   -2.1877   -4.4600 H   0  0  0  1  0  0  0  0  0  0  0  0
   18.8874   -4.2451   -3.9597 C   0  0  0  1  0  0  0  0  0  0  0  0
   19.5082   -5.0742   -3.6909 H   0  0  0  1  0  0  0  0  0  0  0  0
   19.2968   -4.6115   -1.0244 N   0  0  0  1  0  0  0  0  0  0  0  0
   19.8079   -5.1662   -1.6501 H   0  0  0  1  0  0  0  0  0  0  0  0
   18.2323   -4.5219   -5.1984 O   0  0  0  1  0  0  0  0  0  0  0  0
   18.8177   -4.2077   -5.8914 H   0  0  0  1  0  0  0  0  0  0  0  0
   20.8411   -3.2657   -5.1062 C   0  0  0  1  0  0  0  0  0  0  0  0
   21.4419   -2.3880   -5.2225 H   0  0  0  1  0  0  0  0  0  0  0  0
   20.4065   -3.5284   -6.0480 H   0  0  0  1  0  0  0  0  0  0  0  0
   21.6555   -4.3393   -4.6447 O   0  0  0  1  0  0  0  0  0  0  0  0
   22.4377   -4.3827   -5.1995 H   0  0  0  1  0  0  0  0  0  0  0  0
   19.4016   -4.8918    0.2755 C   0  0  0  1  0  0  0  0  0  0  0  0
   18.7543   -4.3033    1.1259 O   0  0  0  1  0  0  0  0  0  0  0  0
   20.2976   -6.0656    0.6642 C   0  0  0  1  0  0  0  0  0  0  0  0
   20.2998   -6.6965   -0.1999 H   0  0  0  1  0  0  0  0  0  0  0  0
   19.8968   -6.5838    1.5102 H   0  0  0  1  0  0  0  0  0  0  0  0
   21.2878   -5.7277    0.8886 H   0  0  0  1  0  0  0  0  0  0  0  0
  1  2  1  0  0  0  0
  1  3  1  0  0  0  0
  1  4  1  0  0  0  0
  1 44  1  0  0  0  0
  3 20  1  0  0  0  0
  4  5  1  0  0  0  0
  4  6  1  0  0  0  0
  4  8  1  0  0  0  0
  6  7  1  0  0  0  0
  8  9  1  0  0  0  0
  8 10  1  0  0  0  0
  8 20  1  0  0  0  0
 10 11  1  0  0  0  0
 12 13  1  0  0  0  0
 12 14  1  0  0  0  0
 12 15  1  0  0  0  0
 12 17  1  0  0  0  0
 15 16  1  0  0  0  0
 17 18  1  0  0  0  0
 17 19  1  0  0  0  0
 17 20  1  0  0  0  0
 19 22  1  0  0  0  0
 20 21  1  0  0  0  0
 22 23  1  0  0  0  0
 22 24  1  0  0  0  0
 22 25  1  0  0  0  0
 24 42  1  0  0  0  0
 25 26  1  0  0  0  0
 25 27  1  0  0  0  0
 25 29  1  0  0  0  0
 27 28  1  0  0  0  0
 29 30  1  0  0  0  0
 29 31  1  0  0  0  0
 29 42  1  0  0  0  0
 31 32  1  0  0  0  0
 33 34  1  0  0  0  0
 33 35  1  0  0  0  0
 33 36  1  0  0  0  0
 33 38  1  0  0  0  0
 36 37  1  0  0  0  0
 38 39  1  0  0  0  0
 38 40  1  0  0  0  0
 38 42  1  0  0  0  0
 40 41  1  0  0  0  0
 42 43  1  0  0  0  0
 44194  1  0  0  0  0
 45 46  1  0  0  0  0
 45 54  1  0  0  0  0
 46 47  1  0  0  0  0
 46 48  1  0  0  0  0
 46 49  2  0  0  0  0
 47 50  1  0  0  0  0
 50 51  1  0  0  0  0
 50 52  1  0  0  0  0
 50 53  2  0  0  0  0
 51205  1  0  0  0  0
 54 55  1  0  0  0  0
 54 56  1  0  0  0  0
 54 57  1  0  0  0  0
 57 58  1  0  0  0  0
 57 59  2  0  0  0  0
 59 60  1  0  0  0  0
 59 64  1  0  0  0  0
 60 61  1  0  0  0  0
 60 62  1  0  0  0  0
 60 63  1  0  0  0  0
 64 65  1  0  0  0  0
 64 66  1  0  0  0  0
 64 67  1  0  0  0  0
 67 68  1  0  0  0  0
 67 69  1  0  0  0  0
 67 70  1  0  0  0  0
 70 71  1  0  0  0  0
 70 72  2  0  0  0  0
 72 73  1  0  0  0  0
 72 77  1  0  0  0  0
 73 74  1  0  0  0  0
 73 75  1  0  0  0  0
 73 76  1  0  0  0  0
 77 78  1  0  0  0  0
 77 79  1  0  0  0  0
 77 80  1  0  0  0  0
 80 81  1  0  0  0  0
 80 82  1  0  0  0  0
 80 83  1  0  0  0  0
 83 84  1  0  0  0  0
 83 85  2  0  0  0  0
 85 86  1  0  0  0  0
 85 89  1  0  0  0  0
 86 87  1  0  0  0  0
 86 88  1  0  0  0  0
 86 93  1  0  0  0  0
 89 90  1  0  0  0  0
 89 91  1  0  0  0  0
 89 92  1  0  0  0  0
 93 94  1  0  0  0  0
 93 95  1  0  0  0  0
 93 96  1  0  0  0  0
 96 97  1  0  0  0  0
 96 98  2  0  0  0  0
 98 99  1  0  0  0  0
 98102  1  0  0  0  0
 99100  1  0  0  0  0
 99101  1  0  0  0  0
 99106  1  0  0  0  0
102103  1  0  0  0  0
102104  1  0  0  0  0
102105  1  0  0  0  0
106107  1  0  0  0  0
106108  1  0  0  0  0
106109  1  0  0  0  0
109110  1  0  0  0  0
109111  2  0  0  0  0
111112  1  0  0  0  0
111115  1  0  0  0  0
112113  1  0  0  0  0
112114  1  0  0  0  0
112119  1  0  0  0  0
115116  1  0  0  0  0
115117  1  0  0  0  0
115118  1  0  0  0  0
119120  1  0  0  0  0
119121  1  0  0  0  0
119122  1  0  0  0  0
122123  1  0  0  0  0
122124  2  0  0  0  0
124125  1  0  0  0  0
124128  1  0  0  0  0
125126  1  0  0  0  0
125127  1  0  0  0  0
125132  1  0  0  0  0
128129  1  0  0  0  0
128130  1  0  0  0  0
128131  1  0  0  0  0
132133  1  0  0  0  0
132134  1  0  0  0  0
132135  1  0  0  0  0
135136  1  0  0  0  0
135137  2  0  0  0  0
137138  1  0  0  0  0
137141  1  0  0  0  0
138139  1  0  0  0  0
138140  1  0  0  0  0
138145  1  0  0  0  0
141142  1  0  0  0  0
141143  1  0  0  0  0
141144  1  0  0  0  0
145146  1  0  0  0  0
145147  1  0  0  0  0
145148  1  0  0  0  0
148149  1  0  0  0  0
148150  2  0  0  0  0
150151  1  0  0  0  0
150154  1  0  0  0  0
151152  1  0  0  0  0
151153  1  0  0  0  0
151158  1  0  0  0  0
154155  1  0  0  0  0
154156  1  0  0  0  0
154157  1  0  0  0  0
158159  1  0  0  0  0
158160  1  0  0  0  0
158161  1  0  0  0  0
161162  1  0  0  0  0
161163  2  0  0  0  0
163164  1  0  0  0  0
163167  1  0  0  0  0
164165  1  0  0  0  0
164166  1  0  0  0  0
164171  1  0  0  0  0
167168  1  0  0  0  0
167169  1  0  0  0  0
167170  1  0  0  0  0
171172  1  0  0  0  0
171173  1  0  0  0  0
171174  1  0  0  0  0
174175  1  0  0  0  0
174176  2  0  0  0  0
176177  1  0  0  0  0
176181  1  0  0  0  0
177178  1  0  0  0  0
177179  1  0  0  0  0
177180  1  0  0  0  0
181182  1  0  0  0  0
181183  1  0  0  0  0
181184  1  0  0  0  0
185186  1  0  0  0  0
185187  1  0  0  0  0
185189  1  0  0  0  0
185196  1  0  0  0  0
187188  1  0  0  0  0
187190  1  0  0  0  0
187197  1  0  0  0  0
189192  1  0  0  0  0
190191  1  0  0  0  0
190194  1  0  0  0  0
190199  1  0  0  0  0
192193  1  0  0  0  0
192194  1  0  0  0  0
192201  1  0  0  0  0
194195  1  0  0  0  0
196210  1  0  0  0  0
197198  1  0  0  0  0
199200  1  0  0  0  0
201202  1  0  0  0  0
201203  1  0  0  0  0
201204  1  0  0  0  0
205206  1  0  0  0  0
205207  1  0  0  0  0
205209  1  0  0  0  0
207208  1  0  0  0  0
207210  1  0  0  0  0
207216  1  0  0  0  0
209212  1  0  0  0  0
210211  1  0  0  0  0
210214  1  0  0  0  0
212213  1  0  0  0  0
212214  1  0  0  0  0
212220  1  0  0  0  0
214215  1  0  0  0  0
214218  1  0  0  0  0
216217  1  0  0  0  0
216225  1  0  0  0  0
218219  1  0  0  0  0
220221  1  0  0  0  0
220222  1  0  0  0  0
220223  1  0  0  0  0
223224  1  0  0  0  0
225226  2  0  0  0  0
225227  1  0  0  0  0
227228  1  0  0  0  0
227229  1  0  0  0  0
227230  1  0  0  0  0
M  BCL ATM C_TeTeTeTe H_S O_Te2Te2TeTe C_TeTeTeTe H_S O_Te2Te2TeTe H_S C_TeTeTeTe H_S O_Te2Te2TeTe H_S C_TeTeTeTe H_S H_S O_Te2Te2TeTe H_S C_TeTeTeTe H_S O_Te2Te2TeTe C_TeTeTeTe H_S C_TeTeTeTe H_S O_Te2Te2TeTe C_TeTeTeTe H_S O_Te2Te2TeTe H_S C_TeTeTeTe H_S O_Te2Te2TeTe H_S C_TeTeTeTe H_S H_S O_Te2Te2TeTe H_S C_TeTeTeTe H_S O_Te2Te2TeTe H_S C_TeTeTeTe H_S O_Te2Te2TeTe O_Tr2TrTrPi2 P_TeTeTeTePi O_Tr2TrTrPi2 O_Te2Te2TeTe O_Tr2Tr2TrPi P_TeTeTeTePi O_Tr2TrTrPi2 O_Te2Te2TeTe O_Tr2Tr2TrPi C_TeTeTeTe H_S H_S C_TrTrTrPi H_S C_TrTrTrPi C_TeTeTeTe H_S H_S H_S C_TeTeTeTe H_S H_S C_TeTeTeTe H_S H_S C_TrTrTrPi H_S C_TrTrTrPi C_TeTeTeTe H_S H_S H_S C_TeTeTeTe H_S H_S C_TeTeTeTe H_S H_S C_TrTrTrPi H_S C_TrTrTrPi C_TeTeTeTe H_S H_S C_TeTeTeTe H_S H_S H_S C_TeTeTeTe H_S H_S C_TrTrTrPi H_S C_TrTrTrPi C_TeTeTeTe H_S H_S C_TeTeTeTe H_S H_S H_S C_TeTeTeTe H_S H_S C_TrTrTrPi H_S C_TrTrTrPi C_TeTeTeTe H_S H_S C_TeTeTeTe H_S H_S H_S C_TeTeTeTe H_S H_S C_TrTrTrPi H_S C_TrTrTrPi C_TeTeTeTe H_S H_S C_TeTeTeTe H_S H_S H_S C_TeTeTeTe H_S H_S C_TrTrTrPi H_S C_TrTrTrPi C_TeTeTeTe H_S H_S C_TeTeTeTe H_S H_S H_S C_TeTeTeTe H_S H_S C_TrTrTrPi H_S C_TrTrTrPi C_TeTeTeTe H_S H_S C_TeTeTeTe H_S H_S H_S C_TeTeTeTe H_S H_S C_TrTrTrPi H_S C_TrTrTrPi C_TeTeTeTe H_S H_S C_TeTeTeTe H_S H_S H_S C_TeTeTeTe H_S H_S C_TrTrTrPi H_S C_TrTrTrPi C_TeTeTeTe H_S H_S H_S C_TeTeTeTe H_S H_S H_S C_TeTeTeTe H_S C_TeTeTeTe H_S O_Te2Te2TeTe C_TeTeTeTe H_S C_TeTeTeTe H_S C_TeTeTeTe H_S O_Te2Te2TeTe O_Te2Te2TeTe H_S O_Te2Te2TeTe H_S C_TeTeTeTe H_S H_S H_S C_TeTeTeTe H_S C_TeTeTeTe H_S O_Te2Te2TeTe C_TeTeTeTe H_S C_TeTeTeTe H_S C_TeTeTeTe H_S N_TrTrTrPi2 H_S O_Te2Te2TeTe H_S C_TeTeTeTe H_S H_S O_Te2Te2TeTe H_S C_TrTrTrPi O_Tr2Tr2TrPi C_TeTeTeTe H_S H_S H_S
M  BCL BND NonConjugatedSingleBond NonConjugatedSingleBondInRing NonConjugatedSingleBondInRing NonConjugatedSingleBond NonConjugatedSingleBondInRing NonConjugatedSingleBond NonConjugatedSingleBond NonConjugatedSingleBondInRing NonConjugatedSingleBond NonConjugatedSingleBond NonConjugatedSingleBond NonConjugatedSingleBondInRing NonConjugatedSingleBond NonConjugatedSingleBond NonConjugatedSingleBond NonConjugatedSingleBond NonConjugatedSingleBond NonConjugatedSingleBond NonConjugatedSingleBond NonConjugatedSingleBond NonConjugatedSingleBond NonConjugatedSingleBond NonConjugatedSingleBond NonConjugatedSingleBond NonConjugatedSingleBondInRing NonConjugatedSingleBondInRing NonConjugatedSingleBondInRing NonConjugatedSingleBond NonConjugatedSingleBond NonConjugatedSingleBondInRing NonConjugatedSingleBond NonConjugatedSingleBond NonConjugatedSingleBond NonConjugatedSingleBondInRing NonConjugatedSingleBond NonConjugatedSingleBond NonConjugatedSingleBond NonConjugatedSingleBond NonConjugatedSingleBond NonConjugatedSingleBond NonConjugatedSingleBond NonConjugatedSingleBond NonConjugatedSingleBond NonConjugatedSingleBond NonConjugatedSingleBond NonConjugatedSingleBond ConjugatedSingleBond NonConjugatedSingleBond ConjugatedSingleBond ConjugatedSingleBond ConjugatedDoubleBond ConjugatedSingleBond ConjugatedSingleBond ConjugatedSingleBond ConjugatedDoubleBond NonConjugatedSingleBond NonConjugatedSingleBond NonConjugatedSingleBond NonConjugatedSingleBond NonConjugatedSingleBond ConjugatedDoubleBond NonConjugatedSingleBond NonConjugatedSingleBond NonConjugatedSingleBond NonConjugatedSingleBond NonConjugatedSingleBond NonConjugatedSingleBond NonConjugatedSingleBond NonConjugatedSingleBond NonConjugatedSingleBond NonConjugatedSingleBond NonConjugatedSingleBond NonConjugatedSingleBond ConjugatedDoubleBond NonConjugatedSingleBond NonConjugatedSingleBond NonConjugatedSingleBond NonConjugatedSingleBond NonConjugatedSingleBond NonConjugatedSingleBond NonConjugatedSingleBond NonConjugatedSingleBond NonConjugatedSingleBond NonConjugatedSingleBond NonConjugatedSingleBond NonConjugatedSingleBond ConjugatedDoubleBond NonConjugatedSingleBond NonConjugatedSingleBond NonConjugatedSingleBond NonConjugatedSingleBond NonConjugatedSingleBond NonConjugatedSingleBond NonConjugatedSingleBond NonConjugatedSingleBond NonConjugatedSingleBond NonConjugatedSingleBond NonConjugatedSingleBond NonConjugatedSingleBond ConjugatedDoubleBond NonConjugatedSingleBond NonConjugatedSingleBond NonConjugatedSingleBond NonConjugatedSingleBond NonConjugatedSingleBond NonConjugatedSingleBond NonConjugatedSingleBond NonConjugatedSingleBond NonConjugatedSingleBond NonConjugatedSingleBond NonConjugatedSingleBond NonConjugatedSingleBond ConjugatedDoubleBond NonConjugatedSingleBond NonConjugatedSingleBond NonConjugatedSingleBond NonConjugatedSingleBond NonConjugatedSingleBond NonConjugatedSingleBond NonConjugatedSingleBond NonConjugatedSingleBond NonConjugatedSingleBond NonConjugatedSingleBond NonConjugatedSingleBond NonConjugatedSingleBond ConjugatedDoubleBond NonConjugatedSingleBond NonConjugatedSingleBond NonConjugatedSingleBond NonConjugatedSingleBond NonConjugatedSingleBond NonConjugatedSingleBond NonConjugatedSingleBond NonConjugatedSingleBond NonConjugatedSingleBond NonConjugatedSingleBond NonConjugatedSingleBond NonConjugatedSingleBond ConjugatedDoubleBond NonConjugatedSingleBond NonConjugatedSingleBond NonConjugatedSingleBond NonConjugatedSingleBond NonConjugatedSingleBond NonConjugatedSingleBond NonConjugatedSingleBond NonConjugatedSingleBond NonConjugatedSingleBond NonConjugatedSingleBond NonConjugatedSingleBond NonConjugatedSingleBond ConjugatedDoubleBond NonConjugatedSingleBond NonConjugatedSingleBond NonConjugatedSingleBond NonConjugatedSingleBond NonConjugatedSingleBond NonConjugatedSingleBond NonConjugatedSingleBond NonConjugatedSingleBond NonConjugatedSingleBond NonConjugatedSingleBond NonConjugatedSingleBond NonConjugatedSingleBond ConjugatedDoubleBond NonConjugatedSingleBond NonConjugatedSingleBond NonConjugatedSingleBond NonConjugatedSingleBond NonConjugatedSingleBond NonConjugatedSingleBond NonConjugatedSingleBond NonConjugatedSingleBond NonConjugatedSingleBond NonConjugatedSingleBond NonConjugatedSingleBond NonConjugatedSingleBond ConjugatedDoubleBond NonConjugatedSingleBond NonConjugatedSingleBond NonConjugatedSingleBond NonConjugatedSingleBond NonConjugatedSingleBond NonConjugatedSingleBond NonConjugatedSingleBond NonConjugatedSingleBond NonConjugatedSingleBond NonConjugatedSingleBondInRing NonConjugatedSingleBondInRing NonConjugatedSingleBond NonConjugatedSingleBond NonConjugatedSingleBondInRing NonConjugatedSingleBond NonConjugatedSingleBondInRing NonConjugatedSingleBond NonConjugatedSingleBondInRing NonConjugatedSingleBond NonConjugatedSingleBond NonConjugatedSingleBondInRing NonConjugatedSingleBond NonConjugatedSingleBond NonConjugatedSingleBond NonConjugatedSingleBond NonConjugatedSingleBond NonConjugatedSingleBond NonConjugatedSingleBond NonConjugatedSingleBond NonConjugatedSingleBond NonConjugatedSingleBondInRing NonConjugatedSingleBondInRing NonConjugatedSingleBond NonConjugatedSingleBondInRing NonConjugatedSingleBond NonConjugatedSingleBondInRing NonConjugatedSingleBond NonConjugatedSingleBondInRing NonConjugatedSingleBond NonConjugatedSingleBondInRing NonConjugatedSingleBond NonConjugatedSingleBond NonConjugatedSingleBond NonConjugatedSingleBond AmideSingleBond NonConjugatedSingleBond NonConjugatedSingleBond NonConjugatedSingleBond NonConjugatedSingleBond NonConjugatedSingleBond ConjugatedDoubleBond NonConjugatedSingleBond NonConjugatedSingleBond NonConjugatedSingleBond NonConjugatedSingleBond
M  BCL CHI   1   R   4   R   8   R  17   S  20   R  22   S  25   R  29   S  38   S  42   R  46   R  50   S 185   R 187   S 190   S 192   R 194   R 205   R 207   S 210   R 212   S 214   S
M  BCL DBI - - E E E E E E E E Z - -
M  END
> <ConfClashScore>
0.0252764 

> <ConfOneFourInteractionScore>
-0.972697 

> <ConfScore>
2.59525 

> <ConfScorePBest>
0.00510745 

> <ConfTolerance>
5.27435 

$$$$
L05.****
  PyMOL2.5          3D                             0

230233  0  0  0  0  0  0  0  0999 V2000
   11.9394   -3.7927   -2.3837 C   0  0  0  1  0  0  0  0  0  0  0  0
   11.2719   -3.5397   -1.5866 H   0  0  0  1  0  0  0  0  0  0  0  0
   11.9818   -5.1793   -2.5609 O   0  0  0  1  0  0  0  0  0  0  0  0
   11.4286   -3.2137   -3.7126 C   0  0  0  1  0  0  0  0  0  0  0  0
   12.2331   -3.0592   -4.4010 H   0  0  0  1  0  0  0  0  0  0  0  0
   10.7351   -1.9822   -3.5056 O   0  0  0  1  0  0  0  0  0  0  0  0
   10.0157   -1.9095   -4.1371 H   0  0  0  1  0  0  0  0  0  0  0  0
   10.4859   -4.2973   -4.2057 C   0  0  0  1  0  0  0  0  0  0  0  0
    9.4984   -4.1539   -3.8194 H   0  0  0  1  0  0  0  0  0  0  0  0
   10.4397   -4.3283   -5.6331 O   0  0  0  1  0  0  0  0  0  0  0  0
   10.4076   -5.2397   -5.9329 H   0  0  0  1  0  0  0  0  0  0  0  0
    9.3266   -7.2164   -4.2783 C   0  0  0  1  0  0  0  0  0  0  0  0
    8.4581   -7.7268   -3.9178 H   0  0  0  1  0  0  0  0  0  0  0  0
    9.0370   -6.4926   -5.0112 H   0  0  0  1  0  0  0  0  0  0  0  0
   10.2370   -8.1504   -4.8507 O   0  0  0  1  0  0  0  0  0  0  0  0
   11.0641   -8.1314   -4.3636 H   0  0  0  1  0  0  0  0  0  0  0  0
   10.0417   -6.5297   -3.1247 C   0  0  0  1  0  0  0  0  0  0  0  0
   10.5061   -7.2803   -2.5198 H   0  0  0  1  0  0  0  0  0  0  0  0
    9.0950   -5.8044   -2.3485 O   0  0  0  1  0  0  0  0  0  0  0  0
   11.1237   -5.5902   -3.6402 C   0  0  0  1  0  0  0  0  0  0  0  0
   11.6939   -6.0843   -4.3989 H   0  0  0  1  0  0  0  0  0  0  0  0
    9.5811   -5.2081   -1.1624 C   0  0  0  1  0  0  0  0  0  0  0  0
   10.6409   -5.0805   -1.2352 H   0  0  0  1  0  0  0  0  0  0  0  0
    8.9479   -3.9795   -0.9288 O   0  0  0  1  0  0  0  0  0  0  0  0
    9.2186   -6.0599    0.0627 C   0  0  0  1  0  0  0  0  0  0  0  0
    9.9667   -6.8011    0.2522 H   0  0  0  1  0  0  0  0  0  0  0  0
    7.9507   -6.6950   -0.1085 O   0  0  0  1  0  0  0  0  0  0  0  0
    7.6296   -7.0039    0.7418 H   0  0  0  1  0  0  0  0  0  0  0  0
    9.1704   -5.0413    1.1712 C   0  0  0  1  0  0  0  0  0  0  0  0
   10.1454   -4.8692    1.5770 H   0  0  0  1  0  0  0  0  0  0  0  0
    8.2896   -5.4583    2.2104 O   0  0  0  1  0  0  0  0  0  0  0  0
    8.6397   -6.2477    2.6297 H   0  0  0  1  0  0  0  0  0  0  0  0
    9.2190   -2.4345    2.5174 C   0  0  0  1  0  0  0  0  0  0  0  0
    9.7621   -3.2350    2.9747 H   0  0  0  1  0  0  0  0  0  0  0  0
    9.6310   -1.4982    2.8313 H   0  0  0  1  0  0  0  0  0  0  0  0
    7.8554   -2.5052    2.9085 O   0  0  0  1  0  0  0  0  0  0  0  0
    7.2991   -2.5388    2.1269 H   0  0  0  1  0  0  0  0  0  0  0  0
    9.3248   -2.5517    1.0005 C   0  0  0  1  0  0  0  0  0  0  0  0
   10.3606   -2.5953    0.7355 H   0  0  0  1  0  0  0  0  0  0  0  0
    8.7156   -1.4103    0.3818 O   0  0  0  1  0  0  0  0  0  0  0  0
    8.8280   -1.4637   -0.5701 H   0  0  0  1  0  0  0  0  0  0  0  0
    8.6382   -3.7879    0.4700 C   0  0  0  1  0  0  0  0  0  0  0  0
    7.5815   -3.6983    0.6119 H   0  0  0  1  0  0  0  0  0  0  0  0
   13.2387   -3.2912   -2.0924 O   0  0  0  1  0  0  0  0  0  0  0  0
   21.9894   -6.9656    0.1893 O   0  0  0  1  0  0  0  0  0  0  0  0
   23.0154   -5.7142    0.2184 P   0  0  0  1  0  0  0  0  0  0  0  0
   22.3421   -4.6623    1.2299 O   0  0  0  1  0  0  0  0  0  0  0  0
   22.9737   -5.0263   -1.1099 O   0  0  0  0  0  0  0  0  0  0  0  0
   24.2785   -6.2735    0.7308 O   0  0  0  1  0  0  0  0  0  0  0  0
   20.8388   -4.0642    1.1855 P   0  0  0  1  0  0  0  0  0  0  0  0
   20.3355   -4.3674   -0.2705 O   0  0  0  1  0  0  0  0  0  0  0  0
   20.9128   -2.5707    1.2460 O   0  0  0  0  0  0  0  0  0  0  0  0
   20.0992   -4.8208    2.2187 O   0  0  0  1  0  0  0  0  0  0  0  0
   21.4394   -7.4337    1.4311 C   0  0  0  1  0  0  0  0  0  0  0  0
   20.8877   -6.6462    1.9005 H   0  0  0  1  0  0  0  0  0  0  0  0
   22.2300   -7.7511    2.0785 H   0  0  0  1  0  0  0  0  0  0  0  0
   20.5437   -8.5672    1.1498 C   0  0  0  1  0  0  0  0  0  0  0  0
   20.8734   -9.3788    0.5893 H   0  0  0  1  0  0  0  0  0  0  0  0
   19.3044   -8.5307    1.6277 C   0  0  0  1  0  0  0  0  0  0  0  0
   18.4484   -9.7630    1.6724 C   0  0  0  1  0  0  0  0  0  0  0  0
   17.8222   -9.7317    2.5395 H   0  0  0  1  0  0  0  0  0  0  0  0
   19.0738  -10.6301    1.7156 H   0  0  0  1  0  0  0  0  0  0  0  0
   17.8389   -9.8057    0.7940 H   0  0  0  1  0  0  0  0  0  0  0  0
   18.6464   -7.2884    2.1590 C   0  0  0  1  0  0  0  0  0  0  0  0
   17.5965   -7.3480    1.9614 H   0  0  0  1  0  0  0  0  0  0  0  0
   19.0580   -6.4413    1.6511 H   0  0  0  1  0  0  0  0  0  0  0  0
   18.8475   -7.1010    3.6539 C   0  0  0  1  0  0  0  0  0  0  0  0
   19.8942   -7.0156    3.8591 H   0  0  0  1  0  0  0  0  0  0  0  0
   18.4503   -7.9497    4.1704 H   0  0  0  1  0  0  0  0  0  0  0  0
   18.1473   -5.8583    4.1349 C   0  0  0  1  0  0  0  0  0  0  0  0
   17.8821   -5.1644    3.4071 H   0  0  0  1  0  0  0  0  0  0  0  0
   17.8312   -5.5518    5.3886 C   0  0  0  1  0  0  0  0  0  0  0  0
   17.4301   -4.1754    5.8338 C   0  0  0  1  0  0  0  0  0  0  0  0
   16.6184   -4.2467    6.5273 H   0  0  0  1  0  0  0  0  0  0  0  0
   17.1238   -3.6012    4.9844 H   0  0  0  1  0  0  0  0  0  0  0  0
   18.2622   -3.6973    6.3070 H   0  0  0  1  0  0  0  0  0  0  0  0
   17.8522   -6.5833    6.4784 C   0  0  0  1  0  0  0  0  0  0  0  0
   18.7772   -6.4859    7.0073 H   0  0  0  1  0  0  0  0  0  0  0  0
   17.8029   -7.5489    6.0199 H   0  0  0  1  0  0  0  0  0  0  0  0
   16.7215   -6.4860    7.4895 C   0  0  0  1  0  0  0  0  0  0  0  0
   15.8069   -6.7878    7.0231 H   0  0  0  1  0  0  0  0  0  0  0  0
   16.6351   -5.4729    7.8228 H   0  0  0  1  0  0  0  0  0  0  0  0
   16.9859   -7.3690    8.6675 C   0  0  0  1  0  0  0  0  0  0  0  0
   17.8698   -7.2169    9.1940 H   0  0  0  1  0  0  0  0  0  0  0  0
   16.1759   -8.3331    9.0913 C   0  0  0  1  0  0  0  0  0  0  0  0
   15.0430   -8.8906    8.2741 C   0  0  0  1  0  0  0  0  0  0  0  0
   14.2636   -8.1589    8.2287 H   0  0  0  1  0  0  0  0  0  0  0  0
   14.6770   -9.7728    8.7565 H   0  0  0  1  0  0  0  0  0  0  0  0
   16.3352   -8.9530   10.4510 C   0  0  0  1  0  0  0  0  0  0  0  0
   15.6948   -9.8064   10.5318 H   0  0  0  1  0  0  0  0  0  0  0  0
   16.0722   -8.2376   11.2019 H   0  0  0  1  0  0  0  0  0  0  0  0
   17.3522   -9.2564   10.5874 H   0  0  0  1  0  0  0  0  0  0  0  0
   15.4528   -9.2496    6.8551 C   0  0  0  1  0  0  0  0  0  0  0  0
   16.2462   -9.9661    6.9007 H   0  0  0  1  0  0  0  0  0  0  0  0
   15.7995   -8.3633    6.3662 H   0  0  0  1  0  0  0  0  0  0  0  0
   14.3381   -9.8273    6.0546 C   0  0  0  1  0  0  0  0  0  0  0  0
   14.4444   -9.9196    5.0242 H   0  0  0  1  0  0  0  0  0  0  0  0
   13.2053  -10.2287    6.6344 C   0  0  0  1  0  0  0  0  0  0  0  0
   12.8091   -9.8580    8.0355 C   0  0  0  1  0  0  0  0  0  0  0  0
   11.8321  -10.2542    8.2180 H   0  0  0  1  0  0  0  0  0  0  0  0
   12.7790   -8.7902    8.0985 H   0  0  0  1  0  0  0  0  0  0  0  0
   12.2201  -11.1008    5.9129 C   0  0  0  1  0  0  0  0  0  0  0  0
   11.4588  -10.4912    5.4728 H   0  0  0  1  0  0  0  0  0  0  0  0
   11.7739  -11.7833    6.6057 H   0  0  0  1  0  0  0  0  0  0  0  0
   12.7250  -11.6498    5.1457 H   0  0  0  1  0  0  0  0  0  0  0  0
   13.7332  -10.3663    9.1301 C   0  0  0  1  0  0  0  0  0  0  0  0
   14.7403  -10.1164    8.8688 H   0  0  0  1  0  0  0  0  0  0  0  0
   13.6339  -11.4298    9.1929 H   0  0  0  1  0  0  0  0  0  0  0  0
   13.4280   -9.7759   10.4808 C   0  0  0  1  0  0  0  0  0  0  0  0
   13.7827   -8.8143   10.6572 H   0  0  0  1  0  0  0  0  0  0  0  0
   12.7521  -10.3524   11.4758 C   0  0  0  1  0  0  0  0  0  0  0  0
   12.4290  -11.8217   11.4245 C   0  0  0  1  0  0  0  0  0  0  0  0
   12.7525  -12.2088   10.4809 H   0  0  0  1  0  0  0  0  0  0  0  0
   11.3695  -11.9408   11.5151 H   0  0  0  1  0  0  0  0  0  0  0  0
   12.2208   -9.5542   12.6013 C   0  0  0  1  0  0  0  0  0  0  0  0
   11.5540   -8.8065   12.2255 H   0  0  0  1  0  0  0  0  0  0  0  0
   13.0308   -9.0824   13.1174 H   0  0  0  1  0  0  0  0  0  0  0  0
   11.6931  -10.1959   13.2756 H   0  0  0  1  0  0  0  0  0  0  0  0
   13.1017  -12.6183   12.5306 C   0  0  0  1  0  0  0  0  0  0  0  0
   12.7237  -12.2795   13.4725 H   0  0  0  1  0  0  0  0  0  0  0  0
   14.1560  -12.4419   12.4844 H   0  0  0  1  0  0  0  0  0  0  0  0
   12.8586  -14.0999   12.4217 C   0  0  0  1  0  0  0  0  0  0  0  0
   11.8814  -14.4217   12.5736 H   0  0  0  1  0  0  0  0  0  0  0  0
   13.7564  -15.0403   12.1528 C   0  0  0  1  0  0  0  0  0  0  0  0
   15.1077  -14.6937   11.5948 C   0  0  0  1  0  0  0  0  0  0  0  0
   15.8354  -15.3697   11.9927 H   0  0  0  1  0  0  0  0  0  0  0  0
   15.3579  -13.6926   11.8777 H   0  0  0  1  0  0  0  0  0  0  0  0
   13.5244  -16.5068   12.3711 C   0  0  0  1  0  0  0  0  0  0  0  0
   13.4806  -17.0060   11.4257 H   0  0  0  1  0  0  0  0  0  0  0  0
   12.6003  -16.6478   12.8918 H   0  0  0  1  0  0  0  0  0  0  0  0
   14.3268  -16.9121   12.9514 H   0  0  0  1  0  0  0  0  0  0  0  0
   15.1074  -14.7978   10.0784 C   0  0  0  1  0  0  0  0  0  0  0  0
   14.3819  -14.1081    9.7004 H   0  0  0  1  0  0  0  0  0  0  0  0
   14.8227  -15.7953    9.8161 H   0  0  0  1  0  0  0  0  0  0  0  0
   16.4234  -14.4998    9.4109 C   0  0  0  1  0  0  0  0  0  0  0  0
   17.1749  -14.1156   10.0186 H   0  0  0  1  0  0  0  0  0  0  0  0
   16.7289  -14.6743    8.1297 C   0  0  0  1  0  0  0  0  0  0  0  0
   15.9082  -15.5010    7.1828 C   0  0  0  1  0  0  0  0  0  0  0  0
   14.9194  -15.5785    7.5842 H   0  0  0  1  0  0  0  0  0  0  0  0
   16.3487  -16.4746    7.1278 H   0  0  0  1  0  0  0  0  0  0  0  0
   17.9477  -14.0421    7.5187 C   0  0  0  1  0  0  0  0  0  0  0  0
   18.6282  -14.8066    7.2065 H   0  0  0  1  0  0  0  0  0  0  0  0
   18.4244  -13.4145    8.2423 H   0  0  0  1  0  0  0  0  0  0  0  0
   17.6583  -13.4551    6.6721 H   0  0  0  1  0  0  0  0  0  0  0  0
   15.7987  -14.9554    5.7684 C   0  0  0  1  0  0  0  0  0  0  0  0
   14.8092  -15.1546    5.4134 H   0  0  0  1  0  0  0  0  0  0  0  0
   16.5083  -15.4745    5.1585 H   0  0  0  1  0  0  0  0  0  0  0  0
   16.0551  -13.4790    5.6247 C   0  0  0  1  0  0  0  0  0  0  0  0
   15.8641  -12.8917    6.4615 H   0  0  0  1  0  0  0  0  0  0  0  0
   16.4984  -12.8453    4.5456 C   0  0  0  1  0  0  0  0  0  0  0  0
   16.4967  -13.5067    3.1933 C   0  0  0  1  0  0  0  0  0  0  0  0
   17.5061  -13.7433    2.9286 H   0  0  0  1  0  0  0  0  0  0  0  0
   16.0916  -12.8207    2.4791 H   0  0  0  1  0  0  0  0  0  0  0  0
   17.0338  -11.4411    4.5580 C   0  0  0  1  0  0  0  0  0  0  0  0
   16.5390  -10.8635    3.8055 H   0  0  0  1  0  0  0  0  0  0  0  0
   18.0852  -11.4588    4.3599 H   0  0  0  1  0  0  0  0  0  0  0  0
   16.8585  -11.0014    5.5176 H   0  0  0  1  0  0  0  0  0  0  0  0
   15.6747  -14.7848    3.1567 C   0  0  0  1  0  0  0  0  0  0  0  0
   14.6468  -14.5332    3.3150 H   0  0  0  1  0  0  0  0  0  0  0  0
   16.0102  -15.4281    3.9431 H   0  0  0  1  0  0  0  0  0  0  0  0
   15.7915  -15.5237    1.8505 C   0  0  0  1  0  0  0  0  0  0  0  0
   16.1769  -15.0040    1.0363 H   0  0  0  1  0  0  0  0  0  0  0  0
   15.4388  -16.7906    1.6601 C   0  0  0  1  0  0  0  0  0  0  0  0
   15.5670  -17.5022    0.3446 C   0  0  0  1  0  0  0  0  0  0  0  0
   14.5921  -17.6021   -0.0850 H   0  0  0  1  0  0  0  0  0  0  0  0
   15.9806  -18.4730    0.5214 H   0  0  0  1  0  0  0  0  0  0  0  0
   14.8719  -17.6250    2.7741 C   0  0  0  1  0  0  0  0  0  0  0  0
   14.8733  -18.6303    2.4075 H   0  0  0  1  0  0  0  0  0  0  0  0
   13.8749  -17.3127    3.0049 H   0  0  0  1  0  0  0  0  0  0  0  0
   15.4828  -17.5452    3.6489 H   0  0  0  1  0  0  0  0  0  0  0  0
   16.4586  -16.7692   -0.6444 C   0  0  0  1  0  0  0  0  0  0  0  0
   16.1014  -15.7658   -0.7463 H   0  0  0  1  0  0  0  0  0  0  0  0
   16.3998  -17.2670   -1.5898 H   0  0  0  1  0  0  0  0  0  0  0  0
   17.8918  -16.7234   -0.2188 C   0  0  0  1  0  0  0  0  0  0  0  0
   18.0937  -16.2376    0.6783 H   0  0  0  1  0  0  0  0  0  0  0  0
   18.9350  -17.2360   -0.8626 C   0  0  0  1  0  0  0  0  0  0  0  0
   20.3490  -17.1384   -0.3682 C   0  0  0  1  0  0  0  0  0  0  0  0
   20.6427  -18.0736    0.0608 H   0  0  0  1  0  0  0  0  0  0  0  0
   20.4150  -16.3698    0.3732 H   0  0  0  1  0  0  0  0  0  0  0  0
   20.9971  -16.9023   -1.1862 H   0  0  0  1  0  0  0  0  0  0  0  0
   18.7723  -17.9722   -2.1703 C   0  0  0  1  0  0  0  0  0  0  0  0
   19.0707  -18.9864   -2.0051 H   0  0  0  1  0  0  0  0  0  0  0  0
   19.3914  -17.5264   -2.9205 H   0  0  0  1  0  0  0  0  0  0  0  0
   17.7500  -17.9383   -2.4843 H   0  0  0  1  0  0  0  0  0  0  0  0
   16.1265   -5.2329   -1.8586 C   0  0  0  1  0  0  0  0  0  0  0  0
   16.4515   -5.8008   -1.0120 H   0  0  0  1  0  0  0  0  0  0  0  0
   14.8312   -5.8009   -2.3805 C   0  0  0  1  0  0  0  0  0  0  0  0
   15.0057   -6.7892   -2.7516 H   0  0  0  1  0  0  0  0  0  0  0  0
   15.9179   -3.8766   -1.4720 O   0  0  0  1  0  0  0  0  0  0  0  0
   14.2770   -4.9354   -3.5052 C   0  0  0  1  0  0  0  0  0  0  0  0
   13.2900   -5.2699   -3.7474 H   0  0  0  1  0  0  0  0  0  0  0  0
   15.5655   -3.0133   -2.5689 C   0  0  0  1  0  0  0  0  0  0  0  0
   16.3024   -3.0877   -3.3411 H   0  0  0  1  0  0  0  0  0  0  0  0
   14.2168   -3.4601   -3.0991 C   0  0  0  1  0  0  0  0  0  0  0  0
   13.9576   -2.8681   -3.9519 H   0  0  0  1  0  0  0  0  0  0  0  0
   17.1179   -5.2907   -2.8788 O   0  0  0  1  0  0  0  0  0  0  0  0
   13.8794   -5.8522   -1.3161 O   0  0  0  1  0  0  0  0  0  0  0  0
   14.2063   -5.3454   -0.5692 H   0  0  0  1  0  0  0  0  0  0  0  0
   15.1149   -5.0667   -4.6443 O   0  0  0  1  0  0  0  0  0  0  0  0
   15.9923   -4.7371   -4.4365 H   0  0  0  1  0  0  0  0  0  0  0  0
   15.4802   -1.5840   -2.0896 C   0  0  0  1  0  0  0  0  0  0  0  0
   14.6784   -1.4901   -1.3873 H   0  0  0  1  0  0  0  0  0  0  0  0
   15.3007   -0.9385   -2.9239 H   0  0  0  1  0  0  0  0  0  0  0  0
   16.4009   -1.3107   -1.6181 H   0  0  0  1  0  0  0  0  0  0  0  0
   20.1908   -5.6671   -0.7769 C   0  0  0  1  0  0  0  0  0  0  0  0
   20.4351   -6.3768   -0.0143 H   0  0  0  1  0  0  0  0  0  0  0  0
   18.7429   -5.8799   -1.2236 C   0  0  0  1  0  0  0  0  0  0  0  0
   18.0867   -5.6721   -0.4044 H   0  0  0  1  0  0  0  0  0  0  0  0
   21.0752   -5.8447   -1.8944 O   0  0  0  1  0  0  0  0  0  0  0  0
   18.4083   -4.9579   -2.3782 C   0  0  0  1  0  0  0  0  0  0  0  0
   18.4056   -3.9469   -2.0277 H   0  0  0  1  0  0  0  0  0  0  0  0
   20.8400   -4.9208   -2.9494 C   0  0  0  1  0  0  0  0  0  0  0  0
   20.9531   -3.9244   -2.5761 H   0  0  0  1  0  0  0  0  0  0  0  0
   19.4293   -5.0910   -3.5060 C   0  0  0  1  0  0  0  0  0  0  0  0
   19.3389   -6.0582   -3.9545 H   0  0  0  1  0  0  0  0  0  0  0  0
   18.5679   -7.2732   -1.6504 N   0  0  0  1  0  0  0  0  0  0  0  0
   19.0676   -7.5718   -2.4387 H   0  0  0  1  0  0  0  0  0  0  0  0
   19.1832   -4.0846   -4.4893 O   0  0  0  1  0  0  0  0  0  0  0  0
   20.0369   -3.8575   -4.8651 H   0  0  0  1  0  0  0  0  0  0  0  0
   21.8363   -5.1610   -4.0473 C   0  0  0  1  0  0  0  0  0  0  0  0
   21.6581   -6.1138   -4.5003 H   0  0  0  1  0  0  0  0  0  0  0  0
   22.8299   -5.1341   -3.6512 H   0  0  0  1  0  0  0  0  0  0  0  0
   21.6692   -4.1276   -5.0090 O   0  0  0  1  0  0  0  0  0  0  0  0
   22.5226   -3.9515   -5.4119 H   0  0  0  1  0  0  0  0  0  0  0  0
   17.7797   -8.1637   -1.0460 C   0  0  0  1  0  0  0  0  0  0  0  0
   17.1701   -7.9260   -0.0042 O   0  0  0  1  0  0  0  0  0  0  0  0
   17.7326   -9.5708   -1.6551 C   0  0  0  1  0  0  0  0  0  0  0  0
   18.7298   -9.7444   -2.0020 H   0  0  0  1  0  0  0  0  0  0  0  0
   17.0374   -9.6084   -2.4675 H   0  0  0  1  0  0  0  0  0  0  0  0
   17.4578  -10.2941   -0.9160 H   0  0  0  1  0  0  0  0  0  0  0  0
  1  2  1  0  0  0  0
  1  3  1  0  0  0  0
  1  4  1  0  0  0  0
  1 44  1  0  0  0  0
  3 20  1  0  0  0  0
  4  5  1  0  0  0  0
  4  6  1  0  0  0  0
  4  8  1  0  0  0  0
  6  7  1  0  0  0  0
  8  9  1  0  0  0  0
  8 10  1  0  0  0  0
  8 20  1  0  0  0  0
 10 11  1  0  0  0  0
 12 13  1  0  0  0  0
 12 14  1  0  0  0  0
 12 15  1  0  0  0  0
 12 17  1  0  0  0  0
 15 16  1  0  0  0  0
 17 18  1  0  0  0  0
 17 19  1  0  0  0  0
 17 20  1  0  0  0  0
 19 22  1  0  0  0  0
 20 21  1  0  0  0  0
 22 23  1  0  0  0  0
 22 24  1  0  0  0  0
 22 25  1  0  0  0  0
 24 42  1  0  0  0  0
 25 26  1  0  0  0  0
 25 27  1  0  0  0  0
 25 29  1  0  0  0  0
 27 28  1  0  0  0  0
 29 30  1  0  0  0  0
 29 31  1  0  0  0  0
 29 42  1  0  0  0  0
 31 32  1  0  0  0  0
 33 34  1  0  0  0  0
 33 35  1  0  0  0  0
 33 36  1  0  0  0  0
 33 38  1  0  0  0  0
 36 37  1  0  0  0  0
 38 39  1  0  0  0  0
 38 40  1  0  0  0  0
 38 42  1  0  0  0  0
 40 41  1  0  0  0  0
 42 43  1  0  0  0  0
 44194  1  0  0  0  0
 45 46  1  0  0  0  0
 45 54  1  0  0  0  0
 46 47  1  0  0  0  0
 46 48  1  0  0  0  0
 46 49  2  0  0  0  0
 47 50  1  0  0  0  0
 50 51  1  0  0  0  0
 50 52  1  0  0  0  0
 50 53  2  0  0  0  0
 51205  1  0  0  0  0
 54 55  1  0  0  0  0
 54 56  1  0  0  0  0
 54 57  1  0  0  0  0
 57 58  1  0  0  0  0
 57 59  2  0  0  0  0
 59 60  1  0  0  0  0
 59 64  1  0  0  0  0
 60 61  1  0  0  0  0
 60 62  1  0  0  0  0
 60 63  1  0  0  0  0
 64 65  1  0  0  0  0
 64 66  1  0  0  0  0
 64 67  1  0  0  0  0
 67 68  1  0  0  0  0
 67 69  1  0  0  0  0
 67 70  1  0  0  0  0
 70 71  1  0  0  0  0
 70 72  2  0  0  0  0
 72 73  1  0  0  0  0
 72 77  1  0  0  0  0
 73 74  1  0  0  0  0
 73 75  1  0  0  0  0
 73 76  1  0  0  0  0
 77 78  1  0  0  0  0
 77 79  1  0  0  0  0
 77 80  1  0  0  0  0
 80 81  1  0  0  0  0
 80 82  1  0  0  0  0
 80 83  1  0  0  0  0
 83 84  1  0  0  0  0
 83 85  2  0  0  0  0
 85 86  1  0  0  0  0
 85 89  1  0  0  0  0
 86 87  1  0  0  0  0
 86 88  1  0  0  0  0
 86 93  1  0  0  0  0
 89 90  1  0  0  0  0
 89 91  1  0  0  0  0
 89 92  1  0  0  0  0
 93 94  1  0  0  0  0
 93 95  1  0  0  0  0
 93 96  1  0  0  0  0
 96 97  1  0  0  0  0
 96 98  2  0  0  0  0
 98 99  1  0  0  0  0
 98102  1  0  0  0  0
 99100  1  0  0  0  0
 99101  1  0  0  0  0
 99106  1  0  0  0  0
102103  1  0  0  0  0
102104  1  0  0  0  0
102105  1  0  0  0  0
106107  1  0  0  0  0
106108  1  0  0  0  0
106109  1  0  0  0  0
109110  1  0  0  0  0
109111  2  0  0  0  0
111112  1  0  0  0  0
111115  1  0  0  0  0
112113  1  0  0  0  0
112114  1  0  0  0  0
112119  1  0  0  0  0
115116  1  0  0  0  0
115117  1  0  0  0  0
115118  1  0  0  0  0
119120  1  0  0  0  0
119121  1  0  0  0  0
119122  1  0  0  0  0
122123  1  0  0  0  0
122124  2  0  0  0  0
124125  1  0  0  0  0
124128  1  0  0  0  0
125126  1  0  0  0  0
125127  1  0  0  0  0
125132  1  0  0  0  0
128129  1  0  0  0  0
128130  1  0  0  0  0
128131  1  0  0  0  0
132133  1  0  0  0  0
132134  1  0  0  0  0
132135  1  0  0  0  0
135136  1  0  0  0  0
135137  2  0  0  0  0
137138  1  0  0  0  0
137141  1  0  0  0  0
138139  1  0  0  0  0
138140  1  0  0  0  0
138145  1  0  0  0  0
141142  1  0  0  0  0
141143  1  0  0  0  0
141144  1  0  0  0  0
145146  1  0  0  0  0
145147  1  0  0  0  0
145148  1  0  0  0  0
148149  1  0  0  0  0
148150  2  0  0  0  0
150151  1  0  0  0  0
150154  1  0  0  0  0
151152  1  0  0  0  0
151153  1  0  0  0  0
151158  1  0  0  0  0
154155  1  0  0  0  0
154156  1  0  0  0  0
154157  1  0  0  0  0
158159  1  0  0  0  0
158160  1  0  0  0  0
158161  1  0  0  0  0
161162  1  0  0  0  0
161163  2  0  0  0  0
163164  1  0  0  0  0
163167  1  0  0  0  0
164165  1  0  0  0  0
164166  1  0  0  0  0
164171  1  0  0  0  0
167168  1  0  0  0  0
167169  1  0  0  0  0
167170  1  0  0  0  0
171172  1  0  0  0  0
171173  1  0  0  0  0
171174  1  0  0  0  0
174175  1  0  0  0  0
174176  2  0  0  0  0
176177  1  0  0  0  0
176181  1  0  0  0  0
177178  1  0  0  0  0
177179  1  0  0  0  0
177180  1  0  0  0  0
181182  1  0  0  0  0
181183  1  0  0  0  0
181184  1  0  0  0  0
185186  1  0  0  0  0
185187  1  0  0  0  0
185189  1  0  0  0  0
185196  1  0  0  0  0
187188  1  0  0  0  0
187190  1  0  0  0  0
187197  1  0  0  0  0
189192  1  0  0  0  0
190191  1  0  0  0  0
190194  1  0  0  0  0
190199  1  0  0  0  0
192193  1  0  0  0  0
192194  1  0  0  0  0
192201  1  0  0  0  0
194195  1  0  0  0  0
196210  1  0  0  0  0
197198  1  0  0  0  0
199200  1  0  0  0  0
201202  1  0  0  0  0
201203  1  0  0  0  0
201204  1  0  0  0  0
205206  1  0  0  0  0
205207  1  0  0  0  0
205209  1  0  0  0  0
207208  1  0  0  0  0
207210  1  0  0  0  0
207216  1  0  0  0  0
209212  1  0  0  0  0
210211  1  0  0  0  0
210214  1  0  0  0  0
212213  1  0  0  0  0
212214  1  0  0  0  0
212220  1  0  0  0  0
214215  1  0  0  0  0
214218  1  0  0  0  0
216217  1  0  0  0  0
216225  1  0  0  0  0
218219  1  0  0  0  0
220221  1  0  0  0  0
220222  1  0  0  0  0
220223  1  0  0  0  0
223224  1  0  0  0  0
225226  2  0  0  0  0
225227  1  0  0  0  0
227228  1  0  0  0  0
227229  1  0  0  0  0
227230  1  0  0  0  0
M  BCL ATM C_TeTeTeTe H_S O_Te2Te2TeTe C_TeTeTeTe H_S O_Te2Te2TeTe H_S C_TeTeTeTe H_S O_Te2Te2TeTe H_S C_TeTeTeTe H_S H_S O_Te2Te2TeTe H_S C_TeTeTeTe H_S O_Te2Te2TeTe C_TeTeTeTe H_S C_TeTeTeTe H_S O_Te2Te2TeTe C_TeTeTeTe H_S O_Te2Te2TeTe H_S C_TeTeTeTe H_S O_Te2Te2TeTe H_S C_TeTeTeTe H_S H_S O_Te2Te2TeTe H_S C_TeTeTeTe H_S O_Te2Te2TeTe H_S C_TeTeTeTe H_S O_Te2Te2TeTe O_Tr2TrTrPi2 P_TeTeTeTePi O_Tr2TrTrPi2 O_Te2Te2TeTe O_Tr2Tr2TrPi P_TeTeTeTePi O_Tr2TrTrPi2 O_Te2Te2TeTe O_Tr2Tr2TrPi C_TeTeTeTe H_S H_S C_TrTrTrPi H_S C_TrTrTrPi C_TeTeTeTe H_S H_S H_S C_TeTeTeTe H_S H_S C_TeTeTeTe H_S H_S C_TrTrTrPi H_S C_TrTrTrPi C_TeTeTeTe H_S H_S H_S C_TeTeTeTe H_S H_S C_TeTeTeTe H_S H_S C_TrTrTrPi H_S C_TrTrTrPi C_TeTeTeTe H_S H_S C_TeTeTeTe H_S H_S H_S C_TeTeTeTe H_S H_S C_TrTrTrPi H_S C_TrTrTrPi C_TeTeTeTe H_S H_S C_TeTeTeTe H_S H_S H_S C_TeTeTeTe H_S H_S C_TrTrTrPi H_S C_TrTrTrPi C_TeTeTeTe H_S H_S C_TeTeTeTe H_S H_S H_S C_TeTeTeTe H_S H_S C_TrTrTrPi H_S C_TrTrTrPi C_TeTeTeTe H_S H_S C_TeTeTeTe H_S H_S H_S C_TeTeTeTe H_S H_S C_TrTrTrPi H_S C_TrTrTrPi C_TeTeTeTe H_S H_S C_TeTeTeTe H_S H_S H_S C_TeTeTeTe H_S H_S C_TrTrTrPi H_S C_TrTrTrPi C_TeTeTeTe H_S H_S C_TeTeTeTe H_S H_S H_S C_TeTeTeTe H_S H_S C_TrTrTrPi H_S C_TrTrTrPi C_TeTeTeTe H_S H_S C_TeTeTeTe H_S H_S H_S C_TeTeTeTe H_S H_S C_TrTrTrPi H_S C_TrTrTrPi C_TeTeTeTe H_S H_S H_S C_TeTeTeTe H_S H_S H_S C_TeTeTeTe H_S C_TeTeTeTe H_S O_Te2Te2TeTe C_TeTeTeTe H_S C_TeTeTeTe H_S C_TeTeTeTe H_S O_Te2Te2TeTe O_Te2Te2TeTe H_S O_Te2Te2TeTe H_S C_TeTeTeTe H_S H_S H_S C_TeTeTeTe H_S C_TeTeTeTe H_S O_Te2Te2TeTe C_TeTeTeTe H_S C_TeTeTeTe H_S C_TeTeTeTe H_S N_TrTrTrPi2 H_S O_Te2Te2TeTe H_S C_TeTeTeTe H_S H_S O_Te2Te2TeTe H_S C_TrTrTrPi O_Tr2Tr2TrPi C_TeTeTeTe H_S H_S H_S
M  BCL BND NonConjugatedSingleBond NonConjugatedSingleBondInRing NonConjugatedSingleBondInRing NonConjugatedSingleBond NonConjugatedSingleBondInRing NonConjugatedSingleBond NonConjugatedSingleBond NonConjugatedSingleBondInRing NonConjugatedSingleBond NonConjugatedSingleBond NonConjugatedSingleBond NonConjugatedSingleBondInRing NonConjugatedSingleBond NonConjugatedSingleBond NonConjugatedSingleBond NonConjugatedSingleBond NonConjugatedSingleBond NonConjugatedSingleBond NonConjugatedSingleBond NonConjugatedSingleBond NonConjugatedSingleBond NonConjugatedSingleBond NonConjugatedSingleBond NonConjugatedSingleBond NonConjugatedSingleBondInRing NonConjugatedSingleBondInRing NonConjugatedSingleBondInRing NonConjugatedSingleBond NonConjugatedSingleBond NonConjugatedSingleBondInRing NonConjugatedSingleBond NonConjugatedSingleBond NonConjugatedSingleBond NonConjugatedSingleBondInRing NonConjugatedSingleBond NonConjugatedSingleBond NonConjugatedSingleBond NonConjugatedSingleBond NonConjugatedSingleBond NonConjugatedSingleBond NonConjugatedSingleBond NonConjugatedSingleBond NonConjugatedSingleBond NonConjugatedSingleBond NonConjugatedSingleBond NonConjugatedSingleBond ConjugatedSingleBond NonConjugatedSingleBond ConjugatedSingleBond ConjugatedSingleBond ConjugatedDoubleBond ConjugatedSingleBond ConjugatedSingleBond ConjugatedSingleBond ConjugatedDoubleBond NonConjugatedSingleBond NonConjugatedSingleBond NonConjugatedSingleBond NonConjugatedSingleBond NonConjugatedSingleBond ConjugatedDoubleBond NonConjugatedSingleBond NonConjugatedSingleBond NonConjugatedSingleBond NonConjugatedSingleBond NonConjugatedSingleBond NonConjugatedSingleBond NonConjugatedSingleBond NonConjugatedSingleBond NonConjugatedSingleBond NonConjugatedSingleBond NonConjugatedSingleBond NonConjugatedSingleBond ConjugatedDoubleBond NonConjugatedSingleBond NonConjugatedSingleBond NonConjugatedSingleBond NonConjugatedSingleBond NonConjugatedSingleBond NonConjugatedSingleBond NonConjugatedSingleBond NonConjugatedSingleBond NonConjugatedSingleBond NonConjugatedSingleBond NonConjugatedSingleBond NonConjugatedSingleBond ConjugatedDoubleBond NonConjugatedSingleBond NonConjugatedSingleBond NonConjugatedSingleBond NonConjugatedSingleBond NonConjugatedSingleBond NonConjugatedSingleBond NonConjugatedSingleBond NonConjugatedSingleBond NonConjugatedSingleBond NonConjugatedSingleBond NonConjugatedSingleBond NonConjugatedSingleBond ConjugatedDoubleBond NonConjugatedSingleBond NonConjugatedSingleBond NonConjugatedSingleBond NonConjugatedSingleBond NonConjugatedSingleBond NonConjugatedSingleBond NonConjugatedSingleBond NonConjugatedSingleBond NonConjugatedSingleBond NonConjugatedSingleBond NonConjugatedSingleBond NonConjugatedSingleBond ConjugatedDoubleBond NonConjugatedSingleBond NonConjugatedSingleBond NonConjugatedSingleBond NonConjugatedSingleBond NonConjugatedSingleBond NonConjugatedSingleBond NonConjugatedSingleBond NonConjugatedSingleBond NonConjugatedSingleBond NonConjugatedSingleBond NonConjugatedSingleBond NonConjugatedSingleBond ConjugatedDoubleBond NonConjugatedSingleBond NonConjugatedSingleBond NonConjugatedSingleBond NonConjugatedSingleBond NonConjugatedSingleBond NonConjugatedSingleBond NonConjugatedSingleBond NonConjugatedSingleBond NonConjugatedSingleBond NonConjugatedSingleBond NonConjugatedSingleBond NonConjugatedSingleBond ConjugatedDoubleBond NonConjugatedSingleBond NonConjugatedSingleBond NonConjugatedSingleBond NonConjugatedSingleBond NonConjugatedSingleBond NonConjugatedSingleBond NonConjugatedSingleBond NonConjugatedSingleBond NonConjugatedSingleBond NonConjugatedSingleBond NonConjugatedSingleBond NonConjugatedSingleBond ConjugatedDoubleBond NonConjugatedSingleBond NonConjugatedSingleBond NonConjugatedSingleBond NonConjugatedSingleBond NonConjugatedSingleBond NonConjugatedSingleBond NonConjugatedSingleBond NonConjugatedSingleBond NonConjugatedSingleBond NonConjugatedSingleBond NonConjugatedSingleBond NonConjugatedSingleBond ConjugatedDoubleBond NonConjugatedSingleBond NonConjugatedSingleBond NonConjugatedSingleBond NonConjugatedSingleBond NonConjugatedSingleBond NonConjugatedSingleBond NonConjugatedSingleBond NonConjugatedSingleBond NonConjugatedSingleBond NonConjugatedSingleBond NonConjugatedSingleBond NonConjugatedSingleBond ConjugatedDoubleBond NonConjugatedSingleBond NonConjugatedSingleBond NonConjugatedSingleBond NonConjugatedSingleBond NonConjugatedSingleBond NonConjugatedSingleBond NonConjugatedSingleBond NonConjugatedSingleBond NonConjugatedSingleBond NonConjugatedSingleBondInRing NonConjugatedSingleBondInRing NonConjugatedSingleBond NonConjugatedSingleBond NonConjugatedSingleBondInRing NonConjugatedSingleBond NonConjugatedSingleBondInRing NonConjugatedSingleBond NonConjugatedSingleBondInRing NonConjugatedSingleBond NonConjugatedSingleBond NonConjugatedSingleBondInRing NonConjugatedSingleBond NonConjugatedSingleBond NonConjugatedSingleBond NonConjugatedSingleBond NonConjugatedSingleBond NonConjugatedSingleBond NonConjugatedSingleBond NonConjugatedSingleBond NonConjugatedSingleBond NonConjugatedSingleBondInRing NonConjugatedSingleBondInRing NonConjugatedSingleBond NonConjugatedSingleBondInRing NonConjugatedSingleBond NonConjugatedSingleBondInRing NonConjugatedSingleBond NonConjugatedSingleBondInRing NonConjugatedSingleBond NonConjugatedSingleBondInRing NonConjugatedSingleBond NonConjugatedSingleBond NonConjugatedSingleBond NonConjugatedSingleBond AmideSingleBond NonConjugatedSingleBond NonConjugatedSingleBond NonConjugatedSingleBond NonConjugatedSingleBond NonConjugatedSingleBond ConjugatedDoubleBond NonConjugatedSingleBond NonConjugatedSingleBond NonConjugatedSingleBond NonConjugatedSingleBond
M  BCL CHI   1   R   4   R   8   R  17   S  20   R  22   S  25   R  29   S  38   S  42   R  46   R  50   S 185   R 187   S 190   S 192   R 194   R 205   R 207   S 210   R 212   S 214   S
M  BCL DBI - - E E E E E E E E Z - -
M  END
> <ConfClashScore>
0.0350717 

> <ConfOneFourInteractionScore>
-0.971293 

> <ConfScore>
3.61843 

> <ConfScorePBest>
0.00500445 

> <ConfTolerance>
5.5048 

$$$$
L05.****
  PyMOL2.5          3D                             0

230233  0  0  0  0  0  0  0  0999 V2000
   12.1361   -2.7435   -3.1866 C   0  0  0  1  0  0  0  0  0  0  0  0
   11.2896   -2.6390   -2.5406 H   0  0  0  1  0  0  0  0  0  0  0  0
   11.8208   -3.6308   -4.2759 O   0  0  0  1  0  0  0  0  0  0  0  0
   12.4931   -1.4030   -3.7988 C   0  0  0  1  0  0  0  0  0  0  0  0
   13.5519   -1.3026   -3.9162 H   0  0  0  1  0  0  0  0  0  0  0  0
   11.9973   -0.3255   -3.0027 O   0  0  0  1  0  0  0  0  0  0  0  0
   11.6864    0.3794   -3.5754 H   0  0  0  1  0  0  0  0  0  0  0  0
   11.7953   -1.4529   -5.1476 C   0  0  0  1  0  0  0  0  0  0  0  0
   10.7670   -1.1687   -5.0652 H   0  0  0  1  0  0  0  0  0  0  0  0
   12.4470   -0.6134   -6.1019 O   0  0  0  1  0  0  0  0  0  0  0  0
   13.2319   -0.2275   -5.7061 H   0  0  0  1  0  0  0  0  0  0  0  0
    9.4532   -3.1913   -5.8420 C   0  0  0  1  0  0  0  0  0  0  0  0
    8.8372   -2.6287   -6.5121 H   0  0  0  1  0  0  0  0  0  0  0  0
    9.0388   -4.1691   -5.7117 H   0  0  0  1  0  0  0  0  0  0  0  0
    9.4490   -2.5409   -4.5893 O   0  0  0  1  0  0  0  0  0  0  0  0
    8.9818   -1.7055   -4.6635 H   0  0  0  1  0  0  0  0  0  0  0  0
   10.8309   -3.3395   -6.4744 C   0  0  0  1  0  0  0  0  0  0  0  0
   10.8790   -2.7228   -7.3474 H   0  0  0  1  0  0  0  0  0  0  0  0
   11.0293   -4.7044   -6.8242 O   0  0  0  1  0  0  0  0  0  0  0  0
   11.9363   -2.9208   -5.5141 C   0  0  0  1  0  0  0  0  0  0  0  0
   12.8893   -3.1050   -5.9644 H   0  0  0  1  0  0  0  0  0  0  0  0
    9.8775   -5.4302   -7.1912 C   0  0  0  1  0  0  0  0  0  0  0  0
    9.1203   -5.2989   -6.4467 H   0  0  0  1  0  0  0  0  0  0  0  0
    9.4077   -5.0047   -8.4530 O   0  0  0  1  0  0  0  0  0  0  0  0
   10.2088   -6.9023   -7.3565 C   0  0  0  1  0  0  0  0  0  0  0  0
   10.1058   -7.4287   -6.4306 H   0  0  0  1  0  0  0  0  0  0  0  0
   11.5331   -7.0806   -7.8614 O   0  0  0  1  0  0  0  0  0  0  0  0
   11.9991   -7.7215   -7.3195 H   0  0  0  1  0  0  0  0  0  0  0  0
    9.1778   -7.3542   -8.3583 C   0  0  0  1  0  0  0  0  0  0  0  0
    8.2321   -7.5342   -7.8912 H   0  0  0  1  0  0  0  0  0  0  0  0
    9.6001   -8.5288   -9.0451 O   0  0  0  1  0  0  0  0  0  0  0  0
   10.1624   -8.2836   -9.7836 H   0  0  0  1  0  0  0  0  0  0  0  0
    7.5526   -4.7632  -10.7532 C   0  0  0  1  0  0  0  0  0  0  0  0
    8.4552   -4.5776  -11.2969 H   0  0  0  1  0  0  0  0  0  0  0  0
    6.7485   -4.9250  -11.4404 H   0  0  0  1  0  0  0  0  0  0  0  0
    7.2537   -3.6217   -9.9627 O   0  0  0  1  0  0  0  0  0  0  0  0
    7.8763   -3.5644   -9.2342 H   0  0  0  1  0  0  0  0  0  0  0  0
    7.7383   -6.0239   -9.9106 C   0  0  0  1  0  0  0  0  0  0  0  0
    7.6196   -6.8558  -10.5731 H   0  0  0  1  0  0  0  0  0  0  0  0
    6.7331   -6.1181   -8.9049 O   0  0  0  1  0  0  0  0  0  0  0  0
    6.4925   -5.2372   -8.6088 H   0  0  0  1  0  0  0  0  0  0  0  0
    9.1156   -6.1509   -9.2980 C   0  0  0  1  0  0  0  0  0  0  0  0
    9.8453   -6.2416  -10.0753 H   0  0  0  1  0  0  0  0  0  0  0  0
   13.2393   -3.2519   -2.4455 O   0  0  0  1  0  0  0  0  0  0  0  0
   21.1306   -1.0523   -5.4666 O   0  0  0  1  0  0  0  0  0  0  0  0
   21.4551   -2.2343   -4.4378 P   0  0  0  1  0  0  0  0  0  0  0  0
   21.8380   -3.4860   -5.3694 O   0  0  0  1  0  0  0  0  0  0  0  0
   20.2349   -2.6693   -3.7284 O   0  0  0  0  0  0  0  0  0  0  0  0
   22.6294   -1.7714   -3.6810 O   0  0  0  1  0  0  0  0  0  0  0  0
   20.9908   -4.8288   -5.6137 P   0  0  0  1  0  0  0  0  0  0  0  0
   20.9998   -5.5312   -4.2057 O   0  0  0  1  0  0  0  0  0  0  0  0
   21.7992   -5.5626   -6.6129 O   0  0  0  0  0  0  0  0  0  0  0  0
   19.5737   -4.5387   -5.8588 O   0  0  0  1  0  0  0  0  0  0  0  0
   20.5798    0.1724   -4.9563 C   0  0  0  1  0  0  0  0  0  0  0  0
   21.0119    0.3920   -4.0024 H   0  0  0  1  0  0  0  0  0  0  0  0
   19.5191    0.0755   -4.8542 H   0  0  0  1  0  0  0  0  0  0  0  0
   20.8945    1.2723   -5.9164 C   0  0  0  1  0  0  0  0  0  0  0  0
   21.8282    1.2768   -6.3744 H   0  0  0  1  0  0  0  0  0  0  0  0
   20.0402    2.2455   -6.2142 C   0  0  0  1  0  0  0  0  0  0  0  0
   20.4344    3.5158   -6.9101 C   0  0  0  1  0  0  0  0  0  0  0  0
   20.2643    3.4146   -7.9616 H   0  0  0  1  0  0  0  0  0  0  0  0
   21.4715    3.7116   -6.7341 H   0  0  0  1  0  0  0  0  0  0  0  0
   19.8484    4.3267   -6.5307 H   0  0  0  1  0  0  0  0  0  0  0  0
   18.5813    2.1444   -5.8682 C   0  0  0  1  0  0  0  0  0  0  0  0
   18.4431    1.2655   -5.2738 H   0  0  0  1  0  0  0  0  0  0  0  0
   18.0314    2.0484   -6.7810 H   0  0  0  1  0  0  0  0  0  0  0  0
   18.0108    3.3249   -5.0991 C   0  0  0  1  0  0  0  0  0  0  0  0
   18.0749    4.1895   -5.7262 H   0  0  0  1  0  0  0  0  0  0  0  0
   18.6117    3.4715   -4.2260 H   0  0  0  1  0  0  0  0  0  0  0  0
   16.5883    3.1774   -4.6608 C   0  0  0  1  0  0  0  0  0  0  0  0
   16.3051    2.2677   -4.2439 H   0  0  0  1  0  0  0  0  0  0  0  0
   15.6603    4.1212   -4.7642 C   0  0  0  1  0  0  0  0  0  0  0  0
   14.2517    3.8865   -4.2970 C   0  0  0  1  0  0  0  0  0  0  0  0
   13.6313    4.7002   -4.6100 H   0  0  0  1  0  0  0  0  0  0  0  0
   14.2372    3.8174   -3.2293 H   0  0  0  1  0  0  0  0  0  0  0  0
   13.8835    2.9748   -4.7190 H   0  0  0  1  0  0  0  0  0  0  0  0
   15.9123    5.4875   -5.3436 C   0  0  0  1  0  0  0  0  0  0  0  0
   15.0647    5.7693   -5.9327 H   0  0  0  1  0  0  0  0  0  0  0  0
   16.7803    5.4381   -5.9674 H   0  0  0  1  0  0  0  0  0  0  0  0
   16.1393    6.5517   -4.2823 C   0  0  0  1  0  0  0  0  0  0  0  0
   15.3246    6.5065   -3.5900 H   0  0  0  1  0  0  0  0  0  0  0  0
   16.1435    7.5056   -4.7670 H   0  0  0  1  0  0  0  0  0  0  0  0
   17.4098    6.4227   -3.5078 C   0  0  0  1  0  0  0  0  0  0  0  0
   18.3108    6.5524   -4.0108 H   0  0  0  1  0  0  0  0  0  0  0  0
   17.4456    6.1505   -2.2077 C   0  0  0  1  0  0  0  0  0  0  0  0
   16.2705    5.6283   -1.4334 C   0  0  0  1  0  0  0  0  0  0  0  0
   15.4632    5.4785   -2.1196 H   0  0  0  1  0  0  0  0  0  0  0  0
   15.9940    6.3696   -0.7131 H   0  0  0  1  0  0  0  0  0  0  0  0
   18.6950    6.3499   -1.3967 C   0  0  0  1  0  0  0  0  0  0  0  0
   18.8281    7.3925   -1.1961 H   0  0  0  1  0  0  0  0  0  0  0  0
   19.5377    5.9818   -1.9438 H   0  0  0  1  0  0  0  0  0  0  0  0
   18.6089    5.8174   -0.4726 H   0  0  0  1  0  0  0  0  0  0  0  0
   16.5061    4.3213   -0.6942 C   0  0  0  1  0  0  0  0  0  0  0  0
   17.3061    4.4632    0.0021 H   0  0  0  1  0  0  0  0  0  0  0  0
   16.7815    3.5719   -1.4066 H   0  0  0  1  0  0  0  0  0  0  0  0
   15.3034    3.8470    0.0537 C   0  0  0  1  0  0  0  0  0  0  0  0
   14.4076    4.3594   -0.0747 H   0  0  0  1  0  0  0  0  0  0  0  0
   15.3217    2.8015    0.8757 C   0  0  0  1  0  0  0  0  0  0  0  0
   16.4841    1.8485    0.8275 C   0  0  0  1  0  0  0  0  0  0  0  0
   16.7216    1.6524   -0.1972 H   0  0  0  1  0  0  0  0  0  0  0  0
   16.1972    0.9367    1.3084 H   0  0  0  1  0  0  0  0  0  0  0  0
   14.2625    2.4633    1.8830 C   0  0  0  1  0  0  0  0  0  0  0  0
   13.8489    1.5026    1.6575 H   0  0  0  1  0  0  0  0  0  0  0  0
   13.4887    3.2016    1.8481 H   0  0  0  1  0  0  0  0  0  0  0  0
   14.6944    2.4446    2.8617 H   0  0  0  1  0  0  0  0  0  0  0  0
   17.7262    2.3891    1.5170 C   0  0  0  1  0  0  0  0  0  0  0  0
   18.1078    3.2158    0.9550 H   0  0  0  1  0  0  0  0  0  0  0  0
   18.4657    1.6171    1.5635 H   0  0  0  1  0  0  0  0  0  0  0  0
   17.4060    2.8456    2.9049 C   0  0  0  1  0  0  0  0  0  0  0  0
   16.8003    3.6848    3.0078 H   0  0  0  1  0  0  0  0  0  0  0  0
   17.8322    2.2666    4.0020 C   0  0  0  1  0  0  0  0  0  0  0  0
   18.7116    1.0502    4.0188 C   0  0  0  1  0  0  0  0  0  0  0  0
   19.5845    1.2781    3.4434 H   0  0  0  1  0  0  0  0  0  0  0  0
   18.1700    0.2570    3.5472 H   0  0  0  1  0  0  0  0  0  0  0  0
   17.5331    2.8567    5.3514 C   0  0  0  1  0  0  0  0  0  0  0  0
   17.0264    2.1320    5.9538 H   0  0  0  1  0  0  0  0  0  0  0  0
   16.9113    3.7194    5.2332 H   0  0  0  1  0  0  0  0  0  0  0  0
   18.4487    3.1388    5.8279 H   0  0  0  1  0  0  0  0  0  0  0  0
   19.1795    0.5397    5.3719 C   0  0  0  1  0  0  0  0  0  0  0  0
   19.8418    1.2745    5.7798 H   0  0  0  1  0  0  0  0  0  0  0  0
   19.7163   -0.3703    5.2027 H   0  0  0  1  0  0  0  0  0  0  0  0
   18.1284    0.2558    6.4096 C   0  0  0  1  0  0  0  0  0  0  0  0
   18.3944    0.3717    7.4083 H   0  0  0  1  0  0  0  0  0  0  0  0
   16.8841   -0.1326    6.1452 C   0  0  0  1  0  0  0  0  0  0  0  0
   16.5482   -0.6356    4.7698 C   0  0  0  1  0  0  0  0  0  0  0  0
   17.1015   -1.5361    4.6034 H   0  0  0  1  0  0  0  0  0  0  0  0
   16.8538    0.1072    4.0629 H   0  0  0  1  0  0  0  0  0  0  0  0
   15.7395   -0.1193    7.1156 C   0  0  0  1  0  0  0  0  0  0  0  0
   14.9642   -0.7665    6.7622 H   0  0  0  1  0  0  0  0  0  0  0  0
   15.3592    0.8769    7.2046 H   0  0  0  1  0  0  0  0  0  0  0  0
   16.0790   -0.4588    8.0718 H   0  0  0  1  0  0  0  0  0  0  0  0
   15.0752   -0.9375    4.5268 C   0  0  0  1  0  0  0  0  0  0  0  0
   14.5279   -0.0254    4.6423 H   0  0  0  1  0  0  0  0  0  0  0  0
   14.7562   -1.6416    5.2667 H   0  0  0  1  0  0  0  0  0  0  0  0
   14.7513   -1.5016    3.1851 C   0  0  0  1  0  0  0  0  0  0  0  0
   15.5734   -1.7638    2.6046 H   0  0  0  1  0  0  0  0  0  0  0  0
   13.5689   -1.7188    2.6218 C   0  0  0  1  0  0  0  0  0  0  0  0
   12.3049   -1.7092    3.4315 C   0  0  0  1  0  0  0  0  0  0  0  0
   12.4329   -2.3609    4.2705 H   0  0  0  1  0  0  0  0  0  0  0  0
   11.5050   -2.0689    2.8186 H   0  0  0  1  0  0  0  0  0  0  0  0
   13.3748   -1.9895    1.1564 C   0  0  0  1  0  0  0  0  0  0  0  0
   14.1332   -1.4835    0.5962 H   0  0  0  1  0  0  0  0  0  0  0  0
   12.4117   -1.6355    0.8530 H   0  0  0  1  0  0  0  0  0  0  0  0
   13.4414   -3.0422    0.9765 H   0  0  0  1  0  0  0  0  0  0  0  0
   11.9370   -0.3266    3.9447 C   0  0  0  1  0  0  0  0  0  0  0  0
   10.9623   -0.3744    4.3835 H   0  0  0  1  0  0  0  0  0  0  0  0
   11.9232    0.3514    3.1170 H   0  0  0  1  0  0  0  0  0  0  0  0
   12.8939    0.1915    4.9677 C   0  0  0  1  0  0  0  0  0  0  0  0
   13.1129   -0.4084    5.7885 H   0  0  0  1  0  0  0  0  0  0  0  0
   13.4817    1.3862    4.8805 C   0  0  0  1  0  0  0  0  0  0  0  0
   13.1795    2.3208    3.7434 C   0  0  0  1  0  0  0  0  0  0  0  0
   12.5435    1.8154    3.0471 H   0  0  0  1  0  0  0  0  0  0  0  0
   14.0994    2.5812    3.2629 H   0  0  0  1  0  0  0  0  0  0  0  0
   14.4697    1.8452    5.9157 C   0  0  0  1  0  0  0  0  0  0  0  0
   14.1102    2.7393    6.3809 H   0  0  0  1  0  0  0  0  0  0  0  0
   15.4116    2.0411    5.4474 H   0  0  0  1  0  0  0  0  0  0  0  0
   14.5906    1.0822    6.6560 H   0  0  0  1  0  0  0  0  0  0  0  0
   12.4885    3.5986    4.1906 C   0  0  0  1  0  0  0  0  0  0  0  0
   11.8234    3.9156    3.4146 H   0  0  0  1  0  0  0  0  0  0  0  0
   13.2330    4.3499    4.3519 H   0  0  0  1  0  0  0  0  0  0  0  0
   11.6971    3.4280    5.4597 C   0  0  0  1  0  0  0  0  0  0  0  0
   11.0280    2.6323    5.4854 H   0  0  0  1  0  0  0  0  0  0  0  0
   11.7605    4.1796    6.5446 C   0  0  0  1  0  0  0  0  0  0  0  0
   10.8328    4.0229    7.7403 C   0  0  0  1  0  0  0  0  0  0  0  0
   11.2353    4.5817    8.5592 H   0  0  0  1  0  0  0  0  0  0  0  0
   10.7877    2.9866    8.0029 H   0  0  0  1  0  0  0  0  0  0  0  0
   12.8449    5.2071    6.7085 C   0  0  0  1  0  0  0  0  0  0  0  0
   12.6765    5.6501    7.6678 H   0  0  0  1  0  0  0  0  0  0  0  0
   12.7784    5.9468    5.9383 H   0  0  0  1  0  0  0  0  0  0  0  0
   13.8082    4.7424    6.6752 H   0  0  0  1  0  0  0  0  0  0  0  0
    9.4007    4.5215    7.4629 C   0  0  0  1  0  0  0  0  0  0  0  0
    9.0837    4.1371    6.5160 H   0  0  0  1  0  0  0  0  0  0  0  0
    9.4131    5.5909    7.4282 H   0  0  0  1  0  0  0  0  0  0  0  0
    8.3774    4.0725    8.5480 C   0  0  0  1  0  0  0  0  0  0  0  0
    7.3927    4.3780    8.4113 H   0  0  0  1  0  0  0  0  0  0  0  0
    8.6260    3.3415    9.6294 C   0  0  0  1  0  0  0  0  0  0  0  0
    9.9388    2.5173    9.8365 C   0  0  0  1  0  0  0  0  0  0  0  0
   10.1171    1.9072    8.9758 H   0  0  0  1  0  0  0  0  0  0  0  0
    9.8357    1.8939   10.7001 H   0  0  0  1  0  0  0  0  0  0  0  0
   10.7618    3.1868    9.9756 H   0  0  0  1  0  0  0  0  0  0  0  0
    7.6245    3.2489   10.7793 C   0  0  0  1  0  0  0  0  0  0  0  0
    8.0810    2.6696   11.5546 H   0  0  0  1  0  0  0  0  0  0  0  0
    6.7275    2.7707   10.4454 H   0  0  0  1  0  0  0  0  0  0  0  0
    7.3932    4.2284   11.1427 H   0  0  0  1  0  0  0  0  0  0  0  0
   16.0380   -5.1539   -1.5672 C   0  0  0  1  0  0  0  0  0  0  0  0
   16.1846   -5.6935   -0.6550 H   0  0  0  1  0  0  0  0  0  0  0  0
   14.8467   -5.7464   -2.3147 C   0  0  0  1  0  0  0  0  0  0  0  0
   15.0712   -6.7530   -2.5995 H   0  0  0  1  0  0  0  0  0  0  0  0
   15.8077   -3.7831   -1.2676 O   0  0  0  1  0  0  0  0  0  0  0  0
   14.5563   -4.9187   -3.5648 C   0  0  0  1  0  0  0  0  0  0  0  0
   13.6446   -5.2626   -4.0068 H   0  0  0  1  0  0  0  0  0  0  0  0
   15.6362   -2.9675   -2.4372 C   0  0  0  1  0  0  0  0  0  0  0  0
   16.5096   -3.0387   -3.0511 H   0  0  0  1  0  0  0  0  0  0  0  0
   14.4183   -3.4478   -3.2291 C   0  0  0  1  0  0  0  0  0  0  0  0
   14.3423   -2.8846   -4.1357 H   0  0  0  1  0  0  0  0  0  0  0  0
   17.2018   -5.2664   -2.3780 O   0  0  0  1  0  0  0  0  0  0  0  0
   13.6998   -5.7364   -1.4626 O   0  0  0  1  0  0  0  0  0  0  0  0
   13.2053   -4.9252   -1.6003 H   0  0  0  1  0  0  0  0  0  0  0  0
   15.6228   -5.0847   -4.4878 O   0  0  0  1  0  0  0  0  0  0  0  0
   15.7600   -6.0202   -4.6540 H   0  0  0  1  0  0  0  0  0  0  0  0
   15.4286   -1.5312   -2.0207 C   0  0  0  1  0  0  0  0  0  0  0  0
   14.8964   -1.0099   -2.7888 H   0  0  0  1  0  0  0  0  0  0  0  0
   16.3787   -1.0642   -1.8655 H   0  0  0  1  0  0  0  0  0  0  0  0
   14.8635   -1.5016   -1.1126 H   0  0  0  1  0  0  0  0  0  0  0  0
   19.9809   -5.2557   -3.2434 C   0  0  0  1  0  0  0  0  0  0  0  0
   19.3486   -4.4727   -3.6068 H   0  0  0  1  0  0  0  0  0  0  0  0
   19.1510   -6.5096   -3.0124 C   0  0  0  1  0  0  0  0  0  0  0  0
   19.7906   -7.3132   -2.7124 H   0  0  0  1  0  0  0  0  0  0  0  0
   20.5822   -4.8486   -2.0222 O   0  0  0  1  0  0  0  0  0  0  0  0
   18.1298   -6.2307   -1.9139 C   0  0  0  1  0  0  0  0  0  0  0  0
   17.6140   -7.1378   -1.6772 H   0  0  0  1  0  0  0  0  0  0  0  0
   19.6216   -4.4644   -1.0219 C   0  0  0  1  0  0  0  0  0  0  0  0
   20.1265   -4.0977   -0.1527 H   0  0  0  1  0  0  0  0  0  0  0  0
   18.8065   -5.7060   -0.6660 C   0  0  0  1  0  0  0  0  0  0  0  0
   18.0656   -5.4510    0.0626 H   0  0  0  1  0  0  0  0  0  0  0  0
   18.4602   -6.8712   -4.2411 N   0  0  0  1  0  0  0  0  0  0  0  0
   17.5208   -6.6137   -4.3489 H   0  0  0  1  0  0  0  0  0  0  0  0
   19.6726   -6.7098   -0.1342 O   0  0  0  1  0  0  0  0  0  0  0  0
   20.5372   -6.3025   -0.0437 H   0  0  0  1  0  0  0  0  0  0  0  0
   18.7168   -3.3957   -1.5642 C   0  0  0  1  0  0  0  0  0  0  0  0
   17.9307   -3.2060   -0.8635 H   0  0  0  1  0  0  0  0  0  0  0  0
   18.2967   -3.7228   -2.4924 H   0  0  0  1  0  0  0  0  0  0  0  0
   19.4606   -2.1998   -1.7766 O   0  0  0  1  0  0  0  0  0  0  0  0
   19.5377   -1.7410   -0.9368 H   0  0  0  1  0  0  0  0  0  0  0  0
   19.0621   -7.5421   -5.2274 C   0  0  0  1  0  0  0  0  0  0  0  0
   18.5278   -7.7573   -6.3145 O   0  0  0  1  0  0  0  0  0  0  0  0
   20.4654   -8.0331   -4.9293 C   0  0  0  1  0  0  0  0  0  0  0  0
   21.0257   -7.7872   -5.8070 H   0  0  0  1  0  0  0  0  0  0  0  0
   20.4690   -9.0899   -4.7618 H   0  0  0  1  0  0  0  0  0  0  0  0
   20.8668   -7.5342   -4.0720 H   0  0  0  1  0  0  0  0  0  0  0  0
  1  2  1  0  0  0  0
  1  3  1  0  0  0  0
  1  4  1  0  0  0  0
  1 44  1  0  0  0  0
  3 20  1  0  0  0  0
  4  5  1  0  0  0  0
  4  6  1  0  0  0  0
  4  8  1  0  0  0  0
  6  7  1  0  0  0  0
  8  9  1  0  0  0  0
  8 10  1  0  0  0  0
  8 20  1  0  0  0  0
 10 11  1  0  0  0  0
 12 13  1  0  0  0  0
 12 14  1  0  0  0  0
 12 15  1  0  0  0  0
 12 17  1  0  0  0  0
 15 16  1  0  0  0  0
 17 18  1  0  0  0  0
 17 19  1  0  0  0  0
 17 20  1  0  0  0  0
 19 22  1  0  0  0  0
 20 21  1  0  0  0  0
 22 23  1  0  0  0  0
 22 24  1  0  0  0  0
 22 25  1  0  0  0  0
 24 42  1  0  0  0  0
 25 26  1  0  0  0  0
 25 27  1  0  0  0  0
 25 29  1  0  0  0  0
 27 28  1  0  0  0  0
 29 30  1  0  0  0  0
 29 31  1  0  0  0  0
 29 42  1  0  0  0  0
 31 32  1  0  0  0  0
 33 34  1  0  0  0  0
 33 35  1  0  0  0  0
 33 36  1  0  0  0  0
 33 38  1  0  0  0  0
 36 37  1  0  0  0  0
 38 39  1  0  0  0  0
 38 40  1  0  0  0  0
 38 42  1  0  0  0  0
 40 41  1  0  0  0  0
 42 43  1  0  0  0  0
 44194  1  0  0  0  0
 45 46  1  0  0  0  0
 45 54  1  0  0  0  0
 46 47  1  0  0  0  0
 46 48  1  0  0  0  0
 46 49  2  0  0  0  0
 47 50  1  0  0  0  0
 50 51  1  0  0  0  0
 50 52  1  0  0  0  0
 50 53  2  0  0  0  0
 51205  1  0  0  0  0
 54 55  1  0  0  0  0
 54 56  1  0  0  0  0
 54 57  1  0  0  0  0
 57 58  1  0  0  0  0
 57 59  2  0  0  0  0
 59 60  1  0  0  0  0
 59 64  1  0  0  0  0
 60 61  1  0  0  0  0
 60 62  1  0  0  0  0
 60 63  1  0  0  0  0
 64 65  1  0  0  0  0
 64 66  1  0  0  0  0
 64 67  1  0  0  0  0
 67 68  1  0  0  0  0
 67 69  1  0  0  0  0
 67 70  1  0  0  0  0
 70 71  1  0  0  0  0
 70 72  2  0  0  0  0
 72 73  1  0  0  0  0
 72 77  1  0  0  0  0
 73 74  1  0  0  0  0
 73 75  1  0  0  0  0
 73 76  1  0  0  0  0
 77 78  1  0  0  0  0
 77 79  1  0  0  0  0
 77 80  1  0  0  0  0
 80 81  1  0  0  0  0
 80 82  1  0  0  0  0
 80 83  1  0  0  0  0
 83 84  1  0  0  0  0
 83 85  2  0  0  0  0
 85 86  1  0  0  0  0
 85 89  1  0  0  0  0
 86 87  1  0  0  0  0
 86 88  1  0  0  0  0
 86 93  1  0  0  0  0
 89 90  1  0  0  0  0
 89 91  1  0  0  0  0
 89 92  1  0  0  0  0
 93 94  1  0  0  0  0
 93 95  1  0  0  0  0
 93 96  1  0  0  0  0
 96 97  1  0  0  0  0
 96 98  2  0  0  0  0
 98 99  1  0  0  0  0
 98102  1  0  0  0  0
 99100  1  0  0  0  0
 99101  1  0  0  0  0
 99106  1  0  0  0  0
102103  1  0  0  0  0
102104  1  0  0  0  0
102105  1  0  0  0  0
106107  1  0  0  0  0
106108  1  0  0  0  0
106109  1  0  0  0  0
109110  1  0  0  0  0
109111  2  0  0  0  0
111112  1  0  0  0  0
111115  1  0  0  0  0
112113  1  0  0  0  0
112114  1  0  0  0  0
112119  1  0  0  0  0
115116  1  0  0  0  0
115117  1  0  0  0  0
115118  1  0  0  0  0
119120  1  0  0  0  0
119121  1  0  0  0  0
119122  1  0  0  0  0
122123  1  0  0  0  0
122124  2  0  0  0  0
124125  1  0  0  0  0
124128  1  0  0  0  0
125126  1  0  0  0  0
125127  1  0  0  0  0
125132  1  0  0  0  0
128129  1  0  0  0  0
128130  1  0  0  0  0
128131  1  0  0  0  0
132133  1  0  0  0  0
132134  1  0  0  0  0
132135  1  0  0  0  0
135136  1  0  0  0  0
135137  2  0  0  0  0
137138  1  0  0  0  0
137141  1  0  0  0  0
138139  1  0  0  0  0
138140  1  0  0  0  0
138145  1  0  0  0  0
141142  1  0  0  0  0
141143  1  0  0  0  0
141144  1  0  0  0  0
145146  1  0  0  0  0
145147  1  0  0  0  0
145148  1  0  0  0  0
148149  1  0  0  0  0
148150  2  0  0  0  0
150151  1  0  0  0  0
150154  1  0  0  0  0
151152  1  0  0  0  0
151153  1  0  0  0  0
151158  1  0  0  0  0
154155  1  0  0  0  0
154156  1  0  0  0  0
154157  1  0  0  0  0
158159  1  0  0  0  0
158160  1  0  0  0  0
158161  1  0  0  0  0
161162  1  0  0  0  0
161163  2  0  0  0  0
163164  1  0  0  0  0
163167  1  0  0  0  0
164165  1  0  0  0  0
164166  1  0  0  0  0
164171  1  0  0  0  0
167168  1  0  0  0  0
167169  1  0  0  0  0
167170  1  0  0  0  0
171172  1  0  0  0  0
171173  1  0  0  0  0
171174  1  0  0  0  0
174175  1  0  0  0  0
174176  2  0  0  0  0
176177  1  0  0  0  0
176181  1  0  0  0  0
177178  1  0  0  0  0
177179  1  0  0  0  0
177180  1  0  0  0  0
181182  1  0  0  0  0
181183  1  0  0  0  0
181184  1  0  0  0  0
185186  1  0  0  0  0
185187  1  0  0  0  0
185189  1  0  0  0  0
185196  1  0  0  0  0
187188  1  0  0  0  0
187190  1  0  0  0  0
187197  1  0  0  0  0
189192  1  0  0  0  0
190191  1  0  0  0  0
190194  1  0  0  0  0
190199  1  0  0  0  0
192193  1  0  0  0  0
192194  1  0  0  0  0
192201  1  0  0  0  0
194195  1  0  0  0  0
196210  1  0  0  0  0
197198  1  0  0  0  0
199200  1  0  0  0  0
201202  1  0  0  0  0
201203  1  0  0  0  0
201204  1  0  0  0  0
205206  1  0  0  0  0
205207  1  0  0  0  0
205209  1  0  0  0  0
207208  1  0  0  0  0
207210  1  0  0  0  0
207216  1  0  0  0  0
209212  1  0  0  0  0
210211  1  0  0  0  0
210214  1  0  0  0  0
212213  1  0  0  0  0
212214  1  0  0  0  0
212220  1  0  0  0  0
214215  1  0  0  0  0
214218  1  0  0  0  0
216217  1  0  0  0  0
216225  1  0  0  0  0
218219  1  0  0  0  0
220221  1  0  0  0  0
220222  1  0  0  0  0
220223  1  0  0  0  0
223224  1  0  0  0  0
225226  2  0  0  0  0
225227  1  0  0  0  0
227228  1  0  0  0  0
227229  1  0  0  0  0
227230  1  0  0  0  0
M  BCL ATM C_TeTeTeTe H_S O_Te2Te2TeTe C_TeTeTeTe H_S O_Te2Te2TeTe H_S C_TeTeTeTe H_S O_Te2Te2TeTe H_S C_TeTeTeTe H_S H_S O_Te2Te2TeTe H_S C_TeTeTeTe H_S O_Te2Te2TeTe C_TeTeTeTe H_S C_TeTeTeTe H_S O_Te2Te2TeTe C_TeTeTeTe H_S O_Te2Te2TeTe H_S C_TeTeTeTe H_S O_Te2Te2TeTe H_S C_TeTeTeTe H_S H_S O_Te2Te2TeTe H_S C_TeTeTeTe H_S O_Te2Te2TeTe H_S C_TeTeTeTe H_S O_Te2Te2TeTe O_Tr2TrTrPi2 P_TeTeTeTePi O_Tr2TrTrPi2 O_Te2Te2TeTe O_Tr2Tr2TrPi P_TeTeTeTePi O_Tr2TrTrPi2 O_Te2Te2TeTe O_Tr2Tr2TrPi C_TeTeTeTe H_S H_S C_TrTrTrPi H_S C_TrTrTrPi C_TeTeTeTe H_S H_S H_S C_TeTeTeTe H_S H_S C_TeTeTeTe H_S H_S C_TrTrTrPi H_S C_TrTrTrPi C_TeTeTeTe H_S H_S H_S C_TeTeTeTe H_S H_S C_TeTeTeTe H_S H_S C_TrTrTrPi H_S C_TrTrTrPi C_TeTeTeTe H_S H_S C_TeTeTeTe H_S H_S H_S C_TeTeTeTe H_S H_S C_TrTrTrPi H_S C_TrTrTrPi C_TeTeTeTe H_S H_S C_TeTeTeTe H_S H_S H_S C_TeTeTeTe H_S H_S C_TrTrTrPi H_S C_TrTrTrPi C_TeTeTeTe H_S H_S C_TeTeTeTe H_S H_S H_S C_TeTeTeTe H_S H_S C_TrTrTrPi H_S C_TrTrTrPi C_TeTeTeTe H_S H_S C_TeTeTeTe H_S H_S H_S C_TeTeTeTe H_S H_S C_TrTrTrPi H_S C_TrTrTrPi C_TeTeTeTe H_S H_S C_TeTeTeTe H_S H_S H_S C_TeTeTeTe H_S H_S C_TrTrTrPi H_S C_TrTrTrPi C_TeTeTeTe H_S H_S C_TeTeTeTe H_S H_S H_S C_TeTeTeTe H_S H_S C_TrTrTrPi H_S C_TrTrTrPi C_TeTeTeTe H_S H_S C_TeTeTeTe H_S H_S H_S C_TeTeTeTe H_S H_S C_TrTrTrPi H_S C_TrTrTrPi C_TeTeTeTe H_S H_S H_S C_TeTeTeTe H_S H_S H_S C_TeTeTeTe H_S C_TeTeTeTe H_S O_Te2Te2TeTe C_TeTeTeTe H_S C_TeTeTeTe H_S C_TeTeTeTe H_S O_Te2Te2TeTe O_Te2Te2TeTe H_S O_Te2Te2TeTe H_S C_TeTeTeTe H_S H_S H_S C_TeTeTeTe H_S C_TeTeTeTe H_S O_Te2Te2TeTe C_TeTeTeTe H_S C_TeTeTeTe H_S C_TeTeTeTe H_S N_TrTrTrPi2 H_S O_Te2Te2TeTe H_S C_TeTeTeTe H_S H_S O_Te2Te2TeTe H_S C_TrTrTrPi O_Tr2Tr2TrPi C_TeTeTeTe H_S H_S H_S
M  BCL BND NonConjugatedSingleBond NonConjugatedSingleBondInRing NonConjugatedSingleBondInRing NonConjugatedSingleBond NonConjugatedSingleBondInRing NonConjugatedSingleBond NonConjugatedSingleBond NonConjugatedSingleBondInRing NonConjugatedSingleBond NonConjugatedSingleBond NonConjugatedSingleBond NonConjugatedSingleBondInRing NonConjugatedSingleBond NonConjugatedSingleBond NonConjugatedSingleBond NonConjugatedSingleBond NonConjugatedSingleBond NonConjugatedSingleBond NonConjugatedSingleBond NonConjugatedSingleBond NonConjugatedSingleBond NonConjugatedSingleBond NonConjugatedSingleBond NonConjugatedSingleBond NonConjugatedSingleBondInRing NonConjugatedSingleBondInRing NonConjugatedSingleBondInRing NonConjugatedSingleBond NonConjugatedSingleBond NonConjugatedSingleBondInRing NonConjugatedSingleBond NonConjugatedSingleBond NonConjugatedSingleBond NonConjugatedSingleBondInRing NonConjugatedSingleBond NonConjugatedSingleBond NonConjugatedSingleBond NonConjugatedSingleBond NonConjugatedSingleBond NonConjugatedSingleBond NonConjugatedSingleBond NonConjugatedSingleBond NonConjugatedSingleBond NonConjugatedSingleBond NonConjugatedSingleBond NonConjugatedSingleBond ConjugatedSingleBond NonConjugatedSingleBond ConjugatedSingleBond ConjugatedSingleBond ConjugatedDoubleBond ConjugatedSingleBond ConjugatedSingleBond ConjugatedSingleBond ConjugatedDoubleBond NonConjugatedSingleBond NonConjugatedSingleBond NonConjugatedSingleBond NonConjugatedSingleBond NonConjugatedSingleBond ConjugatedDoubleBond NonConjugatedSingleBond NonConjugatedSingleBond NonConjugatedSingleBond NonConjugatedSingleBond NonConjugatedSingleBond NonConjugatedSingleBond NonConjugatedSingleBond NonConjugatedSingleBond NonConjugatedSingleBond NonConjugatedSingleBond NonConjugatedSingleBond NonConjugatedSingleBond ConjugatedDoubleBond NonConjugatedSingleBond NonConjugatedSingleBond NonConjugatedSingleBond NonConjugatedSingleBond NonConjugatedSingleBond NonConjugatedSingleBond NonConjugatedSingleBond NonConjugatedSingleBond NonConjugatedSingleBond NonConjugatedSingleBond NonConjugatedSingleBond NonConjugatedSingleBond ConjugatedDoubleBond NonConjugatedSingleBond NonConjugatedSingleBond NonConjugatedSingleBond NonConjugatedSingleBond NonConjugatedSingleBond NonConjugatedSingleBond NonConjugatedSingleBond NonConjugatedSingleBond NonConjugatedSingleBond NonConjugatedSingleBond NonConjugatedSingleBond NonConjugatedSingleBond ConjugatedDoubleBond NonConjugatedSingleBond NonConjugatedSingleBond NonConjugatedSingleBond NonConjugatedSingleBond NonConjugatedSingleBond NonConjugatedSingleBond NonConjugatedSingleBond NonConjugatedSingleBond NonConjugatedSingleBond NonConjugatedSingleBond NonConjugatedSingleBond NonConjugatedSingleBond ConjugatedDoubleBond NonConjugatedSingleBond NonConjugatedSingleBond NonConjugatedSingleBond NonConjugatedSingleBond NonConjugatedSingleBond NonConjugatedSingleBond NonConjugatedSingleBond NonConjugatedSingleBond NonConjugatedSingleBond NonConjugatedSingleBond NonConjugatedSingleBond NonConjugatedSingleBond ConjugatedDoubleBond NonConjugatedSingleBond NonConjugatedSingleBond NonConjugatedSingleBond NonConjugatedSingleBond NonConjugatedSingleBond NonConjugatedSingleBond NonConjugatedSingleBond NonConjugatedSingleBond NonConjugatedSingleBond NonConjugatedSingleBond NonConjugatedSingleBond NonConjugatedSingleBond ConjugatedDoubleBond NonConjugatedSingleBond NonConjugatedSingleBond NonConjugatedSingleBond NonConjugatedSingleBond NonConjugatedSingleBond NonConjugatedSingleBond NonConjugatedSingleBond NonConjugatedSingleBond NonConjugatedSingleBond NonConjugatedSingleBond NonConjugatedSingleBond NonConjugatedSingleBond ConjugatedDoubleBond NonConjugatedSingleBond NonConjugatedSingleBond NonConjugatedSingleBond NonConjugatedSingleBond NonConjugatedSingleBond NonConjugatedSingleBond NonConjugatedSingleBond NonConjugatedSingleBond NonConjugatedSingleBond NonConjugatedSingleBond NonConjugatedSingleBond NonConjugatedSingleBond ConjugatedDoubleBond NonConjugatedSingleBond NonConjugatedSingleBond NonConjugatedSingleBond NonConjugatedSingleBond NonConjugatedSingleBond NonConjugatedSingleBond NonConjugatedSingleBond NonConjugatedSingleBond NonConjugatedSingleBond NonConjugatedSingleBond NonConjugatedSingleBond NonConjugatedSingleBond ConjugatedDoubleBond NonConjugatedSingleBond NonConjugatedSingleBond NonConjugatedSingleBond NonConjugatedSingleBond NonConjugatedSingleBond NonConjugatedSingleBond NonConjugatedSingleBond NonConjugatedSingleBond NonConjugatedSingleBond NonConjugatedSingleBondInRing NonConjugatedSingleBondInRing NonConjugatedSingleBond NonConjugatedSingleBond NonConjugatedSingleBondInRing NonConjugatedSingleBond NonConjugatedSingleBondInRing NonConjugatedSingleBond NonConjugatedSingleBondInRing NonConjugatedSingleBond NonConjugatedSingleBond NonConjugatedSingleBondInRing NonConjugatedSingleBond NonConjugatedSingleBond NonConjugatedSingleBond NonConjugatedSingleBond NonConjugatedSingleBond NonConjugatedSingleBond NonConjugatedSingleBond NonConjugatedSingleBond NonConjugatedSingleBond NonConjugatedSingleBondInRing NonConjugatedSingleBondInRing NonConjugatedSingleBond NonConjugatedSingleBondInRing NonConjugatedSingleBond NonConjugatedSingleBondInRing NonConjugatedSingleBond NonConjugatedSingleBondInRing NonConjugatedSingleBond NonConjugatedSingleBondInRing NonConjugatedSingleBond NonConjugatedSingleBond NonConjugatedSingleBond NonConjugatedSingleBond AmideSingleBond NonConjugatedSingleBond NonConjugatedSingleBond NonConjugatedSingleBond NonConjugatedSingleBond NonConjugatedSingleBond ConjugatedDoubleBond NonConjugatedSingleBond NonConjugatedSingleBond NonConjugatedSingleBond NonConjugatedSingleBond
M  BCL CHI   1   R   4   R   8   R  17   S  20   R  22   S  25   R  29   S  38   S  42   R  46   R  50   S 185   R 187   S 190   S 192   R 194   R 205   R 207   S 210   R 212   S 214   S
M  BCL DBI - - E E E E E E E E Z - -
M  END
> <ConfClashScore>
0.038451 

> <ConfOneFourInteractionScore>
-0.967346 

> <ConfScore>
4.08387 

> <ConfScorePBest>
0.00490145 

> <ConfTolerance>
7.51401 

$$$$
