# created with PyMOL 2.4.0
@<TRIPOS>MOLECULE
L05.****
230 233 1               
SMALL
USER_CHARGES
@<TRIPOS>ATOM
1	   C	11.942	-4.498	0.000	C.3	1	UNK0	0.000	
2	   H	11.942	-4.498	-1.090	 H	1	UNK0	0.000	
3	   O	11.274	-4.013	0.000	O.3	1	UNK0	0.000	
4	   C	11.687	-5.282	0.000	C.3	1	UNK0	0.000	
5	   H	11.687	-5.282	1.090	 H	1	UNK0	0.000	
6	   O	12.099	-5.997	0.000	O.3	1	UNK0	0.000	
7	   H	12.931	-5.853	0.458	 H	1	UNK0	0.000	
8	   C	10.862	-5.282	0.000	C.3	1	UNK0	0.000	
9	   H	10.862	-5.282	1.090	 H	1	UNK0	0.000	
10	   O	10.449	-5.997	0.000	O.3	1	UNK0	0.000	
11	   H	10.990	-6.645	0.458	 H	1	UNK0	0.000	
12	   C	9.597	-3.487	0.000	C.3	1	UNK0	0.000	
13	   H	10.042	-3.042	0.890	 H	1	UNK0	0.000	
14	   H	10.042	-3.042	-0.890	 H	1	UNK0	0.000	
15	   O	8.800	-3.274	0.000	O.3	1	UNK0	0.000	
16	   H	8.756	-2.315	0.023	 H	1	UNK0	0.000	
17	   C	9.810	-4.284	0.000	C.3	1	UNK0	0.000	
18	   H	9.810	-4.284	-1.090	 H	1	UNK0	0.000	
19	   O	9.227	-4.867	0.000	O.3	1	UNK0	0.000	
20	   C	10.607	-4.498	0.000	C.3	1	UNK0	0.000	
21	   H	10.607	-4.498	1.090	 H	1	UNK0	0.000	
22	   C	8.515	-5.280	0.000	C.3	1	UNK0	0.000	
23	   H	8.515	-5.280	-1.090	 H	1	UNK0	0.000	
24	   O	7.848	-4.795	0.000	O.3	1	UNK0	0.000	
25	   C	8.260	-6.065	0.000	C.3	1	UNK0	0.000	
26	   H	8.260	-6.065	1.090	 H	1	UNK0	0.000	
27	   O	8.673	-6.779	0.000	O.3	1	UNK0	0.000	
28	   H	8.818	-7.030	-0.915	 H	1	UNK0	0.000	
29	   C	7.435	-6.065	0.000	C.3	1	UNK0	0.000	
30	   H	7.435	-6.065	1.090	 H	1	UNK0	0.000	
31	   O	7.023	-6.779	0.000	O.3	1	UNK0	0.000	
32	   H	6.878	-7.030	-0.915	 H	1	UNK0	0.000	
33	   C	6.170	-4.270	0.000	C.3	1	UNK0	0.000	
34	   H	6.615	-3.825	0.890	 H	1	UNK0	0.000	
35	   H	6.615	-3.825	-0.890	 H	1	UNK0	0.000	
36	   O	5.373	-4.056	0.000	O.3	1	UNK0	0.000	
37	   H	4.969	-4.442	0.780	 H	1	UNK0	0.000	
38	   C	6.384	-5.067	0.000	C.3	1	UNK0	0.000	
39	   H	6.384	-5.067	-1.090	 H	1	UNK0	0.000	
40	   O	5.800	-5.650	0.000	O.3	1	UNK0	0.000	
41	   H	5.595	-5.855	0.915	 H	1	UNK0	0.000	
42	   C	7.180	-5.280	0.000	C.3	1	UNK0	0.000	
43	   H	7.180	-5.280	1.090	 H	1	UNK0	0.000	
44	   O	12.907	-4.041	0.000	O.3	1	UNK0	0.000	
45	   O	22.261	-5.737	0.000	O.3	1	UNK0	0.000	
46	   P	21.395	-5.737	0.000	 P	1	UNK0	0.000	
47	   O	20.528	-5.737	0.000	O.3	1	UNK0	0.000	
48	   O	21.395	-4.870	0.000	O.2	1	UNK0	0.000	
49	   O	21.395	-6.603	0.000	O.2	1	UNK0	0.000	
50	   P	19.662	-5.737	0.000	 P	1	UNK0	0.000	
51	   O	18.796	-5.737	0.000	O.3	1	UNK0	0.000	
52	   O	19.662	-4.870	0.000	O.2	1	UNK0	0.000	
53	   O	19.662	-6.603	0.000	O.2	1	UNK0	0.000	
54	   C	22.976	-5.324	0.000	C.3	1	UNK0	0.000	
55	   H	22.976	-4.695	0.890	 H	1	UNK0	0.000	
56	   H	22.976	-4.695	-0.890	 H	1	UNK0	0.000	
57	   C	23.690	-5.737	0.000	C.2	1	UNK0	0.000	
58	   H	24.625	-5.197	0.000	 H	1	UNK0	0.000	
59	   C	23.690	-6.562	0.000	C.2	1	UNK0	0.000	
60	   C	24.404	-6.974	0.000	C.3	1	UNK0	0.000	
61	   H	24.205	-8.046	0.000	 H	1	UNK0	0.000	
62	   H	24.976	-6.710	0.890	 H	1	UNK0	0.000	
63	   H	24.976	-6.710	-0.890	 H	1	UNK0	0.000	
64	   C	22.976	-6.974	0.000	C.3	1	UNK0	0.000	
65	   H	22.431	-6.659	-0.890	 H	1	UNK0	0.000	
66	   H	22.431	-6.659	0.890	 H	1	UNK0	0.000	
67	   C	22.976	-7.799	0.000	C.3	1	UNK0	0.000	
68	   H	22.431	-8.113	-0.890	 H	1	UNK0	0.000	
69	   H	22.431	-8.113	0.890	 H	1	UNK0	0.000	
70	   C	23.690	-8.212	0.000	C.2	1	UNK0	0.000	
71	   H	24.625	-7.672	0.000	 H	1	UNK0	0.000	
72	   C	23.690	-9.037	0.000	C.2	1	UNK0	0.000	
73	   C	24.404	-9.449	0.000	C.3	1	UNK0	0.000	
74	   H	24.205	-10.521	0.000	 H	1	UNK0	0.000	
75	   H	24.976	-9.186	0.890	 H	1	UNK0	0.000	
76	   H	24.976	-9.186	-0.890	 H	1	UNK0	0.000	
77	   C	22.976	-9.449	0.000	C.3	1	UNK0	0.000	
78	   H	22.431	-9.134	-0.890	 H	1	UNK0	0.000	
79	   H	22.431	-9.134	0.890	 H	1	UNK0	0.000	
80	   C	22.976	-10.274	0.000	C.3	1	UNK0	0.000	
81	   H	22.431	-10.588	-0.890	 H	1	UNK0	0.000	
82	   H	22.431	-10.588	0.890	 H	1	UNK0	0.000	
83	   C	23.690	-10.687	0.000	C.2	1	UNK0	0.000	
84	   H	24.625	-10.147	0.000	 H	1	UNK0	0.000	
85	   C	23.690	-11.512	0.000	C.2	1	UNK0	0.000	
86	   C	22.976	-11.924	0.000	C.3	1	UNK0	0.000	
87	   H	22.431	-11.609	-0.890	 H	1	UNK0	0.000	
88	   H	22.431	-11.609	0.890	 H	1	UNK0	0.000	
89	   C	24.405	-11.924	0.000	C.3	1	UNK0	0.000	
90	   H	24.207	-12.996	0.000	 H	1	UNK0	0.000	
91	   H	24.976	-11.660	0.890	 H	1	UNK0	0.000	
92	   H	24.976	-11.660	-0.890	 H	1	UNK0	0.000	
93	   C	22.976	-12.749	0.000	C.3	1	UNK0	0.000	
94	   H	22.431	-13.063	-0.890	 H	1	UNK0	0.000	
95	   H	22.431	-13.063	0.890	 H	1	UNK0	0.000	
96	   C	23.690	-13.162	0.000	C.2	1	UNK0	0.000	
97	   H	24.625	-12.622	0.000	 H	1	UNK0	0.000	
98	   C	23.690	-13.986	0.000	C.2	1	UNK0	0.000	
99	   C	22.976	-14.399	0.000	C.3	1	UNK0	0.000	
100	   H	22.431	-14.085	-0.890	 H	1	UNK0	0.000	
101	   H	22.431	-14.085	0.890	 H	1	UNK0	0.000	
102	   C	24.405	-14.399	0.000	C.3	1	UNK0	0.000	
103	   H	24.206	-15.471	0.000	 H	1	UNK0	0.000	
104	   H	24.977	-14.136	0.890	 H	1	UNK0	0.000	
105	   H	24.977	-14.136	-0.890	 H	1	UNK0	0.000	
106	   C	22.976	-15.224	0.000	C.3	1	UNK0	0.000	
107	   H	22.431	-15.538	-0.890	 H	1	UNK0	0.000	
108	   H	22.431	-15.538	0.890	 H	1	UNK0	0.000	
109	   C	23.690	-15.637	0.000	C.2	1	UNK0	0.000	
110	   H	24.625	-15.097	0.000	 H	1	UNK0	0.000	
111	   C	23.690	-16.462	0.000	C.2	1	UNK0	0.000	
112	   C	22.976	-16.874	0.000	C.3	1	UNK0	0.000	
113	   H	22.977	-17.503	0.890	 H	1	UNK0	0.000	
114	   H	22.977	-17.503	-0.890	 H	1	UNK0	0.000	
115	   C	24.405	-16.874	0.000	C.3	1	UNK0	0.000	
116	   H	24.207	-17.946	0.000	 H	1	UNK0	0.000	
117	   H	24.976	-16.610	0.890	 H	1	UNK0	0.000	
118	   H	24.976	-16.610	-0.890	 H	1	UNK0	0.000	
119	   C	22.260	-16.463	0.000	C.3	1	UNK0	0.000	
120	   H	22.258	-15.834	-0.890	 H	1	UNK0	0.000	
121	   H	22.258	-15.834	0.890	 H	1	UNK0	0.000	
122	   C	21.547	-16.878	0.000	C.2	1	UNK0	0.000	
123	   H	21.550	-17.958	0.000	 H	1	UNK0	0.000	
124	   C	20.835	-16.469	0.000	C.2	1	UNK0	0.000	
125	   C	20.831	-15.645	0.000	C.3	1	UNK0	0.000	
126	   H	21.373	-15.326	-0.890	 H	1	UNK0	0.000	
127	   H	21.373	-15.326	0.890	 H	1	UNK0	0.000	
128	   C	20.122	-16.885	0.000	C.3	1	UNK0	0.000	
129	   H	19.290	-16.181	0.000	 H	1	UNK0	0.000	
130	   H	20.067	-17.512	0.890	 H	1	UNK0	0.000	
131	   H	20.067	-17.512	-0.890	 H	1	UNK0	0.000	
132	   C	20.114	-15.242	0.000	C.3	1	UNK0	0.000	
133	   H	20.109	-14.613	-0.890	 H	1	UNK0	0.000	
134	   H	20.109	-14.613	0.890	 H	1	UNK0	0.000	
135	   C	19.402	-15.657	0.000	C.2	1	UNK0	0.000	
136	   H	19.405	-16.737	0.000	 H	1	UNK0	0.000	
137	   C	18.687	-15.245	0.000	C.2	1	UNK0	0.000	
138	   C	18.686	-14.420	0.000	C.3	1	UNK0	0.000	
139	   H	19.231	-14.105	-0.890	 H	1	UNK0	0.000	
140	   H	19.231	-14.105	0.890	 H	1	UNK0	0.000	
141	   C	17.973	-15.658	0.000	C.3	1	UNK0	0.000	
142	   H	17.144	-14.950	0.000	 H	1	UNK0	0.000	
143	   H	17.916	-16.285	0.890	 H	1	UNK0	0.000	
144	   H	17.916	-16.285	-0.890	 H	1	UNK0	0.000	
145	   C	17.971	-14.008	0.000	C.3	1	UNK0	0.000	
146	   H	17.971	-13.379	-0.890	 H	1	UNK0	0.000	
147	   H	17.971	-13.379	0.890	 H	1	UNK0	0.000	
148	   C	17.257	-14.421	0.000	C.2	1	UNK0	0.000	
149	   H	17.258	-15.501	0.000	 H	1	UNK0	0.000	
150	   C	16.542	-14.009	0.000	C.2	1	UNK0	0.000	
151	   C	16.542	-13.184	0.000	C.3	1	UNK0	0.000	
152	   H	17.087	-12.869	-0.890	 H	1	UNK0	0.000	
153	   H	17.087	-12.869	0.890	 H	1	UNK0	0.000	
154	   C	15.828	-14.422	0.000	C.3	1	UNK0	0.000	
155	   H	14.999	-13.714	0.000	 H	1	UNK0	0.000	
156	   H	15.771	-15.049	0.890	 H	1	UNK0	0.000	
157	   H	15.771	-15.049	-0.890	 H	1	UNK0	0.000	
158	   C	15.827	-12.772	0.000	C.3	1	UNK0	0.000	
159	   H	15.825	-12.143	-0.890	 H	1	UNK0	0.000	
160	   H	15.825	-12.143	0.890	 H	1	UNK0	0.000	
161	   C	15.107	-13.193	0.000	C.2	1	UNK0	0.000	
162	   H	15.110	-14.273	0.000	 H	1	UNK0	0.000	
163	   C	14.392	-12.781	0.000	C.2	1	UNK0	0.000	
164	   C	13.678	-13.193	0.000	C.3	1	UNK0	0.000	
165	   H	13.679	-13.822	0.890	 H	1	UNK0	0.000	
166	   H	13.679	-13.822	-0.890	 H	1	UNK0	0.000	
167	   C	14.391	-11.956	0.000	C.3	1	UNK0	0.000	
168	   H	13.363	-11.594	-0.000	 H	1	UNK0	0.000	
169	   H	14.904	-11.592	-0.890	 H	1	UNK0	0.000	
170	   H	14.904	-11.592	0.890	 H	1	UNK0	0.000	
171	   C	12.963	-12.782	0.000	C.3	1	UNK0	0.000	
172	   H	12.962	-12.153	-0.890	 H	1	UNK0	0.000	
173	   H	12.962	-12.153	0.890	 H	1	UNK0	0.000	
174	   C	12.249	-13.195	0.000	C.2	1	UNK0	0.000	
175	   H	12.250	-14.275	0.000	 H	1	UNK0	0.000	
176	   C	11.534	-12.783	0.000	C.2	1	UNK0	0.000	
177	   C	10.820	-13.196	0.000	C.3	1	UNK0	0.000	
178	   H	9.991	-12.488	0.000	 H	1	UNK0	0.000	
179	   H	10.763	-13.823	0.890	 H	1	UNK0	0.000	
180	   H	10.763	-13.823	-0.890	 H	1	UNK0	0.000	
181	   C	11.533	-11.958	0.000	C.3	1	UNK0	0.000	
182	   H	10.505	-11.596	-0.000	 H	1	UNK0	0.000	
183	   H	12.046	-11.594	-0.890	 H	1	UNK0	0.000	
184	   H	12.046	-11.594	0.890	 H	1	UNK0	0.000	
185	   C	15.222	-5.333	0.000	C.3	1	UNK0	0.000	
186	   H	15.222	-5.333	1.090	 H	1	UNK0	0.000	
187	   C	14.509	-5.747	0.000	C.3	1	UNK0	0.000	
188	   H	14.509	-5.747	-1.090	 H	1	UNK0	0.000	
189	   O	15.220	-4.508	0.000	O.3	1	UNK0	0.000	
190	   C	13.794	-5.337	0.000	C.3	1	UNK0	0.000	
191	   H	13.794	-5.337	-1.090	 H	1	UNK0	0.000	
192	   C	14.505	-4.097	0.000	C.3	1	UNK0	0.000	
193	   H	14.505	-4.097	1.090	 H	1	UNK0	0.000	
194	   C	13.791	-4.512	0.000	C.3	1	UNK0	0.000	
195	   H	13.791	-4.512	-1.090	 H	1	UNK0	0.000	
196	   O	15.938	-5.744	0.000	O.3	1	UNK0	0.000	
197	   O	14.511	-6.572	0.000	O.3	1	UNK0	0.000	
198	   H	14.512	-6.862	0.915	 H	1	UNK0	0.000	
199	   O	13.080	-5.751	0.000	O.3	1	UNK0	0.000	
200	   H	13.226	-6.582	-0.458	 H	1	UNK0	0.000	
201	   C	14.503	-3.272	0.000	C.3	1	UNK0	0.000	
202	   H	15.530	-2.906	0.000	 H	1	UNK0	0.000	
203	   H	13.988	-2.910	0.890	 H	1	UNK0	0.000	
204	   H	13.988	-2.910	-0.890	 H	1	UNK0	0.000	
205	   C	18.080	-5.326	0.000	C.3	1	UNK0	0.000	
206	   H	18.080	-5.326	1.090	 H	1	UNK0	0.000	
207	   C	17.367	-5.740	0.000	C.3	1	UNK0	0.000	
208	   H	17.367	-5.740	-1.090	 H	1	UNK0	0.000	
209	   O	18.078	-4.501	0.000	O.3	1	UNK0	0.000	
210	   C	16.652	-5.330	0.000	C.3	1	UNK0	0.000	
211	   H	16.652	-5.330	-1.090	 H	1	UNK0	0.000	
212	   C	17.363	-4.090	0.000	C.3	1	UNK0	0.000	
213	   H	17.363	-4.090	1.090	 H	1	UNK0	0.000	
214	   C	16.649	-4.504	0.000	C.3	1	UNK0	0.000	
215	   H	16.649	-4.504	-1.090	 H	1	UNK0	0.000	
216	   N	17.369	-6.565	0.000	N.pl3	1	UNK0	0.000	
217	   H	18.245	-7.067	0.000	 H	1	UNK0	0.000	
218	   O	15.934	-4.094	0.000	O.3	1	UNK0	0.000	
219	   H	15.288	-4.637	-0.458	 H	1	UNK0	0.000	
220	   C	17.361	-3.265	0.000	C.3	1	UNK0	0.000	
221	   H	17.905	-2.949	-0.890	 H	1	UNK0	0.000	
222	   H	17.905	-2.949	0.890	 H	1	UNK0	0.000	
223	   O	16.645	-2.855	0.000	O.3	1	UNK0	0.000	
224	   H	15.938	-3.505	0.000	 H	1	UNK0	0.000	
225	   C	16.656	-6.980	0.000	C.2	1	UNK0	0.000	
226	   O	16.658	-7.805	0.000	O.2	1	UNK0	0.000	
227	   C	15.940	-6.569	0.000	C.3	1	UNK0	0.000	
228	   H	16.136	-5.497	0.000	 H	1	UNK0	0.000	
229	   H	15.369	-6.834	0.890	 H	1	UNK0	0.000	
230	   H	15.369	-6.834	-0.890	 H	1	UNK0	0.000	
@<TRIPOS>BOND
1 1 2 1
2 1 3 1
3 1 4 1
4 1 44 1
5 3 20 1
6 4 5 1
7 4 6 1
8 4 8 1
9 6 7 1
10 8 9 1
11 8 10 1
12 8 20 1
13 10 11 1
14 12 13 1
15 12 14 1
16 12 15 1
17 12 17 1
18 15 16 1
19 17 18 1
20 17 19 1
21 17 20 1
22 19 22 1
23 20 21 1
24 22 23 1
25 22 24 1
26 22 25 1
27 24 42 1
28 25 26 1
29 25 27 1
30 25 29 1
31 27 28 1
32 29 30 1
33 29 31 1
34 29 42 1
35 31 32 1
36 33 34 1
37 33 35 1
38 33 36 1
39 33 38 1
40 36 37 1
41 38 39 1
42 38 40 1
43 38 42 1
44 40 41 1
45 42 43 1
46 44 194 1
47 45 46 1
48 45 54 1
49 46 47 1
50 46 48 ar
51 46 49 ar
52 47 50 1
53 50 51 1
54 50 52 ar
55 50 53 ar
56 51 205 1
57 54 55 1
58 54 56 1
59 54 57 1
60 57 58 1
61 57 59 2
62 59 60 1
63 59 64 1
64 60 61 1
65 60 62 1
66 60 63 1
67 64 65 1
68 64 66 1
69 64 67 1
70 67 68 1
71 67 69 1
72 67 70 1
73 70 71 1
74 70 72 2
75 72 73 1
76 72 77 1
77 73 74 1
78 73 75 1
79 73 76 1
80 77 78 1
81 77 79 1
82 77 80 1
83 80 81 1
84 80 82 1
85 80 83 1
86 83 84 1
87 83 85 2
88 85 86 1
89 85 89 1
90 86 87 1
91 86 88 1
92 86 93 1
93 89 90 1
94 89 91 1
95 89 92 1
96 93 94 1
97 93 95 1
98 93 96 1
99 96 97 1
100 96 98 2
101 98 99 1
102 98 102 1
103 99 100 1
104 99 101 1
105 99 106 1
106 102 103 1
107 102 104 1
108 102 105 1
109 106 107 1
110 106 108 1
111 106 109 1
112 109 110 1
113 109 111 2
114 111 112 1
115 111 115 1
116 112 113 1
117 112 114 1
118 112 119 1
119 115 116 1
120 115 117 1
121 115 118 1
122 119 120 1
123 119 121 1
124 119 122 1
125 122 123 1
126 122 124 2
127 124 125 1
128 124 128 1
129 125 126 1
130 125 127 1
131 125 132 1
132 128 129 1
133 128 130 1
134 128 131 1
135 132 133 1
136 132 134 1
137 132 135 1
138 135 136 1
139 135 137 2
140 137 138 1
141 137 141 1
142 138 139 1
143 138 140 1
144 138 145 1
145 141 142 1
146 141 143 1
147 141 144 1
148 145 146 1
149 145 147 1
150 145 148 1
151 148 149 1
152 148 150 2
153 150 151 1
154 150 154 1
155 151 152 1
156 151 153 1
157 151 158 1
158 154 155 1
159 154 156 1
160 154 157 1
161 158 159 1
162 158 160 1
163 158 161 1
164 161 162 1
165 161 163 2
166 163 164 1
167 163 167 1
168 164 165 1
169 164 166 1
170 164 171 1
171 167 168 1
172 167 169 1
173 167 170 1
174 171 172 1
175 171 173 1
176 171 174 1
177 174 175 1
178 174 176 2
179 176 177 1
180 176 181 1
181 177 178 1
182 177 179 1
183 177 180 1
184 181 182 1
185 181 183 1
186 181 184 1
187 185 186 1
188 185 187 1
189 185 189 1
190 185 196 1
191 187 188 1
192 187 190 1
193 187 197 1
194 189 192 1
195 190 191 1
196 190 194 1
197 190 199 1
198 192 193 1
199 192 194 1
200 192 201 1
201 194 195 1
202 196 210 1
203 197 198 1
204 199 200 1
205 201 202 1
206 201 203 1
207 201 204 1
208 205 206 1
209 205 207 1
210 205 209 1
211 207 208 1
212 207 210 1
213 207 216 1
214 209 212 1
215 210 211 1
216 210 214 1
217 212 213 1
218 212 214 1
219 212 220 1
220 214 215 1
221 214 218 1
222 216 217 1
223 216 225 1
224 218 219 1
225 220 221 1
226 220 222 1
227 220 223 1
228 223 224 1
229 225 226 2
230 225 227 1
231 227 228 1
232 227 229 1
233 227 230 1
@<TRIPOS>SUBSTRUCTURE
1	UNK0	1	GROUP	1 ****	UNK
