# created with PyMOL 2.5.2
@<TRIPOS>MOLECULE
L06
24 23 1                 
SMALL
USER_CHARGES
@<TRIPOS>ATOM
1	   C	-2.143	0.188	0.000	C.2	1	UNK0	0.000	
2	   C	-2.858	-0.224	0.000	C.3	1	UNK0	0.000	
3	   O	4.287	-0.224	0.000	O.3	1	UNK0	0.000	
4	   O	2.858	-0.224	0.000	O.3	1	UNK0	0.000	
5	   C	2.143	0.188	0.000	C.3	1	UNK0	0.000	
6	   O	5.716	-0.224	0.000	O.co2	1	UNK0	0.000	
7	   C	1.429	-0.224	0.000	C.2	1	UNK0	0.000	
8	   C	0.715	0.188	0.000	C.2	1	UNK0	0.000	
9	   C	0.000	-0.224	0.000	C.3	1	UNK0	0.000	
10	   C	-0.715	0.188	0.000	C.3	1	UNK0	0.000	
11	   C	-1.429	-0.224	0.000	C.2	1	UNK0	0.000	
12	   C	-3.572	0.188	0.000	C.3	1	UNK0	0.000	
13	   C	-4.287	-0.224	0.000	C.2	1	UNK0	0.000	
14	   C	-5.001	0.188	0.000	C.2	1	UNK0	0.000	
15	   C	-5.716	-0.224	0.000	C.3	1	UNK0	0.000	
16	   P	3.572	0.188	0.000	P.3	1	UNK0	0.000	
17	   P	5.001	0.188	0.000	P.3	1	UNK0	0.000	
18	   O	3.572	1.013	0.000	O.co2	1	UNK0	0.000	
19	   O	5.001	1.013	0.000	O.co2	1	UNK0	0.000	
20	   C	0.714	1.013	0.000	C.3	1	UNK0	0.000	
21	   C	-2.143	1.013	0.000	C.3	1	UNK0	0.000	
22	   C	-5.001	1.013	0.000	C.3	1	UNK0	0.000	
23	   O	3.572	-0.637	0.000	O.co2	1	UNK0	0.000	
24	   O	5.001	-0.637	0.000	O.co2	1	UNK0	0.000	
@<TRIPOS>BOND
1 1 2 1
2 1 21 1
3 2 12 1
4 3 17 1
5 4 5 1
6 5 7 1
7 7 8 2
8 8 9 1
9 8 20 1
10 9 10 1
11 10 11 1
12 1 11 2
13 12 13 1
14 13 14 2
15 14 15 1
16 14 22 1
17 3 16 1
18 4 16 1
19 16 18 2
20 16 23 1
21 6 17 1
22 17 19 2
23 17 24 1
@<TRIPOS>SUBSTRUCTURE
1	UNK0	1	GROUP	1 ****	UNK
