L06.****
  PyMOL2.5          3D                             0

 49 48  0  0  0  0  0  0  0  0999 V2000
   -2.2521   -4.0195   -0.3455 C   0  0  0  1  0  0  0  0  0  0  0  0
   -2.4640   -2.5865    0.0482 C   0  0  0  1  0  0  0  0  0  0  0  0
   -1.5558   -2.0479   -0.1251 H   0  0  0  1  0  0  0  0  0  0  0  0
   -2.7067   -2.5517    1.0897 H   0  0  0  1  0  0  0  0  0  0  0  0
   -2.6527  -11.0809   -6.5255 O   0  0  0  1  0  0  0  0  0  0  0  0
   -2.3500  -10.0446   -4.4391 O   0  0  0  1  0  0  0  0  0  0  0  0
   -1.1685   -9.3430   -4.8581 C   0  0  0  1  0  0  0  0  0  0  0  0
   -1.1143   -9.3345   -5.9267 H   0  0  0  1  0  0  0  0  0  0  0  0
   -0.3014   -9.8275   -4.4603 H   0  0  0  1  0  0  0  0  0  0  0  0
   -4.8540   -9.6100   -6.9047 O   0  0  0  0  0  0  0  0  0  0  0  0
   -1.2405   -7.9448   -4.3481 C   0  0  0  1  0  0  0  0  0  0  0  0
   -1.9329   -7.3190   -4.8070 H   0  0  0  1  0  0  0  0  0  0  0  0
   -0.5160   -7.4108   -3.3706 C   0  0  0  1  0  0  0  0  0  0  0  0
   -0.6516   -5.9866   -2.9159 C   0  0  0  1  0  0  0  0  0  0  0  0
   -1.4689   -5.5379   -3.4409 H   0  0  0  1  0  0  0  0  0  0  0  0
    0.2531   -5.4663   -3.1517 H   0  0  0  1  0  0  0  0  0  0  0  0
   -0.9076   -5.8600   -1.4230 C   0  0  0  1  0  0  0  0  0  0  0  0
   -0.0414   -6.2056   -0.8984 H   0  0  0  1  0  0  0  0  0  0  0  0
   -1.7473   -6.4723   -1.1683 H   0  0  0  1  0  0  0  0  0  0  0  0
   -1.1967   -4.4470   -0.9920 C   0  0  0  1  0  0  0  0  0  0  0  0
   -0.4804   -3.7328   -1.2340 H   0  0  0  1  0  0  0  0  0  0  0  0
   -3.5818   -1.9137   -0.7318 C   0  0  0  1  0  0  0  0  0  0  0  0
   -4.4948   -2.4372   -0.5386 H   0  0  0  1  0  0  0  0  0  0  0  0
   -3.3512   -1.9708   -1.7751 H   0  0  0  1  0  0  0  0  0  0  0  0
   -3.7713   -0.4670   -0.3615 C   0  0  0  1  0  0  0  0  0  0  0  0
   -2.9165    0.1253   -0.3535 H   0  0  0  1  0  0  0  0  0  0  0  0
   -4.9122    0.1352   -0.0437 C   0  0  0  1  0  0  0  0  0  0  0  0
   -6.2346   -0.5713    0.0303 C   0  0  0  1  0  0  0  0  0  0  0  0
   -6.9456   -0.0643   -0.5881 H   0  0  0  1  0  0  0  0  0  0  0  0
   -6.5810   -0.5744    1.0426 H   0  0  0  1  0  0  0  0  0  0  0  0
   -6.1199   -1.5789   -0.3110 H   0  0  0  1  0  0  0  0  0  0  0  0
   -2.6563  -11.5550   -4.9681 P   0  0  0  1  0  0  0  0  0  0  0  0
   -3.8594  -10.7267   -7.5781 P   0  0  0  1  0  0  0  0  0  0  0  0
   -1.4921  -12.4363   -4.7029 O   0  0  0  0  0  0  0  0  0  0  0  0
   -3.2230  -10.1161   -8.9369 O   0  5  0  1  0  0  0  0  0  0  0  0
    0.5175   -8.2119   -2.6300 C   0  0  0  1  0  0  0  0  0  0  0  0
    1.4881   -7.8019   -2.8162 H   0  0  0  1  0  0  0  0  0  0  0  0
    0.4892   -9.2275   -2.9658 H   0  0  0  1  0  0  0  0  0  0  0  0
    0.3111   -8.1768   -1.5807 H   0  0  0  1  0  0  0  0  0  0  0  0
   -3.3572   -4.9535    0.0607 C   0  0  0  1  0  0  0  0  0  0  0  0
   -3.5330   -4.8628    1.1123 H   0  0  0  1  0  0  0  0  0  0  0  0
   -3.0753   -5.9600   -0.1681 H   0  0  0  1  0  0  0  0  0  0  0  0
   -4.2501   -4.7025   -0.4728 H   0  0  0  1  0  0  0  0  0  0  0  0
   -4.9649    1.6034    0.2729 C   0  0  0  1  0  0  0  0  0  0  0  0
   -4.0075    2.0435    0.0868 H   0  0  0  1  0  0  0  0  0  0  0  0
   -5.2246    1.7370    1.3022 H   0  0  0  1  0  0  0  0  0  0  0  0
   -5.7001    2.0751   -0.3451 H   0  0  0  1  0  0  0  0  0  0  0  0
   -4.0098  -11.9838   -4.5504 O   0  0  0  1  0  0  0  0  0  0  0  0
   -4.6241  -11.9547   -7.8906 O   0  0  0  1  0  0  0  0  0  0  0  0
  1  2  1  0  0  0  0
  1 20  2  0  0  0  0
  1 40  1  0  0  0  0
  2  3  1  0  0  0  0
  2  4  1  0  0  0  0
  2 22  1  0  0  0  0
  5 32  1  0  0  0  0
  5 33  1  0  0  0  0
  6  7  1  0  0  0  0
  6 32  1  0  0  0  0
  7  8  1  0  0  0  0
  7  9  1  0  0  0  0
  7 11  1  0  0  0  0
 10 33  1  0  0  0  0
 11 12  1  0  0  0  0
 11 13  2  0  0  0  0
 13 14  1  0  0  0  0
 13 36  1  0  0  0  0
 14 15  1  0  0  0  0
 14 16  1  0  0  0  0
 14 17  1  0  0  0  0
 17 18  1  0  0  0  0
 17 19  1  0  0  0  0
 17 20  1  0  0  0  0
 20 21  1  0  0  0  0
 22 23  1  0  0  0  0
 22 24  1  0  0  0  0
 22 25  1  0  0  0  0
 25 26  1  0  0  0  0
 25 27  2  0  0  0  0
 27 28  1  0  0  0  0
 27 44  1  0  0  0  0
 28 29  1  0  0  0  0
 28 30  1  0  0  0  0
 28 31  1  0  0  0  0
 32 34  1  0  0  0  0
 32 48  2  0  0  0  0
 33 35  1  0  0  0  0
 33 49  2  0  0  0  0
 36 37  1  0  0  0  0
 36 38  1  0  0  0  0
 36 39  1  0  0  0  0
 40 41  1  0  0  0  0
 40 42  1  0  0  0  0
 40 43  1  0  0  0  0
 44 45  1  0  0  0  0
 44 46  1  0  0  0  0
 44 47  1  0  0  0  0
M  BCL ATM C_TrTrTrPi C_TeTeTeTe H_S H_S O_Tr2TrTrPi2 O_Tr2TrTrPi2 C_TeTeTeTe H_S H_S O_Te2Te2TeTe C_TrTrTrPi H_S C_TrTrTrPi C_TeTeTeTe H_S H_S C_TeTeTeTe H_S H_S C_TrTrTrPi H_S C_TeTeTeTe H_S H_S C_TrTrTrPi H_S C_TrTrTrPi C_TeTeTeTe H_S H_S H_S P_TeTeTeTePi P_TeTeTeTePi O_Te2Te2TeTe O_Te2Te2Te2Te C_TeTeTeTe H_S H_S H_S C_TeTeTeTe H_S H_S H_S C_TeTeTeTe H_S H_S H_S O_Tr2Tr2TrPi O_Tr2Tr2TrPi
M  BCL BND NonConjugatedSingleBond ConjugatedDoubleBond NonConjugatedSingleBond NonConjugatedSingleBond NonConjugatedSingleBond NonConjugatedSingleBond ConjugatedSingleBond ConjugatedSingleBond NonConjugatedSingleBond ConjugatedSingleBond NonConjugatedSingleBond NonConjugatedSingleBond NonConjugatedSingleBond ConjugatedSingleBond NonConjugatedSingleBond ConjugatedDoubleBond NonConjugatedSingleBond NonConjugatedSingleBond NonConjugatedSingleBond NonConjugatedSingleBond NonConjugatedSingleBond NonConjugatedSingleBond NonConjugatedSingleBond NonConjugatedSingleBond NonConjugatedSingleBond NonConjugatedSingleBond NonConjugatedSingleBond NonConjugatedSingleBond NonConjugatedSingleBond ConjugatedDoubleBond NonConjugatedSingleBond NonConjugatedSingleBond NonConjugatedSingleBond NonConjugatedSingleBond NonConjugatedSingleBond ConjugatedSingleBond ConjugatedDoubleBond ConjugatedSingleBond ConjugatedDoubleBond NonConjugatedSingleBond NonConjugatedSingleBond NonConjugatedSingleBond NonConjugatedSingleBond NonConjugatedSingleBond NonConjugatedSingleBond NonConjugatedSingleBond NonConjugatedSingleBond NonConjugatedSingleBond
M  BCL CHI  32   S  33   S
M  BCL DBI Z Z - - -
M  END
> <ConfClashScore>
0 

> <ConfOneFourInteractionScore>
-0.972961 

> <ConfScore>
-0.164347 

> <ConfScorePBest>
0.0150985 

> <ConfTolerance>
1.06662 

$$$$
L06.****
  PyMOL2.5          3D                             0

 49 48  0  0  0  0  0  0  0  0999 V2000
   -0.0906   -0.2201    0.5085 C   0  0  0  1  0  0  0  0  0  0  0  0
   -1.4746   -0.8082    0.4391 C   0  0  0  1  0  0  0  0  0  0  0  0
   -1.8511   -0.9114    1.4353 H   0  0  0  1  0  0  0  0  0  0  0  0
   -1.4123   -1.7722   -0.0209 H   0  0  0  1  0  0  0  0  0  0  0  0
    7.5872    4.9332   -0.0995 O   0  0  0  1  0  0  0  0  0  0  0  0
    5.2203    5.4670   -0.8442 O   0  0  0  1  0  0  0  0  0  0  0  0
    4.4974    5.4688    0.4141 C   0  0  0  1  0  0  0  0  0  0  0  0
    4.3081    6.4734    0.7299 H   0  0  0  1  0  0  0  0  0  0  0  0
    5.0627    4.9586    1.1657 H   0  0  0  1  0  0  0  0  0  0  0  0
    7.3073    3.0572   -1.8718 O   0  0  0  0  0  0  0  0  0  0  0  0
    3.2040    4.7525    0.1637 C   0  0  0  1  0  0  0  0  0  0  0  0
    2.6016    5.1341   -0.5933 H   0  0  0  1  0  0  0  0  0  0  0  0
    2.7440    3.6830    0.8043 C   0  0  0  1  0  0  0  0  0  0  0  0
    1.4323    3.0241    0.4900 C   0  0  0  1  0  0  0  0  0  0  0  0
    0.9758    3.5458   -0.3251 H   0  0  0  1  0  0  0  0  0  0  0  0
    0.8031    3.0891    1.3530 H   0  0  0  1  0  0  0  0  0  0  0  0
    1.5781    1.5605    0.1066 C   0  0  0  1  0  0  0  0  0  0  0  0
    2.0952    1.0522    0.8935 H   0  0  0  1  0  0  0  0  0  0  0  0
    2.1513    1.4999   -0.7948 H   0  0  0  1  0  0  0  0  0  0  0  0
    0.2670    0.8810   -0.1171 C   0  0  0  1  0  0  0  0  0  0  0  0
   -0.3959    1.2986   -0.8010 H   0  0  0  1  0  0  0  0  0  0  0  0
   -2.4455    0.0468   -0.3589 C   0  0  0  1  0  0  0  0  0  0  0  0
   -2.0995    0.1210   -1.3687 H   0  0  0  1  0  0  0  0  0  0  0  0
   -2.4917    1.0235    0.0755 H   0  0  0  1  0  0  0  0  0  0  0  0
   -3.8211   -0.5613   -0.3524 C   0  0  0  1  0  0  0  0  0  0  0  0
   -3.9039   -1.5668   -0.6046 H   0  0  0  1  0  0  0  0  0  0  0  0
   -4.9587    0.1022   -0.0430 C   0  0  0  1  0  0  0  0  0  0  0  0
   -6.2858   -0.5990   -0.0202 C   0  0  0  1  0  0  0  0  0  0  0  0
   -6.8606   -0.3035   -0.8730 H   0  0  0  1  0  0  0  0  0  0  0  0
   -6.8126   -0.3359    0.8732 H   0  0  0  1  0  0  0  0  0  0  0  0
   -6.1302   -1.6573   -0.0446 H   0  0  0  1  0  0  0  0  0  0  0  0
    6.7175    5.9352   -0.9130 P   0  0  0  1  0  0  0  0  0  0  0  0
    7.9747    3.3695   -0.4067 P   0  0  0  1  0  0  0  0  0  0  0  0
    7.0847    5.8511   -2.3976 O   0  0  0  0  0  0  0  0  0  0  0  0
    9.5839    3.1923   -0.4656 O   0  5  0  1  0  0  0  0  0  0  0  0
    3.5211    3.0384    1.9174 C   0  0  0  1  0  0  0  0  0  0  0  0
    3.8272    2.0578    1.6180 H   0  0  0  1  0  0  0  0  0  0  0  0
    2.9042    2.9686    2.7888 H   0  0  0  1  0  0  0  0  0  0  0  0
    4.3852    3.6298    2.1378 H   0  0  0  1  0  0  0  0  0  0  0  0
    0.8771   -0.9901    1.3579 C   0  0  0  1  0  0  0  0  0  0  0  0
    0.6061   -0.8901    2.3881 H   0  0  0  1  0  0  0  0  0  0  0  0
    1.8648   -0.6060    1.2102 H   0  0  0  1  0  0  0  0  0  0  0  0
    0.8505   -2.0233    1.0810 H   0  0  0  1  0  0  0  0  0  0  0  0
   -4.9388    1.5953    0.2966 C   0  0  0  1  0  0  0  0  0  0  0  0
   -3.9266    1.9209    0.4165 H   0  0  0  1  0  0  0  0  0  0  0  0
   -5.4767    1.7611    1.2066 H   0  0  0  1  0  0  0  0  0  0  0  0
   -5.3992    2.1473   -0.4961 H   0  0  0  1  0  0  0  0  0  0  0  0
    6.9198    7.2804   -0.3277 O   0  0  0  1  0  0  0  0  0  0  0  0
    7.2827    2.4808    0.5533 O   0  0  0  1  0  0  0  0  0  0  0  0
  1  2  1  0  0  0  0
  1 20  2  0  0  0  0
  1 40  1  0  0  0  0
  2  3  1  0  0  0  0
  2  4  1  0  0  0  0
  2 22  1  0  0  0  0
  5 32  1  0  0  0  0
  5 33  1  0  0  0  0
  6  7  1  0  0  0  0
  6 32  1  0  0  0  0
  7  8  1  0  0  0  0
  7  9  1  0  0  0  0
  7 11  1  0  0  0  0
 10 33  1  0  0  0  0
 11 12  1  0  0  0  0
 11 13  2  0  0  0  0
 13 14  1  0  0  0  0
 13 36  1  0  0  0  0
 14 15  1  0  0  0  0
 14 16  1  0  0  0  0
 14 17  1  0  0  0  0
 17 18  1  0  0  0  0
 17 19  1  0  0  0  0
 17 20  1  0  0  0  0
 20 21  1  0  0  0  0
 22 23  1  0  0  0  0
 22 24  1  0  0  0  0
 22 25  1  0  0  0  0
 25 26  1  0  0  0  0
 25 27  2  0  0  0  0
 27 28  1  0  0  0  0
 27 44  1  0  0  0  0
 28 29  1  0  0  0  0
 28 30  1  0  0  0  0
 28 31  1  0  0  0  0
 32 34  1  0  0  0  0
 32 48  2  0  0  0  0
 33 35  1  0  0  0  0
 33 49  2  0  0  0  0
 36 37  1  0  0  0  0
 36 38  1  0  0  0  0
 36 39  1  0  0  0  0
 40 41  1  0  0  0  0
 40 42  1  0  0  0  0
 40 43  1  0  0  0  0
 44 45  1  0  0  0  0
 44 46  1  0  0  0  0
 44 47  1  0  0  0  0
M  BCL ATM C_TrTrTrPi C_TeTeTeTe H_S H_S O_Tr2TrTrPi2 O_Tr2TrTrPi2 C_TeTeTeTe H_S H_S O_Te2Te2TeTe C_TrTrTrPi H_S C_TrTrTrPi C_TeTeTeTe H_S H_S C_TeTeTeTe H_S H_S C_TrTrTrPi H_S C_TeTeTeTe H_S H_S C_TrTrTrPi H_S C_TrTrTrPi C_TeTeTeTe H_S H_S H_S P_TeTeTeTePi P_TeTeTeTePi O_Te2Te2TeTe O_Te2Te2Te2Te C_TeTeTeTe H_S H_S H_S C_TeTeTeTe H_S H_S H_S C_TeTeTeTe H_S H_S H_S O_Tr2Tr2TrPi O_Tr2Tr2TrPi
M  BCL BND NonConjugatedSingleBond ConjugatedDoubleBond NonConjugatedSingleBond NonConjugatedSingleBond NonConjugatedSingleBond NonConjugatedSingleBond ConjugatedSingleBond ConjugatedSingleBond NonConjugatedSingleBond ConjugatedSingleBond NonConjugatedSingleBond NonConjugatedSingleBond NonConjugatedSingleBond ConjugatedSingleBond NonConjugatedSingleBond ConjugatedDoubleBond NonConjugatedSingleBond NonConjugatedSingleBond NonConjugatedSingleBond NonConjugatedSingleBond NonConjugatedSingleBond NonConjugatedSingleBond NonConjugatedSingleBond NonConjugatedSingleBond NonConjugatedSingleBond NonConjugatedSingleBond NonConjugatedSingleBond NonConjugatedSingleBond NonConjugatedSingleBond ConjugatedDoubleBond NonConjugatedSingleBond NonConjugatedSingleBond NonConjugatedSingleBond NonConjugatedSingleBond NonConjugatedSingleBond ConjugatedSingleBond ConjugatedDoubleBond ConjugatedSingleBond ConjugatedDoubleBond NonConjugatedSingleBond NonConjugatedSingleBond NonConjugatedSingleBond NonConjugatedSingleBond NonConjugatedSingleBond NonConjugatedSingleBond NonConjugatedSingleBond NonConjugatedSingleBond NonConjugatedSingleBond
M  BCL CHI  32   S  33   S
M  BCL DBI Z Z - - -
M  END
> <ConfClashScore>
0 

> <ConfOneFourInteractionScore>
-0.982537 

> <ConfScore>
-0.154234 

> <ConfScorePBest>
0.0149955 

> <ConfTolerance>
1.12204 

$$$$
L06.****
  PyMOL2.5          3D                             0

 49 48  0  0  0  0  0  0  0  0999 V2000
   -2.9392   -4.1726   -1.3737 C   0  0  0  1  0  0  0  0  0  0  0  0
   -3.1444   -2.6862   -1.4140 C   0  0  0  1  0  0  0  0  0  0  0  0
   -3.8846   -2.4853   -2.1602 H   0  0  0  1  0  0  0  0  0  0  0  0
   -2.2151   -2.2424   -1.7042 H   0  0  0  1  0  0  0  0  0  0  0  0
   -0.2874  -11.2001    4.7510 O   0  0  0  1  0  0  0  0  0  0  0  0
   -2.2489  -10.3594    3.3298 O   0  0  0  1  0  0  0  0  0  0  0  0
   -3.4653  -10.4054    2.5671 C   0  0  0  1  0  0  0  0  0  0  0  0
   -4.2689  -10.7391    3.1899 H   0  0  0  1  0  0  0  0  0  0  0  0
   -3.3489  -11.0782    1.7432 H   0  0  0  1  0  0  0  0  0  0  0  0
    0.7540  -10.1435    2.5521 O   0  0  0  0  0  0  0  0  0  0  0  0
   -3.7615   -9.0264    2.0555 C   0  0  0  1  0  0  0  0  0  0  0  0
   -3.9958   -8.3239    2.7856 H   0  0  0  1  0  0  0  0  0  0  0  0
   -3.7687   -8.5678    0.8024 C   0  0  0  1  0  0  0  0  0  0  0  0
   -4.0960   -7.1341    0.5014 C   0  0  0  1  0  0  0  0  0  0  0  0
   -4.3226   -6.6361    1.4209 H   0  0  0  1  0  0  0  0  0  0  0  0
   -4.9524   -7.1076   -0.1396 H   0  0  0  1  0  0  0  0  0  0  0  0
   -2.9574   -6.3941   -0.1817 C   0  0  0  1  0  0  0  0  0  0  0  0
   -2.8460   -6.7969   -1.1667 H   0  0  0  1  0  0  0  0  0  0  0  0
   -2.0643   -6.5719    0.3801 H   0  0  0  1  0  0  0  0  0  0  0  0
   -3.1388   -4.9050   -0.3067 C   0  0  0  1  0  0  0  0  0  0  0  0
   -3.4571   -4.4035    0.5469 H   0  0  0  1  0  0  0  0  0  0  0  0
   -3.5910   -2.0078   -0.1403 C   0  0  0  1  0  0  0  0  0  0  0  0
   -2.8482   -2.1892    0.6082 H   0  0  0  1  0  0  0  0  0  0  0  0
   -4.5176   -2.4497    0.1616 H   0  0  0  1  0  0  0  0  0  0  0  0
   -3.7965   -0.5212   -0.2394 C   0  0  0  1  0  0  0  0  0  0  0  0
   -2.9641    0.0455   -0.4994 H   0  0  0  1  0  0  0  0  0  0  0  0
   -4.9309    0.1494   -0.0301 C   0  0  0  1  0  0  0  0  0  0  0  0
   -6.2060   -0.5667    0.3085 C   0  0  0  1  0  0  0  0  0  0  0  0
   -5.9882   -1.5829    0.5632 H   0  0  0  1  0  0  0  0  0  0  0  0
   -6.8627   -0.5439   -0.5359 H   0  0  0  1  0  0  0  0  0  0  0  0
   -6.6761   -0.0839    1.1397 H   0  0  0  1  0  0  0  0  0  0  0  0
   -1.6916  -11.6777    4.0815 P   0  0  0  1  0  0  0  0  0  0  0  0
    0.9944  -10.3656    4.1591 P   0  0  0  1  0  0  0  0  0  0  0  0
   -2.7057  -11.9994    5.1142 O   0  0  0  0  0  0  0  0  0  0  0  0
    0.6224   -8.9171    4.7821 O   0  5  0  1  0  0  0  0  0  0  0  0
   -3.4494   -9.4680   -0.3578 C   0  0  0  1  0  0  0  0  0  0  0  0
   -3.3813  -10.4799   -0.0166 H   0  0  0  1  0  0  0  0  0  0  0  0
   -2.5160   -9.1742   -0.7906 H   0  0  0  1  0  0  0  0  0  0  0  0
   -4.2237   -9.3909   -1.0923 H   0  0  0  1  0  0  0  0  0  0  0  0
   -2.4786   -4.7794   -2.6692 C   0  0  0  1  0  0  0  0  0  0  0  0
   -1.4910   -4.4345   -2.8939 H   0  0  0  1  0  0  0  0  0  0  0  0
   -3.1447   -4.4900   -3.4550 H   0  0  0  1  0  0  0  0  0  0  0  0
   -2.4723   -5.8458   -2.5809 H   0  0  0  1  0  0  0  0  0  0  0  0
   -4.9778    1.6485   -0.1247 C   0  0  0  1  0  0  0  0  0  0  0  0
   -5.7256    1.9384   -0.8329 H   0  0  0  1  0  0  0  0  0  0  0  0
   -4.0243    2.0155   -0.4428 H   0  0  0  1  0  0  0  0  0  0  0  0
   -5.2167    2.0589    0.8341 H   0  0  0  1  0  0  0  0  0  0  0  0
   -1.2903  -12.6992    3.1320 O   0  0  0  1  0  0  0  0  0  0  0  0
    2.3329  -10.9053    4.4872 O   0  0  0  1  0  0  0  0  0  0  0  0
  1  2  1  0  0  0  0
  1 20  2  0  0  0  0
  1 40  1  0  0  0  0
  2  3  1  0  0  0  0
  2  4  1  0  0  0  0
  2 22  1  0  0  0  0
  5 32  1  0  0  0  0
  5 33  1  0  0  0  0
  6  7  1  0  0  0  0
  6 32  1  0  0  0  0
  7  8  1  0  0  0  0
  7  9  1  0  0  0  0
  7 11  1  0  0  0  0
 10 33  1  0  0  0  0
 11 12  1  0  0  0  0
 11 13  2  0  0  0  0
 13 14  1  0  0  0  0
 13 36  1  0  0  0  0
 14 15  1  0  0  0  0
 14 16  1  0  0  0  0
 14 17  1  0  0  0  0
 17 18  1  0  0  0  0
 17 19  1  0  0  0  0
 17 20  1  0  0  0  0
 20 21  1  0  0  0  0
 22 23  1  0  0  0  0
 22 24  1  0  0  0  0
 22 25  1  0  0  0  0
 25 26  1  0  0  0  0
 25 27  2  0  0  0  0
 27 28  1  0  0  0  0
 27 44  1  0  0  0  0
 28 29  1  0  0  0  0
 28 30  1  0  0  0  0
 28 31  1  0  0  0  0
 32 34  1  0  0  0  0
 32 48  2  0  0  0  0
 33 35  1  0  0  0  0
 33 49  2  0  0  0  0
 36 37  1  0  0  0  0
 36 38  1  0  0  0  0
 36 39  1  0  0  0  0
 40 41  1  0  0  0  0
 40 42  1  0  0  0  0
 40 43  1  0  0  0  0
 44 45  1  0  0  0  0
 44 46  1  0  0  0  0
 44 47  1  0  0  0  0
M  BCL ATM C_TrTrTrPi C_TeTeTeTe H_S H_S O_Tr2TrTrPi2 O_Tr2TrTrPi2 C_TeTeTeTe H_S H_S O_Te2Te2TeTe C_TrTrTrPi H_S C_TrTrTrPi C_TeTeTeTe H_S H_S C_TeTeTeTe H_S H_S C_TrTrTrPi H_S C_TeTeTeTe H_S H_S C_TrTrTrPi H_S C_TrTrTrPi C_TeTeTeTe H_S H_S H_S P_TeTeTeTePi P_TeTeTeTePi O_Te2Te2TeTe O_Te2Te2Te2Te C_TeTeTeTe H_S H_S H_S C_TeTeTeTe H_S H_S H_S C_TeTeTeTe H_S H_S H_S O_Tr2Tr2TrPi O_Tr2Tr2TrPi
M  BCL BND NonConjugatedSingleBond ConjugatedDoubleBond NonConjugatedSingleBond NonConjugatedSingleBond NonConjugatedSingleBond NonConjugatedSingleBond ConjugatedSingleBond ConjugatedSingleBond NonConjugatedSingleBond ConjugatedSingleBond NonConjugatedSingleBond NonConjugatedSingleBond NonConjugatedSingleBond ConjugatedSingleBond NonConjugatedSingleBond ConjugatedDoubleBond NonConjugatedSingleBond NonConjugatedSingleBond NonConjugatedSingleBond NonConjugatedSingleBond NonConjugatedSingleBond NonConjugatedSingleBond NonConjugatedSingleBond NonConjugatedSingleBond NonConjugatedSingleBond NonConjugatedSingleBond NonConjugatedSingleBond NonConjugatedSingleBond NonConjugatedSingleBond ConjugatedDoubleBond NonConjugatedSingleBond NonConjugatedSingleBond NonConjugatedSingleBond NonConjugatedSingleBond NonConjugatedSingleBond ConjugatedSingleBond ConjugatedDoubleBond ConjugatedSingleBond ConjugatedDoubleBond NonConjugatedSingleBond NonConjugatedSingleBond NonConjugatedSingleBond NonConjugatedSingleBond NonConjugatedSingleBond NonConjugatedSingleBond NonConjugatedSingleBond NonConjugatedSingleBond NonConjugatedSingleBond
M  BCL CHI  32   S  33   S
M  BCL DBI Z Z - - -
M  END
> <ConfClashScore>
0 

> <ConfOneFourInteractionScore>
-0.985843 

> <ConfScore>
-0.153163 

> <ConfScorePBest>
0.0148925 

> <ConfTolerance>
1.10152 

$$$$
L06.****
  PyMOL2.5          3D                             0

 49 48  0  0  0  0  0  0  0  0999 V2000
   -2.5994   -3.8221   -1.3530 C   0  0  0  1  0  0  0  0  0  0  0  0
   -2.5505   -2.3801   -0.9389 C   0  0  0  1  0  0  0  0  0  0  0  0
   -2.5324   -1.7732   -1.8200 H   0  0  0  1  0  0  0  0  0  0  0  0
   -1.6558   -2.2178   -0.3749 H   0  0  0  1  0  0  0  0  0  0  0  0
   -9.8026   -9.3817   -6.4696 O   0  0  0  1  0  0  0  0  0  0  0  0
   -7.5660   -8.9435   -5.4044 O   0  0  0  1  0  0  0  0  0  0  0  0
   -6.2844   -9.0505   -4.7852 C   0  0  0  1  0  0  0  0  0  0  0  0
   -5.5849   -9.4739   -5.4754 H   0  0  0  1  0  0  0  0  0  0  0  0
   -6.3537   -9.6746   -3.9188 H   0  0  0  1  0  0  0  0  0  0  0  0
  -10.2280  -10.2146   -8.9861 O   0  0  0  0  0  0  0  0  0  0  0  0
   -5.8311   -7.6784   -4.3844 C   0  0  0  1  0  0  0  0  0  0  0  0
   -5.9404   -6.9023   -5.0681 H   0  0  0  1  0  0  0  0  0  0  0  0
   -5.2963   -7.4051   -3.1978 C   0  0  0  1  0  0  0  0  0  0  0  0
   -5.0118   -5.9759   -2.8319 C   0  0  0  1  0  0  0  0  0  0  0  0
   -5.4079   -5.7890   -1.8556 H   0  0  0  1  0  0  0  0  0  0  0  0
   -5.4971   -5.3395   -3.5420 H   0  0  0  1  0  0  0  0  0  0  0  0
   -3.5278   -5.6477   -2.8229 C   0  0  0  1  0  0  0  0  0  0  0  0
   -3.1426   -5.7848   -3.8117 H   0  0  0  1  0  0  0  0  0  0  0  0
   -3.0346   -6.3189   -2.1512 H   0  0  0  1  0  0  0  0  0  0  0  0
   -3.2414   -4.2493   -2.3917 C   0  0  0  1  0  0  0  0  0  0  0  0
   -3.6129   -3.5075   -3.0189 H   0  0  0  1  0  0  0  0  0  0  0  0
   -3.7402   -1.9639   -0.0892 C   0  0  0  1  0  0  0  0  0  0  0  0
   -3.7073   -2.5071    0.8320 H   0  0  0  1  0  0  0  0  0  0  0  0
   -4.6381   -2.2095   -0.6169 H   0  0  0  1  0  0  0  0  0  0  0  0
   -3.7551   -0.5242    0.2161 C   0  0  0  1  0  0  0  0  0  0  0  0
   -2.8996   -0.0456    0.5635 H   0  0  0  1  0  0  0  0  0  0  0  0
   -4.8869    0.1514    0.0380 C   0  0  0  1  0  0  0  0  0  0  0  0
   -6.2001   -0.5570   -0.1391 C   0  0  0  1  0  0  0  0  0  0  0  0
   -6.0734   -1.6000    0.0631 H   0  0  0  1  0  0  0  0  0  0  0  0
   -6.5419   -0.4278   -1.1448 H   0  0  0  1  0  0  0  0  0  0  0  0
   -6.9201   -0.1475    0.5382 H   0  0  0  1  0  0  0  0  0  0  0  0
   -8.5422  -10.0856   -5.8193 P   0  0  0  1  0  0  0  0  0  0  0  0
  -10.1367   -8.9052   -8.0029 P   0  0  0  1  0  0  0  0  0  0  0  0
   -8.0283  -11.0687   -6.7950 O   0  0  0  0  0  0  0  0  0  0  0  0
  -11.5728   -8.1559   -7.9808 O   0  5  0  1  0  0  0  0  0  0  0  0
   -4.9341   -8.4166   -2.1470 C   0  0  0  1  0  0  0  0  0  0  0  0
   -5.3279   -9.3730   -2.4210 H   0  0  0  1  0  0  0  0  0  0  0  0
   -5.3474   -8.1172   -1.2065 H   0  0  0  1  0  0  0  0  0  0  0  0
   -3.8691   -8.4799   -2.0652 H   0  0  0  1  0  0  0  0  0  0  0  0
   -1.8354   -4.7592   -0.4605 C   0  0  0  1  0  0  0  0  0  0  0  0
   -1.8485   -5.7431   -0.8808 H   0  0  0  1  0  0  0  0  0  0  0  0
   -2.2901   -4.7792    0.5079 H   0  0  0  1  0  0  0  0  0  0  0  0
   -0.8235   -4.4224   -0.3730 H   0  0  0  1  0  0  0  0  0  0  0  0
   -4.9707    1.6491   -0.0039 C   0  0  0  1  0  0  0  0  0  0  0  0
   -4.0005    2.0661    0.1682 H   0  0  0  1  0  0  0  0  0  0  0  0
   -5.6446    1.9897    0.7542 H   0  0  0  1  0  0  0  0  0  0  0  0
   -5.3268    1.9595   -0.9640 H   0  0  0  1  0  0  0  0  0  0  0  0
   -8.9162  -10.7468   -4.5372 O   0  0  0  1  0  0  0  0  0  0  0  0
   -9.0898   -7.9868   -8.5039 O   0  0  0  1  0  0  0  0  0  0  0  0
  1  2  1  0  0  0  0
  1 20  2  0  0  0  0
  1 40  1  0  0  0  0
  2  3  1  0  0  0  0
  2  4  1  0  0  0  0
  2 22  1  0  0  0  0
  5 32  1  0  0  0  0
  5 33  1  0  0  0  0
  6  7  1  0  0  0  0
  6 32  1  0  0  0  0
  7  8  1  0  0  0  0
  7  9  1  0  0  0  0
  7 11  1  0  0  0  0
 10 33  1  0  0  0  0
 11 12  1  0  0  0  0
 11 13  2  0  0  0  0
 13 14  1  0  0  0  0
 13 36  1  0  0  0  0
 14 15  1  0  0  0  0
 14 16  1  0  0  0  0
 14 17  1  0  0  0  0
 17 18  1  0  0  0  0
 17 19  1  0  0  0  0
 17 20  1  0  0  0  0
 20 21  1  0  0  0  0
 22 23  1  0  0  0  0
 22 24  1  0  0  0  0
 22 25  1  0  0  0  0
 25 26  1  0  0  0  0
 25 27  2  0  0  0  0
 27 28  1  0  0  0  0
 27 44  1  0  0  0  0
 28 29  1  0  0  0  0
 28 30  1  0  0  0  0
 28 31  1  0  0  0  0
 32 34  1  0  0  0  0
 32 48  2  0  0  0  0
 33 35  1  0  0  0  0
 33 49  2  0  0  0  0
 36 37  1  0  0  0  0
 36 38  1  0  0  0  0
 36 39  1  0  0  0  0
 40 41  1  0  0  0  0
 40 42  1  0  0  0  0
 40 43  1  0  0  0  0
 44 45  1  0  0  0  0
 44 46  1  0  0  0  0
 44 47  1  0  0  0  0
M  BCL ATM C_TrTrTrPi C_TeTeTeTe H_S H_S O_Tr2TrTrPi2 O_Tr2TrTrPi2 C_TeTeTeTe H_S H_S O_Te2Te2TeTe C_TrTrTrPi H_S C_TrTrTrPi C_TeTeTeTe H_S H_S C_TeTeTeTe H_S H_S C_TrTrTrPi H_S C_TeTeTeTe H_S H_S C_TrTrTrPi H_S C_TrTrTrPi C_TeTeTeTe H_S H_S H_S P_TeTeTeTePi P_TeTeTeTePi O_Te2Te2TeTe O_Te2Te2Te2Te C_TeTeTeTe H_S H_S H_S C_TeTeTeTe H_S H_S H_S C_TeTeTeTe H_S H_S H_S O_Tr2Tr2TrPi O_Tr2Tr2TrPi
M  BCL BND NonConjugatedSingleBond ConjugatedDoubleBond NonConjugatedSingleBond NonConjugatedSingleBond NonConjugatedSingleBond NonConjugatedSingleBond ConjugatedSingleBond ConjugatedSingleBond NonConjugatedSingleBond ConjugatedSingleBond NonConjugatedSingleBond NonConjugatedSingleBond NonConjugatedSingleBond ConjugatedSingleBond NonConjugatedSingleBond ConjugatedDoubleBond NonConjugatedSingleBond NonConjugatedSingleBond NonConjugatedSingleBond NonConjugatedSingleBond NonConjugatedSingleBond NonConjugatedSingleBond NonConjugatedSingleBond NonConjugatedSingleBond NonConjugatedSingleBond NonConjugatedSingleBond NonConjugatedSingleBond NonConjugatedSingleBond NonConjugatedSingleBond ConjugatedDoubleBond NonConjugatedSingleBond NonConjugatedSingleBond NonConjugatedSingleBond NonConjugatedSingleBond NonConjugatedSingleBond ConjugatedSingleBond ConjugatedDoubleBond ConjugatedSingleBond ConjugatedDoubleBond NonConjugatedSingleBond NonConjugatedSingleBond NonConjugatedSingleBond NonConjugatedSingleBond NonConjugatedSingleBond NonConjugatedSingleBond NonConjugatedSingleBond NonConjugatedSingleBond NonConjugatedSingleBond
M  BCL CHI  32   S  33   S
M  BCL DBI Z Z - - -
M  END
> <ConfClashScore>
0 

> <ConfOneFourInteractionScore>
-0.981015 

> <ConfScore>
-0.103165 

> <ConfScorePBest>
0.0147895 

> <ConfTolerance>
1.07203 

$$$$
L06.****
  PyMOL2.5          3D                             0

 49 48  0  0  0  0  0  0  0  0999 V2000
   -2.2853   -3.6745    1.5880 C   0  0  0  1  0  0  0  0  0  0  0  0
   -2.5644   -2.2212    1.3434 C   0  0  0  1  0  0  0  0  0  0  0  0
   -1.6397   -1.7287    1.1260 H   0  0  0  1  0  0  0  0  0  0  0  0
   -2.9921   -1.8025    2.2304 H   0  0  0  1  0  0  0  0  0  0  0  0
    2.4443  -12.1813    1.5415 O   0  0  0  1  0  0  0  0  0  0  0  0
    2.4681  -10.2344    0.2270 O   0  0  0  1  0  0  0  0  0  0  0  0
    2.3412   -9.1678    1.1879 C   0  0  0  1  0  0  0  0  0  0  0  0
    3.2885   -8.6888    1.3220 H   0  0  0  1  0  0  0  0  0  0  0  0
    2.0055   -9.5636    2.1236 H   0  0  0  1  0  0  0  0  0  0  0  0
    0.1097  -12.1926    0.1422 O   0  0  0  0  0  0  0  0  0  0  0  0
    1.3416   -8.1752    0.6713 C   0  0  0  1  0  0  0  0  0  0  0  0
    1.6439   -7.6367   -0.1656 H   0  0  0  1  0  0  0  0  0  0  0  0
    0.1284   -7.8824    1.1242 C   0  0  0  1  0  0  0  0  0  0  0  0
   -0.5915   -6.6396    0.6829 C   0  0  0  1  0  0  0  0  0  0  0  0
   -1.5739   -6.9123    0.3582 H   0  0  0  1  0  0  0  0  0  0  0  0
   -0.0530   -6.2059   -0.1337 H   0  0  0  1  0  0  0  0  0  0  0  0
   -0.7175   -5.5989    1.7878 C   0  0  0  1  0  0  0  0  0  0  0  0
    0.2343   -5.4917    2.2648 H   0  0  0  1  0  0  0  0  0  0  0  0
   -1.4373   -5.9441    2.5003 H   0  0  0  1  0  0  0  0  0  0  0  0
   -1.1511   -4.2590    1.2840 C   0  0  0  1  0  0  0  0  0  0  0  0
   -0.5052   -3.7531    0.6449 H   0  0  0  1  0  0  0  0  0  0  0  0
   -3.5219   -1.9852    0.1867 C   0  0  0  1  0  0  0  0  0  0  0  0
   -4.4602   -2.4422    0.4226 H   0  0  0  1  0  0  0  0  0  0  0  0
   -3.1137   -2.4402   -0.6915 H   0  0  0  1  0  0  0  0  0  0  0  0
   -3.7573   -0.5267   -0.0951 C   0  0  0  1  0  0  0  0  0  0  0  0
   -2.9274    0.0294   -0.3842 H   0  0  0  1  0  0  0  0  0  0  0  0
   -4.9105    0.1283   -0.0147 C   0  0  0  1  0  0  0  0  0  0  0  0
   -6.2121   -0.5187    0.3659 C   0  0  0  1  0  0  0  0  0  0  0  0
   -6.0423   -1.2300    1.1470 H   0  0  0  1  0  0  0  0  0  0  0  0
   -6.6251   -1.0169   -0.4862 H   0  0  0  1  0  0  0  0  0  0  0  0
   -6.8957    0.2300    0.7080 H   0  0  0  1  0  0  0  0  0  0  0  0
    3.4158  -11.5487    0.3985 P   0  0  0  1  0  0  0  0  0  0  0  0
    0.8289  -12.4600    1.5917 P   0  0  0  1  0  0  0  0  0  0  0  0
    3.3643  -12.3809   -0.8291 O   0  0  0  0  0  0  0  0  0  0  0  0
    0.6211  -14.0604    1.7318 O   0  5  0  1  0  0  0  0  0  0  0  0
   -0.6323   -8.7375    2.0982 C   0  0  0  1  0  0  0  0  0  0  0  0
   -1.4393   -9.2242    1.5916 H   0  0  0  1  0  0  0  0  0  0  0  0
   -1.0226   -8.1232    2.8826 H   0  0  0  1  0  0  0  0  0  0  0  0
    0.0234   -9.4738    2.5138 H   0  0  0  1  0  0  0  0  0  0  0  0
   -3.4155   -4.4336    2.2183 C   0  0  0  1  0  0  0  0  0  0  0  0
   -3.1899   -5.4796    2.2133 H   0  0  0  1  0  0  0  0  0  0  0  0
   -4.3142   -4.2603    1.6640 H   0  0  0  1  0  0  0  0  0  0  0  0
   -3.5486   -4.1025    3.2270 H   0  0  0  1  0  0  0  0  0  0  0  0
   -5.0008    1.5979   -0.3051 C   0  0  0  1  0  0  0  0  0  0  0  0
   -5.5960    1.7531   -1.1806 H   0  0  0  1  0  0  0  0  0  0  0  0
   -4.0186    1.9901   -0.4677 H   0  0  0  1  0  0  0  0  0  0  0  0
   -5.4521    2.0983    0.5260 H   0  0  0  1  0  0  0  0  0  0  0  0
    4.7211  -11.1705    0.9693 O   0  0  0  1  0  0  0  0  0  0  0  0
    0.1236  -11.8245    2.7270 O   0  0  0  1  0  0  0  0  0  0  0  0
  1  2  1  0  0  0  0
  1 20  2  0  0  0  0
  1 40  1  0  0  0  0
  2  3  1  0  0  0  0
  2  4  1  0  0  0  0
  2 22  1  0  0  0  0
  5 32  1  0  0  0  0
  5 33  1  0  0  0  0
  6  7  1  0  0  0  0
  6 32  1  0  0  0  0
  7  8  1  0  0  0  0
  7  9  1  0  0  0  0
  7 11  1  0  0  0  0
 10 33  1  0  0  0  0
 11 12  1  0  0  0  0
 11 13  2  0  0  0  0
 13 14  1  0  0  0  0
 13 36  1  0  0  0  0
 14 15  1  0  0  0  0
 14 16  1  0  0  0  0
 14 17  1  0  0  0  0
 17 18  1  0  0  0  0
 17 19  1  0  0  0  0
 17 20  1  0  0  0  0
 20 21  1  0  0  0  0
 22 23  1  0  0  0  0
 22 24  1  0  0  0  0
 22 25  1  0  0  0  0
 25 26  1  0  0  0  0
 25 27  2  0  0  0  0
 27 28  1  0  0  0  0
 27 44  1  0  0  0  0
 28 29  1  0  0  0  0
 28 30  1  0  0  0  0
 28 31  1  0  0  0  0
 32 34  1  0  0  0  0
 32 48  2  0  0  0  0
 33 35  1  0  0  0  0
 33 49  2  0  0  0  0
 36 37  1  0  0  0  0
 36 38  1  0  0  0  0
 36 39  1  0  0  0  0
 40 41  1  0  0  0  0
 40 42  1  0  0  0  0
 40 43  1  0  0  0  0
 44 45  1  0  0  0  0
 44 46  1  0  0  0  0
 44 47  1  0  0  0  0
M  BCL ATM C_TrTrTrPi C_TeTeTeTe H_S H_S O_Tr2TrTrPi2 O_Tr2TrTrPi2 C_TeTeTeTe H_S H_S O_Te2Te2TeTe C_TrTrTrPi H_S C_TrTrTrPi C_TeTeTeTe H_S H_S C_TeTeTeTe H_S H_S C_TrTrTrPi H_S C_TeTeTeTe H_S H_S C_TrTrTrPi H_S C_TrTrTrPi C_TeTeTeTe H_S H_S H_S P_TeTeTeTePi P_TeTeTeTePi O_Te2Te2TeTe O_Te2Te2Te2Te C_TeTeTeTe H_S H_S H_S C_TeTeTeTe H_S H_S H_S C_TeTeTeTe H_S H_S H_S O_Tr2Tr2TrPi O_Tr2Tr2TrPi
M  BCL BND NonConjugatedSingleBond ConjugatedDoubleBond NonConjugatedSingleBond NonConjugatedSingleBond NonConjugatedSingleBond NonConjugatedSingleBond ConjugatedSingleBond ConjugatedSingleBond NonConjugatedSingleBond ConjugatedSingleBond NonConjugatedSingleBond NonConjugatedSingleBond NonConjugatedSingleBond ConjugatedSingleBond NonConjugatedSingleBond ConjugatedDoubleBond NonConjugatedSingleBond NonConjugatedSingleBond NonConjugatedSingleBond NonConjugatedSingleBond NonConjugatedSingleBond NonConjugatedSingleBond NonConjugatedSingleBond NonConjugatedSingleBond NonConjugatedSingleBond NonConjugatedSingleBond NonConjugatedSingleBond NonConjugatedSingleBond NonConjugatedSingleBond ConjugatedDoubleBond NonConjugatedSingleBond NonConjugatedSingleBond NonConjugatedSingleBond NonConjugatedSingleBond NonConjugatedSingleBond ConjugatedSingleBond ConjugatedDoubleBond ConjugatedSingleBond ConjugatedDoubleBond NonConjugatedSingleBond NonConjugatedSingleBond NonConjugatedSingleBond NonConjugatedSingleBond NonConjugatedSingleBond NonConjugatedSingleBond NonConjugatedSingleBond NonConjugatedSingleBond NonConjugatedSingleBond
M  BCL CHI  32   S  33   S
M  BCL DBI Z Z - - -
M  END
> <ConfClashScore>
0 

> <ConfOneFourInteractionScore>
-0.972961 

> <ConfScore>
-0.101063 

> <ConfScorePBest>
0.0146865 

> <ConfTolerance>
1.13761 

$$$$
L06.****
  PyMOL2.5          3D                             0

 49 48  0  0  0  0  0  0  0  0999 V2000
   -2.8001   -3.9804   -1.8506 C   0  0  0  1  0  0  0  0  0  0  0  0
   -3.0150   -2.4970   -1.7457 C   0  0  0  1  0  0  0  0  0  0  0  0
   -3.5966   -2.1874   -2.5887 H   0  0  0  1  0  0  0  0  0  0  0  0
   -2.0570   -2.0216   -1.7787 H   0  0  0  1  0  0  0  0  0  0  0  0
   -0.9629  -12.4687    0.9342 O   0  0  0  1  0  0  0  0  0  0  0  0
   -0.1619  -10.0520    0.9785 O   0  0  0  1  0  0  0  0  0  0  0  0
    0.0029   -9.8784   -0.4262 C   0  0  0  1  0  0  0  0  0  0  0  0
   -0.6346  -10.5763   -0.9276 H   0  0  0  1  0  0  0  0  0  0  0  0
    1.0233  -10.0859   -0.6725 H   0  0  0  1  0  0  0  0  0  0  0  0
   -1.6817  -14.3662    2.6153 O   0  0  0  0  0  0  0  0  0  0  0  0
   -0.3288   -8.5012   -0.9181 C   0  0  0  1  0  0  0  0  0  0  0  0
   -1.2672   -8.1193   -0.6833 H   0  0  0  1  0  0  0  0  0  0  0  0
    0.4870   -7.7323   -1.6315 C   0  0  0  1  0  0  0  0  0  0  0  0
    0.1327   -6.3487   -2.0981 C   0  0  0  1  0  0  0  0  0  0  0  0
    0.2254   -6.3031   -3.1631 H   0  0  0  1  0  0  0  0  0  0  0  0
    0.8034   -5.6452   -1.6508 H   0  0  0  1  0  0  0  0  0  0  0  0
   -1.2930   -5.9964   -1.7064 C   0  0  0  1  0  0  0  0  0  0  0  0
   -1.4307   -6.2340   -0.6722 H   0  0  0  1  0  0  0  0  0  0  0  0
   -1.9638   -6.5819   -2.2998 H   0  0  0  1  0  0  0  0  0  0  0  0
   -1.6182   -4.5409   -1.9110 C   0  0  0  1  0  0  0  0  0  0  0  0
   -0.8174   -3.9124   -2.1234 H   0  0  0  1  0  0  0  0  0  0  0  0
   -3.7275   -2.0293   -0.4871 C   0  0  0  1  0  0  0  0  0  0  0  0
   -3.1979   -2.4046    0.3635 H   0  0  0  1  0  0  0  0  0  0  0  0
   -4.7218   -2.4246   -0.4918 H   0  0  0  1  0  0  0  0  0  0  0  0
   -3.8084   -0.5301   -0.3780 C   0  0  0  1  0  0  0  0  0  0  0  0
   -2.9438    0.0140   -0.5731 H   0  0  0  1  0  0  0  0  0  0  0  0
   -4.9012    0.1494   -0.0512 C   0  0  0  1  0  0  0  0  0  0  0  0
   -6.1833   -0.5529    0.2960 C   0  0  0  1  0  0  0  0  0  0  0  0
   -6.0552   -1.6088    0.1790 H   0  0  0  1  0  0  0  0  0  0  0  0
   -6.9626   -0.2143   -0.3543 H   0  0  0  1  0  0  0  0  0  0  0  0
   -6.4452   -0.3359    1.3105 H   0  0  0  1  0  0  0  0  0  0  0  0
   -0.0521  -11.4978    1.6419 P   0  0  0  1  0  0  0  0  0  0  0  0
   -1.1824  -14.0875    1.0782 P   0  0  0  1  0  0  0  0  0  0  0  0
    1.4481  -11.8990    1.4838 O   0  0  0  0  0  0  0  0  0  0  0  0
   -2.4316  -14.6124    0.1903 O   0  5  0  1  0  0  0  0  0  0  0  0
    1.8570   -8.2005   -2.0343 C   0  0  0  1  0  0  0  0  0  0  0  0
    2.5177   -7.3611   -2.0955 H   0  0  0  1  0  0  0  0  0  0  0  0
    1.8029   -8.6818   -2.9884 H   0  0  0  1  0  0  0  0  0  0  0  0
    2.2258   -8.8920   -1.3058 H   0  0  0  1  0  0  0  0  0  0  0  0
   -4.0589   -4.7968   -1.8822 C   0  0  0  1  0  0  0  0  0  0  0  0
   -4.6472   -4.5134   -2.7299 H   0  0  0  1  0  0  0  0  0  0  0  0
   -4.6183   -4.6243   -0.9865 H   0  0  0  1  0  0  0  0  0  0  0  0
   -3.8089   -5.8348   -1.9528 H   0  0  0  1  0  0  0  0  0  0  0  0
   -4.9708    1.6474    0.0046 C   0  0  0  1  0  0  0  0  0  0  0  0
   -5.7180    1.9959   -0.6774 H   0  0  0  1  0  0  0  0  0  0  0  0
   -4.0210    2.0587   -0.2666 H   0  0  0  1  0  0  0  0  0  0  0  0
   -5.2231    1.9557    0.9977 H   0  0  0  1  0  0  0  0  0  0  0  0
   -0.3653  -11.2970    3.0964 O   0  0  0  1  0  0  0  0  0  0  0  0
    0.0713  -14.8465    0.8719 O   0  0  0  1  0  0  0  0  0  0  0  0
  1  2  1  0  0  0  0
  1 20  2  0  0  0  0
  1 40  1  0  0  0  0
  2  3  1  0  0  0  0
  2  4  1  0  0  0  0
  2 22  1  0  0  0  0
  5 32  1  0  0  0  0
  5 33  1  0  0  0  0
  6  7  1  0  0  0  0
  6 32  1  0  0  0  0
  7  8  1  0  0  0  0
  7  9  1  0  0  0  0
  7 11  1  0  0  0  0
 10 33  1  0  0  0  0
 11 12  1  0  0  0  0
 11 13  2  0  0  0  0
 13 14  1  0  0  0  0
 13 36  1  0  0  0  0
 14 15  1  0  0  0  0
 14 16  1  0  0  0  0
 14 17  1  0  0  0  0
 17 18  1  0  0  0  0
 17 19  1  0  0  0  0
 17 20  1  0  0  0  0
 20 21  1  0  0  0  0
 22 23  1  0  0  0  0
 22 24  1  0  0  0  0
 22 25  1  0  0  0  0
 25 26  1  0  0  0  0
 25 27  2  0  0  0  0
 27 28  1  0  0  0  0
 27 44  1  0  0  0  0
 28 29  1  0  0  0  0
 28 30  1  0  0  0  0
 28 31  1  0  0  0  0
 32 34  1  0  0  0  0
 32 48  2  0  0  0  0
 33 35  1  0  0  0  0
 33 49  2  0  0  0  0
 36 37  1  0  0  0  0
 36 38  1  0  0  0  0
 36 39  1  0  0  0  0
 40 41  1  0  0  0  0
 40 42  1  0  0  0  0
 40 43  1  0  0  0  0
 44 45  1  0  0  0  0
 44 46  1  0  0  0  0
 44 47  1  0  0  0  0
M  BCL ATM C_TrTrTrPi C_TeTeTeTe H_S H_S O_Tr2TrTrPi2 O_Tr2TrTrPi2 C_TeTeTeTe H_S H_S O_Te2Te2TeTe C_TrTrTrPi H_S C_TrTrTrPi C_TeTeTeTe H_S H_S C_TeTeTeTe H_S H_S C_TrTrTrPi H_S C_TeTeTeTe H_S H_S C_TrTrTrPi H_S C_TrTrTrPi C_TeTeTeTe H_S H_S H_S P_TeTeTeTePi P_TeTeTeTePi O_Te2Te2TeTe O_Te2Te2Te2Te C_TeTeTeTe H_S H_S H_S C_TeTeTeTe H_S H_S H_S C_TeTeTeTe H_S H_S H_S O_Tr2Tr2TrPi O_Tr2Tr2TrPi
M  BCL BND NonConjugatedSingleBond ConjugatedDoubleBond NonConjugatedSingleBond NonConjugatedSingleBond NonConjugatedSingleBond NonConjugatedSingleBond ConjugatedSingleBond ConjugatedSingleBond NonConjugatedSingleBond ConjugatedSingleBond NonConjugatedSingleBond NonConjugatedSingleBond NonConjugatedSingleBond ConjugatedSingleBond NonConjugatedSingleBond ConjugatedDoubleBond NonConjugatedSingleBond NonConjugatedSingleBond NonConjugatedSingleBond NonConjugatedSingleBond NonConjugatedSingleBond NonConjugatedSingleBond NonConjugatedSingleBond NonConjugatedSingleBond NonConjugatedSingleBond NonConjugatedSingleBond NonConjugatedSingleBond NonConjugatedSingleBond NonConjugatedSingleBond ConjugatedDoubleBond NonConjugatedSingleBond NonConjugatedSingleBond NonConjugatedSingleBond NonConjugatedSingleBond NonConjugatedSingleBond ConjugatedSingleBond ConjugatedDoubleBond ConjugatedSingleBond ConjugatedDoubleBond NonConjugatedSingleBond NonConjugatedSingleBond NonConjugatedSingleBond NonConjugatedSingleBond NonConjugatedSingleBond NonConjugatedSingleBond NonConjugatedSingleBond NonConjugatedSingleBond NonConjugatedSingleBond
M  BCL CHI  32   S  33   S
M  BCL DBI Z Z - - -
M  END
> <ConfClashScore>
0 

> <ConfOneFourInteractionScore>
-0.97616 

> <ConfScore>
-0.0903744 

> <ConfScorePBest>
0.0145835 

> <ConfTolerance>
1.11239 

$$$$
L06.****
  PyMOL2.5          3D                             0

 49 48  0  0  0  0  0  0  0  0999 V2000
   -2.6259   -4.1709   -0.5095 C   0  0  0  1  0  0  0  0  0  0  0  0
   -2.9542   -2.7467   -0.8517 C   0  0  0  1  0  0  0  0  0  0  0  0
   -3.6799   -2.7439   -1.6380 H   0  0  0  1  0  0  0  0  0  0  0  0
   -2.0612   -2.2627   -1.1882 H   0  0  0  1  0  0  0  0  0  0  0  0
   -0.9221  -12.7836    1.9124 O   0  0  0  1  0  0  0  0  0  0  0  0
   -0.5174  -10.5093    1.4853 O   0  0  0  1  0  0  0  0  0  0  0  0
   -1.1663   -9.9260    2.6265 C   0  0  0  1  0  0  0  0  0  0  0  0
   -0.4770   -9.8689    3.4430 H   0  0  0  1  0  0  0  0  0  0  0  0
   -2.0061  -10.5257    2.9093 H   0  0  0  1  0  0  0  0  0  0  0  0
   -2.7360  -14.7290    2.1926 O   0  0  0  0  0  0  0  0  0  0  0  0
   -1.6273   -8.5567    2.2623 C   0  0  0  1  0  0  0  0  0  0  0  0
   -1.3789   -8.2220    1.3094 H   0  0  0  1  0  0  0  0  0  0  0  0
   -2.3214   -7.7169    3.0228 C   0  0  0  1  0  0  0  0  0  0  0  0
   -2.7481   -6.3483    2.5773 C   0  0  0  1  0  0  0  0  0  0  0  0
   -2.1695   -5.6215    3.1082 H   0  0  0  1  0  0  0  0  0  0  0  0
   -3.7842   -6.2212    2.8125 H   0  0  0  1  0  0  0  0  0  0  0  0
   -2.5592   -6.1218    1.0862 C   0  0  0  1  0  0  0  0  0  0  0  0
   -3.2140   -6.7812    0.5558 H   0  0  0  1  0  0  0  0  0  0  0  0
   -1.5442   -6.3469    0.8334 H   0  0  0  1  0  0  0  0  0  0  0  0
   -2.8564   -4.7083    0.6622 C   0  0  0  1  0  0  0  0  0  0  0  0
   -3.2921   -4.0916    1.3775 H   0  0  0  1  0  0  0  0  0  0  0  0
   -3.5138   -1.9651    0.3258 C   0  0  0  1  0  0  0  0  0  0  0  0
   -2.8214   -2.0320    1.1388 H   0  0  0  1  0  0  0  0  0  0  0  0
   -4.4462   -2.4041    0.6136 H   0  0  0  1  0  0  0  0  0  0  0  0
   -3.7454   -0.5112    0.0119 C   0  0  0  1  0  0  0  0  0  0  0  0
   -2.9030    0.0528   -0.2201 H   0  0  0  1  0  0  0  0  0  0  0  0
   -4.9093    0.1296   -0.0008 C   0  0  0  1  0  0  0  0  0  0  0  0
   -6.2246   -0.5263    0.3039 C   0  0  0  1  0  0  0  0  0  0  0  0
   -6.5895   -0.1743    1.2462 H   0  0  0  1  0  0  0  0  0  0  0  0
   -6.0924   -1.5873    0.3467 H   0  0  0  1  0  0  0  0  0  0  0  0
   -6.9297   -0.2849   -0.4639 H   0  0  0  1  0  0  0  0  0  0  0  0
    0.3871  -11.8562    1.6366 P   0  0  0  1  0  0  0  0  0  0  0  0
   -1.2104  -14.3840    1.6993 P   0  0  0  1  0  0  0  0  0  0  0  0
    0.9963  -12.2130    0.3313 O   0  0  0  0  0  0  0  0  0  0  0  0
   -1.0684  -14.7492    0.1274 O   0  5  0  1  0  0  0  0  0  0  0  0
   -2.7408   -8.0833    4.4186 C   0  0  0  1  0  0  0  0  0  0  0  0
   -2.2118   -7.4746    5.1219 H   0  0  0  1  0  0  0  0  0  0  0  0
   -2.5162   -9.1137    4.5993 H   0  0  0  1  0  0  0  0  0  0  0  0
   -3.7929   -7.9224    4.5285 H   0  0  0  1  0  0  0  0  0  0  0  0
   -2.0004   -4.9582   -1.6263 C   0  0  0  1  0  0  0  0  0  0  0  0
   -2.6312   -4.9164   -2.4896 H   0  0  0  1  0  0  0  0  0  0  0  0
   -1.8810   -5.9767   -1.3211 H   0  0  0  1  0  0  0  0  0  0  0  0
   -1.0437   -4.5419   -1.8635 H   0  0  0  1  0  0  0  0  0  0  0  0
   -4.9974    1.5935   -0.3290 C   0  0  0  1  0  0  0  0  0  0  0  0
   -5.6076    1.7287   -1.1975 H   0  0  0  1  0  0  0  0  0  0  0  0
   -4.0163    1.9757   -0.5198 H   0  0  0  1  0  0  0  0  0  0  0  0
   -5.4310    2.1184    0.4964 H   0  0  0  1  0  0  0  0  0  0  0  0
    1.2387  -11.7733    2.8442 O   0  0  0  1  0  0  0  0  0  0  0  0
   -0.2385  -15.1743    2.4873 O   0  0  0  1  0  0  0  0  0  0  0  0
  1  2  1  0  0  0  0
  1 20  2  0  0  0  0
  1 40  1  0  0  0  0
  2  3  1  0  0  0  0
  2  4  1  0  0  0  0
  2 22  1  0  0  0  0
  5 32  1  0  0  0  0
  5 33  1  0  0  0  0
  6  7  1  0  0  0  0
  6 32  1  0  0  0  0
  7  8  1  0  0  0  0
  7  9  1  0  0  0  0
  7 11  1  0  0  0  0
 10 33  1  0  0  0  0
 11 12  1  0  0  0  0
 11 13  2  0  0  0  0
 13 14  1  0  0  0  0
 13 36  1  0  0  0  0
 14 15  1  0  0  0  0
 14 16  1  0  0  0  0
 14 17  1  0  0  0  0
 17 18  1  0  0  0  0
 17 19  1  0  0  0  0
 17 20  1  0  0  0  0
 20 21  1  0  0  0  0
 22 23  1  0  0  0  0
 22 24  1  0  0  0  0
 22 25  1  0  0  0  0
 25 26  1  0  0  0  0
 25 27  2  0  0  0  0
 27 28  1  0  0  0  0
 27 44  1  0  0  0  0
 28 29  1  0  0  0  0
 28 30  1  0  0  0  0
 28 31  1  0  0  0  0
 32 34  1  0  0  0  0
 32 48  2  0  0  0  0
 33 35  1  0  0  0  0
 33 49  2  0  0  0  0
 36 37  1  0  0  0  0
 36 38  1  0  0  0  0
 36 39  1  0  0  0  0
 40 41  1  0  0  0  0
 40 42  1  0  0  0  0
 40 43  1  0  0  0  0
 44 45  1  0  0  0  0
 44 46  1  0  0  0  0
 44 47  1  0  0  0  0
M  BCL ATM C_TrTrTrPi C_TeTeTeTe H_S H_S O_Tr2TrTrPi2 O_Tr2TrTrPi2 C_TeTeTeTe H_S H_S O_Te2Te2TeTe C_TrTrTrPi H_S C_TrTrTrPi C_TeTeTeTe H_S H_S C_TeTeTeTe H_S H_S C_TrTrTrPi H_S C_TeTeTeTe H_S H_S C_TrTrTrPi H_S C_TrTrTrPi C_TeTeTeTe H_S H_S H_S P_TeTeTeTePi P_TeTeTeTePi O_Te2Te2TeTe O_Te2Te2Te2Te C_TeTeTeTe H_S H_S H_S C_TeTeTeTe H_S H_S H_S C_TeTeTeTe H_S H_S H_S O_Tr2Tr2TrPi O_Tr2Tr2TrPi
M  BCL BND NonConjugatedSingleBond ConjugatedDoubleBond NonConjugatedSingleBond NonConjugatedSingleBond NonConjugatedSingleBond NonConjugatedSingleBond ConjugatedSingleBond ConjugatedSingleBond NonConjugatedSingleBond ConjugatedSingleBond NonConjugatedSingleBond NonConjugatedSingleBond NonConjugatedSingleBond ConjugatedSingleBond NonConjugatedSingleBond ConjugatedDoubleBond NonConjugatedSingleBond NonConjugatedSingleBond NonConjugatedSingleBond NonConjugatedSingleBond NonConjugatedSingleBond NonConjugatedSingleBond NonConjugatedSingleBond NonConjugatedSingleBond NonConjugatedSingleBond NonConjugatedSingleBond NonConjugatedSingleBond NonConjugatedSingleBond NonConjugatedSingleBond ConjugatedDoubleBond NonConjugatedSingleBond NonConjugatedSingleBond NonConjugatedSingleBond NonConjugatedSingleBond NonConjugatedSingleBond ConjugatedSingleBond ConjugatedDoubleBond ConjugatedSingleBond ConjugatedDoubleBond NonConjugatedSingleBond NonConjugatedSingleBond NonConjugatedSingleBond NonConjugatedSingleBond NonConjugatedSingleBond NonConjugatedSingleBond NonConjugatedSingleBond NonConjugatedSingleBond NonConjugatedSingleBond
M  BCL CHI  32   S  33   S
M  BCL DBI Z Z - - -
M  END
> <ConfClashScore>
0 

> <ConfOneFourInteractionScore>
-0.981701 

> <ConfScore>
-0.0898609 

> <ConfScorePBest>
0.0144805 

> <ConfTolerance>
1.03909 

$$$$
L06.****
  PyMOL2.5          3D                             0

 49 48  0  0  0  0  0  0  0  0999 V2000
   -3.4872   -3.5894   -2.7605 C   0  0  0  1  0  0  0  0  0  0  0  0
   -3.4743   -2.1373   -2.3801 C   0  0  0  1  0  0  0  0  0  0  0  0
   -4.2567   -1.6387   -2.9130 H   0  0  0  1  0  0  0  0  0  0  0  0
   -2.5295   -1.7203   -2.6600 H   0  0  0  1  0  0  0  0  0  0  0  0
   -5.4916  -12.1266   -6.9465 O   0  0  0  1  0  0  0  0  0  0  0  0
   -5.3013   -9.9281   -5.7852 O   0  0  0  1  0  0  0  0  0  0  0  0
   -6.6178   -9.3602   -5.8680 C   0  0  0  1  0  0  0  0  0  0  0  0
   -7.2478   -9.8412   -5.1492 H   0  0  0  1  0  0  0  0  0  0  0  0
   -7.0054   -9.5273   -6.8512 H   0  0  0  1  0  0  0  0  0  0  0  0
   -5.0795  -13.1852   -4.5502 O   0  0  0  0  0  0  0  0  0  0  0  0
   -6.6083   -7.8850   -5.5945 C   0  0  0  1  0  0  0  0  0  0  0  0
   -7.5350   -7.4320   -5.4621 H   0  0  0  1  0  0  0  0  0  0  0  0
   -5.5442   -7.0945   -5.5032 C   0  0  0  1  0  0  0  0  0  0  0  0
   -5.5809   -5.7115   -4.9171 C   0  0  0  1  0  0  0  0  0  0  0  0
   -6.5705   -5.5052   -4.5665 H   0  0  0  1  0  0  0  0  0  0  0  0
   -5.3149   -5.0028   -5.6734 H   0  0  0  1  0  0  0  0  0  0  0  0
   -4.6042   -5.5915   -3.7546 C   0  0  0  1  0  0  0  0  0  0  0  0
   -3.6214   -5.7923   -4.1271 H   0  0  0  1  0  0  0  0  0  0  0  0
   -4.8672   -6.3288   -3.0251 H   0  0  0  1  0  0  0  0  0  0  0  0
   -4.5766   -4.2508   -3.0707 C   0  0  0  1  0  0  0  0  0  0  0  0
   -5.4893   -3.8166   -2.8260 H   0  0  0  1  0  0  0  0  0  0  0  0
   -3.6816   -1.9099   -0.8916 C   0  0  0  1  0  0  0  0  0  0  0  0
   -2.8376   -2.3051   -0.3659 H   0  0  0  1  0  0  0  0  0  0  0  0
   -4.5666   -2.4289   -0.5878 H   0  0  0  1  0  0  0  0  0  0  0  0
   -3.8309   -0.4650   -0.5348 C   0  0  0  1  0  0  0  0  0  0  0  0
   -2.9916    0.1345   -0.6680 H   0  0  0  1  0  0  0  0  0  0  0  0
   -4.9196    0.1356   -0.0662 C   0  0  0  1  0  0  0  0  0  0  0  0
   -6.2070   -0.5804    0.2223 C   0  0  0  1  0  0  0  0  0  0  0  0
   -6.9784   -0.1981   -0.4130 H   0  0  0  1  0  0  0  0  0  0  0  0
   -6.4790   -0.4262    1.2456 H   0  0  0  1  0  0  0  0  0  0  0  0
   -6.0812   -1.6272    0.0400 H   0  0  0  1  0  0  0  0  0  0  0  0
   -4.6457  -10.7801   -6.9583 P   0  0  0  1  0  0  0  0  0  0  0  0
   -5.5904  -13.5117   -6.0740 P   0  0  0  1  0  0  0  0  0  0  0  0
   -5.0224  -10.0989   -8.2202 O   0  0  0  0  0  0  0  0  0  0  0  0
   -7.1246  -14.0314   -6.0469 O   0  5  0  1  0  0  0  0  0  0  0  0
   -4.1928   -7.5354   -5.9909 C   0  0  0  1  0  0  0  0  0  0  0  0
   -4.3012   -8.4035   -6.6071 H   0  0  0  1  0  0  0  0  0  0  0  0
   -3.5701   -7.7688   -5.1527 H   0  0  0  1  0  0  0  0  0  0  0  0
   -3.7450   -6.7479   -6.5603 H   0  0  0  1  0  0  0  0  0  0  0  0
   -2.1402   -4.2501   -2.7626 C   0  0  0  1  0  0  0  0  0  0  0  0
   -1.7938   -4.3581   -1.7560 H   0  0  0  1  0  0  0  0  0  0  0  0
   -1.4489   -3.6483   -3.3148 H   0  0  0  1  0  0  0  0  0  0  0  0
   -2.2172   -5.2150   -3.2185 H   0  0  0  1  0  0  0  0  0  0  0  0
   -4.9434    1.6089    0.2161 C   0  0  0  1  0  0  0  0  0  0  0  0
   -5.6235    2.0902   -0.4553 H   0  0  0  1  0  0  0  0  0  0  0  0
   -3.9623    2.0137    0.0804 H   0  0  0  1  0  0  0  0  0  0  0  0
   -5.2614    1.7735    1.2244 H   0  0  0  1  0  0  0  0  0  0  0  0
   -3.2193  -11.0475   -6.6732 O   0  0  0  1  0  0  0  0  0  0  0  0
   -4.7484  -14.5605   -6.6917 O   0  0  0  1  0  0  0  0  0  0  0  0
  1  2  1  0  0  0  0
  1 20  2  0  0  0  0
  1 40  1  0  0  0  0
  2  3  1  0  0  0  0
  2  4  1  0  0  0  0
  2 22  1  0  0  0  0
  5 32  1  0  0  0  0
  5 33  1  0  0  0  0
  6  7  1  0  0  0  0
  6 32  1  0  0  0  0
  7  8  1  0  0  0  0
  7  9  1  0  0  0  0
  7 11  1  0  0  0  0
 10 33  1  0  0  0  0
 11 12  1  0  0  0  0
 11 13  2  0  0  0  0
 13 14  1  0  0  0  0
 13 36  1  0  0  0  0
 14 15  1  0  0  0  0
 14 16  1  0  0  0  0
 14 17  1  0  0  0  0
 17 18  1  0  0  0  0
 17 19  1  0  0  0  0
 17 20  1  0  0  0  0
 20 21  1  0  0  0  0
 22 23  1  0  0  0  0
 22 24  1  0  0  0  0
 22 25  1  0  0  0  0
 25 26  1  0  0  0  0
 25 27  2  0  0  0  0
 27 28  1  0  0  0  0
 27 44  1  0  0  0  0
 28 29  1  0  0  0  0
 28 30  1  0  0  0  0
 28 31  1  0  0  0  0
 32 34  1  0  0  0  0
 32 48  2  0  0  0  0
 33 35  1  0  0  0  0
 33 49  2  0  0  0  0
 36 37  1  0  0  0  0
 36 38  1  0  0  0  0
 36 39  1  0  0  0  0
 40 41  1  0  0  0  0
 40 42  1  0  0  0  0
 40 43  1  0  0  0  0
 44 45  1  0  0  0  0
 44 46  1  0  0  0  0
 44 47  1  0  0  0  0
M  BCL ATM C_TrTrTrPi C_TeTeTeTe H_S H_S O_Tr2TrTrPi2 O_Tr2TrTrPi2 C_TeTeTeTe H_S H_S O_Te2Te2TeTe C_TrTrTrPi H_S C_TrTrTrPi C_TeTeTeTe H_S H_S C_TeTeTeTe H_S H_S C_TrTrTrPi H_S C_TeTeTeTe H_S H_S C_TrTrTrPi H_S C_TrTrTrPi C_TeTeTeTe H_S H_S H_S P_TeTeTeTePi P_TeTeTeTePi O_Te2Te2TeTe O_Te2Te2Te2Te C_TeTeTeTe H_S H_S H_S C_TeTeTeTe H_S H_S H_S C_TeTeTeTe H_S H_S H_S O_Tr2Tr2TrPi O_Tr2Tr2TrPi
M  BCL BND NonConjugatedSingleBond ConjugatedDoubleBond NonConjugatedSingleBond NonConjugatedSingleBond NonConjugatedSingleBond NonConjugatedSingleBond ConjugatedSingleBond ConjugatedSingleBond NonConjugatedSingleBond ConjugatedSingleBond NonConjugatedSingleBond NonConjugatedSingleBond NonConjugatedSingleBond ConjugatedSingleBond NonConjugatedSingleBond ConjugatedDoubleBond NonConjugatedSingleBond NonConjugatedSingleBond NonConjugatedSingleBond NonConjugatedSingleBond NonConjugatedSingleBond NonConjugatedSingleBond NonConjugatedSingleBond NonConjugatedSingleBond NonConjugatedSingleBond NonConjugatedSingleBond NonConjugatedSingleBond NonConjugatedSingleBond NonConjugatedSingleBond ConjugatedDoubleBond NonConjugatedSingleBond NonConjugatedSingleBond NonConjugatedSingleBond NonConjugatedSingleBond NonConjugatedSingleBond ConjugatedSingleBond ConjugatedDoubleBond ConjugatedSingleBond ConjugatedDoubleBond NonConjugatedSingleBond NonConjugatedSingleBond NonConjugatedSingleBond NonConjugatedSingleBond NonConjugatedSingleBond NonConjugatedSingleBond NonConjugatedSingleBond NonConjugatedSingleBond NonConjugatedSingleBond
M  BCL CHI  32   S  33   S
M  BCL DBI Z Z - - -
M  END
> <ConfClashScore>
0 

> <ConfOneFourInteractionScore>
-0.9858 

> <ConfScore>
-0.089703 

> <ConfScorePBest>
0.0143775 

> <ConfTolerance>
1.13518 

$$$$
L06.****
  PyMOL2.5          3D                             0

 49 48  0  0  0  0  0  0  0  0999 V2000
   -2.2901   -4.0574    0.7251 C   0  0  0  1  0  0  0  0  0  0  0  0
   -2.7733   -2.6656    1.0129 C   0  0  0  1  0  0  0  0  0  0  0  0
   -1.9262   -2.0722    1.2870 H   0  0  0  1  0  0  0  0  0  0  0  0
   -3.4551   -2.7165    1.8360 H   0  0  0  1  0  0  0  0  0  0  0  0
    4.5744   -1.0138   -0.1545 O   0  0  0  1  0  0  0  0  0  0  0  0
    2.8434   -2.1890    1.2161 O   0  0  0  1  0  0  0  0  0  0  0  0
    3.2728   -3.5593    1.1769 C   0  0  0  1  0  0  0  0  0  0  0  0
    3.7801   -3.8043    2.0866 H   0  0  0  1  0  0  0  0  0  0  0  0
    3.9339   -3.7063    0.3486 H   0  0  0  1  0  0  0  0  0  0  0  0
    5.5254   -3.2404   -1.0562 O   0  0  0  0  0  0  0  0  0  0  0  0
    2.0644   -4.4349    1.0206 C   0  0  0  1  0  0  0  0  0  0  0  0
    1.4135   -4.2215    0.2380 H   0  0  0  1  0  0  0  0  0  0  0  0
    1.7635   -5.4635    1.8082 C   0  0  0  1  0  0  0  0  0  0  0  0
    0.4070   -6.0975    1.7013 C   0  0  0  1  0  0  0  0  0  0  0  0
   -0.1492   -5.8120    2.5697 H   0  0  0  1  0  0  0  0  0  0  0  0
    0.5485   -7.1581    1.7005 H   0  0  0  1  0  0  0  0  0  0  0  0
   -0.4373   -5.7504    0.4860 C   0  0  0  1  0  0  0  0  0  0  0  0
   -1.2352   -6.4595    0.4118 H   0  0  0  1  0  0  0  0  0  0  0  0
    0.1791   -5.8139   -0.3863 H   0  0  0  1  0  0  0  0  0  0  0  0
   -1.0295   -4.3682    0.5546 C   0  0  0  1  0  0  0  0  0  0  0  0
   -0.3654   -3.5739    0.4560 H   0  0  0  1  0  0  0  0  0  0  0  0
   -3.4801   -1.9700   -0.1390 C   0  0  0  1  0  0  0  0  0  0  0  0
   -4.4271   -2.4503   -0.2704 H   0  0  0  1  0  0  0  0  0  0  0  0
   -2.8823   -2.1134   -1.0148 H   0  0  0  1  0  0  0  0  0  0  0  0
   -3.7386   -0.4929   -0.0071 C   0  0  0  1  0  0  0  0  0  0  0  0
   -2.9022    0.1169    0.0938 H   0  0  0  1  0  0  0  0  0  0  0  0
   -4.9207    0.1169   -0.0055 C   0  0  0  1  0  0  0  0  0  0  0  0
   -6.2436   -0.5407   -0.2715 C   0  0  0  1  0  0  0  0  0  0  0  0
   -6.6784   -0.1237   -1.1558 H   0  0  0  1  0  0  0  0  0  0  0  0
   -6.8973   -0.3752    0.5593 H   0  0  0  1  0  0  0  0  0  0  0  0
   -6.0981   -1.5920   -0.4076 H   0  0  0  1  0  0  0  0  0  0  0  0
    4.0028   -1.0906    1.3373 P   0  0  0  1  0  0  0  0  0  0  0  0
    5.8722   -1.6420   -0.9360 P   0  0  0  1  0  0  0  0  0  0  0  0
    3.3750    0.2144    1.6909 O   0  0  0  0  0  0  0  0  0  0  0  0
    5.7918   -1.1126   -2.4649 O   0  5  0  1  0  0  0  0  0  0  0  0
    2.6759   -6.0784    2.8318 C   0  0  0  1  0  0  0  0  0  0  0  0
    3.6607   -5.6748    2.7209 H   0  0  0  1  0  0  0  0  0  0  0  0
    2.7072   -7.1386    2.6903 H   0  0  0  1  0  0  0  0  0  0  0  0
    2.3096   -5.8597    3.8131 H   0  0  0  1  0  0  0  0  0  0  0  0
   -3.3739   -5.0953    0.6434 C   0  0  0  1  0  0  0  0  0  0  0  0
   -3.7488   -5.2982    1.6248 H   0  0  0  1  0  0  0  0  0  0  0  0
   -2.9755   -5.9941    0.2212 H   0  0  0  1  0  0  0  0  0  0  0  0
   -4.1690   -4.7325    0.0261 H   0  0  0  1  0  0  0  0  0  0  0  0
   -4.9882    1.5903    0.2821 C   0  0  0  1  0  0  0  0  0  0  0  0
   -5.6180    1.7602    1.1303 H   0  0  0  1  0  0  0  0  0  0  0  0
   -5.3896    2.1014   -0.5679 H   0  0  0  1  0  0  0  0  0  0  0  0
   -4.0051    1.9586    0.4888 H   0  0  0  1  0  0  0  0  0  0  0  0
    5.0639   -1.6698    2.1891 O   0  0  0  1  0  0  0  0  0  0  0  0
    7.2397   -1.5350   -0.3802 O   0  0  0  1  0  0  0  0  0  0  0  0
  1  2  1  0  0  0  0
  1 20  2  0  0  0  0
  1 40  1  0  0  0  0
  2  3  1  0  0  0  0
  2  4  1  0  0  0  0
  2 22  1  0  0  0  0
  5 32  1  0  0  0  0
  5 33  1  0  0  0  0
  6  7  1  0  0  0  0
  6 32  1  0  0  0  0
  7  8  1  0  0  0  0
  7  9  1  0  0  0  0
  7 11  1  0  0  0  0
 10 33  1  0  0  0  0
 11 12  1  0  0  0  0
 11 13  2  0  0  0  0
 13 14  1  0  0  0  0
 13 36  1  0  0  0  0
 14 15  1  0  0  0  0
 14 16  1  0  0  0  0
 14 17  1  0  0  0  0
 17 18  1  0  0  0  0
 17 19  1  0  0  0  0
 17 20  1  0  0  0  0
 20 21  1  0  0  0  0
 22 23  1  0  0  0  0
 22 24  1  0  0  0  0
 22 25  1  0  0  0  0
 25 26  1  0  0  0  0
 25 27  2  0  0  0  0
 27 28  1  0  0  0  0
 27 44  1  0  0  0  0
 28 29  1  0  0  0  0
 28 30  1  0  0  0  0
 28 31  1  0  0  0  0
 32 34  1  0  0  0  0
 32 48  2  0  0  0  0
 33 35  1  0  0  0  0
 33 49  2  0  0  0  0
 36 37  1  0  0  0  0
 36 38  1  0  0  0  0
 36 39  1  0  0  0  0
 40 41  1  0  0  0  0
 40 42  1  0  0  0  0
 40 43  1  0  0  0  0
 44 45  1  0  0  0  0
 44 46  1  0  0  0  0
 44 47  1  0  0  0  0
M  BCL ATM C_TrTrTrPi C_TeTeTeTe H_S H_S O_Tr2TrTrPi2 O_Tr2TrTrPi2 C_TeTeTeTe H_S H_S O_Te2Te2TeTe C_TrTrTrPi H_S C_TrTrTrPi C_TeTeTeTe H_S H_S C_TeTeTeTe H_S H_S C_TrTrTrPi H_S C_TeTeTeTe H_S H_S C_TrTrTrPi H_S C_TrTrTrPi C_TeTeTeTe H_S H_S H_S P_TeTeTeTePi P_TeTeTeTePi O_Te2Te2TeTe O_Te2Te2Te2Te C_TeTeTeTe H_S H_S H_S C_TeTeTeTe H_S H_S H_S C_TeTeTeTe H_S H_S H_S O_Tr2Tr2TrPi O_Tr2Tr2TrPi
M  BCL BND NonConjugatedSingleBond ConjugatedDoubleBond NonConjugatedSingleBond NonConjugatedSingleBond NonConjugatedSingleBond NonConjugatedSingleBond ConjugatedSingleBond ConjugatedSingleBond NonConjugatedSingleBond ConjugatedSingleBond NonConjugatedSingleBond NonConjugatedSingleBond NonConjugatedSingleBond ConjugatedSingleBond NonConjugatedSingleBond ConjugatedDoubleBond NonConjugatedSingleBond NonConjugatedSingleBond NonConjugatedSingleBond NonConjugatedSingleBond NonConjugatedSingleBond NonConjugatedSingleBond NonConjugatedSingleBond NonConjugatedSingleBond NonConjugatedSingleBond NonConjugatedSingleBond NonConjugatedSingleBond NonConjugatedSingleBond NonConjugatedSingleBond ConjugatedDoubleBond NonConjugatedSingleBond NonConjugatedSingleBond NonConjugatedSingleBond NonConjugatedSingleBond NonConjugatedSingleBond ConjugatedSingleBond ConjugatedDoubleBond ConjugatedSingleBond ConjugatedDoubleBond NonConjugatedSingleBond NonConjugatedSingleBond NonConjugatedSingleBond NonConjugatedSingleBond NonConjugatedSingleBond NonConjugatedSingleBond NonConjugatedSingleBond NonConjugatedSingleBond NonConjugatedSingleBond
M  BCL CHI  32   S  33   S
M  BCL DBI Z Z - - -
M  END
> <ConfClashScore>
0 

> <ConfOneFourInteractionScore>
-0.982867 

> <ConfScore>
-0.0861453 

> <ConfScorePBest>
0.0142745 

> <ConfTolerance>
1.32485 

$$$$
L06.****
  PyMOL2.5          3D                             0

 49 48  0  0  0  0  0  0  0  0999 V2000
   -0.9841    0.4970    2.7144 C   0  0  0  1  0  0  0  0  0  0  0  0
   -2.2553   -0.2071    2.3426 C   0  0  0  1  0  0  0  0  0  0  0  0
   -3.0540    0.1680    2.9478 H   0  0  0  1  0  0  0  0  0  0  0  0
   -2.1386   -1.2565    2.5156 H   0  0  0  1  0  0  0  0  0  0  0  0
    8.3286    3.1022    0.8975 O   0  0  0  1  0  0  0  0  0  0  0  0
    6.3843    1.9944   -0.1372 O   0  0  0  1  0  0  0  0  0  0  0  0
    5.3485    2.4944    0.7206 C   0  0  0  1  0  0  0  0  0  0  0  0
    4.9303    3.3903    0.3114 H   0  0  0  1  0  0  0  0  0  0  0  0
    5.7414    2.6963    1.6951 H   0  0  0  1  0  0  0  0  0  0  0  0
    9.3794    5.4722    1.3261 O   0  0  0  0  0  0  0  0  0  0  0  0
    4.3021    1.4217    0.7959 C   0  0  0  1  0  0  0  0  0  0  0  0
    3.9734    0.9886   -0.0906 H   0  0  0  1  0  0  0  0  0  0  0  0
    3.7752    0.9983    1.9386 C   0  0  0  1  0  0  0  0  0  0  0  0
    2.5171    0.1772    1.9621 C   0  0  0  1  0  0  0  0  0  0  0  0
    2.7843   -0.8291    2.2090 H   0  0  0  1  0  0  0  0  0  0  0  0
    2.0881    0.2026    0.9822 H   0  0  0  1  0  0  0  0  0  0  0  0
    1.4639    0.6340    2.9439 C   0  0  0  1  0  0  0  0  0  0  0  0
    1.2485    1.6625    2.7421 H   0  0  0  1  0  0  0  0  0  0  0  0
    1.8692    0.5408    3.9298 H   0  0  0  1  0  0  0  0  0  0  0  0
    0.1754   -0.1244    2.9011 C   0  0  0  1  0  0  0  0  0  0  0  0
    0.1873   -1.1576    3.0196 H   0  0  0  1  0  0  0  0  0  0  0  0
   -2.5899    0.0224    0.8778 C   0  0  0  1  0  0  0  0  0  0  0  0
   -1.8059   -0.3936    0.2802 H   0  0  0  1  0  0  0  0  0  0  0  0
   -2.6510    1.0764    0.7035 H   0  0  0  1  0  0  0  0  0  0  0  0
   -3.8828   -0.6029    0.4680 C   0  0  0  1  0  0  0  0  0  0  0  0
   -3.9646   -1.6390    0.5053 H   0  0  0  1  0  0  0  0  0  0  0  0
   -4.9329    0.0988    0.0586 C   0  0  0  1  0  0  0  0  0  0  0  0
   -6.2069   -0.5762   -0.3644 C   0  0  0  1  0  0  0  0  0  0  0  0
   -6.0788   -1.6378   -0.3249 H   0  0  0  1  0  0  0  0  0  0  0  0
   -6.4503   -0.2836   -1.3644 H   0  0  0  1  0  0  0  0  0  0  0  0
   -6.9989   -0.2880    0.2949 H   0  0  0  1  0  0  0  0  0  0  0  0
    7.6951    2.7824   -0.5438 P   0  0  0  1  0  0  0  0  0  0  0  0
    9.7055    3.8652    1.3575 P   0  0  0  1  0  0  0  0  0  0  0  0
    8.6340    1.9115   -1.2924 O   0  0  0  0  0  0  0  0  0  0  0  0
    9.8745    3.5548    2.9385 O   0  5  0  1  0  0  0  0  0  0  0  0
    4.3633    1.2864    3.2912 C   0  0  0  1  0  0  0  0  0  0  0  0
    4.6665    0.3693    3.7516 H   0  0  0  1  0  0  0  0  0  0  0  0
    3.6296    1.7672    3.9039 H   0  0  0  1  0  0  0  0  0  0  0  0
    5.2127    1.9279    3.1813 H   0  0  0  1  0  0  0  0  0  0  0  0
   -1.1109    1.9843    2.8653 C   0  0  0  1  0  0  0  0  0  0  0  0
   -1.9195    2.2083    3.5293 H   0  0  0  1  0  0  0  0  0  0  0  0
   -1.3026    2.4245    1.9091 H   0  0  0  1  0  0  0  0  0  0  0  0
   -0.2011    2.3808    3.2652 H   0  0  0  1  0  0  0  0  0  0  0  0
   -4.9590    1.5970   -0.0232 C   0  0  0  1  0  0  0  0  0  0  0  0
   -5.1593    2.0041    0.9459 H   0  0  0  1  0  0  0  0  0  0  0  0
   -5.7255    1.9035   -0.7039 H   0  0  0  1  0  0  0  0  0  0  0  0
   -4.0108    1.9516   -0.3697 H   0  0  0  1  0  0  0  0  0  0  0  0
    7.2578    4.0358   -1.1598 O   0  0  0  1  0  0  0  0  0  0  0  0
   10.9600    3.5684    0.6305 O   0  0  0  1  0  0  0  0  0  0  0  0
  1  2  1  0  0  0  0
  1 20  2  0  0  0  0
  1 40  1  0  0  0  0
  2  3  1  0  0  0  0
  2  4  1  0  0  0  0
  2 22  1  0  0  0  0
  5 32  1  0  0  0  0
  5 33  1  0  0  0  0
  6  7  1  0  0  0  0
  6 32  1  0  0  0  0
  7  8  1  0  0  0  0
  7  9  1  0  0  0  0
  7 11  1  0  0  0  0
 10 33  1  0  0  0  0
 11 12  1  0  0  0  0
 11 13  2  0  0  0  0
 13 14  1  0  0  0  0
 13 36  1  0  0  0  0
 14 15  1  0  0  0  0
 14 16  1  0  0  0  0
 14 17  1  0  0  0  0
 17 18  1  0  0  0  0
 17 19  1  0  0  0  0
 17 20  1  0  0  0  0
 20 21  1  0  0  0  0
 22 23  1  0  0  0  0
 22 24  1  0  0  0  0
 22 25  1  0  0  0  0
 25 26  1  0  0  0  0
 25 27  2  0  0  0  0
 27 28  1  0  0  0  0
 27 44  1  0  0  0  0
 28 29  1  0  0  0  0
 28 30  1  0  0  0  0
 28 31  1  0  0  0  0
 32 34  1  0  0  0  0
 32 48  2  0  0  0  0
 33 35  1  0  0  0  0
 33 49  2  0  0  0  0
 36 37  1  0  0  0  0
 36 38  1  0  0  0  0
 36 39  1  0  0  0  0
 40 41  1  0  0  0  0
 40 42  1  0  0  0  0
 40 43  1  0  0  0  0
 44 45  1  0  0  0  0
 44 46  1  0  0  0  0
 44 47  1  0  0  0  0
M  BCL ATM C_TrTrTrPi C_TeTeTeTe H_S H_S O_Tr2TrTrPi2 O_Tr2TrTrPi2 C_TeTeTeTe H_S H_S O_Te2Te2TeTe C_TrTrTrPi H_S C_TrTrTrPi C_TeTeTeTe H_S H_S C_TeTeTeTe H_S H_S C_TrTrTrPi H_S C_TeTeTeTe H_S H_S C_TrTrTrPi H_S C_TrTrTrPi C_TeTeTeTe H_S H_S H_S P_TeTeTeTePi P_TeTeTeTePi O_Te2Te2TeTe O_Te2Te2Te2Te C_TeTeTeTe H_S H_S H_S C_TeTeTeTe H_S H_S H_S C_TeTeTeTe H_S H_S H_S O_Tr2Tr2TrPi O_Tr2Tr2TrPi
M  BCL BND NonConjugatedSingleBond ConjugatedDoubleBond NonConjugatedSingleBond NonConjugatedSingleBond NonConjugatedSingleBond NonConjugatedSingleBond ConjugatedSingleBond ConjugatedSingleBond NonConjugatedSingleBond ConjugatedSingleBond NonConjugatedSingleBond NonConjugatedSingleBond NonConjugatedSingleBond ConjugatedSingleBond NonConjugatedSingleBond ConjugatedDoubleBond NonConjugatedSingleBond NonConjugatedSingleBond NonConjugatedSingleBond NonConjugatedSingleBond NonConjugatedSingleBond NonConjugatedSingleBond NonConjugatedSingleBond NonConjugatedSingleBond NonConjugatedSingleBond NonConjugatedSingleBond NonConjugatedSingleBond NonConjugatedSingleBond NonConjugatedSingleBond ConjugatedDoubleBond NonConjugatedSingleBond NonConjugatedSingleBond NonConjugatedSingleBond NonConjugatedSingleBond NonConjugatedSingleBond ConjugatedSingleBond ConjugatedDoubleBond ConjugatedSingleBond ConjugatedDoubleBond NonConjugatedSingleBond NonConjugatedSingleBond NonConjugatedSingleBond NonConjugatedSingleBond NonConjugatedSingleBond NonConjugatedSingleBond NonConjugatedSingleBond NonConjugatedSingleBond NonConjugatedSingleBond
M  BCL CHI  32   S  33   S
M  BCL DBI Z Z - - -
M  END
> <ConfClashScore>
0 

> <ConfOneFourInteractionScore>
-0.968266 

> <ConfScore>
-0.0841616 

> <ConfScorePBest>
0.0141715 

> <ConfTolerance>
1.14376 

$$$$
L06.****
  PyMOL2.5          3D                             0

 49 48  0  0  0  0  0  0  0  0999 V2000
   -2.7765   -3.7231    2.1474 C   0  0  0  1  0  0  0  0  0  0  0  0
   -2.9740   -2.2639    1.8557 C   0  0  0  1  0  0  0  0  0  0  0  0
   -2.0217   -1.7813    1.9265 H   0  0  0  1  0  0  0  0  0  0  0  0
   -3.6328   -1.8650    2.5985 H   0  0  0  1  0  0  0  0  0  0  0  0
   -0.8590  -11.7097    5.9723 O   0  0  0  1  0  0  0  0  0  0  0  0
    0.2546   -9.8325    4.8921 O   0  0  0  1  0  0  0  0  0  0  0  0
   -0.6157   -9.7747    3.7447 C   0  0  0  1  0  0  0  0  0  0  0  0
   -1.5940  -10.1116    4.0172 H   0  0  0  1  0  0  0  0  0  0  0  0
   -0.2274  -10.3975    2.9661 H   0  0  0  1  0  0  0  0  0  0  0  0
   -1.0320  -12.5653    8.3864 O   0  0  0  0  0  0  0  0  0  0  0  0
   -0.6850   -8.3537    3.2681 C   0  0  0  1  0  0  0  0  0  0  0  0
   -0.9367   -7.6241    3.9651 H   0  0  0  1  0  0  0  0  0  0  0  0
   -0.4487   -7.9580    2.0218 C   0  0  0  1  0  0  0  0  0  0  0  0
   -0.7399   -6.5743    1.5180 C   0  0  0  1  0  0  0  0  0  0  0  0
   -1.4548   -6.6440    0.7249 H   0  0  0  1  0  0  0  0  0  0  0  0
    0.1684   -6.1500    1.1439 H   0  0  0  1  0  0  0  0  0  0  0  0
   -1.2971   -5.6544    2.5921 C   0  0  0  1  0  0  0  0  0  0  0  0
   -0.5831   -5.5864    3.3862 H   0  0  0  1  0  0  0  0  0  0  0  0
   -2.2064   -6.0777    2.9648 H   0  0  0  1  0  0  0  0  0  0  0  0
   -1.5841   -4.2769    2.0915 C   0  0  0  1  0  0  0  0  0  0  0  0
   -0.8031   -3.7283    1.6783 H   0  0  0  1  0  0  0  0  0  0  0  0
   -3.5603   -1.9461    0.4897 C   0  0  0  1  0  0  0  0  0  0  0  0
   -4.5055   -2.4417    0.4128 H   0  0  0  1  0  0  0  0  0  0  0  0
   -2.8936   -2.3313   -0.2533 H   0  0  0  1  0  0  0  0  0  0  0  0
   -3.7779   -0.4840    0.2053 C   0  0  0  1  0  0  0  0  0  0  0  0
   -2.9254    0.1087    0.1463 H   0  0  0  1  0  0  0  0  0  0  0  0
   -4.9513    0.1368    0.0199 C   0  0  0  1  0  0  0  0  0  0  0  0
   -6.2436   -0.5874   -0.0021 C   0  0  0  1  0  0  0  0  0  0  0  0
   -7.0173    0.0512    0.3699 H   0  0  0  1  0  0  0  0  0  0  0  0
   -6.1741   -1.4594    0.6141 H   0  0  0  1  0  0  0  0  0  0  0  0
   -6.4727   -0.8771   -1.0064 H   0  0  0  1  0  0  0  0  0  0  0  0
    0.6012  -11.2460    5.6005 P   0  0  0  1  0  0  0  0  0  0  0  0
   -1.5472  -11.3476    7.4161 P   0  0  0  1  0  0  0  0  0  0  0  0
    1.0542  -12.2343    4.5959 O   0  0  0  0  0  0  0  0  0  0  0  0
   -0.8083   -9.9728    7.8502 O   0  5  0  1  0  0  0  0  0  0  0  0
    0.1415   -8.8884    0.9999 C   0  0  0  1  0  0  0  0  0  0  0  0
    1.1830   -8.6740    0.8809 H   0  0  0  1  0  0  0  0  0  0  0  0
   -0.3594   -8.7538    0.0639 H   0  0  0  1  0  0  0  0  0  0  0  0
    0.0210   -9.9000    1.3271 H   0  0  0  1  0  0  0  0  0  0  0  0
   -4.0325   -4.4697    2.4990 C   0  0  0  1  0  0  0  0  0  0  0  0
   -3.7857   -5.4733    2.7762 H   0  0  0  1  0  0  0  0  0  0  0  0
   -4.6871   -4.4844    1.6528 H   0  0  0  1  0  0  0  0  0  0  0  0
   -4.5188   -3.9830    3.3185 H   0  0  0  1  0  0  0  0  0  0  0  0
   -4.9581    1.6365   -0.1748 C   0  0  0  1  0  0  0  0  0  0  0  0
   -3.9604    2.0127   -0.0856 H   0  0  0  1  0  0  0  0  0  0  0  0
   -5.5779    2.0898    0.5704 H   0  0  0  1  0  0  0  0  0  0  0  0
   -5.3408    1.8680   -1.1468 H   0  0  0  1  0  0  0  0  0  0  0  0
    1.4587  -10.9812    6.7773 O   0  0  0  1  0  0  0  0  0  0  0  0
   -3.0115  -11.1655    7.3018 O   0  0  0  1  0  0  0  0  0  0  0  0
  1  2  1  0  0  0  0
  1 20  2  0  0  0  0
  1 40  1  0  0  0  0
  2  3  1  0  0  0  0
  2  4  1  0  0  0  0
  2 22  1  0  0  0  0
  5 32  1  0  0  0  0
  5 33  1  0  0  0  0
  6  7  1  0  0  0  0
  6 32  1  0  0  0  0
  7  8  1  0  0  0  0
  7  9  1  0  0  0  0
  7 11  1  0  0  0  0
 10 33  1  0  0  0  0
 11 12  1  0  0  0  0
 11 13  2  0  0  0  0
 13 14  1  0  0  0  0
 13 36  1  0  0  0  0
 14 15  1  0  0  0  0
 14 16  1  0  0  0  0
 14 17  1  0  0  0  0
 17 18  1  0  0  0  0
 17 19  1  0  0  0  0
 17 20  1  0  0  0  0
 20 21  1  0  0  0  0
 22 23  1  0  0  0  0
 22 24  1  0  0  0  0
 22 25  1  0  0  0  0
 25 26  1  0  0  0  0
 25 27  2  0  0  0  0
 27 28  1  0  0  0  0
 27 44  1  0  0  0  0
 28 29  1  0  0  0  0
 28 30  1  0  0  0  0
 28 31  1  0  0  0  0
 32 34  1  0  0  0  0
 32 48  2  0  0  0  0
 33 35  1  0  0  0  0
 33 49  2  0  0  0  0
 36 37  1  0  0  0  0
 36 38  1  0  0  0  0
 36 39  1  0  0  0  0
 40 41  1  0  0  0  0
 40 42  1  0  0  0  0
 40 43  1  0  0  0  0
 44 45  1  0  0  0  0
 44 46  1  0  0  0  0
 44 47  1  0  0  0  0
M  BCL ATM C_TrTrTrPi C_TeTeTeTe H_S H_S O_Tr2TrTrPi2 O_Tr2TrTrPi2 C_TeTeTeTe H_S H_S O_Te2Te2TeTe C_TrTrTrPi H_S C_TrTrTrPi C_TeTeTeTe H_S H_S C_TeTeTeTe H_S H_S C_TrTrTrPi H_S C_TeTeTeTe H_S H_S C_TrTrTrPi H_S C_TrTrTrPi C_TeTeTeTe H_S H_S H_S P_TeTeTeTePi P_TeTeTeTePi O_Te2Te2TeTe O_Te2Te2Te2Te C_TeTeTeTe H_S H_S H_S C_TeTeTeTe H_S H_S H_S C_TeTeTeTe H_S H_S H_S O_Tr2Tr2TrPi O_Tr2Tr2TrPi
M  BCL BND NonConjugatedSingleBond ConjugatedDoubleBond NonConjugatedSingleBond NonConjugatedSingleBond NonConjugatedSingleBond NonConjugatedSingleBond ConjugatedSingleBond ConjugatedSingleBond NonConjugatedSingleBond ConjugatedSingleBond NonConjugatedSingleBond NonConjugatedSingleBond NonConjugatedSingleBond ConjugatedSingleBond NonConjugatedSingleBond ConjugatedDoubleBond NonConjugatedSingleBond NonConjugatedSingleBond NonConjugatedSingleBond NonConjugatedSingleBond NonConjugatedSingleBond NonConjugatedSingleBond NonConjugatedSingleBond NonConjugatedSingleBond NonConjugatedSingleBond NonConjugatedSingleBond NonConjugatedSingleBond NonConjugatedSingleBond NonConjugatedSingleBond ConjugatedDoubleBond NonConjugatedSingleBond NonConjugatedSingleBond NonConjugatedSingleBond NonConjugatedSingleBond NonConjugatedSingleBond ConjugatedSingleBond ConjugatedDoubleBond ConjugatedSingleBond ConjugatedDoubleBond NonConjugatedSingleBond NonConjugatedSingleBond NonConjugatedSingleBond NonConjugatedSingleBond NonConjugatedSingleBond NonConjugatedSingleBond NonConjugatedSingleBond NonConjugatedSingleBond NonConjugatedSingleBond
M  BCL CHI  32   S  33   S
M  BCL DBI Z Z - - -
M  END
> <ConfClashScore>
0 

> <ConfOneFourInteractionScore>
-0.979561 

> <ConfScore>
-0.0810351 

> <ConfScorePBest>
0.0140685 

> <ConfTolerance>
1.01793 

$$$$
L06.****
  PyMOL2.5          3D                             0

 49 48  0  0  0  0  0  0  0  0999 V2000
   -2.4471   -3.7347   -1.6725 C   0  0  0  1  0  0  0  0  0  0  0  0
   -2.6162   -2.2703   -1.3895 C   0  0  0  1  0  0  0  0  0  0  0  0
   -2.9624   -1.7890   -2.2803 H   0  0  0  1  0  0  0  0  0  0  0  0
   -1.6658   -1.8652   -1.1110 H   0  0  0  1  0  0  0  0  0  0  0  0
   -5.5409  -12.1548   -4.0699 O   0  0  0  1  0  0  0  0  0  0  0  0
   -3.9951  -10.9123   -2.4958 O   0  0  0  1  0  0  0  0  0  0  0  0
   -2.7033  -10.4032   -2.0989 C   0  0  0  1  0  0  0  0  0  0  0  0
   -2.0171  -10.5311   -2.9099 H   0  0  0  1  0  0  0  0  0  0  0  0
   -2.3596  -10.9561   -1.2497 H   0  0  0  1  0  0  0  0  0  0  0  0
   -6.1096   -9.6442   -5.0367 O   0  0  0  0  0  0  0  0  0  0  0  0
   -2.7628   -8.9480   -1.7386 C   0  0  0  1  0  0  0  0  0  0  0  0
   -3.0380   -8.2782   -2.4851 H   0  0  0  1  0  0  0  0  0  0  0  0
   -2.4899   -8.4511   -0.5368 C   0  0  0  1  0  0  0  0  0  0  0  0
   -2.5580   -6.9886   -0.2052 C   0  0  0  1  0  0  0  0  0  0  0  0
   -1.5889   -6.6664    0.1143 H   0  0  0  1  0  0  0  0  0  0  0  0
   -3.2601   -6.8522    0.5906 H   0  0  0  1  0  0  0  0  0  0  0  0
   -2.9892   -6.1303   -1.3832 C   0  0  0  1  0  0  0  0  0  0  0  0
   -3.9414   -6.4770   -1.7267 H   0  0  0  1  0  0  0  0  0  0  0  0
   -2.2667   -6.2376   -2.1652 H   0  0  0  1  0  0  0  0  0  0  0  0
   -3.1063   -4.6815   -1.0397 C   0  0  0  1  0  0  0  0  0  0  0  0
   -3.7402   -4.4075   -0.2620 H   0  0  0  1  0  0  0  0  0  0  0  0
   -3.6078   -1.9904   -0.2720 C   0  0  0  1  0  0  0  0  0  0  0  0
   -3.2764   -2.4949    0.6116 H   0  0  0  1  0  0  0  0  0  0  0  0
   -4.5648   -2.3705   -0.5627 H   0  0  0  1  0  0  0  0  0  0  0  0
   -3.7486   -0.5241    0.0379 C   0  0  0  1  0  0  0  0  0  0  0  0
   -2.8862   -0.0007    0.2909 H   0  0  0  1  0  0  0  0  0  0  0  0
   -4.8916    0.1509    0.0123 C   0  0  0  1  0  0  0  0  0  0  0  0
   -6.2203   -0.5577   -0.1256 C   0  0  0  1  0  0  0  0  0  0  0  0
   -6.0536   -1.6055   -0.2647 H   0  0  0  1  0  0  0  0  0  0  0  0
   -6.7474   -0.1655   -0.9702 H   0  0  0  1  0  0  0  0  0  0  0  0
   -6.8001   -0.4036    0.7603 H   0  0  0  1  0  0  0  0  0  0  0  0
   -4.1948  -12.3211   -3.1869 P   0  0  0  1  0  0  0  0  0  0  0  0
   -6.6669  -10.9781   -4.2624 P   0  0  0  1  0  0  0  0  0  0  0  0
   -3.0248  -12.4468   -4.1115 O   0  0  0  0  0  0  0  0  0  0  0  0
   -7.7040  -11.5775   -5.3531 O   0  5  0  1  0  0  0  0  0  0  0  0
   -2.0833   -9.3372    0.6068 C   0  0  0  1  0  0  0  0  0  0  0  0
   -1.2346   -8.9141    1.1022 H   0  0  0  1  0  0  0  0  0  0  0  0
   -1.8309  -10.3077    0.2334 H   0  0  0  1  0  0  0  0  0  0  0  0
   -2.8950   -9.4209    1.2989 H   0  0  0  1  0  0  0  0  0  0  0  0
   -1.4517   -4.0561   -2.7516 C   0  0  0  1  0  0  0  0  0  0  0  0
   -1.1255   -5.0697   -2.6462 H   0  0  0  1  0  0  0  0  0  0  0  0
   -0.6104   -3.4003   -2.6672 H   0  0  0  1  0  0  0  0  0  0  0  0
   -1.9105   -3.9271   -3.7096 H   0  0  0  1  0  0  0  0  0  0  0  0
   -4.9845    1.6452    0.1145 C   0  0  0  1  0  0  0  0  0  0  0  0
   -4.0107    2.0524    0.2900 H   0  0  0  1  0  0  0  0  0  0  0  0
   -5.6318    1.9074    0.9251 H   0  0  0  1  0  0  0  0  0  0  0  0
   -5.3772    2.0412   -0.7986 H   0  0  0  1  0  0  0  0  0  0  0  0
   -4.5047  -13.3925   -2.2242 O   0  0  0  1  0  0  0  0  0  0  0  0
   -7.4421  -10.7113   -3.0302 O   0  0  0  1  0  0  0  0  0  0  0  0
  1  2  1  0  0  0  0
  1 20  2  0  0  0  0
  1 40  1  0  0  0  0
  2  3  1  0  0  0  0
  2  4  1  0  0  0  0
  2 22  1  0  0  0  0
  5 32  1  0  0  0  0
  5 33  1  0  0  0  0
  6  7  1  0  0  0  0
  6 32  1  0  0  0  0
  7  8  1  0  0  0  0
  7  9  1  0  0  0  0
  7 11  1  0  0  0  0
 10 33  1  0  0  0  0
 11 12  1  0  0  0  0
 11 13  2  0  0  0  0
 13 14  1  0  0  0  0
 13 36  1  0  0  0  0
 14 15  1  0  0  0  0
 14 16  1  0  0  0  0
 14 17  1  0  0  0  0
 17 18  1  0  0  0  0
 17 19  1  0  0  0  0
 17 20  1  0  0  0  0
 20 21  1  0  0  0  0
 22 23  1  0  0  0  0
 22 24  1  0  0  0  0
 22 25  1  0  0  0  0
 25 26  1  0  0  0  0
 25 27  2  0  0  0  0
 27 28  1  0  0  0  0
 27 44  1  0  0  0  0
 28 29  1  0  0  0  0
 28 30  1  0  0  0  0
 28 31  1  0  0  0  0
 32 34  1  0  0  0  0
 32 48  2  0  0  0  0
 33 35  1  0  0  0  0
 33 49  2  0  0  0  0
 36 37  1  0  0  0  0
 36 38  1  0  0  0  0
 36 39  1  0  0  0  0
 40 41  1  0  0  0  0
 40 42  1  0  0  0  0
 40 43  1  0  0  0  0
 44 45  1  0  0  0  0
 44 46  1  0  0  0  0
 44 47  1  0  0  0  0
M  BCL ATM C_TrTrTrPi C_TeTeTeTe H_S H_S O_Tr2TrTrPi2 O_Tr2TrTrPi2 C_TeTeTeTe H_S H_S O_Te2Te2TeTe C_TrTrTrPi H_S C_TrTrTrPi C_TeTeTeTe H_S H_S C_TeTeTeTe H_S H_S C_TrTrTrPi H_S C_TeTeTeTe H_S H_S C_TrTrTrPi H_S C_TrTrTrPi C_TeTeTeTe H_S H_S H_S P_TeTeTeTePi P_TeTeTeTePi O_Te2Te2TeTe O_Te2Te2Te2Te C_TeTeTeTe H_S H_S H_S C_TeTeTeTe H_S H_S H_S C_TeTeTeTe H_S H_S H_S O_Tr2Tr2TrPi O_Tr2Tr2TrPi
M  BCL BND NonConjugatedSingleBond ConjugatedDoubleBond NonConjugatedSingleBond NonConjugatedSingleBond NonConjugatedSingleBond NonConjugatedSingleBond ConjugatedSingleBond ConjugatedSingleBond NonConjugatedSingleBond ConjugatedSingleBond NonConjugatedSingleBond NonConjugatedSingleBond NonConjugatedSingleBond ConjugatedSingleBond NonConjugatedSingleBond ConjugatedDoubleBond NonConjugatedSingleBond NonConjugatedSingleBond NonConjugatedSingleBond NonConjugatedSingleBond NonConjugatedSingleBond NonConjugatedSingleBond NonConjugatedSingleBond NonConjugatedSingleBond NonConjugatedSingleBond NonConjugatedSingleBond NonConjugatedSingleBond NonConjugatedSingleBond NonConjugatedSingleBond ConjugatedDoubleBond NonConjugatedSingleBond NonConjugatedSingleBond NonConjugatedSingleBond NonConjugatedSingleBond NonConjugatedSingleBond ConjugatedSingleBond ConjugatedDoubleBond ConjugatedSingleBond ConjugatedDoubleBond NonConjugatedSingleBond NonConjugatedSingleBond NonConjugatedSingleBond NonConjugatedSingleBond NonConjugatedSingleBond NonConjugatedSingleBond NonConjugatedSingleBond NonConjugatedSingleBond NonConjugatedSingleBond
M  BCL CHI  32   S  33   S
M  BCL DBI Z Z - - -
M  END
> <ConfClashScore>
0 

> <ConfOneFourInteractionScore>
-0.992443 

> <ConfScore>
-0.0807243 

> <ConfScorePBest>
0.0139655 

> <ConfTolerance>
1.10725 

$$$$
L06.****
  PyMOL2.5          3D                             0

 49 48  0  0  0  0  0  0  0  0999 V2000
   -3.3094   -3.7088   -2.6629 C   0  0  0  1  0  0  0  0  0  0  0  0
   -3.2940   -2.2576   -2.2793 C   0  0  0  1  0  0  0  0  0  0  0  0
   -3.9103   -1.7260   -2.9740 H   0  0  0  1  0  0  0  0  0  0  0  0
   -2.2860   -1.9068   -2.3550 H   0  0  0  1  0  0  0  0  0  0  0  0
   -4.7387  -13.2632    0.1390 O   0  0  0  1  0  0  0  0  0  0  0  0
   -3.9120  -11.3712   -1.0597 O   0  0  0  1  0  0  0  0  0  0  0  0
   -5.1195  -10.7036   -1.4593 C   0  0  0  1  0  0  0  0  0  0  0  0
   -5.9390  -11.0569   -0.8689 H   0  0  0  1  0  0  0  0  0  0  0  0
   -5.3140  -10.8987   -2.4933 H   0  0  0  1  0  0  0  0  0  0  0  0
   -7.2346  -12.5061   -0.2601 O   0  0  0  0  0  0  0  0  0  0  0  0
   -4.9432   -9.2295   -1.2479 C   0  0  0  1  0  0  0  0  0  0  0  0
   -4.7880   -8.8982   -0.2744 H   0  0  0  1  0  0  0  0  0  0  0  0
   -4.9703   -8.3159   -2.2108 C   0  0  0  1  0  0  0  0  0  0  0  0
   -4.9604   -6.8471   -1.8948 C   0  0  0  1  0  0  0  0  0  0  0  0
   -5.1872   -6.7205   -0.8568 H   0  0  0  1  0  0  0  0  0  0  0  0
   -5.7118   -6.3664   -2.4858 H   0  0  0  1  0  0  0  0  0  0  0  0
   -3.6000   -6.1742   -2.1865 C   0  0  0  1  0  0  0  0  0  0  0  0
   -3.3875   -6.2742   -3.2304 H   0  0  0  1  0  0  0  0  0  0  0  0
   -2.8438   -6.6745   -1.6185 H   0  0  0  1  0  0  0  0  0  0  0  0
   -3.5768   -4.6806   -1.8235 C   0  0  0  1  0  0  0  0  0  0  0  0
   -3.7890   -4.4214   -0.8389 H   0  0  0  1  0  0  0  0  0  0  0  0
   -3.7939   -1.9488   -0.8775 C   0  0  0  1  0  0  0  0  0  0  0  0
   -3.1341   -2.4085   -0.1717 H   0  0  0  1  0  0  0  0  0  0  0  0
   -4.7760   -2.3592   -0.7681 H   0  0  0  1  0  0  0  0  0  0  0  0
   -3.8557   -0.4735   -0.5851 C   0  0  0  1  0  0  0  0  0  0  0  0
   -3.0117    0.0953   -0.7988 H   0  0  0  1  0  0  0  0  0  0  0  0
   -4.9075    0.1559   -0.0747 C   0  0  0  1  0  0  0  0  0  0  0  0
   -6.1831   -0.5750    0.2285 C   0  0  0  1  0  0  0  0  0  0  0  0
   -6.4697   -1.1605   -0.6200 H   0  0  0  1  0  0  0  0  0  0  0  0
   -6.9548    0.1320    0.4507 H   0  0  0  1  0  0  0  0  0  0  0  0
   -6.0340   -1.2176    1.0710 H   0  0  0  1  0  0  0  0  0  0  0  0
   -3.7957  -12.9776   -1.1244 P   0  0  0  1  0  0  0  0  0  0  0  0
   -6.0817  -12.6967    0.8906 P   0  0  0  1  0  0  0  0  0  0  0  0
   -4.4119  -13.4675   -2.3793 O   0  0  0  0  0  0  0  0  0  0  0  0
   -6.4089  -13.8731    1.9553 O   0  5  0  1  0  0  0  0  0  0  0  0
   -5.0125   -8.6434   -3.6769 C   0  0  0  1  0  0  0  0  0  0  0  0
   -4.1856   -8.1774   -4.1710 H   0  0  0  1  0  0  0  0  0  0  0  0
   -5.9281   -8.2820   -4.0966 H   0  0  0  1  0  0  0  0  0  0  0  0
   -4.9539   -9.7038   -3.8071 H   0  0  0  1  0  0  0  0  0  0  0  0
   -2.9906   -3.9815   -4.1059 C   0  0  0  1  0  0  0  0  0  0  0  0
   -1.9376   -3.8770   -4.2650 H   0  0  0  1  0  0  0  0  0  0  0  0
   -3.5155   -3.2842   -4.7249 H   0  0  0  1  0  0  0  0  0  0  0  0
   -3.2916   -4.9776   -4.3553 H   0  0  0  1  0  0  0  0  0  0  0  0
   -4.9329    1.6241    0.2446 C   0  0  0  1  0  0  0  0  0  0  0  0
   -5.7561    2.0852   -0.2599 H   0  0  0  1  0  0  0  0  0  0  0  0
   -4.0183    2.0752   -0.0794 H   0  0  0  1  0  0  0  0  0  0  0  0
   -5.0423    1.7574    1.3007 H   0  0  0  1  0  0  0  0  0  0  0  0
   -2.4115  -13.3801   -0.7994 O   0  0  0  1  0  0  0  0  0  0  0  0
   -5.7156  -11.4378    1.5773 O   0  0  0  1  0  0  0  0  0  0  0  0
  1  2  1  0  0  0  0
  1 20  2  0  0  0  0
  1 40  1  0  0  0  0
  2  3  1  0  0  0  0
  2  4  1  0  0  0  0
  2 22  1  0  0  0  0
  5 32  1  0  0  0  0
  5 33  1  0  0  0  0
  6  7  1  0  0  0  0
  6 32  1  0  0  0  0
  7  8  1  0  0  0  0
  7  9  1  0  0  0  0
  7 11  1  0  0  0  0
 10 33  1  0  0  0  0
 11 12  1  0  0  0  0
 11 13  2  0  0  0  0
 13 14  1  0  0  0  0
 13 36  1  0  0  0  0
 14 15  1  0  0  0  0
 14 16  1  0  0  0  0
 14 17  1  0  0  0  0
 17 18  1  0  0  0  0
 17 19  1  0  0  0  0
 17 20  1  0  0  0  0
 20 21  1  0  0  0  0
 22 23  1  0  0  0  0
 22 24  1  0  0  0  0
 22 25  1  0  0  0  0
 25 26  1  0  0  0  0
 25 27  2  0  0  0  0
 27 28  1  0  0  0  0
 27 44  1  0  0  0  0
 28 29  1  0  0  0  0
 28 30  1  0  0  0  0
 28 31  1  0  0  0  0
 32 34  1  0  0  0  0
 32 48  2  0  0  0  0
 33 35  1  0  0  0  0
 33 49  2  0  0  0  0
 36 37  1  0  0  0  0
 36 38  1  0  0  0  0
 36 39  1  0  0  0  0
 40 41  1  0  0  0  0
 40 42  1  0  0  0  0
 40 43  1  0  0  0  0
 44 45  1  0  0  0  0
 44 46  1  0  0  0  0
 44 47  1  0  0  0  0
M  BCL ATM C_TrTrTrPi C_TeTeTeTe H_S H_S O_Tr2TrTrPi2 O_Tr2TrTrPi2 C_TeTeTeTe H_S H_S O_Te2Te2TeTe C_TrTrTrPi H_S C_TrTrTrPi C_TeTeTeTe H_S H_S C_TeTeTeTe H_S H_S C_TrTrTrPi H_S C_TeTeTeTe H_S H_S C_TrTrTrPi H_S C_TrTrTrPi C_TeTeTeTe H_S H_S H_S P_TeTeTeTePi P_TeTeTeTePi O_Te2Te2TeTe O_Te2Te2Te2Te C_TeTeTeTe H_S H_S H_S C_TeTeTeTe H_S H_S H_S C_TeTeTeTe H_S H_S H_S O_Tr2Tr2TrPi O_Tr2Tr2TrPi
M  BCL BND NonConjugatedSingleBond ConjugatedDoubleBond NonConjugatedSingleBond NonConjugatedSingleBond NonConjugatedSingleBond NonConjugatedSingleBond ConjugatedSingleBond ConjugatedSingleBond NonConjugatedSingleBond ConjugatedSingleBond NonConjugatedSingleBond NonConjugatedSingleBond NonConjugatedSingleBond ConjugatedSingleBond NonConjugatedSingleBond ConjugatedDoubleBond NonConjugatedSingleBond NonConjugatedSingleBond NonConjugatedSingleBond NonConjugatedSingleBond NonConjugatedSingleBond NonConjugatedSingleBond NonConjugatedSingleBond NonConjugatedSingleBond NonConjugatedSingleBond NonConjugatedSingleBond NonConjugatedSingleBond NonConjugatedSingleBond NonConjugatedSingleBond ConjugatedDoubleBond NonConjugatedSingleBond NonConjugatedSingleBond NonConjugatedSingleBond NonConjugatedSingleBond NonConjugatedSingleBond ConjugatedSingleBond ConjugatedDoubleBond ConjugatedSingleBond ConjugatedDoubleBond NonConjugatedSingleBond NonConjugatedSingleBond NonConjugatedSingleBond NonConjugatedSingleBond NonConjugatedSingleBond NonConjugatedSingleBond NonConjugatedSingleBond NonConjugatedSingleBond NonConjugatedSingleBond
M  BCL CHI  32   S  33   S
M  BCL DBI Z Z - - -
M  END
> <ConfClashScore>
0 

> <ConfOneFourInteractionScore>
-0.985843 

> <ConfScore>
-0.0787919 

> <ConfScorePBest>
0.0138625 

> <ConfTolerance>
1.10234 

$$$$
L06.****
  PyMOL2.5          3D                             0

 49 48  0  0  0  0  0  0  0  0999 V2000
   -0.6764    0.1768    2.4740 C   0  0  0  1  0  0  0  0  0  0  0  0
   -2.0918   -0.2653    2.2225 C   0  0  0  1  0  0  0  0  0  0  0  0
   -2.7256    0.1883    2.9555 H   0  0  0  1  0  0  0  0  0  0  0  0
   -2.1384   -1.3299    2.3196 H   0  0  0  1  0  0  0  0  0  0  0  0
    7.1020    0.1379    1.8238 O   0  0  0  1  0  0  0  0  0  0  0  0
    5.6420    1.9753    1.9296 O   0  0  0  1  0  0  0  0  0  0  0  0
    5.0211    3.2582    2.1065 C   0  0  0  1  0  0  0  0  0  0  0  0
    5.2101    3.8713    1.2501 H   0  0  0  1  0  0  0  0  0  0  0  0
    5.4170    3.7329    2.9799 H   0  0  0  1  0  0  0  0  0  0  0  0
    6.2776   -2.3623    2.0296 O   0  0  0  0  0  0  0  0  0  0  0  0
    3.5431    3.0562    2.2671 C   0  0  0  1  0  0  0  0  0  0  0  0
    3.2372    2.5124    3.0992 H   0  0  0  1  0  0  0  0  0  0  0  0
    2.5785    3.4984    1.4581 C   0  0  0  1  0  0  0  0  0  0  0  0
    1.1677    3.0022    1.5871 C   0  0  0  1  0  0  0  0  0  0  0  0
    0.8951    2.5103    0.6768 H   0  0  0  1  0  0  0  0  0  0  0  0
    0.5243    3.8424    1.7455 H   0  0  0  1  0  0  0  0  0  0  0  0
    0.9823    2.0270    2.7382 C   0  0  0  1  0  0  0  0  0  0  0  0
    1.1539    2.5481    3.6569 H   0  0  0  1  0  0  0  0  0  0  0  0
    1.6986    1.2388    2.6355 H   0  0  0  1  0  0  0  0  0  0  0  0
   -0.3947    1.4205    2.7813 C   0  0  0  1  0  0  0  0  0  0  0  0
   -1.1814    2.0332    3.0768 H   0  0  0  1  0  0  0  0  0  0  0  0
   -2.5985    0.1172    0.8414 C   0  0  0  1  0  0  0  0  0  0  0  0
   -1.8576   -0.1557    0.1192 H   0  0  0  1  0  0  0  0  0  0  0  0
   -2.7498    1.1761    0.8153 H   0  0  0  1  0  0  0  0  0  0  0  0
   -3.8827   -0.5555    0.4824 C   0  0  0  1  0  0  0  0  0  0  0  0
   -3.9411   -1.5899    0.5724 H   0  0  0  1  0  0  0  0  0  0  0  0
   -4.9590    0.1054    0.0519 C   0  0  0  1  0  0  0  0  0  0  0  0
   -6.2441   -0.6104   -0.2415 C   0  0  0  1  0  0  0  0  0  0  0  0
   -7.0657   -0.0386    0.1365 H   0  0  0  1  0  0  0  0  0  0  0  0
   -6.2322   -1.5713    0.2289 H   0  0  0  1  0  0  0  0  0  0  0  0
   -6.3510   -0.7318   -1.2992 H   0  0  0  1  0  0  0  0  0  0  0  0
    7.2549    1.7507    1.9845 P   0  0  0  1  0  0  0  0  0  0  0  0
    6.7544   -1.0538    2.8956 P   0  0  0  1  0  0  0  0  0  0  0  0
    7.8960    2.3260    0.7678 O   0  0  0  0  0  0  0  0  0  0  0  0
    8.0928   -1.5143    3.6837 O   0  5  0  1  0  0  0  0  0  0  0  0
    2.8656    4.5110    0.3854 C   0  0  0  1  0  0  0  0  0  0  0  0
    2.5739    4.1164   -0.5655 H   0  0  0  1  0  0  0  0  0  0  0  0
    3.9127    4.7310    0.3739 H   0  0  0  1  0  0  0  0  0  0  0  0
    2.3146    5.4064    0.5838 H   0  0  0  1  0  0  0  0  0  0  0  0
    0.3529   -0.9078    2.3440 C   0  0  0  1  0  0  0  0  0  0  0  0
    0.2772   -1.3579    1.3762 H   0  0  0  1  0  0  0  0  0  0  0  0
    0.1855   -1.6500    3.0963 H   0  0  0  1  0  0  0  0  0  0  0  0
    1.3297   -0.4887    2.4667 H   0  0  0  1  0  0  0  0  0  0  0  0
   -4.9271    1.5913   -0.1561 C   0  0  0  1  0  0  0  0  0  0  0  0
   -5.4447    2.0754    0.6455 H   0  0  0  1  0  0  0  0  0  0  0  0
   -5.4026    1.8316   -1.0840 H   0  0  0  1  0  0  0  0  0  0  0  0
   -3.9111    1.9264   -0.1782 H   0  0  0  1  0  0  0  0  0  0  0  0
    7.7792    2.0997    3.3225 O   0  0  0  1  0  0  0  0  0  0  0  0
    5.6644   -0.5480    3.7596 O   0  0  0  1  0  0  0  0  0  0  0  0
  1  2  1  0  0  0  0
  1 20  2  0  0  0  0
  1 40  1  0  0  0  0
  2  3  1  0  0  0  0
  2  4  1  0  0  0  0
  2 22  1  0  0  0  0
  5 32  1  0  0  0  0
  5 33  1  0  0  0  0
  6  7  1  0  0  0  0
  6 32  1  0  0  0  0
  7  8  1  0  0  0  0
  7  9  1  0  0  0  0
  7 11  1  0  0  0  0
 10 33  1  0  0  0  0
 11 12  1  0  0  0  0
 11 13  2  0  0  0  0
 13 14  1  0  0  0  0
 13 36  1  0  0  0  0
 14 15  1  0  0  0  0
 14 16  1  0  0  0  0
 14 17  1  0  0  0  0
 17 18  1  0  0  0  0
 17 19  1  0  0  0  0
 17 20  1  0  0  0  0
 20 21  1  0  0  0  0
 22 23  1  0  0  0  0
 22 24  1  0  0  0  0
 22 25  1  0  0  0  0
 25 26  1  0  0  0  0
 25 27  2  0  0  0  0
 27 28  1  0  0  0  0
 27 44  1  0  0  0  0
 28 29  1  0  0  0  0
 28 30  1  0  0  0  0
 28 31  1  0  0  0  0
 32 34  1  0  0  0  0
 32 48  2  0  0  0  0
 33 35  1  0  0  0  0
 33 49  2  0  0  0  0
 36 37  1  0  0  0  0
 36 38  1  0  0  0  0
 36 39  1  0  0  0  0
 40 41  1  0  0  0  0
 40 42  1  0  0  0  0
 40 43  1  0  0  0  0
 44 45  1  0  0  0  0
 44 46  1  0  0  0  0
 44 47  1  0  0  0  0
M  BCL ATM C_TrTrTrPi C_TeTeTeTe H_S H_S O_Tr2TrTrPi2 O_Tr2TrTrPi2 C_TeTeTeTe H_S H_S O_Te2Te2TeTe C_TrTrTrPi H_S C_TrTrTrPi C_TeTeTeTe H_S H_S C_TeTeTeTe H_S H_S C_TrTrTrPi H_S C_TeTeTeTe H_S H_S C_TrTrTrPi H_S C_TrTrTrPi C_TeTeTeTe H_S H_S H_S P_TeTeTeTePi P_TeTeTeTePi O_Te2Te2TeTe O_Te2Te2Te2Te C_TeTeTeTe H_S H_S H_S C_TeTeTeTe H_S H_S H_S C_TeTeTeTe H_S H_S H_S O_Tr2Tr2TrPi O_Tr2Tr2TrPi
M  BCL BND NonConjugatedSingleBond ConjugatedDoubleBond NonConjugatedSingleBond NonConjugatedSingleBond NonConjugatedSingleBond NonConjugatedSingleBond ConjugatedSingleBond ConjugatedSingleBond NonConjugatedSingleBond ConjugatedSingleBond NonConjugatedSingleBond NonConjugatedSingleBond NonConjugatedSingleBond ConjugatedSingleBond NonConjugatedSingleBond ConjugatedDoubleBond NonConjugatedSingleBond NonConjugatedSingleBond NonConjugatedSingleBond NonConjugatedSingleBond NonConjugatedSingleBond NonConjugatedSingleBond NonConjugatedSingleBond NonConjugatedSingleBond NonConjugatedSingleBond NonConjugatedSingleBond NonConjugatedSingleBond NonConjugatedSingleBond NonConjugatedSingleBond ConjugatedDoubleBond NonConjugatedSingleBond NonConjugatedSingleBond NonConjugatedSingleBond NonConjugatedSingleBond NonConjugatedSingleBond ConjugatedSingleBond ConjugatedDoubleBond ConjugatedSingleBond ConjugatedDoubleBond NonConjugatedSingleBond NonConjugatedSingleBond NonConjugatedSingleBond NonConjugatedSingleBond NonConjugatedSingleBond NonConjugatedSingleBond NonConjugatedSingleBond NonConjugatedSingleBond NonConjugatedSingleBond
M  BCL CHI  32   S  33   S
M  BCL DBI Z Z - - -
M  END
> <ConfClashScore>
0 

> <ConfOneFourInteractionScore>
-0.992443 

> <ConfScore>
-0.0781261 

> <ConfScorePBest>
0.0137595 

> <ConfTolerance>
1.23756 

$$$$
L06.****
  PyMOL2.5          3D                             0

 49 48  0  0  0  0  0  0  0  0999 V2000
   -0.3345    0.0469   -1.5676 C   0  0  0  1  0  0  0  0  0  0  0  0
   -1.7327   -0.4762   -1.4213 C   0  0  0  1  0  0  0  0  0  0  0  0
   -1.7017   -1.5452   -1.4560 H   0  0  0  1  0  0  0  0  0  0  0  0
   -2.3206   -0.1092   -2.2365 H   0  0  0  1  0  0  0  0  0  0  0  0
    7.1094    5.6927    0.7525 O   0  0  0  1  0  0  0  0  0  0  0  0
    4.8276    5.2144    1.4874 O   0  0  0  1  0  0  0  0  0  0  0  0
    5.0990    3.8022    1.5828 C   0  0  0  1  0  0  0  0  0  0  0  0
    5.4066    3.5607    2.5788 H   0  0  0  1  0  0  0  0  0  0  0  0
    5.8749    3.5371    0.8952 H   0  0  0  1  0  0  0  0  0  0  0  0
    9.1622    7.3921    1.1600 O   0  0  0  0  0  0  0  0  0  0  0  0
    3.8454    3.0503    1.2446 C   0  0  0  1  0  0  0  0  0  0  0  0
    3.0295    3.1650    1.8792 H   0  0  0  1  0  0  0  0  0  0  0  0
    3.7001    2.2495    0.1957 C   0  0  0  1  0  0  0  0  0  0  0  0
    2.5460    1.2825    0.1009 C   0  0  0  1  0  0  0  0  0  0  0  0
    2.1319    1.1657    1.0806 H   0  0  0  1  0  0  0  0  0  0  0  0
    2.9295    0.3432   -0.2391 H   0  0  0  1  0  0  0  0  0  0  0  0
    1.4235    1.6976   -0.8362 C   0  0  0  1  0  0  0  0  0  0  0  0
    1.7710    1.6085   -1.8443 H   0  0  0  1  0  0  0  0  0  0  0  0
    1.1709    2.7175   -0.6343 H   0  0  0  1  0  0  0  0  0  0  0  0
    0.1854    0.8580   -0.6807 C   0  0  0  1  0  0  0  0  0  0  0  0
   -0.3117    0.9293    0.2300 H   0  0  0  1  0  0  0  0  0  0  0  0
   -2.3934   -0.0533   -0.1193 C   0  0  0  1  0  0  0  0  0  0  0  0
   -2.4328    1.0155   -0.0889 H   0  0  0  1  0  0  0  0  0  0  0  0
   -1.8004   -0.4122    0.6958 H   0  0  0  1  0  0  0  0  0  0  0  0
   -3.7919   -0.5889    0.0333 C   0  0  0  1  0  0  0  0  0  0  0  0
   -3.8823   -1.6149    0.1768 H   0  0  0  1  0  0  0  0  0  0  0  0
   -4.9225    0.1066    0.0046 C   0  0  0  1  0  0  0  0  0  0  0  0
   -6.2529   -0.5553    0.2268 C   0  0  0  1  0  0  0  0  0  0  0  0
   -6.6908   -0.1829    1.1293 H   0  0  0  1  0  0  0  0  0  0  0  0
   -6.1155   -1.6134    0.3075 H   0  0  0  1  0  0  0  0  0  0  0  0
   -6.8998   -0.3411   -0.5981 H   0  0  0  1  0  0  0  0  0  0  0  0
    5.9774    6.2900    1.7608 P   0  0  0  1  0  0  0  0  0  0  0  0
    8.2858    6.5821    0.0351 P   0  0  0  1  0  0  0  0  0  0  0  0
    5.5693    7.6376    1.2875 O   0  0  0  0  0  0  0  0  0  0  0  0
    9.2849    5.5747   -0.7468 O   0  5  0  1  0  0  0  0  0  0  0  0
    4.6419    2.2213   -0.9750 C   0  0  0  1  0  0  0  0  0  0  0  0
    5.3989    1.4839   -0.8068 H   0  0  0  1  0  0  0  0  0  0  0  0
    5.0991    3.1821   -1.0879 H   0  0  0  1  0  0  0  0  0  0  0  0
    4.0984    1.9777   -1.8639 H   0  0  0  1  0  0  0  0  0  0  0  0
    0.3906   -0.4331   -2.7902 C   0  0  0  1  0  0  0  0  0  0  0  0
   -0.3187   -0.6789   -3.5526 H   0  0  0  1  0  0  0  0  0  0  0  0
    0.9661   -1.3013   -2.5454 H   0  0  0  1  0  0  0  0  0  0  0  0
    1.0416    0.3387   -3.1444 H   0  0  0  1  0  0  0  0  0  0  0  0
   -4.9906    1.5847   -0.2456 C   0  0  0  1  0  0  0  0  0  0  0  0
   -5.6380    1.7771   -1.0755 H   0  0  0  1  0  0  0  0  0  0  0  0
   -4.0107    1.9546   -0.4648 H   0  0  0  1  0  0  0  0  0  0  0  0
   -5.3715    2.0764    0.6250 H   0  0  0  1  0  0  0  0  0  0  0  0
    6.4373    6.0945    3.1584 O   0  0  0  1  0  0  0  0  0  0  0  0
    7.7752    7.4732   -1.0305 O   0  0  0  1  0  0  0  0  0  0  0  0
  1  2  1  0  0  0  0
  1 20  2  0  0  0  0
  1 40  1  0  0  0  0
  2  3  1  0  0  0  0
  2  4  1  0  0  0  0
  2 22  1  0  0  0  0
  5 32  1  0  0  0  0
  5 33  1  0  0  0  0
  6  7  1  0  0  0  0
  6 32  1  0  0  0  0
  7  8  1  0  0  0  0
  7  9  1  0  0  0  0
  7 11  1  0  0  0  0
 10 33  1  0  0  0  0
 11 12  1  0  0  0  0
 11 13  2  0  0  0  0
 13 14  1  0  0  0  0
 13 36  1  0  0  0  0
 14 15  1  0  0  0  0
 14 16  1  0  0  0  0
 14 17  1  0  0  0  0
 17 18  1  0  0  0  0
 17 19  1  0  0  0  0
 17 20  1  0  0  0  0
 20 21  1  0  0  0  0
 22 23  1  0  0  0  0
 22 24  1  0  0  0  0
 22 25  1  0  0  0  0
 25 26  1  0  0  0  0
 25 27  2  0  0  0  0
 27 28  1  0  0  0  0
 27 44  1  0  0  0  0
 28 29  1  0  0  0  0
 28 30  1  0  0  0  0
 28 31  1  0  0  0  0
 32 34  1  0  0  0  0
 32 48  2  0  0  0  0
 33 35  1  0  0  0  0
 33 49  2  0  0  0  0
 36 37  1  0  0  0  0
 36 38  1  0  0  0  0
 36 39  1  0  0  0  0
 40 41  1  0  0  0  0
 40 42  1  0  0  0  0
 40 43  1  0  0  0  0
 44 45  1  0  0  0  0
 44 46  1  0  0  0  0
 44 47  1  0  0  0  0
M  BCL ATM C_TrTrTrPi C_TeTeTeTe H_S H_S O_Tr2TrTrPi2 O_Tr2TrTrPi2 C_TeTeTeTe H_S H_S O_Te2Te2TeTe C_TrTrTrPi H_S C_TrTrTrPi C_TeTeTeTe H_S H_S C_TeTeTeTe H_S H_S C_TrTrTrPi H_S C_TeTeTeTe H_S H_S C_TrTrTrPi H_S C_TrTrTrPi C_TeTeTeTe H_S H_S H_S P_TeTeTeTePi P_TeTeTeTePi O_Te2Te2TeTe O_Te2Te2Te2Te C_TeTeTeTe H_S H_S H_S C_TeTeTeTe H_S H_S H_S C_TeTeTeTe H_S H_S H_S O_Tr2Tr2TrPi O_Tr2Tr2TrPi
M  BCL BND NonConjugatedSingleBond ConjugatedDoubleBond NonConjugatedSingleBond NonConjugatedSingleBond NonConjugatedSingleBond NonConjugatedSingleBond ConjugatedSingleBond ConjugatedSingleBond NonConjugatedSingleBond ConjugatedSingleBond NonConjugatedSingleBond NonConjugatedSingleBond NonConjugatedSingleBond ConjugatedSingleBond NonConjugatedSingleBond ConjugatedDoubleBond NonConjugatedSingleBond NonConjugatedSingleBond NonConjugatedSingleBond NonConjugatedSingleBond NonConjugatedSingleBond NonConjugatedSingleBond NonConjugatedSingleBond NonConjugatedSingleBond NonConjugatedSingleBond NonConjugatedSingleBond NonConjugatedSingleBond NonConjugatedSingleBond NonConjugatedSingleBond ConjugatedDoubleBond NonConjugatedSingleBond NonConjugatedSingleBond NonConjugatedSingleBond NonConjugatedSingleBond NonConjugatedSingleBond ConjugatedSingleBond ConjugatedDoubleBond ConjugatedSingleBond ConjugatedDoubleBond NonConjugatedSingleBond NonConjugatedSingleBond NonConjugatedSingleBond NonConjugatedSingleBond NonConjugatedSingleBond NonConjugatedSingleBond NonConjugatedSingleBond NonConjugatedSingleBond NonConjugatedSingleBond
M  BCL CHI  32   S  33   S
M  BCL DBI Z Z - - -
M  END
> <ConfClashScore>
0 

> <ConfOneFourInteractionScore>
-0.982537 

> <ConfScore>
-0.0781155 

> <ConfScorePBest>
0.0136565 

> <ConfTolerance>
1.09999 

$$$$
L06.****
  PyMOL2.5          3D                             0

 49 48  0  0  0  0  0  0  0  0999 V2000
   -0.0963    0.1684   -0.9476 C   0  0  0  1  0  0  0  0  0  0  0  0
   -1.3406   -0.3778   -0.3033 C   0  0  0  1  0  0  0  0  0  0  0  0
   -1.3535   -0.0756    0.7231 H   0  0  0  1  0  0  0  0  0  0  0  0
   -1.3132   -1.4459   -0.3608 H   0  0  0  1  0  0  0  0  0  0  0  0
    8.3860    2.0375   -3.8907 O   0  0  0  1  0  0  0  0  0  0  0  0
    7.1700    0.3400   -2.6397 O   0  0  0  1  0  0  0  0  0  0  0  0
    6.1069    0.2748   -3.6031 C   0  0  0  1  0  0  0  0  0  0  0  0
    6.3290   -0.4955   -4.3118 H   0  0  0  1  0  0  0  0  0  0  0  0
    6.0392    1.2158   -4.1079 H   0  0  0  1  0  0  0  0  0  0  0  0
   10.7601    3.2477   -3.9847 O   0  0  0  0  0  0  0  0  0  0  0  0
    4.7960   -0.0235   -2.9630 C   0  0  0  1  0  0  0  0  0  0  0  0
    4.3077    0.7230   -2.4283 H   0  0  0  1  0  0  0  0  0  0  0  0
    4.2384   -1.2254   -3.0621 C   0  0  0  1  0  0  0  0  0  0  0  0
    2.8483   -1.5436   -2.5800 C   0  0  0  1  0  0  0  0  0  0  0  0
    2.9124   -2.3142   -1.8404 H   0  0  0  1  0  0  0  0  0  0  0  0
    2.2713   -1.8928   -3.4106 H   0  0  0  1  0  0  0  0  0  0  0  0
    2.1409   -0.3448   -1.9694 C   0  0  0  1  0  0  0  0  0  0  0  0
    2.0793    0.4269   -2.7080 H   0  0  0  1  0  0  0  0  0  0  0  0
    2.7165    0.0027   -1.1370 H   0  0  0  1  0  0  0  0  0  0  0  0
    0.7583   -0.6600   -1.4937 C   0  0  0  1  0  0  0  0  0  0  0  0
    0.4413   -1.6437   -1.6093 H   0  0  0  1  0  0  0  0  0  0  0  0
   -2.6181    0.1098   -0.9672 C   0  0  0  1  0  0  0  0  0  0  0  0
   -2.5235   -0.0484   -2.0212 H   0  0  0  1  0  0  0  0  0  0  0  0
   -2.7133    1.1572   -0.7704 H   0  0  0  1  0  0  0  0  0  0  0  0
   -3.8726   -0.5606   -0.5115 C   0  0  0  1  0  0  0  0  0  0  0  0
   -3.9197   -1.5989   -0.5482 H   0  0  0  1  0  0  0  0  0  0  0  0
   -4.9305    0.1037   -0.0618 C   0  0  0  1  0  0  0  0  0  0  0  0
   -6.2381   -0.5906    0.1943 C   0  0  0  1  0  0  0  0  0  0  0  0
   -6.9945   -0.1712   -0.4358 H   0  0  0  1  0  0  0  0  0  0  0  0
   -6.5159   -0.4607    1.2194 H   0  0  0  1  0  0  0  0  0  0  0  0
   -6.1353   -1.6341   -0.0185 H   0  0  0  1  0  0  0  0  0  0  0  0
    8.6669    0.6811   -3.0916 P   0  0  0  1  0  0  0  0  0  0  0  0
    9.1408    3.4935   -3.9009 P   0  0  0  1  0  0  0  0  0  0  0  0
    9.4190    0.9331   -1.8225 O   0  0  0  0  0  0  0  0  0  0  0  0
    8.7889    4.0881   -5.3662 O   0  5  0  1  0  0  0  0  0  0  0  0
    4.9713   -2.3841   -3.6776 C   0  0  0  1  0  0  0  0  0  0  0  0
    5.9849   -2.1023   -3.8732 H   0  0  0  1  0  0  0  0  0  0  0  0
    4.4949   -2.6605   -4.5949 H   0  0  0  1  0  0  0  0  0  0  0  0
    4.9562   -3.2144   -3.0028 H   0  0  0  1  0  0  0  0  0  0  0  0
    0.0441    1.6616   -0.8970 C   0  0  0  1  0  0  0  0  0  0  0  0
   -0.2423    2.0147    0.0716 H   0  0  0  1  0  0  0  0  0  0  0  0
   -0.5874    2.1043   -1.6388 H   0  0  0  1  0  0  0  0  0  0  0  0
    1.0620    1.9306   -1.0878 H   0  0  0  1  0  0  0  0  0  0  0  0
   -4.9333    1.5757    0.2302 C   0  0  0  1  0  0  0  0  0  0  0  0
   -5.6417    2.0646   -0.4054 H   0  0  0  1  0  0  0  0  0  0  0  0
   -3.9575    1.9765    0.0510 H   0  0  0  1  0  0  0  0  0  0  0  0
   -5.2027    1.7356    1.2533 H   0  0  0  1  0  0  0  0  0  0  0  0
    9.2381   -0.3550   -3.9878 O   0  0  0  1  0  0  0  0  0  0  0  0
    8.8071    4.4861   -2.8551 O   0  0  0  1  0  0  0  0  0  0  0  0
  1  2  1  0  0  0  0
  1 20  2  0  0  0  0
  1 40  1  0  0  0  0
  2  3  1  0  0  0  0
  2  4  1  0  0  0  0
  2 22  1  0  0  0  0
  5 32  1  0  0  0  0
  5 33  1  0  0  0  0
  6  7  1  0  0  0  0
  6 32  1  0  0  0  0
  7  8  1  0  0  0  0
  7  9  1  0  0  0  0
  7 11  1  0  0  0  0
 10 33  1  0  0  0  0
 11 12  1  0  0  0  0
 11 13  2  0  0  0  0
 13 14  1  0  0  0  0
 13 36  1  0  0  0  0
 14 15  1  0  0  0  0
 14 16  1  0  0  0  0
 14 17  1  0  0  0  0
 17 18  1  0  0  0  0
 17 19  1  0  0  0  0
 17 20  1  0  0  0  0
 20 21  1  0  0  0  0
 22 23  1  0  0  0  0
 22 24  1  0  0  0  0
 22 25  1  0  0  0  0
 25 26  1  0  0  0  0
 25 27  2  0  0  0  0
 27 28  1  0  0  0  0
 27 44  1  0  0  0  0
 28 29  1  0  0  0  0
 28 30  1  0  0  0  0
 28 31  1  0  0  0  0
 32 34  1  0  0  0  0
 32 48  2  0  0  0  0
 33 35  1  0  0  0  0
 33 49  2  0  0  0  0
 36 37  1  0  0  0  0
 36 38  1  0  0  0  0
 36 39  1  0  0  0  0
 40 41  1  0  0  0  0
 40 42  1  0  0  0  0
 40 43  1  0  0  0  0
 44 45  1  0  0  0  0
 44 46  1  0  0  0  0
 44 47  1  0  0  0  0
M  BCL ATM C_TrTrTrPi C_TeTeTeTe H_S H_S O_Tr2TrTrPi2 O_Tr2TrTrPi2 C_TeTeTeTe H_S H_S O_Te2Te2TeTe C_TrTrTrPi H_S C_TrTrTrPi C_TeTeTeTe H_S H_S C_TeTeTeTe H_S H_S C_TrTrTrPi H_S C_TeTeTeTe H_S H_S C_TrTrTrPi H_S C_TrTrTrPi C_TeTeTeTe H_S H_S H_S P_TeTeTeTePi P_TeTeTeTePi O_Te2Te2TeTe O_Te2Te2Te2Te C_TeTeTeTe H_S H_S H_S C_TeTeTeTe H_S H_S H_S C_TeTeTeTe H_S H_S H_S O_Tr2Tr2TrPi O_Tr2Tr2TrPi
M  BCL BND NonConjugatedSingleBond ConjugatedDoubleBond NonConjugatedSingleBond NonConjugatedSingleBond NonConjugatedSingleBond NonConjugatedSingleBond ConjugatedSingleBond ConjugatedSingleBond NonConjugatedSingleBond ConjugatedSingleBond NonConjugatedSingleBond NonConjugatedSingleBond NonConjugatedSingleBond ConjugatedSingleBond NonConjugatedSingleBond ConjugatedDoubleBond NonConjugatedSingleBond NonConjugatedSingleBond NonConjugatedSingleBond NonConjugatedSingleBond NonConjugatedSingleBond NonConjugatedSingleBond NonConjugatedSingleBond NonConjugatedSingleBond NonConjugatedSingleBond NonConjugatedSingleBond NonConjugatedSingleBond NonConjugatedSingleBond NonConjugatedSingleBond ConjugatedDoubleBond NonConjugatedSingleBond NonConjugatedSingleBond NonConjugatedSingleBond NonConjugatedSingleBond NonConjugatedSingleBond ConjugatedSingleBond ConjugatedDoubleBond ConjugatedSingleBond ConjugatedDoubleBond NonConjugatedSingleBond NonConjugatedSingleBond NonConjugatedSingleBond NonConjugatedSingleBond NonConjugatedSingleBond NonConjugatedSingleBond NonConjugatedSingleBond NonConjugatedSingleBond NonConjugatedSingleBond
M  BCL CHI  32   S  33   S
M  BCL DBI Z Z - - -
M  END
> <ConfClashScore>
0 

> <ConfOneFourInteractionScore>
-0.97616 

> <ConfScore>
-0.0777889 

> <ConfScorePBest>
0.0135535 

> <ConfTolerance>
1.00971 

$$$$
L06.****
  PyMOL2.5          3D                             0

 49 48  0  0  0  0  0  0  0  0999 V2000
   -4.1692   -1.8102   -2.8825 C   0  0  0  1  0  0  0  0  0  0  0  0
   -3.2868   -2.4179   -1.8251 C   0  0  0  1  0  0  0  0  0  0  0  0
   -2.2787   -2.0950   -1.9814 H   0  0  0  1  0  0  0  0  0  0  0  0
   -3.3357   -3.4843   -1.8978 H   0  0  0  1  0  0  0  0  0  0  0  0
   -7.8659    4.3671   -9.0956 O   0  0  0  1  0  0  0  0  0  0  0  0
   -7.6629    3.5210   -6.7397 O   0  0  0  1  0  0  0  0  0  0  0  0
   -7.3379    2.1635   -7.0777 C   0  0  0  1  0  0  0  0  0  0  0  0
   -6.9223    2.1425   -8.0635 H   0  0  0  1  0  0  0  0  0  0  0  0
   -8.2329    1.5776   -7.0549 H   0  0  0  1  0  0  0  0  0  0  0  0
   -5.3025    4.2628   -8.2990 O   0  0  0  0  0  0  0  0  0  0  0  0
   -6.3459    1.5714   -6.1204 C   0  0  0  1  0  0  0  0  0  0  0  0
   -6.1877    0.5486   -6.2226 H   0  0  0  1  0  0  0  0  0  0  0  0
   -5.6401    2.1598   -5.1621 C   0  0  0  1  0  0  0  0  0  0  0  0
   -4.6687    1.3837   -4.3185 C   0  0  0  1  0  0  0  0  0  0  0  0
   -4.9106    1.5415   -3.2882 H   0  0  0  1  0  0  0  0  0  0  0  0
   -3.6817    1.7479   -4.5135 H   0  0  0  1  0  0  0  0  0  0  0  0
   -4.6975   -0.1099   -4.5990 C   0  0  0  1  0  0  0  0  0  0  0  0
   -4.4225   -0.2699   -5.6206 H   0  0  0  1  0  0  0  0  0  0  0  0
   -5.6927   -0.4678   -4.4367 H   0  0  0  1  0  0  0  0  0  0  0  0
   -3.7652   -0.8867   -3.7284 C   0  0  0  1  0  0  0  0  0  0  0  0
   -2.7464   -0.6880   -3.7939 H   0  0  0  1  0  0  0  0  0  0  0  0
   -3.7371   -1.9919   -0.4373 C   0  0  0  1  0  0  0  0  0  0  0  0
   -3.0730   -2.4343    0.2755 H   0  0  0  1  0  0  0  0  0  0  0  0
   -4.7277   -2.3657   -0.2824 H   0  0  0  1  0  0  0  0  0  0  0  0
   -3.7576   -0.5228   -0.1959 C   0  0  0  1  0  0  0  0  0  0  0  0
   -2.8600    0.0015   -0.1634 H   0  0  0  1  0  0  0  0  0  0  0  0
   -4.9011    0.1310   -0.0212 C   0  0  0  1  0  0  0  0  0  0  0  0
   -6.2185   -0.5458    0.2236 C   0  0  0  1  0  0  0  0  0  0  0  0
   -6.0538   -1.5813    0.4369 H   0  0  0  1  0  0  0  0  0  0  0  0
   -6.8332   -0.4547   -0.6474 H   0  0  0  1  0  0  0  0  0  0  0  0
   -6.7073   -0.0838    1.0558 H   0  0  0  1  0  0  0  0  0  0  0  0
   -8.6131    4.4088   -7.6989 P   0  0  0  1  0  0  0  0  0  0  0  0
   -6.3030    4.4718   -9.5815 P   0  0  0  1  0  0  0  0  0  0  0  0
   -9.9145    3.7269   -7.8753 O   0  0  0  0  0  0  0  0  0  0  0  0
   -5.9998    3.1955  -10.5319 O   0  5  0  1  0  0  0  0  0  0  0  0
   -5.7345    3.6220   -4.8282 C   0  0  0  1  0  0  0  0  0  0  0  0
   -5.5103    3.7670   -3.7920 H   0  0  0  1  0  0  0  0  0  0  0  0
   -6.7257    3.9706   -5.0305 H   0  0  0  1  0  0  0  0  0  0  0  0
   -5.0347    4.1696   -5.4243 H   0  0  0  1  0  0  0  0  0  0  0  0
   -5.5753   -2.3400   -2.9092 C   0  0  0  1  0  0  0  0  0  0  0  0
   -5.5540   -3.4098   -2.9055 H   0  0  0  1  0  0  0  0  0  0  0  0
   -6.0688   -1.9965   -3.7943 H   0  0  0  1  0  0  0  0  0  0  0  0
   -6.1041   -1.9910   -2.0470 H   0  0  0  1  0  0  0  0  0  0  0  0
   -4.9620    1.6322   -0.0565 C   0  0  0  1  0  0  0  0  0  0  0  0
   -5.7690    1.9421   -0.6871 H   0  0  0  1  0  0  0  0  0  0  0  0
   -4.0408    2.0173   -0.4413 H   0  0  0  1  0  0  0  0  0  0  0  0
   -5.1195    2.0059    0.9336 H   0  0  0  1  0  0  0  0  0  0  0  0
   -8.5919    5.7760   -7.1357 O   0  0  0  1  0  0  0  0  0  0  0  0
   -6.1922    5.7559  -10.3090 O   0  0  0  1  0  0  0  0  0  0  0  0
  1  2  1  0  0  0  0
  1 20  2  0  0  0  0
  1 40  1  0  0  0  0
  2  3  1  0  0  0  0
  2  4  1  0  0  0  0
  2 22  1  0  0  0  0
  5 32  1  0  0  0  0
  5 33  1  0  0  0  0
  6  7  1  0  0  0  0
  6 32  1  0  0  0  0
  7  8  1  0  0  0  0
  7  9  1  0  0  0  0
  7 11  1  0  0  0  0
 10 33  1  0  0  0  0
 11 12  1  0  0  0  0
 11 13  2  0  0  0  0
 13 14  1  0  0  0  0
 13 36  1  0  0  0  0
 14 15  1  0  0  0  0
 14 16  1  0  0  0  0
 14 17  1  0  0  0  0
 17 18  1  0  0  0  0
 17 19  1  0  0  0  0
 17 20  1  0  0  0  0
 20 21  1  0  0  0  0
 22 23  1  0  0  0  0
 22 24  1  0  0  0  0
 22 25  1  0  0  0  0
 25 26  1  0  0  0  0
 25 27  2  0  0  0  0
 27 28  1  0  0  0  0
 27 44  1  0  0  0  0
 28 29  1  0  0  0  0
 28 30  1  0  0  0  0
 28 31  1  0  0  0  0
 32 34  1  0  0  0  0
 32 48  2  0  0  0  0
 33 35  1  0  0  0  0
 33 49  2  0  0  0  0
 36 37  1  0  0  0  0
 36 38  1  0  0  0  0
 36 39  1  0  0  0  0
 40 41  1  0  0  0  0
 40 42  1  0  0  0  0
 40 43  1  0  0  0  0
 44 45  1  0  0  0  0
 44 46  1  0  0  0  0
 44 47  1  0  0  0  0
M  BCL ATM C_TrTrTrPi C_TeTeTeTe H_S H_S O_Tr2TrTrPi2 O_Tr2TrTrPi2 C_TeTeTeTe H_S H_S O_Te2Te2TeTe C_TrTrTrPi H_S C_TrTrTrPi C_TeTeTeTe H_S H_S C_TeTeTeTe H_S H_S C_TrTrTrPi H_S C_TeTeTeTe H_S H_S C_TrTrTrPi H_S C_TrTrTrPi C_TeTeTeTe H_S H_S H_S P_TeTeTeTePi P_TeTeTeTePi O_Te2Te2TeTe O_Te2Te2Te2Te C_TeTeTeTe H_S H_S H_S C_TeTeTeTe H_S H_S H_S C_TeTeTeTe H_S H_S H_S O_Tr2Tr2TrPi O_Tr2Tr2TrPi
M  BCL BND NonConjugatedSingleBond ConjugatedDoubleBond NonConjugatedSingleBond NonConjugatedSingleBond NonConjugatedSingleBond NonConjugatedSingleBond ConjugatedSingleBond ConjugatedSingleBond NonConjugatedSingleBond ConjugatedSingleBond NonConjugatedSingleBond NonConjugatedSingleBond NonConjugatedSingleBond ConjugatedSingleBond NonConjugatedSingleBond ConjugatedDoubleBond NonConjugatedSingleBond NonConjugatedSingleBond NonConjugatedSingleBond NonConjugatedSingleBond NonConjugatedSingleBond NonConjugatedSingleBond NonConjugatedSingleBond NonConjugatedSingleBond NonConjugatedSingleBond NonConjugatedSingleBond NonConjugatedSingleBond NonConjugatedSingleBond NonConjugatedSingleBond ConjugatedDoubleBond NonConjugatedSingleBond NonConjugatedSingleBond NonConjugatedSingleBond NonConjugatedSingleBond NonConjugatedSingleBond ConjugatedSingleBond ConjugatedDoubleBond ConjugatedSingleBond ConjugatedDoubleBond NonConjugatedSingleBond NonConjugatedSingleBond NonConjugatedSingleBond NonConjugatedSingleBond NonConjugatedSingleBond NonConjugatedSingleBond NonConjugatedSingleBond NonConjugatedSingleBond NonConjugatedSingleBond
M  BCL CHI  32   S  33   S
M  BCL DBI Z Z - - -
M  END
> <ConfClashScore>
0 

> <ConfOneFourInteractionScore>
-0.982824 

> <ConfScore>
-0.0775191 

> <ConfScorePBest>
0.0134505 

> <ConfTolerance>
1.41884 

$$$$
L06.****
  PyMOL2.5          3D                             0

 49 48  0  0  0  0  0  0  0  0999 V2000
   -2.3962   -3.4537   -2.1781 C   0  0  0  1  0  0  0  0  0  0  0  0
   -2.6153   -2.0211   -1.7456 C   0  0  0  1  0  0  0  0  0  0  0  0
   -3.1661   -1.5149   -2.5106 H   0  0  0  1  0  0  0  0  0  0  0  0
   -1.6611   -1.5526   -1.6230 H   0  0  0  1  0  0  0  0  0  0  0  0
   -3.5927  -12.2803   -5.8160 O   0  0  0  1  0  0  0  0  0  0  0  0
   -4.0553   -9.8843   -5.8966 O   0  0  0  1  0  0  0  0  0  0  0  0
   -4.3158   -9.5488   -4.5247 C   0  0  0  1  0  0  0  0  0  0  0  0
   -3.8436  -10.2631   -3.8830 H   0  0  0  1  0  0  0  0  0  0  0  0
   -5.3710   -9.5517   -4.3470 H   0  0  0  1  0  0  0  0  0  0  0  0
   -1.4978  -13.5995   -4.9871 O   0  0  0  0  0  0  0  0  0  0  0  0
   -3.7614   -8.1813   -4.2532 C   0  0  0  1  0  0  0  0  0  0  0  0
   -3.8691   -7.8459   -3.2747 H   0  0  0  1  0  0  0  0  0  0  0  0
   -3.1536   -7.3360   -5.0771 C   0  0  0  1  0  0  0  0  0  0  0  0
   -2.9619   -5.8891   -4.7120 C   0  0  0  1  0  0  0  0  0  0  0  0
   -3.5735   -5.3004   -5.3634 H   0  0  0  1  0  0  0  0  0  0  0  0
   -1.9326   -5.6426   -4.8690 H   0  0  0  1  0  0  0  0  0  0  0  0
   -3.3177   -5.5259   -3.2795 C   0  0  0  1  0  0  0  0  0  0  0  0
   -2.6489   -6.0403   -2.6216 H   0  0  0  1  0  0  0  0  0  0  0  0
   -4.3216   -5.8424   -3.0873 H   0  0  0  1  0  0  0  0  0  0  0  0
   -3.2197   -4.0493   -3.0038 C   0  0  0  1  0  0  0  0  0  0  0  0
   -3.8774   -3.4356   -3.5257 H   0  0  0  1  0  0  0  0  0  0  0  0
   -3.3830   -1.9044   -0.4389 C   0  0  0  1  0  0  0  0  0  0  0  0
   -2.7767   -2.3206    0.3384 H   0  0  0  1  0  0  0  0  0  0  0  0
   -4.2837   -2.4743   -0.5332 H   0  0  0  1  0  0  0  0  0  0  0  0
   -3.7555   -0.5193   -0.0390 C   0  0  0  1  0  0  0  0  0  0  0  0
   -2.9488    0.0577    0.2740 H   0  0  0  1  0  0  0  0  0  0  0  0
   -4.9183    0.1227   -0.0043 C   0  0  0  1  0  0  0  0  0  0  0  0
   -6.2334   -0.5171   -0.3426 C   0  0  0  1  0  0  0  0  0  0  0  0
   -6.4001   -0.4544   -1.3977 H   0  0  0  1  0  0  0  0  0  0  0  0
   -7.0206   -0.0082    0.1734 H   0  0  0  1  0  0  0  0  0  0  0  0
   -6.2170   -1.5447   -0.0448 H   0  0  0  1  0  0  0  0  0  0  0  0
   -4.5603  -11.2718   -6.5861 P   0  0  0  1  0  0  0  0  0  0  0  0
   -2.1183  -12.8199   -6.2897 P   0  0  0  1  0  0  0  0  0  0  0  0
   -5.9807  -11.5266   -6.2455 O   0  0  0  0  0  0  0  0  0  0  0  0
   -2.3617  -13.8517   -7.5148 O   0  5  0  1  0  0  0  0  0  0  0  0
   -2.6082   -7.7225   -6.4230 C   0  0  0  1  0  0  0  0  0  0  0  0
   -2.2713   -8.7377   -6.3938 H   0  0  0  1  0  0  0  0  0  0  0  0
   -1.7883   -7.0819   -6.6727 H   0  0  0  1  0  0  0  0  0  0  0  0
   -3.3766   -7.6232   -7.1609 H   0  0  0  1  0  0  0  0  0  0  0  0
   -1.1814   -4.1088   -1.5887 C   0  0  0  1  0  0  0  0  0  0  0  0
   -0.3154   -3.5209   -1.8108 H   0  0  0  1  0  0  0  0  0  0  0  0
   -1.0653   -5.0866   -2.0074 H   0  0  0  1  0  0  0  0  0  0  0  0
   -1.2974   -4.1859   -0.5278 H   0  0  0  1  0  0  0  0  0  0  0  0
   -5.0053    1.5715    0.3856 C   0  0  0  1  0  0  0  0  0  0  0  0
   -5.5699    1.6648    1.2897 H   0  0  0  1  0  0  0  0  0  0  0  0
   -5.4882    2.1221   -0.3945 H   0  0  0  1  0  0  0  0  0  0  0  0
   -4.0199    1.9591    0.5392 H   0  0  0  1  0  0  0  0  0  0  0  0
   -4.1030  -11.1994   -7.9408 O   0  0  0  1  0  0  0  0  0  0  0  0
   -1.2906  -11.7342   -6.8612 O   0  0  0  1  0  0  0  0  0  0  0  0
  1  2  1  0  0  0  0
  1 20  2  0  0  0  0
  1 40  1  0  0  0  0
  2  3  1  0  0  0  0
  2  4  1  0  0  0  0
  2 22  1  0  0  0  0
  5 32  1  0  0  0  0
  5 33  1  0  0  0  0
  6  7  1  0  0  0  0
  6 32  1  0  0  0  0
  7  8  1  0  0  0  0
  7  9  1  0  0  0  0
  7 11  1  0  0  0  0
 10 33  1  0  0  0  0
 11 12  1  0  0  0  0
 11 13  2  0  0  0  0
 13 14  1  0  0  0  0
 13 36  1  0  0  0  0
 14 15  1  0  0  0  0
 14 16  1  0  0  0  0
 14 17  1  0  0  0  0
 17 18  1  0  0  0  0
 17 19  1  0  0  0  0
 17 20  1  0  0  0  0
 20 21  1  0  0  0  0
 22 23  1  0  0  0  0
 22 24  1  0  0  0  0
 22 25  1  0  0  0  0
 25 26  1  0  0  0  0
 25 27  2  0  0  0  0
 27 28  1  0  0  0  0
 27 44  1  0  0  0  0
 28 29  1  0  0  0  0
 28 30  1  0  0  0  0
 28 31  1  0  0  0  0
 32 34  1  0  0  0  0
 32 48  2  0  0  0  0
 33 35  1  0  0  0  0
 33 49  2  0  0  0  0
 36 37  1  0  0  0  0
 36 38  1  0  0  0  0
 36 39  1  0  0  0  0
 40 41  1  0  0  0  0
 40 42  1  0  0  0  0
 40 43  1  0  0  0  0
 44 45  1  0  0  0  0
 44 46  1  0  0  0  0
 44 47  1  0  0  0  0
M  BCL ATM C_TrTrTrPi C_TeTeTeTe H_S H_S O_Tr2TrTrPi2 O_Tr2TrTrPi2 C_TeTeTeTe H_S H_S O_Te2Te2TeTe C_TrTrTrPi H_S C_TrTrTrPi C_TeTeTeTe H_S H_S C_TeTeTeTe H_S H_S C_TrTrTrPi H_S C_TeTeTeTe H_S H_S C_TrTrTrPi H_S C_TrTrTrPi C_TeTeTeTe H_S H_S H_S P_TeTeTeTePi P_TeTeTeTePi O_Te2Te2TeTe O_Te2Te2Te2Te C_TeTeTeTe H_S H_S H_S C_TeTeTeTe H_S H_S H_S C_TeTeTeTe H_S H_S H_S O_Tr2Tr2TrPi O_Tr2Tr2TrPi
M  BCL BND NonConjugatedSingleBond ConjugatedDoubleBond NonConjugatedSingleBond NonConjugatedSingleBond NonConjugatedSingleBond NonConjugatedSingleBond ConjugatedSingleBond ConjugatedSingleBond NonConjugatedSingleBond ConjugatedSingleBond NonConjugatedSingleBond NonConjugatedSingleBond NonConjugatedSingleBond ConjugatedSingleBond NonConjugatedSingleBond ConjugatedDoubleBond NonConjugatedSingleBond NonConjugatedSingleBond NonConjugatedSingleBond NonConjugatedSingleBond NonConjugatedSingleBond NonConjugatedSingleBond NonConjugatedSingleBond NonConjugatedSingleBond NonConjugatedSingleBond NonConjugatedSingleBond NonConjugatedSingleBond NonConjugatedSingleBond NonConjugatedSingleBond ConjugatedDoubleBond NonConjugatedSingleBond NonConjugatedSingleBond NonConjugatedSingleBond NonConjugatedSingleBond NonConjugatedSingleBond ConjugatedSingleBond ConjugatedDoubleBond ConjugatedSingleBond ConjugatedDoubleBond NonConjugatedSingleBond NonConjugatedSingleBond NonConjugatedSingleBond NonConjugatedSingleBond NonConjugatedSingleBond NonConjugatedSingleBond NonConjugatedSingleBond NonConjugatedSingleBond NonConjugatedSingleBond
M  BCL CHI  32   S  33   S
M  BCL DBI Z Z - - -
M  END
> <ConfClashScore>
0 

> <ConfOneFourInteractionScore>
-0.982824 

> <ConfScore>
-0.0750187 

> <ConfScorePBest>
0.0133475 

> <ConfTolerance>
1.11437 

$$$$
L06.****
  PyMOL2.5          3D                             0

 49 48  0  0  0  0  0  0  0  0999 V2000
   -0.9900    0.5162    2.9075 C   0  0  0  1  0  0  0  0  0  0  0  0
   -2.2925   -0.0661    2.4275 C   0  0  0  1  0  0  0  0  0  0  0  0
   -3.0860    0.4209    2.9549 H   0  0  0  1  0  0  0  0  0  0  0  0
   -2.2944   -1.1097    2.6636 H   0  0  0  1  0  0  0  0  0  0  0  0
    7.4852    5.9073    1.7796 O   0  0  0  1  0  0  0  0  0  0  0  0
    5.1326    5.9755    2.1387 O   0  0  0  1  0  0  0  0  0  0  0  0
    4.8684    4.6507    2.6688 C   0  0  0  1  0  0  0  0  0  0  0  0
    4.8271    4.6819    3.7375 H   0  0  0  1  0  0  0  0  0  0  0  0
    5.6344    3.9701    2.3607 H   0  0  0  1  0  0  0  0  0  0  0  0
    9.7449    6.8652    2.4235 O   0  0  0  0  0  0  0  0  0  0  0  0
    3.5421    4.2248    2.1113 C   0  0  0  1  0  0  0  0  0  0  0  0
    3.3994    4.2743    1.0824 H   0  0  0  1  0  0  0  0  0  0  0  0
    2.5418    3.7877    2.8670 C   0  0  0  1  0  0  0  0  0  0  0  0
    1.3457    3.1022    2.2624 C   0  0  0  1  0  0  0  0  0  0  0  0
    1.3979    3.2229    1.2005 H   0  0  0  1  0  0  0  0  0  0  0  0
    0.4659    3.5849    2.6339 H   0  0  0  1  0  0  0  0  0  0  0  0
    1.2266    1.6165    2.5603 C   0  0  0  1  0  0  0  0  0  0  0  0
    1.3192    1.4724    3.6165 H   0  0  0  1  0  0  0  0  0  0  0  0
    2.0208    1.1039    2.0589 H   0  0  0  1  0  0  0  0  0  0  0  0
   -0.0835    1.0279    2.1095 C   0  0  0  1  0  0  0  0  0  0  0  0
   -0.2848    1.0268    1.0892 H   0  0  0  1  0  0  0  0  0  0  0  0
   -2.5613    0.0784    0.9385 C   0  0  0  1  0  0  0  0  0  0  0  0
   -1.7667   -0.3961    0.4014 H   0  0  0  1  0  0  0  0  0  0  0  0
   -2.5840    1.1203    0.6960 H   0  0  0  1  0  0  0  0  0  0  0  0
   -3.8650   -0.5413    0.5117 C   0  0  0  1  0  0  0  0  0  0  0  0
   -3.9290   -1.5774    0.5763 H   0  0  0  1  0  0  0  0  0  0  0  0
   -4.9430    0.0917    0.0615 C   0  0  0  1  0  0  0  0  0  0  0  0
   -6.2374   -0.5955   -0.2638 C   0  0  0  1  0  0  0  0  0  0  0  0
   -7.0552   -0.0017    0.0875 H   0  0  0  1  0  0  0  0  0  0  0  0
   -6.2619   -1.5534    0.2125 H   0  0  0  1  0  0  0  0  0  0  0  0
   -6.3176   -0.7213   -1.3234 H   0  0  0  1  0  0  0  0  0  0  0  0
    6.4426    6.7996    2.5890 P   0  0  0  1  0  0  0  0  0  0  0  0
    8.9316    6.3025    1.1153 P   0  0  0  1  0  0  0  0  0  0  0  0
    6.3725    8.1742    2.0443 O   0  0  0  0  0  0  0  0  0  0  0  0
    9.6587    4.9614    0.5700 O   0  5  0  1  0  0  0  0  0  0  0  0
    2.4978    3.9261    4.3606 C   0  0  0  1  0  0  0  0  0  0  0  0
    1.5894    4.4133    4.6476 H   0  0  0  1  0  0  0  0  0  0  0  0
    3.3335    4.5078    4.6894 H   0  0  0  1  0  0  0  0  0  0  0  0
    2.5391    2.9558    4.8098 H   0  0  0  1  0  0  0  0  0  0  0  0
   -0.7918    0.4716    4.3966 C   0  0  0  1  0  0  0  0  0  0  0  0
   -0.4916   -0.5133    4.6876 H   0  0  0  1  0  0  0  0  0  0  0  0
   -1.7093    0.7238    4.8860 H   0  0  0  1  0  0  0  0  0  0  0  0
   -0.0334    1.1727    4.6763 H   0  0  0  1  0  0  0  0  0  0  0  0
   -4.9467    1.5780   -0.1607 C   0  0  0  1  0  0  0  0  0  0  0  0
   -5.2169    2.0743    0.7480 H   0  0  0  1  0  0  0  0  0  0  0  0
   -5.6551    1.8224   -0.9245 H   0  0  0  1  0  0  0  0  0  0  0  0
   -3.9709    1.8955   -0.4637 H   0  0  0  1  0  0  0  0  0  0  0  0
    6.6632    6.6118    4.0393 O   0  0  0  1  0  0  0  0  0  0  0  0
    8.8977    7.2847    0.0086 O   0  0  0  1  0  0  0  0  0  0  0  0
  1  2  1  0  0  0  0
  1 20  2  0  0  0  0
  1 40  1  0  0  0  0
  2  3  1  0  0  0  0
  2  4  1  0  0  0  0
  2 22  1  0  0  0  0
  5 32  1  0  0  0  0
  5 33  1  0  0  0  0
  6  7  1  0  0  0  0
  6 32  1  0  0  0  0
  7  8  1  0  0  0  0
  7  9  1  0  0  0  0
  7 11  1  0  0  0  0
 10 33  1  0  0  0  0
 11 12  1  0  0  0  0
 11 13  2  0  0  0  0
 13 14  1  0  0  0  0
 13 36  1  0  0  0  0
 14 15  1  0  0  0  0
 14 16  1  0  0  0  0
 14 17  1  0  0  0  0
 17 18  1  0  0  0  0
 17 19  1  0  0  0  0
 17 20  1  0  0  0  0
 20 21  1  0  0  0  0
 22 23  1  0  0  0  0
 22 24  1  0  0  0  0
 22 25  1  0  0  0  0
 25 26  1  0  0  0  0
 25 27  2  0  0  0  0
 27 28  1  0  0  0  0
 27 44  1  0  0  0  0
 28 29  1  0  0  0  0
 28 30  1  0  0  0  0
 28 31  1  0  0  0  0
 32 34  1  0  0  0  0
 32 48  2  0  0  0  0
 33 35  1  0  0  0  0
 33 49  2  0  0  0  0
 36 37  1  0  0  0  0
 36 38  1  0  0  0  0
 36 39  1  0  0  0  0
 40 41  1  0  0  0  0
 40 42  1  0  0  0  0
 40 43  1  0  0  0  0
 44 45  1  0  0  0  0
 44 46  1  0  0  0  0
 44 47  1  0  0  0  0
M  BCL ATM C_TrTrTrPi C_TeTeTeTe H_S H_S O_Tr2TrTrPi2 O_Tr2TrTrPi2 C_TeTeTeTe H_S H_S O_Te2Te2TeTe C_TrTrTrPi H_S C_TrTrTrPi C_TeTeTeTe H_S H_S C_TeTeTeTe H_S H_S C_TrTrTrPi H_S C_TeTeTeTe H_S H_S C_TrTrTrPi H_S C_TrTrTrPi C_TeTeTeTe H_S H_S H_S P_TeTeTeTePi P_TeTeTeTePi O_Te2Te2TeTe O_Te2Te2Te2Te C_TeTeTeTe H_S H_S H_S C_TeTeTeTe H_S H_S H_S C_TeTeTeTe H_S H_S H_S O_Tr2Tr2TrPi O_Tr2Tr2TrPi
M  BCL BND NonConjugatedSingleBond ConjugatedDoubleBond NonConjugatedSingleBond NonConjugatedSingleBond NonConjugatedSingleBond NonConjugatedSingleBond ConjugatedSingleBond ConjugatedSingleBond NonConjugatedSingleBond ConjugatedSingleBond NonConjugatedSingleBond NonConjugatedSingleBond NonConjugatedSingleBond ConjugatedSingleBond NonConjugatedSingleBond ConjugatedDoubleBond NonConjugatedSingleBond NonConjugatedSingleBond NonConjugatedSingleBond NonConjugatedSingleBond NonConjugatedSingleBond NonConjugatedSingleBond NonConjugatedSingleBond NonConjugatedSingleBond NonConjugatedSingleBond NonConjugatedSingleBond NonConjugatedSingleBond NonConjugatedSingleBond NonConjugatedSingleBond ConjugatedDoubleBond NonConjugatedSingleBond NonConjugatedSingleBond NonConjugatedSingleBond NonConjugatedSingleBond NonConjugatedSingleBond ConjugatedSingleBond ConjugatedDoubleBond ConjugatedSingleBond ConjugatedDoubleBond NonConjugatedSingleBond NonConjugatedSingleBond NonConjugatedSingleBond NonConjugatedSingleBond NonConjugatedSingleBond NonConjugatedSingleBond NonConjugatedSingleBond NonConjugatedSingleBond NonConjugatedSingleBond
M  BCL CHI  32   S  33   S
M  BCL DBI Z Z - - -
M  END
> <ConfClashScore>
0 

> <ConfOneFourInteractionScore>
-0.982537 

> <ConfScore>
-0.0742644 

> <ConfScorePBest>
0.0132445 

> <ConfTolerance>
1.06931 

$$$$
L06.****
  PyMOL2.5          3D                             0

 49 48  0  0  0  0  0  0  0  0999 V2000
   -2.4455   -4.1319    0.1966 C   0  0  0  1  0  0  0  0  0  0  0  0
   -2.5810   -2.6479   -0.0252 C   0  0  0  1  0  0  0  0  0  0  0  0
   -2.7570   -2.4847   -1.0679 H   0  0  0  1  0  0  0  0  0  0  0  0
   -1.6581   -2.1863    0.2578 H   0  0  0  1  0  0  0  0  0  0  0  0
   -5.6255  -11.0951   -0.3980 O   0  0  0  1  0  0  0  0  0  0  0  0
   -5.2832  -10.5017    2.0182 O   0  0  0  1  0  0  0  0  0  0  0  0
   -3.8530  -10.3933    2.0999 C   0  0  0  1  0  0  0  0  0  0  0  0
   -3.3997  -11.0899    1.4259 H   0  0  0  1  0  0  0  0  0  0  0  0
   -3.5322  -10.6027    3.0990 H   0  0  0  1  0  0  0  0  0  0  0  0
   -6.0336   -8.4691   -0.6400 O   0  0  0  0  0  0  0  0  0  0  0  0
   -3.4601   -9.0064    1.7271 C   0  0  0  1  0  0  0  0  0  0  0  0
   -3.8244   -8.5924    0.8453 H   0  0  0  1  0  0  0  0  0  0  0  0
   -2.6527   -8.2877    2.4999 C   0  0  0  1  0  0  0  0  0  0  0  0
   -2.3722   -6.8413    2.2050 C   0  0  0  1  0  0  0  0  0  0  0  0
   -1.3786   -6.7595    1.8165 H   0  0  0  1  0  0  0  0  0  0  0  0
   -2.4457   -6.2873    3.1175 H   0  0  0  1  0  0  0  0  0  0  0  0
   -3.3373   -6.2414    1.1956 C   0  0  0  1  0  0  0  0  0  0  0  0
   -4.3405   -6.4606    1.4962 H   0  0  0  1  0  0  0  0  0  0  0  0
   -3.1507   -6.6711    0.2336 H   0  0  0  1  0  0  0  0  0  0  0  0
   -3.1633   -4.7581    1.1123 C   0  0  0  1  0  0  0  0  0  0  0  0
   -3.6431   -4.1764    1.8285 H   0  0  0  1  0  0  0  0  0  0  0  0
   -3.7024   -1.9713    0.7522 C   0  0  0  1  0  0  0  0  0  0  0  0
   -3.5241   -2.1308    1.7951 H   0  0  0  1  0  0  0  0  0  0  0  0
   -4.6249   -2.4358    0.4724 H   0  0  0  1  0  0  0  0  0  0  0  0
   -3.8415   -0.4896    0.5262 C   0  0  0  1  0  0  0  0  0  0  0  0
   -3.0113    0.0940    0.7539 H   0  0  0  1  0  0  0  0  0  0  0  0
   -4.9089    0.1531    0.0677 C   0  0  0  1  0  0  0  0  0  0  0  0
   -6.1835   -0.5764   -0.2498 C   0  0  0  1  0  0  0  0  0  0  0  0
   -6.9900   -0.1443    0.3049 H   0  0  0  1  0  0  0  0  0  0  0  0
   -6.0799   -1.6075    0.0165 H   0  0  0  1  0  0  0  0  0  0  0  0
   -6.3883   -0.4968   -1.2970 H   0  0  0  1  0  0  0  0  0  0  0  0
   -5.9772  -11.6033    1.0611 P   0  0  0  1  0  0  0  0  0  0  0  0
   -6.1964   -9.9192   -1.3885 P   0  0  0  1  0  0  0  0  0  0  0  0
   -5.3089  -12.9107    1.2450 O   0  0  0  0  0  0  0  0  0  0  0  0
   -5.1175   -9.9060   -2.5970 O   0  5  0  1  0  0  0  0  0  0  0  0
   -1.9544   -8.8285    3.7157 C   0  0  0  1  0  0  0  0  0  0  0  0
   -2.1756   -9.8701    3.8209 H   0  0  0  1  0  0  0  0  0  0  0  0
   -2.2924   -8.3029    4.5842 H   0  0  0  1  0  0  0  0  0  0  0  0
   -0.8979   -8.6977    3.6076 H   0  0  0  1  0  0  0  0  0  0  0  0
   -1.4476   -4.8114   -0.6947 C   0  0  0  1  0  0  0  0  0  0  0  0
   -1.1493   -5.7398   -0.2542 H   0  0  0  1  0  0  0  0  0  0  0  0
   -0.5905   -4.1823   -0.8148 H   0  0  0  1  0  0  0  0  0  0  0  0
   -1.8914   -4.9967   -1.6505 H   0  0  0  1  0  0  0  0  0  0  0  0
   -4.9553    1.6332   -0.1753 C   0  0  0  1  0  0  0  0  0  0  0  0
   -5.5978    2.0937    0.5459 H   0  0  0  1  0  0  0  0  0  0  0  0
   -5.3314    1.8213   -1.1592 H   0  0  0  1  0  0  0  0  0  0  0  0
   -3.9697    2.0402   -0.0859 H   0  0  0  1  0  0  0  0  0  0  0  0
   -7.4306  -11.5004    1.3139 O   0  0  0  1  0  0  0  0  0  0  0  0
   -7.4803  -10.5081   -1.8302 O   0  0  0  1  0  0  0  0  0  0  0  0
  1  2  1  0  0  0  0
  1 20  2  0  0  0  0
  1 40  1  0  0  0  0
  2  3  1  0  0  0  0
  2  4  1  0  0  0  0
  2 22  1  0  0  0  0
  5 32  1  0  0  0  0
  5 33  1  0  0  0  0
  6  7  1  0  0  0  0
  6 32  1  0  0  0  0
  7  8  1  0  0  0  0
  7  9  1  0  0  0  0
  7 11  1  0  0  0  0
 10 33  1  0  0  0  0
 11 12  1  0  0  0  0
 11 13  2  0  0  0  0
 13 14  1  0  0  0  0
 13 36  1  0  0  0  0
 14 15  1  0  0  0  0
 14 16  1  0  0  0  0
 14 17  1  0  0  0  0
 17 18  1  0  0  0  0
 17 19  1  0  0  0  0
 17 20  1  0  0  0  0
 20 21  1  0  0  0  0
 22 23  1  0  0  0  0
 22 24  1  0  0  0  0
 22 25  1  0  0  0  0
 25 26  1  0  0  0  0
 25 27  2  0  0  0  0
 27 28  1  0  0  0  0
 27 44  1  0  0  0  0
 28 29  1  0  0  0  0
 28 30  1  0  0  0  0
 28 31  1  0  0  0  0
 32 34  1  0  0  0  0
 32 48  2  0  0  0  0
 33 35  1  0  0  0  0
 33 49  2  0  0  0  0
 36 37  1  0  0  0  0
 36 38  1  0  0  0  0
 36 39  1  0  0  0  0
 40 41  1  0  0  0  0
 40 42  1  0  0  0  0
 40 43  1  0  0  0  0
 44 45  1  0  0  0  0
 44 46  1  0  0  0  0
 44 47  1  0  0  0  0
M  BCL ATM C_TrTrTrPi C_TeTeTeTe H_S H_S O_Tr2TrTrPi2 O_Tr2TrTrPi2 C_TeTeTeTe H_S H_S O_Te2Te2TeTe C_TrTrTrPi H_S C_TrTrTrPi C_TeTeTeTe H_S H_S C_TeTeTeTe H_S H_S C_TrTrTrPi H_S C_TeTeTeTe H_S H_S C_TrTrTrPi H_S C_TrTrTrPi C_TeTeTeTe H_S H_S H_S P_TeTeTeTePi P_TeTeTeTePi O_Te2Te2TeTe O_Te2Te2Te2Te C_TeTeTeTe H_S H_S H_S C_TeTeTeTe H_S H_S H_S C_TeTeTeTe H_S H_S H_S O_Tr2Tr2TrPi O_Tr2Tr2TrPi
M  BCL BND NonConjugatedSingleBond ConjugatedDoubleBond NonConjugatedSingleBond NonConjugatedSingleBond NonConjugatedSingleBond NonConjugatedSingleBond ConjugatedSingleBond ConjugatedSingleBond NonConjugatedSingleBond ConjugatedSingleBond NonConjugatedSingleBond NonConjugatedSingleBond NonConjugatedSingleBond ConjugatedSingleBond NonConjugatedSingleBond ConjugatedDoubleBond NonConjugatedSingleBond NonConjugatedSingleBond NonConjugatedSingleBond NonConjugatedSingleBond NonConjugatedSingleBond NonConjugatedSingleBond NonConjugatedSingleBond NonConjugatedSingleBond NonConjugatedSingleBond NonConjugatedSingleBond NonConjugatedSingleBond NonConjugatedSingleBond NonConjugatedSingleBond ConjugatedDoubleBond NonConjugatedSingleBond NonConjugatedSingleBond NonConjugatedSingleBond NonConjugatedSingleBond NonConjugatedSingleBond ConjugatedSingleBond ConjugatedDoubleBond ConjugatedSingleBond ConjugatedDoubleBond NonConjugatedSingleBond NonConjugatedSingleBond NonConjugatedSingleBond NonConjugatedSingleBond NonConjugatedSingleBond NonConjugatedSingleBond NonConjugatedSingleBond NonConjugatedSingleBond NonConjugatedSingleBond
M  BCL CHI  32   S  33   S
M  BCL DBI Z Z - - -
M  END
> <ConfClashScore>
0 

> <ConfOneFourInteractionScore>
-0.989137 

> <ConfScore>
-0.0739488 

> <ConfScorePBest>
0.0131415 

> <ConfTolerance>
1.30715 

$$$$
L06.****
  PyMOL2.5          3D                             0

 49 48  0  0  0  0  0  0  0  0999 V2000
   -0.3679    0.2039    1.6425 C   0  0  0  1  0  0  0  0  0  0  0  0
   -1.6514   -0.5433    1.3767 C   0  0  0  1  0  0  0  0  0  0  0  0
   -2.2788   -0.4601    2.2395 H   0  0  0  1  0  0  0  0  0  0  0  0
   -1.4166   -1.5727    1.2037 H   0  0  0  1  0  0  0  0  0  0  0  0
    3.4979    8.4993    5.9507 O   0  0  0  1  0  0  0  0  0  0  0  0
    1.3600    7.2891    5.4764 O   0  0  0  1  0  0  0  0  0  0  0  0
    2.0098    5.9932    5.4121 C   0  0  0  1  0  0  0  0  0  0  0  0
    2.0804    5.5664    6.3907 H   0  0  0  1  0  0  0  0  0  0  0  0
    2.9898    6.0917    4.9939 H   0  0  0  1  0  0  0  0  0  0  0  0
    4.4675    6.4188    7.2564 O   0  0  0  0  0  0  0  0  0  0  0  0
    1.1549    5.1305    4.5311 C   0  0  0  1  0  0  0  0  0  0  0  0
    0.1363    5.1572    4.7391 H   0  0  0  1  0  0  0  0  0  0  0  0
    1.5069    4.3368    3.5236 C   0  0  0  1  0  0  0  0  0  0  0  0
    0.5048    3.3662    2.9694 C   0  0  0  1  0  0  0  0  0  0  0  0
    0.2553    3.6798    1.9773 H   0  0  0  1  0  0  0  0  0  0  0  0
   -0.3685    3.4050    3.5865 H   0  0  0  1  0  0  0  0  0  0  0  0
    0.9672    1.9198    2.9017 C   0  0  0  1  0  0  0  0  0  0  0  0
    1.4378    1.6583    3.8263 H   0  0  0  1  0  0  0  0  0  0  0  0
    1.6689    1.8130    2.1010 H   0  0  0  1  0  0  0  0  0  0  0  0
   -0.1909    1.0034    2.6643 C   0  0  0  1  0  0  0  0  0  0  0  0
   -0.9363    1.0008    3.3896 H   0  0  0  1  0  0  0  0  0  0  0  0
   -2.4115   -0.0114    0.1727 C   0  0  0  1  0  0  0  0  0  0  0  0
   -1.8373   -0.2303   -0.7033 H   0  0  0  1  0  0  0  0  0  0  0  0
   -2.5046    1.0488    0.2830 H   0  0  0  1  0  0  0  0  0  0  0  0
   -3.7825   -0.5773   -0.0211 C   0  0  0  1  0  0  0  0  0  0  0  0
   -3.8420   -1.6027   -0.1840 H   0  0  0  1  0  0  0  0  0  0  0  0
   -4.9325    0.0881   -0.0076 C   0  0  0  1  0  0  0  0  0  0  0  0
   -6.2726   -0.5609   -0.1989 C   0  0  0  1  0  0  0  0  0  0  0  0
   -6.7941   -0.0750   -0.9969 H   0  0  0  1  0  0  0  0  0  0  0  0
   -6.8419   -0.4755    0.7030 H   0  0  0  1  0  0  0  0  0  0  0  0
   -6.1369   -1.5947   -0.4391 H   0  0  0  1  0  0  0  0  0  0  0  0
    1.9584    8.4635    6.3866 P   0  0  0  1  0  0  0  0  0  0  0  0
    4.8169    7.5376    6.1092 P   0  0  0  1  0  0  0  0  0  0  0  0
    1.3026    9.7469    5.9868 O   0  0  0  0  0  0  0  0  0  0  0  0
    5.0745    6.7011    4.7460 O   0  5  0  1  0  0  0  0  0  0  0  0
    2.8545    4.3113    2.8589 C   0  0  0  1  0  0  0  0  0  0  0  0
    3.6160    4.4921    3.5884 H   0  0  0  1  0  0  0  0  0  0  0  0
    2.8949    5.0703    2.1058 H   0  0  0  1  0  0  0  0  0  0  0  0
    3.0119    3.3532    2.4092 H   0  0  0  1  0  0  0  0  0  0  0  0
    0.7198   -0.0354    0.6334 C   0  0  0  1  0  0  0  0  0  0  0  0
    0.2868   -0.3713   -0.2856 H   0  0  0  1  0  0  0  0  0  0  0  0
    1.3921   -0.7807    1.0041 H   0  0  0  1  0  0  0  0  0  0  0  0
    1.2548    0.8755    0.4634 H   0  0  0  1  0  0  0  0  0  0  0  0
   -4.9783    1.5751    0.2051 C   0  0  0  1  0  0  0  0  0  0  0  0
   -5.6952    1.8052    0.9654 H   0  0  0  1  0  0  0  0  0  0  0  0
   -5.2597    2.0572   -0.7077 H   0  0  0  1  0  0  0  0  0  0  0  0
   -4.0127    1.9215    0.5091 H   0  0  0  1  0  0  0  0  0  0  0  0
    1.9058    7.9985    7.7850 O   0  0  0  1  0  0  0  0  0  0  0  0
    5.9363    8.4113    6.5261 O   0  0  0  1  0  0  0  0  0  0  0  0
  1  2  1  0  0  0  0
  1 20  2  0  0  0  0
  1 40  1  0  0  0  0
  2  3  1  0  0  0  0
  2  4  1  0  0  0  0
  2 22  1  0  0  0  0
  5 32  1  0  0  0  0
  5 33  1  0  0  0  0
  6  7  1  0  0  0  0
  6 32  1  0  0  0  0
  7  8  1  0  0  0  0
  7  9  1  0  0  0  0
  7 11  1  0  0  0  0
 10 33  1  0  0  0  0
 11 12  1  0  0  0  0
 11 13  2  0  0  0  0
 13 14  1  0  0  0  0
 13 36  1  0  0  0  0
 14 15  1  0  0  0  0
 14 16  1  0  0  0  0
 14 17  1  0  0  0  0
 17 18  1  0  0  0  0
 17 19  1  0  0  0  0
 17 20  1  0  0  0  0
 20 21  1  0  0  0  0
 22 23  1  0  0  0  0
 22 24  1  0  0  0  0
 22 25  1  0  0  0  0
 25 26  1  0  0  0  0
 25 27  2  0  0  0  0
 27 28  1  0  0  0  0
 27 44  1  0  0  0  0
 28 29  1  0  0  0  0
 28 30  1  0  0  0  0
 28 31  1  0  0  0  0
 32 34  1  0  0  0  0
 32 48  2  0  0  0  0
 33 35  1  0  0  0  0
 33 49  2  0  0  0  0
 36 37  1  0  0  0  0
 36 38  1  0  0  0  0
 36 39  1  0  0  0  0
 40 41  1  0  0  0  0
 40 42  1  0  0  0  0
 40 43  1  0  0  0  0
 44 45  1  0  0  0  0
 44 46  1  0  0  0  0
 44 47  1  0  0  0  0
M  BCL ATM C_TrTrTrPi C_TeTeTeTe H_S H_S O_Tr2TrTrPi2 O_Tr2TrTrPi2 C_TeTeTeTe H_S H_S O_Te2Te2TeTe C_TrTrTrPi H_S C_TrTrTrPi C_TeTeTeTe H_S H_S C_TeTeTeTe H_S H_S C_TrTrTrPi H_S C_TeTeTeTe H_S H_S C_TrTrTrPi H_S C_TrTrTrPi C_TeTeTeTe H_S H_S H_S P_TeTeTeTePi P_TeTeTeTePi O_Te2Te2TeTe O_Te2Te2Te2Te C_TeTeTeTe H_S H_S H_S C_TeTeTeTe H_S H_S H_S C_TeTeTeTe H_S H_S H_S O_Tr2Tr2TrPi O_Tr2Tr2TrPi
M  BCL BND NonConjugatedSingleBond ConjugatedDoubleBond NonConjugatedSingleBond NonConjugatedSingleBond NonConjugatedSingleBond NonConjugatedSingleBond ConjugatedSingleBond ConjugatedSingleBond NonConjugatedSingleBond ConjugatedSingleBond NonConjugatedSingleBond NonConjugatedSingleBond NonConjugatedSingleBond ConjugatedSingleBond NonConjugatedSingleBond ConjugatedDoubleBond NonConjugatedSingleBond NonConjugatedSingleBond NonConjugatedSingleBond NonConjugatedSingleBond NonConjugatedSingleBond NonConjugatedSingleBond NonConjugatedSingleBond NonConjugatedSingleBond NonConjugatedSingleBond NonConjugatedSingleBond NonConjugatedSingleBond NonConjugatedSingleBond NonConjugatedSingleBond ConjugatedDoubleBond NonConjugatedSingleBond NonConjugatedSingleBond NonConjugatedSingleBond NonConjugatedSingleBond NonConjugatedSingleBond ConjugatedSingleBond ConjugatedDoubleBond ConjugatedSingleBond ConjugatedDoubleBond NonConjugatedSingleBond NonConjugatedSingleBond NonConjugatedSingleBond NonConjugatedSingleBond NonConjugatedSingleBond NonConjugatedSingleBond NonConjugatedSingleBond NonConjugatedSingleBond NonConjugatedSingleBond
M  BCL CHI  32   S  33   S
M  BCL DBI Z Z - - -
M  END
> <ConfClashScore>
0 

> <ConfOneFourInteractionScore>
-0.970051 

> <ConfScore>
-0.0721902 

> <ConfScorePBest>
0.0130385 

> <ConfTolerance>
1.26855 

$$$$
L06.****
  PyMOL2.5          3D                             0

 49 48  0  0  0  0  0  0  0  0999 V2000
   -0.1740   -0.2871   -1.3109 C   0  0  0  1  0  0  0  0  0  0  0  0
   -1.6370   -0.6336   -1.3851 C   0  0  0  1  0  0  0  0  0  0  0  0
   -1.7443   -1.6978   -1.4164 H   0  0  0  1  0  0  0  0  0  0  0  0
   -2.0542   -0.2063   -2.2729 H   0  0  0  1  0  0  0  0  0  0  0  0
    8.2351    2.6686   -2.3404 O   0  0  0  1  0  0  0  0  0  0  0  0
    6.8673    0.9105   -1.3502 O   0  0  0  1  0  0  0  0  0  0  0  0
    6.5598   -0.4261   -0.8762 C   0  0  0  1  0  0  0  0  0  0  0  0
    6.7142   -0.4955    0.1803 H   0  0  0  1  0  0  0  0  0  0  0  0
    7.1685   -1.1514   -1.3745 H   0  0  0  1  0  0  0  0  0  0  0  0
    6.9526    1.2160   -4.1363 O   0  0  0  0  0  0  0  0  0  0  0  0
    5.1129   -0.6316   -1.2123 C   0  0  0  1  0  0  0  0  0  0  0  0
    4.4402   -0.1222   -0.6043 H   0  0  0  1  0  0  0  0  0  0  0  0
    4.5629   -1.3682   -2.1717 C   0  0  0  1  0  0  0  0  0  0  0  0
    3.0821   -1.4797   -2.3908 C   0  0  0  1  0  0  0  0  0  0  0  0
    2.8328   -2.5129   -2.5136 H   0  0  0  1  0  0  0  0  0  0  0  0
    2.8281   -0.9428   -3.2808 H   0  0  0  1  0  0  0  0  0  0  0  0
    2.2657   -0.9187   -1.2379 C   0  0  0  1  0  0  0  0  0  0  0  0
    2.4138    0.1407   -1.2133 H   0  0  0  1  0  0  0  0  0  0  0  0
    2.6337   -1.3520   -0.3313 H   0  0  0  1  0  0  0  0  0  0  0  0
    0.7848   -1.1790   -1.3092 C   0  0  0  1  0  0  0  0  0  0  0  0
    0.4912   -2.1753   -1.3629 H   0  0  0  1  0  0  0  0  0  0  0  0
   -2.3809   -0.0931   -0.1748 C   0  0  0  1  0  0  0  0  0  0  0  0
   -2.3919    0.9753   -0.2310 H   0  0  0  1  0  0  0  0  0  0  0  0
   -1.8611   -0.3990    0.7090 H   0  0  0  1  0  0  0  0  0  0  0  0
   -3.7883   -0.5783   -0.0896 C   0  0  0  1  0  0  0  0  0  0  0  0
   -3.9013   -1.6122   -0.0915 H   0  0  0  1  0  0  0  0  0  0  0  0
   -4.9185    0.1140   -0.0117 C   0  0  0  1  0  0  0  0  0  0  0  0
   -6.2579   -0.5780    0.1090 C   0  0  0  1  0  0  0  0  0  0  0  0
   -6.1075   -1.6328    0.2067 H   0  0  0  1  0  0  0  0  0  0  0  0
   -6.8412   -0.3806   -0.7661 H   0  0  0  1  0  0  0  0  0  0  0  0
   -6.7727   -0.2100    0.9718 H   0  0  0  1  0  0  0  0  0  0  0  0
    8.3372    1.4691   -1.2907 P   0  0  0  1  0  0  0  0  0  0  0  0
    7.0705    2.7204   -3.4940 P   0  0  0  1  0  0  0  0  0  0  0  0
    8.6845    1.9973    0.0685 O   0  0  0  0  0  0  0  0  0  0  0  0
    5.7266    3.0587   -2.6551 O   0  5  0  1  0  0  0  0  0  0  0  0
    5.4025   -2.1633   -3.1316 C   0  0  0  1  0  0  0  0  0  0  0  0
    5.3609   -1.7121   -4.1009 H   0  0  0  1  0  0  0  0  0  0  0  0
    5.0282   -3.1641   -3.1880 H   0  0  0  1  0  0  0  0  0  0  0  0
    6.4161   -2.1798   -2.7893 H   0  0  0  1  0  0  0  0  0  0  0  0
    0.1209    1.1846   -1.2372 C   0  0  0  1  0  0  0  0  0  0  0  0
    1.1387    1.3594   -1.5175 H   0  0  0  1  0  0  0  0  0  0  0  0
   -0.0377    1.5303   -0.2371 H   0  0  0  1  0  0  0  0  0  0  0  0
   -0.5281    1.7121   -1.9046 H   0  0  0  1  0  0  0  0  0  0  0  0
   -4.9859    1.6130   -0.0344 C   0  0  0  1  0  0  0  0  0  0  0  0
   -4.0349    2.0089   -0.3237 H   0  0  0  1  0  0  0  0  0  0  0  0
   -5.2403    1.9731    0.9405 H   0  0  0  1  0  0  0  0  0  0  0  0
   -5.7306    1.9257   -0.7362 H   0  0  0  1  0  0  0  0  0  0  0  0
    9.2374    0.3982   -1.8253 O   0  0  0  1  0  0  0  0  0  0  0  0
    7.2827    3.8715   -4.3997 O   0  0  0  1  0  0  0  0  0  0  0  0
  1  2  1  0  0  0  0
  1 20  2  0  0  0  0
  1 40  1  0  0  0  0
  2  3  1  0  0  0  0
  2  4  1  0  0  0  0
  2 22  1  0  0  0  0
  5 32  1  0  0  0  0
  5 33  1  0  0  0  0
  6  7  1  0  0  0  0
  6 32  1  0  0  0  0
  7  8  1  0  0  0  0
  7  9  1  0  0  0  0
  7 11  1  0  0  0  0
 10 33  1  0  0  0  0
 11 12  1  0  0  0  0
 11 13  2  0  0  0  0
 13 14  1  0  0  0  0
 13 36  1  0  0  0  0
 14 15  1  0  0  0  0
 14 16  1  0  0  0  0
 14 17  1  0  0  0  0
 17 18  1  0  0  0  0
 17 19  1  0  0  0  0
 17 20  1  0  0  0  0
 20 21  1  0  0  0  0
 22 23  1  0  0  0  0
 22 24  1  0  0  0  0
 22 25  1  0  0  0  0
 25 26  1  0  0  0  0
 25 27  2  0  0  0  0
 27 28  1  0  0  0  0
 27 44  1  0  0  0  0
 28 29  1  0  0  0  0
 28 30  1  0  0  0  0
 28 31  1  0  0  0  0
 32 34  1  0  0  0  0
 32 48  2  0  0  0  0
 33 35  1  0  0  0  0
 33 49  2  0  0  0  0
 36 37  1  0  0  0  0
 36 38  1  0  0  0  0
 36 39  1  0  0  0  0
 40 41  1  0  0  0  0
 40 42  1  0  0  0  0
 40 43  1  0  0  0  0
 44 45  1  0  0  0  0
 44 46  1  0  0  0  0
 44 47  1  0  0  0  0
M  BCL ATM C_TrTrTrPi C_TeTeTeTe H_S H_S O_Tr2TrTrPi2 O_Tr2TrTrPi2 C_TeTeTeTe H_S H_S O_Te2Te2TeTe C_TrTrTrPi H_S C_TrTrTrPi C_TeTeTeTe H_S H_S C_TeTeTeTe H_S H_S C_TrTrTrPi H_S C_TeTeTeTe H_S H_S C_TrTrTrPi H_S C_TrTrTrPi C_TeTeTeTe H_S H_S H_S P_TeTeTeTePi P_TeTeTeTePi O_Te2Te2TeTe O_Te2Te2Te2Te C_TeTeTeTe H_S H_S H_S C_TeTeTeTe H_S H_S H_S C_TeTeTeTe H_S H_S H_S O_Tr2Tr2TrPi O_Tr2Tr2TrPi
M  BCL BND NonConjugatedSingleBond ConjugatedDoubleBond NonConjugatedSingleBond NonConjugatedSingleBond NonConjugatedSingleBond NonConjugatedSingleBond ConjugatedSingleBond ConjugatedSingleBond NonConjugatedSingleBond ConjugatedSingleBond NonConjugatedSingleBond NonConjugatedSingleBond NonConjugatedSingleBond ConjugatedSingleBond NonConjugatedSingleBond ConjugatedDoubleBond NonConjugatedSingleBond NonConjugatedSingleBond NonConjugatedSingleBond NonConjugatedSingleBond NonConjugatedSingleBond NonConjugatedSingleBond NonConjugatedSingleBond NonConjugatedSingleBond NonConjugatedSingleBond NonConjugatedSingleBond NonConjugatedSingleBond NonConjugatedSingleBond NonConjugatedSingleBond ConjugatedDoubleBond NonConjugatedSingleBond NonConjugatedSingleBond NonConjugatedSingleBond NonConjugatedSingleBond NonConjugatedSingleBond ConjugatedSingleBond ConjugatedDoubleBond ConjugatedSingleBond ConjugatedDoubleBond NonConjugatedSingleBond NonConjugatedSingleBond NonConjugatedSingleBond NonConjugatedSingleBond NonConjugatedSingleBond NonConjugatedSingleBond NonConjugatedSingleBond NonConjugatedSingleBond NonConjugatedSingleBond
M  BCL CHI  32   S  33   S
M  BCL DBI Z Z - - -
M  END
> <ConfClashScore>
0 

> <ConfOneFourInteractionScore>
-0.982867 

> <ConfScore>
-0.0717222 

> <ConfScorePBest>
0.0129355 

> <ConfTolerance>
1.17572 

$$$$
L06.****
  PyMOL2.5          3D                             0

 49 48  0  0  0  0  0  0  0  0999 V2000
   -1.2935   -2.1864   -0.1608 C   0  0  0  1  0  0  0  0  0  0  0  0
   -2.7012   -2.6953   -0.0152 C   0  0  0  1  0  0  0  0  0  0  0  0
   -2.6544   -3.6841    0.3910 H   0  0  0  1  0  0  0  0  0  0  0  0
   -3.1422   -2.7299   -0.9895 H   0  0  0  1  0  0  0  0  0  0  0  0
    4.4664    3.9675   -0.7179 O   0  0  0  1  0  0  0  0  0  0  0  0
    3.7088    2.2765   -2.4286 O   0  0  0  1  0  0  0  0  0  0  0  0
    3.9211    1.0665   -1.6748 C   0  0  0  1  0  0  0  0  0  0  0  0
    3.9327    1.2814   -0.6267 H   0  0  0  1  0  0  0  0  0  0  0  0
    4.8486    0.6136   -1.9568 H   0  0  0  1  0  0  0  0  0  0  0  0
    5.4560    5.1628    1.4852 O   0  0  0  0  0  0  0  0  0  0  0  0
    2.7774    0.1528   -2.0036 C   0  0  0  1  0  0  0  0  0  0  0  0
    1.8250    0.5687   -1.9620 H   0  0  0  1  0  0  0  0  0  0  0  0
    2.8498   -1.1411   -2.3450 C   0  0  0  1  0  0  0  0  0  0  0  0
    1.5971   -1.9698   -2.3075 C   0  0  0  1  0  0  0  0  0  0  0  0
    1.7957   -2.8825   -1.7855 H   0  0  0  1  0  0  0  0  0  0  0  0
    1.2922   -2.1903   -3.3092 H   0  0  0  1  0  0  0  0  0  0  0  0
    0.4741   -1.2209   -1.5961 C   0  0  0  1  0  0  0  0  0  0  0  0
    0.2151   -0.3707   -2.1920 H   0  0  0  1  0  0  0  0  0  0  0  0
    0.8453   -0.8927   -0.6477 H   0  0  0  1  0  0  0  0  0  0  0  0
   -0.7702   -2.0111   -1.3554 C   0  0  0  1  0  0  0  0  0  0  0  0
   -1.2466   -2.4441   -2.1722 H   0  0  0  1  0  0  0  0  0  0  0  0
   -3.6055   -1.8632    0.8794 C   0  0  0  1  0  0  0  0  0  0  0  0
   -3.1815   -1.8361    1.8615 H   0  0  0  1  0  0  0  0  0  0  0  0
   -4.5679   -2.3291    0.9186 H   0  0  0  1  0  0  0  0  0  0  0  0
   -3.7762   -0.4581    0.3956 C   0  0  0  1  0  0  0  0  0  0  0  0
   -2.9119    0.1159    0.3246 H   0  0  0  1  0  0  0  0  0  0  0  0
   -4.9122    0.1361    0.0468 C   0  0  0  1  0  0  0  0  0  0  0  0
   -6.2383   -0.5682   -0.0099 C   0  0  0  1  0  0  0  0  0  0  0  0
   -6.9048   -0.1328    0.7050 H   0  0  0  1  0  0  0  0  0  0  0  0
   -6.1011   -1.6050    0.2160 H   0  0  0  1  0  0  0  0  0  0  0  0
   -6.6532   -0.4683   -0.9911 H   0  0  0  1  0  0  0  0  0  0  0  0
    4.5225    3.6039   -2.2580 P   0  0  0  1  0  0  0  0  0  0  0  0
    5.1553    5.3297   -0.1183 P   0  0  0  1  0  0  0  0  0  0  0  0
    5.9425    3.5594   -2.6529 O   0  0  0  0  0  0  0  0  0  0  0  0
    6.6084    5.4038   -0.8306 O   0  5  0  1  0  0  0  0  0  0  0  0
    4.1165   -1.7885   -2.7585 C   0  0  0  1  0  0  0  0  0  0  0  0
    4.9275   -1.1030   -2.6272 H   0  0  0  1  0  0  0  0  0  0  0  0
    4.0524   -2.0717   -3.7884 H   0  0  0  1  0  0  0  0  0  0  0  0
    4.2845   -2.6585   -2.1587 H   0  0  0  1  0  0  0  0  0  0  0  0
   -0.5552   -1.8000    1.0606 C   0  0  0  1  0  0  0  0  0  0  0  0
   -0.8850   -0.8360    1.3873 H   0  0  0  1  0  0  0  0  0  0  0  0
    0.4928   -1.7650    0.8476 H   0  0  0  1  0  0  0  0  0  0  0  0
   -0.7392   -2.5196    1.8309 H   0  0  0  1  0  0  0  0  0  0  0  0
   -4.9563    1.5893   -0.3253 C   0  0  0  1  0  0  0  0  0  0  0  0
   -3.9945    2.0290   -0.1625 H   0  0  0  1  0  0  0  0  0  0  0  0
   -5.6839    2.0899    0.2787 H   0  0  0  1  0  0  0  0  0  0  0  0
   -5.2220    1.6850   -1.3574 H   0  0  0  1  0  0  0  0  0  0  0  0
    3.7734    4.6116   -3.0607 O   0  0  0  1  0  0  0  0  0  0  0  0
    4.3495    6.4988   -0.5357 O   0  0  0  1  0  0  0  0  0  0  0  0
  1  2  1  0  0  0  0
  1 20  2  0  0  0  0
  1 40  1  0  0  0  0
  2  3  1  0  0  0  0
  2  4  1  0  0  0  0
  2 22  1  0  0  0  0
  5 32  1  0  0  0  0
  5 33  1  0  0  0  0
  6  7  1  0  0  0  0
  6 32  1  0  0  0  0
  7  8  1  0  0  0  0
  7  9  1  0  0  0  0
  7 11  1  0  0  0  0
 10 33  1  0  0  0  0
 11 12  1  0  0  0  0
 11 13  2  0  0  0  0
 13 14  1  0  0  0  0
 13 36  1  0  0  0  0
 14 15  1  0  0  0  0
 14 16  1  0  0  0  0
 14 17  1  0  0  0  0
 17 18  1  0  0  0  0
 17 19  1  0  0  0  0
 17 20  1  0  0  0  0
 20 21  1  0  0  0  0
 22 23  1  0  0  0  0
 22 24  1  0  0  0  0
 22 25  1  0  0  0  0
 25 26  1  0  0  0  0
 25 27  2  0  0  0  0
 27 28  1  0  0  0  0
 27 44  1  0  0  0  0
 28 29  1  0  0  0  0
 28 30  1  0  0  0  0
 28 31  1  0  0  0  0
 32 34  1  0  0  0  0
 32 48  2  0  0  0  0
 33 35  1  0  0  0  0
 33 49  2  0  0  0  0
 36 37  1  0  0  0  0
 36 38  1  0  0  0  0
 36 39  1  0  0  0  0
 40 41  1  0  0  0  0
 40 42  1  0  0  0  0
 40 43  1  0  0  0  0
 44 45  1  0  0  0  0
 44 46  1  0  0  0  0
 44 47  1  0  0  0  0
M  BCL ATM C_TrTrTrPi C_TeTeTeTe H_S H_S O_Tr2TrTrPi2 O_Tr2TrTrPi2 C_TeTeTeTe H_S H_S O_Te2Te2TeTe C_TrTrTrPi H_S C_TrTrTrPi C_TeTeTeTe H_S H_S C_TeTeTeTe H_S H_S C_TrTrTrPi H_S C_TeTeTeTe H_S H_S C_TrTrTrPi H_S C_TrTrTrPi C_TeTeTeTe H_S H_S H_S P_TeTeTeTePi P_TeTeTeTePi O_Te2Te2TeTe O_Te2Te2Te2Te C_TeTeTeTe H_S H_S H_S C_TeTeTeTe H_S H_S H_S C_TeTeTeTe H_S H_S H_S O_Tr2Tr2TrPi O_Tr2Tr2TrPi
M  BCL BND NonConjugatedSingleBond ConjugatedDoubleBond NonConjugatedSingleBond NonConjugatedSingleBond NonConjugatedSingleBond NonConjugatedSingleBond ConjugatedSingleBond ConjugatedSingleBond NonConjugatedSingleBond ConjugatedSingleBond NonConjugatedSingleBond NonConjugatedSingleBond NonConjugatedSingleBond ConjugatedSingleBond NonConjugatedSingleBond ConjugatedDoubleBond NonConjugatedSingleBond NonConjugatedSingleBond NonConjugatedSingleBond NonConjugatedSingleBond NonConjugatedSingleBond NonConjugatedSingleBond NonConjugatedSingleBond NonConjugatedSingleBond NonConjugatedSingleBond NonConjugatedSingleBond NonConjugatedSingleBond NonConjugatedSingleBond NonConjugatedSingleBond ConjugatedDoubleBond NonConjugatedSingleBond NonConjugatedSingleBond NonConjugatedSingleBond NonConjugatedSingleBond NonConjugatedSingleBond ConjugatedSingleBond ConjugatedDoubleBond ConjugatedSingleBond ConjugatedDoubleBond NonConjugatedSingleBond NonConjugatedSingleBond NonConjugatedSingleBond NonConjugatedSingleBond NonConjugatedSingleBond NonConjugatedSingleBond NonConjugatedSingleBond NonConjugatedSingleBond NonConjugatedSingleBond
M  BCL CHI  32   S  33   S
M  BCL DBI Z Z - - -
M  END
> <ConfClashScore>
0 

> <ConfOneFourInteractionScore>
-0.97156 

> <ConfScore>
-0.0673959 

> <ConfScorePBest>
0.0128325 

> <ConfTolerance>
1.33758 

$$$$
L06.****
  PyMOL2.5          3D                             0

 49 48  0  0  0  0  0  0  0  0999 V2000
   -2.4390   -4.0858    0.6235 C   0  0  0  1  0  0  0  0  0  0  0  0
   -2.7128   -2.6634    0.2165 C   0  0  0  1  0  0  0  0  0  0  0  0
   -3.0519   -2.6804   -0.7983 H   0  0  0  1  0  0  0  0  0  0  0  0
   -1.7872   -2.1298    0.2749 H   0  0  0  1  0  0  0  0  0  0  0  0
   -7.5854   -5.9378   -3.9507 O   0  0  0  1  0  0  0  0  0  0  0  0
   -6.9021   -7.2245   -1.8606 O   0  0  0  1  0  0  0  0  0  0  0  0
   -5.5419   -6.7680   -1.7892 C   0  0  0  1  0  0  0  0  0  0  0  0
   -5.4343   -5.8659   -2.3545 H   0  0  0  1  0  0  0  0  0  0  0  0
   -4.8889   -7.5176   -2.1850 H   0  0  0  1  0  0  0  0  0  0  0  0
   -7.7133   -6.7914   -6.4946 O   0  0  0  0  0  0  0  0  0  0  0  0
   -5.1997   -6.5075   -0.3518 C   0  0  0  1  0  0  0  0  0  0  0  0
   -5.7159   -5.7476    0.1357 H   0  0  0  1  0  0  0  0  0  0  0  0
   -4.2854   -7.1759    0.3455 C   0  0  0  1  0  0  0  0  0  0  0  0
   -4.1438   -6.9088    1.8147 C   0  0  0  1  0  0  0  0  0  0  0  0
   -4.0687   -7.8408    2.3351 H   0  0  0  1  0  0  0  0  0  0  0  0
   -5.0055   -6.3759    2.1590 H   0  0  0  1  0  0  0  0  0  0  0  0
   -2.9007   -6.0802    2.0945 C   0  0  0  1  0  0  0  0  0  0  0  0
   -2.0686   -6.5370    1.6006 H   0  0  0  1  0  0  0  0  0  0  0  0
   -2.7281   -6.0709    3.1505 H   0  0  0  1  0  0  0  0  0  0  0  0
   -3.0189   -4.6714    1.6206 C   0  0  0  1  0  0  0  0  0  0  0  0
   -3.6630   -4.0706    2.1736 H   0  0  0  1  0  0  0  0  0  0  0  0
   -3.7379   -1.8857    1.0255 C   0  0  0  1  0  0  0  0  0  0  0  0
   -3.4502   -1.9127    2.0558 H   0  0  0  1  0  0  0  0  0  0  0  0
   -4.6919   -2.3561    0.9087 H   0  0  0  1  0  0  0  0  0  0  0  0
   -3.8568   -0.4563    0.6016 C   0  0  0  1  0  0  0  0  0  0  0  0
   -3.0138    0.1383    0.7343 H   0  0  0  1  0  0  0  0  0  0  0  0
   -4.9225    0.1364    0.0739 C   0  0  0  1  0  0  0  0  0  0  0  0
   -6.1879   -0.5885   -0.2819 C   0  0  0  1  0  0  0  0  0  0  0  0
   -7.0133   -0.1378    0.2284 H   0  0  0  1  0  0  0  0  0  0  0  0
   -6.1053   -1.6144    0.0107 H   0  0  0  1  0  0  0  0  0  0  0  0
   -6.3472   -0.5301   -1.3384 H   0  0  0  1  0  0  0  0  0  0  0  0
   -7.6516   -7.3260   -3.2502 P   0  0  0  1  0  0  0  0  0  0  0  0
   -7.2790   -5.5503   -5.5146 P   0  0  0  1  0  0  0  0  0  0  0  0
   -6.8451   -8.3497   -4.0548 O   0  0  0  0  0  0  0  0  0  0  0  0
   -8.3655   -4.4048   -5.8778 O   0  5  0  1  0  0  0  0  0  0  0  0
   -3.3452   -8.2093   -0.2082 C   0  0  0  1  0  0  0  0  0  0  0  0
   -3.5964   -8.4105   -1.2287 H   0  0  0  1  0  0  0  0  0  0  0  0
   -3.4285   -9.1099    0.3636 H   0  0  0  1  0  0  0  0  0  0  0  0
   -2.3412   -7.8433   -0.1538 H   0  0  0  1  0  0  0  0  0  0  0  0
   -1.4170   -4.8029   -0.2300 C   0  0  0  1  0  0  0  0  0  0  0  0
   -0.4675   -4.3192   -0.1323 H   0  0  0  1  0  0  0  0  0  0  0  0
   -1.7265   -4.7771   -1.2539 H   0  0  0  1  0  0  0  0  0  0  0  0
   -1.3338   -5.8198    0.0925 H   0  0  0  1  0  0  0  0  0  0  0  0
   -4.9406    1.6094   -0.2125 C   0  0  0  1  0  0  0  0  0  0  0  0
   -4.9127    2.1527    0.7088 H   0  0  0  1  0  0  0  0  0  0  0  0
   -5.8343    1.8578   -0.7459 H   0  0  0  1  0  0  0  0  0  0  0  0
   -4.0877    1.8679   -0.8047 H   0  0  0  1  0  0  0  0  0  0  0  0
   -9.0815   -7.6834   -3.1001 O   0  0  0  1  0  0  0  0  0  0  0  0
   -5.9522   -4.9865   -5.8494 O   0  0  0  1  0  0  0  0  0  0  0  0
  1  2  1  0  0  0  0
  1 20  2  0  0  0  0
  1 40  1  0  0  0  0
  2  3  1  0  0  0  0
  2  4  1  0  0  0  0
  2 22  1  0  0  0  0
  5 32  1  0  0  0  0
  5 33  1  0  0  0  0
  6  7  1  0  0  0  0
  6 32  1  0  0  0  0
  7  8  1  0  0  0  0
  7  9  1  0  0  0  0
  7 11  1  0  0  0  0
 10 33  1  0  0  0  0
 11 12  1  0  0  0  0
 11 13  2  0  0  0  0
 13 14  1  0  0  0  0
 13 36  1  0  0  0  0
 14 15  1  0  0  0  0
 14 16  1  0  0  0  0
 14 17  1  0  0  0  0
 17 18  1  0  0  0  0
 17 19  1  0  0  0  0
 17 20  1  0  0  0  0
 20 21  1  0  0  0  0
 22 23  1  0  0  0  0
 22 24  1  0  0  0  0
 22 25  1  0  0  0  0
 25 26  1  0  0  0  0
 25 27  2  0  0  0  0
 27 28  1  0  0  0  0
 27 44  1  0  0  0  0
 28 29  1  0  0  0  0
 28 30  1  0  0  0  0
 28 31  1  0  0  0  0
 32 34  1  0  0  0  0
 32 48  2  0  0  0  0
 33 35  1  0  0  0  0
 33 49  2  0  0  0  0
 36 37  1  0  0  0  0
 36 38  1  0  0  0  0
 36 39  1  0  0  0  0
 40 41  1  0  0  0  0
 40 42  1  0  0  0  0
 40 43  1  0  0  0  0
 44 45  1  0  0  0  0
 44 46  1  0  0  0  0
 44 47  1  0  0  0  0
M  BCL ATM C_TrTrTrPi C_TeTeTeTe H_S H_S O_Tr2TrTrPi2 O_Tr2TrTrPi2 C_TeTeTeTe H_S H_S O_Te2Te2TeTe C_TrTrTrPi H_S C_TrTrTrPi C_TeTeTeTe H_S H_S C_TeTeTeTe H_S H_S C_TrTrTrPi H_S C_TeTeTeTe H_S H_S C_TrTrTrPi H_S C_TrTrTrPi C_TeTeTeTe H_S H_S H_S P_TeTeTeTePi P_TeTeTeTePi O_Te2Te2TeTe O_Te2Te2Te2Te C_TeTeTeTe H_S H_S H_S C_TeTeTeTe H_S H_S H_S C_TeTeTeTe H_S H_S H_S O_Tr2Tr2TrPi O_Tr2Tr2TrPi
M  BCL BND NonConjugatedSingleBond ConjugatedDoubleBond NonConjugatedSingleBond NonConjugatedSingleBond NonConjugatedSingleBond NonConjugatedSingleBond ConjugatedSingleBond ConjugatedSingleBond NonConjugatedSingleBond ConjugatedSingleBond NonConjugatedSingleBond NonConjugatedSingleBond NonConjugatedSingleBond ConjugatedSingleBond NonConjugatedSingleBond ConjugatedDoubleBond NonConjugatedSingleBond NonConjugatedSingleBond NonConjugatedSingleBond NonConjugatedSingleBond NonConjugatedSingleBond NonConjugatedSingleBond NonConjugatedSingleBond NonConjugatedSingleBond NonConjugatedSingleBond NonConjugatedSingleBond NonConjugatedSingleBond NonConjugatedSingleBond NonConjugatedSingleBond ConjugatedDoubleBond NonConjugatedSingleBond NonConjugatedSingleBond NonConjugatedSingleBond NonConjugatedSingleBond NonConjugatedSingleBond ConjugatedSingleBond ConjugatedDoubleBond ConjugatedSingleBond ConjugatedDoubleBond NonConjugatedSingleBond NonConjugatedSingleBond NonConjugatedSingleBond NonConjugatedSingleBond NonConjugatedSingleBond NonConjugatedSingleBond NonConjugatedSingleBond NonConjugatedSingleBond NonConjugatedSingleBond
M  BCL CHI  32   S  33   S
M  BCL DBI Z Z - - -
M  END
> <ConfClashScore>
0 

> <ConfOneFourInteractionScore>
-0.982537 

> <ConfScore>
-0.065251 

> <ConfScorePBest>
0.0127295 

> <ConfTolerance>
1.3851 

$$$$
L06.****
  PyMOL2.5          3D                             0

 49 48  0  0  0  0  0  0  0  0999 V2000
   -2.5650   -4.0827    0.3985 C   0  0  0  1  0  0  0  0  0  0  0  0
   -2.7480   -2.6599   -0.0576 C   0  0  0  1  0  0  0  0  0  0  0  0
   -3.1215   -2.6690   -1.0602 H   0  0  0  1  0  0  0  0  0  0  0  0
   -1.7970   -2.1701   -0.0351 H   0  0  0  1  0  0  0  0  0  0  0  0
    0.1283  -13.3549    0.5042 O   0  0  0  1  0  0  0  0  0  0  0  0
   -0.7019  -11.2489    1.3665 O   0  0  0  1  0  0  0  0  0  0  0  0
    0.3656  -10.4425    0.8434 C   0  0  0  1  0  0  0  0  0  0  0  0
    0.7828  -10.9140   -0.0218 H   0  0  0  1  0  0  0  0  0  0  0  0
    1.1258  -10.3243    1.5872 H   0  0  0  1  0  0  0  0  0  0  0  0
    1.3633  -15.5615    1.4129 O   0  0  0  0  0  0  0  0  0  0  0  0
   -0.1844   -9.1096    0.4722 C   0  0  0  1  0  0  0  0  0  0  0  0
   -0.8903   -9.0429   -0.2886 H   0  0  0  1  0  0  0  0  0  0  0  0
    0.2093   -8.0047    1.0942 C   0  0  0  1  0  0  0  0  0  0  0  0
   -0.1565   -6.6406    0.5735 C   0  0  0  1  0  0  0  0  0  0  0  0
   -0.6275   -6.7663   -0.3791 H   0  0  0  1  0  0  0  0  0  0  0  0
    0.7468   -6.0797    0.4540 H   0  0  0  1  0  0  0  0  0  0  0  0
   -1.0947   -5.8356    1.4579 C   0  0  0  1  0  0  0  0  0  0  0  0
   -0.6325   -5.7271    2.4167 H   0  0  0  1  0  0  0  0  0  0  0  0
   -2.0057   -6.3873    1.5609 H   0  0  0  1  0  0  0  0  0  0  0  0
   -1.4392   -4.4610    0.9502 C   0  0  0  1  0  0  0  0  0  0  0  0
   -0.7033   -3.7327    1.0482 H   0  0  0  1  0  0  0  0  0  0  0  0
   -3.7167   -1.8757    0.8125 C   0  0  0  1  0  0  0  0  0  0  0  0
   -3.3867   -1.9163    1.8295 H   0  0  0  1  0  0  0  0  0  0  0  0
   -4.6904   -2.3127    0.7352 H   0  0  0  1  0  0  0  0  0  0  0  0
   -3.7844   -0.4488    0.3762 C   0  0  0  1  0  0  0  0  0  0  0  0
   -2.9006    0.0977    0.3343 H   0  0  0  1  0  0  0  0  0  0  0  0
   -4.9228    0.1591    0.0376 C   0  0  0  1  0  0  0  0  0  0  0  0
   -6.2353   -0.5681    0.0817 C   0  0  0  1  0  0  0  0  0  0  0  0
   -6.6929   -0.4216    1.0378 H   0  0  0  1  0  0  0  0  0  0  0  0
   -6.0692   -1.6131   -0.0775 H   0  0  0  1  0  0  0  0  0  0  0  0
   -6.8793   -0.1881   -0.6837 H   0  0  0  1  0  0  0  0  0  0  0  0
   -0.3794  -12.7280    1.8262 P   0  0  0  1  0  0  0  0  0  0  0  0
    1.3424  -14.4234    0.2322 P   0  0  0  1  0  0  0  0  0  0  0  0
    0.8548  -12.6426    2.7579 O   0  0  0  0  0  0  0  0  0  0  0  0
    0.6192  -15.0076   -1.0944 O   0  5  0  1  0  0  0  0  0  0  0  0
    1.0368   -7.9978    2.3461 C   0  0  0  1  0  0  0  0  0  0  0  0
    1.2218   -9.0046    2.6576 H   0  0  0  1  0  0  0  0  0  0  0  0
    0.5104   -7.4769    3.1184 H   0  0  0  1  0  0  0  0  0  0  0  0
    1.9682   -7.5070    2.1550 H   0  0  0  1  0  0  0  0  0  0  0  0
   -3.7142   -5.0075    0.2964 C   0  0  0  1  0  0  0  0  0  0  0  0
   -4.4904   -4.6873    0.9597 H   0  0  0  1  0  0  0  0  0  0  0  0
   -3.4017   -5.9952    0.5640 H   0  0  0  1  0  0  0  0  0  0  0  0
   -4.0821   -5.0092   -0.7083 H   0  0  0  1  0  0  0  0  0  0  0  0
   -4.9371    1.5963   -0.4015 C   0  0  0  1  0  0  0  0  0  0  0  0
   -3.9327    1.9355   -0.5465 H   0  0  0  1  0  0  0  0  0  0  0  0
   -5.4102    2.1938    0.3495 H   0  0  0  1  0  0  0  0  0  0  0  0
   -5.4786    1.6828   -1.3203 H   0  0  0  1  0  0  0  0  0  0  0  0
   -1.5484  -13.4429    2.3477 O   0  0  0  1  0  0  0  0  0  0  0  0
    2.5932  -13.7197   -0.1290 O   0  0  0  1  0  0  0  0  0  0  0  0
  1  2  1  0  0  0  0
  1 20  2  0  0  0  0
  1 40  1  0  0  0  0
  2  3  1  0  0  0  0
  2  4  1  0  0  0  0
  2 22  1  0  0  0  0
  5 32  1  0  0  0  0
  5 33  1  0  0  0  0
  6  7  1  0  0  0  0
  6 32  1  0  0  0  0
  7  8  1  0  0  0  0
  7  9  1  0  0  0  0
  7 11  1  0  0  0  0
 10 33  1  0  0  0  0
 11 12  1  0  0  0  0
 11 13  2  0  0  0  0
 13 14  1  0  0  0  0
 13 36  1  0  0  0  0
 14 15  1  0  0  0  0
 14 16  1  0  0  0  0
 14 17  1  0  0  0  0
 17 18  1  0  0  0  0
 17 19  1  0  0  0  0
 17 20  1  0  0  0  0
 20 21  1  0  0  0  0
 22 23  1  0  0  0  0
 22 24  1  0  0  0  0
 22 25  1  0  0  0  0
 25 26  1  0  0  0  0
 25 27  2  0  0  0  0
 27 28  1  0  0  0  0
 27 44  1  0  0  0  0
 28 29  1  0  0  0  0
 28 30  1  0  0  0  0
 28 31  1  0  0  0  0
 32 34  1  0  0  0  0
 32 48  2  0  0  0  0
 33 35  1  0  0  0  0
 33 49  2  0  0  0  0
 36 37  1  0  0  0  0
 36 38  1  0  0  0  0
 36 39  1  0  0  0  0
 40 41  1  0  0  0  0
 40 42  1  0  0  0  0
 40 43  1  0  0  0  0
 44 45  1  0  0  0  0
 44 46  1  0  0  0  0
 44 47  1  0  0  0  0
M  BCL ATM C_TrTrTrPi C_TeTeTeTe H_S H_S O_Tr2TrTrPi2 O_Tr2TrTrPi2 C_TeTeTeTe H_S H_S O_Te2Te2TeTe C_TrTrTrPi H_S C_TrTrTrPi C_TeTeTeTe H_S H_S C_TeTeTeTe H_S H_S C_TrTrTrPi H_S C_TeTeTeTe H_S H_S C_TrTrTrPi H_S C_TrTrTrPi C_TeTeTeTe H_S H_S H_S P_TeTeTeTePi P_TeTeTeTePi O_Te2Te2TeTe O_Te2Te2Te2Te C_TeTeTeTe H_S H_S H_S C_TeTeTeTe H_S H_S H_S C_TeTeTeTe H_S H_S H_S O_Tr2Tr2TrPi O_Tr2Tr2TrPi
M  BCL BND NonConjugatedSingleBond ConjugatedDoubleBond NonConjugatedSingleBond NonConjugatedSingleBond NonConjugatedSingleBond NonConjugatedSingleBond ConjugatedSingleBond ConjugatedSingleBond NonConjugatedSingleBond ConjugatedSingleBond NonConjugatedSingleBond NonConjugatedSingleBond NonConjugatedSingleBond ConjugatedSingleBond NonConjugatedSingleBond ConjugatedDoubleBond NonConjugatedSingleBond NonConjugatedSingleBond NonConjugatedSingleBond NonConjugatedSingleBond NonConjugatedSingleBond NonConjugatedSingleBond NonConjugatedSingleBond NonConjugatedSingleBond NonConjugatedSingleBond NonConjugatedSingleBond NonConjugatedSingleBond NonConjugatedSingleBond NonConjugatedSingleBond ConjugatedDoubleBond NonConjugatedSingleBond NonConjugatedSingleBond NonConjugatedSingleBond NonConjugatedSingleBond NonConjugatedSingleBond ConjugatedSingleBond ConjugatedDoubleBond ConjugatedSingleBond ConjugatedDoubleBond NonConjugatedSingleBond NonConjugatedSingleBond NonConjugatedSingleBond NonConjugatedSingleBond NonConjugatedSingleBond NonConjugatedSingleBond NonConjugatedSingleBond NonConjugatedSingleBond NonConjugatedSingleBond
M  BCL CHI  32   S  33   S
M  BCL DBI Z Z - - -
M  END
> <ConfClashScore>
0 

> <ConfOneFourInteractionScore>
-0.972961 

> <ConfScore>
-0.0637796 

> <ConfScorePBest>
0.0126265 

> <ConfTolerance>
1.06044 

$$$$
L06.****
  PyMOL2.5          3D                             0

 49 48  0  0  0  0  0  0  0  0999 V2000
   -0.1880    0.5771    0.8686 C   0  0  0  1  0  0  0  0  0  0  0  0
   -1.5399   -0.0703    0.9728 C   0  0  0  1  0  0  0  0  0  0  0  0
   -2.0665    0.4145    1.7681 H   0  0  0  1  0  0  0  0  0  0  0  0
   -1.3839   -1.0989    1.2225 H   0  0  0  1  0  0  0  0  0  0  0  0
    6.2178    4.5856    6.1939 O   0  0  0  1  0  0  0  0  0  0  0  0
    4.8432    5.1113    4.1896 O   0  0  0  1  0  0  0  0  0  0  0  0
    5.0287    3.7855    3.6557 C   0  0  0  1  0  0  0  0  0  0  0  0
    5.1113    3.0750    4.4515 H   0  0  0  1  0  0  0  0  0  0  0  0
    5.9118    3.7504    3.0525 H   0  0  0  1  0  0  0  0  0  0  0  0
    7.9412    6.2019    7.3477 O   0  0  0  0  0  0  0  0  0  0  0  0
    3.8422    3.4947    2.8364 C   0  0  0  1  0  0  0  0  0  0  0  0
    3.8255    2.5124    2.4950 H   0  0  0  1  0  0  0  0  0  0  0  0
    2.7867    4.1920    2.4299 C   0  0  0  1  0  0  0  0  0  0  0  0
    1.5470    3.5688    1.8572 C   0  0  0  1  0  0  0  0  0  0  0  0
    1.4788    3.8344    0.8229 H   0  0  0  1  0  0  0  0  0  0  0  0
    0.6981    3.9550    2.3818 H   0  0  0  1  0  0  0  0  0  0  0  0
    1.5363    2.0530    1.9691 C   0  0  0  1  0  0  0  0  0  0  0  0
    1.8053    1.7834    2.9690 H   0  0  0  1  0  0  0  0  0  0  0  0
    2.2578    1.6560    1.2858 H   0  0  0  1  0  0  0  0  0  0  0  0
    0.2251    1.4617    1.6614 C   0  0  0  1  0  0  0  0  0  0  0  0
   -0.5403    1.8715    2.2340 H   0  0  0  1  0  0  0  0  0  0  0  0
   -2.4345   -0.0310   -0.2554 C   0  0  0  1  0  0  0  0  0  0  0  0
   -1.9667   -0.5942   -1.0357 H   0  0  0  1  0  0  0  0  0  0  0  0
   -2.5427    0.9873   -0.5655 H   0  0  0  1  0  0  0  0  0  0  0  0
   -3.7953   -0.6003   -0.0075 C   0  0  0  1  0  0  0  0  0  0  0  0
   -3.8640   -1.6225    0.1713 H   0  0  0  1  0  0  0  0  0  0  0  0
   -4.9220    0.1020    0.0013 C   0  0  0  1  0  0  0  0  0  0  0  0
   -6.2533   -0.5594    0.2198 C   0  0  0  1  0  0  0  0  0  0  0  0
   -6.7740   -0.0613    1.0107 H   0  0  0  1  0  0  0  0  0  0  0  0
   -6.1026   -1.5855    0.4830 H   0  0  0  1  0  0  0  0  0  0  0  0
   -6.8314   -0.5024   -0.6788 H   0  0  0  1  0  0  0  0  0  0  0  0
    5.7694    5.7995    5.2852 P   0  0  0  1  0  0  0  0  0  0  0  0
    7.3907    4.6571    7.3379 P   0  0  0  1  0  0  0  0  0  0  0  0
    6.9994    6.2244    4.5747 O   0  0  0  0  0  0  0  0  0  0  0  0
    6.5954    4.4897    8.7393 O   0  5  0  1  0  0  0  0  0  0  0  0
    2.7549    5.6921    2.5152 C   0  0  0  1  0  0  0  0  0  0  0  0
    2.0094    5.9940    3.2209 H   0  0  0  1  0  0  0  0  0  0  0  0
    2.5210    6.0989    1.5536 H   0  0  0  1  0  0  0  0  0  0  0  0
    3.7118    6.0514    2.8319 H   0  0  0  1  0  0  0  0  0  0  0  0
    0.6583    0.0863   -0.2722 C   0  0  0  1  0  0  0  0  0  0  0  0
    1.4201    0.8062   -0.4872 H   0  0  0  1  0  0  0  0  0  0  0  0
    0.0444   -0.0522   -1.1375 H   0  0  0  1  0  0  0  0  0  0  0  0
    1.1129   -0.8445   -0.0041 H   0  0  0  1  0  0  0  0  0  0  0  0
   -4.9845    1.5877   -0.2002 C   0  0  0  1  0  0  0  0  0  0  0  0
   -5.6079    1.8082   -1.0415 H   0  0  0  1  0  0  0  0  0  0  0  0
   -3.9992    1.9651   -0.3781 H   0  0  0  1  0  0  0  0  0  0  0  0
   -5.3911    2.0493    0.6753 H   0  0  0  1  0  0  0  0  0  0  0  0
    5.0016    6.7911    6.0669 O   0  0  0  1  0  0  0  0  0  0  0  0
    8.4505    3.6473    7.1194 O   0  0  0  1  0  0  0  0  0  0  0  0
  1  2  1  0  0  0  0
  1 20  2  0  0  0  0
  1 40  1  0  0  0  0
  2  3  1  0  0  0  0
  2  4  1  0  0  0  0
  2 22  1  0  0  0  0
  5 32  1  0  0  0  0
  5 33  1  0  0  0  0
  6  7  1  0  0  0  0
  6 32  1  0  0  0  0
  7  8  1  0  0  0  0
  7  9  1  0  0  0  0
  7 11  1  0  0  0  0
 10 33  1  0  0  0  0
 11 12  1  0  0  0  0
 11 13  2  0  0  0  0
 13 14  1  0  0  0  0
 13 36  1  0  0  0  0
 14 15  1  0  0  0  0
 14 16  1  0  0  0  0
 14 17  1  0  0  0  0
 17 18  1  0  0  0  0
 17 19  1  0  0  0  0
 17 20  1  0  0  0  0
 20 21  1  0  0  0  0
 22 23  1  0  0  0  0
 22 24  1  0  0  0  0
 22 25  1  0  0  0  0
 25 26  1  0  0  0  0
 25 27  2  0  0  0  0
 27 28  1  0  0  0  0
 27 44  1  0  0  0  0
 28 29  1  0  0  0  0
 28 30  1  0  0  0  0
 28 31  1  0  0  0  0
 32 34  1  0  0  0  0
 32 48  2  0  0  0  0
 33 35  1  0  0  0  0
 33 49  2  0  0  0  0
 36 37  1  0  0  0  0
 36 38  1  0  0  0  0
 36 39  1  0  0  0  0
 40 41  1  0  0  0  0
 40 42  1  0  0  0  0
 40 43  1  0  0  0  0
 44 45  1  0  0  0  0
 44 46  1  0  0  0  0
 44 47  1  0  0  0  0
M  BCL ATM C_TrTrTrPi C_TeTeTeTe H_S H_S O_Tr2TrTrPi2 O_Tr2TrTrPi2 C_TeTeTeTe H_S H_S O_Te2Te2TeTe C_TrTrTrPi H_S C_TrTrTrPi C_TeTeTeTe H_S H_S C_TeTeTeTe H_S H_S C_TrTrTrPi H_S C_TeTeTeTe H_S H_S C_TrTrTrPi H_S C_TrTrTrPi C_TeTeTeTe H_S H_S H_S P_TeTeTeTePi P_TeTeTeTePi O_Te2Te2TeTe O_Te2Te2Te2Te C_TeTeTeTe H_S H_S H_S C_TeTeTeTe H_S H_S H_S C_TeTeTeTe H_S H_S H_S O_Tr2Tr2TrPi O_Tr2Tr2TrPi
M  BCL BND NonConjugatedSingleBond ConjugatedDoubleBond NonConjugatedSingleBond NonConjugatedSingleBond NonConjugatedSingleBond NonConjugatedSingleBond ConjugatedSingleBond ConjugatedSingleBond NonConjugatedSingleBond ConjugatedSingleBond NonConjugatedSingleBond NonConjugatedSingleBond NonConjugatedSingleBond ConjugatedSingleBond NonConjugatedSingleBond ConjugatedDoubleBond NonConjugatedSingleBond NonConjugatedSingleBond NonConjugatedSingleBond NonConjugatedSingleBond NonConjugatedSingleBond NonConjugatedSingleBond NonConjugatedSingleBond NonConjugatedSingleBond NonConjugatedSingleBond NonConjugatedSingleBond NonConjugatedSingleBond NonConjugatedSingleBond NonConjugatedSingleBond ConjugatedDoubleBond NonConjugatedSingleBond NonConjugatedSingleBond NonConjugatedSingleBond NonConjugatedSingleBond NonConjugatedSingleBond ConjugatedSingleBond ConjugatedDoubleBond ConjugatedSingleBond ConjugatedDoubleBond NonConjugatedSingleBond NonConjugatedSingleBond NonConjugatedSingleBond NonConjugatedSingleBond NonConjugatedSingleBond NonConjugatedSingleBond NonConjugatedSingleBond NonConjugatedSingleBond NonConjugatedSingleBond
M  BCL CHI  32   S  33   S
M  BCL DBI Z Z - - -
M  END
> <ConfClashScore>
0 

> <ConfOneFourInteractionScore>
-0.979517 

> <ConfScore>
-0.0636767 

> <ConfScorePBest>
0.0125235 

> <ConfTolerance>
1.12915 

$$$$
L06.****
  PyMOL2.5          3D                             0

 49 48  0  0  0  0  0  0  0  0999 V2000
   -2.4813   -4.0911    0.1848 C   0  0  0  1  0  0  0  0  0  0  0  0
   -2.5484   -2.6113   -0.0584 C   0  0  0  1  0  0  0  0  0  0  0  0
   -2.6734   -2.4439   -1.1078 H   0  0  0  1  0  0  0  0  0  0  0  0
   -1.6290   -2.1708    0.2666 H   0  0  0  1  0  0  0  0  0  0  0  0
   -2.9164  -12.9733    2.4151 O   0  0  0  1  0  0  0  0  0  0  0  0
   -3.9113  -11.3037    0.7720 O   0  0  0  1  0  0  0  0  0  0  0  0
   -2.8121  -10.6607    0.0971 C   0  0  0  1  0  0  0  0  0  0  0  0
   -2.6230  -11.1401   -0.8406 H   0  0  0  1  0  0  0  0  0  0  0  0
   -1.9314  -10.7018    0.7034 H   0  0  0  1  0  0  0  0  0  0  0  0
   -1.0162  -13.8771    3.9954 O   0  0  0  0  0  0  0  0  0  0  0  0
   -3.2146   -9.2625   -0.1195 C   0  0  0  1  0  0  0  0  0  0  0  0
   -2.4865   -8.7115   -0.6174 H   0  0  0  1  0  0  0  0  0  0  0  0
   -4.2898   -8.5381    0.1714 C   0  0  0  1  0  0  0  0  0  0  0  0
   -4.3226   -7.0382    0.1195 C   0  0  0  1  0  0  0  0  0  0  0  0
   -4.4523   -6.6657    1.1142 H   0  0  0  1  0  0  0  0  0  0  0  0
   -5.1517   -6.7364   -0.4858 H   0  0  0  1  0  0  0  0  0  0  0  0
   -3.0543   -6.4347   -0.4615 C   0  0  0  1  0  0  0  0  0  0  0  0
   -2.8927   -6.8708   -1.4252 H   0  0  0  1  0  0  0  0  0  0  0  0
   -2.2413   -6.6883    0.1862 H   0  0  0  1  0  0  0  0  0  0  0  0
   -3.0681   -4.9397   -0.6252 C   0  0  0  1  0  0  0  0  0  0  0  0
   -3.5810   -4.5497   -1.4415 H   0  0  0  1  0  0  0  0  0  0  0  0
   -3.6945   -1.9381    0.6789 C   0  0  0  1  0  0  0  0  0  0  0  0
   -3.5684   -2.1238    1.7251 H   0  0  0  1  0  0  0  0  0  0  0  0
   -4.6085   -2.3829    0.3447 H   0  0  0  1  0  0  0  0  0  0  0  0
   -3.8022   -0.4613    0.4829 C   0  0  0  1  0  0  0  0  0  0  0  0
   -2.9683    0.1263    0.6851 H   0  0  0  1  0  0  0  0  0  0  0  0
   -4.9110    0.1386    0.0629 C   0  0  0  1  0  0  0  0  0  0  0  0
   -6.2040   -0.5817   -0.1875 C   0  0  0  1  0  0  0  0  0  0  0  0
   -6.9996   -0.0725    0.3150 H   0  0  0  1  0  0  0  0  0  0  0  0
   -6.1317   -1.5830    0.1827 H   0  0  0  1  0  0  0  0  0  0  0  0
   -6.4023   -0.6030   -1.2388 H   0  0  0  1  0  0  0  0  0  0  0  0
   -3.8925  -12.8153    1.1963 P   0  0  0  1  0  0  0  0  0  0  0  0
   -2.3542  -14.3228    3.1584 P   0  0  0  1  0  0  0  0  0  0  0  0
   -5.2615  -13.2054    1.7482 O   0  0  0  0  0  0  0  0  0  0  0  0
   -3.3792  -14.6882    4.3586 O   0  5  0  1  0  0  0  0  0  0  0  0
   -5.5837   -9.1817    0.5837 C   0  0  0  1  0  0  0  0  0  0  0  0
   -5.5483  -10.2281    0.3634 H   0  0  0  1  0  0  0  0  0  0  0  0
   -6.3926   -8.7316    0.0470 H   0  0  0  1  0  0  0  0  0  0  0  0
   -5.7316   -9.0435    1.6344 H   0  0  0  1  0  0  0  0  0  0  0  0
   -1.7180   -4.5653    1.3893 C   0  0  0  1  0  0  0  0  0  0  0  0
   -2.1217   -4.1106    2.2698 H   0  0  0  1  0  0  0  0  0  0  0  0
   -0.6880   -4.2938    1.2882 H   0  0  0  1  0  0  0  0  0  0  0  0
   -1.8009   -5.6292    1.4676 H   0  0  0  1  0  0  0  0  0  0  0  0
   -4.9539    1.6178   -0.1987 C   0  0  0  1  0  0  0  0  0  0  0  0
   -4.2059    2.1065    0.3899 H   0  0  0  1  0  0  0  0  0  0  0  0
   -5.9189    1.9983    0.0638 H   0  0  0  1  0  0  0  0  0  0  0  0
   -4.7676    1.8018   -1.2362 H   0  0  0  1  0  0  0  0  0  0  0  0
   -3.4764  -13.6019    0.0047 O   0  0  0  1  0  0  0  0  0  0  0  0
   -2.0735  -15.4420    2.2317 O   0  0  0  1  0  0  0  0  0  0  0  0
  1  2  1  0  0  0  0
  1 20  2  0  0  0  0
  1 40  1  0  0  0  0
  2  3  1  0  0  0  0
  2  4  1  0  0  0  0
  2 22  1  0  0  0  0
  5 32  1  0  0  0  0
  5 33  1  0  0  0  0
  6  7  1  0  0  0  0
  6 32  1  0  0  0  0
  7  8  1  0  0  0  0
  7  9  1  0  0  0  0
  7 11  1  0  0  0  0
 10 33  1  0  0  0  0
 11 12  1  0  0  0  0
 11 13  2  0  0  0  0
 13 14  1  0  0  0  0
 13 36  1  0  0  0  0
 14 15  1  0  0  0  0
 14 16  1  0  0  0  0
 14 17  1  0  0  0  0
 17 18  1  0  0  0  0
 17 19  1  0  0  0  0
 17 20  1  0  0  0  0
 20 21  1  0  0  0  0
 22 23  1  0  0  0  0
 22 24  1  0  0  0  0
 22 25  1  0  0  0  0
 25 26  1  0  0  0  0
 25 27  2  0  0  0  0
 27 28  1  0  0  0  0
 27 44  1  0  0  0  0
 28 29  1  0  0  0  0
 28 30  1  0  0  0  0
 28 31  1  0  0  0  0
 32 34  1  0  0  0  0
 32 48  2  0  0  0  0
 33 35  1  0  0  0  0
 33 49  2  0  0  0  0
 36 37  1  0  0  0  0
 36 38  1  0  0  0  0
 36 39  1  0  0  0  0
 40 41  1  0  0  0  0
 40 42  1  0  0  0  0
 40 43  1  0  0  0  0
 44 45  1  0  0  0  0
 44 46  1  0  0  0  0
 44 47  1  0  0  0  0
M  BCL ATM C_TrTrTrPi C_TeTeTeTe H_S H_S O_Tr2TrTrPi2 O_Tr2TrTrPi2 C_TeTeTeTe H_S H_S O_Te2Te2TeTe C_TrTrTrPi H_S C_TrTrTrPi C_TeTeTeTe H_S H_S C_TeTeTeTe H_S H_S C_TrTrTrPi H_S C_TeTeTeTe H_S H_S C_TrTrTrPi H_S C_TrTrTrPi C_TeTeTeTe H_S H_S H_S P_TeTeTeTePi P_TeTeTeTePi O_Te2Te2TeTe O_Te2Te2Te2Te C_TeTeTeTe H_S H_S H_S C_TeTeTeTe H_S H_S H_S C_TeTeTeTe H_S H_S H_S O_Tr2Tr2TrPi O_Tr2Tr2TrPi
M  BCL BND NonConjugatedSingleBond ConjugatedDoubleBond NonConjugatedSingleBond NonConjugatedSingleBond NonConjugatedSingleBond NonConjugatedSingleBond ConjugatedSingleBond ConjugatedSingleBond NonConjugatedSingleBond ConjugatedSingleBond NonConjugatedSingleBond NonConjugatedSingleBond NonConjugatedSingleBond ConjugatedSingleBond NonConjugatedSingleBond ConjugatedDoubleBond NonConjugatedSingleBond NonConjugatedSingleBond NonConjugatedSingleBond NonConjugatedSingleBond NonConjugatedSingleBond NonConjugatedSingleBond NonConjugatedSingleBond NonConjugatedSingleBond NonConjugatedSingleBond NonConjugatedSingleBond NonConjugatedSingleBond NonConjugatedSingleBond NonConjugatedSingleBond ConjugatedDoubleBond NonConjugatedSingleBond NonConjugatedSingleBond NonConjugatedSingleBond NonConjugatedSingleBond NonConjugatedSingleBond ConjugatedSingleBond ConjugatedDoubleBond ConjugatedSingleBond ConjugatedDoubleBond NonConjugatedSingleBond NonConjugatedSingleBond NonConjugatedSingleBond NonConjugatedSingleBond NonConjugatedSingleBond NonConjugatedSingleBond NonConjugatedSingleBond NonConjugatedSingleBond NonConjugatedSingleBond
M  BCL CHI  32   S  33   S
M  BCL DBI Z Z - - -
M  END
> <ConfClashScore>
0 

> <ConfOneFourInteractionScore>
-0.992399 

> <ConfScore>
-0.0617966 

> <ConfScorePBest>
0.0124205 

> <ConfTolerance>
1.13148 

$$$$
L06.****
  PyMOL2.5          3D                             0

 49 48  0  0  0  0  0  0  0  0999 V2000
   -2.1129   -3.5850   -1.5851 C   0  0  0  1  0  0  0  0  0  0  0  0
   -2.5668   -2.1608   -1.4468 C   0  0  0  1  0  0  0  0  0  0  0  0
   -3.0337   -1.8618   -2.3620 H   0  0  0  1  0  0  0  0  0  0  0  0
   -1.7098   -1.5463   -1.2657 H   0  0  0  1  0  0  0  0  0  0  0  0
    3.1922  -11.7178    0.2965 O   0  0  0  1  0  0  0  0  0  0  0  0
    2.3446   -9.3043    0.4722 O   0  0  0  1  0  0  0  0  0  0  0  0
    1.4432   -9.1789   -0.6453 C   0  0  0  1  0  0  0  0  0  0  0  0
    0.7559   -9.9990   -0.6479 H   0  0  0  1  0  0  0  0  0  0  0  0
    2.0001   -9.1767   -1.5590 H   0  0  0  1  0  0  0  0  0  0  0  0
    2.4945  -13.8683   -0.8182 O   0  0  0  0  0  0  0  0  0  0  0  0
    0.6898   -7.8885   -0.5096 C   0  0  0  1  0  0  0  0  0  0  0  0
    0.1829   -7.5795   -1.3635 H   0  0  0  1  0  0  0  0  0  0  0  0
    0.5744   -7.0826    0.5392 C   0  0  0  1  0  0  0  0  0  0  0  0
    0.0540   -5.6777    0.3934 C   0  0  0  1  0  0  0  0  0  0  0  0
    0.8353   -4.9960    0.6576 H   0  0  0  1  0  0  0  0  0  0  0  0
   -0.7725   -5.5497    1.0607 H   0  0  0  1  0  0  0  0  0  0  0  0
   -0.4109   -5.3575   -1.0212 C   0  0  0  1  0  0  0  0  0  0  0  0
   -1.2073   -6.0286   -1.2668 H   0  0  0  1  0  0  0  0  0  0  0  0
    0.4124   -5.5222   -1.6844 H   0  0  0  1  0  0  0  0  0  0  0  0
   -0.9055   -3.9519   -1.2352 C   0  0  0  1  0  0  0  0  0  0  0  0
   -0.2133   -3.1896   -1.0893 H   0  0  0  1  0  0  0  0  0  0  0  0
   -3.5559   -1.9588   -0.3105 C   0  0  0  1  0  0  0  0  0  0  0  0
   -3.1956   -2.4806    0.5514 H   0  0  0  1  0  0  0  0  0  0  0  0
   -4.5007   -2.3654   -0.6051 H   0  0  0  1  0  0  0  0  0  0  0  0
   -3.7495   -0.5108    0.0523 C   0  0  0  1  0  0  0  0  0  0  0  0
   -2.9121    0.0249    0.3578 H   0  0  0  1  0  0  0  0  0  0  0  0
   -4.9044    0.1306    0.0115 C   0  0  0  1  0  0  0  0  0  0  0  0
   -6.2143   -0.5308   -0.3112 C   0  0  0  1  0  0  0  0  0  0  0  0
   -6.6969    0.0007   -1.1046 H   0  0  0  1  0  0  0  0  0  0  0  0
   -6.8410   -0.5225    0.5561 H   0  0  0  1  0  0  0  0  0  0  0  0
   -6.0380   -1.5415   -0.6149 H   0  0  0  1  0  0  0  0  0  0  0  0
    2.4490  -10.6899    1.3028 P   0  0  0  1  0  0  0  0  0  0  0  0
    2.8737  -12.3181   -1.1961 P   0  0  0  1  0  0  0  0  0  0  0  0
    3.3765  -10.5633    2.4651 O   0  0  0  0  0  0  0  0  0  0  0  0
    1.5238  -11.7306   -1.8721 O   0  5  0  1  0  0  0  0  0  0  0  0
    0.9397   -7.4746    1.9410 C   0  0  0  1  0  0  0  0  0  0  0  0
    0.7933   -6.6403    2.5948 H   0  0  0  1  0  0  0  0  0  0  0  0
    1.9662   -7.7752    1.9710 H   0  0  0  1  0  0  0  0  0  0  0  0
    0.3200   -8.2878    2.2567 H   0  0  0  1  0  0  0  0  0  0  0  0
   -3.1430   -4.5206   -2.1457 C   0  0  0  1  0  0  0  0  0  0  0  0
   -3.4190   -4.2005   -3.1287 H   0  0  0  1  0  0  0  0  0  0  0  0
   -4.0071   -4.5188   -1.5146 H   0  0  0  1  0  0  0  0  0  0  0  0
   -2.7377   -5.5097   -2.1936 H   0  0  0  1  0  0  0  0  0  0  0  0
   -4.9957    1.6022    0.2911 C   0  0  0  1  0  0  0  0  0  0  0  0
   -5.5841    1.7629    1.1702 H   0  0  0  1  0  0  0  0  0  0  0  0
   -5.4549    2.0951   -0.5402 H   0  0  0  1  0  0  0  0  0  0  0  0
   -4.0131    1.9978    0.4426 H   0  0  0  1  0  0  0  0  0  0  0  0
    1.0371  -11.0853    1.5696 O   0  0  0  1  0  0  0  0  0  0  0  0
    4.0241  -12.3933   -2.1243 O   0  0  0  1  0  0  0  0  0  0  0  0
  1  2  1  0  0  0  0
  1 20  2  0  0  0  0
  1 40  1  0  0  0  0
  2  3  1  0  0  0  0
  2  4  1  0  0  0  0
  2 22  1  0  0  0  0
  5 32  1  0  0  0  0
  5 33  1  0  0  0  0
  6  7  1  0  0  0  0
  6 32  1  0  0  0  0
  7  8  1  0  0  0  0
  7  9  1  0  0  0  0
  7 11  1  0  0  0  0
 10 33  1  0  0  0  0
 11 12  1  0  0  0  0
 11 13  2  0  0  0  0
 13 14  1  0  0  0  0
 13 36  1  0  0  0  0
 14 15  1  0  0  0  0
 14 16  1  0  0  0  0
 14 17  1  0  0  0  0
 17 18  1  0  0  0  0
 17 19  1  0  0  0  0
 17 20  1  0  0  0  0
 20 21  1  0  0  0  0
 22 23  1  0  0  0  0
 22 24  1  0  0  0  0
 22 25  1  0  0  0  0
 25 26  1  0  0  0  0
 25 27  2  0  0  0  0
 27 28  1  0  0  0  0
 27 44  1  0  0  0  0
 28 29  1  0  0  0  0
 28 30  1  0  0  0  0
 28 31  1  0  0  0  0
 32 34  1  0  0  0  0
 32 48  2  0  0  0  0
 33 35  1  0  0  0  0
 33 49  2  0  0  0  0
 36 37  1  0  0  0  0
 36 38  1  0  0  0  0
 36 39  1  0  0  0  0
 40 41  1  0  0  0  0
 40 42  1  0  0  0  0
 40 43  1  0  0  0  0
 44 45  1  0  0  0  0
 44 46  1  0  0  0  0
 44 47  1  0  0  0  0
M  BCL ATM C_TrTrTrPi C_TeTeTeTe H_S H_S O_Tr2TrTrPi2 O_Tr2TrTrPi2 C_TeTeTeTe H_S H_S O_Te2Te2TeTe C_TrTrTrPi H_S C_TrTrTrPi C_TeTeTeTe H_S H_S C_TeTeTeTe H_S H_S C_TrTrTrPi H_S C_TeTeTeTe H_S H_S C_TrTrTrPi H_S C_TrTrTrPi C_TeTeTeTe H_S H_S H_S P_TeTeTeTePi P_TeTeTeTePi O_Te2Te2TeTe O_Te2Te2Te2Te C_TeTeTeTe H_S H_S H_S C_TeTeTeTe H_S H_S H_S C_TeTeTeTe H_S H_S H_S O_Tr2Tr2TrPi O_Tr2Tr2TrPi
M  BCL BND NonConjugatedSingleBond ConjugatedDoubleBond NonConjugatedSingleBond NonConjugatedSingleBond NonConjugatedSingleBond NonConjugatedSingleBond ConjugatedSingleBond ConjugatedSingleBond NonConjugatedSingleBond ConjugatedSingleBond NonConjugatedSingleBond NonConjugatedSingleBond NonConjugatedSingleBond ConjugatedSingleBond NonConjugatedSingleBond ConjugatedDoubleBond NonConjugatedSingleBond NonConjugatedSingleBond NonConjugatedSingleBond NonConjugatedSingleBond NonConjugatedSingleBond NonConjugatedSingleBond NonConjugatedSingleBond NonConjugatedSingleBond NonConjugatedSingleBond NonConjugatedSingleBond NonConjugatedSingleBond NonConjugatedSingleBond NonConjugatedSingleBond ConjugatedDoubleBond NonConjugatedSingleBond NonConjugatedSingleBond NonConjugatedSingleBond NonConjugatedSingleBond NonConjugatedSingleBond ConjugatedSingleBond ConjugatedDoubleBond ConjugatedSingleBond ConjugatedDoubleBond NonConjugatedSingleBond NonConjugatedSingleBond NonConjugatedSingleBond NonConjugatedSingleBond NonConjugatedSingleBond NonConjugatedSingleBond NonConjugatedSingleBond NonConjugatedSingleBond NonConjugatedSingleBond
M  BCL CHI  32   S  33   S
M  BCL DBI Z Z - - -
M  END
> <ConfClashScore>
0 

> <ConfOneFourInteractionScore>
-0.98613 

> <ConfScore>
-0.0617143 

> <ConfScorePBest>
0.0123175 

> <ConfTolerance>
1.23841 

$$$$
L06.****
  PyMOL2.5          3D                             0

 49 48  0  0  0  0  0  0  0  0999 V2000
   -0.0544    0.3023    0.2844 C   0  0  0  1  0  0  0  0  0  0  0  0
   -1.3570   -0.2942   -0.1684 C   0  0  0  1  0  0  0  0  0  0  0  0
   -1.2660   -1.3603   -0.1559 H   0  0  0  1  0  0  0  0  0  0  0  0
   -1.5538    0.0357   -1.1670 H   0  0  0  1  0  0  0  0  0  0  0  0
    8.7749    1.8315    5.2601 O   0  0  0  1  0  0  0  0  0  0  0  0
    6.3696    1.4619    5.0293 O   0  0  0  1  0  0  0  0  0  0  0  0
    5.9846    1.8027    3.6829 C   0  0  0  1  0  0  0  0  0  0  0  0
    6.5495    1.2178    2.9875 H   0  0  0  1  0  0  0  0  0  0  0  0
    6.1685    2.8421    3.5076 H   0  0  0  1  0  0  0  0  0  0  0  0
   10.6785    3.4569    4.9553 O   0  0  0  0  0  0  0  0  0  0  0  0
    4.5330    1.5154    3.5172 C   0  0  0  1  0  0  0  0  0  0  0  0
    3.8343    2.1478    3.9570 H   0  0  0  1  0  0  0  0  0  0  0  0
    4.1119    0.4618    2.8151 C   0  0  0  1  0  0  0  0  0  0  0  0
    2.6817    0.0370    2.6494 C   0  0  0  1  0  0  0  0  0  0  0  0
    2.0501    0.7154    3.1841 H   0  0  0  1  0  0  0  0  0  0  0  0
    2.5609   -0.9501    3.0443 H   0  0  0  1  0  0  0  0  0  0  0  0
    2.2855    0.0387    1.1820 C   0  0  0  1  0  0  0  0  0  0  0  0
    2.9161   -0.6490    0.6582 H   0  0  0  1  0  0  0  0  0  0  0  0
    2.4299    1.0244    0.7914 H   0  0  0  1  0  0  0  0  0  0  0  0
    0.8526   -0.3597    0.9581 C   0  0  0  1  0  0  0  0  0  0  0  0
    0.5493   -1.2584    1.3846 H   0  0  0  1  0  0  0  0  0  0  0  0
   -2.5311    0.1015    0.7121 C   0  0  0  1  0  0  0  0  0  0  0  0
   -2.6706    1.1584    0.6208 H   0  0  0  1  0  0  0  0  0  0  0  0
   -2.2808   -0.1397    1.7240 H   0  0  0  1  0  0  0  0  0  0  0  0
   -3.8299   -0.5652    0.3865 C   0  0  0  1  0  0  0  0  0  0  0  0
   -3.8771   -1.6032    0.4289 H   0  0  0  1  0  0  0  0  0  0  0  0
   -4.9255    0.1030    0.0461 C   0  0  0  1  0  0  0  0  0  0  0  0
   -6.2589   -0.5821   -0.0546 C   0  0  0  1  0  0  0  0  0  0  0  0
   -6.9702   -0.0715    0.5603 H   0  0  0  1  0  0  0  0  0  0  0  0
   -6.1648   -1.5955    0.2756 H   0  0  0  1  0  0  0  0  0  0  0  0
   -6.5913   -0.5672   -1.0716 H   0  0  0  1  0  0  0  0  0  0  0  0
    7.6860    0.6251    5.3766 P   0  0  0  1  0  0  0  0  0  0  0  0
   10.3874    1.8429    4.9610 P   0  0  0  1  0  0  0  0  0  0  0  0
    7.6519    0.1368    6.7791 O   0  0  0  0  0  0  0  0  0  0  0  0
   11.2096    1.2341    6.2171 O   0  5  0  1  0  0  0  0  0  0  0  0
    5.1190   -0.4042    2.1120 C   0  0  0  1  0  0  0  0  0  0  0  0
    5.2667   -0.0433    1.1156 H   0  0  0  1  0  0  0  0  0  0  0  0
    4.7599   -1.4115    2.0766 H   0  0  0  1  0  0  0  0  0  0  0  0
    6.0473   -0.3744    2.6432 H   0  0  0  1  0  0  0  0  0  0  0  0
    0.1437    1.7427   -0.0956 C   0  0  0  1  0  0  0  0  0  0  0  0
   -0.7066    2.3139    0.2135 H   0  0  0  1  0  0  0  0  0  0  0  0
    0.2576    1.8189   -1.1568 H   0  0  0  1  0  0  0  0  0  0  0  0
    1.0212    2.1209    0.3859 H   0  0  0  1  0  0  0  0  0  0  0  0
   -4.9486    1.5708   -0.2653 C   0  0  0  1  0  0  0  0  0  0  0  0
   -4.0021    2.0036   -0.0169 H   0  0  0  1  0  0  0  0  0  0  0  0
   -5.7184    2.0446    0.3073 H   0  0  0  1  0  0  0  0  0  0  0  0
   -5.1418    1.7109   -1.3084 H   0  0  0  1  0  0  0  0  0  0  0  0
    7.9086   -0.3204    4.2630 O   0  0  0  1  0  0  0  0  0  0  0  0
   10.8563    1.2161    3.7050 O   0  0  0  1  0  0  0  0  0  0  0  0
  1  2  1  0  0  0  0
  1 20  2  0  0  0  0
  1 40  1  0  0  0  0
  2  3  1  0  0  0  0
  2  4  1  0  0  0  0
  2 22  1  0  0  0  0
  5 32  1  0  0  0  0
  5 33  1  0  0  0  0
  6  7  1  0  0  0  0
  6 32  1  0  0  0  0
  7  8  1  0  0  0  0
  7  9  1  0  0  0  0
  7 11  1  0  0  0  0
 10 33  1  0  0  0  0
 11 12  1  0  0  0  0
 11 13  2  0  0  0  0
 13 14  1  0  0  0  0
 13 36  1  0  0  0  0
 14 15  1  0  0  0  0
 14 16  1  0  0  0  0
 14 17  1  0  0  0  0
 17 18  1  0  0  0  0
 17 19  1  0  0  0  0
 17 20  1  0  0  0  0
 20 21  1  0  0  0  0
 22 23  1  0  0  0  0
 22 24  1  0  0  0  0
 22 25  1  0  0  0  0
 25 26  1  0  0  0  0
 25 27  2  0  0  0  0
 27 28  1  0  0  0  0
 27 44  1  0  0  0  0
 28 29  1  0  0  0  0
 28 30  1  0  0  0  0
 28 31  1  0  0  0  0
 32 34  1  0  0  0  0
 32 48  2  0  0  0  0
 33 35  1  0  0  0  0
 33 49  2  0  0  0  0
 36 37  1  0  0  0  0
 36 38  1  0  0  0  0
 36 39  1  0  0  0  0
 40 41  1  0  0  0  0
 40 42  1  0  0  0  0
 40 43  1  0  0  0  0
 44 45  1  0  0  0  0
 44 46  1  0  0  0  0
 44 47  1  0  0  0  0
M  BCL ATM C_TrTrTrPi C_TeTeTeTe H_S H_S O_Tr2TrTrPi2 O_Tr2TrTrPi2 C_TeTeTeTe H_S H_S O_Te2Te2TeTe C_TrTrTrPi H_S C_TrTrTrPi C_TeTeTeTe H_S H_S C_TeTeTeTe H_S H_S C_TrTrTrPi H_S C_TeTeTeTe H_S H_S C_TrTrTrPi H_S C_TrTrTrPi C_TeTeTeTe H_S H_S H_S P_TeTeTeTePi P_TeTeTeTePi O_Te2Te2TeTe O_Te2Te2Te2Te C_TeTeTeTe H_S H_S H_S C_TeTeTeTe H_S H_S H_S C_TeTeTeTe H_S H_S H_S O_Tr2Tr2TrPi O_Tr2Tr2TrPi
M  BCL BND NonConjugatedSingleBond ConjugatedDoubleBond NonConjugatedSingleBond NonConjugatedSingleBond NonConjugatedSingleBond NonConjugatedSingleBond ConjugatedSingleBond ConjugatedSingleBond NonConjugatedSingleBond ConjugatedSingleBond NonConjugatedSingleBond NonConjugatedSingleBond NonConjugatedSingleBond ConjugatedSingleBond NonConjugatedSingleBond ConjugatedDoubleBond NonConjugatedSingleBond NonConjugatedSingleBond NonConjugatedSingleBond NonConjugatedSingleBond NonConjugatedSingleBond NonConjugatedSingleBond NonConjugatedSingleBond NonConjugatedSingleBond NonConjugatedSingleBond NonConjugatedSingleBond NonConjugatedSingleBond NonConjugatedSingleBond NonConjugatedSingleBond ConjugatedDoubleBond NonConjugatedSingleBond NonConjugatedSingleBond NonConjugatedSingleBond NonConjugatedSingleBond NonConjugatedSingleBond ConjugatedSingleBond ConjugatedDoubleBond ConjugatedSingleBond ConjugatedDoubleBond NonConjugatedSingleBond NonConjugatedSingleBond NonConjugatedSingleBond NonConjugatedSingleBond NonConjugatedSingleBond NonConjugatedSingleBond NonConjugatedSingleBond NonConjugatedSingleBond NonConjugatedSingleBond
M  BCL CHI  32   S  33   S
M  BCL DBI Z Z - - -
M  END
> <ConfClashScore>
0 

> <ConfOneFourInteractionScore>
-0.972961 

> <ConfScore>
-0.0613613 

> <ConfScorePBest>
0.0122145 

> <ConfTolerance>
1.18667 

$$$$
L06.****
  PyMOL2.5          3D                             0

 49 48  0  0  0  0  0  0  0  0999 V2000
   -2.6060   -2.2409   -1.7977 C   0  0  0  1  0  0  0  0  0  0  0  0
   -2.5239   -2.5608   -0.3290 C   0  0  0  1  0  0  0  0  0  0  0  0
   -1.6300   -2.1245    0.0651 H   0  0  0  1  0  0  0  0  0  0  0  0
   -2.4834   -3.6238   -0.2138 H   0  0  0  1  0  0  0  0  0  0  0  0
    2.0564   -7.8715   -3.9227 O   0  0  0  1  0  0  0  0  0  0  0  0
    0.3675   -6.1505   -3.5900 O   0  0  0  1  0  0  0  0  0  0  0  0
    0.6537   -5.2698   -4.6882 C   0  0  0  1  0  0  0  0  0  0  0  0
    0.0346   -5.5223   -5.5235 H   0  0  0  1  0  0  0  0  0  0  0  0
    1.6830   -5.3623   -4.9655 H   0  0  0  1  0  0  0  0  0  0  0  0
    2.4687   -9.5132   -6.0087 O   0  0  0  0  0  0  0  0  0  0  0  0
    0.3713   -3.8614   -4.2576 C   0  0  0  1  0  0  0  0  0  0  0  0
    0.8936   -3.4955   -3.4360 H   0  0  0  1  0  0  0  0  0  0  0  0
   -0.4957   -3.0468   -4.8470 C   0  0  0  1  0  0  0  0  0  0  0  0
   -0.4876   -1.5702   -4.5765 C   0  0  0  1  0  0  0  0  0  0  0  0
   -0.4296   -1.0531   -5.5114 H   0  0  0  1  0  0  0  0  0  0  0  0
    0.3733   -1.3370   -3.9853 H   0  0  0  1  0  0  0  0  0  0  0  0
   -1.7266   -1.0938   -3.8361 C   0  0  0  1  0  0  0  0  0  0  0  0
   -2.5877   -1.5318   -4.2959 H   0  0  0  1  0  0  0  0  0  0  0  0
   -1.7822   -0.0282   -3.9158 H   0  0  0  1  0  0  0  0  0  0  0  0
   -1.7211   -1.4654   -2.3773 C   0  0  0  1  0  0  0  0  0  0  0  0
   -0.9589   -1.0784   -1.7850 H   0  0  0  1  0  0  0  0  0  0  0  0
   -3.7095   -2.0332    0.4625 C   0  0  0  1  0  0  0  0  0  0  0  0
   -3.5969   -2.3315    1.4839 H   0  0  0  1  0  0  0  0  0  0  0  0
   -4.6043   -2.4617    0.0618 H   0  0  0  1  0  0  0  0  0  0  0  0
   -3.8312   -0.5433    0.4122 C   0  0  0  1  0  0  0  0  0  0  0  0
   -2.9873    0.0003    0.6843 H   0  0  0  1  0  0  0  0  0  0  0  0
   -4.9016    0.1619    0.0573 C   0  0  0  1  0  0  0  0  0  0  0  0
   -6.1691   -0.5582   -0.3009 C   0  0  0  1  0  0  0  0  0  0  0  0
   -6.0647   -1.5988   -0.0751 H   0  0  0  1  0  0  0  0  0  0  0  0
   -6.3639   -0.4381   -1.3462 H   0  0  0  1  0  0  0  0  0  0  0  0
   -6.9820   -0.1508    0.2631 H   0  0  0  1  0  0  0  0  0  0  0  0
    0.4708   -7.7381   -3.7630 P   0  0  0  1  0  0  0  0  0  0  0  0
    2.8402   -8.0574   -5.3513 P   0  0  0  1  0  0  0  0  0  0  0  0
   -0.0041   -8.3125   -2.4652 O   0  0  0  0  0  0  0  0  0  0  0  0
    2.2196   -6.9830   -6.3929 O   0  5  0  1  0  0  0  0  0  0  0  0
   -1.5470   -3.5022   -5.8194 C   0  0  0  1  0  0  0  0  0  0  0  0
   -1.2955   -3.1626   -6.8024 H   0  0  0  1  0  0  0  0  0  0  0  0
   -2.4956   -3.0972   -5.5344 H   0  0  0  1  0  0  0  0  0  0  0  0
   -1.5987   -4.5709   -5.8139 H   0  0  0  1  0  0  0  0  0  0  0  0
   -3.7637   -2.8754   -2.5157 C   0  0  0  1  0  0  0  0  0  0  0  0
   -3.5856   -3.9251   -2.6229 H   0  0  0  1  0  0  0  0  0  0  0  0
   -3.8697   -2.4313   -3.4834 H   0  0  0  1  0  0  0  0  0  0  0  0
   -4.6602   -2.7218   -1.9521 H   0  0  0  1  0  0  0  0  0  0  0  0
   -4.9747    1.6607   -0.0247 C   0  0  0  1  0  0  0  0  0  0  0  0
   -5.7463    2.0168    0.6254 H   0  0  0  1  0  0  0  0  0  0  0  0
   -5.1934    1.9524   -1.0307 H   0  0  0  1  0  0  0  0  0  0  0  0
   -4.0363    2.0801    0.2728 H   0  0  0  1  0  0  0  0  0  0  0  0
   -0.2326   -8.2250   -4.9871 O   0  0  0  1  0  0  0  0  0  0  0  0
    4.2694   -7.8031   -5.0631 O   0  0  0  1  0  0  0  0  0  0  0  0
  1  2  1  0  0  0  0
  1 20  2  0  0  0  0
  1 40  1  0  0  0  0
  2  3  1  0  0  0  0
  2  4  1  0  0  0  0
  2 22  1  0  0  0  0
  5 32  1  0  0  0  0
  5 33  1  0  0  0  0
  6  7  1  0  0  0  0
  6 32  1  0  0  0  0
  7  8  1  0  0  0  0
  7  9  1  0  0  0  0
  7 11  1  0  0  0  0
 10 33  1  0  0  0  0
 11 12  1  0  0  0  0
 11 13  2  0  0  0  0
 13 14  1  0  0  0  0
 13 36  1  0  0  0  0
 14 15  1  0  0  0  0
 14 16  1  0  0  0  0
 14 17  1  0  0  0  0
 17 18  1  0  0  0  0
 17 19  1  0  0  0  0
 17 20  1  0  0  0  0
 20 21  1  0  0  0  0
 22 23  1  0  0  0  0
 22 24  1  0  0  0  0
 22 25  1  0  0  0  0
 25 26  1  0  0  0  0
 25 27  2  0  0  0  0
 27 28  1  0  0  0  0
 27 44  1  0  0  0  0
 28 29  1  0  0  0  0
 28 30  1  0  0  0  0
 28 31  1  0  0  0  0
 32 34  1  0  0  0  0
 32 48  2  0  0  0  0
 33 35  1  0  0  0  0
 33 49  2  0  0  0  0
 36 37  1  0  0  0  0
 36 38  1  0  0  0  0
 36 39  1  0  0  0  0
 40 41  1  0  0  0  0
 40 42  1  0  0  0  0
 40 43  1  0  0  0  0
 44 45  1  0  0  0  0
 44 46  1  0  0  0  0
 44 47  1  0  0  0  0
M  BCL ATM C_TrTrTrPi C_TeTeTeTe H_S H_S O_Tr2TrTrPi2 O_Tr2TrTrPi2 C_TeTeTeTe H_S H_S O_Te2Te2TeTe C_TrTrTrPi H_S C_TrTrTrPi C_TeTeTeTe H_S H_S C_TeTeTeTe H_S H_S C_TrTrTrPi H_S C_TeTeTeTe H_S H_S C_TrTrTrPi H_S C_TrTrTrPi C_TeTeTeTe H_S H_S H_S P_TeTeTeTePi P_TeTeTeTePi O_Te2Te2TeTe O_Te2Te2Te2Te C_TeTeTeTe H_S H_S H_S C_TeTeTeTe H_S H_S H_S C_TeTeTeTe H_S H_S H_S O_Tr2Tr2TrPi O_Tr2Tr2TrPi
M  BCL BND NonConjugatedSingleBond ConjugatedDoubleBond NonConjugatedSingleBond NonConjugatedSingleBond NonConjugatedSingleBond NonConjugatedSingleBond ConjugatedSingleBond ConjugatedSingleBond NonConjugatedSingleBond ConjugatedSingleBond NonConjugatedSingleBond NonConjugatedSingleBond NonConjugatedSingleBond ConjugatedSingleBond NonConjugatedSingleBond ConjugatedDoubleBond NonConjugatedSingleBond NonConjugatedSingleBond NonConjugatedSingleBond NonConjugatedSingleBond NonConjugatedSingleBond NonConjugatedSingleBond NonConjugatedSingleBond NonConjugatedSingleBond NonConjugatedSingleBond NonConjugatedSingleBond NonConjugatedSingleBond NonConjugatedSingleBond NonConjugatedSingleBond ConjugatedDoubleBond NonConjugatedSingleBond NonConjugatedSingleBond NonConjugatedSingleBond NonConjugatedSingleBond NonConjugatedSingleBond ConjugatedSingleBond ConjugatedDoubleBond ConjugatedSingleBond ConjugatedDoubleBond NonConjugatedSingleBond NonConjugatedSingleBond NonConjugatedSingleBond NonConjugatedSingleBond NonConjugatedSingleBond NonConjugatedSingleBond NonConjugatedSingleBond NonConjugatedSingleBond NonConjugatedSingleBond
M  BCL CHI  32   S  33   S
M  BCL DBI Z Z - - -
M  END
> <ConfClashScore>
0 

> <ConfOneFourInteractionScore>
-0.972961 

> <ConfScore>
-0.0566766 

> <ConfScorePBest>
0.0121115 

> <ConfTolerance>
1.51804 

$$$$
L06.****
  PyMOL2.5          3D                             0

 49 48  0  0  0  0  0  0  0  0999 V2000
   -2.4971   -4.0816   -0.9003 C   0  0  0  1  0  0  0  0  0  0  0  0
   -2.9880   -2.6973   -1.2445 C   0  0  0  1  0  0  0  0  0  0  0  0
   -3.7275   -2.7687   -2.0146 H   0  0  0  1  0  0  0  0  0  0  0  0
   -2.1646   -2.1097   -1.5933 H   0  0  0  1  0  0  0  0  0  0  0  0
    1.1071  -11.7021    2.6563 O   0  0  0  1  0  0  0  0  0  0  0  0
    1.8964   -9.7706    1.5770 O   0  0  0  1  0  0  0  0  0  0  0  0
    2.7454   -8.8342    0.8943 C   0  0  0  1  0  0  0  0  0  0  0  0
    3.1454   -9.2875    0.0115 H   0  0  0  1  0  0  0  0  0  0  0  0
    3.5470   -8.5384    1.5385 H   0  0  0  1  0  0  0  0  0  0  0  0
   -0.2471  -10.4051    4.4846 O   0  0  0  0  0  0  0  0  0  0  0  0
    1.9346   -7.6419    0.5226 C   0  0  0  1  0  0  0  0  0  0  0  0
    2.4885   -6.8786    0.0843 H   0  0  0  1  0  0  0  0  0  0  0  0
    0.6408   -7.3637    0.6420 C   0  0  0  1  0  0  0  0  0  0  0  0
    0.0690   -5.9832    0.4988 C   0  0  0  1  0  0  0  0  0  0  0  0
    0.8637   -5.2735    0.5972 H   0  0  0  1  0  0  0  0  0  0  0  0
   -0.6467   -5.8284    1.2790 H   0  0  0  1  0  0  0  0  0  0  0  0
   -0.6173   -5.7587   -0.8387 C   0  0  0  1  0  0  0  0  0  0  0  0
   -1.3925   -6.4878   -0.9504 H   0  0  0  1  0  0  0  0  0  0  0  0
    0.1056   -5.8839   -1.6176 H   0  0  0  1  0  0  0  0  0  0  0  0
   -1.2260   -4.3894   -0.9661 C   0  0  0  1  0  0  0  0  0  0  0  0
   -0.5658   -3.6014   -1.1236 H   0  0  0  1  0  0  0  0  0  0  0  0
   -3.6001   -2.0242   -0.0268 C   0  0  0  1  0  0  0  0  0  0  0  0
   -2.9582   -2.1905    0.8129 H   0  0  0  1  0  0  0  0  0  0  0  0
   -4.5564   -2.4657    0.1617 H   0  0  0  1  0  0  0  0  0  0  0  0
   -3.7826   -0.5500   -0.2020 C   0  0  0  1  0  0  0  0  0  0  0  0
   -2.9412   -0.0095   -0.4876 H   0  0  0  1  0  0  0  0  0  0  0  0
   -4.9021    0.1433   -0.0325 C   0  0  0  1  0  0  0  0  0  0  0  0
   -6.1916   -0.5332    0.3321 C   0  0  0  1  0  0  0  0  0  0  0  0
   -5.9847   -1.5014    0.7378 H   0  0  0  1  0  0  0  0  0  0  0  0
   -6.7999   -0.6356   -0.5422 H   0  0  0  1  0  0  0  0  0  0  0  0
   -6.7093    0.0553    1.0605 H   0  0  0  1  0  0  0  0  0  0  0  0
    2.4567  -11.2758    1.8517 P   0  0  0  1  0  0  0  0  0  0  0  0
    0.6596  -11.7483    4.2334 P   0  0  0  1  0  0  0  0  0  0  0  0
    2.5469  -12.0292    0.5764 O   0  0  0  0  0  0  0  0  0  0  0  0
   -0.0517  -13.1074    4.7542 O   0  5  0  1  0  0  0  0  0  0  0  0
   -0.3702   -8.4360    0.9363 C   0  0  0  1  0  0  0  0  0  0  0  0
   -0.7193   -8.3313    1.9424 H   0  0  0  1  0  0  0  0  0  0  0  0
    0.0840   -9.3971    0.8149 H   0  0  0  1  0  0  0  0  0  0  0  0
   -1.1952   -8.3429    0.2613 H   0  0  0  1  0  0  0  0  0  0  0  0
   -3.5733   -5.0457   -0.4867 C   0  0  0  1  0  0  0  0  0  0  0  0
   -4.0849   -4.6632    0.3716 H   0  0  0  1  0  0  0  0  0  0  0  0
   -3.1323   -5.9907   -0.2471 H   0  0  0  1  0  0  0  0  0  0  0  0
   -4.2688   -5.1696   -1.2904 H   0  0  0  1  0  0  0  0  0  0  0  0
   -4.9955    1.6356   -0.1830 C   0  0  0  1  0  0  0  0  0  0  0  0
   -5.7158    1.8741   -0.9375 H   0  0  0  1  0  0  0  0  0  0  0  0
   -4.0403    2.0258   -0.4662 H   0  0  0  1  0  0  0  0  0  0  0  0
   -5.2969    2.0695    0.7475 H   0  0  0  1  0  0  0  0  0  0  0  0
    3.6179  -11.2347    2.7585 O   0  0  0  1  0  0  0  0  0  0  0  0
    1.8075  -11.6176    5.1584 O   0  0  0  1  0  0  0  0  0  0  0  0
  1  2  1  0  0  0  0
  1 20  2  0  0  0  0
  1 40  1  0  0  0  0
  2  3  1  0  0  0  0
  2  4  1  0  0  0  0
  2 22  1  0  0  0  0
  5 32  1  0  0  0  0
  5 33  1  0  0  0  0
  6  7  1  0  0  0  0
  6 32  1  0  0  0  0
  7  8  1  0  0  0  0
  7  9  1  0  0  0  0
  7 11  1  0  0  0  0
 10 33  1  0  0  0  0
 11 12  1  0  0  0  0
 11 13  2  0  0  0  0
 13 14  1  0  0  0  0
 13 36  1  0  0  0  0
 14 15  1  0  0  0  0
 14 16  1  0  0  0  0
 14 17  1  0  0  0  0
 17 18  1  0  0  0  0
 17 19  1  0  0  0  0
 17 20  1  0  0  0  0
 20 21  1  0  0  0  0
 22 23  1  0  0  0  0
 22 24  1  0  0  0  0
 22 25  1  0  0  0  0
 25 26  1  0  0  0  0
 25 27  2  0  0  0  0
 27 28  1  0  0  0  0
 27 44  1  0  0  0  0
 28 29  1  0  0  0  0
 28 30  1  0  0  0  0
 28 31  1  0  0  0  0
 32 34  1  0  0  0  0
 32 48  2  0  0  0  0
 33 35  1  0  0  0  0
 33 49  2  0  0  0  0
 36 37  1  0  0  0  0
 36 38  1  0  0  0  0
 36 39  1  0  0  0  0
 40 41  1  0  0  0  0
 40 42  1  0  0  0  0
 40 43  1  0  0  0  0
 44 45  1  0  0  0  0
 44 46  1  0  0  0  0
 44 47  1  0  0  0  0
M  BCL ATM C_TrTrTrPi C_TeTeTeTe H_S H_S O_Tr2TrTrPi2 O_Tr2TrTrPi2 C_TeTeTeTe H_S H_S O_Te2Te2TeTe C_TrTrTrPi H_S C_TrTrTrPi C_TeTeTeTe H_S H_S C_TeTeTeTe H_S H_S C_TrTrTrPi H_S C_TeTeTeTe H_S H_S C_TrTrTrPi H_S C_TrTrTrPi C_TeTeTeTe H_S H_S H_S P_TeTeTeTePi P_TeTeTeTePi O_Te2Te2TeTe O_Te2Te2Te2Te C_TeTeTeTe H_S H_S H_S C_TeTeTeTe H_S H_S H_S C_TeTeTeTe H_S H_S H_S O_Tr2Tr2TrPi O_Tr2Tr2TrPi
M  BCL BND NonConjugatedSingleBond ConjugatedDoubleBond NonConjugatedSingleBond NonConjugatedSingleBond NonConjugatedSingleBond NonConjugatedSingleBond ConjugatedSingleBond ConjugatedSingleBond NonConjugatedSingleBond ConjugatedSingleBond NonConjugatedSingleBond NonConjugatedSingleBond NonConjugatedSingleBond ConjugatedSingleBond NonConjugatedSingleBond ConjugatedDoubleBond NonConjugatedSingleBond NonConjugatedSingleBond NonConjugatedSingleBond NonConjugatedSingleBond NonConjugatedSingleBond NonConjugatedSingleBond NonConjugatedSingleBond NonConjugatedSingleBond NonConjugatedSingleBond NonConjugatedSingleBond NonConjugatedSingleBond NonConjugatedSingleBond NonConjugatedSingleBond ConjugatedDoubleBond NonConjugatedSingleBond NonConjugatedSingleBond NonConjugatedSingleBond NonConjugatedSingleBond NonConjugatedSingleBond ConjugatedSingleBond ConjugatedDoubleBond ConjugatedSingleBond ConjugatedDoubleBond NonConjugatedSingleBond NonConjugatedSingleBond NonConjugatedSingleBond NonConjugatedSingleBond NonConjugatedSingleBond NonConjugatedSingleBond NonConjugatedSingleBond NonConjugatedSingleBond NonConjugatedSingleBond
M  BCL CHI  32   S  33   S
M  BCL DBI Z Z - - -
M  END
> <ConfClashScore>
0 

> <ConfOneFourInteractionScore>
-0.97953 

> <ConfScore>
-0.0564281 

> <ConfScorePBest>
0.0120085 

> <ConfTolerance>
1.1453 

$$$$
L06.****
  PyMOL2.5          3D                             0

 49 48  0  0  0  0  0  0  0  0999 V2000
   -2.4306   -4.0817   -0.4488 C   0  0  0  1  0  0  0  0  0  0  0  0
   -2.6714   -2.6261   -0.7192 C   0  0  0  1  0  0  0  0  0  0  0  0
   -3.2590   -2.5377   -1.6091 H   0  0  0  1  0  0  0  0  0  0  0  0
   -1.7265   -2.1460   -0.8659 H   0  0  0  1  0  0  0  0  0  0  0  0
   -2.1700  -12.5013   -1.5320 O   0  0  0  1  0  0  0  0  0  0  0  0
   -2.6343  -11.1762    0.5754 O   0  0  0  1  0  0  0  0  0  0  0  0
   -3.3961  -10.4628    1.5625 C   0  0  0  1  0  0  0  0  0  0  0  0
   -2.9975  -10.6585    2.5361 H   0  0  0  1  0  0  0  0  0  0  0  0
   -4.4183  -10.7770    1.5253 H   0  0  0  1  0  0  0  0  0  0  0  0
   -1.7671  -15.0020   -1.8677 O   0  0  0  0  0  0  0  0  0  0  0  0
   -3.3082   -9.0059    1.2681 C   0  0  0  1  0  0  0  0  0  0  0  0
   -2.3734   -8.5606    1.1705 H   0  0  0  1  0  0  0  0  0  0  0  0
   -4.4006   -8.2646    1.1279 C   0  0  0  1  0  0  0  0  0  0  0  0
   -4.4310   -6.7687    0.9900 C   0  0  0  1  0  0  0  0  0  0  0  0
   -4.8347   -6.3520    1.8890 H   0  0  0  1  0  0  0  0  0  0  0  0
   -5.0623   -6.5156    0.1640 H   0  0  0  1  0  0  0  0  0  0  0  0
   -3.0652   -6.1685    0.7529 C   0  0  0  1  0  0  0  0  0  0  0  0
   -2.6668   -6.6188   -0.1322 H   0  0  0  1  0  0  0  0  0  0  0  0
   -2.4524   -6.4259    1.5914 H   0  0  0  1  0  0  0  0  0  0  0  0
   -2.9824   -4.6855    0.5766 C   0  0  0  1  0  0  0  0  0  0  0  0
   -3.3931   -4.0885    1.3226 H   0  0  0  1  0  0  0  0  0  0  0  0
   -3.4007   -1.9227    0.4139 C   0  0  0  1  0  0  0  0  0  0  0  0
   -2.7709   -1.9273    1.2789 H   0  0  0  1  0  0  0  0  0  0  0  0
   -4.3013   -2.4605    0.6250 H   0  0  0  1  0  0  0  0  0  0  0  0
   -3.7548   -0.5125    0.0930 C   0  0  0  1  0  0  0  0  0  0  0  0
   -2.9318    0.0914   -0.1058 H   0  0  0  1  0  0  0  0  0  0  0  0
   -4.9182    0.1244    0.0114 C   0  0  0  1  0  0  0  0  0  0  0  0
   -6.2451   -0.5287    0.2686 C   0  0  0  1  0  0  0  0  0  0  0  0
   -6.4897   -0.4438    1.3067 H   0  0  0  1  0  0  0  0  0  0  0  0
   -6.1917   -1.5627   -0.0016 H   0  0  0  1  0  0  0  0  0  0  0  0
   -6.9996   -0.0453   -0.3162 H   0  0  0  1  0  0  0  0  0  0  0  0
   -3.3642  -11.9668   -0.6120 P   0  0  0  1  0  0  0  0  0  0  0  0
   -2.0299  -13.6248   -2.7185 P   0  0  0  1  0  0  0  0  0  0  0  0
   -4.0526  -13.0844    0.0650 O   0  0  0  0  0  0  0  0  0  0  0  0
   -3.5359  -13.7415   -3.3039 O   0  5  0  1  0  0  0  0  0  0  0  0
   -5.7457   -8.9343    1.0990 C   0  0  0  1  0  0  0  0  0  0  0  0
   -5.9430   -9.2969    0.1119 H   0  0  0  1  0  0  0  0  0  0  0  0
   -6.5009   -8.2292    1.3773 H   0  0  0  1  0  0  0  0  0  0  0  0
   -5.7508   -9.7535    1.7873 H   0  0  0  1  0  0  0  0  0  0  0  0
   -1.5253   -4.7617   -1.4332 C   0  0  0  1  0  0  0  0  0  0  0  0
   -0.6339   -4.1830   -1.5575 H   0  0  0  1  0  0  0  0  0  0  0  0
   -2.0260   -4.8517   -2.3746 H   0  0  0  1  0  0  0  0  0  0  0  0
   -1.2705   -5.7352   -1.0697 H   0  0  0  1  0  0  0  0  0  0  0  0
   -4.9936    1.5783   -0.3526 C   0  0  0  1  0  0  0  0  0  0  0  0
   -5.7407    1.7197   -1.1055 H   0  0  0  1  0  0  0  0  0  0  0  0
   -4.0448    1.9017   -0.7269 H   0  0  0  1  0  0  0  0  0  0  0  0
   -5.2492    2.1501    0.5149 H   0  0  0  1  0  0  0  0  0  0  0  0
   -4.1199  -11.0376   -1.4674 O   0  0  0  1  0  0  0  0  0  0  0  0
   -1.0400  -13.4062   -3.7967 O   0  0  0  1  0  0  0  0  0  0  0  0
  1  2  1  0  0  0  0
  1 20  2  0  0  0  0
  1 40  1  0  0  0  0
  2  3  1  0  0  0  0
  2  4  1  0  0  0  0
  2 22  1  0  0  0  0
  5 32  1  0  0  0  0
  5 33  1  0  0  0  0
  6  7  1  0  0  0  0
  6 32  1  0  0  0  0
  7  8  1  0  0  0  0
  7  9  1  0  0  0  0
  7 11  1  0  0  0  0
 10 33  1  0  0  0  0
 11 12  1  0  0  0  0
 11 13  2  0  0  0  0
 13 14  1  0  0  0  0
 13 36  1  0  0  0  0
 14 15  1  0  0  0  0
 14 16  1  0  0  0  0
 14 17  1  0  0  0  0
 17 18  1  0  0  0  0
 17 19  1  0  0  0  0
 17 20  1  0  0  0  0
 20 21  1  0  0  0  0
 22 23  1  0  0  0  0
 22 24  1  0  0  0  0
 22 25  1  0  0  0  0
 25 26  1  0  0  0  0
 25 27  2  0  0  0  0
 27 28  1  0  0  0  0
 27 44  1  0  0  0  0
 28 29  1  0  0  0  0
 28 30  1  0  0  0  0
 28 31  1  0  0  0  0
 32 34  1  0  0  0  0
 32 48  2  0  0  0  0
 33 35  1  0  0  0  0
 33 49  2  0  0  0  0
 36 37  1  0  0  0  0
 36 38  1  0  0  0  0
 36 39  1  0  0  0  0
 40 41  1  0  0  0  0
 40 42  1  0  0  0  0
 40 43  1  0  0  0  0
 44 45  1  0  0  0  0
 44 46  1  0  0  0  0
 44 47  1  0  0  0  0
M  BCL ATM C_TrTrTrPi C_TeTeTeTe H_S H_S O_Tr2TrTrPi2 O_Tr2TrTrPi2 C_TeTeTeTe H_S H_S O_Te2Te2TeTe C_TrTrTrPi H_S C_TrTrTrPi C_TeTeTeTe H_S H_S C_TeTeTeTe H_S H_S C_TrTrTrPi H_S C_TeTeTeTe H_S H_S C_TrTrTrPi H_S C_TrTrTrPi C_TeTeTeTe H_S H_S H_S P_TeTeTeTePi P_TeTeTeTePi O_Te2Te2TeTe O_Te2Te2Te2Te C_TeTeTeTe H_S H_S H_S C_TeTeTeTe H_S H_S H_S C_TeTeTeTe H_S H_S H_S O_Tr2Tr2TrPi O_Tr2Tr2TrPi
M  BCL BND NonConjugatedSingleBond ConjugatedDoubleBond NonConjugatedSingleBond NonConjugatedSingleBond NonConjugatedSingleBond NonConjugatedSingleBond ConjugatedSingleBond ConjugatedSingleBond NonConjugatedSingleBond ConjugatedSingleBond NonConjugatedSingleBond NonConjugatedSingleBond NonConjugatedSingleBond ConjugatedSingleBond NonConjugatedSingleBond ConjugatedDoubleBond NonConjugatedSingleBond NonConjugatedSingleBond NonConjugatedSingleBond NonConjugatedSingleBond NonConjugatedSingleBond NonConjugatedSingleBond NonConjugatedSingleBond NonConjugatedSingleBond NonConjugatedSingleBond NonConjugatedSingleBond NonConjugatedSingleBond NonConjugatedSingleBond NonConjugatedSingleBond ConjugatedDoubleBond NonConjugatedSingleBond NonConjugatedSingleBond NonConjugatedSingleBond NonConjugatedSingleBond NonConjugatedSingleBond ConjugatedSingleBond ConjugatedDoubleBond ConjugatedSingleBond ConjugatedDoubleBond NonConjugatedSingleBond NonConjugatedSingleBond NonConjugatedSingleBond NonConjugatedSingleBond NonConjugatedSingleBond NonConjugatedSingleBond NonConjugatedSingleBond NonConjugatedSingleBond NonConjugatedSingleBond
M  BCL CHI  32   S  33   S
M  BCL DBI Z Z - - -
M  END
> <ConfClashScore>
0 

> <ConfOneFourInteractionScore>
-0.989466 

> <ConfScore>
-0.0562077 

> <ConfScorePBest>
0.0119055 

> <ConfTolerance>
1.26272 

$$$$
L06.****
  PyMOL2.5          3D                             0

 49 48  0  0  0  0  0  0  0  0999 V2000
   -0.5774    0.1915    2.3720 C   0  0  0  1  0  0  0  0  0  0  0  0
   -1.9295   -0.3714    2.0369 C   0  0  0  1  0  0  0  0  0  0  0  0
   -2.6199   -0.0387    2.7836 H   0  0  0  1  0  0  0  0  0  0  0  0
   -1.8591   -1.4387    2.0658 H   0  0  0  1  0  0  0  0  0  0  0  0
    7.8126    3.9695    1.9552 O   0  0  0  1  0  0  0  0  0  0  0  0
    5.8449    2.7133    2.2182 O   0  0  0  1  0  0  0  0  0  0  0  0
    4.9659    3.8515    2.3139 C   0  0  0  1  0  0  0  0  0  0  0  0
    5.2182    4.5662    1.5587 H   0  0  0  1  0  0  0  0  0  0  0  0
    5.0639    4.3024    3.2793 H   0  0  0  1  0  0  0  0  0  0  0  0
    9.0296    5.5673    0.5506 O   0  0  0  0  0  0  0  0  0  0  0  0
    3.5649    3.3871    2.1171 C   0  0  0  1  0  0  0  0  0  0  0  0
    3.2697    2.6498    2.7886 H   0  0  0  1  0  0  0  0  0  0  0  0
    2.6187    3.7316    1.2502 C   0  0  0  1  0  0  0  0  0  0  0  0
    1.3752    2.9235    1.0085 C   0  0  0  1  0  0  0  0  0  0  0  0
    1.3043    2.7126   -0.0381 H   0  0  0  1  0  0  0  0  0  0  0  0
    0.5285    3.5016    1.3146 H   0  0  0  1  0  0  0  0  0  0  0  0
    1.3631    1.6025    1.7720 C   0  0  0  1  0  0  0  0  0  0  0  0
    1.3563    1.8153    2.8206 H   0  0  0  1  0  0  0  0  0  0  0  0
    2.2499    1.0576    1.5238 H   0  0  0  1  0  0  0  0  0  0  0  0
    0.1775    0.7525    1.4517 C   0  0  0  1  0  0  0  0  0  0  0  0
   -0.0633    0.5964    0.4521 H   0  0  0  1  0  0  0  0  0  0  0  0
   -2.4819    0.0254    0.6775 C   0  0  0  1  0  0  0  0  0  0  0  0
   -1.8014   -0.3092   -0.0775 H   0  0  0  1  0  0  0  0  0  0  0  0
   -2.5606    1.0918    0.6400 H   0  0  0  1  0  0  0  0  0  0  0  0
   -3.8376   -0.5654    0.3965 C   0  0  0  1  0  0  0  0  0  0  0  0
   -3.9204   -1.5983    0.4843 H   0  0  0  1  0  0  0  0  0  0  0  0
   -4.9399    0.0898    0.0485 C   0  0  0  1  0  0  0  0  0  0  0  0
   -6.2622   -0.5779   -0.2034 C   0  0  0  1  0  0  0  0  0  0  0  0
   -6.2460   -1.5673    0.2039 H   0  0  0  1  0  0  0  0  0  0  0  0
   -6.4406   -0.6292   -1.2571 H   0  0  0  1  0  0  0  0  0  0  0  0
   -7.0415   -0.0129    0.2638 H   0  0  0  1  0  0  0  0  0  0  0  0
    7.2993    2.7866    2.9490 P   0  0  0  1  0  0  0  0  0  0  0  0
    8.9185    5.1667    2.1371 P   0  0  0  1  0  0  0  0  0  0  0  0
    7.1528    3.3112    4.3295 O   0  0  0  0  0  0  0  0  0  0  0  0
    8.2746    6.3637    3.0185 O   0  5  0  1  0  0  0  0  0  0  0  0
    2.7243    4.9849    0.4276 C   0  0  0  1  0  0  0  0  0  0  0  0
    3.6463    4.9792   -0.1152 H   0  0  0  1  0  0  0  0  0  0  0  0
    2.6957    5.8381    1.0727 H   0  0  0  1  0  0  0  0  0  0  0  0
    1.9059    5.0297   -0.2603 H   0  0  0  1  0  0  0  0  0  0  0  0
   -0.1809    0.0573    3.8131 C   0  0  0  1  0  0  0  0  0  0  0  0
   -0.9005    0.5548    4.4293 H   0  0  0  1  0  0  0  0  0  0  0  0
    0.7818    0.5004    3.9607 H   0  0  0  1  0  0  0  0  0  0  0  0
   -0.1414   -0.9789    4.0769 H   0  0  0  1  0  0  0  0  0  0  0  0
   -4.9463    1.5806   -0.1229 C   0  0  0  1  0  0  0  0  0  0  0  0
   -5.7995    1.9936    0.3734 H   0  0  0  1  0  0  0  0  0  0  0  0
   -4.9900    1.8194   -1.1651 H   0  0  0  1  0  0  0  0  0  0  0  0
   -4.0539    1.9919    0.3006 H   0  0  0  1  0  0  0  0  0  0  0  0
    8.0543    1.5419    2.7179 O   0  0  0  1  0  0  0  0  0  0  0  0
   10.1545    4.6637    2.7771 O   0  0  0  1  0  0  0  0  0  0  0  0
  1  2  1  0  0  0  0
  1 20  2  0  0  0  0
  1 40  1  0  0  0  0
  2  3  1  0  0  0  0
  2  4  1  0  0  0  0
  2 22  1  0  0  0  0
  5 32  1  0  0  0  0
  5 33  1  0  0  0  0
  6  7  1  0  0  0  0
  6 32  1  0  0  0  0
  7  8  1  0  0  0  0
  7  9  1  0  0  0  0
  7 11  1  0  0  0  0
 10 33  1  0  0  0  0
 11 12  1  0  0  0  0
 11 13  2  0  0  0  0
 13 14  1  0  0  0  0
 13 36  1  0  0  0  0
 14 15  1  0  0  0  0
 14 16  1  0  0  0  0
 14 17  1  0  0  0  0
 17 18  1  0  0  0  0
 17 19  1  0  0  0  0
 17 20  1  0  0  0  0
 20 21  1  0  0  0  0
 22 23  1  0  0  0  0
 22 24  1  0  0  0  0
 22 25  1  0  0  0  0
 25 26  1  0  0  0  0
 25 27  2  0  0  0  0
 27 28  1  0  0  0  0
 27 44  1  0  0  0  0
 28 29  1  0  0  0  0
 28 30  1  0  0  0  0
 28 31  1  0  0  0  0
 32 34  1  0  0  0  0
 32 48  2  0  0  0  0
 33 35  1  0  0  0  0
 33 49  2  0  0  0  0
 36 37  1  0  0  0  0
 36 38  1  0  0  0  0
 36 39  1  0  0  0  0
 40 41  1  0  0  0  0
 40 42  1  0  0  0  0
 40 43  1  0  0  0  0
 44 45  1  0  0  0  0
 44 46  1  0  0  0  0
 44 47  1  0  0  0  0
M  BCL ATM C_TrTrTrPi C_TeTeTeTe H_S H_S O_Tr2TrTrPi2 O_Tr2TrTrPi2 C_TeTeTeTe H_S H_S O_Te2Te2TeTe C_TrTrTrPi H_S C_TrTrTrPi C_TeTeTeTe H_S H_S C_TeTeTeTe H_S H_S C_TrTrTrPi H_S C_TeTeTeTe H_S H_S C_TrTrTrPi H_S C_TrTrTrPi C_TeTeTeTe H_S H_S H_S P_TeTeTeTePi P_TeTeTeTePi O_Te2Te2TeTe O_Te2Te2Te2Te C_TeTeTeTe H_S H_S H_S C_TeTeTeTe H_S H_S H_S C_TeTeTeTe H_S H_S H_S O_Tr2Tr2TrPi O_Tr2Tr2TrPi
M  BCL BND NonConjugatedSingleBond ConjugatedDoubleBond NonConjugatedSingleBond NonConjugatedSingleBond NonConjugatedSingleBond NonConjugatedSingleBond ConjugatedSingleBond ConjugatedSingleBond NonConjugatedSingleBond ConjugatedSingleBond NonConjugatedSingleBond NonConjugatedSingleBond NonConjugatedSingleBond ConjugatedSingleBond NonConjugatedSingleBond ConjugatedDoubleBond NonConjugatedSingleBond NonConjugatedSingleBond NonConjugatedSingleBond NonConjugatedSingleBond NonConjugatedSingleBond NonConjugatedSingleBond NonConjugatedSingleBond NonConjugatedSingleBond NonConjugatedSingleBond NonConjugatedSingleBond NonConjugatedSingleBond NonConjugatedSingleBond NonConjugatedSingleBond ConjugatedDoubleBond NonConjugatedSingleBond NonConjugatedSingleBond NonConjugatedSingleBond NonConjugatedSingleBond NonConjugatedSingleBond ConjugatedSingleBond ConjugatedDoubleBond ConjugatedSingleBond ConjugatedDoubleBond NonConjugatedSingleBond NonConjugatedSingleBond NonConjugatedSingleBond NonConjugatedSingleBond NonConjugatedSingleBond NonConjugatedSingleBond NonConjugatedSingleBond NonConjugatedSingleBond NonConjugatedSingleBond
M  BCL CHI  32   S  33   S
M  BCL DBI Z Z - - -
M  END
> <ConfClashScore>
0 

> <ConfOneFourInteractionScore>
-0.989137 

> <ConfScore>
-0.0551826 

> <ConfScorePBest>
0.0118025 

> <ConfTolerance>
1.14134 

$$$$
L06.****
  PyMOL2.5          3D                             0

 49 48  0  0  0  0  0  0  0  0999 V2000
   -3.1626   -3.5216   -2.8139 C   0  0  0  1  0  0  0  0  0  0  0  0
   -3.2043   -2.0835   -2.3712 C   0  0  0  1  0  0  0  0  0  0  0  0
   -3.7959   -1.5292   -3.0696 H   0  0  0  1  0  0  0  0  0  0  0  0
   -2.2055   -1.6998   -2.3655 H   0  0  0  1  0  0  0  0  0  0  0  0
   -1.7432  -11.5113   -5.2744 O   0  0  0  1  0  0  0  0  0  0  0  0
   -3.2781  -10.1349   -3.9262 O   0  0  0  1  0  0  0  0  0  0  0  0
   -4.2259   -9.7326   -4.9488 C   0  0  0  1  0  0  0  0  0  0  0  0
   -5.0403  -10.4254   -4.9908 H   0  0  0  1  0  0  0  0  0  0  0  0
   -3.7437   -9.6900   -5.9031 H   0  0  0  1  0  0  0  0  0  0  0  0
   -0.0688  -12.1910   -7.2213 O   0  0  0  0  0  0  0  0  0  0  0  0
   -4.7227   -8.3727   -4.5585 C   0  0  0  1  0  0  0  0  0  0  0  0
   -5.2243   -8.2047   -3.6631 H   0  0  0  1  0  0  0  0  0  0  0  0
   -4.4832   -7.3960   -5.4255 C   0  0  0  1  0  0  0  0  0  0  0  0
   -4.7443   -5.9599   -5.0752 C   0  0  0  1  0  0  0  0  0  0  0  0
   -5.4701   -5.9274   -4.2897 H   0  0  0  1  0  0  0  0  0  0  0  0
   -5.1316   -5.4633   -5.9402 H   0  0  0  1  0  0  0  0  0  0  0  0
   -3.4975   -5.2238   -4.6125 C   0  0  0  1  0  0  0  0  0  0  0  0
   -2.8858   -5.0388   -5.4707 H   0  0  0  1  0  0  0  0  0  0  0  0
   -2.9729   -5.8596   -3.9303 H   0  0  0  1  0  0  0  0  0  0  0  0
   -3.7432   -3.9074   -3.9250 C   0  0  0  1  0  0  0  0  0  0  0  0
   -4.4242   -3.2551   -4.3637 H   0  0  0  1  0  0  0  0  0  0  0  0
   -3.7993   -1.9045   -0.9840 C   0  0  0  1  0  0  0  0  0  0  0  0
   -3.2292   -2.4992   -0.3011 H   0  0  0  1  0  0  0  0  0  0  0  0
   -4.8086   -2.2588   -1.0095 H   0  0  0  1  0  0  0  0  0  0  0  0
   -3.8163   -0.4923   -0.4670 C   0  0  0  1  0  0  0  0  0  0  0  0
   -2.9106    0.0176   -0.4301 H   0  0  0  1  0  0  0  0  0  0  0  0
   -4.9012    0.1521   -0.0543 C   0  0  0  1  0  0  0  0  0  0  0  0
   -6.1999   -0.5677    0.1666 C   0  0  0  1  0  0  0  0  0  0  0  0
   -6.9613   -0.1254   -0.4414 H   0  0  0  1  0  0  0  0  0  0  0  0
   -6.4782   -0.4926    1.1970 H   0  0  0  1  0  0  0  0  0  0  0  0
   -6.0859   -1.5981   -0.0985 H   0  0  0  1  0  0  0  0  0  0  0  0
   -2.6192  -11.5486   -3.9580 P   0  0  0  1  0  0  0  0  0  0  0  0
   -0.2778  -12.1742   -5.5948 P   0  0  0  1  0  0  0  0  0  0  0  0
   -1.6524  -11.6757   -2.7916 O   0  0  0  0  0  0  0  0  0  0  0  0
    0.7725  -11.0808   -5.0240 O   0  5  0  1  0  0  0  0  0  0  0  0
   -3.9412   -7.6172   -6.8096 C   0  0  0  1  0  0  0  0  0  0  0  0
   -2.9019   -7.8651   -6.7508 H   0  0  0  1  0  0  0  0  0  0  0  0
   -4.0626   -6.7245   -7.3867 H   0  0  0  1  0  0  0  0  0  0  0  0
   -4.4731   -8.4196   -7.2766 H   0  0  0  1  0  0  0  0  0  0  0  0
   -2.4331   -4.4978   -1.9388 C   0  0  0  1  0  0  0  0  0  0  0  0
   -3.0888   -4.8461   -1.1683 H   0  0  0  1  0  0  0  0  0  0  0  0
   -1.5868   -4.0159   -1.4956 H   0  0  0  1  0  0  0  0  0  0  0  0
   -2.1034   -5.3277   -2.5283 H   0  0  0  1  0  0  0  0  0  0  0  0
   -4.9442    1.6276    0.2277 C   0  0  0  1  0  0  0  0  0  0  0  0
   -5.7273    2.0781   -0.3454 H   0  0  0  1  0  0  0  0  0  0  0  0
   -4.0071    2.0691   -0.0403 H   0  0  0  1  0  0  0  0  0  0  0  0
   -5.1287    1.7860    1.2697 H   0  0  0  1  0  0  0  0  0  0  0  0
   -3.6934  -12.5835   -4.0480 O   0  0  0  1  0  0  0  0  0  0  0  0
   -0.2507  -13.5302   -5.0023 O   0  0  0  1  0  0  0  0  0  0  0  0
  1  2  1  0  0  0  0
  1 20  2  0  0  0  0
  1 40  1  0  0  0  0
  2  3  1  0  0  0  0
  2  4  1  0  0  0  0
  2 22  1  0  0  0  0
  5 32  1  0  0  0  0
  5 33  1  0  0  0  0
  6  7  1  0  0  0  0
  6 32  1  0  0  0  0
  7  8  1  0  0  0  0
  7  9  1  0  0  0  0
  7 11  1  0  0  0  0
 10 33  1  0  0  0  0
 11 12  1  0  0  0  0
 11 13  2  0  0  0  0
 13 14  1  0  0  0  0
 13 36  1  0  0  0  0
 14 15  1  0  0  0  0
 14 16  1  0  0  0  0
 14 17  1  0  0  0  0
 17 18  1  0  0  0  0
 17 19  1  0  0  0  0
 17 20  1  0  0  0  0
 20 21  1  0  0  0  0
 22 23  1  0  0  0  0
 22 24  1  0  0  0  0
 22 25  1  0  0  0  0
 25 26  1  0  0  0  0
 25 27  2  0  0  0  0
 27 28  1  0  0  0  0
 27 44  1  0  0  0  0
 28 29  1  0  0  0  0
 28 30  1  0  0  0  0
 28 31  1  0  0  0  0
 32 34  1  0  0  0  0
 32 48  2  0  0  0  0
 33 35  1  0  0  0  0
 33 49  2  0  0  0  0
 36 37  1  0  0  0  0
 36 38  1  0  0  0  0
 36 39  1  0  0  0  0
 40 41  1  0  0  0  0
 40 42  1  0  0  0  0
 40 43  1  0  0  0  0
 44 45  1  0  0  0  0
 44 46  1  0  0  0  0
 44 47  1  0  0  0  0
M  BCL ATM C_TrTrTrPi C_TeTeTeTe H_S H_S O_Tr2TrTrPi2 O_Tr2TrTrPi2 C_TeTeTeTe H_S H_S O_Te2Te2TeTe C_TrTrTrPi H_S C_TrTrTrPi C_TeTeTeTe H_S H_S C_TeTeTeTe H_S H_S C_TrTrTrPi H_S C_TeTeTeTe H_S H_S C_TrTrTrPi H_S C_TrTrTrPi C_TeTeTeTe H_S H_S H_S P_TeTeTeTePi P_TeTeTeTePi O_Te2Te2TeTe O_Te2Te2Te2Te C_TeTeTeTe H_S H_S H_S C_TeTeTeTe H_S H_S H_S C_TeTeTeTe H_S H_S H_S O_Tr2Tr2TrPi O_Tr2Tr2TrPi
M  BCL BND NonConjugatedSingleBond ConjugatedDoubleBond NonConjugatedSingleBond NonConjugatedSingleBond NonConjugatedSingleBond NonConjugatedSingleBond ConjugatedSingleBond ConjugatedSingleBond NonConjugatedSingleBond ConjugatedSingleBond NonConjugatedSingleBond NonConjugatedSingleBond NonConjugatedSingleBond ConjugatedSingleBond NonConjugatedSingleBond ConjugatedDoubleBond NonConjugatedSingleBond NonConjugatedSingleBond NonConjugatedSingleBond NonConjugatedSingleBond NonConjugatedSingleBond NonConjugatedSingleBond NonConjugatedSingleBond NonConjugatedSingleBond NonConjugatedSingleBond NonConjugatedSingleBond NonConjugatedSingleBond NonConjugatedSingleBond NonConjugatedSingleBond ConjugatedDoubleBond NonConjugatedSingleBond NonConjugatedSingleBond NonConjugatedSingleBond NonConjugatedSingleBond NonConjugatedSingleBond ConjugatedSingleBond ConjugatedDoubleBond ConjugatedSingleBond ConjugatedDoubleBond NonConjugatedSingleBond NonConjugatedSingleBond NonConjugatedSingleBond NonConjugatedSingleBond NonConjugatedSingleBond NonConjugatedSingleBond NonConjugatedSingleBond NonConjugatedSingleBond NonConjugatedSingleBond
M  BCL CHI  32   S  33   S
M  BCL DBI Z Z - - -
M  END
> <ConfClashScore>
0 

> <ConfOneFourInteractionScore>
-0.972961 

> <ConfScore>
-0.0549738 

> <ConfScorePBest>
0.0116995 

> <ConfTolerance>
1.17443 

$$$$
L06.****
  PyMOL2.5          3D                             0

 49 48  0  0  0  0  0  0  0  0999 V2000
   -1.5009    0.9771    3.3050 C   0  0  0  1  0  0  0  0  0  0  0  0
   -2.5263    0.0593    2.6950 C   0  0  0  1  0  0  0  0  0  0  0  0
   -3.4552    0.2190    3.2016 H   0  0  0  1  0  0  0  0  0  0  0  0
   -2.2025   -0.9483    2.8520 H   0  0  0  1  0  0  0  0  0  0  0  0
    3.3707    9.4265    4.3517 O   0  0  0  1  0  0  0  0  0  0  0  0
    3.0762    7.4657    3.0919 O   0  0  0  1  0  0  0  0  0  0  0  0
    1.8843    7.4136    3.8921 C   0  0  0  1  0  0  0  0  0  0  0  0
    1.3988    8.3670    3.8779 H   0  0  0  1  0  0  0  0  0  0  0  0
    2.1375    7.1567    4.8995 H   0  0  0  1  0  0  0  0  0  0  0  0
    4.8212   11.4261    5.4563 O   0  0  0  0  0  0  0  0  0  0  0  0
    0.9690    6.3718    3.3195 C   0  0  0  1  0  0  0  0  0  0  0  0
    0.7987    6.4171    2.2946 H   0  0  0  1  0  0  0  0  0  0  0  0
    0.3557    5.4027    3.9764 C   0  0  0  1  0  0  0  0  0  0  0  0
   -0.5411    4.4249    3.2504 C   0  0  0  1  0  0  0  0  0  0  0  0
   -0.6659    4.7740    2.2467 H   0  0  0  1  0  0  0  0  0  0  0  0
   -1.4894    4.4161    3.7460 H   0  0  0  1  0  0  0  0  0  0  0  0
   -0.0307    2.9944    3.1893 C   0  0  0  1  0  0  0  0  0  0  0  0
    0.2461    2.6891    4.1767 H   0  0  0  1  0  0  0  0  0  0  0  0
    0.8288    2.9664    2.5527 H   0  0  0  1  0  0  0  0  0  0  0  0
   -1.0529    2.0259    2.6571 C   0  0  0  1  0  0  0  0  0  0  0  0
   -1.4321    2.2014    1.7048 H   0  0  0  1  0  0  0  0  0  0  0  0
   -2.7660    0.2482    1.2059 C   0  0  0  1  0  0  0  0  0  0  0  0
   -1.8764   -0.0450    0.6887 H   0  0  0  1  0  0  0  0  0  0  0  0
   -2.9550    1.2867    1.0311 H   0  0  0  1  0  0  0  0  0  0  0  0
   -3.9036   -0.5275    0.6391 C   0  0  0  1  0  0  0  0  0  0  0  0
   -3.8845   -1.5664    0.6823 H   0  0  0  1  0  0  0  0  0  0  0  0
   -4.9463    0.0849    0.0772 C   0  0  0  1  0  0  0  0  0  0  0  0
   -6.2517   -0.5949   -0.2178 C   0  0  0  1  0  0  0  0  0  0  0  0
   -6.8920   -0.5250    0.6366 H   0  0  0  1  0  0  0  0  0  0  0  0
   -6.0735   -1.6250   -0.4463 H   0  0  0  1  0  0  0  0  0  0  0  0
   -6.7202   -0.1195   -1.0541 H   0  0  0  1  0  0  0  0  0  0  0  0
    4.3429    8.3357    3.6338 P   0  0  0  1  0  0  0  0  0  0  0  0
    3.5667   10.3904    5.6640 P   0  0  0  1  0  0  0  0  0  0  0  0
    5.0890    7.5686    4.6595 O   0  0  0  0  0  0  0  0  0  0  0  0
    2.2494   11.3303    5.7382 O   0  5  0  1  0  0  0  0  0  0  0  0
    0.4099    5.2416    5.4684 C   0  0  0  1  0  0  0  0  0  0  0  0
   -0.3431    5.8522    5.9212 H   0  0  0  1  0  0  0  0  0  0  0  0
    1.3734    5.5411    5.8245 H   0  0  0  1  0  0  0  0  0  0  0  0
    0.2380    4.2165    5.7226 H   0  0  0  1  0  0  0  0  0  0  0  0
   -1.0526    0.5896    4.6848 C   0  0  0  1  0  0  0  0  0  0  0  0
   -0.2285    1.2056    4.9787 H   0  0  0  1  0  0  0  0  0  0  0  0
   -0.7489   -0.4364    4.6859 H   0  0  0  1  0  0  0  0  0  0  0  0
   -1.8609    0.7236    5.3730 H   0  0  0  1  0  0  0  0  0  0  0  0
   -4.8905    1.5355   -0.3116 C   0  0  0  1  0  0  0  0  0  0  0  0
   -5.4867    2.1101    0.3661 H   0  0  0  1  0  0  0  0  0  0  0  0
   -5.2680    1.6528   -1.3059 H   0  0  0  1  0  0  0  0  0  0  0  0
   -3.8770    1.8764   -0.2717 H   0  0  0  1  0  0  0  0  0  0  0  0
    5.0726    8.9451    2.5009 O   0  0  0  1  0  0  0  0  0  0  0  0
    3.6841    9.4929    6.8350 O   0  0  0  1  0  0  0  0  0  0  0  0
  1  2  1  0  0  0  0
  1 20  2  0  0  0  0
  1 40  1  0  0  0  0
  2  3  1  0  0  0  0
  2  4  1  0  0  0  0
  2 22  1  0  0  0  0
  5 32  1  0  0  0  0
  5 33  1  0  0  0  0
  6  7  1  0  0  0  0
  6 32  1  0  0  0  0
  7  8  1  0  0  0  0
  7  9  1  0  0  0  0
  7 11  1  0  0  0  0
 10 33  1  0  0  0  0
 11 12  1  0  0  0  0
 11 13  2  0  0  0  0
 13 14  1  0  0  0  0
 13 36  1  0  0  0  0
 14 15  1  0  0  0  0
 14 16  1  0  0  0  0
 14 17  1  0  0  0  0
 17 18  1  0  0  0  0
 17 19  1  0  0  0  0
 17 20  1  0  0  0  0
 20 21  1  0  0  0  0
 22 23  1  0  0  0  0
 22 24  1  0  0  0  0
 22 25  1  0  0  0  0
 25 26  1  0  0  0  0
 25 27  2  0  0  0  0
 27 28  1  0  0  0  0
 27 44  1  0  0  0  0
 28 29  1  0  0  0  0
 28 30  1  0  0  0  0
 28 31  1  0  0  0  0
 32 34  1  0  0  0  0
 32 48  2  0  0  0  0
 33 35  1  0  0  0  0
 33 49  2  0  0  0  0
 36 37  1  0  0  0  0
 36 38  1  0  0  0  0
 36 39  1  0  0  0  0
 40 41  1  0  0  0  0
 40 42  1  0  0  0  0
 40 43  1  0  0  0  0
 44 45  1  0  0  0  0
 44 46  1  0  0  0  0
 44 47  1  0  0  0  0
M  BCL ATM C_TrTrTrPi C_TeTeTeTe H_S H_S O_Tr2TrTrPi2 O_Tr2TrTrPi2 C_TeTeTeTe H_S H_S O_Te2Te2TeTe C_TrTrTrPi H_S C_TrTrTrPi C_TeTeTeTe H_S H_S C_TeTeTeTe H_S H_S C_TrTrTrPi H_S C_TeTeTeTe H_S H_S C_TrTrTrPi H_S C_TrTrTrPi C_TeTeTeTe H_S H_S H_S P_TeTeTeTePi P_TeTeTeTePi O_Te2Te2TeTe O_Te2Te2Te2Te C_TeTeTeTe H_S H_S H_S C_TeTeTeTe H_S H_S H_S C_TeTeTeTe H_S H_S H_S O_Tr2Tr2TrPi O_Tr2Tr2TrPi
M  BCL BND NonConjugatedSingleBond ConjugatedDoubleBond NonConjugatedSingleBond NonConjugatedSingleBond NonConjugatedSingleBond NonConjugatedSingleBond ConjugatedSingleBond ConjugatedSingleBond NonConjugatedSingleBond ConjugatedSingleBond NonConjugatedSingleBond NonConjugatedSingleBond NonConjugatedSingleBond ConjugatedSingleBond NonConjugatedSingleBond ConjugatedDoubleBond NonConjugatedSingleBond NonConjugatedSingleBond NonConjugatedSingleBond NonConjugatedSingleBond NonConjugatedSingleBond NonConjugatedSingleBond NonConjugatedSingleBond NonConjugatedSingleBond NonConjugatedSingleBond NonConjugatedSingleBond NonConjugatedSingleBond NonConjugatedSingleBond NonConjugatedSingleBond ConjugatedDoubleBond NonConjugatedSingleBond NonConjugatedSingleBond NonConjugatedSingleBond NonConjugatedSingleBond NonConjugatedSingleBond ConjugatedSingleBond ConjugatedDoubleBond ConjugatedSingleBond ConjugatedDoubleBond NonConjugatedSingleBond NonConjugatedSingleBond NonConjugatedSingleBond NonConjugatedSingleBond NonConjugatedSingleBond NonConjugatedSingleBond NonConjugatedSingleBond NonConjugatedSingleBond NonConjugatedSingleBond
M  BCL CHI  32   S  33   S
M  BCL DBI Z Z - - -
M  END
> <ConfClashScore>
0 

> <ConfOneFourInteractionScore>
-0.982537 

> <ConfScore>
-0.0545159 

> <ConfScorePBest>
0.0115965 

> <ConfTolerance>
1.10521 

$$$$
L06.****
  PyMOL2.5          3D                             0

 49 48  0  0  0  0  0  0  0  0999 V2000
   -0.0825    0.3307    0.3966 C   0  0  0  1  0  0  0  0  0  0  0  0
   -1.4641   -0.1595    0.7194 C   0  0  0  1  0  0  0  0  0  0  0  0
   -1.8381    0.3994    1.5517 H   0  0  0  1  0  0  0  0  0  0  0  0
   -1.4053   -1.1951    0.9820 H   0  0  0  1  0  0  0  0  0  0  0  0
    7.1520    4.4341   -5.5500 O   0  0  0  1  0  0  0  0  0  0  0  0
    6.0176    2.3906   -4.6128 O   0  0  0  1  0  0  0  0  0  0  0  0
    5.4955    2.8135   -3.3377 C   0  0  0  1  0  0  0  0  0  0  0  0
    5.2828    3.8620   -3.3551 H   0  0  0  1  0  0  0  0  0  0  0  0
    6.2022    2.6052   -2.5618 H   0  0  0  1  0  0  0  0  0  0  0  0
    6.6206    7.0381   -6.0080 O   0  0  0  0  0  0  0  0  0  0  0  0
    4.2342    2.0326   -3.1129 C   0  0  0  1  0  0  0  0  0  0  0  0
    3.5663    1.9582   -3.9067 H   0  0  0  1  0  0  0  0  0  0  0  0
    3.9069    1.4291   -1.9753 C   0  0  0  1  0  0  0  0  0  0  0  0
    2.6364    0.6539   -1.7793 C   0  0  0  1  0  0  0  0  0  0  0  0
    2.8583   -0.2258   -1.2120 H   0  0  0  1  0  0  0  0  0  0  0  0
    2.2571    0.3733   -2.7397 H   0  0  0  1  0  0  0  0  0  0  0  0
    1.5637    1.4439   -1.0474 C   0  0  0  1  0  0  0  0  0  0  0  0
    1.3261    2.3122   -1.6257 H   0  0  0  1  0  0  0  0  0  0  0  0
    1.9509    1.7434   -0.0960 H   0  0  0  1  0  0  0  0  0  0  0  0
    0.3142    0.6649   -0.8267 C   0  0  0  1  0  0  0  0  0  0  0  0
   -0.2589    0.3770   -1.6454 H   0  0  0  1  0  0  0  0  0  0  0  0
   -2.4354   -0.0089   -0.4401 C   0  0  0  1  0  0  0  0  0  0  0  0
   -2.0290   -0.5123   -1.2924 H   0  0  0  1  0  0  0  0  0  0  0  0
   -2.5452    1.0326   -0.6592 H   0  0  0  1  0  0  0  0  0  0  0  0
   -3.7946   -0.5827   -0.1484 C   0  0  0  1  0  0  0  0  0  0  0  0
   -3.8484   -1.6157   -0.0403 H   0  0  0  1  0  0  0  0  0  0  0  0
   -4.9343    0.0870   -0.0137 C   0  0  0  1  0  0  0  0  0  0  0  0
   -6.2598   -0.5683    0.2456 C   0  0  0  1  0  0  0  0  0  0  0  0
   -6.9049    0.1188    0.7522 H   0  0  0  1  0  0  0  0  0  0  0  0
   -6.1152   -1.4363    0.8542 H   0  0  0  1  0  0  0  0  0  0  0  0
   -6.7040   -0.8543   -0.6849 H   0  0  0  1  0  0  0  0  0  0  0  0
    5.9779    3.3741   -5.8894 P   0  0  0  1  0  0  0  0  0  0  0  0
    6.8402    5.8885   -4.8593 P   0  0  0  1  0  0  0  0  0  0  0  0
    6.3475    2.7039   -7.1834 O   0  0  0  0  0  0  0  0  0  0  0  0
    5.3862    5.6917   -4.1726 O   0  5  0  1  0  0  0  0  0  0  0  0
    4.8055    1.4788   -0.7718 C   0  0  0  1  0  0  0  0  0  0  0  0
    4.5505    2.3264   -0.1705 H   0  0  0  1  0  0  0  0  0  0  0  0
    5.8236    1.5612   -1.0904 H   0  0  0  1  0  0  0  0  0  0  0  0
    4.6821    0.5844   -0.1976 H   0  0  0  1  0  0  0  0  0  0  0  0
    0.8445    0.4209    1.5760 C   0  0  0  1  0  0  0  0  0  0  0  0
    0.4801    1.1575    2.2613 H   0  0  0  1  0  0  0  0  0  0  0  0
    1.8219    0.6987    1.2407 H   0  0  0  1  0  0  0  0  0  0  0  0
    0.8916   -0.5292    2.0658 H   0  0  0  1  0  0  0  0  0  0  0  0
   -4.9823    1.5857   -0.1134 C   0  0  0  1  0  0  0  0  0  0  0  0
   -5.4584    1.8678   -1.0292 H   0  0  0  1  0  0  0  0  0  0  0  0
   -3.9863    1.9762   -0.0946 H   0  0  0  1  0  0  0  0  0  0  0  0
   -5.5363    1.9803    0.7126 H   0  0  0  1  0  0  0  0  0  0  0  0
    4.7273    4.1063   -5.9507 O   0  0  0  1  0  0  0  0  0  0  0  0
    7.8223    6.3937   -3.8740 O   0  0  0  1  0  0  0  0  0  0  0  0
  1  2  1  0  0  0  0
  1 20  2  0  0  0  0
  1 40  1  0  0  0  0
  2  3  1  0  0  0  0
  2  4  1  0  0  0  0
  2 22  1  0  0  0  0
  5 32  1  0  0  0  0
  5 33  1  0  0  0  0
  6  7  1  0  0  0  0
  6 32  1  0  0  0  0
  7  8  1  0  0  0  0
  7  9  1  0  0  0  0
  7 11  1  0  0  0  0
 10 33  1  0  0  0  0
 11 12  1  0  0  0  0
 11 13  2  0  0  0  0
 13 14  1  0  0  0  0
 13 36  1  0  0  0  0
 14 15  1  0  0  0  0
 14 16  1  0  0  0  0
 14 17  1  0  0  0  0
 17 18  1  0  0  0  0
 17 19  1  0  0  0  0
 17 20  1  0  0  0  0
 20 21  1  0  0  0  0
 22 23  1  0  0  0  0
 22 24  1  0  0  0  0
 22 25  1  0  0  0  0
 25 26  1  0  0  0  0
 25 27  2  0  0  0  0
 27 28  1  0  0  0  0
 27 44  1  0  0  0  0
 28 29  1  0  0  0  0
 28 30  1  0  0  0  0
 28 31  1  0  0  0  0
 32 34  1  0  0  0  0
 32 48  2  0  0  0  0
 33 35  1  0  0  0  0
 33 49  2  0  0  0  0
 36 37  1  0  0  0  0
 36 38  1  0  0  0  0
 36 39  1  0  0  0  0
 40 41  1  0  0  0  0
 40 42  1  0  0  0  0
 40 43  1  0  0  0  0
 44 45  1  0  0  0  0
 44 46  1  0  0  0  0
 44 47  1  0  0  0  0
M  BCL ATM C_TrTrTrPi C_TeTeTeTe H_S H_S O_Tr2TrTrPi2 O_Tr2TrTrPi2 C_TeTeTeTe H_S H_S O_Te2Te2TeTe C_TrTrTrPi H_S C_TrTrTrPi C_TeTeTeTe H_S H_S C_TeTeTeTe H_S H_S C_TrTrTrPi H_S C_TeTeTeTe H_S H_S C_TrTrTrPi H_S C_TrTrTrPi C_TeTeTeTe H_S H_S H_S P_TeTeTeTePi P_TeTeTeTePi O_Te2Te2TeTe O_Te2Te2Te2Te C_TeTeTeTe H_S H_S H_S C_TeTeTeTe H_S H_S H_S C_TeTeTeTe H_S H_S H_S O_Tr2Tr2TrPi O_Tr2Tr2TrPi
M  BCL BND NonConjugatedSingleBond ConjugatedDoubleBond NonConjugatedSingleBond NonConjugatedSingleBond NonConjugatedSingleBond NonConjugatedSingleBond ConjugatedSingleBond ConjugatedSingleBond NonConjugatedSingleBond ConjugatedSingleBond NonConjugatedSingleBond NonConjugatedSingleBond NonConjugatedSingleBond ConjugatedSingleBond NonConjugatedSingleBond ConjugatedDoubleBond NonConjugatedSingleBond NonConjugatedSingleBond NonConjugatedSingleBond NonConjugatedSingleBond NonConjugatedSingleBond NonConjugatedSingleBond NonConjugatedSingleBond NonConjugatedSingleBond NonConjugatedSingleBond NonConjugatedSingleBond NonConjugatedSingleBond NonConjugatedSingleBond NonConjugatedSingleBond ConjugatedDoubleBond NonConjugatedSingleBond NonConjugatedSingleBond NonConjugatedSingleBond NonConjugatedSingleBond NonConjugatedSingleBond ConjugatedSingleBond ConjugatedDoubleBond ConjugatedSingleBond ConjugatedDoubleBond NonConjugatedSingleBond NonConjugatedSingleBond NonConjugatedSingleBond NonConjugatedSingleBond NonConjugatedSingleBond NonConjugatedSingleBond NonConjugatedSingleBond NonConjugatedSingleBond NonConjugatedSingleBond
M  BCL CHI  32   S  33   S
M  BCL DBI Z Z - - -
M  END
> <ConfClashScore>
0 

> <ConfOneFourInteractionScore>
-0.977842 

> <ConfScore>
-0.0476228 

> <ConfScorePBest>
0.0114935 

> <ConfTolerance>
1.2406 

$$$$
L06.****
  PyMOL2.5          3D                             0

 49 48  0  0  0  0  0  0  0  0999 V2000
   -2.3276   -4.1053    0.1866 C   0  0  0  1  0  0  0  0  0  0  0  0
   -2.6485   -2.7067    0.6233 C   0  0  0  1  0  0  0  0  0  0  0  0
   -1.7307   -2.1756    0.7664 H   0  0  0  1  0  0  0  0  0  0  0  0
   -3.1825   -2.7531    1.5494 H   0  0  0  1  0  0  0  0  0  0  0  0
   -2.4203  -12.2547    0.4462 O   0  0  0  1  0  0  0  0  0  0  0  0
   -1.0038  -10.6247   -0.6930 O   0  0  0  1  0  0  0  0  0  0  0  0
    0.0693   -9.9492   -1.3782 C   0  0  0  1  0  0  0  0  0  0  0  0
    0.0592  -10.2398   -2.4079 H   0  0  0  1  0  0  0  0  0  0  0  0
    0.9991  -10.2382   -0.9346 H   0  0  0  1  0  0  0  0  0  0  0  0
   -3.9723  -14.1310   -0.5312 O   0  0  0  0  0  0  0  0  0  0  0  0
   -0.0654   -8.4573   -1.2939 C   0  0  0  1  0  0  0  0  0  0  0  0
   -0.1575   -8.0351   -0.3479 H   0  0  0  1  0  0  0  0  0  0  0  0
   -0.0759   -7.6320   -2.3418 C   0  0  0  1  0  0  0  0  0  0  0  0
   -0.5446   -6.2101   -2.1852 C   0  0  0  1  0  0  0  0  0  0  0  0
   -1.4897   -6.1070   -2.6763 H   0  0  0  1  0  0  0  0  0  0  0  0
    0.1708   -5.5628   -2.6479 H   0  0  0  1  0  0  0  0  0  0  0  0
   -0.7065   -5.7921   -0.7296 C   0  0  0  1  0  0  0  0  0  0  0  0
    0.2571   -5.8302   -0.2661 H   0  0  0  1  0  0  0  0  0  0  0  0
   -1.3592   -6.4947   -0.2550 H   0  0  0  1  0  0  0  0  0  0  0  0
   -1.2681   -4.4226   -0.5145 C   0  0  0  1  0  0  0  0  0  0  0  0
   -0.7622   -3.6370   -0.9713 H   0  0  0  1  0  0  0  0  0  0  0  0
   -3.4947   -1.9473   -0.3855 C   0  0  0  1  0  0  0  0  0  0  0  0
   -4.4305   -2.4542   -0.4953 H   0  0  0  1  0  0  0  0  0  0  0  0
   -2.9805   -1.9393   -1.3239 H   0  0  0  1  0  0  0  0  0  0  0  0
   -3.7631   -0.5379    0.0205 C   0  0  0  1  0  0  0  0  0  0  0  0
   -2.9346   -0.0096    0.3613 H   0  0  0  1  0  0  0  0  0  0  0  0
   -4.9031    0.1425    0.0115 C   0  0  0  1  0  0  0  0  0  0  0  0
   -6.2054   -0.5195   -0.3397 C   0  0  0  1  0  0  0  0  0  0  0  0
   -6.5805   -0.1075   -1.2532 H   0  0  0  1  0  0  0  0  0  0  0  0
   -6.9136   -0.3513    0.4445 H   0  0  0  1  0  0  0  0  0  0  0  0
   -6.0494   -1.5711   -0.4606 H   0  0  0  1  0  0  0  0  0  0  0  0
   -1.1074  -12.2343   -0.4607 P   0  0  0  1  0  0  0  0  0  0  0  0
   -3.4548  -13.4545    0.8703 P   0  0  0  1  0  0  0  0  0  0  0  0
   -1.3375  -12.9252   -1.7522 O   0  0  0  0  0  0  0  0  0  0  0  0
   -2.7152  -14.6158    1.7240 O   0  5  0  1  0  0  0  0  0  0  0  0
    0.2766   -8.1115   -3.6953 C   0  0  0  1  0  0  0  0  0  0  0  0
    0.0876   -9.1625   -3.7624 H   0  0  0  1  0  0  0  0  0  0  0  0
    1.3134   -7.9233   -3.8812 H   0  0  0  1  0  0  0  0  0  0  0  0
   -0.3159   -7.5956   -4.4217 H   0  0  0  1  0  0  0  0  0  0  0  0
   -3.3240   -5.1415    0.6161 C   0  0  0  1  0  0  0  0  0  0  0  0
   -3.6700   -5.6810   -0.2408 H   0  0  0  1  0  0  0  0  0  0  0  0
   -4.1527   -4.6625    1.0943 H   0  0  0  1  0  0  0  0  0  0  0  0
   -2.8598   -5.8201    1.3009 H   0  0  0  1  0  0  0  0  0  0  0  0
   -5.0099    1.6026    0.3415 C   0  0  0  1  0  0  0  0  0  0  0  0
   -5.5183    1.7214    1.2754 H   0  0  0  1  0  0  0  0  0  0  0  0
   -5.5582    2.1030   -0.4291 H   0  0  0  1  0  0  0  0  0  0  0  0
   -4.0291    2.0244    0.4134 H   0  0  0  1  0  0  0  0  0  0  0  0
   -0.0019  -12.5572    0.3896 O   0  0  0  1  0  0  0  0  0  0  0  0
   -4.6599  -12.9689    1.5791 O   0  0  0  1  0  0  0  0  0  0  0  0
  1  2  1  0  0  0  0
  1 20  2  0  0  0  0
  1 40  1  0  0  0  0
  2  3  1  0  0  0  0
  2  4  1  0  0  0  0
  2 22  1  0  0  0  0
  5 32  1  0  0  0  0
  5 33  1  0  0  0  0
  6  7  1  0  0  0  0
  6 32  1  0  0  0  0
  7  8  1  0  0  0  0
  7  9  1  0  0  0  0
  7 11  1  0  0  0  0
 10 33  1  0  0  0  0
 11 12  1  0  0  0  0
 11 13  2  0  0  0  0
 13 14  1  0  0  0  0
 13 36  1  0  0  0  0
 14 15  1  0  0  0  0
 14 16  1  0  0  0  0
 14 17  1  0  0  0  0
 17 18  1  0  0  0  0
 17 19  1  0  0  0  0
 17 20  1  0  0  0  0
 20 21  1  0  0  0  0
 22 23  1  0  0  0  0
 22 24  1  0  0  0  0
 22 25  1  0  0  0  0
 25 26  1  0  0  0  0
 25 27  2  0  0  0  0
 27 28  1  0  0  0  0
 27 44  1  0  0  0  0
 28 29  1  0  0  0  0
 28 30  1  0  0  0  0
 28 31  1  0  0  0  0
 32 34  1  0  0  0  0
 32 48  2  0  0  0  0
 33 35  1  0  0  0  0
 33 49  2  0  0  0  0
 36 37  1  0  0  0  0
 36 38  1  0  0  0  0
 36 39  1  0  0  0  0
 40 41  1  0  0  0  0
 40 42  1  0  0  0  0
 40 43  1  0  0  0  0
 44 45  1  0  0  0  0
 44 46  1  0  0  0  0
 44 47  1  0  0  0  0
M  BCL ATM C_TrTrTrPi C_TeTeTeTe H_S H_S O_Tr2TrTrPi2 O_Tr2TrTrPi2 C_TeTeTeTe H_S H_S O_Te2Te2TeTe C_TrTrTrPi H_S C_TrTrTrPi C_TeTeTeTe H_S H_S C_TeTeTeTe H_S H_S C_TrTrTrPi H_S C_TeTeTeTe H_S H_S C_TrTrTrPi H_S C_TrTrTrPi C_TeTeTeTe H_S H_S H_S P_TeTeTeTePi P_TeTeTeTePi O_Te2Te2TeTe O_Te2Te2Te2Te C_TeTeTeTe H_S H_S H_S C_TeTeTeTe H_S H_S H_S C_TeTeTeTe H_S H_S H_S O_Tr2Tr2TrPi O_Tr2Tr2TrPi
M  BCL BND NonConjugatedSingleBond ConjugatedDoubleBond NonConjugatedSingleBond NonConjugatedSingleBond NonConjugatedSingleBond NonConjugatedSingleBond ConjugatedSingleBond ConjugatedSingleBond NonConjugatedSingleBond ConjugatedSingleBond NonConjugatedSingleBond NonConjugatedSingleBond NonConjugatedSingleBond ConjugatedSingleBond NonConjugatedSingleBond ConjugatedDoubleBond NonConjugatedSingleBond NonConjugatedSingleBond NonConjugatedSingleBond NonConjugatedSingleBond NonConjugatedSingleBond NonConjugatedSingleBond NonConjugatedSingleBond NonConjugatedSingleBond NonConjugatedSingleBond NonConjugatedSingleBond NonConjugatedSingleBond NonConjugatedSingleBond NonConjugatedSingleBond ConjugatedDoubleBond NonConjugatedSingleBond NonConjugatedSingleBond NonConjugatedSingleBond NonConjugatedSingleBond NonConjugatedSingleBond ConjugatedSingleBond ConjugatedDoubleBond ConjugatedSingleBond ConjugatedDoubleBond NonConjugatedSingleBond NonConjugatedSingleBond NonConjugatedSingleBond NonConjugatedSingleBond NonConjugatedSingleBond NonConjugatedSingleBond NonConjugatedSingleBond NonConjugatedSingleBond NonConjugatedSingleBond
M  BCL CHI  32   S  33   S
M  BCL DBI Z Z - - -
M  END
> <ConfClashScore>
0 

> <ConfOneFourInteractionScore>
-0.992443 

> <ConfScore>
-0.0474663 

> <ConfScorePBest>
0.0113905 

> <ConfTolerance>
1.16603 

$$$$
L06.****
  PyMOL2.5          3D                             0

 49 48  0  0  0  0  0  0  0  0999 V2000
   -0.1677    0.1087   -1.3308 C   0  0  0  1  0  0  0  0  0  0  0  0
   -1.5914   -0.3593   -1.3940 C   0  0  0  1  0  0  0  0  0  0  0  0
   -1.5958   -1.4256   -1.4832 H   0  0  0  1  0  0  0  0  0  0  0  0
   -2.0542    0.0732   -2.2563 H   0  0  0  1  0  0  0  0  0  0  0  0
    7.8242    5.1877   -3.2513 O   0  0  0  1  0  0  0  0  0  0  0  0
    5.7657    5.6172   -2.2041 O   0  0  0  1  0  0  0  0  0  0  0  0
    5.5013    4.2395   -1.8738 C   0  0  0  1  0  0  0  0  0  0  0  0
    5.7298    4.0658   -0.8430 H   0  0  0  1  0  0  0  0  0  0  0  0
    6.1030    3.6003   -2.4856 H   0  0  0  1  0  0  0  0  0  0  0  0
    8.4574    6.0454   -5.6066 O   0  0  0  0  0  0  0  0  0  0  0  0
    4.0490    3.9579   -2.1240 C   0  0  0  1  0  0  0  0  0  0  0  0
    3.3843    4.5897   -1.6334 H   0  0  0  1  0  0  0  0  0  0  0  0
    3.4862    3.0208   -2.8795 C   0  0  0  1  0  0  0  0  0  0  0  0
    2.0285    2.6414   -2.7952 C   0  0  0  1  0  0  0  0  0  0  0  0
    1.5523    2.9576   -3.6997 H   0  0  0  1  0  0  0  0  0  0  0  0
    1.5994    3.1621   -1.9647 H   0  0  0  1  0  0  0  0  0  0  0  0
    1.7508    1.1581   -2.6128 C   0  0  0  1  0  0  0  0  0  0  0  0
    2.3809    0.7986   -1.8263 H   0  0  0  1  0  0  0  0  0  0  0  0
    2.0011    0.6607   -3.5265 H   0  0  0  1  0  0  0  0  0  0  0  0
    0.3443    0.8095   -2.2703 C   0  0  0  1  0  0  0  0  0  0  0  0
   -0.3582    1.2145   -2.9214 H   0  0  0  1  0  0  0  0  0  0  0  0
   -2.4000    0.0267   -0.1661 C   0  0  0  1  0  0  0  0  0  0  0  0
   -2.4841    1.0929   -0.1351 H   0  0  0  1  0  0  0  0  0  0  0  0
   -1.8815   -0.3163    0.7048 H   0  0  0  1  0  0  0  0  0  0  0  0
   -3.7849   -0.5634   -0.1627 C   0  0  0  1  0  0  0  0  0  0  0  0
   -3.8498   -1.5944   -0.2830 H   0  0  0  1  0  0  0  0  0  0  0  0
   -4.9333    0.0901   -0.0226 C   0  0  0  1  0  0  0  0  0  0  0  0
   -6.2794   -0.5773   -0.0367 C   0  0  0  1  0  0  0  0  0  0  0  0
   -6.9929    0.0675   -0.5057 H   0  0  0  1  0  0  0  0  0  0  0  0
   -6.5876   -0.7792    0.9678 H   0  0  0  1  0  0  0  0  0  0  0  0
   -6.2162   -1.4956   -0.5823 H   0  0  0  1  0  0  0  0  0  0  0  0
    7.2914    6.1732   -2.0701 P   0  0  0  1  0  0  0  0  0  0  0  0
    9.0862    5.2899   -4.2937 P   0  0  0  1  0  0  0  0  0  0  0  0
    7.3625    7.5864   -2.5173 O   0  0  0  0  0  0  0  0  0  0  0  0
   10.0678    6.4218   -3.6776 O   0  5  0  1  0  0  0  0  0  0  0  0
    4.2787    2.2511   -3.8982 C   0  0  0  1  0  0  0  0  0  0  0  0
    3.9424    1.2355   -3.9194 H   0  0  0  1  0  0  0  0  0  0  0  0
    5.3160    2.2776   -3.6371 H   0  0  0  1  0  0  0  0  0  0  0  0
    4.1420    2.6920   -4.8635 H   0  0  0  1  0  0  0  0  0  0  0  0
    0.5769   -0.3107   -0.0977 C   0  0  0  1  0  0  0  0  0  0  0  0
    0.5602   -1.3775   -0.0159 H   0  0  0  1  0  0  0  0  0  0  0  0
    0.1110    0.1201    0.7638 H   0  0  0  1  0  0  0  0  0  0  0  0
    1.5905    0.0260   -0.1616 H   0  0  0  1  0  0  0  0  0  0  0  0
   -4.9721    1.5785    0.1645 C   0  0  0  1  0  0  0  0  0  0  0  0
   -3.9771    1.9472    0.3022 H   0  0  0  1  0  0  0  0  0  0  0  0
   -5.5619    1.8143    1.0255 H   0  0  0  1  0  0  0  0  0  0  0  0
   -5.4048    2.0354   -0.7009 H   0  0  0  1  0  0  0  0  0  0  0  0
    7.8686    5.7884   -0.7611 O   0  0  0  1  0  0  0  0  0  0  0  0
    9.7026    3.9996   -4.6752 O   0  0  0  1  0  0  0  0  0  0  0  0
  1  2  1  0  0  0  0
  1 20  2  0  0  0  0
  1 40  1  0  0  0  0
  2  3  1  0  0  0  0
  2  4  1  0  0  0  0
  2 22  1  0  0  0  0
  5 32  1  0  0  0  0
  5 33  1  0  0  0  0
  6  7  1  0  0  0  0
  6 32  1  0  0  0  0
  7  8  1  0  0  0  0
  7  9  1  0  0  0  0
  7 11  1  0  0  0  0
 10 33  1  0  0  0  0
 11 12  1  0  0  0  0
 11 13  2  0  0  0  0
 13 14  1  0  0  0  0
 13 36  1  0  0  0  0
 14 15  1  0  0  0  0
 14 16  1  0  0  0  0
 14 17  1  0  0  0  0
 17 18  1  0  0  0  0
 17 19  1  0  0  0  0
 17 20  1  0  0  0  0
 20 21  1  0  0  0  0
 22 23  1  0  0  0  0
 22 24  1  0  0  0  0
 22 25  1  0  0  0  0
 25 26  1  0  0  0  0
 25 27  2  0  0  0  0
 27 28  1  0  0  0  0
 27 44  1  0  0  0  0
 28 29  1  0  0  0  0
 28 30  1  0  0  0  0
 28 31  1  0  0  0  0
 32 34  1  0  0  0  0
 32 48  2  0  0  0  0
 33 35  1  0  0  0  0
 33 49  2  0  0  0  0
 36 37  1  0  0  0  0
 36 38  1  0  0  0  0
 36 39  1  0  0  0  0
 40 41  1  0  0  0  0
 40 42  1  0  0  0  0
 40 43  1  0  0  0  0
 44 45  1  0  0  0  0
 44 46  1  0  0  0  0
 44 47  1  0  0  0  0
M  BCL ATM C_TrTrTrPi C_TeTeTeTe H_S H_S O_Tr2TrTrPi2 O_Tr2TrTrPi2 C_TeTeTeTe H_S H_S O_Te2Te2TeTe C_TrTrTrPi H_S C_TrTrTrPi C_TeTeTeTe H_S H_S C_TeTeTeTe H_S H_S C_TrTrTrPi H_S C_TeTeTeTe H_S H_S C_TrTrTrPi H_S C_TrTrTrPi C_TeTeTeTe H_S H_S H_S P_TeTeTeTePi P_TeTeTeTePi O_Te2Te2TeTe O_Te2Te2Te2Te C_TeTeTeTe H_S H_S H_S C_TeTeTeTe H_S H_S H_S C_TeTeTeTe H_S H_S H_S O_Tr2Tr2TrPi O_Tr2Tr2TrPi
M  BCL BND NonConjugatedSingleBond ConjugatedDoubleBond NonConjugatedSingleBond NonConjugatedSingleBond NonConjugatedSingleBond NonConjugatedSingleBond ConjugatedSingleBond ConjugatedSingleBond NonConjugatedSingleBond ConjugatedSingleBond NonConjugatedSingleBond NonConjugatedSingleBond NonConjugatedSingleBond ConjugatedSingleBond NonConjugatedSingleBond ConjugatedDoubleBond NonConjugatedSingleBond NonConjugatedSingleBond NonConjugatedSingleBond NonConjugatedSingleBond NonConjugatedSingleBond NonConjugatedSingleBond NonConjugatedSingleBond NonConjugatedSingleBond NonConjugatedSingleBond NonConjugatedSingleBond NonConjugatedSingleBond NonConjugatedSingleBond NonConjugatedSingleBond ConjugatedDoubleBond NonConjugatedSingleBond NonConjugatedSingleBond NonConjugatedSingleBond NonConjugatedSingleBond NonConjugatedSingleBond ConjugatedSingleBond ConjugatedDoubleBond ConjugatedSingleBond ConjugatedDoubleBond NonConjugatedSingleBond NonConjugatedSingleBond NonConjugatedSingleBond NonConjugatedSingleBond NonConjugatedSingleBond NonConjugatedSingleBond NonConjugatedSingleBond NonConjugatedSingleBond NonConjugatedSingleBond
M  BCL CHI  32   S  33   S
M  BCL DBI Z Z - - -
M  END
> <ConfClashScore>
0 

> <ConfOneFourInteractionScore>
-0.972961 

> <ConfScore>
-0.047092 

> <ConfScorePBest>
0.0112875 

> <ConfTolerance>
1.19662 

$$$$
L06.****
  PyMOL2.5          3D                             0

 49 48  0  0  0  0  0  0  0  0999 V2000
   -1.8565   -3.8545    0.4498 C   0  0  0  1  0  0  0  0  0  0  0  0
   -2.4668   -2.5282    0.7938 C   0  0  0  1  0  0  0  0  0  0  0  0
   -1.6717   -1.8283    0.9449 H   0  0  0  1  0  0  0  0  0  0  0  0
   -3.0180   -2.6445    1.7036 H   0  0  0  1  0  0  0  0  0  0  0  0
    7.5112   -9.1077    1.1741 O   0  0  0  1  0  0  0  0  0  0  0  0
    5.2008   -8.2955    0.6087 O   0  0  0  1  0  0  0  0  0  0  0  0
    3.9234   -8.0967   -0.0177 C   0  0  0  1  0  0  0  0  0  0  0  0
    3.3055   -8.9478    0.1791 H   0  0  0  1  0  0  0  0  0  0  0  0
    4.0676   -7.9965   -1.0732 H   0  0  0  1  0  0  0  0  0  0  0  0
    9.4149   -7.9146    2.6161 O   0  0  0  0  0  0  0  0  0  0  0  0
    3.2344   -6.8681    0.4964 C   0  0  0  1  0  0  0  0  0  0  0  0
    3.7695   -5.9763    0.4860 H   0  0  0  1  0  0  0  0  0  0  0  0
    1.9900   -6.8336    0.9645 C   0  0  0  1  0  0  0  0  0  0  0  0
    1.3032   -5.5046    1.1319 C   0  0  0  1  0  0  0  0  0  0  0  0
    2.0113   -4.7277    0.9321 H   0  0  0  1  0  0  0  0  0  0  0  0
    0.9596   -5.4236    2.1420 H   0  0  0  1  0  0  0  0  0  0  0  0
    0.1148   -5.3271    0.2010 C   0  0  0  1  0  0  0  0  0  0  0  0
   -0.6011   -6.0937    0.4126 H   0  0  0  1  0  0  0  0  0  0  0  0
    0.4554   -5.4253   -0.8086 H   0  0  0  1  0  0  0  0  0  0  0  0
   -0.5524   -3.9992    0.3505 C   0  0  0  1  0  0  0  0  0  0  0  0
    0.0431   -3.1470    0.3776 H   0  0  0  1  0  0  0  0  0  0  0  0
   -3.4061   -1.9520   -0.2531 C   0  0  0  1  0  0  0  0  0  0  0  0
   -4.3141   -2.5176   -0.2290 H   0  0  0  1  0  0  0  0  0  0  0  0
   -2.9414   -2.0632   -1.2105 H   0  0  0  1  0  0  0  0  0  0  0  0
   -3.7550   -0.5153   -0.0760 C   0  0  0  1  0  0  0  0  0  0  0  0
   -2.9279    0.1088    0.0131 H   0  0  0  1  0  0  0  0  0  0  0  0
   -4.9178    0.1243   -0.0097 C   0  0  0  1  0  0  0  0  0  0  0  0
   -6.2504   -0.5491   -0.1779 C   0  0  0  1  0  0  0  0  0  0  0  0
   -6.8024   -0.0602   -0.9532 H   0  0  0  1  0  0  0  0  0  0  0  0
   -6.7974   -0.4911    0.7399 H   0  0  0  1  0  0  0  0  0  0  0  0
   -6.1005   -1.5756   -0.4400 H   0  0  0  1  0  0  0  0  0  0  0  0
    6.2739   -9.4393    0.2045 P   0  0  0  1  0  0  0  0  0  0  0  0
    8.6184   -7.8979    1.1826 P   0  0  0  1  0  0  0  0  0  0  0  0
    5.7747  -10.7649    0.6118 O   0  0  0  0  0  0  0  0  0  0  0  0
    9.8264   -8.2483    0.1617 O   0  5  0  1  0  0  0  0  0  0  0  0
    1.1693   -8.0295    1.3580 C   0  0  0  1  0  0  0  0  0  0  0  0
    1.2972   -8.2225    2.4026 H   0  0  0  1  0  0  0  0  0  0  0  0
    1.4897   -8.8820    0.7962 H   0  0  0  1  0  0  0  0  0  0  0  0
    0.1368   -7.8356    1.1551 H   0  0  0  1  0  0  0  0  0  0  0  0
   -2.7861   -5.0100    0.2229 C   0  0  0  1  0  0  0  0  0  0  0  0
   -2.7271   -5.6840    1.0519 H   0  0  0  1  0  0  0  0  0  0  0  0
   -2.5058   -5.5223   -0.6736 H   0  0  0  1  0  0  0  0  0  0  0  0
   -3.7886   -4.6478    0.1288 H   0  0  0  1  0  0  0  0  0  0  0  0
   -4.9881    1.6017    0.2440 C   0  0  0  1  0  0  0  0  0  0  0  0
   -5.8683    1.8254    0.8097 H   0  0  0  1  0  0  0  0  0  0  0  0
   -5.0228    2.1224   -0.6901 H   0  0  0  1  0  0  0  0  0  0  0  0
   -4.1233    1.9105    0.7932 H   0  0  0  1  0  0  0  0  0  0  0  0
    6.6108   -9.1359   -1.1949 O   0  0  0  1  0  0  0  0  0  0  0  0
    7.9007   -6.6274    0.9348 O   0  0  0  1  0  0  0  0  0  0  0  0
  1  2  1  0  0  0  0
  1 20  2  0  0  0  0
  1 40  1  0  0  0  0
  2  3  1  0  0  0  0
  2  4  1  0  0  0  0
  2 22  1  0  0  0  0
  5 32  1  0  0  0  0
  5 33  1  0  0  0  0
  6  7  1  0  0  0  0
  6 32  1  0  0  0  0
  7  8  1  0  0  0  0
  7  9  1  0  0  0  0
  7 11  1  0  0  0  0
 10 33  1  0  0  0  0
 11 12  1  0  0  0  0
 11 13  2  0  0  0  0
 13 14  1  0  0  0  0
 13 36  1  0  0  0  0
 14 15  1  0  0  0  0
 14 16  1  0  0  0  0
 14 17  1  0  0  0  0
 17 18  1  0  0  0  0
 17 19  1  0  0  0  0
 17 20  1  0  0  0  0
 20 21  1  0  0  0  0
 22 23  1  0  0  0  0
 22 24  1  0  0  0  0
 22 25  1  0  0  0  0
 25 26  1  0  0  0  0
 25 27  2  0  0  0  0
 27 28  1  0  0  0  0
 27 44  1  0  0  0  0
 28 29  1  0  0  0  0
 28 30  1  0  0  0  0
 28 31  1  0  0  0  0
 32 34  1  0  0  0  0
 32 48  2  0  0  0  0
 33 35  1  0  0  0  0
 33 49  2  0  0  0  0
 36 37  1  0  0  0  0
 36 38  1  0  0  0  0
 36 39  1  0  0  0  0
 40 41  1  0  0  0  0
 40 42  1  0  0  0  0
 40 43  1  0  0  0  0
 44 45  1  0  0  0  0
 44 46  1  0  0  0  0
 44 47  1  0  0  0  0
M  BCL ATM C_TrTrTrPi C_TeTeTeTe H_S H_S O_Tr2TrTrPi2 O_Tr2TrTrPi2 C_TeTeTeTe H_S H_S O_Te2Te2TeTe C_TrTrTrPi H_S C_TrTrTrPi C_TeTeTeTe H_S H_S C_TeTeTeTe H_S H_S C_TrTrTrPi H_S C_TeTeTeTe H_S H_S C_TrTrTrPi H_S C_TrTrTrPi C_TeTeTeTe H_S H_S H_S P_TeTeTeTePi P_TeTeTeTePi O_Te2Te2TeTe O_Te2Te2Te2Te C_TeTeTeTe H_S H_S H_S C_TeTeTeTe H_S H_S H_S C_TeTeTeTe H_S H_S H_S O_Tr2Tr2TrPi O_Tr2Tr2TrPi
M  BCL BND NonConjugatedSingleBond ConjugatedDoubleBond NonConjugatedSingleBond NonConjugatedSingleBond NonConjugatedSingleBond NonConjugatedSingleBond ConjugatedSingleBond ConjugatedSingleBond NonConjugatedSingleBond ConjugatedSingleBond NonConjugatedSingleBond NonConjugatedSingleBond NonConjugatedSingleBond ConjugatedSingleBond NonConjugatedSingleBond ConjugatedDoubleBond NonConjugatedSingleBond NonConjugatedSingleBond NonConjugatedSingleBond NonConjugatedSingleBond NonConjugatedSingleBond NonConjugatedSingleBond NonConjugatedSingleBond NonConjugatedSingleBond NonConjugatedSingleBond NonConjugatedSingleBond NonConjugatedSingleBond NonConjugatedSingleBond NonConjugatedSingleBond ConjugatedDoubleBond NonConjugatedSingleBond NonConjugatedSingleBond NonConjugatedSingleBond NonConjugatedSingleBond NonConjugatedSingleBond ConjugatedSingleBond ConjugatedDoubleBond ConjugatedSingleBond ConjugatedDoubleBond NonConjugatedSingleBond NonConjugatedSingleBond NonConjugatedSingleBond NonConjugatedSingleBond NonConjugatedSingleBond NonConjugatedSingleBond NonConjugatedSingleBond NonConjugatedSingleBond NonConjugatedSingleBond
M  BCL CHI  32   S  33   S
M  BCL DBI Z Z - - -
M  END
> <ConfClashScore>
0 

> <ConfOneFourInteractionScore>
-0.976267 

> <ConfScore>
-0.0455673 

> <ConfScorePBest>
0.0111845 

> <ConfTolerance>
1.0886 

$$$$
L06.****
  PyMOL2.5          3D                             0

 49 48  0  0  0  0  0  0  0  0999 V2000
   -3.2840   -4.1119   -1.7336 C   0  0  0  1  0  0  0  0  0  0  0  0
   -3.4875   -2.6267   -1.6801 C   0  0  0  1  0  0  0  0  0  0  0  0
   -4.3743   -2.3950   -2.2321 H   0  0  0  1  0  0  0  0  0  0  0  0
   -2.6446   -2.1611   -2.1465 H   0  0  0  1  0  0  0  0  0  0  0  0
   -0.8868  -12.1178   -0.0555 O   0  0  0  1  0  0  0  0  0  0  0  0
   -2.4950  -10.9895   -1.4927 O   0  0  0  1  0  0  0  0  0  0  0  0
   -3.5668  -10.5857   -0.6255 C   0  0  0  1  0  0  0  0  0  0  0  0
   -3.2423  -10.6299    0.3931 H   0  0  0  1  0  0  0  0  0  0  0  0
   -4.4053  -11.2363   -0.7619 H   0  0  0  1  0  0  0  0  0  0  0  0
   -1.1483   -9.7348    0.7236 O   0  0  0  0  0  0  0  0  0  0  0  0
   -3.9572   -9.1788   -0.9710 C   0  0  0  1  0  0  0  0  0  0  0  0
   -3.1872   -8.4813   -0.9247 H   0  0  0  1  0  0  0  0  0  0  0  0
   -5.1461   -8.6900   -1.3287 C   0  0  0  1  0  0  0  0  0  0  0  0
   -5.3263   -7.2329   -1.6358 C   0  0  0  1  0  0  0  0  0  0  0  0
   -6.0496   -6.8386   -0.9530 H   0  0  0  1  0  0  0  0  0  0  0  0
   -5.6969   -7.1497   -2.6361 H   0  0  0  1  0  0  0  0  0  0  0  0
   -4.0696   -6.3844   -1.5294 C   0  0  0  1  0  0  0  0  0  0  0  0
   -3.3666   -6.7237   -2.2612 H   0  0  0  1  0  0  0  0  0  0  0  0
   -3.6554   -6.5104   -0.5509 H   0  0  0  1  0  0  0  0  0  0  0  0
   -4.3212   -4.9512   -1.7506 C   0  0  0  1  0  0  0  0  0  0  0  0
   -5.2861   -4.6003   -1.9165 H   0  0  0  1  0  0  0  0  0  0  0  0
   -3.6362   -2.0381   -0.2833 C   0  0  0  1  0  0  0  0  0  0  0  0
   -2.7645   -2.2862    0.2855 H   0  0  0  1  0  0  0  0  0  0  0  0
   -4.4991   -2.4706    0.1785 H   0  0  0  1  0  0  0  0  0  0  0  0
   -3.7949   -0.5425   -0.2881 C   0  0  0  1  0  0  0  0  0  0  0  0
   -2.9442    0.0133   -0.5092 H   0  0  0  1  0  0  0  0  0  0  0  0
   -4.9033    0.1452   -0.0407 C   0  0  0  1  0  0  0  0  0  0  0  0
   -6.1923   -0.5465    0.2962 C   0  0  0  1  0  0  0  0  0  0  0  0
   -6.0184   -1.5976    0.3950 H   0  0  0  1  0  0  0  0  0  0  0  0
   -6.9036   -0.3747   -0.4845 H   0  0  0  1  0  0  0  0  0  0  0  0
   -6.5737   -0.1601    1.2182 H   0  0  0  1  0  0  0  0  0  0  0  0
   -1.8003  -12.3700   -1.3126 P   0  0  0  1  0  0  0  0  0  0  0  0
   -1.1135  -11.2605    1.3241 P   0  0  0  1  0  0  0  0  0  0  0  0
   -2.8616  -13.3799   -0.9679 O   0  0  0  0  0  0  0  0  0  0  0  0
   -2.5393  -11.7829    1.8885 O   0  5  0  1  0  0  0  0  0  0  0  0
   -6.3525   -9.5794   -1.4383 C   0  0  0  1  0  0  0  0  0  0  0  0
   -6.0587  -10.5987   -1.2987 H   0  0  0  1  0  0  0  0  0  0  0  0
   -6.7930   -9.4649   -2.4067 H   0  0  0  1  0  0  0  0  0  0  0  0
   -7.0649   -9.3078   -0.6876 H   0  0  0  1  0  0  0  0  0  0  0  0
   -1.8727   -4.6198   -1.7672 C   0  0  0  1  0  0  0  0  0  0  0  0
   -1.8489   -5.5771   -2.2446 H   0  0  0  1  0  0  0  0  0  0  0  0
   -1.5027   -4.7108   -0.7674 H   0  0  0  1  0  0  0  0  0  0  0  0
   -1.2599   -3.9336   -2.3137 H   0  0  0  1  0  0  0  0  0  0  0  0
   -4.9840    1.6456   -0.0706 C   0  0  0  1  0  0  0  0  0  0  0  0
   -5.7543    1.9484   -0.7487 H   0  0  0  1  0  0  0  0  0  0  0  0
   -4.0462    2.0465   -0.3944 H   0  0  0  1  0  0  0  0  0  0  0  0
   -5.2088    2.0100    0.9100 H   0  0  0  1  0  0  0  0  0  0  0  0
   -0.8826  -12.6906   -2.4307 O   0  0  0  1  0  0  0  0  0  0  0  0
    0.0332  -11.5866    2.2011 O   0  0  0  1  0  0  0  0  0  0  0  0
  1  2  1  0  0  0  0
  1 20  2  0  0  0  0
  1 40  1  0  0  0  0
  2  3  1  0  0  0  0
  2  4  1  0  0  0  0
  2 22  1  0  0  0  0
  5 32  1  0  0  0  0
  5 33  1  0  0  0  0
  6  7  1  0  0  0  0
  6 32  1  0  0  0  0
  7  8  1  0  0  0  0
  7  9  1  0  0  0  0
  7 11  1  0  0  0  0
 10 33  1  0  0  0  0
 11 12  1  0  0  0  0
 11 13  2  0  0  0  0
 13 14  1  0  0  0  0
 13 36  1  0  0  0  0
 14 15  1  0  0  0  0
 14 16  1  0  0  0  0
 14 17  1  0  0  0  0
 17 18  1  0  0  0  0
 17 19  1  0  0  0  0
 17 20  1  0  0  0  0
 20 21  1  0  0  0  0
 22 23  1  0  0  0  0
 22 24  1  0  0  0  0
 22 25  1  0  0  0  0
 25 26  1  0  0  0  0
 25 27  2  0  0  0  0
 27 28  1  0  0  0  0
 27 44  1  0  0  0  0
 28 29  1  0  0  0  0
 28 30  1  0  0  0  0
 28 31  1  0  0  0  0
 32 34  1  0  0  0  0
 32 48  2  0  0  0  0
 33 35  1  0  0  0  0
 33 49  2  0  0  0  0
 36 37  1  0  0  0  0
 36 38  1  0  0  0  0
 36 39  1  0  0  0  0
 40 41  1  0  0  0  0
 40 42  1  0  0  0  0
 40 43  1  0  0  0  0
 44 45  1  0  0  0  0
 44 46  1  0  0  0  0
 44 47  1  0  0  0  0
M  BCL ATM C_TrTrTrPi C_TeTeTeTe H_S H_S O_Tr2TrTrPi2 O_Tr2TrTrPi2 C_TeTeTeTe H_S H_S O_Te2Te2TeTe C_TrTrTrPi H_S C_TrTrTrPi C_TeTeTeTe H_S H_S C_TeTeTeTe H_S H_S C_TrTrTrPi H_S C_TeTeTeTe H_S H_S C_TrTrTrPi H_S C_TrTrTrPi C_TeTeTeTe H_S H_S H_S P_TeTeTeTePi P_TeTeTeTePi O_Te2Te2TeTe O_Te2Te2Te2Te C_TeTeTeTe H_S H_S H_S C_TeTeTeTe H_S H_S H_S C_TeTeTeTe H_S H_S H_S O_Tr2Tr2TrPi O_Tr2Tr2TrPi
M  BCL BND NonConjugatedSingleBond ConjugatedDoubleBond NonConjugatedSingleBond NonConjugatedSingleBond NonConjugatedSingleBond NonConjugatedSingleBond ConjugatedSingleBond ConjugatedSingleBond NonConjugatedSingleBond ConjugatedSingleBond NonConjugatedSingleBond NonConjugatedSingleBond NonConjugatedSingleBond ConjugatedSingleBond NonConjugatedSingleBond ConjugatedDoubleBond NonConjugatedSingleBond NonConjugatedSingleBond NonConjugatedSingleBond NonConjugatedSingleBond NonConjugatedSingleBond NonConjugatedSingleBond NonConjugatedSingleBond NonConjugatedSingleBond NonConjugatedSingleBond NonConjugatedSingleBond NonConjugatedSingleBond NonConjugatedSingleBond NonConjugatedSingleBond ConjugatedDoubleBond NonConjugatedSingleBond NonConjugatedSingleBond NonConjugatedSingleBond NonConjugatedSingleBond NonConjugatedSingleBond ConjugatedSingleBond ConjugatedDoubleBond ConjugatedSingleBond ConjugatedDoubleBond NonConjugatedSingleBond NonConjugatedSingleBond NonConjugatedSingleBond NonConjugatedSingleBond NonConjugatedSingleBond NonConjugatedSingleBond NonConjugatedSingleBond NonConjugatedSingleBond NonConjugatedSingleBond
M  BCL CHI  32   S  33   S
M  BCL DBI Z Z - - -
M  END
> <ConfClashScore>
0 

> <ConfOneFourInteractionScore>
-0.989043 

> <ConfScore>
-0.0446743 

> <ConfScorePBest>
0.0110815 

> <ConfTolerance>
1.23925 

$$$$
L06.****
  PyMOL2.5          3D                             0

 49 48  0  0  0  0  0  0  0  0999 V2000
   -1.9971   -3.8608    0.5104 C   0  0  0  1  0  0  0  0  0  0  0  0
   -2.3176   -2.3911    0.5681 C   0  0  0  1  0  0  0  0  0  0  0  0
   -1.4907   -1.8461    0.1632 H   0  0  0  1  0  0  0  0  0  0  0  0
   -2.4615   -2.1139    1.5915 H   0  0  0  1  0  0  0  0  0  0  0  0
    0.2608  -12.8047   -1.0090 O   0  0  0  1  0  0  0  0  0  0  0  0
   -0.9356  -10.8138   -0.4571 O   0  0  0  1  0  0  0  0  0  0  0  0
   -0.2502  -10.0146   -1.4343 C   0  0  0  1  0  0  0  0  0  0  0  0
   -0.6400  -10.2441   -2.4040 H   0  0  0  1  0  0  0  0  0  0  0  0
    0.7931  -10.2503   -1.4038 H   0  0  0  1  0  0  0  0  0  0  0  0
    0.7861  -11.5464   -3.2324 O   0  0  0  0  0  0  0  0  0  0  0  0
   -0.4235   -8.5466   -1.1768 C   0  0  0  1  0  0  0  0  0  0  0  0
   -0.5117   -8.2577   -0.1816 H   0  0  0  1  0  0  0  0  0  0  0  0
   -0.4766   -7.5757   -2.0823 C   0  0  0  1  0  0  0  0  0  0  0  0
   -0.6530   -6.1251   -1.7388 C   0  0  0  1  0  0  0  0  0  0  0  0
   -1.5934   -5.8039   -2.1355 H   0  0  0  1  0  0  0  0  0  0  0  0
    0.1379   -5.5766   -2.2063 H   0  0  0  1  0  0  0  0  0  0  0  0
   -0.6350   -5.8003   -0.2540 C   0  0  0  1  0  0  0  0  0  0  0  0
    0.3256   -6.0472    0.1475 H   0  0  0  1  0  0  0  0  0  0  0  0
   -1.3879   -6.3777    0.2406 H   0  0  0  1  0  0  0  0  0  0  0  0
   -0.9030   -4.3466   -0.0258 C   0  0  0  1  0  0  0  0  0  0  0  0
   -0.1671   -3.6705   -0.3138 H   0  0  0  1  0  0  0  0  0  0  0  0
   -3.5685   -2.0234   -0.2132 C   0  0  0  1  0  0  0  0  0  0  0  0
   -4.4124   -2.4802    0.2603 H   0  0  0  1  0  0  0  0  0  0  0  0
   -3.4708   -2.4005   -1.2098 H   0  0  0  1  0  0  0  0  0  0  0  0
   -3.8022   -0.5524   -0.2832 C   0  0  0  1  0  0  0  0  0  0  0  0
   -2.9765    0.0144   -0.5634 H   0  0  0  1  0  0  0  0  0  0  0  0
   -4.9081    0.1409   -0.0407 C   0  0  0  1  0  0  0  0  0  0  0  0
   -6.1872   -0.5411    0.3496 C   0  0  0  1  0  0  0  0  0  0  0  0
   -5.9870   -1.5638    0.5925 H   0  0  0  1  0  0  0  0  0  0  0  0
   -6.8779   -0.4972   -0.4664 H   0  0  0  1  0  0  0  0  0  0  0  0
   -6.6083   -0.0484    1.2010 H   0  0  0  1  0  0  0  0  0  0  0  0
   -1.2451  -12.3824   -0.6612 P   0  0  0  1  0  0  0  0  0  0  0  0
    1.4035  -12.6357   -2.1732 P   0  0  0  1  0  0  0  0  0  0  0  0
   -1.6848  -12.9676    0.6189 O   0  0  0  0  0  0  0  0  0  0  0  0
    2.7536  -12.1110   -1.4478 O   0  5  0  1  0  0  0  0  0  0  0  0
   -0.3612   -7.8644   -3.5526 C   0  0  0  1  0  0  0  0  0  0  0  0
    0.5860   -7.5194   -3.9112 H   0  0  0  1  0  0  0  0  0  0  0  0
   -1.1460   -7.3608   -4.0774 H   0  0  0  1  0  0  0  0  0  0  0  0
   -0.4416   -8.9188   -3.7162 H   0  0  0  1  0  0  0  0  0  0  0  0
   -3.0376   -4.7561    1.1221 C   0  0  0  1  0  0  0  0  0  0  0  0
   -3.1900   -5.6083    0.4932 H   0  0  0  1  0  0  0  0  0  0  0  0
   -3.9570   -4.2178    1.2218 H   0  0  0  1  0  0  0  0  0  0  0  0
   -2.7068   -5.0798    2.0868 H   0  0  0  1  0  0  0  0  0  0  0  0
   -4.9955    1.6386   -0.1284 C   0  0  0  1  0  0  0  0  0  0  0  0
   -5.6533    1.9119   -0.9269 H   0  0  0  1  0  0  0  0  0  0  0  0
   -4.0221    2.0421   -0.3146 H   0  0  0  1  0  0  0  0  0  0  0  0
   -5.3732    2.0282    0.7938 H   0  0  0  1  0  0  0  0  0  0  0  0
   -2.0914  -12.5614   -1.8620 O   0  0  0  1  0  0  0  0  0  0  0  0
    1.5689  -13.9777   -2.7749 O   0  0  0  1  0  0  0  0  0  0  0  0
  1  2  1  0  0  0  0
  1 20  2  0  0  0  0
  1 40  1  0  0  0  0
  2  3  1  0  0  0  0
  2  4  1  0  0  0  0
  2 22  1  0  0  0  0
  5 32  1  0  0  0  0
  5 33  1  0  0  0  0
  6  7  1  0  0  0  0
  6 32  1  0  0  0  0
  7  8  1  0  0  0  0
  7  9  1  0  0  0  0
  7 11  1  0  0  0  0
 10 33  1  0  0  0  0
 11 12  1  0  0  0  0
 11 13  2  0  0  0  0
 13 14  1  0  0  0  0
 13 36  1  0  0  0  0
 14 15  1  0  0  0  0
 14 16  1  0  0  0  0
 14 17  1  0  0  0  0
 17 18  1  0  0  0  0
 17 19  1  0  0  0  0
 17 20  1  0  0  0  0
 20 21  1  0  0  0  0
 22 23  1  0  0  0  0
 22 24  1  0  0  0  0
 22 25  1  0  0  0  0
 25 26  1  0  0  0  0
 25 27  2  0  0  0  0
 27 28  1  0  0  0  0
 27 44  1  0  0  0  0
 28 29  1  0  0  0  0
 28 30  1  0  0  0  0
 28 31  1  0  0  0  0
 32 34  1  0  0  0  0
 32 48  2  0  0  0  0
 33 35  1  0  0  0  0
 33 49  2  0  0  0  0
 36 37  1  0  0  0  0
 36 38  1  0  0  0  0
 36 39  1  0  0  0  0
 40 41  1  0  0  0  0
 40 42  1  0  0  0  0
 40 43  1  0  0  0  0
 44 45  1  0  0  0  0
 44 46  1  0  0  0  0
 44 47  1  0  0  0  0
M  BCL ATM C_TrTrTrPi C_TeTeTeTe H_S H_S O_Tr2TrTrPi2 O_Tr2TrTrPi2 C_TeTeTeTe H_S H_S O_Te2Te2TeTe C_TrTrTrPi H_S C_TrTrTrPi C_TeTeTeTe H_S H_S C_TeTeTeTe H_S H_S C_TrTrTrPi H_S C_TeTeTeTe H_S H_S C_TrTrTrPi H_S C_TrTrTrPi C_TeTeTeTe H_S H_S H_S P_TeTeTeTePi P_TeTeTeTePi O_Te2Te2TeTe O_Te2Te2Te2Te C_TeTeTeTe H_S H_S H_S C_TeTeTeTe H_S H_S H_S C_TeTeTeTe H_S H_S H_S O_Tr2Tr2TrPi O_Tr2Tr2TrPi
M  BCL BND NonConjugatedSingleBond ConjugatedDoubleBond NonConjugatedSingleBond NonConjugatedSingleBond NonConjugatedSingleBond NonConjugatedSingleBond ConjugatedSingleBond ConjugatedSingleBond NonConjugatedSingleBond ConjugatedSingleBond NonConjugatedSingleBond NonConjugatedSingleBond NonConjugatedSingleBond ConjugatedSingleBond NonConjugatedSingleBond ConjugatedDoubleBond NonConjugatedSingleBond NonConjugatedSingleBond NonConjugatedSingleBond NonConjugatedSingleBond NonConjugatedSingleBond NonConjugatedSingleBond NonConjugatedSingleBond NonConjugatedSingleBond NonConjugatedSingleBond NonConjugatedSingleBond NonConjugatedSingleBond NonConjugatedSingleBond NonConjugatedSingleBond ConjugatedDoubleBond NonConjugatedSingleBond NonConjugatedSingleBond NonConjugatedSingleBond NonConjugatedSingleBond NonConjugatedSingleBond ConjugatedSingleBond ConjugatedDoubleBond ConjugatedSingleBond ConjugatedDoubleBond NonConjugatedSingleBond NonConjugatedSingleBond NonConjugatedSingleBond NonConjugatedSingleBond NonConjugatedSingleBond NonConjugatedSingleBond NonConjugatedSingleBond NonConjugatedSingleBond NonConjugatedSingleBond
M  BCL CHI  32   S  33   S
M  BCL DBI Z Z - - -
M  END
> <ConfClashScore>
0 

> <ConfOneFourInteractionScore>
-0.978172 

> <ConfScore>
-0.044338 

> <ConfScorePBest>
0.0109785 

> <ConfTolerance>
1.24612 

$$$$
L06.****
  PyMOL2.5          3D                             0

 49 48  0  0  0  0  0  0  0  0999 V2000
   -2.6834   -4.0937   -1.0492 C   0  0  0  1  0  0  0  0  0  0  0  0
   -2.6860   -2.5938   -1.0509 C   0  0  0  1  0  0  0  0  0  0  0  0
   -3.0288   -2.2549   -2.0061 H   0  0  0  1  0  0  0  0  0  0  0  0
   -1.6854   -2.2513   -0.8885 H   0  0  0  1  0  0  0  0  0  0  0  0
   -9.0173  -11.6249   -3.0865 O   0  0  0  1  0  0  0  0  0  0  0  0
   -7.5103   -9.8628   -4.1596 O   0  0  0  1  0  0  0  0  0  0  0  0
   -6.2595   -9.9963   -3.4660 C   0  0  0  1  0  0  0  0  0  0  0  0
   -5.6022  -10.6279   -4.0263 H   0  0  0  1  0  0  0  0  0  0  0  0
   -6.4272  -10.4233   -2.4993 H   0  0  0  1  0  0  0  0  0  0  0  0
  -10.7672  -13.2705   -1.9127 O   0  0  0  0  0  0  0  0  0  0  0  0
   -5.6475   -8.6354   -3.3177 C   0  0  0  1  0  0  0  0  0  0  0  0
   -5.4104   -8.1170   -4.1876 H   0  0  0  1  0  0  0  0  0  0  0  0
   -5.3846   -8.0399   -2.1530 C   0  0  0  1  0  0  0  0  0  0  0  0
   -5.0140   -6.5822   -2.0890 C   0  0  0  1  0  0  0  0  0  0  0  0
   -5.5110   -6.1521   -1.2446 H   0  0  0  1  0  0  0  0  0  0  0  0
   -5.3624   -6.1134   -2.9855 H   0  0  0  1  0  0  0  0  0  0  0  0
   -3.5221   -6.2920   -1.9551 C   0  0  0  1  0  0  0  0  0  0  0  0
   -3.0068   -6.7816   -2.7548 H   0  0  0  1  0  0  0  0  0  0  0  0
   -3.1818   -6.6825   -1.0188 H   0  0  0  1  0  0  0  0  0  0  0  0
   -3.2004   -4.8223   -2.0066 C   0  0  0  1  0  0  0  0  0  0  0  0
   -3.4117   -4.3325   -2.8993 H   0  0  0  1  0  0  0  0  0  0  0  0
   -3.5814   -1.9987    0.0235 C   0  0  0  1  0  0  0  0  0  0  0  0
   -3.1520   -2.2103    0.9805 H   0  0  0  1  0  0  0  0  0  0  0  0
   -4.5458   -2.4572   -0.0445 H   0  0  0  1  0  0  0  0  0  0  0  0
   -3.7481   -0.5179   -0.1066 C   0  0  0  1  0  0  0  0  0  0  0  0
   -2.8939    0.0489   -0.2815 H   0  0  0  1  0  0  0  0  0  0  0  0
   -4.9061    0.1272   -0.0154 C   0  0  0  1  0  0  0  0  0  0  0  0
   -6.2261   -0.5563    0.1941 C   0  0  0  1  0  0  0  0  0  0  0  0
   -6.9472    0.1566    0.5358 H   0  0  0  1  0  0  0  0  0  0  0  0
   -6.1150   -1.3295    0.9253 H   0  0  0  1  0  0  0  0  0  0  0  0
   -6.5570   -0.9831   -0.7296 H   0  0  0  1  0  0  0  0  0  0  0  0
   -8.5333  -11.1313   -4.4300 P   0  0  0  1  0  0  0  0  0  0  0  0
   -9.2317  -13.1299   -2.4712 P   0  0  0  1  0  0  0  0  0  0  0  0
   -9.6428  -10.4596   -5.2236 O   0  0  0  0  0  0  0  0  0  0  0  0
   -8.9826  -14.3491   -3.5084 O   0  5  0  1  0  0  0  0  0  0  0  0
   -5.4476   -8.8002   -0.8582 C   0  0  0  1  0  0  0  0  0  0  0  0
   -4.4578   -8.9360   -0.4752 H   0  0  0  1  0  0  0  0  0  0  0  0
   -5.8985   -9.7556   -1.0276 H   0  0  0  1  0  0  0  0  0  0  0  0
   -6.0315   -8.2502   -0.1500 H   0  0  0  1  0  0  0  0  0  0  0  0
   -2.0341   -4.7193    0.1500 C   0  0  0  1  0  0  0  0  0  0  0  0
   -2.5235   -4.3799    1.0389 H   0  0  0  1  0  0  0  0  0  0  0  0
   -1.0017   -4.4398    0.1827 H   0  0  0  1  0  0  0  0  0  0  0  0
   -2.1138   -5.7842    0.0836 H   0  0  0  1  0  0  0  0  0  0  0  0
   -4.9827    1.6341   -0.1182 C   0  0  0  1  0  0  0  0  0  0  0  0
   -5.8311    1.9091   -0.7094 H   0  0  0  1  0  0  0  0  0  0  0  0
   -4.0915    2.0056   -0.5793 H   0  0  0  1  0  0  0  0  0  0  0  0
   -5.0798    2.0537    0.8613 H   0  0  0  1  0  0  0  0  0  0  0  0
   -7.7481  -12.1433   -5.2260 O   0  0  0  1  0  0  0  0  0  0  0  0
   -8.3086  -13.2714   -1.3230 O   0  0  0  1  0  0  0  0  0  0  0  0
  1  2  1  0  0  0  0
  1 20  2  0  0  0  0
  1 40  1  0  0  0  0
  2  3  1  0  0  0  0
  2  4  1  0  0  0  0
  2 22  1  0  0  0  0
  5 32  1  0  0  0  0
  5 33  1  0  0  0  0
  6  7  1  0  0  0  0
  6 32  1  0  0  0  0
  7  8  1  0  0  0  0
  7  9  1  0  0  0  0
  7 11  1  0  0  0  0
 10 33  1  0  0  0  0
 11 12  1  0  0  0  0
 11 13  2  0  0  0  0
 13 14  1  0  0  0  0
 13 36  1  0  0  0  0
 14 15  1  0  0  0  0
 14 16  1  0  0  0  0
 14 17  1  0  0  0  0
 17 18  1  0  0  0  0
 17 19  1  0  0  0  0
 17 20  1  0  0  0  0
 20 21  1  0  0  0  0
 22 23  1  0  0  0  0
 22 24  1  0  0  0  0
 22 25  1  0  0  0  0
 25 26  1  0  0  0  0
 25 27  2  0  0  0  0
 27 28  1  0  0  0  0
 27 44  1  0  0  0  0
 28 29  1  0  0  0  0
 28 30  1  0  0  0  0
 28 31  1  0  0  0  0
 32 34  1  0  0  0  0
 32 48  2  0  0  0  0
 33 35  1  0  0  0  0
 33 49  2  0  0  0  0
 36 37  1  0  0  0  0
 36 38  1  0  0  0  0
 36 39  1  0  0  0  0
 40 41  1  0  0  0  0
 40 42  1  0  0  0  0
 40 43  1  0  0  0  0
 44 45  1  0  0  0  0
 44 46  1  0  0  0  0
 44 47  1  0  0  0  0
M  BCL ATM C_TrTrTrPi C_TeTeTeTe H_S H_S O_Tr2TrTrPi2 O_Tr2TrTrPi2 C_TeTeTeTe H_S H_S O_Te2Te2TeTe C_TrTrTrPi H_S C_TrTrTrPi C_TeTeTeTe H_S H_S C_TeTeTeTe H_S H_S C_TrTrTrPi H_S C_TeTeTeTe H_S H_S C_TrTrTrPi H_S C_TrTrTrPi C_TeTeTeTe H_S H_S H_S P_TeTeTeTePi P_TeTeTeTePi O_Te2Te2TeTe O_Te2Te2Te2Te C_TeTeTeTe H_S H_S H_S C_TeTeTeTe H_S H_S H_S C_TeTeTeTe H_S H_S H_S O_Tr2Tr2TrPi O_Tr2Tr2TrPi
M  BCL BND NonConjugatedSingleBond ConjugatedDoubleBond NonConjugatedSingleBond NonConjugatedSingleBond NonConjugatedSingleBond NonConjugatedSingleBond ConjugatedSingleBond ConjugatedSingleBond NonConjugatedSingleBond ConjugatedSingleBond NonConjugatedSingleBond NonConjugatedSingleBond NonConjugatedSingleBond ConjugatedSingleBond NonConjugatedSingleBond ConjugatedDoubleBond NonConjugatedSingleBond NonConjugatedSingleBond NonConjugatedSingleBond NonConjugatedSingleBond NonConjugatedSingleBond NonConjugatedSingleBond NonConjugatedSingleBond NonConjugatedSingleBond NonConjugatedSingleBond NonConjugatedSingleBond NonConjugatedSingleBond NonConjugatedSingleBond NonConjugatedSingleBond ConjugatedDoubleBond NonConjugatedSingleBond NonConjugatedSingleBond NonConjugatedSingleBond NonConjugatedSingleBond NonConjugatedSingleBond ConjugatedSingleBond ConjugatedDoubleBond ConjugatedSingleBond ConjugatedDoubleBond NonConjugatedSingleBond NonConjugatedSingleBond NonConjugatedSingleBond NonConjugatedSingleBond NonConjugatedSingleBond NonConjugatedSingleBond NonConjugatedSingleBond NonConjugatedSingleBond NonConjugatedSingleBond
M  BCL CHI  32   S  33   S
M  BCL DBI Z Z - - -
M  END
> <ConfClashScore>
0 

> <ConfOneFourInteractionScore>
-0.976267 

> <ConfScore>
-0.0411467 

> <ConfScorePBest>
0.0108755 

> <ConfTolerance>
1.27512 

$$$$
L06.****
  PyMOL2.5          3D                             0

 49 48  0  0  0  0  0  0  0  0999 V2000
   -2.5693   -3.8465   -1.3070 C   0  0  0  1  0  0  0  0  0  0  0  0
   -2.5536   -2.3891   -0.9475 C   0  0  0  1  0  0  0  0  0  0  0  0
   -2.6146   -1.8154   -1.8486 H   0  0  0  1  0  0  0  0  0  0  0  0
   -1.6331   -2.1716   -0.4472 H   0  0  0  1  0  0  0  0  0  0  0  0
   -5.4396   -8.1925   -8.9087 O   0  0  0  1  0  0  0  0  0  0  0  0
   -4.4074   -7.5537   -6.7011 O   0  0  0  1  0  0  0  0  0  0  0  0
   -3.6229   -6.9104   -5.7005 C   0  0  0  1  0  0  0  0  0  0  0  0
   -3.6801   -5.8535   -5.8574 H   0  0  0  1  0  0  0  0  0  0  0  0
   -2.6088   -7.2334   -5.8101 H   0  0  0  1  0  0  0  0  0  0  0  0
   -7.8832   -7.9838   -7.8418 O   0  0  0  0  0  0  0  0  0  0  0  0
   -4.0569   -7.1994   -4.3058 C   0  0  0  1  0  0  0  0  0  0  0  0
   -4.1353   -8.1873   -3.9902 H   0  0  0  1  0  0  0  0  0  0  0  0
   -4.3470   -6.2149   -3.4533 C   0  0  0  1  0  0  0  0  0  0  0  0
   -4.6704   -6.5511   -2.0265 C   0  0  0  1  0  0  0  0  0  0  0  0
   -4.7747   -7.6134   -1.9532 H   0  0  0  1  0  0  0  0  0  0  0  0
   -5.6004   -6.0830   -1.7797 H   0  0  0  1  0  0  0  0  0  0  0  0
   -3.6371   -6.1097   -1.0028 C   0  0  0  1  0  0  0  0  0  0  0  0
   -2.6857   -6.5100   -1.2848 H   0  0  0  1  0  0  0  0  0  0  0  0
   -3.9183   -6.4975   -0.0460 H   0  0  0  1  0  0  0  0  0  0  0  0
   -3.5158   -4.6273   -0.8971 C   0  0  0  1  0  0  0  0  0  0  0  0
   -4.3096   -4.1505   -0.4238 H   0  0  0  1  0  0  0  0  0  0  0  0
   -3.7044   -1.9874   -0.0394 C   0  0  0  1  0  0  0  0  0  0  0  0
   -3.5887   -2.4886    0.8989 H   0  0  0  1  0  0  0  0  0  0  0  0
   -4.6220   -2.2933   -0.4969 H   0  0  0  1  0  0  0  0  0  0  0  0
   -3.7654   -0.5209    0.2110 C   0  0  0  1  0  0  0  0  0  0  0  0
   -2.9041   -0.0171    0.5041 H   0  0  0  1  0  0  0  0  0  0  0  0
   -4.8996    0.1561    0.0668 C   0  0  0  1  0  0  0  0  0  0  0  0
   -6.2035   -0.5636   -0.1204 C   0  0  0  1  0  0  0  0  0  0  0  0
   -6.0680   -1.6060    0.0796 H   0  0  0  1  0  0  0  0  0  0  0  0
   -6.5403   -0.4348   -1.1278 H   0  0  0  1  0  0  0  0  0  0  0  0
   -6.9317   -0.1631    0.5536 H   0  0  0  1  0  0  0  0  0  0  0  0
   -4.1820   -7.4205   -8.2847 P   0  0  0  1  0  0  0  0  0  0  0  0
   -7.0320   -7.9885   -9.2437 P   0  0  0  1  0  0  0  0  0  0  0  0
   -4.3648   -6.0321   -8.7633 O   0  0  0  0  0  0  0  0  0  0  0  0
   -7.2440   -6.5690   -9.9950 O   0  5  0  1  0  0  0  0  0  0  0  0
   -4.3846   -4.7502   -3.7876 C   0  0  0  1  0  0  0  0  0  0  0  0
   -5.3067   -4.3292   -3.4450 H   0  0  0  1  0  0  0  0  0  0  0  0
   -4.3073   -4.6244   -4.8473 H   0  0  0  1  0  0  0  0  0  0  0  0
   -3.5665   -4.2541   -3.3083 H   0  0  0  1  0  0  0  0  0  0  0  0
   -1.4462   -4.3658   -2.1599 C   0  0  0  1  0  0  0  0  0  0  0  0
   -1.8426   -5.0009   -2.9244 H   0  0  0  1  0  0  0  0  0  0  0  0
   -0.7648   -4.9229   -1.5515 H   0  0  0  1  0  0  0  0  0  0  0  0
   -0.9317   -3.5433   -2.6112 H   0  0  0  1  0  0  0  0  0  0  0  0
   -4.9727    1.6548   -0.0170 C   0  0  0  1  0  0  0  0  0  0  0  0
   -3.9967    2.0687    0.1282 H   0  0  0  1  0  0  0  0  0  0  0  0
   -5.6321    2.0224    0.7413 H   0  0  0  1  0  0  0  0  0  0  0  0
   -5.3413    1.9404   -0.9800 H   0  0  0  1  0  0  0  0  0  0  0  0
   -2.9213   -8.1451   -8.5297 O   0  0  0  1  0  0  0  0  0  0  0  0
   -7.5033   -9.0905  -10.1120 O   0  0  0  1  0  0  0  0  0  0  0  0
  1  2  1  0  0  0  0
  1 20  2  0  0  0  0
  1 40  1  0  0  0  0
  2  3  1  0  0  0  0
  2  4  1  0  0  0  0
  2 22  1  0  0  0  0
  5 32  1  0  0  0  0
  5 33  1  0  0  0  0
  6  7  1  0  0  0  0
  6 32  1  0  0  0  0
  7  8  1  0  0  0  0
  7  9  1  0  0  0  0
  7 11  1  0  0  0  0
 10 33  1  0  0  0  0
 11 12  1  0  0  0  0
 11 13  2  0  0  0  0
 13 14  1  0  0  0  0
 13 36  1  0  0  0  0
 14 15  1  0  0  0  0
 14 16  1  0  0  0  0
 14 17  1  0  0  0  0
 17 18  1  0  0  0  0
 17 19  1  0  0  0  0
 17 20  1  0  0  0  0
 20 21  1  0  0  0  0
 22 23  1  0  0  0  0
 22 24  1  0  0  0  0
 22 25  1  0  0  0  0
 25 26  1  0  0  0  0
 25 27  2  0  0  0  0
 27 28  1  0  0  0  0
 27 44  1  0  0  0  0
 28 29  1  0  0  0  0
 28 30  1  0  0  0  0
 28 31  1  0  0  0  0
 32 34  1  0  0  0  0
 32 48  2  0  0  0  0
 33 35  1  0  0  0  0
 33 49  2  0  0  0  0
 36 37  1  0  0  0  0
 36 38  1  0  0  0  0
 36 39  1  0  0  0  0
 40 41  1  0  0  0  0
 40 42  1  0  0  0  0
 40 43  1  0  0  0  0
 44 45  1  0  0  0  0
 44 46  1  0  0  0  0
 44 47  1  0  0  0  0
M  BCL ATM C_TrTrTrPi C_TeTeTeTe H_S H_S O_Tr2TrTrPi2 O_Tr2TrTrPi2 C_TeTeTeTe H_S H_S O_Te2Te2TeTe C_TrTrTrPi H_S C_TrTrTrPi C_TeTeTeTe H_S H_S C_TeTeTeTe H_S H_S C_TrTrTrPi H_S C_TeTeTeTe H_S H_S C_TrTrTrPi H_S C_TrTrTrPi C_TeTeTeTe H_S H_S H_S P_TeTeTeTePi P_TeTeTeTePi O_Te2Te2TeTe O_Te2Te2Te2Te C_TeTeTeTe H_S H_S H_S C_TeTeTeTe H_S H_S H_S C_TeTeTeTe H_S H_S H_S O_Tr2Tr2TrPi O_Tr2Tr2TrPi
M  BCL BND NonConjugatedSingleBond ConjugatedDoubleBond NonConjugatedSingleBond NonConjugatedSingleBond NonConjugatedSingleBond NonConjugatedSingleBond ConjugatedSingleBond ConjugatedSingleBond NonConjugatedSingleBond ConjugatedSingleBond NonConjugatedSingleBond NonConjugatedSingleBond NonConjugatedSingleBond ConjugatedSingleBond NonConjugatedSingleBond ConjugatedDoubleBond NonConjugatedSingleBond NonConjugatedSingleBond NonConjugatedSingleBond NonConjugatedSingleBond NonConjugatedSingleBond NonConjugatedSingleBond NonConjugatedSingleBond NonConjugatedSingleBond NonConjugatedSingleBond NonConjugatedSingleBond NonConjugatedSingleBond NonConjugatedSingleBond NonConjugatedSingleBond ConjugatedDoubleBond NonConjugatedSingleBond NonConjugatedSingleBond NonConjugatedSingleBond NonConjugatedSingleBond NonConjugatedSingleBond ConjugatedSingleBond ConjugatedDoubleBond ConjugatedSingleBond ConjugatedDoubleBond NonConjugatedSingleBond NonConjugatedSingleBond NonConjugatedSingleBond NonConjugatedSingleBond NonConjugatedSingleBond NonConjugatedSingleBond NonConjugatedSingleBond NonConjugatedSingleBond NonConjugatedSingleBond
M  BCL CHI  32   S  33   S
M  BCL DBI Z Z - - -
M  END
> <ConfClashScore>
0 

> <ConfOneFourInteractionScore>
-0.985843 

> <ConfScore>
-0.0409515 

> <ConfScorePBest>
0.0107725 

> <ConfTolerance>
1.37275 

$$$$
L06.****
  PyMOL2.5          3D                             0

 49 48  0  0  0  0  0  0  0  0999 V2000
   -2.5628   -4.0829    0.5004 C   0  0  0  1  0  0  0  0  0  0  0  0
   -2.7358   -2.6065    0.7376 C   0  0  0  1  0  0  0  0  0  0  0  0
   -1.7743   -2.1369    0.7418 H   0  0  0  1  0  0  0  0  0  0  0  0
   -3.2106   -2.4566    1.6847 H   0  0  0  1  0  0  0  0  0  0  0  0
    3.6263  -11.5215   -2.7803 O   0  0  0  1  0  0  0  0  0  0  0  0
    1.4919  -10.3534   -2.1424 O   0  0  0  1  0  0  0  0  0  0  0  0
    1.9268   -9.6674   -0.9518 C   0  0  0  1  0  0  0  0  0  0  0  0
    2.9937   -9.5862   -0.9519 H   0  0  0  1  0  0  0  0  0  0  0  0
    1.6101  -10.2113   -0.0865 H   0  0  0  1  0  0  0  0  0  0  0  0
    4.2993  -11.1813   -0.2142 O   0  0  0  0  0  0  0  0  0  0  0  0
    1.3156   -8.2972   -0.9391 C   0  0  0  1  0  0  0  0  0  0  0  0
    1.4858   -7.7058   -1.7775 H   0  0  0  1  0  0  0  0  0  0  0  0
    0.5811   -7.7577    0.0263 C   0  0  0  1  0  0  0  0  0  0  0  0
    0.3073   -6.2823    0.0671 C   0  0  0  1  0  0  0  0  0  0  0  0
    0.9560   -5.7859   -0.6240 H   0  0  0  1  0  0  0  0  0  0  0  0
    0.4931   -5.9183    1.0560 H   0  0  0  1  0  0  0  0  0  0  0  0
   -1.1422   -5.9905   -0.3093 C   0  0  0  1  0  0  0  0  0  0  0  0
   -1.7811   -6.5879    0.3070 H   0  0  0  1  0  0  0  0  0  0  0  0
   -1.2873   -6.2548   -1.3360 H   0  0  0  1  0  0  0  0  0  0  0  0
   -1.5161   -4.5533   -0.1303 C   0  0  0  1  0  0  0  0  0  0  0  0
   -0.8752   -3.8515   -0.5526 H   0  0  0  1  0  0  0  0  0  0  0  0
   -3.5908   -1.9820   -0.3529 C   0  0  0  1  0  0  0  0  0  0  0  0
   -4.5631   -2.4261   -0.3050 H   0  0  0  1  0  0  0  0  0  0  0  0
   -3.1403   -2.2094   -1.2964 H   0  0  0  1  0  0  0  0  0  0  0  0
   -3.7577   -0.4885   -0.2661 C   0  0  0  1  0  0  0  0  0  0  0  0
   -2.9094    0.0990   -0.3962 H   0  0  0  1  0  0  0  0  0  0  0  0
   -4.9081    0.1353   -0.0355 C   0  0  0  1  0  0  0  0  0  0  0  0
   -6.2372   -0.5587    0.0072 C   0  0  0  1  0  0  0  0  0  0  0  0
   -6.8885   -0.1283   -0.7245 H   0  0  0  1  0  0  0  0  0  0  0  0
   -6.6682   -0.4437    0.9797 H   0  0  0  1  0  0  0  0  0  0  0  0
   -6.1028   -1.5992   -0.2032 H   0  0  0  1  0  0  0  0  0  0  0  0
    2.4540  -10.6295   -3.3972 P   0  0  0  1  0  0  0  0  0  0  0  0
    4.8790  -11.3131   -1.7426 P   0  0  0  1  0  0  0  0  0  0  0  0
    1.8309  -11.5313   -4.3968 O   0  0  0  0  0  0  0  0  0  0  0  0
    5.6631  -12.7217   -1.9021 O   0  5  0  1  0  0  0  0  0  0  0  0
   -0.0368   -8.5432    1.1487 C   0  0  0  1  0  0  0  0  0  0  0  0
    0.6124   -9.3493    1.4202 H   0  0  0  1  0  0  0  0  0  0  0  0
   -0.9800   -8.9365    0.8315 H   0  0  0  1  0  0  0  0  0  0  0  0
   -0.1827   -7.9031    1.9936 H   0  0  0  1  0  0  0  0  0  0  0  0
   -3.6706   -4.9393    1.0392 C   0  0  0  1  0  0  0  0  0  0  0  0
   -3.4217   -5.9713    0.9054 H   0  0  0  1  0  0  0  0  0  0  0  0
   -4.5774   -4.7205    0.5150 H   0  0  0  1  0  0  0  0  0  0  0  0
   -3.8029   -4.7368    2.0816 H   0  0  0  1  0  0  0  0  0  0  0  0
   -4.9643    1.6151    0.2050 C   0  0  0  1  0  0  0  0  0  0  0  0
   -5.9855    1.9276    0.2715 H   0  0  0  1  0  0  0  0  0  0  0  0
   -4.4871    2.1262   -0.6050 H   0  0  0  1  0  0  0  0  0  0  0  0
   -4.4603    1.8469    1.1200 H   0  0  0  1  0  0  0  0  0  0  0  0
    2.9360   -9.2839   -3.7846 O   0  0  0  1  0  0  0  0  0  0  0  0
    5.6594  -10.0915   -2.0410 O   0  0  0  1  0  0  0  0  0  0  0  0
  1  2  1  0  0  0  0
  1 20  2  0  0  0  0
  1 40  1  0  0  0  0
  2  3  1  0  0  0  0
  2  4  1  0  0  0  0
  2 22  1  0  0  0  0
  5 32  1  0  0  0  0
  5 33  1  0  0  0  0
  6  7  1  0  0  0  0
  6 32  1  0  0  0  0
  7  8  1  0  0  0  0
  7  9  1  0  0  0  0
  7 11  1  0  0  0  0
 10 33  1  0  0  0  0
 11 12  1  0  0  0  0
 11 13  2  0  0  0  0
 13 14  1  0  0  0  0
 13 36  1  0  0  0  0
 14 15  1  0  0  0  0
 14 16  1  0  0  0  0
 14 17  1  0  0  0  0
 17 18  1  0  0  0  0
 17 19  1  0  0  0  0
 17 20  1  0  0  0  0
 20 21  1  0  0  0  0
 22 23  1  0  0  0  0
 22 24  1  0  0  0  0
 22 25  1  0  0  0  0
 25 26  1  0  0  0  0
 25 27  2  0  0  0  0
 27 28  1  0  0  0  0
 27 44  1  0  0  0  0
 28 29  1  0  0  0  0
 28 30  1  0  0  0  0
 28 31  1  0  0  0  0
 32 34  1  0  0  0  0
 32 48  2  0  0  0  0
 33 35  1  0  0  0  0
 33 49  2  0  0  0  0
 36 37  1  0  0  0  0
 36 38  1  0  0  0  0
 36 39  1  0  0  0  0
 40 41  1  0  0  0  0
 40 42  1  0  0  0  0
 40 43  1  0  0  0  0
 44 45  1  0  0  0  0
 44 46  1  0  0  0  0
 44 47  1  0  0  0  0
M  BCL ATM C_TrTrTrPi C_TeTeTeTe H_S H_S O_Tr2TrTrPi2 O_Tr2TrTrPi2 C_TeTeTeTe H_S H_S O_Te2Te2TeTe C_TrTrTrPi H_S C_TrTrTrPi C_TeTeTeTe H_S H_S C_TeTeTeTe H_S H_S C_TrTrTrPi H_S C_TeTeTeTe H_S H_S C_TrTrTrPi H_S C_TrTrTrPi C_TeTeTeTe H_S H_S H_S P_TeTeTeTePi P_TeTeTeTePi O_Te2Te2TeTe O_Te2Te2Te2Te C_TeTeTeTe H_S H_S H_S C_TeTeTeTe H_S H_S H_S C_TeTeTeTe H_S H_S H_S O_Tr2Tr2TrPi O_Tr2Tr2TrPi
M  BCL BND NonConjugatedSingleBond ConjugatedDoubleBond NonConjugatedSingleBond NonConjugatedSingleBond NonConjugatedSingleBond NonConjugatedSingleBond ConjugatedSingleBond ConjugatedSingleBond NonConjugatedSingleBond ConjugatedSingleBond NonConjugatedSingleBond NonConjugatedSingleBond NonConjugatedSingleBond ConjugatedSingleBond NonConjugatedSingleBond ConjugatedDoubleBond NonConjugatedSingleBond NonConjugatedSingleBond NonConjugatedSingleBond NonConjugatedSingleBond NonConjugatedSingleBond NonConjugatedSingleBond NonConjugatedSingleBond NonConjugatedSingleBond NonConjugatedSingleBond NonConjugatedSingleBond NonConjugatedSingleBond NonConjugatedSingleBond NonConjugatedSingleBond ConjugatedDoubleBond NonConjugatedSingleBond NonConjugatedSingleBond NonConjugatedSingleBond NonConjugatedSingleBond NonConjugatedSingleBond ConjugatedSingleBond ConjugatedDoubleBond ConjugatedSingleBond ConjugatedDoubleBond NonConjugatedSingleBond NonConjugatedSingleBond NonConjugatedSingleBond NonConjugatedSingleBond NonConjugatedSingleBond NonConjugatedSingleBond NonConjugatedSingleBond NonConjugatedSingleBond NonConjugatedSingleBond
M  BCL CHI  32   S  33   S
M  BCL DBI Z Z - - -
M  END
> <ConfClashScore>
0 

> <ConfOneFourInteractionScore>
-0.976267 

> <ConfScore>
-0.0392008 

> <ConfScorePBest>
0.0106695 

> <ConfTolerance>
1.27604 

$$$$
L06.****
  PyMOL2.5          3D                             0

 49 48  0  0  0  0  0  0  0  0999 V2000
   -0.1368    0.1039   -0.9052 C   0  0  0  1  0  0  0  0  0  0  0  0
   -1.4892   -0.4273   -1.0953 C   0  0  0  1  0  0  0  0  0  0  0  0
   -1.4416   -1.4946   -1.1552 H   0  0  0  1  0  0  0  0  0  0  0  0
   -1.8951   -0.0362   -2.0048 H   0  0  0  1  0  0  0  0  0  0  0  0
    9.4630   -0.8252    0.9157 O   0  0  0  1  0  0  0  0  0  0  0  0
    7.3644   -0.4847    2.1915 O   0  0  0  1  0  0  0  0  0  0  0  0
    6.5499    0.1888    1.2186 C   0  0  0  1  0  0  0  0  0  0  0  0
    6.8749   -0.0727    0.2333 H   0  0  0  1  0  0  0  0  0  0  0  0
    6.6303    1.2474    1.3520 H   0  0  0  1  0  0  0  0  0  0  0  0
   10.1854   -1.6490   -1.4284 O   0  0  0  0  0  0  0  0  0  0  0  0
    5.1332   -0.2353    1.4093 C   0  0  0  1  0  0  0  0  0  0  0  0
    4.9621   -1.2579    1.3279 H   0  0  0  1  0  0  0  0  0  0  0  0
    4.0569    0.4998    1.6679 C   0  0  0  1  0  0  0  0  0  0  0  0
    2.6501   -0.0029    1.5211 C   0  0  0  1  0  0  0  0  0  0  0  0
    1.9929    0.6232    2.0878 H   0  0  0  1  0  0  0  0  0  0  0  0
    2.5954   -1.0055    1.8909 H   0  0  0  1  0  0  0  0  0  0  0  0
    2.2209    0.0147    0.0631 C   0  0  0  1  0  0  0  0  0  0  0  0
    2.9010   -0.5902   -0.4995 H   0  0  0  1  0  0  0  0  0  0  0  0
    2.2623    1.0232   -0.2920 H   0  0  0  1  0  0  0  0  0  0  0  0
    0.8259   -0.5105   -0.1474 C   0  0  0  1  0  0  0  0  0  0  0  0
    0.5739   -1.4064    0.3169 H   0  0  0  1  0  0  0  0  0  0  0  0
   -2.3909   -0.0329    0.0630 C   0  0  0  1  0  0  0  0  0  0  0  0
   -2.4582    1.0349    0.0802 H   0  0  0  1  0  0  0  0  0  0  0  0
   -1.9352   -0.3767    0.9680 H   0  0  0  1  0  0  0  0  0  0  0  0
   -3.7888   -0.5850    0.0087 C   0  0  0  1  0  0  0  0  0  0  0  0
   -3.8772   -1.6206   -0.0262 H   0  0  0  1  0  0  0  0  0  0  0  0
   -4.9223    0.1063    0.0005 C   0  0  0  1  0  0  0  0  0  0  0  0
   -6.2561   -0.5817   -0.0301 C   0  0  0  1  0  0  0  0  0  0  0  0
   -7.0331    0.1491   -0.1140 H   0  0  0  1  0  0  0  0  0  0  0  0
   -6.3892   -1.1415    0.8720 H   0  0  0  1  0  0  0  0  0  0  0  0
   -6.2967   -1.2431   -0.8702 H   0  0  0  1  0  0  0  0  0  0  0  0
    8.9120   -0.1597    2.2400 P   0  0  0  1  0  0  0  0  0  0  0  0
    8.9411   -0.9332   -0.6353 P   0  0  0  1  0  0  0  0  0  0  0  0
    9.0316    1.2982    2.0167 O   0  0  0  0  0  0  0  0  0  0  0  0
    7.7282   -2.0044   -0.7114 O   0  5  0  1  0  0  0  0  0  0  0  0
    4.1707    1.9228    2.1376 C   0  0  0  1  0  0  0  0  0  0  0  0
    3.6787    2.0276    3.0819 H   0  0  0  1  0  0  0  0  0  0  0  0
    3.7111    2.5721    1.4221 H   0  0  0  1  0  0  0  0  0  0  0  0
    5.2036    2.1817    2.2432 H   0  0  0  1  0  0  0  0  0  0  0  0
    0.1190    1.4671   -1.5404 C   0  0  0  1  0  0  0  0  0  0  0  0
   -0.0516    1.4073   -2.5950 H   0  0  0  1  0  0  0  0  0  0  0  0
    1.1320    1.7602   -1.3593 H   0  0  0  1  0  0  0  0  0  0  0  0
   -0.5439    2.1898   -1.1125 H   0  0  0  1  0  0  0  0  0  0  0  0
   -4.9894    1.6075    0.0205 C   0  0  0  1  0  0  0  0  0  0  0  0
   -4.0043    2.0075    0.1409 H   0  0  0  1  0  0  0  0  0  0  0  0
   -5.6055    1.9260    0.8353 H   0  0  0  1  0  0  0  0  0  0  0  0
   -5.4062    1.9579   -0.9006 H   0  0  0  1  0  0  0  0  0  0  0  0
    9.5341   -0.7663    3.4367 O   0  0  0  1  0  0  0  0  0  0  0  0
    8.5814    0.4156   -1.1270 O   0  0  0  1  0  0  0  0  0  0  0  0
  1  2  1  0  0  0  0
  1 20  2  0  0  0  0
  1 40  1  0  0  0  0
  2  3  1  0  0  0  0
  2  4  1  0  0  0  0
  2 22  1  0  0  0  0
  5 32  1  0  0  0  0
  5 33  1  0  0  0  0
  6  7  1  0  0  0  0
  6 32  1  0  0  0  0
  7  8  1  0  0  0  0
  7  9  1  0  0  0  0
  7 11  1  0  0  0  0
 10 33  1  0  0  0  0
 11 12  1  0  0  0  0
 11 13  2  0  0  0  0
 13 14  1  0  0  0  0
 13 36  1  0  0  0  0
 14 15  1  0  0  0  0
 14 16  1  0  0  0  0
 14 17  1  0  0  0  0
 17 18  1  0  0  0  0
 17 19  1  0  0  0  0
 17 20  1  0  0  0  0
 20 21  1  0  0  0  0
 22 23  1  0  0  0  0
 22 24  1  0  0  0  0
 22 25  1  0  0  0  0
 25 26  1  0  0  0  0
 25 27  2  0  0  0  0
 27 28  1  0  0  0  0
 27 44  1  0  0  0  0
 28 29  1  0  0  0  0
 28 30  1  0  0  0  0
 28 31  1  0  0  0  0
 32 34  1  0  0  0  0
 32 48  2  0  0  0  0
 33 35  1  0  0  0  0
 33 49  2  0  0  0  0
 36 37  1  0  0  0  0
 36 38  1  0  0  0  0
 36 39  1  0  0  0  0
 40 41  1  0  0  0  0
 40 42  1  0  0  0  0
 40 43  1  0  0  0  0
 44 45  1  0  0  0  0
 44 46  1  0  0  0  0
 44 47  1  0  0  0  0
M  BCL ATM C_TrTrTrPi C_TeTeTeTe H_S H_S O_Tr2TrTrPi2 O_Tr2TrTrPi2 C_TeTeTeTe H_S H_S O_Te2Te2TeTe C_TrTrTrPi H_S C_TrTrTrPi C_TeTeTeTe H_S H_S C_TeTeTeTe H_S H_S C_TrTrTrPi H_S C_TeTeTeTe H_S H_S C_TrTrTrPi H_S C_TrTrTrPi C_TeTeTeTe H_S H_S H_S P_TeTeTeTePi P_TeTeTeTePi O_Te2Te2TeTe O_Te2Te2Te2Te C_TeTeTeTe H_S H_S H_S C_TeTeTeTe H_S H_S H_S C_TeTeTeTe H_S H_S H_S O_Tr2Tr2TrPi O_Tr2Tr2TrPi
M  BCL BND NonConjugatedSingleBond ConjugatedDoubleBond NonConjugatedSingleBond NonConjugatedSingleBond NonConjugatedSingleBond NonConjugatedSingleBond ConjugatedSingleBond ConjugatedSingleBond NonConjugatedSingleBond ConjugatedSingleBond NonConjugatedSingleBond NonConjugatedSingleBond NonConjugatedSingleBond ConjugatedSingleBond NonConjugatedSingleBond ConjugatedDoubleBond NonConjugatedSingleBond NonConjugatedSingleBond NonConjugatedSingleBond NonConjugatedSingleBond NonConjugatedSingleBond NonConjugatedSingleBond NonConjugatedSingleBond NonConjugatedSingleBond NonConjugatedSingleBond NonConjugatedSingleBond NonConjugatedSingleBond NonConjugatedSingleBond NonConjugatedSingleBond ConjugatedDoubleBond NonConjugatedSingleBond NonConjugatedSingleBond NonConjugatedSingleBond NonConjugatedSingleBond NonConjugatedSingleBond ConjugatedSingleBond ConjugatedDoubleBond ConjugatedSingleBond ConjugatedDoubleBond NonConjugatedSingleBond NonConjugatedSingleBond NonConjugatedSingleBond NonConjugatedSingleBond NonConjugatedSingleBond NonConjugatedSingleBond NonConjugatedSingleBond NonConjugatedSingleBond NonConjugatedSingleBond
M  BCL CHI  32   S  33   S
M  BCL DBI Z Z - - -
M  END
> <ConfClashScore>
0 

> <ConfOneFourInteractionScore>
-0.995419 

> <ConfScore>
-0.0382971 

> <ConfScorePBest>
0.0105665 

> <ConfTolerance>
1.24801 

$$$$
L06.****
  PyMOL2.5          3D                             0

 49 48  0  0  0  0  0  0  0  0999 V2000
   -0.1503   -0.3616   -1.4468 C   0  0  0  1  0  0  0  0  0  0  0  0
   -1.5495   -0.8593   -1.2278 C   0  0  0  1  0  0  0  0  0  0  0  0
   -1.4890   -1.8584   -0.8497 H   0  0  0  1  0  0  0  0  0  0  0  0
   -2.0497   -0.8650   -2.1736 H   0  0  0  1  0  0  0  0  0  0  0  0
    8.1901   -1.6766   -0.7528 O   0  0  0  1  0  0  0  0  0  0  0  0
    7.0372   -0.6098   -2.6476 O   0  0  0  1  0  0  0  0  0  0  0  0
    6.5214    0.4604   -1.8399 C   0  0  0  1  0  0  0  0  0  0  0  0
    6.6287    1.3889   -2.3607 H   0  0  0  1  0  0  0  0  0  0  0  0
    7.0582    0.5052   -0.9155 H   0  0  0  1  0  0  0  0  0  0  0  0
   10.0463   -3.5008   -0.5125 O   0  0  0  0  0  0  0  0  0  0  0  0
    5.0700    0.1980   -1.5690 C   0  0  0  1  0  0  0  0  0  0  0  0
    4.4127    0.1764   -2.3746 H   0  0  0  1  0  0  0  0  0  0  0  0
    4.5825   -0.0083   -0.3503 C   0  0  0  1  0  0  0  0  0  0  0  0
    3.1624   -0.4123   -0.0787 C   0  0  0  1  0  0  0  0  0  0  0  0
    2.7054    0.3388    0.5312 H   0  0  0  1  0  0  0  0  0  0  0  0
    3.1681   -1.3443    0.4468 H   0  0  0  1  0  0  0  0  0  0  0  0
    2.3373   -0.5757   -1.3447 C   0  0  0  1  0  0  0  0  0  0  0  0
    2.8337   -1.2855   -1.9729 H   0  0  0  1  0  0  0  0  0  0  0  0
    2.2990    0.3729   -1.8384 H   0  0  0  1  0  0  0  0  0  0  0  0
    0.9234   -1.0484   -1.1368 C   0  0  0  1  0  0  0  0  0  0  0  0
    0.7876   -1.9897   -0.7160 H   0  0  0  1  0  0  0  0  0  0  0  0
   -2.3878   -0.0412   -0.2590 C   0  0  0  1  0  0  0  0  0  0  0  0
   -2.4888    0.9451   -0.6614 H   0  0  0  1  0  0  0  0  0  0  0  0
   -1.8640    0.0051    0.6729 H   0  0  0  1  0  0  0  0  0  0  0  0
   -3.7947   -0.5866    0.0156 C   0  0  0  1  0  0  0  0  0  0  0  0
   -3.8644   -1.6015    0.2320 H   0  0  0  1  0  0  0  0  0  0  0  0
   -4.9587    0.1116    0.0067 C   0  0  0  1  0  0  0  0  0  0  0  0
   -6.2735   -0.5659    0.2634 C   0  0  0  1  0  0  0  0  0  0  0  0
   -6.2615   -1.0120    1.2360 H   0  0  0  1  0  0  0  0  0  0  0  0
   -6.4338   -1.3241   -0.4744 H   0  0  0  1  0  0  0  0  0  0  0  0
   -7.0622    0.1553    0.2118 H   0  0  0  1  0  0  0  0  0  0  0  0
    7.2717   -2.0865   -2.0199 P   0  0  0  1  0  0  0  0  0  0  0  0
    9.8156   -1.8943   -0.7479 P   0  0  0  1  0  0  0  0  0  0  0  0
    6.0081   -2.5661   -1.4134 O   0  0  0  0  0  0  0  0  0  0  0  0
   10.2609   -1.5767   -2.2728 O   0  5  0  1  0  0  0  0  0  0  0  0
    5.4366    0.1512    0.8758 C   0  0  0  1  0  0  0  0  0  0  0  0
    5.6781   -0.8134    1.2709 H   0  0  0  1  0  0  0  0  0  0  0  0
    4.9018    0.7142    1.6120 H   0  0  0  1  0  0  0  0  0  0  0  0
    6.3382    0.6664    0.6176 H   0  0  0  1  0  0  0  0  0  0  0  0
   -0.0583    1.0077   -2.0592 C   0  0  0  1  0  0  0  0  0  0  0  0
   -0.1348    1.7485   -1.2909 H   0  0  0  1  0  0  0  0  0  0  0  0
   -0.8553    1.1386   -2.7611 H   0  0  0  1  0  0  0  0  0  0  0  0
    0.8807    1.1111   -2.5617 H   0  0  0  1  0  0  0  0  0  0  0  0
   -4.9775    1.5903   -0.2605 C   0  0  0  1  0  0  0  0  0  0  0  0
   -5.5004    1.7816   -1.1742 H   0  0  0  1  0  0  0  0  0  0  0  0
   -3.9733    1.9505   -0.3424 H   0  0  0  1  0  0  0  0  0  0  0  0
   -5.4722    2.0918    0.5449 H   0  0  0  1  0  0  0  0  0  0  0  0
    8.0238   -2.9510   -2.9579 O   0  0  0  1  0  0  0  0  0  0  0  0
   10.4984   -0.9905    0.2046 O   0  0  0  1  0  0  0  0  0  0  0  0
  1  2  1  0  0  0  0
  1 20  2  0  0  0  0
  1 40  1  0  0  0  0
  2  3  1  0  0  0  0
  2  4  1  0  0  0  0
  2 22  1  0  0  0  0
  5 32  1  0  0  0  0
  5 33  1  0  0  0  0
  6  7  1  0  0  0  0
  6 32  1  0  0  0  0
  7  8  1  0  0  0  0
  7  9  1  0  0  0  0
  7 11  1  0  0  0  0
 10 33  1  0  0  0  0
 11 12  1  0  0  0  0
 11 13  2  0  0  0  0
 13 14  1  0  0  0  0
 13 36  1  0  0  0  0
 14 15  1  0  0  0  0
 14 16  1  0  0  0  0
 14 17  1  0  0  0  0
 17 18  1  0  0  0  0
 17 19  1  0  0  0  0
 17 20  1  0  0  0  0
 20 21  1  0  0  0  0
 22 23  1  0  0  0  0
 22 24  1  0  0  0  0
 22 25  1  0  0  0  0
 25 26  1  0  0  0  0
 25 27  2  0  0  0  0
 27 28  1  0  0  0  0
 27 44  1  0  0  0  0
 28 29  1  0  0  0  0
 28 30  1  0  0  0  0
 28 31  1  0  0  0  0
 32 34  1  0  0  0  0
 32 48  2  0  0  0  0
 33 35  1  0  0  0  0
 33 49  2  0  0  0  0
 36 37  1  0  0  0  0
 36 38  1  0  0  0  0
 36 39  1  0  0  0  0
 40 41  1  0  0  0  0
 40 42  1  0  0  0  0
 40 43  1  0  0  0  0
 44 45  1  0  0  0  0
 44 46  1  0  0  0  0
 44 47  1  0  0  0  0
M  BCL ATM C_TrTrTrPi C_TeTeTeTe H_S H_S O_Tr2TrTrPi2 O_Tr2TrTrPi2 C_TeTeTeTe H_S H_S O_Te2Te2TeTe C_TrTrTrPi H_S C_TrTrTrPi C_TeTeTeTe H_S H_S C_TeTeTeTe H_S H_S C_TrTrTrPi H_S C_TeTeTeTe H_S H_S C_TrTrTrPi H_S C_TrTrTrPi C_TeTeTeTe H_S H_S H_S P_TeTeTeTePi P_TeTeTeTePi O_Te2Te2TeTe O_Te2Te2Te2Te C_TeTeTeTe H_S H_S H_S C_TeTeTeTe H_S H_S H_S C_TeTeTeTe H_S H_S H_S O_Tr2Tr2TrPi O_Tr2Tr2TrPi
M  BCL BND NonConjugatedSingleBond ConjugatedDoubleBond NonConjugatedSingleBond NonConjugatedSingleBond NonConjugatedSingleBond NonConjugatedSingleBond ConjugatedSingleBond ConjugatedSingleBond NonConjugatedSingleBond ConjugatedSingleBond NonConjugatedSingleBond NonConjugatedSingleBond NonConjugatedSingleBond ConjugatedSingleBond NonConjugatedSingleBond ConjugatedDoubleBond NonConjugatedSingleBond NonConjugatedSingleBond NonConjugatedSingleBond NonConjugatedSingleBond NonConjugatedSingleBond NonConjugatedSingleBond NonConjugatedSingleBond NonConjugatedSingleBond NonConjugatedSingleBond NonConjugatedSingleBond NonConjugatedSingleBond NonConjugatedSingleBond NonConjugatedSingleBond ConjugatedDoubleBond NonConjugatedSingleBond NonConjugatedSingleBond NonConjugatedSingleBond NonConjugatedSingleBond NonConjugatedSingleBond ConjugatedSingleBond ConjugatedDoubleBond ConjugatedSingleBond ConjugatedDoubleBond NonConjugatedSingleBond NonConjugatedSingleBond NonConjugatedSingleBond NonConjugatedSingleBond NonConjugatedSingleBond NonConjugatedSingleBond NonConjugatedSingleBond NonConjugatedSingleBond NonConjugatedSingleBond
M  BCL CHI  32   S  33   S
M  BCL DBI Z Z - - -
M  END
> <ConfClashScore>
0 

> <ConfOneFourInteractionScore>
-0.979561 

> <ConfScore>
-0.0378443 

> <ConfScorePBest>
0.0104635 

> <ConfTolerance>
1.33524 

$$$$
L06.****
  PyMOL2.5          3D                             0

 49 48  0  0  0  0  0  0  0  0999 V2000
   -0.1416    0.2306   -0.3354 C   0  0  0  1  0  0  0  0  0  0  0  0
   -1.4164   -0.5299   -0.0322 C   0  0  0  1  0  0  0  0  0  0  0  0
   -1.6353   -0.4640    1.0131 H   0  0  0  1  0  0  0  0  0  0  0  0
   -1.2977   -1.5568   -0.3082 H   0  0  0  1  0  0  0  0  0  0  0  0
    9.2775    3.7197    1.8613 O   0  0  0  1  0  0  0  0  0  0  0  0
    7.1319    3.4987    0.5750 O   0  0  0  1  0  0  0  0  0  0  0  0
    6.0911    3.1667   -0.3579 C   0  0  0  1  0  0  0  0  0  0  0  0
    6.4811    2.4822   -1.0820 H   0  0  0  1  0  0  0  0  0  0  0  0
    5.7686    4.0610   -0.8490 H   0  0  0  1  0  0  0  0  0  0  0  0
    9.4084    4.7832    4.3206 O   0  0  0  0  0  0  0  0  0  0  0  0
    4.9130    2.5349    0.3214 C   0  0  0  1  0  0  0  0  0  0  0  0
    5.0705    1.6366    0.8213 H   0  0  0  1  0  0  0  0  0  0  0  0
    3.6829    3.0371    0.3323 C   0  0  0  1  0  0  0  0  0  0  0  0
    2.4882    2.3030    0.8682 C   0  0  0  1  0  0  0  0  0  0  0  0
    2.1476    2.8045    1.7499 H   0  0  0  1  0  0  0  0  0  0  0  0
    2.7848    1.3054    1.1168 H   0  0  0  1  0  0  0  0  0  0  0  0
    1.3383    2.2329   -0.1234 C   0  0  0  1  0  0  0  0  0  0  0  0
    1.7190    1.8900   -1.0627 H   0  0  0  1  0  0  0  0  0  0  0  0
    0.9295    3.2148   -0.2407 H   0  0  0  1  0  0  0  0  0  0  0  0
    0.2373    1.3047    0.3151 C   0  0  0  1  0  0  0  0  0  0  0  0
   -0.2600    1.5321    1.1997 H   0  0  0  1  0  0  0  0  0  0  0  0
   -2.5515    0.0874   -0.8327 C   0  0  0  1  0  0  0  0  0  0  0  0
   -2.3585   -0.0476   -1.8765 H   0  0  0  1  0  0  0  0  0  0  0  0
   -2.6082    1.1329   -0.6122 H   0  0  0  1  0  0  0  0  0  0  0  0
   -3.8643   -0.5622   -0.4855 C   0  0  0  1  0  0  0  0  0  0  0  0
   -3.9317   -1.5951   -0.5865 H   0  0  0  1  0  0  0  0  0  0  0  0
   -4.9434    0.0856   -0.0597 C   0  0  0  1  0  0  0  0  0  0  0  0
   -6.2527   -0.5844    0.2408 C   0  0  0  1  0  0  0  0  0  0  0  0
   -6.2406   -1.5818   -0.1464 H   0  0  0  1  0  0  0  0  0  0  0  0
   -7.0480   -0.0340   -0.2168 H   0  0  0  1  0  0  0  0  0  0  0  0
   -6.4026   -0.6149    1.2998 H   0  0  0  1  0  0  0  0  0  0  0  0
    8.6749    3.0188    0.5743 P   0  0  0  1  0  0  0  0  0  0  0  0
    8.4083    4.1576    3.1813 P   0  0  0  1  0  0  0  0  0  0  0  0
    8.7392    1.5574    0.7979 O   0  0  0  0  0  0  0  0  0  0  0  0
    7.4120    5.3614    2.7539 O   0  5  0  1  0  0  0  0  0  0  0  0
    3.3893    4.4100   -0.2038 C   0  0  0  1  0  0  0  0  0  0  0  0
    4.2958    4.8585   -0.5531 H   0  0  0  1  0  0  0  0  0  0  0  0
    2.9694    5.0138    0.5734 H   0  0  0  1  0  0  0  0  0  0  0  0
    2.6936    4.3353   -1.0133 H   0  0  0  1  0  0  0  0  0  0  0  0
    0.6798   -0.3402   -1.4571 C   0  0  0  1  0  0  0  0  0  0  0  0
    1.0537   -1.3015   -1.1726 H   0  0  0  1  0  0  0  0  0  0  0  0
    1.5004    0.3138   -1.6664 H   0  0  0  1  0  0  0  0  0  0  0  0
    0.0700   -0.4391   -2.3307 H   0  0  0  1  0  0  0  0  0  0  0  0
   -4.9331    1.5726    0.1580 C   0  0  0  1  0  0  0  0  0  0  0  0
   -4.2098    2.0233   -0.4890 H   0  0  0  1  0  0  0  0  0  0  0  0
   -4.6799    1.7820    1.1763 H   0  0  0  1  0  0  0  0  0  0  0  0
   -5.9022    1.9712   -0.0583 H   0  0  0  1  0  0  0  0  0  0  0  0
    9.2730    3.5818   -0.6554 O   0  0  0  1  0  0  0  0  0  0  0  0
    7.5128    3.1297    3.7575 O   0  0  0  1  0  0  0  0  0  0  0  0
  1  2  1  0  0  0  0
  1 20  2  0  0  0  0
  1 40  1  0  0  0  0
  2  3  1  0  0  0  0
  2  4  1  0  0  0  0
  2 22  1  0  0  0  0
  5 32  1  0  0  0  0
  5 33  1  0  0  0  0
  6  7  1  0  0  0  0
  6 32  1  0  0  0  0
  7  8  1  0  0  0  0
  7  9  1  0  0  0  0
  7 11  1  0  0  0  0
 10 33  1  0  0  0  0
 11 12  1  0  0  0  0
 11 13  2  0  0  0  0
 13 14  1  0  0  0  0
 13 36  1  0  0  0  0
 14 15  1  0  0  0  0
 14 16  1  0  0  0  0
 14 17  1  0  0  0  0
 17 18  1  0  0  0  0
 17 19  1  0  0  0  0
 17 20  1  0  0  0  0
 20 21  1  0  0  0  0
 22 23  1  0  0  0  0
 22 24  1  0  0  0  0
 22 25  1  0  0  0  0
 25 26  1  0  0  0  0
 25 27  2  0  0  0  0
 27 28  1  0  0  0  0
 27 44  1  0  0  0  0
 28 29  1  0  0  0  0
 28 30  1  0  0  0  0
 28 31  1  0  0  0  0
 32 34  1  0  0  0  0
 32 48  2  0  0  0  0
 33 35  1  0  0  0  0
 33 49  2  0  0  0  0
 36 37  1  0  0  0  0
 36 38  1  0  0  0  0
 36 39  1  0  0  0  0
 40 41  1  0  0  0  0
 40 42  1  0  0  0  0
 40 43  1  0  0  0  0
 44 45  1  0  0  0  0
 44 46  1  0  0  0  0
 44 47  1  0  0  0  0
M  BCL ATM C_TrTrTrPi C_TeTeTeTe H_S H_S O_Tr2TrTrPi2 O_Tr2TrTrPi2 C_TeTeTeTe H_S H_S O_Te2Te2TeTe C_TrTrTrPi H_S C_TrTrTrPi C_TeTeTeTe H_S H_S C_TeTeTeTe H_S H_S C_TrTrTrPi H_S C_TeTeTeTe H_S H_S C_TrTrTrPi H_S C_TrTrTrPi C_TeTeTeTe H_S H_S H_S P_TeTeTeTePi P_TeTeTeTePi O_Te2Te2TeTe O_Te2Te2Te2Te C_TeTeTeTe H_S H_S H_S C_TeTeTeTe H_S H_S H_S C_TeTeTeTe H_S H_S H_S O_Tr2Tr2TrPi O_Tr2Tr2TrPi
M  BCL BND NonConjugatedSingleBond ConjugatedDoubleBond NonConjugatedSingleBond NonConjugatedSingleBond NonConjugatedSingleBond NonConjugatedSingleBond ConjugatedSingleBond ConjugatedSingleBond NonConjugatedSingleBond ConjugatedSingleBond NonConjugatedSingleBond NonConjugatedSingleBond NonConjugatedSingleBond ConjugatedSingleBond NonConjugatedSingleBond ConjugatedDoubleBond NonConjugatedSingleBond NonConjugatedSingleBond NonConjugatedSingleBond NonConjugatedSingleBond NonConjugatedSingleBond NonConjugatedSingleBond NonConjugatedSingleBond NonConjugatedSingleBond NonConjugatedSingleBond NonConjugatedSingleBond NonConjugatedSingleBond NonConjugatedSingleBond NonConjugatedSingleBond ConjugatedDoubleBond NonConjugatedSingleBond NonConjugatedSingleBond NonConjugatedSingleBond NonConjugatedSingleBond NonConjugatedSingleBond ConjugatedSingleBond ConjugatedDoubleBond ConjugatedSingleBond ConjugatedDoubleBond NonConjugatedSingleBond NonConjugatedSingleBond NonConjugatedSingleBond NonConjugatedSingleBond NonConjugatedSingleBond NonConjugatedSingleBond NonConjugatedSingleBond NonConjugatedSingleBond NonConjugatedSingleBond
M  BCL CHI  32   S  33   S
M  BCL DBI Z Z - - -
M  END
> <ConfClashScore>
0 

> <ConfOneFourInteractionScore>
-0.985843 

> <ConfScore>
-0.0371724 

> <ConfScorePBest>
0.0103605 

> <ConfTolerance>
1.16704 

$$$$
L06.****
  PyMOL2.5          3D                             0

 49 48  0  0  0  0  0  0  0  0999 V2000
   -0.3091   -0.2510   -1.7530 C   0  0  0  1  0  0  0  0  0  0  0  0
   -1.6258   -0.8532   -1.3413 C   0  0  0  1  0  0  0  0  0  0  0  0
   -1.4263   -1.7941   -0.8725 H   0  0  0  1  0  0  0  0  0  0  0  0
   -2.2075   -1.0108   -2.2254 H   0  0  0  1  0  0  0  0  0  0  0  0
    3.6673    4.7704   -9.6635 O   0  0  0  1  0  0  0  0  0  0  0  0
    3.5698    3.0089   -7.9864 O   0  0  0  1  0  0  0  0  0  0  0  0
    2.8068    3.8038   -7.0573 C   0  0  0  1  0  0  0  0  0  0  0  0
    2.2233    4.5179   -7.6000 H   0  0  0  1  0  0  0  0  0  0  0  0
    3.4762    4.3163   -6.3985 H   0  0  0  1  0  0  0  0  0  0  0  0
    4.1206    7.1712  -10.7283 O   0  0  0  0  0  0  0  0  0  0  0  0
    1.8936    2.9285   -6.2520 C   0  0  0  1  0  0  0  0  0  0  0  0
    1.2799    2.2818   -6.7875 H   0  0  0  1  0  0  0  0  0  0  0  0
    1.7835    2.8896   -4.9284 C   0  0  0  1  0  0  0  0  0  0  0  0
    0.6414    2.2353   -4.2065 C   0  0  0  1  0  0  0  0  0  0  0  0
   -0.1067    1.9687   -4.9235 H   0  0  0  1  0  0  0  0  0  0  0  0
    0.2335    2.9362   -3.5085 H   0  0  0  1  0  0  0  0  0  0  0  0
    1.0558    0.9786   -3.4470 C   0  0  0  1  0  0  0  0  0  0  0  0
    1.6024    1.2828   -2.5789 H   0  0  0  1  0  0  0  0  0  0  0  0
    1.6917    0.4017   -4.0855 H   0  0  0  1  0  0  0  0  0  0  0  0
   -0.0760    0.0941   -2.9968 C   0  0  0  1  0  0  0  0  0  0  0  0
   -0.7212   -0.2706   -3.7264 H   0  0  0  1  0  0  0  0  0  0  0  0
   -2.4527   -0.0159   -0.3791 C   0  0  0  1  0  0  0  0  0  0  0  0
   -2.6202    0.9388   -0.8324 H   0  0  0  1  0  0  0  0  0  0  0  0
   -1.8861    0.1100    0.5197 H   0  0  0  1  0  0  0  0  0  0  0  0
   -3.7904   -0.5940   -0.0072 C   0  0  0  1  0  0  0  0  0  0  0  0
   -3.8234   -1.5991    0.2578 H   0  0  0  1  0  0  0  0  0  0  0  0
   -4.9332    0.0836    0.0079 C   0  0  0  1  0  0  0  0  0  0  0  0
   -6.2700   -0.5423    0.2889 C   0  0  0  1  0  0  0  0  0  0  0  0
   -6.2647   -0.9709    1.2693 H   0  0  0  1  0  0  0  0  0  0  0  0
   -6.4642   -1.3074   -0.4335 H   0  0  0  1  0  0  0  0  0  0  0  0
   -7.0330    0.2056    0.2310 H   0  0  0  1  0  0  0  0  0  0  0  0
    3.3933    3.1979   -9.5658 P   0  0  0  1  0  0  0  0  0  0  0  0
    3.6174    5.6439  -11.0506 P   0  0  0  1  0  0  0  0  0  0  0  0
    4.4992    2.4046  -10.1883 O   0  0  0  0  0  0  0  0  0  0  0  0
    4.7103    5.0437  -12.0848 O   0  5  0  1  0  0  0  0  0  0  0  0
    2.8186    3.5124   -4.0345 C   0  0  0  1  0  0  0  0  0  0  0  0
    2.4236    4.4067   -3.5997 H   0  0  0  1  0  0  0  0  0  0  0  0
    3.6894    3.7499   -4.6091 H   0  0  0  1  0  0  0  0  0  0  0  0
    3.0798    2.8239   -3.2581 H   0  0  0  1  0  0  0  0  0  0  0  0
    0.6825   -0.0877   -0.6385 C   0  0  0  1  0  0  0  0  0  0  0  0
    1.0037   -1.0513   -0.3021 H   0  0  0  1  0  0  0  0  0  0  0  0
    0.2237    0.4382    0.1726 H   0  0  0  1  0  0  0  0  0  0  0  0
    1.5272    0.4665   -0.9912 H   0  0  0  1  0  0  0  0  0  0  0  0
   -4.9747    1.5595   -0.2609 C   0  0  0  1  0  0  0  0  0  0  0  0
   -5.3453    1.7322   -1.2497 H   0  0  0  1  0  0  0  0  0  0  0  0
   -3.9885    1.9654   -0.1739 H   0  0  0  1  0  0  0  0  0  0  0  0
   -5.6198    2.0331    0.4493 H   0  0  0  1  0  0  0  0  0  0  0  0
    2.0129    2.8658  -10.0288 O   0  0  0  1  0  0  0  0  0  0  0  0
    2.2266    5.6138  -11.5558 O   0  0  0  1  0  0  0  0  0  0  0  0
  1  2  1  0  0  0  0
  1 20  2  0  0  0  0
  1 40  1  0  0  0  0
  2  3  1  0  0  0  0
  2  4  1  0  0  0  0
  2 22  1  0  0  0  0
  5 32  1  0  0  0  0
  5 33  1  0  0  0  0
  6  7  1  0  0  0  0
  6 32  1  0  0  0  0
  7  8  1  0  0  0  0
  7  9  1  0  0  0  0
  7 11  1  0  0  0  0
 10 33  1  0  0  0  0
 11 12  1  0  0  0  0
 11 13  2  0  0  0  0
 13 14  1  0  0  0  0
 13 36  1  0  0  0  0
 14 15  1  0  0  0  0
 14 16  1  0  0  0  0
 14 17  1  0  0  0  0
 17 18  1  0  0  0  0
 17 19  1  0  0  0  0
 17 20  1  0  0  0  0
 20 21  1  0  0  0  0
 22 23  1  0  0  0  0
 22 24  1  0  0  0  0
 22 25  1  0  0  0  0
 25 26  1  0  0  0  0
 25 27  2  0  0  0  0
 27 28  1  0  0  0  0
 27 44  1  0  0  0  0
 28 29  1  0  0  0  0
 28 30  1  0  0  0  0
 28 31  1  0  0  0  0
 32 34  1  0  0  0  0
 32 48  2  0  0  0  0
 33 35  1  0  0  0  0
 33 49  2  0  0  0  0
 36 37  1  0  0  0  0
 36 38  1  0  0  0  0
 36 39  1  0  0  0  0
 40 41  1  0  0  0  0
 40 42  1  0  0  0  0
 40 43  1  0  0  0  0
 44 45  1  0  0  0  0
 44 46  1  0  0  0  0
 44 47  1  0  0  0  0
M  BCL ATM C_TrTrTrPi C_TeTeTeTe H_S H_S O_Tr2TrTrPi2 O_Tr2TrTrPi2 C_TeTeTeTe H_S H_S O_Te2Te2TeTe C_TrTrTrPi H_S C_TrTrTrPi C_TeTeTeTe H_S H_S C_TeTeTeTe H_S H_S C_TrTrTrPi H_S C_TeTeTeTe H_S H_S C_TrTrTrPi H_S C_TrTrTrPi C_TeTeTeTe H_S H_S H_S P_TeTeTeTePi P_TeTeTeTePi O_Te2Te2TeTe O_Te2Te2Te2Te C_TeTeTeTe H_S H_S H_S C_TeTeTeTe H_S H_S H_S C_TeTeTeTe H_S H_S H_S O_Tr2Tr2TrPi O_Tr2Tr2TrPi
M  BCL BND NonConjugatedSingleBond ConjugatedDoubleBond NonConjugatedSingleBond NonConjugatedSingleBond NonConjugatedSingleBond NonConjugatedSingleBond ConjugatedSingleBond ConjugatedSingleBond NonConjugatedSingleBond ConjugatedSingleBond NonConjugatedSingleBond NonConjugatedSingleBond NonConjugatedSingleBond ConjugatedSingleBond NonConjugatedSingleBond ConjugatedDoubleBond NonConjugatedSingleBond NonConjugatedSingleBond NonConjugatedSingleBond NonConjugatedSingleBond NonConjugatedSingleBond NonConjugatedSingleBond NonConjugatedSingleBond NonConjugatedSingleBond NonConjugatedSingleBond NonConjugatedSingleBond NonConjugatedSingleBond NonConjugatedSingleBond NonConjugatedSingleBond ConjugatedDoubleBond NonConjugatedSingleBond NonConjugatedSingleBond NonConjugatedSingleBond NonConjugatedSingleBond NonConjugatedSingleBond ConjugatedSingleBond ConjugatedDoubleBond ConjugatedSingleBond ConjugatedDoubleBond NonConjugatedSingleBond NonConjugatedSingleBond NonConjugatedSingleBond NonConjugatedSingleBond NonConjugatedSingleBond NonConjugatedSingleBond NonConjugatedSingleBond NonConjugatedSingleBond NonConjugatedSingleBond
M  BCL CHI  32   S  33   S
M  BCL DBI Z Z - - -
M  END
> <ConfClashScore>
0 

> <ConfOneFourInteractionScore>
-0.972961 

> <ConfScore>
-0.0347954 

> <ConfScorePBest>
0.0102575 

> <ConfTolerance>
1.28552 

$$$$
L06.****
  PyMOL2.5          3D                             0

 49 48  0  0  0  0  0  0  0  0999 V2000
   -0.0050   -0.2862   -0.0032 C   0  0  0  1  0  0  0  0  0  0  0  0
   -1.4085   -0.7021   -0.3307 C   0  0  0  1  0  0  0  0  0  0  0  0
   -1.4853   -1.7629   -0.2143 H   0  0  0  1  0  0  0  0  0  0  0  0
   -1.6133   -0.4385   -1.3473 H   0  0  0  1  0  0  0  0  0  0  0  0
    8.5877   -5.0078    2.7156 O   0  0  0  1  0  0  0  0  0  0  0  0
    7.1210   -3.8547    1.1036 O   0  0  0  1  0  0  0  0  0  0  0  0
    6.6256   -3.4335   -0.1826 C   0  0  0  1  0  0  0  0  0  0  0  0
    6.7719   -4.2149   -0.8987 H   0  0  0  1  0  0  0  0  0  0  0  0
    7.1481   -2.5555   -0.5002 H   0  0  0  1  0  0  0  0  0  0  0  0
    9.6450   -6.2416    4.8897 O   0  0  0  0  0  0  0  0  0  0  0  0
    5.1621   -3.1322   -0.0557 C   0  0  0  1  0  0  0  0  0  0  0  0
    4.5540   -3.9129    0.2643 H   0  0  0  1  0  0  0  0  0  0  0  0
    4.5554   -1.9710   -0.3087 C   0  0  0  1  0  0  0  0  0  0  0  0
    3.0628   -1.8900   -0.4606 C   0  0  0  1  0  0  0  0  0  0  0  0
    2.6642   -2.8748   -0.3339 H   0  0  0  1  0  0  0  0  0  0  0  0
    2.8500   -1.5431   -1.4502 H   0  0  0  1  0  0  0  0  0  0  0  0
    2.3556   -0.9667    0.5230 C   0  0  0  1  0  0  0  0  0  0  0  0
    2.5980    0.0485    0.2875 H   0  0  0  1  0  0  0  0  0  0  0  0
    2.6864   -1.1919    1.5154 H   0  0  0  1  0  0  0  0  0  0  0  0
    0.8727   -1.1472    0.4475 C   0  0  0  1  0  0  0  0  0  0  0  0
    0.4981   -2.0549    0.7901 H   0  0  0  1  0  0  0  0  0  0  0  0
   -2.4483   -0.0411    0.5594 C   0  0  0  1  0  0  0  0  0  0  0  0
   -2.4467    1.0133    0.3775 H   0  0  0  1  0  0  0  0  0  0  0  0
   -2.2024   -0.2272    1.5840 H   0  0  0  1  0  0  0  0  0  0  0  0
   -3.8211   -0.5890    0.2739 C   0  0  0  1  0  0  0  0  0  0  0  0
   -3.9139   -1.6248    0.2637 H   0  0  0  1  0  0  0  0  0  0  0  0
   -4.9261    0.1066    0.0338 C   0  0  0  1  0  0  0  0  0  0  0  0
   -6.2321   -0.5771   -0.2570 C   0  0  0  1  0  0  0  0  0  0  0  0
   -6.9821    0.1580   -0.4621 H   0  0  0  1  0  0  0  0  0  0  0  0
   -6.5262   -1.1592    0.5913 H   0  0  0  1  0  0  0  0  0  0  0  0
   -6.1180   -1.2168   -1.1070 H   0  0  0  1  0  0  0  0  0  0  0  0
    8.6394   -4.2553    1.2964 P   0  0  0  1  0  0  0  0  0  0  0  0
    9.5624   -6.2127    3.2520 P   0  0  0  1  0  0  0  0  0  0  0  0
    9.0740   -5.2243    0.2608 O   0  0  0  0  0  0  0  0  0  0  0  0
    8.6968   -7.4946    2.7707 O   0  5  0  1  0  0  0  0  0  0  0  0
    5.3404   -0.6975   -0.4520 C   0  0  0  1  0  0  0  0  0  0  0  0
    5.1281   -0.2520   -1.4014 H   0  0  0  1  0  0  0  0  0  0  0  0
    6.3862   -0.9141   -0.3858 H   0  0  0  1  0  0  0  0  0  0  0  0
    5.0659   -0.0198    0.3291 H   0  0  0  1  0  0  0  0  0  0  0  0
    0.2893    1.1667   -0.2341 C   0  0  0  1  0  0  0  0  0  0  0  0
    0.8087    1.2828   -1.1624 H   0  0  0  1  0  0  0  0  0  0  0  0
    0.8979    1.5382    0.5637 H   0  0  0  1  0  0  0  0  0  0  0  0
   -0.6287    1.7152   -0.2684 H   0  0  0  1  0  0  0  0  0  0  0  0
   -4.9872    1.6060    0.0272 C   0  0  0  1  0  0  0  0  0  0  0  0
   -5.4103    1.9503    0.9477 H   0  0  0  1  0  0  0  0  0  0  0  0
   -5.5955    1.9344   -0.7895 H   0  0  0  1  0  0  0  0  0  0  0  0
   -3.9993    2.0025   -0.0812 H   0  0  0  1  0  0  0  0  0  0  0  0
    9.3925   -2.9981    1.4482 O   0  0  0  1  0  0  0  0  0  0  0  0
   10.8481   -6.2516    2.5200 O   0  0  0  1  0  0  0  0  0  0  0  0
  1  2  1  0  0  0  0
  1 20  2  0  0  0  0
  1 40  1  0  0  0  0
  2  3  1  0  0  0  0
  2  4  1  0  0  0  0
  2 22  1  0  0  0  0
  5 32  1  0  0  0  0
  5 33  1  0  0  0  0
  6  7  1  0  0  0  0
  6 32  1  0  0  0  0
  7  8  1  0  0  0  0
  7  9  1  0  0  0  0
  7 11  1  0  0  0  0
 10 33  1  0  0  0  0
 11 12  1  0  0  0  0
 11 13  2  0  0  0  0
 13 14  1  0  0  0  0
 13 36  1  0  0  0  0
 14 15  1  0  0  0  0
 14 16  1  0  0  0  0
 14 17  1  0  0  0  0
 17 18  1  0  0  0  0
 17 19  1  0  0  0  0
 17 20  1  0  0  0  0
 20 21  1  0  0  0  0
 22 23  1  0  0  0  0
 22 24  1  0  0  0  0
 22 25  1  0  0  0  0
 25 26  1  0  0  0  0
 25 27  2  0  0  0  0
 27 28  1  0  0  0  0
 27 44  1  0  0  0  0
 28 29  1  0  0  0  0
 28 30  1  0  0  0  0
 28 31  1  0  0  0  0
 32 34  1  0  0  0  0
 32 48  2  0  0  0  0
 33 35  1  0  0  0  0
 33 49  2  0  0  0  0
 36 37  1  0  0  0  0
 36 38  1  0  0  0  0
 36 39  1  0  0  0  0
 40 41  1  0  0  0  0
 40 42  1  0  0  0  0
 40 43  1  0  0  0  0
 44 45  1  0  0  0  0
 44 46  1  0  0  0  0
 44 47  1  0  0  0  0
M  BCL ATM C_TrTrTrPi C_TeTeTeTe H_S H_S O_Tr2TrTrPi2 O_Tr2TrTrPi2 C_TeTeTeTe H_S H_S O_Te2Te2TeTe C_TrTrTrPi H_S C_TrTrTrPi C_TeTeTeTe H_S H_S C_TeTeTeTe H_S H_S C_TrTrTrPi H_S C_TeTeTeTe H_S H_S C_TrTrTrPi H_S C_TrTrTrPi C_TeTeTeTe H_S H_S H_S P_TeTeTeTePi P_TeTeTeTePi O_Te2Te2TeTe O_Te2Te2Te2Te C_TeTeTeTe H_S H_S H_S C_TeTeTeTe H_S H_S H_S C_TeTeTeTe H_S H_S H_S O_Tr2Tr2TrPi O_Tr2Tr2TrPi
M  BCL BND NonConjugatedSingleBond ConjugatedDoubleBond NonConjugatedSingleBond NonConjugatedSingleBond NonConjugatedSingleBond NonConjugatedSingleBond ConjugatedSingleBond ConjugatedSingleBond NonConjugatedSingleBond ConjugatedSingleBond NonConjugatedSingleBond NonConjugatedSingleBond NonConjugatedSingleBond ConjugatedSingleBond NonConjugatedSingleBond ConjugatedDoubleBond NonConjugatedSingleBond NonConjugatedSingleBond NonConjugatedSingleBond NonConjugatedSingleBond NonConjugatedSingleBond NonConjugatedSingleBond NonConjugatedSingleBond NonConjugatedSingleBond NonConjugatedSingleBond NonConjugatedSingleBond NonConjugatedSingleBond NonConjugatedSingleBond NonConjugatedSingleBond ConjugatedDoubleBond NonConjugatedSingleBond NonConjugatedSingleBond NonConjugatedSingleBond NonConjugatedSingleBond NonConjugatedSingleBond ConjugatedSingleBond ConjugatedDoubleBond ConjugatedSingleBond ConjugatedDoubleBond NonConjugatedSingleBond NonConjugatedSingleBond NonConjugatedSingleBond NonConjugatedSingleBond NonConjugatedSingleBond NonConjugatedSingleBond NonConjugatedSingleBond NonConjugatedSingleBond NonConjugatedSingleBond
M  BCL CHI  32   S  33   S
M  BCL DBI Z Z - - -
M  END
> <ConfClashScore>
0 

> <ConfOneFourInteractionScore>
-0.976267 

> <ConfScore>
-0.0345659 

> <ConfScorePBest>
0.0101545 

> <ConfTolerance>
1.17813 

$$$$
L06.****
  PyMOL2.5          3D                             0

 49 48  0  0  0  0  0  0  0  0999 V2000
   -1.8465   -0.2486   -1.7600 C   0  0  0  1  0  0  0  0  0  0  0  0
   -1.4416   -0.4907   -0.3305 C   0  0  0  1  0  0  0  0  0  0  0  0
   -0.5171    0.0160   -0.1479 H   0  0  0  1  0  0  0  0  0  0  0  0
   -1.3065   -1.5426   -0.1883 H   0  0  0  1  0  0  0  0  0  0  0  0
    2.1095   -2.5004  -11.2467 O   0  0  0  1  0  0  0  0  0  0  0  0
    0.4297   -1.9800   -9.4456 O   0  0  0  1  0  0  0  0  0  0  0  0
   -0.6711   -1.3082   -8.8128 C   0  0  0  1  0  0  0  0  0  0  0  0
   -1.5792   -1.8254   -9.0423 H   0  0  0  1  0  0  0  0  0  0  0  0
   -0.7295   -0.3044   -9.1787 H   0  0  0  1  0  0  0  0  0  0  0  0
    2.5510   -2.3909  -13.9197 O   0  0  0  0  0  0  0  0  0  0  0  0
   -0.4788   -1.2823   -7.3258 C   0  0  0  1  0  0  0  0  0  0  0  0
    0.3797   -0.8097   -6.9776 H   0  0  0  1  0  0  0  0  0  0  0  0
   -1.2862   -1.7978   -6.4050 C   0  0  0  1  0  0  0  0  0  0  0  0
   -1.0186   -1.7281   -4.9295 C   0  0  0  1  0  0  0  0  0  0  0  0
   -0.1586   -1.1095   -4.7789 H   0  0  0  1  0  0  0  0  0  0  0  0
   -0.8104   -2.7193   -4.5847 H   0  0  0  1  0  0  0  0  0  0  0  0
   -2.1529   -1.1672   -4.0875 C   0  0  0  1  0  0  0  0  0  0  0  0
   -3.0323   -1.7557   -4.2467 H   0  0  0  1  0  0  0  0  0  0  0  0
   -2.3417   -0.1560   -4.3820 H   0  0  0  1  0  0  0  0  0  0  0  0
   -1.8006   -1.1967   -2.6389 C   0  0  0  1  0  0  0  0  0  0  0  0
   -1.4689   -2.1156   -2.2823 H   0  0  0  1  0  0  0  0  0  0  0  0
   -2.4711    0.0047    0.6720 C   0  0  0  1  0  0  0  0  0  0  0  0
   -2.5238    1.0714    0.6071 H   0  0  0  1  0  0  0  0  0  0  0  0
   -2.1538   -0.2781    1.6540 H   0  0  0  1  0  0  0  0  0  0  0  0
   -3.8463   -0.5584    0.4321 C   0  0  0  1  0  0  0  0  0  0  0  0
   -3.9602   -1.5818    0.5782 H   0  0  0  1  0  0  0  0  0  0  0  0
   -4.9296    0.1097    0.0542 C   0  0  0  1  0  0  0  0  0  0  0  0
   -6.2433   -0.5865   -0.1531 C   0  0  0  1  0  0  0  0  0  0  0  0
   -6.2417   -1.5170    0.3750 H   0  0  0  1  0  0  0  0  0  0  0  0
   -6.3888   -0.7695   -1.1973 H   0  0  0  1  0  0  0  0  0  0  0  0
   -7.0359    0.0309    0.2150 H   0  0  0  1  0  0  0  0  0  0  0  0
    0.5671   -2.1323  -11.0375 P   0  0  0  1  0  0  0  0  0  0  0  0
    3.0116   -3.0620  -12.4959 P   0  0  0  1  0  0  0  0  0  0  0  0
   -0.1419   -3.3318  -11.5525 O   0  0  0  0  0  0  0  0  0  0  0  0
    4.5126   -2.4744  -12.3342 O   0  5  0  1  0  0  0  0  0  0  0  0
   -2.5574   -2.5056   -6.7811 C   0  0  0  1  0  0  0  0  0  0  0  0
   -3.3737   -2.0927   -6.2260 H   0  0  0  1  0  0  0  0  0  0  0  0
   -2.4648   -3.5477   -6.5568 H   0  0  0  1  0  0  0  0  0  0  0  0
   -2.7388   -2.3803   -7.8281 H   0  0  0  1  0  0  0  0  0  0  0  0
   -2.3051    1.1314   -2.1288 C   0  0  0  1  0  0  0  0  0  0  0  0
   -3.0568    1.4542   -1.4391 H   0  0  0  1  0  0  0  0  0  0  0  0
   -2.7111    1.1195   -3.1187 H   0  0  0  1  0  0  0  0  0  0  0  0
   -1.4745    1.8049   -2.0915 H   0  0  0  1  0  0  0  0  0  0  0  0
   -4.9560    1.5908   -0.1990 C   0  0  0  1  0  0  0  0  0  0  0  0
   -4.0635    2.0354    0.1891 H   0  0  0  1  0  0  0  0  0  0  0  0
   -5.8079    2.0201    0.2857 H   0  0  0  1  0  0  0  0  0  0  0  0
   -5.0155    1.7713   -1.2520 H   0  0  0  1  0  0  0  0  0  0  0  0
    0.2514   -0.7820  -11.5572 O   0  0  0  1  0  0  0  0  0  0  0  0
    3.0801   -4.5233  -12.7201 O   0  0  0  1  0  0  0  0  0  0  0  0
  1  2  1  0  0  0  0
  1 20  2  0  0  0  0
  1 40  1  0  0  0  0
  2  3  1  0  0  0  0
  2  4  1  0  0  0  0
  2 22  1  0  0  0  0
  5 32  1  0  0  0  0
  5 33  1  0  0  0  0
  6  7  1  0  0  0  0
  6 32  1  0  0  0  0
  7  8  1  0  0  0  0
  7  9  1  0  0  0  0
  7 11  1  0  0  0  0
 10 33  1  0  0  0  0
 11 12  1  0  0  0  0
 11 13  2  0  0  0  0
 13 14  1  0  0  0  0
 13 36  1  0  0  0  0
 14 15  1  0  0  0  0
 14 16  1  0  0  0  0
 14 17  1  0  0  0  0
 17 18  1  0  0  0  0
 17 19  1  0  0  0  0
 17 20  1  0  0  0  0
 20 21  1  0  0  0  0
 22 23  1  0  0  0  0
 22 24  1  0  0  0  0
 22 25  1  0  0  0  0
 25 26  1  0  0  0  0
 25 27  2  0  0  0  0
 27 28  1  0  0  0  0
 27 44  1  0  0  0  0
 28 29  1  0  0  0  0
 28 30  1  0  0  0  0
 28 31  1  0  0  0  0
 32 34  1  0  0  0  0
 32 48  2  0  0  0  0
 33 35  1  0  0  0  0
 33 49  2  0  0  0  0
 36 37  1  0  0  0  0
 36 38  1  0  0  0  0
 36 39  1  0  0  0  0
 40 41  1  0  0  0  0
 40 42  1  0  0  0  0
 40 43  1  0  0  0  0
 44 45  1  0  0  0  0
 44 46  1  0  0  0  0
 44 47  1  0  0  0  0
M  BCL ATM C_TrTrTrPi C_TeTeTeTe H_S H_S O_Tr2TrTrPi2 O_Tr2TrTrPi2 C_TeTeTeTe H_S H_S O_Te2Te2TeTe C_TrTrTrPi H_S C_TrTrTrPi C_TeTeTeTe H_S H_S C_TeTeTeTe H_S H_S C_TrTrTrPi H_S C_TeTeTeTe H_S H_S C_TrTrTrPi H_S C_TrTrTrPi C_TeTeTeTe H_S H_S H_S P_TeTeTeTePi P_TeTeTeTePi O_Te2Te2TeTe O_Te2Te2Te2Te C_TeTeTeTe H_S H_S H_S C_TeTeTeTe H_S H_S H_S C_TeTeTeTe H_S H_S H_S O_Tr2Tr2TrPi O_Tr2Tr2TrPi
M  BCL BND NonConjugatedSingleBond ConjugatedDoubleBond NonConjugatedSingleBond NonConjugatedSingleBond NonConjugatedSingleBond NonConjugatedSingleBond ConjugatedSingleBond ConjugatedSingleBond NonConjugatedSingleBond ConjugatedSingleBond NonConjugatedSingleBond NonConjugatedSingleBond NonConjugatedSingleBond ConjugatedSingleBond NonConjugatedSingleBond ConjugatedDoubleBond NonConjugatedSingleBond NonConjugatedSingleBond NonConjugatedSingleBond NonConjugatedSingleBond NonConjugatedSingleBond NonConjugatedSingleBond NonConjugatedSingleBond NonConjugatedSingleBond NonConjugatedSingleBond NonConjugatedSingleBond NonConjugatedSingleBond NonConjugatedSingleBond NonConjugatedSingleBond ConjugatedDoubleBond NonConjugatedSingleBond NonConjugatedSingleBond NonConjugatedSingleBond NonConjugatedSingleBond NonConjugatedSingleBond ConjugatedSingleBond ConjugatedDoubleBond ConjugatedSingleBond ConjugatedDoubleBond NonConjugatedSingleBond NonConjugatedSingleBond NonConjugatedSingleBond NonConjugatedSingleBond NonConjugatedSingleBond NonConjugatedSingleBond NonConjugatedSingleBond NonConjugatedSingleBond NonConjugatedSingleBond
M  BCL CHI  32   S  33   S
M  BCL DBI Z Z - - -
M  END
> <ConfClashScore>
0 

> <ConfOneFourInteractionScore>
-0.972961 

> <ConfScore>
-0.0333921 

> <ConfScorePBest>
0.0100515 

> <ConfTolerance>
1.47062 

$$$$
L06.****
  PyMOL2.5          3D                             0

 49 48  0  0  0  0  0  0  0  0999 V2000
   -3.3972   -2.0865   -2.6662 C   0  0  0  1  0  0  0  0  0  0  0  0
   -2.7858   -2.3347   -1.3164 C   0  0  0  1  0  0  0  0  0  0  0  0
   -1.8862   -1.7579   -1.2614 H   0  0  0  1  0  0  0  0  0  0  0  0
   -2.5464   -3.3760   -1.2599 H   0  0  0  1  0  0  0  0  0  0  0  0
   -9.3586   -1.9538  -10.0474 O   0  0  0  1  0  0  0  0  0  0  0  0
   -7.7011   -1.7333   -8.1217 O   0  0  0  1  0  0  0  0  0  0  0  0
   -6.7360   -2.7521   -8.4287 C   0  0  0  1  0  0  0  0  0  0  0  0
   -6.0879   -2.4112   -9.2089 H   0  0  0  1  0  0  0  0  0  0  0  0
   -7.2393   -3.6416   -8.7455 H   0  0  0  1  0  0  0  0  0  0  0  0
   -7.7315   -3.9293  -10.8008 O   0  0  0  0  0  0  0  0  0  0  0  0
   -5.9394   -3.0360   -7.2032 C   0  0  0  1  0  0  0  0  0  0  0  0
   -6.4283   -3.1542   -6.2929 H   0  0  0  1  0  0  0  0  0  0  0  0
   -4.6157   -3.1411   -7.2507 C   0  0  0  1  0  0  0  0  0  0  0  0
   -3.7830   -3.0961   -6.0009 C   0  0  0  1  0  0  0  0  0  0  0  0
   -3.1506   -2.2347   -6.0564 H   0  0  0  1  0  0  0  0  0  0  0  0
   -3.1807   -3.9801   -5.9735 H   0  0  0  1  0  0  0  0  0  0  0  0
   -4.5676   -3.0205   -4.6945 C   0  0  0  1  0  0  0  0  0  0  0  0
   -5.2504   -3.8437   -4.6593 H   0  0  0  1  0  0  0  0  0  0  0  0
   -5.1152   -2.1014   -4.6788 H   0  0  0  1  0  0  0  0  0  0  0  0
   -3.6879   -3.0751   -3.4742 C   0  0  0  1  0  0  0  0  0  0  0  0
   -3.2651   -3.9981   -3.2484 H   0  0  0  1  0  0  0  0  0  0  0  0
   -3.6206   -1.9929   -0.0929 C   0  0  0  1  0  0  0  0  0  0  0  0
   -3.1521   -2.4031    0.7772 H   0  0  0  1  0  0  0  0  0  0  0  0
   -4.5972   -2.4153   -0.2055 H   0  0  0  1  0  0  0  0  0  0  0  0
   -3.7427   -0.5131    0.0683 C   0  0  0  1  0  0  0  0  0  0  0  0
   -2.8772    0.0393    0.2338 H   0  0  0  1  0  0  0  0  0  0  0  0
   -4.9026    0.1324    0.0107 C   0  0  0  1  0  0  0  0  0  0  0  0
   -6.2184   -0.5402   -0.2612 C   0  0  0  1  0  0  0  0  0  0  0  0
   -6.8025    0.0701   -0.9179 H   0  0  0  1  0  0  0  0  0  0  0  0
   -6.7452   -0.6782    0.6599 H   0  0  0  1  0  0  0  0  0  0  0  0
   -6.0445   -1.4914   -0.7192 H   0  0  0  1  0  0  0  0  0  0  0  0
   -8.5447   -0.9277   -9.1825 P   0  0  0  1  0  0  0  0  0  0  0  0
   -8.8887   -2.8858  -11.3123 P   0  0  0  1  0  0  0  0  0  0  0  0
   -9.6092   -0.1019   -8.4643 O   0  0  0  0  0  0  0  0  0  0  0  0
  -10.1786   -3.7720  -11.7307 O   0  5  0  1  0  0  0  0  0  0  0  0
   -3.8328   -3.3113   -8.5222 C   0  0  0  1  0  0  0  0  0  0  0  0
   -4.0563   -4.2643   -8.9544 H   0  0  0  1  0  0  0  0  0  0  0  0
   -2.7863   -3.2542   -8.3067 H   0  0  0  1  0  0  0  0  0  0  0  0
   -4.0985   -2.5365   -9.2107 H   0  0  0  1  0  0  0  0  0  0  0  0
   -3.6363   -0.6411   -2.9912 C   0  0  0  1  0  0  0  0  0  0  0  0
   -2.7050   -0.1687   -3.2246 H   0  0  0  1  0  0  0  0  0  0  0  0
   -4.0809   -0.1550   -2.1480 H   0  0  0  1  0  0  0  0  0  0  0  0
   -4.2933   -0.5688   -3.8325 H   0  0  0  1  0  0  0  0  0  0  0  0
   -4.9866    1.6164    0.2177 C   0  0  0  1  0  0  0  0  0  0  0  0
   -5.6564    1.8270    1.0252 H   0  0  0  1  0  0  0  0  0  0  0  0
   -5.3482    2.0810   -0.6757 H   0  0  0  1  0  0  0  0  0  0  0  0
   -4.0151    1.9992    0.4514 H   0  0  0  1  0  0  0  0  0  0  0  0
   -7.5815   -0.1096   -9.9862 O   0  0  0  1  0  0  0  0  0  0  0  0
   -8.2882   -2.1437  -12.4433 O   0  0  0  1  0  0  0  0  0  0  0  0
  1  2  1  0  0  0  0
  1 20  2  0  0  0  0
  1 40  1  0  0  0  0
  2  3  1  0  0  0  0
  2  4  1  0  0  0  0
  2 22  1  0  0  0  0
  5 32  1  0  0  0  0
  5 33  1  0  0  0  0
  6  7  1  0  0  0  0
  6 32  1  0  0  0  0
  7  8  1  0  0  0  0
  7  9  1  0  0  0  0
  7 11  1  0  0  0  0
 10 33  1  0  0  0  0
 11 12  1  0  0  0  0
 11 13  2  0  0  0  0
 13 14  1  0  0  0  0
 13 36  1  0  0  0  0
 14 15  1  0  0  0  0
 14 16  1  0  0  0  0
 14 17  1  0  0  0  0
 17 18  1  0  0  0  0
 17 19  1  0  0  0  0
 17 20  1  0  0  0  0
 20 21  1  0  0  0  0
 22 23  1  0  0  0  0
 22 24  1  0  0  0  0
 22 25  1  0  0  0  0
 25 26  1  0  0  0  0
 25 27  2  0  0  0  0
 27 28  1  0  0  0  0
 27 44  1  0  0  0  0
 28 29  1  0  0  0  0
 28 30  1  0  0  0  0
 28 31  1  0  0  0  0
 32 34  1  0  0  0  0
 32 48  2  0  0  0  0
 33 35  1  0  0  0  0
 33 49  2  0  0  0  0
 36 37  1  0  0  0  0
 36 38  1  0  0  0  0
 36 39  1  0  0  0  0
 40 41  1  0  0  0  0
 40 42  1  0  0  0  0
 40 43  1  0  0  0  0
 44 45  1  0  0  0  0
 44 46  1  0  0  0  0
 44 47  1  0  0  0  0
M  BCL ATM C_TrTrTrPi C_TeTeTeTe H_S H_S O_Tr2TrTrPi2 O_Tr2TrTrPi2 C_TeTeTeTe H_S H_S O_Te2Te2TeTe C_TrTrTrPi H_S C_TrTrTrPi C_TeTeTeTe H_S H_S C_TeTeTeTe H_S H_S C_TrTrTrPi H_S C_TeTeTeTe H_S H_S C_TrTrTrPi H_S C_TrTrTrPi C_TeTeTeTe H_S H_S H_S P_TeTeTeTePi P_TeTeTeTePi O_Te2Te2TeTe O_Te2Te2Te2Te C_TeTeTeTe H_S H_S H_S C_TeTeTeTe H_S H_S H_S C_TeTeTeTe H_S H_S H_S O_Tr2Tr2TrPi O_Tr2Tr2TrPi
M  BCL BND NonConjugatedSingleBond ConjugatedDoubleBond NonConjugatedSingleBond NonConjugatedSingleBond NonConjugatedSingleBond NonConjugatedSingleBond ConjugatedSingleBond ConjugatedSingleBond NonConjugatedSingleBond ConjugatedSingleBond NonConjugatedSingleBond NonConjugatedSingleBond NonConjugatedSingleBond ConjugatedSingleBond NonConjugatedSingleBond ConjugatedDoubleBond NonConjugatedSingleBond NonConjugatedSingleBond NonConjugatedSingleBond NonConjugatedSingleBond NonConjugatedSingleBond NonConjugatedSingleBond NonConjugatedSingleBond NonConjugatedSingleBond NonConjugatedSingleBond NonConjugatedSingleBond NonConjugatedSingleBond NonConjugatedSingleBond NonConjugatedSingleBond ConjugatedDoubleBond NonConjugatedSingleBond NonConjugatedSingleBond NonConjugatedSingleBond NonConjugatedSingleBond NonConjugatedSingleBond ConjugatedSingleBond ConjugatedDoubleBond ConjugatedSingleBond ConjugatedDoubleBond NonConjugatedSingleBond NonConjugatedSingleBond NonConjugatedSingleBond NonConjugatedSingleBond NonConjugatedSingleBond NonConjugatedSingleBond NonConjugatedSingleBond NonConjugatedSingleBond NonConjugatedSingleBond
M  BCL CHI  32   S  33   S
M  BCL DBI Z Z - - -
M  END
> <ConfClashScore>
0 

> <ConfOneFourInteractionScore>
-0.982867 

> <ConfScore>
-0.0318671 

> <ConfScorePBest>
0.0099485 

> <ConfTolerance>
1.38852 

$$$$
L06.****
  PyMOL2.5          3D                             0

 49 48  0  0  0  0  0  0  0  0999 V2000
   -2.6180   -4.1129   -0.6274 C   0  0  0  1  0  0  0  0  0  0  0  0
   -2.9456   -2.6697   -0.8788 C   0  0  0  1  0  0  0  0  0  0  0  0
   -3.6613   -2.6162   -1.6725 H   0  0  0  1  0  0  0  0  0  0  0  0
   -2.0497   -2.1630   -1.1710 H   0  0  0  1  0  0  0  0  0  0  0  0
   -5.7314   -9.8510    3.2867 O   0  0  0  1  0  0  0  0  0  0  0  0
   -3.7764  -11.1936    3.4969 O   0  0  0  1  0  0  0  0  0  0  0  0
   -2.6951  -10.3388    3.0433 C   0  0  0  1  0  0  0  0  0  0  0  0
   -2.2081  -10.7767    2.1971 H   0  0  0  1  0  0  0  0  0  0  0  0
   -1.9838  -10.1943    3.8295 H   0  0  0  1  0  0  0  0  0  0  0  0
   -5.6759   -7.8061    4.8988 O   0  0  0  0  0  0  0  0  0  0  0  0
   -3.3185   -9.0285    2.6614 C   0  0  0  1  0  0  0  0  0  0  0  0
   -3.7480   -8.4775    3.4318 H   0  0  0  1  0  0  0  0  0  0  0  0
   -3.3814   -8.4959    1.4458 C   0  0  0  1  0  0  0  0  0  0  0  0
   -3.7256   -7.0586    1.1829 C   0  0  0  1  0  0  0  0  0  0  0  0
   -4.1982   -6.6668    2.0593 H   0  0  0  1  0  0  0  0  0  0  0  0
   -4.4124   -7.0282    0.3630 H   0  0  0  1  0  0  0  0  0  0  0  0
   -2.5489   -6.1586    0.8426 C   0  0  0  1  0  0  0  0  0  0  0  0
   -2.0518   -6.5874   -0.0023 H   0  0  0  1  0  0  0  0  0  0  0  0
   -1.8891   -6.1620    1.6849 H   0  0  0  1  0  0  0  0  0  0  0  0
   -2.8455   -4.7223    0.5091 C   0  0  0  1  0  0  0  0  0  0  0  0
   -3.2781   -4.1512    1.2629 H   0  0  0  1  0  0  0  0  0  0  0  0
   -3.5222   -1.9689    0.3405 C   0  0  0  1  0  0  0  0  0  0  0  0
   -2.8440   -2.0954    1.1585 H   0  0  0  1  0  0  0  0  0  0  0  0
   -4.4610   -2.4220    0.5816 H   0  0  0  1  0  0  0  0  0  0  0  0
   -3.7427   -0.4955    0.1245 C   0  0  0  1  0  0  0  0  0  0  0  0
   -2.8899    0.0954    0.0539 H   0  0  0  1  0  0  0  0  0  0  0  0
   -4.9088    0.1318    0.0142 C   0  0  0  1  0  0  0  0  0  0  0  0
   -6.2373   -0.5657    0.0588 C   0  0  0  1  0  0  0  0  0  0  0  0
   -6.9801    0.1046    0.4381 H   0  0  0  1  0  0  0  0  0  0  0  0
   -6.1695   -1.4211    0.6980 H   0  0  0  1  0  0  0  0  0  0  0  0
   -6.5094   -0.8778   -0.9278 H   0  0  0  1  0  0  0  0  0  0  0  0
   -5.1838  -11.2325    2.7121 P   0  0  0  1  0  0  0  0  0  0  0  0
   -6.1576   -9.3703    4.7956 P   0  0  0  1  0  0  0  0  0  0  0  0
   -4.9397  -11.1511    1.2601 O   0  0  0  0  0  0  0  0  0  0  0  0
   -7.7629   -9.1523    4.7879 O   0  5  0  1  0  0  0  0  0  0  0  0
   -3.1061   -9.3122    0.2143 C   0  0  0  1  0  0  0  0  0  0  0  0
   -2.3526   -8.8300   -0.3727 H   0  0  0  1  0  0  0  0  0  0  0  0
   -4.0034   -9.4021   -0.3616 H   0  0  0  1  0  0  0  0  0  0  0  0
   -2.7664  -10.2856    0.5006 H   0  0  0  1  0  0  0  0  0  0  0  0
   -1.9969   -4.8294   -1.7933 C   0  0  0  1  0  0  0  0  0  0  0  0
   -1.0257   -4.4237   -1.9857 H   0  0  0  1  0  0  0  0  0  0  0  0
   -2.6136   -4.7034   -2.6586 H   0  0  0  1  0  0  0  0  0  0  0  0
   -1.9093   -5.8713   -1.5658 H   0  0  0  1  0  0  0  0  0  0  0  0
   -4.9862    1.6215   -0.1677 C   0  0  0  1  0  0  0  0  0  0  0  0
   -3.9999    2.0184   -0.2881 H   0  0  0  1  0  0  0  0  0  0  0  0
   -5.4452    2.0623    0.6925 H   0  0  0  1  0  0  0  0  0  0  0  0
   -5.5687    1.8446   -1.0371 H   0  0  0  1  0  0  0  0  0  0  0  0
   -6.0046  -12.3369    3.2393 O   0  0  0  1  0  0  0  0  0  0  0  0
   -5.5944  -10.2757    5.8220 O   0  0  0  1  0  0  0  0  0  0  0  0
  1  2  1  0  0  0  0
  1 20  2  0  0  0  0
  1 40  1  0  0  0  0
  2  3  1  0  0  0  0
  2  4  1  0  0  0  0
  2 22  1  0  0  0  0
  5 32  1  0  0  0  0
  5 33  1  0  0  0  0
  6  7  1  0  0  0  0
  6 32  1  0  0  0  0
  7  8  1  0  0  0  0
  7  9  1  0  0  0  0
  7 11  1  0  0  0  0
 10 33  1  0  0  0  0
 11 12  1  0  0  0  0
 11 13  2  0  0  0  0
 13 14  1  0  0  0  0
 13 36  1  0  0  0  0
 14 15  1  0  0  0  0
 14 16  1  0  0  0  0
 14 17  1  0  0  0  0
 17 18  1  0  0  0  0
 17 19  1  0  0  0  0
 17 20  1  0  0  0  0
 20 21  1  0  0  0  0
 22 23  1  0  0  0  0
 22 24  1  0  0  0  0
 22 25  1  0  0  0  0
 25 26  1  0  0  0  0
 25 27  2  0  0  0  0
 27 28  1  0  0  0  0
 27 44  1  0  0  0  0
 28 29  1  0  0  0  0
 28 30  1  0  0  0  0
 28 31  1  0  0  0  0
 32 34  1  0  0  0  0
 32 48  2  0  0  0  0
 33 35  1  0  0  0  0
 33 49  2  0  0  0  0
 36 37  1  0  0  0  0
 36 38  1  0  0  0  0
 36 39  1  0  0  0  0
 40 41  1  0  0  0  0
 40 42  1  0  0  0  0
 40 43  1  0  0  0  0
 44 45  1  0  0  0  0
 44 46  1  0  0  0  0
 44 47  1  0  0  0  0
M  BCL ATM C_TrTrTrPi C_TeTeTeTe H_S H_S O_Tr2TrTrPi2 O_Tr2TrTrPi2 C_TeTeTeTe H_S H_S O_Te2Te2TeTe C_TrTrTrPi H_S C_TrTrTrPi C_TeTeTeTe H_S H_S C_TeTeTeTe H_S H_S C_TrTrTrPi H_S C_TeTeTeTe H_S H_S C_TrTrTrPi H_S C_TrTrTrPi C_TeTeTeTe H_S H_S H_S P_TeTeTeTePi P_TeTeTeTePi O_Te2Te2TeTe O_Te2Te2Te2Te C_TeTeTeTe H_S H_S H_S C_TeTeTeTe H_S H_S H_S C_TeTeTeTe H_S H_S H_S O_Tr2Tr2TrPi O_Tr2Tr2TrPi
M  BCL BND NonConjugatedSingleBond ConjugatedDoubleBond NonConjugatedSingleBond NonConjugatedSingleBond NonConjugatedSingleBond NonConjugatedSingleBond ConjugatedSingleBond ConjugatedSingleBond NonConjugatedSingleBond ConjugatedSingleBond NonConjugatedSingleBond NonConjugatedSingleBond NonConjugatedSingleBond ConjugatedSingleBond NonConjugatedSingleBond ConjugatedDoubleBond NonConjugatedSingleBond NonConjugatedSingleBond NonConjugatedSingleBond NonConjugatedSingleBond NonConjugatedSingleBond NonConjugatedSingleBond NonConjugatedSingleBond NonConjugatedSingleBond NonConjugatedSingleBond NonConjugatedSingleBond NonConjugatedSingleBond NonConjugatedSingleBond NonConjugatedSingleBond ConjugatedDoubleBond NonConjugatedSingleBond NonConjugatedSingleBond NonConjugatedSingleBond NonConjugatedSingleBond NonConjugatedSingleBond ConjugatedSingleBond ConjugatedDoubleBond ConjugatedSingleBond ConjugatedDoubleBond NonConjugatedSingleBond NonConjugatedSingleBond NonConjugatedSingleBond NonConjugatedSingleBond NonConjugatedSingleBond NonConjugatedSingleBond NonConjugatedSingleBond NonConjugatedSingleBond NonConjugatedSingleBond
M  BCL CHI  32   S  33   S
M  BCL DBI Z Z - - -
M  END
> <ConfClashScore>
0 

> <ConfOneFourInteractionScore>
-0.976178 

> <ConfScore>
-0.0315892 

> <ConfScorePBest>
0.0098455 

> <ConfTolerance>
1.36847 

$$$$
L06.****
  PyMOL2.5          3D                             0

 49 48  0  0  0  0  0  0  0  0999 V2000
   -2.3381   -4.0768   -0.4654 C   0  0  0  1  0  0  0  0  0  0  0  0
   -2.6636   -2.6910    0.0073 C   0  0  0  1  0  0  0  0  0  0  0  0
   -1.7682   -2.1071   -0.0405 H   0  0  0  1  0  0  0  0  0  0  0  0
   -2.9927   -2.7576    1.0233 H   0  0  0  1  0  0  0  0  0  0  0  0
   -5.0324   -8.3833    4.6798 O   0  0  0  1  0  0  0  0  0  0  0  0
   -3.5011   -7.5043    2.8847 O   0  0  0  1  0  0  0  0  0  0  0  0
   -4.4484   -6.8862    1.9997 C   0  0  0  1  0  0  0  0  0  0  0  0
   -4.6756   -5.9066    2.3655 H   0  0  0  1  0  0  0  0  0  0  0  0
   -5.3407   -7.4764    1.9812 H   0  0  0  1  0  0  0  0  0  0  0  0
   -5.0974   -9.8856    6.8828 O   0  0  0  0  0  0  0  0  0  0  0  0
   -3.9148   -6.7704    0.6031 C   0  0  0  1  0  0  0  0  0  0  0  0
   -3.0715   -6.1750    0.4769 H   0  0  0  1  0  0  0  0  0  0  0  0
   -4.4027   -7.3459   -0.4907 C   0  0  0  1  0  0  0  0  0  0  0  0
   -4.0237   -6.9397   -1.8853 C   0  0  0  1  0  0  0  0  0  0  0  0
   -4.8451   -6.4102   -2.3209 H   0  0  0  1  0  0  0  0  0  0  0  0
   -3.8257   -7.8233   -2.4554 H   0  0  0  1  0  0  0  0  0  0  0  0
   -2.7937   -6.0480   -1.9322 C   0  0  0  1  0  0  0  0  0  0  0  0
   -2.4702   -5.9672   -2.9489 H   0  0  0  1  0  0  0  0  0  0  0  0
   -2.0215   -6.5016   -1.3467 H   0  0  0  1  0  0  0  0  0  0  0  0
   -3.0484   -4.6634   -1.3991 C   0  0  0  1  0  0  0  0  0  0  0  0
   -3.8472   -4.1324   -1.8010 H   0  0  0  1  0  0  0  0  0  0  0  0
   -3.7383   -1.9672   -0.7872 C   0  0  0  1  0  0  0  0  0  0  0  0
   -4.6826   -2.4251   -0.5786 H   0  0  0  1  0  0  0  0  0  0  0  0
   -3.5160   -2.0658   -1.8292 H   0  0  0  1  0  0  0  0  0  0  0  0
   -3.8322   -0.5023   -0.4539 C   0  0  0  1  0  0  0  0  0  0  0  0
   -2.9639    0.0572   -0.5747 H   0  0  0  1  0  0  0  0  0  0  0  0
   -4.8983    0.1500   -0.0243 C   0  0  0  1  0  0  0  0  0  0  0  0
   -6.1979   -0.5733    0.2155 C   0  0  0  1  0  0  0  0  0  0  0  0
   -6.2059   -1.4872   -0.3409 H   0  0  0  1  0  0  0  0  0  0  0  0
   -7.0129    0.0437   -0.1008 H   0  0  0  1  0  0  0  0  0  0  0  0
   -6.2979   -0.7902    1.2585 H   0  0  0  1  0  0  0  0  0  0  0  0
   -3.6751   -7.5249    4.4871 P   0  0  0  1  0  0  0  0  0  0  0  0
   -5.8895   -8.7263    6.0353 P   0  0  0  1  0  0  0  0  0  0  0  0
   -2.5855   -8.2580    5.2032 O   0  0  0  0  0  0  0  0  0  0  0  0
   -5.7369   -7.3328    6.8473 O   0  5  0  1  0  0  0  0  0  0  0  0
   -5.3936   -8.4729   -0.4111 C   0  0  0  1  0  0  0  0  0  0  0  0
   -4.9667   -9.3549   -0.8410 H   0  0  0  1  0  0  0  0  0  0  0  0
   -6.2796   -8.2072   -0.9489 H   0  0  0  1  0  0  0  0  0  0  0  0
   -5.6399   -8.6592    0.6134 H   0  0  0  1  0  0  0  0  0  0  0  0
   -1.1580   -4.7098    0.2110 C   0  0  0  1  0  0  0  0  0  0  0  0
   -1.4559   -5.6360    0.6563 H   0  0  0  1  0  0  0  0  0  0  0  0
   -0.7871   -4.0526    0.9695 H   0  0  0  1  0  0  0  0  0  0  0  0
   -0.3892   -4.8923   -0.5106 H   0  0  0  1  0  0  0  0  0  0  0  0
   -4.9448    1.6396    0.1678 C   0  0  0  1  0  0  0  0  0  0  0  0
   -5.7896    2.0405   -0.3524 H   0  0  0  1  0  0  0  0  0  0  0  0
   -4.0479    2.0769   -0.2185 H   0  0  0  1  0  0  0  0  0  0  0  0
   -5.0302    1.8620    1.2109 H   0  0  0  1  0  0  0  0  0  0  0  0
   -3.9183   -6.1929    5.0071 O   0  0  0  1  0  0  0  0  0  0  0  0
   -7.3127   -8.9895    5.7264 O   0  0  0  1  0  0  0  0  0  0  0  0
  1  2  1  0  0  0  0
  1 20  2  0  0  0  0
  1 40  1  0  0  0  0
  2  3  1  0  0  0  0
  2  4  1  0  0  0  0
  2 22  1  0  0  0  0
  5 32  1  0  0  0  0
  5 33  1  0  0  0  0
  6  7  1  0  0  0  0
  6 32  1  0  0  0  0
  7  8  1  0  0  0  0
  7  9  1  0  0  0  0
  7 11  1  0  0  0  0
 10 33  1  0  0  0  0
 11 12  1  0  0  0  0
 11 13  2  0  0  0  0
 13 14  1  0  0  0  0
 13 36  1  0  0  0  0
 14 15  1  0  0  0  0
 14 16  1  0  0  0  0
 14 17  1  0  0  0  0
 17 18  1  0  0  0  0
 17 19  1  0  0  0  0
 17 20  1  0  0  0  0
 20 21  1  0  0  0  0
 22 23  1  0  0  0  0
 22 24  1  0  0  0  0
 22 25  1  0  0  0  0
 25 26  1  0  0  0  0
 25 27  2  0  0  0  0
 27 28  1  0  0  0  0
 27 44  1  0  0  0  0
 28 29  1  0  0  0  0
 28 30  1  0  0  0  0
 28 31  1  0  0  0  0
 32 34  1  0  0  0  0
 32 48  2  0  0  0  0
 33 35  1  0  0  0  0
 33 49  2  0  0  0  0
 36 37  1  0  0  0  0
 36 38  1  0  0  0  0
 36 39  1  0  0  0  0
 40 41  1  0  0  0  0
 40 42  1  0  0  0  0
 40 43  1  0  0  0  0
 44 45  1  0  0  0  0
 44 46  1  0  0  0  0
 44 47  1  0  0  0  0
M  BCL ATM C_TrTrTrPi C_TeTeTeTe H_S H_S O_Tr2TrTrPi2 O_Tr2TrTrPi2 C_TeTeTeTe H_S H_S O_Te2Te2TeTe C_TrTrTrPi H_S C_TrTrTrPi C_TeTeTeTe H_S H_S C_TeTeTeTe H_S H_S C_TrTrTrPi H_S C_TeTeTeTe H_S H_S C_TrTrTrPi H_S C_TrTrTrPi C_TeTeTeTe H_S H_S H_S P_TeTeTeTePi P_TeTeTeTePi O_Te2Te2TeTe O_Te2Te2Te2Te C_TeTeTeTe H_S H_S H_S C_TeTeTeTe H_S H_S H_S C_TeTeTeTe H_S H_S H_S O_Tr2Tr2TrPi O_Tr2Tr2TrPi
M  BCL BND NonConjugatedSingleBond ConjugatedDoubleBond NonConjugatedSingleBond NonConjugatedSingleBond NonConjugatedSingleBond NonConjugatedSingleBond ConjugatedSingleBond ConjugatedSingleBond NonConjugatedSingleBond ConjugatedSingleBond NonConjugatedSingleBond NonConjugatedSingleBond NonConjugatedSingleBond ConjugatedSingleBond NonConjugatedSingleBond ConjugatedDoubleBond NonConjugatedSingleBond NonConjugatedSingleBond NonConjugatedSingleBond NonConjugatedSingleBond NonConjugatedSingleBond NonConjugatedSingleBond NonConjugatedSingleBond NonConjugatedSingleBond NonConjugatedSingleBond NonConjugatedSingleBond NonConjugatedSingleBond NonConjugatedSingleBond NonConjugatedSingleBond ConjugatedDoubleBond NonConjugatedSingleBond NonConjugatedSingleBond NonConjugatedSingleBond NonConjugatedSingleBond NonConjugatedSingleBond ConjugatedSingleBond ConjugatedDoubleBond ConjugatedSingleBond ConjugatedDoubleBond NonConjugatedSingleBond NonConjugatedSingleBond NonConjugatedSingleBond NonConjugatedSingleBond NonConjugatedSingleBond NonConjugatedSingleBond NonConjugatedSingleBond NonConjugatedSingleBond NonConjugatedSingleBond
M  BCL CHI  32   S  33   S
M  BCL DBI Z Z - - -
M  END
> <ConfClashScore>
0 

> <ConfOneFourInteractionScore>
-0.989137 

> <ConfScore>
-0.0304524 

> <ConfScorePBest>
0.0097425 

> <ConfTolerance>
1.43651 

$$$$
L06.****
  PyMOL2.5          3D                             0

 49 48  0  0  0  0  0  0  0  0999 V2000
   -0.9132    0.7302   -2.7126 C   0  0  0  1  0  0  0  0  0  0  0  0
   -2.2555    0.1270   -2.4160 C   0  0  0  1  0  0  0  0  0  0  0  0
   -2.2859   -0.8580   -2.8328 H   0  0  0  1  0  0  0  0  0  0  0  0
   -3.0096    0.7322   -2.8743 H   0  0  0  1  0  0  0  0  0  0  0  0
    6.6086    4.1993   -5.7599 O   0  0  0  1  0  0  0  0  0  0  0  0
    5.2104    2.6959   -4.5417 O   0  0  0  1  0  0  0  0  0  0  0  0
    4.8092    3.5632   -3.4629 C   0  0  0  1  0  0  0  0  0  0  0  0
    4.5101    4.5063   -3.8702 H   0  0  0  1  0  0  0  0  0  0  0  0
    5.6415    3.7057   -2.8058 H   0  0  0  1  0  0  0  0  0  0  0  0
    7.9348    6.3672   -4.8844 O   0  0  0  0  0  0  0  0  0  0  0  0
    3.6664    2.9889   -2.6801 C   0  0  0  1  0  0  0  0  0  0  0  0
    3.5484    1.9556   -2.6884 H   0  0  0  1  0  0  0  0  0  0  0  0
    2.7931    3.7017   -1.9765 C   0  0  0  1  0  0  0  0  0  0  0  0
    1.4903    3.1439   -1.4408 C   0  0  0  1  0  0  0  0  0  0  0  0
    0.6839    3.7963   -1.7037 H   0  0  0  1  0  0  0  0  0  0  0  0
    1.5465    3.0567   -0.3759 H   0  0  0  1  0  0  0  0  0  0  0  0
    1.2605    1.7728   -2.0553 C   0  0  0  1  0  0  0  0  0  0  0  0
    2.0045    1.1085   -1.6677 H   0  0  0  1  0  0  0  0  0  0  0  0
    1.3786    1.8620   -3.1150 H   0  0  0  1  0  0  0  0  0  0  0  0
   -0.0900    1.1641   -1.7882 C   0  0  0  1  0  0  0  0  0  0  0  0
   -0.3930    1.0815   -0.7967 H   0  0  0  1  0  0  0  0  0  0  0  0
   -2.5498    0.0319   -0.9278 C   0  0  0  1  0  0  0  0  0  0  0  0
   -2.4923    1.0179   -0.5163 H   0  0  0  1  0  0  0  0  0  0  0  0
   -1.7986   -0.5858   -0.4816 H   0  0  0  1  0  0  0  0  0  0  0  0
   -3.8938   -0.5418   -0.5718 C   0  0  0  1  0  0  0  0  0  0  0  0
   -4.0207   -1.5610   -0.7350 H   0  0  0  1  0  0  0  0  0  0  0  0
   -4.9356    0.1118   -0.0718 C   0  0  0  1  0  0  0  0  0  0  0  0
   -6.2099   -0.6007    0.2773 C   0  0  0  1  0  0  0  0  0  0  0  0
   -7.0300   -0.1335   -0.2268 H   0  0  0  1  0  0  0  0  0  0  0  0
   -6.3671   -0.5524    1.3345 H   0  0  0  1  0  0  0  0  0  0  0  0
   -6.1408   -1.6242   -0.0271 H   0  0  0  1  0  0  0  0  0  0  0  0
    5.4636    3.1343   -5.9705 P   0  0  0  1  0  0  0  0  0  0  0  0
    6.5948    5.8366   -5.6669 P   0  0  0  1  0  0  0  0  0  0  0  0
    5.9137    2.0321   -6.8962 O   0  0  0  0  0  0  0  0  0  0  0  0
    6.7615    6.4044   -7.1750 O   0  5  0  1  0  0  0  0  0  0  0  0
    3.0387    5.1484   -1.6523 C   0  0  0  1  0  0  0  0  0  0  0  0
    2.9549    5.2969   -0.5959 H   0  0  0  1  0  0  0  0  0  0  0  0
    2.3149    5.7544   -2.1559 H   0  0  0  1  0  0  0  0  0  0  0  0
    4.0213    5.4240   -1.9740 H   0  0  0  1  0  0  0  0  0  0  0  0
   -0.5664    0.8059   -4.1729 C   0  0  0  1  0  0  0  0  0  0  0  0
   -1.1019    0.0490   -4.7069 H   0  0  0  1  0  0  0  0  0  0  0  0
    0.4854    0.6538   -4.2977 H   0  0  0  1  0  0  0  0  0  0  0  0
   -0.8357    1.7689   -4.5537 H   0  0  0  1  0  0  0  0  0  0  0  0
   -4.9504    1.5915    0.1905 C   0  0  0  1  0  0  0  0  0  0  0  0
   -5.2843    2.1063   -0.6861 H   0  0  0  1  0  0  0  0  0  0  0  0
   -3.9632    1.9188    0.4417 H   0  0  0  1  0  0  0  0  0  0  0  0
   -5.6143    1.8029    1.0026 H   0  0  0  1  0  0  0  0  0  0  0  0
    4.2998    3.9251   -6.4022 O   0  0  0  1  0  0  0  0  0  0  0  0
    5.4566    6.4878   -4.9807 O   0  0  0  1  0  0  0  0  0  0  0  0
  1  2  1  0  0  0  0
  1 20  2  0  0  0  0
  1 40  1  0  0  0  0
  2  3  1  0  0  0  0
  2  4  1  0  0  0  0
  2 22  1  0  0  0  0
  5 32  1  0  0  0  0
  5 33  1  0  0  0  0
  6  7  1  0  0  0  0
  6 32  1  0  0  0  0
  7  8  1  0  0  0  0
  7  9  1  0  0  0  0
  7 11  1  0  0  0  0
 10 33  1  0  0  0  0
 11 12  1  0  0  0  0
 11 13  2  0  0  0  0
 13 14  1  0  0  0  0
 13 36  1  0  0  0  0
 14 15  1  0  0  0  0
 14 16  1  0  0  0  0
 14 17  1  0  0  0  0
 17 18  1  0  0  0  0
 17 19  1  0  0  0  0
 17 20  1  0  0  0  0
 20 21  1  0  0  0  0
 22 23  1  0  0  0  0
 22 24  1  0  0  0  0
 22 25  1  0  0  0  0
 25 26  1  0  0  0  0
 25 27  2  0  0  0  0
 27 28  1  0  0  0  0
 27 44  1  0  0  0  0
 28 29  1  0  0  0  0
 28 30  1  0  0  0  0
 28 31  1  0  0  0  0
 32 34  1  0  0  0  0
 32 48  2  0  0  0  0
 33 35  1  0  0  0  0
 33 49  2  0  0  0  0
 36 37  1  0  0  0  0
 36 38  1  0  0  0  0
 36 39  1  0  0  0  0
 40 41  1  0  0  0  0
 40 42  1  0  0  0  0
 40 43  1  0  0  0  0
 44 45  1  0  0  0  0
 44 46  1  0  0  0  0
 44 47  1  0  0  0  0
M  BCL ATM C_TrTrTrPi C_TeTeTeTe H_S H_S O_Tr2TrTrPi2 O_Tr2TrTrPi2 C_TeTeTeTe H_S H_S O_Te2Te2TeTe C_TrTrTrPi H_S C_TrTrTrPi C_TeTeTeTe H_S H_S C_TeTeTeTe H_S H_S C_TrTrTrPi H_S C_TeTeTeTe H_S H_S C_TrTrTrPi H_S C_TrTrTrPi C_TeTeTeTe H_S H_S H_S P_TeTeTeTePi P_TeTeTeTePi O_Te2Te2TeTe O_Te2Te2Te2Te C_TeTeTeTe H_S H_S H_S C_TeTeTeTe H_S H_S H_S C_TeTeTeTe H_S H_S H_S O_Tr2Tr2TrPi O_Tr2Tr2TrPi
M  BCL BND NonConjugatedSingleBond ConjugatedDoubleBond NonConjugatedSingleBond NonConjugatedSingleBond NonConjugatedSingleBond NonConjugatedSingleBond ConjugatedSingleBond ConjugatedSingleBond NonConjugatedSingleBond ConjugatedSingleBond NonConjugatedSingleBond NonConjugatedSingleBond NonConjugatedSingleBond ConjugatedSingleBond NonConjugatedSingleBond ConjugatedDoubleBond NonConjugatedSingleBond NonConjugatedSingleBond NonConjugatedSingleBond NonConjugatedSingleBond NonConjugatedSingleBond NonConjugatedSingleBond NonConjugatedSingleBond NonConjugatedSingleBond NonConjugatedSingleBond NonConjugatedSingleBond NonConjugatedSingleBond NonConjugatedSingleBond NonConjugatedSingleBond ConjugatedDoubleBond NonConjugatedSingleBond NonConjugatedSingleBond NonConjugatedSingleBond NonConjugatedSingleBond NonConjugatedSingleBond ConjugatedSingleBond ConjugatedDoubleBond ConjugatedSingleBond ConjugatedDoubleBond NonConjugatedSingleBond NonConjugatedSingleBond NonConjugatedSingleBond NonConjugatedSingleBond NonConjugatedSingleBond NonConjugatedSingleBond NonConjugatedSingleBond NonConjugatedSingleBond NonConjugatedSingleBond
M  BCL CHI  32   S  33   S
M  BCL DBI Z Z - - -
M  END
> <ConfClashScore>
0 

> <ConfOneFourInteractionScore>
-0.987748 

> <ConfScore>
-0.0295651 

> <ConfScorePBest>
0.0096395 

> <ConfTolerance>
1.33998 

$$$$
L06.****
  PyMOL2.5          3D                             0

 49 48  0  0  0  0  0  0  0  0999 V2000
   -4.1937   -3.0706    1.9668 C   0  0  0  1  0  0  0  0  0  0  0  0
   -3.1399   -2.7858    0.9255 C   0  0  0  1  0  0  0  0  0  0  0  0
   -2.7860   -3.7279    0.5621 H   0  0  0  1  0  0  0  0  0  0  0  0
   -2.3404   -2.2676    1.4125 H   0  0  0  1  0  0  0  0  0  0  0  0
  -11.1638   -0.5206    7.0795 O   0  0  0  1  0  0  0  0  0  0  0  0
   -9.5037   -2.2129    6.1026 O   0  0  0  1  0  0  0  0  0  0  0  0
   -8.3826   -2.0806    6.9911 C   0  0  0  1  0  0  0  0  0  0  0  0
   -8.4234   -2.8642    7.7185 H   0  0  0  1  0  0  0  0  0  0  0  0
   -8.4416   -1.1325    7.4837 H   0  0  0  1  0  0  0  0  0  0  0  0
  -11.6210    1.6729    8.5538 O   0  0  0  0  0  0  0  0  0  0  0  0
   -7.0760   -2.1662    6.2586 C   0  0  0  1  0  0  0  0  0  0  0  0
   -6.9366   -1.4513    5.5163 H   0  0  0  1  0  0  0  0  0  0  0  0
   -6.0713   -3.0194    6.4178 C   0  0  0  1  0  0  0  0  0  0  0  0
   -4.9601   -3.1132    5.4129 C   0  0  0  1  0  0  0  0  0  0  0  0
   -4.7889   -4.1455    5.1898 H   0  0  0  1  0  0  0  0  0  0  0  0
   -4.0763   -2.6891    5.8418 H   0  0  0  1  0  0  0  0  0  0  0  0
   -5.2670   -2.3823    4.1159 C   0  0  0  1  0  0  0  0  0  0  0  0
   -5.4615   -1.3547    4.3419 H   0  0  0  1  0  0  0  0  0  0  0  0
   -6.1372   -2.8220    3.6750 H   0  0  0  1  0  0  0  0  0  0  0  0
   -4.1397   -2.4490    3.1205 C   0  0  0  1  0  0  0  0  0  0  0  0
   -3.2519   -1.9661    3.3659 H   0  0  0  1  0  0  0  0  0  0  0  0
   -3.5500   -1.9578   -0.2814 C   0  0  0  1  0  0  0  0  0  0  0  0
   -4.4586   -2.3605   -0.6778 H   0  0  0  1  0  0  0  0  0  0  0  0
   -2.7778   -2.0253   -1.0190 H   0  0  0  1  0  0  0  0  0  0  0  0
   -3.7713   -0.5151    0.0455 C   0  0  0  1  0  0  0  0  0  0  0  0
   -2.9325    0.0294    0.3311 H   0  0  0  1  0  0  0  0  0  0  0  0
   -4.9281    0.1489    0.0106 C   0  0  0  1  0  0  0  0  0  0  0  0
   -6.2079   -0.5387   -0.3670 C   0  0  0  1  0  0  0  0  0  0  0  0
   -6.5971   -0.1021   -1.2629 H   0  0  0  1  0  0  0  0  0  0  0  0
   -6.9202   -0.4250    0.4234 H   0  0  0  1  0  0  0  0  0  0  0  0
   -6.0188   -1.5790   -0.5304 H   0  0  0  1  0  0  0  0  0  0  0  0
  -11.0569   -2.0375    6.5235 P   0  0  0  1  0  0  0  0  0  0  0  0
  -12.3143    0.5138    7.6235 P   0  0  0  1  0  0  0  0  0  0  0  0
  -11.9561   -2.0661    5.3286 O   0  0  0  0  0  0  0  0  0  0  0  0
  -12.9236    1.2685    6.3259 O   0  5  0  1  0  0  0  0  0  0  0  0
   -5.9426   -3.9551    7.5867 C   0  0  0  1  0  0  0  0  0  0  0  0
   -6.4273   -3.5292    8.4402 H   0  0  0  1  0  0  0  0  0  0  0  0
   -4.9070   -4.1114    7.8059 H   0  0  0  1  0  0  0  0  0  0  0  0
   -6.4019   -4.8911    7.3462 H   0  0  0  1  0  0  0  0  0  0  0  0
   -5.2361   -4.0743    1.5612 C   0  0  0  1  0  0  0  0  0  0  0  0
   -4.8085   -5.0552    1.5663 H   0  0  0  1  0  0  0  0  0  0  0  0
   -5.5887   -3.8443    0.5775 H   0  0  0  1  0  0  0  0  0  0  0  0
   -6.0532   -4.0381    2.2511 H   0  0  0  1  0  0  0  0  0  0  0  0
   -4.9964    1.6119    0.3478 C   0  0  0  1  0  0  0  0  0  0  0  0
   -4.7444    1.7531    1.3781 H   0  0  0  1  0  0  0  0  0  0  0  0
   -5.9881    1.9725    0.1707 H   0  0  0  1  0  0  0  0  0  0  0  0
   -4.3052    2.1516   -0.2654 H   0  0  0  1  0  0  0  0  0  0  0  0
  -11.2784   -3.0368    7.5850 O   0  0  0  1  0  0  0  0  0  0  0  0
  -13.4147   -0.2201    8.2875 O   0  0  0  1  0  0  0  0  0  0  0  0
  1  2  1  0  0  0  0
  1 20  2  0  0  0  0
  1 40  1  0  0  0  0
  2  3  1  0  0  0  0
  2  4  1  0  0  0  0
  2 22  1  0  0  0  0
  5 32  1  0  0  0  0
  5 33  1  0  0  0  0
  6  7  1  0  0  0  0
  6 32  1  0  0  0  0
  7  8  1  0  0  0  0
  7  9  1  0  0  0  0
  7 11  1  0  0  0  0
 10 33  1  0  0  0  0
 11 12  1  0  0  0  0
 11 13  2  0  0  0  0
 13 14  1  0  0  0  0
 13 36  1  0  0  0  0
 14 15  1  0  0  0  0
 14 16  1  0  0  0  0
 14 17  1  0  0  0  0
 17 18  1  0  0  0  0
 17 19  1  0  0  0  0
 17 20  1  0  0  0  0
 20 21  1  0  0  0  0
 22 23  1  0  0  0  0
 22 24  1  0  0  0  0
 22 25  1  0  0  0  0
 25 26  1  0  0  0  0
 25 27  2  0  0  0  0
 27 28  1  0  0  0  0
 27 44  1  0  0  0  0
 28 29  1  0  0  0  0
 28 30  1  0  0  0  0
 28 31  1  0  0  0  0
 32 34  1  0  0  0  0
 32 48  2  0  0  0  0
 33 35  1  0  0  0  0
 33 49  2  0  0  0  0
 36 37  1  0  0  0  0
 36 38  1  0  0  0  0
 36 39  1  0  0  0  0
 40 41  1  0  0  0  0
 40 42  1  0  0  0  0
 40 43  1  0  0  0  0
 44 45  1  0  0  0  0
 44 46  1  0  0  0  0
 44 47  1  0  0  0  0
M  BCL ATM C_TrTrTrPi C_TeTeTeTe H_S H_S O_Tr2TrTrPi2 O_Tr2TrTrPi2 C_TeTeTeTe H_S H_S O_Te2Te2TeTe C_TrTrTrPi H_S C_TrTrTrPi C_TeTeTeTe H_S H_S C_TeTeTeTe H_S H_S C_TrTrTrPi H_S C_TeTeTeTe H_S H_S C_TrTrTrPi H_S C_TrTrTrPi C_TeTeTeTe H_S H_S H_S P_TeTeTeTePi P_TeTeTeTePi O_Te2Te2TeTe O_Te2Te2Te2Te C_TeTeTeTe H_S H_S H_S C_TeTeTeTe H_S H_S H_S C_TeTeTeTe H_S H_S H_S O_Tr2Tr2TrPi O_Tr2Tr2TrPi
M  BCL BND NonConjugatedSingleBond ConjugatedDoubleBond NonConjugatedSingleBond NonConjugatedSingleBond NonConjugatedSingleBond NonConjugatedSingleBond ConjugatedSingleBond ConjugatedSingleBond NonConjugatedSingleBond ConjugatedSingleBond NonConjugatedSingleBond NonConjugatedSingleBond NonConjugatedSingleBond ConjugatedSingleBond NonConjugatedSingleBond ConjugatedDoubleBond NonConjugatedSingleBond NonConjugatedSingleBond NonConjugatedSingleBond NonConjugatedSingleBond NonConjugatedSingleBond NonConjugatedSingleBond NonConjugatedSingleBond NonConjugatedSingleBond NonConjugatedSingleBond NonConjugatedSingleBond NonConjugatedSingleBond NonConjugatedSingleBond NonConjugatedSingleBond ConjugatedDoubleBond NonConjugatedSingleBond NonConjugatedSingleBond NonConjugatedSingleBond NonConjugatedSingleBond NonConjugatedSingleBond ConjugatedSingleBond ConjugatedDoubleBond ConjugatedSingleBond ConjugatedDoubleBond NonConjugatedSingleBond NonConjugatedSingleBond NonConjugatedSingleBond NonConjugatedSingleBond NonConjugatedSingleBond NonConjugatedSingleBond NonConjugatedSingleBond NonConjugatedSingleBond NonConjugatedSingleBond
M  BCL CHI  32   S  33   S
M  BCL DBI Z Z - - -
M  END
> <ConfClashScore>
0 

> <ConfOneFourInteractionScore>
-0.979561 

> <ConfScore>
-0.0289815 

> <ConfScorePBest>
0.0095365 

> <ConfTolerance>
1.41817 

$$$$
L06.****
  PyMOL2.5          3D                             0

 49 48  0  0  0  0  0  0  0  0999 V2000
   -1.4466   -0.6344    1.3186 C   0  0  0  1  0  0  0  0  0  0  0  0
   -1.3680   -0.6645   -0.1835 C   0  0  0  1  0  0  0  0  0  0  0  0
   -1.3283   -1.6884   -0.4915 H   0  0  0  1  0  0  0  0  0  0  0  0
   -0.4666   -0.1681   -0.4769 H   0  0  0  1  0  0  0  0  0  0  0  0
   -2.4231   -3.2763   10.5016 O   0  0  0  1  0  0  0  0  0  0  0  0
   -1.4412   -2.5190    8.4314 O   0  0  0  1  0  0  0  0  0  0  0  0
   -2.4131   -1.6161    7.8849 C   0  0  0  1  0  0  0  0  0  0  0  0
   -2.1417   -0.6044    8.1037 H   0  0  0  1  0  0  0  0  0  0  0  0
   -3.3802   -1.8228    8.2934 H   0  0  0  1  0  0  0  0  0  0  0  0
   -2.9329   -5.8380   10.9393 O   0  0  0  0  0  0  0  0  0  0  0  0
   -2.4183   -1.8402    6.4107 C   0  0  0  1  0  0  0  0  0  0  0  0
   -1.5322   -2.1590    5.9693 H   0  0  0  1  0  0  0  0  0  0  0  0
   -3.4706   -1.6630    5.6190 C   0  0  0  1  0  0  0  0  0  0  0  0
   -3.3917   -1.6474    4.1172 C   0  0  0  1  0  0  0  0  0  0  0  0
   -3.8337   -0.7320    3.7829 H   0  0  0  1  0  0  0  0  0  0  0  0
   -3.9678   -2.4743    3.7577 H   0  0  0  1  0  0  0  0  0  0  0  0
   -2.0130   -1.7444    3.4846 C   0  0  0  1  0  0  0  0  0  0  0  0
   -1.5949   -2.6997    3.7241 H   0  0  0  1  0  0  0  0  0  0  0  0
   -1.3957   -0.9717    3.8932 H   0  0  0  1  0  0  0  0  0  0  0  0
   -2.0395   -1.5948    1.9870 C   0  0  0  1  0  0  0  0  0  0  0  0
   -2.5672   -2.3058    1.4416 H   0  0  0  1  0  0  0  0  0  0  0  0
   -2.5265   -0.0009   -0.9100 C   0  0  0  1  0  0  0  0  0  0  0  0
   -2.3788   -0.1375   -1.9609 H   0  0  0  1  0  0  0  0  0  0  0  0
   -2.5059    1.0438   -0.6793 H   0  0  0  1  0  0  0  0  0  0  0  0
   -3.8802   -0.5216   -0.5642 C   0  0  0  1  0  0  0  0  0  0  0  0
   -4.0210   -1.5377   -0.7355 H   0  0  0  1  0  0  0  0  0  0  0  0
   -4.9324    0.1197   -0.0700 C   0  0  0  1  0  0  0  0  0  0  0  0
   -6.2219   -0.5973    0.2141 C   0  0  0  1  0  0  0  0  0  0  0  0
   -6.9292   -0.3800   -0.5588 H   0  0  0  1  0  0  0  0  0  0  0  0
   -6.6113   -0.2708    1.1557 H   0  0  0  1  0  0  0  0  0  0  0  0
   -6.0435   -1.6518    0.2477 H   0  0  0  1  0  0  0  0  0  0  0  0
   -1.1278   -2.6168    9.9669 P   0  0  0  1  0  0  0  0  0  0  0  0
   -2.7718   -4.3768   11.6665 P   0  0  0  1  0  0  0  0  0  0  0  0
   -0.0129   -3.6802   10.1241 O   0  0  0  0  0  0  0  0  0  0  0  0
   -1.4841   -4.3328   12.6485 O   0  5  0  1  0  0  0  0  0  0  0  0
   -4.8505   -1.4602    6.1787 C   0  0  0  1  0  0  0  0  0  0  0  0
   -5.5131   -2.1942    5.7699 H   0  0  0  1  0  0  0  0  0  0  0  0
   -5.1994   -0.4821    5.9209 H   0  0  0  1  0  0  0  0  0  0  0  0
   -4.8214   -1.5599    7.2436 H   0  0  0  1  0  0  0  0  0  0  0  0
   -0.8226    0.5332    2.0245 C   0  0  0  1  0  0  0  0  0  0  0  0
   -1.2225    1.4440    1.6304 H   0  0  0  1  0  0  0  0  0  0  0  0
    0.2368    0.5151    1.8755 H   0  0  0  1  0  0  0  0  0  0  0  0
   -1.0372    0.4731    3.0710 H   0  0  0  1  0  0  0  0  0  0  0  0
   -4.9460    1.5861    0.2484 C   0  0  0  1  0  0  0  0  0  0  0  0
   -5.6869    2.0746   -0.3494 H   0  0  0  1  0  0  0  0  0  0  0  0
   -3.9845    2.0056    0.0375 H   0  0  0  1  0  0  0  0  0  0  0  0
   -5.1764    1.7238    1.2842 H   0  0  0  1  0  0  0  0  0  0  0  0
   -0.8859   -1.3073   10.5988 O   0  0  0  1  0  0  0  0  0  0  0  0
   -3.9661   -3.8976   12.3974 O   0  0  0  1  0  0  0  0  0  0  0  0
  1  2  1  0  0  0  0
  1 20  2  0  0  0  0
  1 40  1  0  0  0  0
  2  3  1  0  0  0  0
  2  4  1  0  0  0  0
  2 22  1  0  0  0  0
  5 32  1  0  0  0  0
  5 33  1  0  0  0  0
  6  7  1  0  0  0  0
  6 32  1  0  0  0  0
  7  8  1  0  0  0  0
  7  9  1  0  0  0  0
  7 11  1  0  0  0  0
 10 33  1  0  0  0  0
 11 12  1  0  0  0  0
 11 13  2  0  0  0  0
 13 14  1  0  0  0  0
 13 36  1  0  0  0  0
 14 15  1  0  0  0  0
 14 16  1  0  0  0  0
 14 17  1  0  0  0  0
 17 18  1  0  0  0  0
 17 19  1  0  0  0  0
 17 20  1  0  0  0  0
 20 21  1  0  0  0  0
 22 23  1  0  0  0  0
 22 24  1  0  0  0  0
 22 25  1  0  0  0  0
 25 26  1  0  0  0  0
 25 27  2  0  0  0  0
 27 28  1  0  0  0  0
 27 44  1  0  0  0  0
 28 29  1  0  0  0  0
 28 30  1  0  0  0  0
 28 31  1  0  0  0  0
 32 34  1  0  0  0  0
 32 48  2  0  0  0  0
 33 35  1  0  0  0  0
 33 49  2  0  0  0  0
 36 37  1  0  0  0  0
 36 38  1  0  0  0  0
 36 39  1  0  0  0  0
 40 41  1  0  0  0  0
 40 42  1  0  0  0  0
 40 43  1  0  0  0  0
 44 45  1  0  0  0  0
 44 46  1  0  0  0  0
 44 47  1  0  0  0  0
M  BCL ATM C_TrTrTrPi C_TeTeTeTe H_S H_S O_Tr2TrTrPi2 O_Tr2TrTrPi2 C_TeTeTeTe H_S H_S O_Te2Te2TeTe C_TrTrTrPi H_S C_TrTrTrPi C_TeTeTeTe H_S H_S C_TeTeTeTe H_S H_S C_TrTrTrPi H_S C_TeTeTeTe H_S H_S C_TrTrTrPi H_S C_TrTrTrPi C_TeTeTeTe H_S H_S H_S P_TeTeTeTePi P_TeTeTeTePi O_Te2Te2TeTe O_Te2Te2Te2Te C_TeTeTeTe H_S H_S H_S C_TeTeTeTe H_S H_S H_S C_TeTeTeTe H_S H_S H_S O_Tr2Tr2TrPi O_Tr2Tr2TrPi
M  BCL BND NonConjugatedSingleBond ConjugatedDoubleBond NonConjugatedSingleBond NonConjugatedSingleBond NonConjugatedSingleBond NonConjugatedSingleBond ConjugatedSingleBond ConjugatedSingleBond NonConjugatedSingleBond ConjugatedSingleBond NonConjugatedSingleBond NonConjugatedSingleBond NonConjugatedSingleBond ConjugatedSingleBond NonConjugatedSingleBond ConjugatedDoubleBond NonConjugatedSingleBond NonConjugatedSingleBond NonConjugatedSingleBond NonConjugatedSingleBond NonConjugatedSingleBond NonConjugatedSingleBond NonConjugatedSingleBond NonConjugatedSingleBond NonConjugatedSingleBond NonConjugatedSingleBond NonConjugatedSingleBond NonConjugatedSingleBond NonConjugatedSingleBond ConjugatedDoubleBond NonConjugatedSingleBond NonConjugatedSingleBond NonConjugatedSingleBond NonConjugatedSingleBond NonConjugatedSingleBond ConjugatedSingleBond ConjugatedDoubleBond ConjugatedSingleBond ConjugatedDoubleBond NonConjugatedSingleBond NonConjugatedSingleBond NonConjugatedSingleBond NonConjugatedSingleBond NonConjugatedSingleBond NonConjugatedSingleBond NonConjugatedSingleBond NonConjugatedSingleBond NonConjugatedSingleBond
M  BCL CHI  32   S  33   S
M  BCL DBI Z Z - - -
M  END
> <ConfClashScore>
0 

> <ConfOneFourInteractionScore>
-0.984442 

> <ConfScore>
-0.0276454 

> <ConfScorePBest>
0.00943349 

> <ConfTolerance>
1.42589 

$$$$
L06.****
  PyMOL2.5          3D                             0

 49 48  0  0  0  0  0  0  0  0999 V2000
   -0.2828    0.8503    0.6798 C   0  0  0  1  0  0  0  0  0  0  0  0
   -1.5523    0.0909    0.9434 C   0  0  0  1  0  0  0  0  0  0  0  0
   -2.0581    0.5487    1.7677 H   0  0  0  1  0  0  0  0  0  0  0  0
   -1.2996   -0.9179    1.1951 H   0  0  0  1  0  0  0  0  0  0  0  0
    0.1708    1.1556    7.7924 O   0  0  0  1  0  0  0  0  0  0  0  0
    1.1270    2.5645    5.8876 O   0  0  0  1  0  0  0  0  0  0  0  0
    1.5391    3.8031    5.2537 C   0  0  0  1  0  0  0  0  0  0  0  0
    2.2557    4.3161    5.8605 H   0  0  0  1  0  0  0  0  0  0  0  0
    0.6947    4.4381    5.0842 H   0  0  0  1  0  0  0  0  0  0  0  0
    1.2112    0.2835    5.5878 O   0  0  0  0  0  0  0  0  0  0  0  0
    2.1539    3.3845    3.9516 C   0  0  0  1  0  0  0  0  0  0  0  0
    2.9214    2.6835    3.9851 H   0  0  0  1  0  0  0  0  0  0  0  0
    1.7913    3.8426    2.7582 C   0  0  0  1  0  0  0  0  0  0  0  0
    2.1813    3.1922    1.4627 C   0  0  0  1  0  0  0  0  0  0  0  0
    2.6541    2.2598    1.6906 H   0  0  0  1  0  0  0  0  0  0  0  0
    2.8791    3.8349    0.9677 H   0  0  0  1  0  0  0  0  0  0  0  0
    1.0364    2.9149    0.5022 C   0  0  0  1  0  0  0  0  0  0  0  0
    1.4332    2.3900   -0.3416 H   0  0  0  1  0  0  0  0  0  0  0  0
    0.6383    3.8554    0.1829 H   0  0  0  1  0  0  0  0  0  0  0  0
   -0.0835    2.1077    1.0601 C   0  0  0  1  0  0  0  0  0  0  0  0
   -0.7216    2.5362    1.7607 H   0  0  0  1  0  0  0  0  0  0  0  0
   -2.4928    0.0706   -0.2505 C   0  0  0  1  0  0  0  0  0  0  0  0
   -2.0043   -0.4514   -1.0466 H   0  0  0  1  0  0  0  0  0  0  0  0
   -2.6738    1.0831   -0.5454 H   0  0  0  1  0  0  0  0  0  0  0  0
   -3.8144   -0.5834   -0.0133 C   0  0  0  1  0  0  0  0  0  0  0  0
   -3.8364   -1.6114    0.1427 H   0  0  0  1  0  0  0  0  0  0  0  0
   -4.9736    0.0893    0.0083 C   0  0  0  1  0  0  0  0  0  0  0  0
   -6.2715   -0.5647    0.2957 C   0  0  0  1  0  0  0  0  0  0  0  0
   -6.5967   -0.2962    1.2791 H   0  0  0  1  0  0  0  0  0  0  0  0
   -6.1564   -1.6268    0.2359 H   0  0  0  1  0  0  0  0  0  0  0  0
   -6.9988   -0.2433   -0.4204 H   0  0  0  1  0  0  0  0  0  0  0  0
    0.2687    2.5803    7.2989 P   0  0  0  1  0  0  0  0  0  0  0  0
    0.1442   -0.1226    6.7652 P   0  0  0  1  0  0  0  0  0  0  0  0
    1.1641    3.4303    8.1865 O   0  0  0  0  0  0  0  0  0  0  0  0
    0.8170   -1.3983    7.5031 O   0  5  0  1  0  0  0  0  0  0  0  0
    0.9435    5.0749    2.6132 C   0  0  0  1  0  0  0  0  0  0  0  0
    0.5021    5.3179    3.5571 H   0  0  0  1  0  0  0  0  0  0  0  0
    0.1715    4.8940    1.8948 H   0  0  0  1  0  0  0  0  0  0  0  0
    1.5533    5.8904    2.2844 H   0  0  0  1  0  0  0  0  0  0  0  0
    0.7715    0.0758   -0.0597 C   0  0  0  1  0  0  0  0  0  0  0  0
    1.0637   -0.7740    0.5210 H   0  0  0  1  0  0  0  0  0  0  0  0
    1.6224    0.7026   -0.2272 H   0  0  0  1  0  0  0  0  0  0  0  0
    0.3792   -0.2525   -0.9995 H   0  0  0  1  0  0  0  0  0  0  0  0
   -4.9577    1.5660   -0.2698 C   0  0  0  1  0  0  0  0  0  0  0  0
   -5.0854    1.7333   -1.3189 H   0  0  0  1  0  0  0  0  0  0  0  0
   -4.0218    1.9780    0.0454 H   0  0  0  1  0  0  0  0  0  0  0  0
   -5.7544    2.0382    0.2660 H   0  0  0  1  0  0  0  0  0  0  0  0
   -1.0554    3.2275    6.9793 O   0  0  0  1  0  0  0  0  0  0  0  0
   -1.1394   -0.6280    6.2291 O   0  0  0  1  0  0  0  0  0  0  0  0
  1  2  1  0  0  0  0
  1 20  2  0  0  0  0
  1 40  1  0  0  0  0
  2  3  1  0  0  0  0
  2  4  1  0  0  0  0
  2 22  1  0  0  0  0
  5 32  1  0  0  0  0
  5 33  1  0  0  0  0
  6  7  1  0  0  0  0
  6 32  1  0  0  0  0
  7  8  1  0  0  0  0
  7  9  1  0  0  0  0
  7 11  1  0  0  0  0
 10 33  1  0  0  0  0
 11 12  1  0  0  0  0
 11 13  2  0  0  0  0
 13 14  1  0  0  0  0
 13 36  1  0  0  0  0
 14 15  1  0  0  0  0
 14 16  1  0  0  0  0
 14 17  1  0  0  0  0
 17 18  1  0  0  0  0
 17 19  1  0  0  0  0
 17 20  1  0  0  0  0
 20 21  1  0  0  0  0
 22 23  1  0  0  0  0
 22 24  1  0  0  0  0
 22 25  1  0  0  0  0
 25 26  1  0  0  0  0
 25 27  2  0  0  0  0
 27 28  1  0  0  0  0
 27 44  1  0  0  0  0
 28 29  1  0  0  0  0
 28 30  1  0  0  0  0
 28 31  1  0  0  0  0
 32 34  1  0  0  0  0
 32 48  2  0  0  0  0
 33 35  1  0  0  0  0
 33 49  2  0  0  0  0
 36 37  1  0  0  0  0
 36 38  1  0  0  0  0
 36 39  1  0  0  0  0
 40 41  1  0  0  0  0
 40 42  1  0  0  0  0
 40 43  1  0  0  0  0
 44 45  1  0  0  0  0
 44 46  1  0  0  0  0
 44 47  1  0  0  0  0
M  BCL ATM C_TrTrTrPi C_TeTeTeTe H_S H_S O_Tr2TrTrPi2 O_Tr2TrTrPi2 C_TeTeTeTe H_S H_S O_Te2Te2TeTe C_TrTrTrPi H_S C_TrTrTrPi C_TeTeTeTe H_S H_S C_TeTeTeTe H_S H_S C_TrTrTrPi H_S C_TeTeTeTe H_S H_S C_TrTrTrPi H_S C_TrTrTrPi C_TeTeTeTe H_S H_S H_S P_TeTeTeTePi P_TeTeTeTePi O_Te2Te2TeTe O_Te2Te2Te2Te C_TeTeTeTe H_S H_S H_S C_TeTeTeTe H_S H_S H_S C_TeTeTeTe H_S H_S H_S O_Tr2Tr2TrPi O_Tr2Tr2TrPi
M  BCL BND NonConjugatedSingleBond ConjugatedDoubleBond NonConjugatedSingleBond NonConjugatedSingleBond NonConjugatedSingleBond NonConjugatedSingleBond ConjugatedSingleBond ConjugatedSingleBond NonConjugatedSingleBond ConjugatedSingleBond NonConjugatedSingleBond NonConjugatedSingleBond NonConjugatedSingleBond ConjugatedSingleBond NonConjugatedSingleBond ConjugatedDoubleBond NonConjugatedSingleBond NonConjugatedSingleBond NonConjugatedSingleBond NonConjugatedSingleBond NonConjugatedSingleBond NonConjugatedSingleBond NonConjugatedSingleBond NonConjugatedSingleBond NonConjugatedSingleBond NonConjugatedSingleBond NonConjugatedSingleBond NonConjugatedSingleBond NonConjugatedSingleBond ConjugatedDoubleBond NonConjugatedSingleBond NonConjugatedSingleBond NonConjugatedSingleBond NonConjugatedSingleBond NonConjugatedSingleBond ConjugatedSingleBond ConjugatedDoubleBond ConjugatedSingleBond ConjugatedDoubleBond NonConjugatedSingleBond NonConjugatedSingleBond NonConjugatedSingleBond NonConjugatedSingleBond NonConjugatedSingleBond NonConjugatedSingleBond NonConjugatedSingleBond NonConjugatedSingleBond NonConjugatedSingleBond
M  BCL CHI  32   S  33   S
M  BCL DBI Z Z - - -
M  END
> <ConfClashScore>
0 

> <ConfOneFourInteractionScore>
-0.976267 

> <ConfScore>
-0.0263308 

> <ConfScorePBest>
0.00933049 

> <ConfTolerance>
1.50329 

$$$$
L06.****
  PyMOL2.5          3D                             0

 49 48  0  0  0  0  0  0  0  0999 V2000
   -0.0705    0.0454    0.8000 C   0  0  0  1  0  0  0  0  0  0  0  0
   -1.3560   -0.5713    0.3302 C   0  0  0  1  0  0  0  0  0  0  0  0
   -1.3677   -1.5999    0.6244 H   0  0  0  1  0  0  0  0  0  0  0  0
   -1.3956   -0.5045   -0.7370 H   0  0  0  1  0  0  0  0  0  0  0  0
   -1.6703   -3.9853    7.3653 O   0  0  0  1  0  0  0  0  0  0  0  0
    0.0447   -3.6923    5.4944 O   0  0  0  1  0  0  0  0  0  0  0  0
    0.7847   -2.5915    6.0458 C   0  0  0  1  0  0  0  0  0  0  0  0
    1.7643   -2.9194    6.3247 H   0  0  0  1  0  0  0  0  0  0  0  0
    0.2767   -2.2111    6.9073 H   0  0  0  1  0  0  0  0  0  0  0  0
   -3.7703   -3.6294    9.0625 O   0  0  0  0  0  0  0  0  0  0  0  0
    0.8891   -1.5160    5.0048 C   0  0  0  1  0  0  0  0  0  0  0  0
    0.0123   -1.0054    4.7763 H   0  0  0  1  0  0  0  0  0  0  0  0
    1.9801   -1.1453    4.3431 C   0  0  0  1  0  0  0  0  0  0  0  0
    2.0866    0.1321    3.5619 C   0  0  0  1  0  0  0  0  0  0  0  0
    2.9987    0.6217    3.8324 H   0  0  0  1  0  0  0  0  0  0  0  0
    1.2565    0.7573    3.8166 H   0  0  0  1  0  0  0  0  0  0  0  0
    2.0832   -0.0878    2.0579 C   0  0  0  1  0  0  0  0  0  0  0  0
    2.8576   -0.7846    1.8138 H   0  0  0  1  0  0  0  0  0  0  0  0
    2.2794    0.8474    1.5765 H   0  0  0  1  0  0  0  0  0  0  0  0
    0.7760   -0.6256    1.5441 C   0  0  0  1  0  0  0  0  0  0  0  0
    0.5245   -1.6024    1.7976 H   0  0  0  1  0  0  0  0  0  0  0  0
   -2.5878    0.1101    0.9036 C   0  0  0  1  0  0  0  0  0  0  0  0
   -2.5919    1.1248    0.5640 H   0  0  0  1  0  0  0  0  0  0  0  0
   -2.5090    0.0909    1.9706 H   0  0  0  1  0  0  0  0  0  0  0  0
   -3.9037   -0.5115    0.5243 C   0  0  0  1  0  0  0  0  0  0  0  0
   -3.9818   -1.5415    0.6451 H   0  0  0  1  0  0  0  0  0  0  0  0
   -4.9328    0.0867    0.0712 C   0  0  0  1  0  0  0  0  0  0  0  0
   -6.2303   -0.6036   -0.2345 C   0  0  0  1  0  0  0  0  0  0  0  0
   -7.0226   -0.1312    0.3076 H   0  0  0  1  0  0  0  0  0  0  0  0
   -6.1639   -1.6316    0.0549 H   0  0  0  1  0  0  0  0  0  0  0  0
   -6.4292   -0.5401   -1.2839 H   0  0  0  1  0  0  0  0  0  0  0  0
   -0.6771   -4.7583    6.5295 P   0  0  0  1  0  0  0  0  0  0  0  0
   -3.1008   -4.5788    7.9048 P   0  0  0  1  0  0  0  0  0  0  0  0
   -1.3646   -5.7037    5.5571 O   0  0  0  0  0  0  0  0  0  0  0  0
   -4.1601   -4.5812    6.6791 O   0  5  0  1  0  0  0  0  0  0  0  0
    3.2178   -1.9975    4.3273 C   0  0  0  1  0  0  0  0  0  0  0  0
    4.0824   -1.3705    4.2623 H   0  0  0  1  0  0  0  0  0  0  0  0
    3.1885   -2.6530    3.4821 H   0  0  0  1  0  0  0  0  0  0  0  0
    3.2638   -2.5759    5.2264 H   0  0  0  1  0  0  0  0  0  0  0  0
    0.1482    1.4626    0.3505 C   0  0  0  1  0  0  0  0  0  0  0  0
    0.2710    1.4853   -0.7122 H   0  0  0  1  0  0  0  0  0  0  0  0
    1.0270    1.8536    0.8192 H   0  0  0  1  0  0  0  0  0  0  0  0
   -0.6976    2.0580    0.6243 H   0  0  0  1  0  0  0  0  0  0  0  0
   -4.9278    1.5650   -0.1990 C   0  0  0  1  0  0  0  0  0  0  0  0
   -5.5018    2.0672    0.5515 H   0  0  0  1  0  0  0  0  0  0  0  0
   -5.3569    1.7529   -1.1610 H   0  0  0  1  0  0  0  0  0  0  0  0
   -3.9213    1.9274   -0.1798 H   0  0  0  1  0  0  0  0  0  0  0  0
    0.4375   -5.4037    7.3141 O   0  0  0  1  0  0  0  0  0  0  0  0
   -3.0716   -5.9968    8.3276 O   0  0  0  1  0  0  0  0  0  0  0  0
  1  2  1  0  0  0  0
  1 20  2  0  0  0  0
  1 40  1  0  0  0  0
  2  3  1  0  0  0  0
  2  4  1  0  0  0  0
  2 22  1  0  0  0  0
  5 32  1  0  0  0  0
  5 33  1  0  0  0  0
  6  7  1  0  0  0  0
  6 32  1  0  0  0  0
  7  8  1  0  0  0  0
  7  9  1  0  0  0  0
  7 11  1  0  0  0  0
 10 33  1  0  0  0  0
 11 12  1  0  0  0  0
 11 13  2  0  0  0  0
 13 14  1  0  0  0  0
 13 36  1  0  0  0  0
 14 15  1  0  0  0  0
 14 16  1  0  0  0  0
 14 17  1  0  0  0  0
 17 18  1  0  0  0  0
 17 19  1  0  0  0  0
 17 20  1  0  0  0  0
 20 21  1  0  0  0  0
 22 23  1  0  0  0  0
 22 24  1  0  0  0  0
 22 25  1  0  0  0  0
 25 26  1  0  0  0  0
 25 27  2  0  0  0  0
 27 28  1  0  0  0  0
 27 44  1  0  0  0  0
 28 29  1  0  0  0  0
 28 30  1  0  0  0  0
 28 31  1  0  0  0  0
 32 34  1  0  0  0  0
 32 48  2  0  0  0  0
 33 35  1  0  0  0  0
 33 49  2  0  0  0  0
 36 37  1  0  0  0  0
 36 38  1  0  0  0  0
 36 39  1  0  0  0  0
 40 41  1  0  0  0  0
 40 42  1  0  0  0  0
 40 43  1  0  0  0  0
 44 45  1  0  0  0  0
 44 46  1  0  0  0  0
 44 47  1  0  0  0  0
M  BCL ATM C_TrTrTrPi C_TeTeTeTe H_S H_S O_Tr2TrTrPi2 O_Tr2TrTrPi2 C_TeTeTeTe H_S H_S O_Te2Te2TeTe C_TrTrTrPi H_S C_TrTrTrPi C_TeTeTeTe H_S H_S C_TeTeTeTe H_S H_S C_TrTrTrPi H_S C_TeTeTeTe H_S H_S C_TrTrTrPi H_S C_TrTrTrPi C_TeTeTeTe H_S H_S H_S P_TeTeTeTePi P_TeTeTeTePi O_Te2Te2TeTe O_Te2Te2Te2Te C_TeTeTeTe H_S H_S H_S C_TeTeTeTe H_S H_S H_S C_TeTeTeTe H_S H_S H_S O_Tr2Tr2TrPi O_Tr2Tr2TrPi
M  BCL BND NonConjugatedSingleBond ConjugatedDoubleBond NonConjugatedSingleBond NonConjugatedSingleBond NonConjugatedSingleBond NonConjugatedSingleBond ConjugatedSingleBond ConjugatedSingleBond NonConjugatedSingleBond ConjugatedSingleBond NonConjugatedSingleBond NonConjugatedSingleBond NonConjugatedSingleBond ConjugatedSingleBond NonConjugatedSingleBond ConjugatedDoubleBond NonConjugatedSingleBond NonConjugatedSingleBond NonConjugatedSingleBond NonConjugatedSingleBond NonConjugatedSingleBond NonConjugatedSingleBond NonConjugatedSingleBond NonConjugatedSingleBond NonConjugatedSingleBond NonConjugatedSingleBond NonConjugatedSingleBond NonConjugatedSingleBond NonConjugatedSingleBond ConjugatedDoubleBond NonConjugatedSingleBond NonConjugatedSingleBond NonConjugatedSingleBond NonConjugatedSingleBond NonConjugatedSingleBond ConjugatedSingleBond ConjugatedDoubleBond ConjugatedSingleBond ConjugatedDoubleBond NonConjugatedSingleBond NonConjugatedSingleBond NonConjugatedSingleBond NonConjugatedSingleBond NonConjugatedSingleBond NonConjugatedSingleBond NonConjugatedSingleBond NonConjugatedSingleBond NonConjugatedSingleBond
M  BCL CHI  32   S  33   S
M  BCL DBI Z Z - - -
M  END
> <ConfClashScore>
0 

> <ConfOneFourInteractionScore>
-0.972961 

> <ConfScore>
-0.0262859 

> <ConfScorePBest>
0.00922749 

> <ConfTolerance>
1.3913 

$$$$
L06.****
  PyMOL2.5          3D                             0

 49 48  0  0  0  0  0  0  0  0999 V2000
   -2.6370   -0.2247    3.2014 C   0  0  0  1  0  0  0  0  0  0  0  0
   -1.8504   -0.5275    1.9606 C   0  0  0  1  0  0  0  0  0  0  0  0
   -1.7520   -1.5891    1.8704 H   0  0  0  1  0  0  0  0  0  0  0  0
   -0.8805   -0.0857    2.0560 H   0  0  0  1  0  0  0  0  0  0  0  0
   -7.8486   -2.8186   11.3911 O   0  0  0  1  0  0  0  0  0  0  0  0
   -5.7014   -2.9229   10.1016 O   0  0  0  1  0  0  0  0  0  0  0  0
   -4.3214   -2.5636    9.8928 C   0  0  0  1  0  0  0  0  0  0  0  0
   -3.6862   -3.2776   10.3741 H   0  0  0  1  0  0  0  0  0  0  0  0
   -4.1369   -1.5908   10.2984 H   0  0  0  1  0  0  0  0  0  0  0  0
  -10.3131   -2.3207   10.5408 O   0  0  0  0  0  0  0  0  0  0  0  0
   -4.0471   -2.5565    8.4185 C   0  0  0  1  0  0  0  0  0  0  0  0
   -4.2235   -3.4463    7.9099 H   0  0  0  1  0  0  0  0  0  0  0  0
   -3.6030   -1.5367    7.6916 C   0  0  0  1  0  0  0  0  0  0  0  0
   -3.0495   -1.6817    6.3023 C   0  0  0  1  0  0  0  0  0  0  0  0
   -3.0291   -2.7215    6.0507 H   0  0  0  1  0  0  0  0  0  0  0  0
   -2.0532   -1.2917    6.2902 H   0  0  0  1  0  0  0  0  0  0  0  0
   -3.8728   -0.9437    5.2509 C   0  0  0  1  0  0  0  0  0  0  0  0
   -3.8705    0.0998    5.4874 H   0  0  0  1  0  0  0  0  0  0  0  0
   -4.8759   -1.3147    5.2817 H   0  0  0  1  0  0  0  0  0  0  0  0
   -3.3395   -1.1196    3.8542 C   0  0  0  1  0  0  0  0  0  0  0  0
   -3.5433   -2.0176    3.3709 H   0  0  0  1  0  0  0  0  0  0  0  0
   -2.5033    0.0071    0.6964 C   0  0  0  1  0  0  0  0  0  0  0  0
   -1.8535   -0.2064   -0.1264 H   0  0  0  1  0  0  0  0  0  0  0  0
   -2.6093    1.0666    0.8023 H   0  0  0  1  0  0  0  0  0  0  0  0
   -3.8574   -0.5651    0.3787 C   0  0  0  1  0  0  0  0  0  0  0  0
   -3.9467   -1.6001    0.4286 H   0  0  0  1  0  0  0  0  0  0  0  0
   -4.9567    0.1111    0.0398 C   0  0  0  1  0  0  0  0  0  0  0  0
   -6.2476   -0.5995   -0.2540 C   0  0  0  1  0  0  0  0  0  0  0  0
   -6.1280   -1.6471   -0.0720 H   0  0  0  1  0  0  0  0  0  0  0  0
   -6.5149   -0.4440   -1.2783 H   0  0  0  1  0  0  0  0  0  0  0  0
   -7.0190   -0.2135    0.3791 H   0  0  0  1  0  0  0  0  0  0  0  0
   -6.2827   -3.1245   11.5804 P   0  0  0  1  0  0  0  0  0  0  0  0
   -8.8363   -2.8674   10.0828 P   0  0  0  1  0  0  0  0  0  0  0  0
   -6.1039   -4.5544   11.9619 O   0  0  0  0  0  0  0  0  0  0  0  0
   -8.4507   -1.7270    8.9987 O   0  5  0  1  0  0  0  0  0  0  0  0
   -3.6219   -0.1290    8.2175 C   0  0  0  1  0  0  0  0  0  0  0  0
   -3.9380   -0.1338    9.2398 H   0  0  0  1  0  0  0  0  0  0  0  0
   -4.3015    0.4592    7.6371 H   0  0  0  1  0  0  0  0  0  0  0  0
   -2.6396    0.2898    8.1502 H   0  0  0  1  0  0  0  0  0  0  0  0
   -2.5658    1.2028    3.6575 C   0  0  0  1  0  0  0  0  0  0  0  0
   -1.5435    1.5172    3.6889 H   0  0  0  1  0  0  0  0  0  0  0  0
   -2.9948    1.2868    4.6341 H   0  0  0  1  0  0  0  0  0  0  0  0
   -3.1084    1.8226    2.9746 H   0  0  0  1  0  0  0  0  0  0  0  0
   -4.9481    1.6083   -0.0615 C   0  0  0  1  0  0  0  0  0  0  0  0
   -5.6859    2.0152    0.5980 H   0  0  0  1  0  0  0  0  0  0  0  0
   -5.1699    1.8988   -1.0672 H   0  0  0  1  0  0  0  0  0  0  0  0
   -3.9822    1.9785    0.2124 H   0  0  0  1  0  0  0  0  0  0  0  0
   -5.7194   -2.0468   12.4199 O   0  0  0  1  0  0  0  0  0  0  0  0
   -9.0354   -4.1895    9.4482 O   0  0  0  1  0  0  0  0  0  0  0  0
  1  2  1  0  0  0  0
  1 20  2  0  0  0  0
  1 40  1  0  0  0  0
  2  3  1  0  0  0  0
  2  4  1  0  0  0  0
  2 22  1  0  0  0  0
  5 32  1  0  0  0  0
  5 33  1  0  0  0  0
  6  7  1  0  0  0  0
  6 32  1  0  0  0  0
  7  8  1  0  0  0  0
  7  9  1  0  0  0  0
  7 11  1  0  0  0  0
 10 33  1  0  0  0  0
 11 12  1  0  0  0  0
 11 13  2  0  0  0  0
 13 14  1  0  0  0  0
 13 36  1  0  0  0  0
 14 15  1  0  0  0  0
 14 16  1  0  0  0  0
 14 17  1  0  0  0  0
 17 18  1  0  0  0  0
 17 19  1  0  0  0  0
 17 20  1  0  0  0  0
 20 21  1  0  0  0  0
 22 23  1  0  0  0  0
 22 24  1  0  0  0  0
 22 25  1  0  0  0  0
 25 26  1  0  0  0  0
 25 27  2  0  0  0  0
 27 28  1  0  0  0  0
 27 44  1  0  0  0  0
 28 29  1  0  0  0  0
 28 30  1  0  0  0  0
 28 31  1  0  0  0  0
 32 34  1  0  0  0  0
 32 48  2  0  0  0  0
 33 35  1  0  0  0  0
 33 49  2  0  0  0  0
 36 37  1  0  0  0  0
 36 38  1  0  0  0  0
 36 39  1  0  0  0  0
 40 41  1  0  0  0  0
 40 42  1  0  0  0  0
 40 43  1  0  0  0  0
 44 45  1  0  0  0  0
 44 46  1  0  0  0  0
 44 47  1  0  0  0  0
M  BCL ATM C_TrTrTrPi C_TeTeTeTe H_S H_S O_Tr2TrTrPi2 O_Tr2TrTrPi2 C_TeTeTeTe H_S H_S O_Te2Te2TeTe C_TrTrTrPi H_S C_TrTrTrPi C_TeTeTeTe H_S H_S C_TeTeTeTe H_S H_S C_TrTrTrPi H_S C_TeTeTeTe H_S H_S C_TrTrTrPi H_S C_TrTrTrPi C_TeTeTeTe H_S H_S H_S P_TeTeTeTePi P_TeTeTeTePi O_Te2Te2TeTe O_Te2Te2Te2Te C_TeTeTeTe H_S H_S H_S C_TeTeTeTe H_S H_S H_S C_TeTeTeTe H_S H_S H_S O_Tr2Tr2TrPi O_Tr2Tr2TrPi
M  BCL BND NonConjugatedSingleBond ConjugatedDoubleBond NonConjugatedSingleBond NonConjugatedSingleBond NonConjugatedSingleBond NonConjugatedSingleBond ConjugatedSingleBond ConjugatedSingleBond NonConjugatedSingleBond ConjugatedSingleBond NonConjugatedSingleBond NonConjugatedSingleBond NonConjugatedSingleBond ConjugatedSingleBond NonConjugatedSingleBond ConjugatedDoubleBond NonConjugatedSingleBond NonConjugatedSingleBond NonConjugatedSingleBond NonConjugatedSingleBond NonConjugatedSingleBond NonConjugatedSingleBond NonConjugatedSingleBond NonConjugatedSingleBond NonConjugatedSingleBond NonConjugatedSingleBond NonConjugatedSingleBond NonConjugatedSingleBond NonConjugatedSingleBond ConjugatedDoubleBond NonConjugatedSingleBond NonConjugatedSingleBond NonConjugatedSingleBond NonConjugatedSingleBond NonConjugatedSingleBond ConjugatedSingleBond ConjugatedDoubleBond ConjugatedSingleBond ConjugatedDoubleBond NonConjugatedSingleBond NonConjugatedSingleBond NonConjugatedSingleBond NonConjugatedSingleBond NonConjugatedSingleBond NonConjugatedSingleBond NonConjugatedSingleBond NonConjugatedSingleBond NonConjugatedSingleBond
M  BCL CHI  32   S  33   S
M  BCL DBI Z Z - - -
M  END
> <ConfClashScore>
0 

> <ConfOneFourInteractionScore>
-0.976267 

> <ConfScore>
-0.0260817 

> <ConfScorePBest>
0.00912449 

> <ConfTolerance>
1.28328 

$$$$
L06.****
  PyMOL2.5          3D                             0

 49 48  0  0  0  0  0  0  0  0999 V2000
   -0.0410   -0.1232    0.6672 C   0  0  0  1  0  0  0  0  0  0  0  0
   -1.4201   -0.5900    0.2577 C   0  0  0  1  0  0  0  0  0  0  0  0
   -1.4950   -1.6338    0.4808 H   0  0  0  1  0  0  0  0  0  0  0  0
   -1.5188   -0.4423   -0.7974 H   0  0  0  1  0  0  0  0  0  0  0  0
   -0.6339    5.3818    5.5220 O   0  0  0  1  0  0  0  0  0  0  0  0
   -0.7950    2.9179    4.8312 O   0  0  0  1  0  0  0  0  0  0  0  0
    0.5243    2.4902    5.2233 C   0  0  0  1  0  0  0  0  0  0  0  0
    0.5405    2.3464    6.2835 H   0  0  0  1  0  0  0  0  0  0  0  0
    1.2283    3.2501    4.9551 H   0  0  0  1  0  0  0  0  0  0  0  0
    0.5331    7.1704    6.8808 O   0  0  0  0  0  0  0  0  0  0  0  0
    0.9177    1.2065    4.5536 C   0  0  0  1  0  0  0  0  0  0  0  0
    0.3933    0.3550    4.8393 H   0  0  0  1  0  0  0  0  0  0  0  0
    1.8716    1.0380    3.6271 C   0  0  0  1  0  0  0  0  0  0  0  0
    2.4121   -0.3169    3.2555 C   0  0  0  1  0  0  0  0  0  0  0  0
    1.9609   -1.0496    3.8914 H   0  0  0  1  0  0  0  0  0  0  0  0
    3.4711   -0.3147    3.4084 H   0  0  0  1  0  0  0  0  0  0  0  0
    2.1327   -0.6932    1.8096 C   0  0  0  1  0  0  0  0  0  0  0  0
    2.5925   -1.6383    1.6087 H   0  0  0  1  0  0  0  0  0  0  0  0
    2.5603    0.0542    1.1744 H   0  0  0  1  0  0  0  0  0  0  0  0
    0.6770   -0.7993    1.5044 C   0  0  0  1  0  0  0  0  0  0  0  0
    0.1628   -1.5240    2.0447 H   0  0  0  1  0  0  0  0  0  0  0  0
   -2.5777    0.1197    0.9409 C   0  0  0  1  0  0  0  0  0  0  0  0
   -2.5914    1.1392    0.6162 H   0  0  0  1  0  0  0  0  0  0  0  0
   -2.4224    0.0839    1.9989 H   0  0  0  1  0  0  0  0  0  0  0  0
   -3.9058   -0.4958    0.6334 C   0  0  0  1  0  0  0  0  0  0  0  0
   -4.0299   -1.4914    0.9071 H   0  0  0  1  0  0  0  0  0  0  0  0
   -4.9385    0.0883    0.0517 C   0  0  0  1  0  0  0  0  0  0  0  0
   -6.2414   -0.6085   -0.2424 C   0  0  0  1  0  0  0  0  0  0  0  0
   -6.7660   -0.7864    0.6730 H   0  0  0  1  0  0  0  0  0  0  0  0
   -6.0449   -1.5417   -0.7277 H   0  0  0  1  0  0  0  0  0  0  0  0
   -6.8388    0.0076   -0.8815 H   0  0  0  1  0  0  0  0  0  0  0  0
   -1.6404    4.1031    5.5339 P   0  0  0  1  0  0  0  0  0  0  0  0
   -0.8999    6.8779    6.1388 P   0  0  0  1  0  0  0  0  0  0  0  0
   -2.8109    4.3243    4.6553 O   0  0  0  0  0  0  0  0  0  0  0  0
   -0.7069    7.8776    4.8787 O   0  5  0  1  0  0  0  0  0  0  0  0
    2.4282    2.2570    2.9262 C   0  0  0  1  0  0  0  0  0  0  0  0
    2.8032    1.9758    1.9643 H   0  0  0  1  0  0  0  0  0  0  0  0
    3.2221    2.6728    3.5107 H   0  0  0  1  0  0  0  0  0  0  0  0
    1.6529    2.9849    2.8075 H   0  0  0  1  0  0  0  0  0  0  0  0
    0.4034    1.1631    0.0279 C   0  0  0  1  0  0  0  0  0  0  0  0
   -0.2118    1.9662    0.3763 H   0  0  0  1  0  0  0  0  0  0  0  0
    0.3151    1.0818   -1.0353 H   0  0  0  1  0  0  0  0  0  0  0  0
    1.4231    1.3566    0.2879 H   0  0  0  1  0  0  0  0  0  0  0  0
   -4.9094    1.5536   -0.2796 C   0  0  0  1  0  0  0  0  0  0  0  0
   -5.6316    2.0694    0.3181 H   0  0  0  1  0  0  0  0  0  0  0  0
   -5.1415    1.6895   -1.3153 H   0  0  0  1  0  0  0  0  0  0  0  0
   -3.9344    1.9454   -0.0777 H   0  0  0  1  0  0  0  0  0  0  0  0
   -1.8471    3.8410    6.9463 O   0  0  0  1  0  0  0  0  0  0  0  0
   -2.1595    7.0365    6.8995 O   0  0  0  1  0  0  0  0  0  0  0  0
  1  2  1  0  0  0  0
  1 20  2  0  0  0  0
  1 40  1  0  0  0  0
  2  3  1  0  0  0  0
  2  4  1  0  0  0  0
  2 22  1  0  0  0  0
  5 32  1  0  0  0  0
  5 33  1  0  0  0  0
  6  7  1  0  0  0  0
  6 32  1  0  0  0  0
  7  8  1  0  0  0  0
  7  9  1  0  0  0  0
  7 11  1  0  0  0  0
 10 33  1  0  0  0  0
 11 12  1  0  0  0  0
 11 13  2  0  0  0  0
 13 14  1  0  0  0  0
 13 36  1  0  0  0  0
 14 15  1  0  0  0  0
 14 16  1  0  0  0  0
 14 17  1  0  0  0  0
 17 18  1  0  0  0  0
 17 19  1  0  0  0  0
 17 20  1  0  0  0  0
 20 21  1  0  0  0  0
 22 23  1  0  0  0  0
 22 24  1  0  0  0  0
 22 25  1  0  0  0  0
 25 26  1  0  0  0  0
 25 27  2  0  0  0  0
 27 28  1  0  0  0  0
 27 44  1  0  0  0  0
 28 29  1  0  0  0  0
 28 30  1  0  0  0  0
 28 31  1  0  0  0  0
 32 34  1  0  0  0  0
 32 48  2  0  0  0  0
 33 35  1  0  0  0  0
 33 49  2  0  0  0  0
 36 37  1  0  0  0  0
 36 38  1  0  0  0  0
 36 39  1  0  0  0  0
 40 41  1  0  0  0  0
 40 42  1  0  0  0  0
 40 43  1  0  0  0  0
 44 45  1  0  0  0  0
 44 46  1  0  0  0  0
 44 47  1  0  0  0  0
M  BCL ATM C_TrTrTrPi C_TeTeTeTe H_S H_S O_Tr2TrTrPi2 O_Tr2TrTrPi2 C_TeTeTeTe H_S H_S O_Te2Te2TeTe C_TrTrTrPi H_S C_TrTrTrPi C_TeTeTeTe H_S H_S C_TeTeTeTe H_S H_S C_TrTrTrPi H_S C_TeTeTeTe H_S H_S C_TrTrTrPi H_S C_TrTrTrPi C_TeTeTeTe H_S H_S H_S P_TeTeTeTePi P_TeTeTeTePi O_Te2Te2TeTe O_Te2Te2Te2Te C_TeTeTeTe H_S H_S H_S C_TeTeTeTe H_S H_S H_S C_TeTeTeTe H_S H_S H_S O_Tr2Tr2TrPi O_Tr2Tr2TrPi
M  BCL BND NonConjugatedSingleBond ConjugatedDoubleBond NonConjugatedSingleBond NonConjugatedSingleBond NonConjugatedSingleBond NonConjugatedSingleBond ConjugatedSingleBond ConjugatedSingleBond NonConjugatedSingleBond ConjugatedSingleBond NonConjugatedSingleBond NonConjugatedSingleBond NonConjugatedSingleBond ConjugatedSingleBond NonConjugatedSingleBond ConjugatedDoubleBond NonConjugatedSingleBond NonConjugatedSingleBond NonConjugatedSingleBond NonConjugatedSingleBond NonConjugatedSingleBond NonConjugatedSingleBond NonConjugatedSingleBond NonConjugatedSingleBond NonConjugatedSingleBond NonConjugatedSingleBond NonConjugatedSingleBond NonConjugatedSingleBond NonConjugatedSingleBond ConjugatedDoubleBond NonConjugatedSingleBond NonConjugatedSingleBond NonConjugatedSingleBond NonConjugatedSingleBond NonConjugatedSingleBond ConjugatedSingleBond ConjugatedDoubleBond ConjugatedSingleBond ConjugatedDoubleBond NonConjugatedSingleBond NonConjugatedSingleBond NonConjugatedSingleBond NonConjugatedSingleBond NonConjugatedSingleBond NonConjugatedSingleBond NonConjugatedSingleBond NonConjugatedSingleBond NonConjugatedSingleBond
M  BCL CHI  32   S  33   S
M  BCL DBI Z Z - - -
M  END
> <ConfClashScore>
0 

> <ConfOneFourInteractionScore>
-0.972961 

> <ConfScore>
-0.0248471 

> <ConfScorePBest>
0.00902149 

> <ConfTolerance>
1.3821 

$$$$
L06.****
  PyMOL2.5          3D                             0

 49 48  0  0  0  0  0  0  0  0999 V2000
   -0.0418    0.1367    0.4069 C   0  0  0  1  0  0  0  0  0  0  0  0
   -1.4894   -0.1587    0.6724 C   0  0  0  1  0  0  0  0  0  0  0  0
   -1.8163    0.5085    1.4424 H   0  0  0  1  0  0  0  0  0  0  0  0
   -1.5511   -1.1674    1.0239 H   0  0  0  1  0  0  0  0  0  0  0  0
   -2.3916   -4.4765   -2.0064 O   0  0  0  1  0  0  0  0  0  0  0  0
   -0.0619   -3.9886   -1.4913 O   0  0  0  1  0  0  0  0  0  0  0  0
    1.3435   -3.8232   -1.7382 C   0  0  0  1  0  0  0  0  0  0  0  0
    1.6760   -4.5618   -2.4374 H   0  0  0  1  0  0  0  0  0  0  0  0
    1.8855   -3.9295   -0.8217 H   0  0  0  1  0  0  0  0  0  0  0  0
   -2.2504   -4.0938    0.5283 O   0  0  0  0  0  0  0  0  0  0  0  0
    1.5717   -2.4525   -2.3042 C   0  0  0  1  0  0  0  0  0  0  0  0
    1.0333   -2.1702   -3.1480 H   0  0  0  1  0  0  0  0  0  0  0  0
    2.4317   -1.5775   -1.7780 C   0  0  0  1  0  0  0  0  0  0  0  0
    2.4216   -0.1294   -2.1888 C   0  0  0  1  0  0  0  0  0  0  0  0
    1.8253   -0.0300   -3.0716 H   0  0  0  1  0  0  0  0  0  0  0  0
    3.4264    0.1715   -2.4007 H   0  0  0  1  0  0  0  0  0  0  0  0
    1.8571    0.7895   -1.1176 C   0  0  0  1  0  0  0  0  0  0  0  0
    1.9091    1.7978   -1.4719 H   0  0  0  1  0  0  0  0  0  0  0  0
    2.4534    0.6900   -0.2348 H   0  0  0  1  0  0  0  0  0  0  0  0
    0.4267    0.4778   -0.7673 C   0  0  0  1  0  0  0  0  0  0  0  0
   -0.2644    0.5402   -1.5419 H   0  0  0  1  0  0  0  0  0  0  0  0
   -2.4594   -0.0219   -0.4899 C   0  0  0  1  0  0  0  0  0  0  0  0
   -2.0286   -0.5109   -1.3385 H   0  0  0  1  0  0  0  0  0  0  0  0
   -2.5776    1.0206   -0.7002 H   0  0  0  1  0  0  0  0  0  0  0  0
   -3.8271   -0.6075   -0.2612 C   0  0  0  1  0  0  0  0  0  0  0  0
   -3.9171   -1.6433   -0.2839 H   0  0  0  1  0  0  0  0  0  0  0  0
   -4.9272    0.0998   -0.0326 C   0  0  0  1  0  0  0  0  0  0  0  0
   -6.2482   -0.5692    0.2143 C   0  0  0  1  0  0  0  0  0  0  0  0
   -6.1166   -1.6311    0.2122 H   0  0  0  1  0  0  0  0  0  0  0  0
   -6.9368   -0.2939   -0.5571 H   0  0  0  1  0  0  0  0  0  0  0  0
   -6.6326   -0.2595    1.1635 H   0  0  0  1  0  0  0  0  0  0  0  0
   -1.2017   -3.6149   -2.5783 P   0  0  0  1  0  0  0  0  0  0  0  0
   -2.3559   -5.2935   -0.5849 P   0  0  0  1  0  0  0  0  0  0  0  0
   -1.6475   -2.2142   -2.4043 O   0  0  0  0  0  0  0  0  0  0  0  0
   -3.7556   -6.0532   -0.2884 O   0  5  0  1  0  0  0  0  0  0  0  0
    3.3789   -2.0058   -0.6746 C   0  0  0  1  0  0  0  0  0  0  0  0
    3.3299   -3.0679   -0.5541 H   0  0  0  1  0  0  0  0  0  0  0  0
    3.0975   -1.5298    0.2414 H   0  0  0  1  0  0  0  0  0  0  0  0
    4.3779   -1.7221   -0.9324 H   0  0  0  1  0  0  0  0  0  0  0  0
    0.8558    0.0121    1.6058 C   0  0  0  1  0  0  0  0  0  0  0  0
    0.5042    0.6571    2.3838 H   0  0  0  1  0  0  0  0  0  0  0  0
    1.8528    0.2908    1.3351 H   0  0  0  1  0  0  0  0  0  0  0  0
    0.8495   -1.0002    1.9521 H   0  0  0  1  0  0  0  0  0  0  0  0
   -4.9667    1.6017    0.0024 C   0  0  0  1  0  0  0  0  0  0  0  0
   -5.8057    1.9502   -0.5629 H   0  0  0  1  0  0  0  0  0  0  0  0
   -4.0648    1.9919   -0.4209 H   0  0  0  1  0  0  0  0  0  0  0  0
   -5.0578    1.9323    1.0160 H   0  0  0  1  0  0  0  0  0  0  0  0
   -0.7372   -4.0544   -3.9118 O   0  0  0  1  0  0  0  0  0  0  0  0
   -1.1582   -6.1591   -0.5029 O   0  0  0  1  0  0  0  0  0  0  0  0
  1  2  1  0  0  0  0
  1 20  2  0  0  0  0
  1 40  1  0  0  0  0
  2  3  1  0  0  0  0
  2  4  1  0  0  0  0
  2 22  1  0  0  0  0
  5 32  1  0  0  0  0
  5 33  1  0  0  0  0
  6  7  1  0  0  0  0
  6 32  1  0  0  0  0
  7  8  1  0  0  0  0
  7  9  1  0  0  0  0
  7 11  1  0  0  0  0
 10 33  1  0  0  0  0
 11 12  1  0  0  0  0
 11 13  2  0  0  0  0
 13 14  1  0  0  0  0
 13 36  1  0  0  0  0
 14 15  1  0  0  0  0
 14 16  1  0  0  0  0
 14 17  1  0  0  0  0
 17 18  1  0  0  0  0
 17 19  1  0  0  0  0
 17 20  1  0  0  0  0
 20 21  1  0  0  0  0
 22 23  1  0  0  0  0
 22 24  1  0  0  0  0
 22 25  1  0  0  0  0
 25 26  1  0  0  0  0
 25 27  2  0  0  0  0
 27 28  1  0  0  0  0
 27 44  1  0  0  0  0
 28 29  1  0  0  0  0
 28 30  1  0  0  0  0
 28 31  1  0  0  0  0
 32 34  1  0  0  0  0
 32 48  2  0  0  0  0
 33 35  1  0  0  0  0
 33 49  2  0  0  0  0
 36 37  1  0  0  0  0
 36 38  1  0  0  0  0
 36 39  1  0  0  0  0
 40 41  1  0  0  0  0
 40 42  1  0  0  0  0
 40 43  1  0  0  0  0
 44 45  1  0  0  0  0
 44 46  1  0  0  0  0
 44 47  1  0  0  0  0
M  BCL ATM C_TrTrTrPi C_TeTeTeTe H_S H_S O_Tr2TrTrPi2 O_Tr2TrTrPi2 C_TeTeTeTe H_S H_S O_Te2Te2TeTe C_TrTrTrPi H_S C_TrTrTrPi C_TeTeTeTe H_S H_S C_TeTeTeTe H_S H_S C_TrTrTrPi H_S C_TeTeTeTe H_S H_S C_TrTrTrPi H_S C_TrTrTrPi C_TeTeTeTe H_S H_S H_S P_TeTeTeTePi P_TeTeTeTePi O_Te2Te2TeTe O_Te2Te2Te2Te C_TeTeTeTe H_S H_S H_S C_TeTeTeTe H_S H_S H_S C_TeTeTeTe H_S H_S H_S O_Tr2Tr2TrPi O_Tr2Tr2TrPi
M  BCL BND NonConjugatedSingleBond ConjugatedDoubleBond NonConjugatedSingleBond NonConjugatedSingleBond NonConjugatedSingleBond NonConjugatedSingleBond ConjugatedSingleBond ConjugatedSingleBond NonConjugatedSingleBond ConjugatedSingleBond NonConjugatedSingleBond NonConjugatedSingleBond NonConjugatedSingleBond ConjugatedSingleBond NonConjugatedSingleBond ConjugatedDoubleBond NonConjugatedSingleBond NonConjugatedSingleBond NonConjugatedSingleBond NonConjugatedSingleBond NonConjugatedSingleBond NonConjugatedSingleBond NonConjugatedSingleBond NonConjugatedSingleBond NonConjugatedSingleBond NonConjugatedSingleBond NonConjugatedSingleBond NonConjugatedSingleBond NonConjugatedSingleBond ConjugatedDoubleBond NonConjugatedSingleBond NonConjugatedSingleBond NonConjugatedSingleBond NonConjugatedSingleBond NonConjugatedSingleBond ConjugatedSingleBond ConjugatedDoubleBond ConjugatedSingleBond ConjugatedDoubleBond NonConjugatedSingleBond NonConjugatedSingleBond NonConjugatedSingleBond NonConjugatedSingleBond NonConjugatedSingleBond NonConjugatedSingleBond NonConjugatedSingleBond NonConjugatedSingleBond NonConjugatedSingleBond
M  BCL CHI  32   S  33   S
M  BCL DBI Z Z - - -
M  END
> <ConfClashScore>
0 

> <ConfOneFourInteractionScore>
-0.979484 

> <ConfScore>
-0.0230225 

> <ConfScorePBest>
0.00891849 

> <ConfTolerance>
1.6097 

$$$$
L06.****
  PyMOL2.5          3D                             0

 49 48  0  0  0  0  0  0  0  0999 V2000
   -2.2353   -3.9479   -1.0617 C   0  0  0  1  0  0  0  0  0  0  0  0
   -2.2944   -2.4550   -0.9291 C   0  0  0  1  0  0  0  0  0  0  0  0
   -1.9402   -2.0179   -1.8393 H   0  0  0  1  0  0  0  0  0  0  0  0
   -1.6593   -2.1595   -0.1202 H   0  0  0  1  0  0  0  0  0  0  0  0
   -1.0496  -12.8979   -0.4712 O   0  0  0  1  0  0  0  0  0  0  0  0
   -1.7502  -10.8062    0.6113 O   0  0  0  1  0  0  0  0  0  0  0  0
   -0.4552  -10.2567    0.9245 C   0  0  0  1  0  0  0  0  0  0  0  0
    0.2354  -10.4650    0.1342 H   0  0  0  1  0  0  0  0  0  0  0  0
   -0.0881  -10.6739    1.8388 H   0  0  0  1  0  0  0  0  0  0  0  0
    1.4212  -12.1066    0.1702 O   0  0  0  0  0  0  0  0  0  0  0  0
   -0.6441   -8.7762    1.0700 C   0  0  0  1  0  0  0  0  0  0  0  0
   -1.4361   -8.4336    1.6504 H   0  0  0  1  0  0  0  0  0  0  0  0
    0.1507   -7.8806    0.4941 C   0  0  0  1  0  0  0  0  0  0  0  0
   -0.1955   -6.4250    0.3564 C   0  0  0  1  0  0  0  0  0  0  0  0
    0.7118   -5.8579    0.3536 H   0  0  0  1  0  0  0  0  0  0  0  0
   -0.7944   -6.1366    1.1950 H   0  0  0  1  0  0  0  0  0  0  0  0
   -0.9675   -6.1126   -0.9220 C   0  0  0  1  0  0  0  0  0  0  0  0
   -1.9369   -6.5621   -0.8652 H   0  0  0  1  0  0  0  0  0  0  0  0
   -0.4362   -6.5139   -1.7596 H   0  0  0  1  0  0  0  0  0  0  0  0
   -1.1216   -4.6355   -1.1010 C   0  0  0  1  0  0  0  0  0  0  0  0
   -0.2496   -4.0962   -1.2755 H   0  0  0  1  0  0  0  0  0  0  0  0
   -3.6971   -1.9364   -0.6572 C   0  0  0  1  0  0  0  0  0  0  0  0
   -4.0867   -2.4656    0.1872 H   0  0  0  1  0  0  0  0  0  0  0  0
   -4.2984   -2.1443   -1.5175 H   0  0  0  1  0  0  0  0  0  0  0  0
   -3.7946   -0.4719   -0.3691 C   0  0  0  1  0  0  0  0  0  0  0  0
   -2.9271    0.0948   -0.4581 H   0  0  0  1  0  0  0  0  0  0  0  0
   -4.8926    0.1508   -0.0126 C   0  0  0  1  0  0  0  0  0  0  0  0
   -6.2080   -0.5743    0.0257 C   0  0  0  1  0  0  0  0  0  0  0  0
   -6.8702   -0.1514   -0.7006 H   0  0  0  1  0  0  0  0  0  0  0  0
   -6.6396   -0.4784    1.0001 H   0  0  0  1  0  0  0  0  0  0  0  0
   -6.0509   -1.6094   -0.1951 H   0  0  0  1  0  0  0  0  0  0  0  0
   -2.0105  -12.3559    0.6944 P   0  0  0  1  0  0  0  0  0  0  0  0
    0.4377  -12.5466   -1.0662 P   0  0  0  1  0  0  0  0  0  0  0  0
   -1.5466  -12.9071    1.9841 O   0  0  0  0  0  0  0  0  0  0  0  0
    1.0007  -14.0048   -1.4917 O   0  5  0  1  0  0  0  0  0  0  0  0
    1.4848   -8.2655   -0.0753 C   0  0  0  1  0  0  0  0  0  0  0  0
    1.4386   -8.2374   -1.1439 H   0  0  0  1  0  0  0  0  0  0  0  0
    1.7367   -9.2550    0.2447 H   0  0  0  1  0  0  0  0  0  0  0  0
    2.2302   -7.5787    0.2675 H   0  0  0  1  0  0  0  0  0  0  0  0
   -3.6029   -4.5593   -1.1441 C   0  0  0  1  0  0  0  0  0  0  0  0
   -4.0567   -4.2951   -2.0764 H   0  0  0  1  0  0  0  0  0  0  0  0
   -4.2053   -4.1947   -0.3384 H   0  0  0  1  0  0  0  0  0  0  0  0
   -3.5219   -5.6240   -1.0761 H   0  0  0  1  0  0  0  0  0  0  0  0
   -4.9582    1.6196    0.2881 C   0  0  0  1  0  0  0  0  0  0  0  0
   -3.9842    2.0497    0.1824 H   0  0  0  1  0  0  0  0  0  0  0  0
   -5.3043    1.7631    1.2904 H   0  0  0  1  0  0  0  0  0  0  0  0
   -5.6330    2.0933   -0.3940 H   0  0  0  1  0  0  0  0  0  0  0  0
   -3.4035  -12.5696    0.3002 O   0  0  0  1  0  0  0  0  0  0  0  0
    0.4032  -11.5093   -2.1214 O   0  0  0  1  0  0  0  0  0  0  0  0
  1  2  1  0  0  0  0
  1 20  2  0  0  0  0
  1 40  1  0  0  0  0
  2  3  1  0  0  0  0
  2  4  1  0  0  0  0
  2 22  1  0  0  0  0
  5 32  1  0  0  0  0
  5 33  1  0  0  0  0
  6  7  1  0  0  0  0
  6 32  1  0  0  0  0
  7  8  1  0  0  0  0
  7  9  1  0  0  0  0
  7 11  1  0  0  0  0
 10 33  1  0  0  0  0
 11 12  1  0  0  0  0
 11 13  2  0  0  0  0
 13 14  1  0  0  0  0
 13 36  1  0  0  0  0
 14 15  1  0  0  0  0
 14 16  1  0  0  0  0
 14 17  1  0  0  0  0
 17 18  1  0  0  0  0
 17 19  1  0  0  0  0
 17 20  1  0  0  0  0
 20 21  1  0  0  0  0
 22 23  1  0  0  0  0
 22 24  1  0  0  0  0
 22 25  1  0  0  0  0
 25 26  1  0  0  0  0
 25 27  2  0  0  0  0
 27 28  1  0  0  0  0
 27 44  1  0  0  0  0
 28 29  1  0  0  0  0
 28 30  1  0  0  0  0
 28 31  1  0  0  0  0
 32 34  1  0  0  0  0
 32 48  2  0  0  0  0
 33 35  1  0  0  0  0
 33 49  2  0  0  0  0
 36 37  1  0  0  0  0
 36 38  1  0  0  0  0
 36 39  1  0  0  0  0
 40 41  1  0  0  0  0
 40 42  1  0  0  0  0
 40 43  1  0  0  0  0
 44 45  1  0  0  0  0
 44 46  1  0  0  0  0
 44 47  1  0  0  0  0
M  BCL ATM C_TrTrTrPi C_TeTeTeTe H_S H_S O_Tr2TrTrPi2 O_Tr2TrTrPi2 C_TeTeTeTe H_S H_S O_Te2Te2TeTe C_TrTrTrPi H_S C_TrTrTrPi C_TeTeTeTe H_S H_S C_TeTeTeTe H_S H_S C_TrTrTrPi H_S C_TeTeTeTe H_S H_S C_TrTrTrPi H_S C_TrTrTrPi C_TeTeTeTe H_S H_S H_S P_TeTeTeTePi P_TeTeTeTePi O_Te2Te2TeTe O_Te2Te2Te2Te C_TeTeTeTe H_S H_S H_S C_TeTeTeTe H_S H_S H_S C_TeTeTeTe H_S H_S H_S O_Tr2Tr2TrPi O_Tr2Tr2TrPi
M  BCL BND NonConjugatedSingleBond ConjugatedDoubleBond NonConjugatedSingleBond NonConjugatedSingleBond NonConjugatedSingleBond NonConjugatedSingleBond ConjugatedSingleBond ConjugatedSingleBond NonConjugatedSingleBond ConjugatedSingleBond NonConjugatedSingleBond NonConjugatedSingleBond NonConjugatedSingleBond ConjugatedSingleBond NonConjugatedSingleBond ConjugatedDoubleBond NonConjugatedSingleBond NonConjugatedSingleBond NonConjugatedSingleBond NonConjugatedSingleBond NonConjugatedSingleBond NonConjugatedSingleBond NonConjugatedSingleBond NonConjugatedSingleBond NonConjugatedSingleBond NonConjugatedSingleBond NonConjugatedSingleBond NonConjugatedSingleBond NonConjugatedSingleBond ConjugatedDoubleBond NonConjugatedSingleBond NonConjugatedSingleBond NonConjugatedSingleBond NonConjugatedSingleBond NonConjugatedSingleBond ConjugatedSingleBond ConjugatedDoubleBond ConjugatedSingleBond ConjugatedDoubleBond NonConjugatedSingleBond NonConjugatedSingleBond NonConjugatedSingleBond NonConjugatedSingleBond NonConjugatedSingleBond NonConjugatedSingleBond NonConjugatedSingleBond NonConjugatedSingleBond NonConjugatedSingleBond
M  BCL CHI  32   S  33   S
M  BCL DBI Z Z - - -
M  END
> <ConfClashScore>
0 

> <ConfOneFourInteractionScore>
-0.967463 

> <ConfScore>
-0.0194643 

> <ConfScorePBest>
0.00881549 

> <ConfTolerance>
1.39653 

$$$$
L06.****
  PyMOL2.5          3D                             0

 49 48  0  0  0  0  0  0  0  0999 V2000
   -0.4270    0.2848    1.6871 C   0  0  0  1  0  0  0  0  0  0  0  0
   -1.6986   -0.4934    1.5002 C   0  0  0  1  0  0  0  0  0  0  0  0
   -2.3280   -0.3470    2.3531 H   0  0  0  1  0  0  0  0  0  0  0  0
   -1.4630   -1.5327    1.4043 H   0  0  0  1  0  0  0  0  0  0  0  0
    3.4865    2.7612   -5.8780 O   0  0  0  1  0  0  0  0  0  0  0  0
    2.6559    2.3581   -3.7179 O   0  0  0  1  0  0  0  0  0  0  0  0
    1.7702    2.2438   -2.5867 C   0  0  0  1  0  0  0  0  0  0  0  0
    0.9043    1.6790   -2.8625 H   0  0  0  1  0  0  0  0  0  0  0  0
    1.4721    3.2189   -2.2623 H   0  0  0  1  0  0  0  0  0  0  0  0
    3.0091    1.4814   -8.0994 O   0  0  0  0  0  0  0  0  0  0  0  0
    2.4931    1.5484   -1.4862 C   0  0  0  1  0  0  0  0  0  0  0  0
    3.3465    2.0480   -1.1642 H   0  0  0  1  0  0  0  0  0  0  0  0
    2.2596    0.4136   -0.8356 C   0  0  0  1  0  0  0  0  0  0  0  0
    2.9267    0.0420    0.4568 C   0  0  0  1  0  0  0  0  0  0  0  0
    3.8339    0.6024    0.5452 H   0  0  0  1  0  0  0  0  0  0  0  0
    3.1534   -1.0035    0.4347 H   0  0  0  1  0  0  0  0  0  0  0  0
    2.0630    0.3241    1.6753 C   0  0  0  1  0  0  0  0  0  0  0  0
    1.9158    1.3813    1.7510 H   0  0  0  1  0  0  0  0  0  0  0  0
    2.5762   -0.0283    2.5455 H   0  0  0  1  0  0  0  0  0  0  0  0
    0.7241   -0.3395    1.6108 C   0  0  0  1  0  0  0  0  0  0  0  0
    0.7043   -1.3731    1.4968 H   0  0  0  1  0  0  0  0  0  0  0  0
   -2.4344   -0.0320    0.2528 C   0  0  0  1  0  0  0  0  0  0  0  0
   -1.8235   -0.2809   -0.5897 H   0  0  0  1  0  0  0  0  0  0  0  0
   -2.5381    1.0311    0.3171 H   0  0  0  1  0  0  0  0  0  0  0  0
   -3.7952   -0.6001    0.0024 C   0  0  0  1  0  0  0  0  0  0  0  0
   -3.8638   -1.6213   -0.1821 H   0  0  0  1  0  0  0  0  0  0  0  0
   -4.9220    0.1020   -0.0019 C   0  0  0  1  0  0  0  0  0  0  0  0
   -6.2525   -0.5572   -0.2316 C   0  0  0  1  0  0  0  0  0  0  0  0
   -6.7363   -0.1025   -1.0707 H   0  0  0  1  0  0  0  0  0  0  0  0
   -6.8635   -0.4397    0.6389 H   0  0  0  1  0  0  0  0  0  0  0  0
   -6.1052   -1.5989   -0.4266 H   0  0  0  1  0  0  0  0  0  0  0  0
    2.0876    3.0291   -5.0896 P   0  0  0  1  0  0  0  0  0  0  0  0
    3.7560    2.8105   -7.4950 P   0  0  0  1  0  0  0  0  0  0  0  0
    1.0110    2.1850   -5.6647 O   0  0  0  0  0  0  0  0  0  0  0  0
    2.9699    4.1173   -8.0416 O   0  5  0  1  0  0  0  0  0  0  0  0
    1.2873   -0.6065   -1.3577 C   0  0  0  1  0  0  0  0  0  0  0  0
    0.8087   -1.0970   -0.5361 H   0  0  0  1  0  0  0  0  0  0  0  0
    1.8113   -1.3289   -1.9480 H   0  0  0  1  0  0  0  0  0  0  0  0
    0.5496   -0.1197   -1.9609 H   0  0  0  1  0  0  0  0  0  0  0  0
   -0.6107    1.7527    1.9522 C   0  0  0  1  0  0  0  0  0  0  0  0
   -1.1443    2.1984    1.1389 H   0  0  0  1  0  0  0  0  0  0  0  0
    0.3470    2.2200    2.0489 H   0  0  0  1  0  0  0  0  0  0  0  0
   -1.1656    1.8846    2.8575 H   0  0  0  1  0  0  0  0  0  0  0  0
   -4.9854    1.5854    0.2159 C   0  0  0  1  0  0  0  0  0  0  0  0
   -5.5627    1.7934    1.0925 H   0  0  0  1  0  0  0  0  0  0  0  0
   -5.4440    2.0508   -0.6315 H   0  0  0  1  0  0  0  0  0  0  0  0
   -3.9949    1.9699    0.3420 H   0  0  0  1  0  0  0  0  0  0  0  0
    1.8598    4.4729   -4.8998 O   0  0  0  1  0  0  0  0  0  0  0  0
    5.2048    2.9228   -7.7756 O   0  0  0  1  0  0  0  0  0  0  0  0
  1  2  1  0  0  0  0
  1 20  2  0  0  0  0
  1 40  1  0  0  0  0
  2  3  1  0  0  0  0
  2  4  1  0  0  0  0
  2 22  1  0  0  0  0
  5 32  1  0  0  0  0
  5 33  1  0  0  0  0
  6  7  1  0  0  0  0
  6 32  1  0  0  0  0
  7  8  1  0  0  0  0
  7  9  1  0  0  0  0
  7 11  1  0  0  0  0
 10 33  1  0  0  0  0
 11 12  1  0  0  0  0
 11 13  2  0  0  0  0
 13 14  1  0  0  0  0
 13 36  1  0  0  0  0
 14 15  1  0  0  0  0
 14 16  1  0  0  0  0
 14 17  1  0  0  0  0
 17 18  1  0  0  0  0
 17 19  1  0  0  0  0
 17 20  1  0  0  0  0
 20 21  1  0  0  0  0
 22 23  1  0  0  0  0
 22 24  1  0  0  0  0
 22 25  1  0  0  0  0
 25 26  1  0  0  0  0
 25 27  2  0  0  0  0
 27 28  1  0  0  0  0
 27 44  1  0  0  0  0
 28 29  1  0  0  0  0
 28 30  1  0  0  0  0
 28 31  1  0  0  0  0
 32 34  1  0  0  0  0
 32 48  2  0  0  0  0
 33 35  1  0  0  0  0
 33 49  2  0  0  0  0
 36 37  1  0  0  0  0
 36 38  1  0  0  0  0
 36 39  1  0  0  0  0
 40 41  1  0  0  0  0
 40 42  1  0  0  0  0
 40 43  1  0  0  0  0
 44 45  1  0  0  0  0
 44 46  1  0  0  0  0
 44 47  1  0  0  0  0
M  BCL ATM C_TrTrTrPi C_TeTeTeTe H_S H_S O_Tr2TrTrPi2 O_Tr2TrTrPi2 C_TeTeTeTe H_S H_S O_Te2Te2TeTe C_TrTrTrPi H_S C_TrTrTrPi C_TeTeTeTe H_S H_S C_TeTeTeTe H_S H_S C_TrTrTrPi H_S C_TeTeTeTe H_S H_S C_TrTrTrPi H_S C_TrTrTrPi C_TeTeTeTe H_S H_S H_S P_TeTeTeTePi P_TeTeTeTePi O_Te2Te2TeTe O_Te2Te2Te2Te C_TeTeTeTe H_S H_S H_S C_TeTeTeTe H_S H_S H_S C_TeTeTeTe H_S H_S H_S O_Tr2Tr2TrPi O_Tr2Tr2TrPi
M  BCL BND NonConjugatedSingleBond ConjugatedDoubleBond NonConjugatedSingleBond NonConjugatedSingleBond NonConjugatedSingleBond NonConjugatedSingleBond ConjugatedSingleBond ConjugatedSingleBond NonConjugatedSingleBond ConjugatedSingleBond NonConjugatedSingleBond NonConjugatedSingleBond NonConjugatedSingleBond ConjugatedSingleBond NonConjugatedSingleBond ConjugatedDoubleBond NonConjugatedSingleBond NonConjugatedSingleBond NonConjugatedSingleBond NonConjugatedSingleBond NonConjugatedSingleBond NonConjugatedSingleBond NonConjugatedSingleBond NonConjugatedSingleBond NonConjugatedSingleBond NonConjugatedSingleBond NonConjugatedSingleBond NonConjugatedSingleBond NonConjugatedSingleBond ConjugatedDoubleBond NonConjugatedSingleBond NonConjugatedSingleBond NonConjugatedSingleBond NonConjugatedSingleBond NonConjugatedSingleBond ConjugatedSingleBond ConjugatedDoubleBond ConjugatedSingleBond ConjugatedDoubleBond NonConjugatedSingleBond NonConjugatedSingleBond NonConjugatedSingleBond NonConjugatedSingleBond NonConjugatedSingleBond NonConjugatedSingleBond NonConjugatedSingleBond NonConjugatedSingleBond NonConjugatedSingleBond
M  BCL CHI  32   S  33   S
M  BCL DBI Z Z - - -
M  END
> <ConfClashScore>
0 

> <ConfOneFourInteractionScore>
-0.976267 

> <ConfScore>
-0.0154638 

> <ConfScorePBest>
0.00871249 

> <ConfTolerance>
1.51799 

$$$$
L06.****
  PyMOL2.5          3D                             0

 49 48  0  0  0  0  0  0  0  0999 V2000
   -0.2146   -0.1477   -1.6393 C   0  0  0  1  0  0  0  0  0  0  0  0
   -1.6898   -0.4476   -1.6465 C   0  0  0  1  0  0  0  0  0  0  0  0
   -1.8251   -1.4865   -1.8638 H   0  0  0  1  0  0  0  0  0  0  0  0
   -2.1531    0.1405   -2.4110 H   0  0  0  1  0  0  0  0  0  0  0  0
    9.0882   -0.9074    0.0302 O   0  0  0  1  0  0  0  0  0  0  0  0
    7.1350    0.1030   -1.1963 O   0  0  0  1  0  0  0  0  0  0  0  0
    6.5135   -1.1669   -1.3744 C   0  0  0  1  0  0  0  0  0  0  0  0
    6.8380   -1.8128   -0.5855 H   0  0  0  1  0  0  0  0  0  0  0  0
    6.8294   -1.5660   -2.3156 H   0  0  0  1  0  0  0  0  0  0  0  0
    6.9901   -0.4637    1.1868 O   0  0  0  0  0  0  0  0  0  0  0  0
    5.0146   -1.1244   -1.3609 C   0  0  0  1  0  0  0  0  0  0  0  0
    4.5216   -0.7974   -2.2163 H   0  0  0  1  0  0  0  0  0  0  0  0
    4.2784   -1.4875   -0.3000 C   0  0  0  1  0  0  0  0  0  0  0  0
    2.7670   -1.4514   -0.2680 C   0  0  0  1  0  0  0  0  0  0  0  0
    2.4583   -0.8345    0.5499 H   0  0  0  1  0  0  0  0  0  0  0  0
    2.4056   -2.4476   -0.1203 H   0  0  0  1  0  0  0  0  0  0  0  0
    2.1574   -0.9003   -1.5467 C   0  0  0  1  0  0  0  0  0  0  0  0
    2.5895   -1.4032   -2.3865 H   0  0  0  1  0  0  0  0  0  0  0  0
    2.3658    0.1472   -1.6116 H   0  0  0  1  0  0  0  0  0  0  0  0
    0.6761   -1.1073   -1.5601 C   0  0  0  1  0  0  0  0  0  0  0  0
    0.3263   -2.0850   -1.5024 H   0  0  0  1  0  0  0  0  0  0  0  0
   -2.3667   -0.1383   -0.3212 C   0  0  0  1  0  0  0  0  0  0  0  0
   -2.3024    0.9149   -0.1435 H   0  0  0  1  0  0  0  0  0  0  0  0
   -1.8511   -0.6637    0.4554 H   0  0  0  1  0  0  0  0  0  0  0  0
   -3.8010   -0.5372   -0.2918 C   0  0  0  1  0  0  0  0  0  0  0  0
   -3.9619   -1.5395   -0.5177 H   0  0  0  1  0  0  0  0  0  0  0  0
   -4.9165    0.1394   -0.0327 C   0  0  0  1  0  0  0  0  0  0  0  0
   -6.2333   -0.5810   -0.0535 C   0  0  0  1  0  0  0  0  0  0  0  0
   -6.8117   -0.2437   -0.8881 H   0  0  0  1  0  0  0  0  0  0  0  0
   -6.7644   -0.3791    0.8531 H   0  0  0  1  0  0  0  0  0  0  0  0
   -6.0624   -1.6337   -0.1405 H   0  0  0  1  0  0  0  0  0  0  0  0
    8.7469    0.1077   -1.1820 P   0  0  0  1  0  0  0  0  0  0  0  0
    8.3776   -1.2956    1.4563 P   0  0  0  1  0  0  0  0  0  0  0  0
    9.3646   -0.4635   -2.4227 O   0  0  0  0  0  0  0  0  0  0  0  0
    8.1075   -2.8921    1.5085 O   0  5  0  1  0  0  0  0  0  0  0  0
    4.8573   -1.9781    0.9971 C   0  0  0  1  0  0  0  0  0  0  0  0
    5.0965   -1.1419    1.6204 H   0  0  0  1  0  0  0  0  0  0  0  0
    5.7454   -2.5417    0.8006 H   0  0  0  1  0  0  0  0  0  0  0  0
    4.1423   -2.6000    1.4940 H   0  0  0  1  0  0  0  0  0  0  0  0
    0.1302    1.3097   -1.7285 C   0  0  0  1  0  0  0  0  0  0  0  0
   -0.3253    1.8349   -0.9152 H   0  0  0  1  0  0  0  0  0  0  0  0
   -0.2307    1.7052   -2.6549 H   0  0  0  1  0  0  0  0  0  0  0  0
    1.1924    1.4283   -1.6791 H   0  0  0  1  0  0  0  0  0  0  0  0
   -4.9963    1.6048    0.2905 C   0  0  0  1  0  0  0  0  0  0  0  0
   -4.0179    1.9747    0.5160 H   0  0  0  1  0  0  0  0  0  0  0  0
   -5.6354    1.7489    1.1365 H   0  0  0  1  0  0  0  0  0  0  0  0
   -5.3924    2.1343   -0.5507 H   0  0  0  1  0  0  0  0  0  0  0  0
    9.2660    1.4136   -0.8228 O   0  0  0  1  0  0  0  0  0  0  0  0
    9.1224   -0.6558    2.5637 O   0  0  0  1  0  0  0  0  0  0  0  0
  1  2  1  0  0  0  0
  1 20  2  0  0  0  0
  1 40  1  0  0  0  0
  2  3  1  0  0  0  0
  2  4  1  0  0  0  0
  2 22  1  0  0  0  0
  5 32  1  0  0  0  0
  5 33  1  0  0  0  0
  6  7  1  0  0  0  0
  6 32  1  0  0  0  0
  7  8  1  0  0  0  0
  7  9  1  0  0  0  0
  7 11  1  0  0  0  0
 10 33  1  0  0  0  0
 11 12  1  0  0  0  0
 11 13  2  0  0  0  0
 13 14  1  0  0  0  0
 13 36  1  0  0  0  0
 14 15  1  0  0  0  0
 14 16  1  0  0  0  0
 14 17  1  0  0  0  0
 17 18  1  0  0  0  0
 17 19  1  0  0  0  0
 17 20  1  0  0  0  0
 20 21  1  0  0  0  0
 22 23  1  0  0  0  0
 22 24  1  0  0  0  0
 22 25  1  0  0  0  0
 25 26  1  0  0  0  0
 25 27  2  0  0  0  0
 27 28  1  0  0  0  0
 27 44  1  0  0  0  0
 28 29  1  0  0  0  0
 28 30  1  0  0  0  0
 28 31  1  0  0  0  0
 32 34  1  0  0  0  0
 32 48  2  0  0  0  0
 33 35  1  0  0  0  0
 33 49  2  0  0  0  0
 36 37  1  0  0  0  0
 36 38  1  0  0  0  0
 36 39  1  0  0  0  0
 40 41  1  0  0  0  0
 40 42  1  0  0  0  0
 40 43  1  0  0  0  0
 44 45  1  0  0  0  0
 44 46  1  0  0  0  0
 44 47  1  0  0  0  0
M  BCL ATM C_TrTrTrPi C_TeTeTeTe H_S H_S O_Tr2TrTrPi2 O_Tr2TrTrPi2 C_TeTeTeTe H_S H_S O_Te2Te2TeTe C_TrTrTrPi H_S C_TrTrTrPi C_TeTeTeTe H_S H_S C_TeTeTeTe H_S H_S C_TrTrTrPi H_S C_TeTeTeTe H_S H_S C_TrTrTrPi H_S C_TrTrTrPi C_TeTeTeTe H_S H_S H_S P_TeTeTeTePi P_TeTeTeTePi O_Te2Te2TeTe O_Te2Te2Te2Te C_TeTeTeTe H_S H_S H_S C_TeTeTeTe H_S H_S H_S C_TeTeTeTe H_S H_S H_S O_Tr2Tr2TrPi O_Tr2Tr2TrPi
M  BCL BND NonConjugatedSingleBond ConjugatedDoubleBond NonConjugatedSingleBond NonConjugatedSingleBond NonConjugatedSingleBond NonConjugatedSingleBond ConjugatedSingleBond ConjugatedSingleBond NonConjugatedSingleBond ConjugatedSingleBond NonConjugatedSingleBond NonConjugatedSingleBond NonConjugatedSingleBond ConjugatedSingleBond NonConjugatedSingleBond ConjugatedDoubleBond NonConjugatedSingleBond NonConjugatedSingleBond NonConjugatedSingleBond NonConjugatedSingleBond NonConjugatedSingleBond NonConjugatedSingleBond NonConjugatedSingleBond NonConjugatedSingleBond NonConjugatedSingleBond NonConjugatedSingleBond NonConjugatedSingleBond NonConjugatedSingleBond NonConjugatedSingleBond ConjugatedDoubleBond NonConjugatedSingleBond NonConjugatedSingleBond NonConjugatedSingleBond NonConjugatedSingleBond NonConjugatedSingleBond ConjugatedSingleBond ConjugatedDoubleBond ConjugatedSingleBond ConjugatedDoubleBond NonConjugatedSingleBond NonConjugatedSingleBond NonConjugatedSingleBond NonConjugatedSingleBond NonConjugatedSingleBond NonConjugatedSingleBond NonConjugatedSingleBond NonConjugatedSingleBond NonConjugatedSingleBond
M  BCL CHI  32   S  33   S
M  BCL DBI Z Z - - -
M  END
> <ConfClashScore>
0 

> <ConfOneFourInteractionScore>
-0.979561 

> <ConfScore>
-0.0141021 

> <ConfScorePBest>
0.00860949 

> <ConfTolerance>
1.42252 

$$$$
L06.****
  PyMOL2.5          3D                             0

 49 48  0  0  0  0  0  0  0  0999 V2000
   -0.1095    0.5200   -0.3758 C   0  0  0  1  0  0  0  0  0  0  0  0
   -1.4241   -0.0535   -0.8188 C   0  0  0  1  0  0  0  0  0  0  0  0
   -1.2877   -1.0818   -1.0810 H   0  0  0  1  0  0  0  0  0  0  0  0
   -1.7739    0.4893   -1.6720 H   0  0  0  1  0  0  0  0  0  0  0  0
    5.2137    0.5894    4.4646 O   0  0  0  1  0  0  0  0  0  0  0  0
    6.0533    2.0649    2.6796 O   0  0  0  1  0  0  0  0  0  0  0  0
    6.1818    0.9994    1.7134 C   0  0  0  1  0  0  0  0  0  0  0  0
    6.4482    0.0984    2.2254 H   0  0  0  1  0  0  0  0  0  0  0  0
    6.9523    1.2553    1.0166 H   0  0  0  1  0  0  0  0  0  0  0  0
    3.8225   -1.1812    5.4890 O   0  0  0  0  0  0  0  0  0  0  0  0
    4.9047    0.7702    0.9615 C   0  0  0  1  0  0  0  0  0  0  0  0
    4.0254    1.0348    1.4498 H   0  0  0  1  0  0  0  0  0  0  0  0
    4.7749    0.2662   -0.2599 C   0  0  0  1  0  0  0  0  0  0  0  0
    3.4415   -0.1870   -0.7796 C   0  0  0  1  0  0  0  0  0  0  0  0
    3.4345   -1.2550   -0.8435 H   0  0  0  1  0  0  0  0  0  0  0  0
    3.2840    0.2301   -1.7524 H   0  0  0  1  0  0  0  0  0  0  0  0
    2.3215    0.2645    0.1435 C   0  0  0  1  0  0  0  0  0  0  0  0
    2.3064    1.3342    0.1628 H   0  0  0  1  0  0  0  0  0  0  0  0
    2.5197   -0.1078    1.1268 H   0  0  0  1  0  0  0  0  0  0  0  0
    0.9660   -0.2260   -0.2903 C   0  0  0  1  0  0  0  0  0  0  0  0
    0.8756   -1.2313   -0.5409 H   0  0  0  1  0  0  0  0  0  0  0  0
   -2.4567    0.0448    0.2922 C   0  0  0  1  0  0  0  0  0  0  0  0
   -2.6193    1.0816    0.5009 H   0  0  0  1  0  0  0  0  0  0  0  0
   -2.0549   -0.4355    1.1598 H   0  0  0  1  0  0  0  0  0  0  0  0
   -3.7827   -0.5789   -0.0080 C   0  0  0  1  0  0  0  0  0  0  0  0
   -3.7976   -1.5951   -0.2286 H   0  0  0  1  0  0  0  0  0  0  0  0
   -4.9442    0.0693   -0.0138 C   0  0  0  1  0  0  0  0  0  0  0  0
   -6.2834   -0.5397   -0.3119 C   0  0  0  1  0  0  0  0  0  0  0  0
   -6.4324   -0.5741   -1.3709 H   0  0  0  1  0  0  0  0  0  0  0  0
   -7.0526    0.0533    0.1372 H   0  0  0  1  0  0  0  0  0  0  0  0
   -6.3199   -1.5325    0.0856 H   0  0  0  1  0  0  0  0  0  0  0  0
    6.2165    1.7848    4.2056 P   0  0  0  1  0  0  0  0  0  0  0  0
    5.3704   -0.6414    5.5370 P   0  0  0  1  0  0  0  0  0  0  0  0
    7.6146    1.2487    4.4685 O   0  0  0  0  0  0  0  0  0  0  0  0
    6.1310   -1.8078    4.7092 O   0  5  0  1  0  0  0  0  0  0  0  0
    5.9152    0.1004   -1.2245 C   0  0  0  1  0  0  0  0  0  0  0  0
    5.8388   -0.8513   -1.7076 H   0  0  0  1  0  0  0  0  0  0  0  0
    6.8424    0.1571   -0.6935 H   0  0  0  1  0  0  0  0  0  0  0  0
    5.8764    0.8772   -1.9593 H   0  0  0  1  0  0  0  0  0  0  0  0
   -0.1413    1.9866   -0.0491 C   0  0  0  1  0  0  0  0  0  0  0  0
    0.8495    2.3249    0.1715 H   0  0  0  1  0  0  0  0  0  0  0  0
   -0.7708    2.1488    0.8007 H   0  0  0  1  0  0  0  0  0  0  0  0
   -0.5252    2.5301   -0.8870 H   0  0  0  1  0  0  0  0  0  0  0  0
   -4.9683    1.5391    0.2989 C   0  0  0  1  0  0  0  0  0  0  0  0
   -5.0515    1.6779    1.3566 H   0  0  0  1  0  0  0  0  0  0  0  0
   -5.8064    1.9932   -0.1872 H   0  0  0  1  0  0  0  0  0  0  0  0
   -4.0641    1.9926   -0.0501 H   0  0  0  1  0  0  0  0  0  0  0  0
    5.8172    3.0057    4.9692 O   0  0  0  1  0  0  0  0  0  0  0  0
    5.9780   -0.2873    6.8393 O   0  0  0  1  0  0  0  0  0  0  0  0
  1  2  1  0  0  0  0
  1 20  2  0  0  0  0
  1 40  1  0  0  0  0
  2  3  1  0  0  0  0
  2  4  1  0  0  0  0
  2 22  1  0  0  0  0
  5 32  1  0  0  0  0
  5 33  1  0  0  0  0
  6  7  1  0  0  0  0
  6 32  1  0  0  0  0
  7  8  1  0  0  0  0
  7  9  1  0  0  0  0
  7 11  1  0  0  0  0
 10 33  1  0  0  0  0
 11 12  1  0  0  0  0
 11 13  2  0  0  0  0
 13 14  1  0  0  0  0
 13 36  1  0  0  0  0
 14 15  1  0  0  0  0
 14 16  1  0  0  0  0
 14 17  1  0  0  0  0
 17 18  1  0  0  0  0
 17 19  1  0  0  0  0
 17 20  1  0  0  0  0
 20 21  1  0  0  0  0
 22 23  1  0  0  0  0
 22 24  1  0  0  0  0
 22 25  1  0  0  0  0
 25 26  1  0  0  0  0
 25 27  2  0  0  0  0
 27 28  1  0  0  0  0
 27 44  1  0  0  0  0
 28 29  1  0  0  0  0
 28 30  1  0  0  0  0
 28 31  1  0  0  0  0
 32 34  1  0  0  0  0
 32 48  2  0  0  0  0
 33 35  1  0  0  0  0
 33 49  2  0  0  0  0
 36 37  1  0  0  0  0
 36 38  1  0  0  0  0
 36 39  1  0  0  0  0
 40 41  1  0  0  0  0
 40 42  1  0  0  0  0
 40 43  1  0  0  0  0
 44 45  1  0  0  0  0
 44 46  1  0  0  0  0
 44 47  1  0  0  0  0
M  BCL ATM C_TrTrTrPi C_TeTeTeTe H_S H_S O_Tr2TrTrPi2 O_Tr2TrTrPi2 C_TeTeTeTe H_S H_S O_Te2Te2TeTe C_TrTrTrPi H_S C_TrTrTrPi C_TeTeTeTe H_S H_S C_TeTeTeTe H_S H_S C_TrTrTrPi H_S C_TeTeTeTe H_S H_S C_TrTrTrPi H_S C_TrTrTrPi C_TeTeTeTe H_S H_S H_S P_TeTeTeTePi P_TeTeTeTePi O_Te2Te2TeTe O_Te2Te2Te2Te C_TeTeTeTe H_S H_S H_S C_TeTeTeTe H_S H_S H_S C_TeTeTeTe H_S H_S H_S O_Tr2Tr2TrPi O_Tr2Tr2TrPi
M  BCL BND NonConjugatedSingleBond ConjugatedDoubleBond NonConjugatedSingleBond NonConjugatedSingleBond NonConjugatedSingleBond NonConjugatedSingleBond ConjugatedSingleBond ConjugatedSingleBond NonConjugatedSingleBond ConjugatedSingleBond NonConjugatedSingleBond NonConjugatedSingleBond NonConjugatedSingleBond ConjugatedSingleBond NonConjugatedSingleBond ConjugatedDoubleBond NonConjugatedSingleBond NonConjugatedSingleBond NonConjugatedSingleBond NonConjugatedSingleBond NonConjugatedSingleBond NonConjugatedSingleBond NonConjugatedSingleBond NonConjugatedSingleBond NonConjugatedSingleBond NonConjugatedSingleBond NonConjugatedSingleBond NonConjugatedSingleBond NonConjugatedSingleBond ConjugatedDoubleBond NonConjugatedSingleBond NonConjugatedSingleBond NonConjugatedSingleBond NonConjugatedSingleBond NonConjugatedSingleBond ConjugatedSingleBond ConjugatedDoubleBond ConjugatedSingleBond ConjugatedDoubleBond NonConjugatedSingleBond NonConjugatedSingleBond NonConjugatedSingleBond NonConjugatedSingleBond NonConjugatedSingleBond NonConjugatedSingleBond NonConjugatedSingleBond NonConjugatedSingleBond NonConjugatedSingleBond
M  BCL CHI  32   S  33   S
M  BCL DBI Z Z - - -
M  END
> <ConfClashScore>
0 

> <ConfOneFourInteractionScore>
-0.975525 

> <ConfScore>
-0.0124457 

> <ConfScorePBest>
0.00850649 

> <ConfTolerance>
1.39554 

$$$$
L06.****
  PyMOL2.5          3D                             0

 49 48  0  0  0  0  0  0  0  0999 V2000
   -2.7941   -4.1785   -0.0166 C   0  0  0  1  0  0  0  0  0  0  0  0
   -2.6473   -2.6871   -0.1589 C   0  0  0  1  0  0  0  0  0  0  0  0
   -2.8397   -2.4109   -1.1745 H   0  0  0  1  0  0  0  0  0  0  0  0
   -1.6491   -2.4061    0.1047 H   0  0  0  1  0  0  0  0  0  0  0  0
    2.0349  -12.7066    0.7407 O   0  0  0  1  0  0  0  0  0  0  0  0
    0.5768  -11.2101    2.0462 O   0  0  0  1  0  0  0  0  0  0  0  0
   -0.2897  -10.5335    1.1215 C   0  0  0  1  0  0  0  0  0  0  0  0
   -1.2927  -10.8856    1.2438 H   0  0  0  1  0  0  0  0  0  0  0  0
    0.0352  -10.7217    0.1195 H   0  0  0  1  0  0  0  0  0  0  0  0
    1.4806  -14.6663    2.4185 O   0  0  0  0  0  0  0  0  0  0  0  0
   -0.2331   -9.0617    1.4029 C   0  0  0  1  0  0  0  0  0  0  0  0
    0.6740   -8.5769    1.2490 H   0  0  0  1  0  0  0  0  0  0  0  0
   -1.2424   -8.3402    1.8286 C   0  0  0  1  0  0  0  0  0  0  0  0
   -1.2083   -6.8478    1.7735 C   0  0  0  1  0  0  0  0  0  0  0  0
   -0.2023   -6.5055    1.8985 H   0  0  0  1  0  0  0  0  0  0  0  0
   -1.8221   -6.4444    2.5516 H   0  0  0  1  0  0  0  0  0  0  0  0
   -1.7370   -6.4002    0.4205 C   0  0  0  1  0  0  0  0  0  0  0  0
   -2.7412   -6.7537    0.3133 H   0  0  0  1  0  0  0  0  0  0  0  0
   -1.1236   -6.8297   -0.3439 H   0  0  0  1  0  0  0  0  0  0  0  0
   -1.7351   -4.9043    0.2522 C   0  0  0  1  0  0  0  0  0  0  0  0
   -0.8264   -4.4094    0.3569 H   0  0  0  1  0  0  0  0  0  0  0  0
   -3.6259   -1.9602    0.7491 C   0  0  0  1  0  0  0  0  0  0  0  0
   -3.2817   -2.0458    1.7587 H   0  0  0  1  0  0  0  0  0  0  0  0
   -4.5850   -2.4257    0.6582 H   0  0  0  1  0  0  0  0  0  0  0  0
   -3.7674   -0.5090    0.4157 C   0  0  0  1  0  0  0  0  0  0  0  0
   -2.9021    0.0655    0.4690 H   0  0  0  1  0  0  0  0  0  0  0  0
   -4.8894    0.1319    0.0555 C   0  0  0  1  0  0  0  0  0  0  0  0
   -6.2220   -0.5512   -0.1566 C   0  0  0  1  0  0  0  0  0  0  0  0
   -6.9803   -0.0332    0.3925 H   0  0  0  1  0  0  0  0  0  0  0  0
   -6.1623   -1.5631    0.1859 H   0  0  0  1  0  0  0  0  0  0  0  0
   -6.4661   -0.5406   -1.1983 H   0  0  0  1  0  0  0  0  0  0  0  0
    2.1072  -11.4304    1.7110 P   0  0  0  1  0  0  0  0  0  0  0  0
    1.0633  -14.0066    0.9762 P   0  0  0  1  0  0  0  0  0  0  0  0
    2.6594  -10.2845    0.9479 O   0  0  0  0  0  0  0  0  0  0  0  0
   -0.4199  -13.3669    1.1001 O   0  5  0  1  0  0  0  0  0  0  0  0
   -2.5053   -8.9196    2.4011 C   0  0  0  1  0  0  0  0  0  0  0  0
   -2.4520   -9.9880    2.3750 H   0  0  0  1  0  0  0  0  0  0  0  0
   -3.3429   -8.5903    1.8224 H   0  0  0  1  0  0  0  0  0  0  0  0
   -2.6202   -8.5932    3.4136 H   0  0  0  1  0  0  0  0  0  0  0  0
   -4.1900   -4.7026   -0.2040 C   0  0  0  1  0  0  0  0  0  0  0  0
   -4.6905   -4.1258   -0.9535 H   0  0  0  1  0  0  0  0  0  0  0  0
   -4.7255   -4.6286    0.7194 H   0  0  0  1  0  0  0  0  0  0  0  0
   -4.1479   -5.7267   -0.5114 H   0  0  0  1  0  0  0  0  0  0  0  0
   -4.9715    1.6138   -0.1854 C   0  0  0  1  0  0  0  0  0  0  0  0
   -5.8296    2.0101    0.3161 H   0  0  0  1  0  0  0  0  0  0  0  0
   -5.0548    1.8001   -1.2357 H   0  0  0  1  0  0  0  0  0  0  0  0
   -4.0885    2.0857    0.1922 H   0  0  0  1  0  0  0  0  0  0  0  0
    2.7593  -11.8202    2.9617 O   0  0  0  1  0  0  0  0  0  0  0  0
    1.2604  -15.0558   -0.0489 O   0  0  0  1  0  0  0  0  0  0  0  0
  1  2  1  0  0  0  0
  1 20  2  0  0  0  0
  1 40  1  0  0  0  0
  2  3  1  0  0  0  0
  2  4  1  0  0  0  0
  2 22  1  0  0  0  0
  5 32  1  0  0  0  0
  5 33  1  0  0  0  0
  6  7  1  0  0  0  0
  6 32  1  0  0  0  0
  7  8  1  0  0  0  0
  7  9  1  0  0  0  0
  7 11  1  0  0  0  0
 10 33  1  0  0  0  0
 11 12  1  0  0  0  0
 11 13  2  0  0  0  0
 13 14  1  0  0  0  0
 13 36  1  0  0  0  0
 14 15  1  0  0  0  0
 14 16  1  0  0  0  0
 14 17  1  0  0  0  0
 17 18  1  0  0  0  0
 17 19  1  0  0  0  0
 17 20  1  0  0  0  0
 20 21  1  0  0  0  0
 22 23  1  0  0  0  0
 22 24  1  0  0  0  0
 22 25  1  0  0  0  0
 25 26  1  0  0  0  0
 25 27  2  0  0  0  0
 27 28  1  0  0  0  0
 27 44  1  0  0  0  0
 28 29  1  0  0  0  0
 28 30  1  0  0  0  0
 28 31  1  0  0  0  0
 32 34  1  0  0  0  0
 32 48  2  0  0  0  0
 33 35  1  0  0  0  0
 33 49  2  0  0  0  0
 36 37  1  0  0  0  0
 36 38  1  0  0  0  0
 36 39  1  0  0  0  0
 40 41  1  0  0  0  0
 40 42  1  0  0  0  0
 40 43  1  0  0  0  0
 44 45  1  0  0  0  0
 44 46  1  0  0  0  0
 44 47  1  0  0  0  0
M  BCL ATM C_TrTrTrPi C_TeTeTeTe H_S H_S O_Tr2TrTrPi2 O_Tr2TrTrPi2 C_TeTeTeTe H_S H_S O_Te2Te2TeTe C_TrTrTrPi H_S C_TrTrTrPi C_TeTeTeTe H_S H_S C_TeTeTeTe H_S H_S C_TrTrTrPi H_S C_TeTeTeTe H_S H_S C_TrTrTrPi H_S C_TrTrTrPi C_TeTeTeTe H_S H_S H_S P_TeTeTeTePi P_TeTeTeTePi O_Te2Te2TeTe O_Te2Te2Te2Te C_TeTeTeTe H_S H_S H_S C_TeTeTeTe H_S H_S H_S C_TeTeTeTe H_S H_S H_S O_Tr2Tr2TrPi O_Tr2Tr2TrPi
M  BCL BND NonConjugatedSingleBond ConjugatedDoubleBond NonConjugatedSingleBond NonConjugatedSingleBond NonConjugatedSingleBond NonConjugatedSingleBond ConjugatedSingleBond ConjugatedSingleBond NonConjugatedSingleBond ConjugatedSingleBond NonConjugatedSingleBond NonConjugatedSingleBond NonConjugatedSingleBond ConjugatedSingleBond NonConjugatedSingleBond ConjugatedDoubleBond NonConjugatedSingleBond NonConjugatedSingleBond NonConjugatedSingleBond NonConjugatedSingleBond NonConjugatedSingleBond NonConjugatedSingleBond NonConjugatedSingleBond NonConjugatedSingleBond NonConjugatedSingleBond NonConjugatedSingleBond NonConjugatedSingleBond NonConjugatedSingleBond NonConjugatedSingleBond ConjugatedDoubleBond NonConjugatedSingleBond NonConjugatedSingleBond NonConjugatedSingleBond NonConjugatedSingleBond NonConjugatedSingleBond ConjugatedSingleBond ConjugatedDoubleBond ConjugatedSingleBond ConjugatedDoubleBond NonConjugatedSingleBond NonConjugatedSingleBond NonConjugatedSingleBond NonConjugatedSingleBond NonConjugatedSingleBond NonConjugatedSingleBond NonConjugatedSingleBond NonConjugatedSingleBond NonConjugatedSingleBond
M  BCL CHI  32   S  33   S
M  BCL DBI Z Z - - -
M  END
> <ConfClashScore>
0 

> <ConfOneFourInteractionScore>
-0.982537 

> <ConfScore>
-0.0109958 

> <ConfScorePBest>
0.00840348 

> <ConfTolerance>
1.43954 

$$$$
L06.****
  PyMOL2.5          3D                             0

 49 48  0  0  0  0  0  0  0  0999 V2000
   -3.1765   -3.8606   -1.9908 C   0  0  0  1  0  0  0  0  0  0  0  0
   -3.1010   -2.3738   -1.7976 C   0  0  0  1  0  0  0  0  0  0  0  0
   -3.7011   -1.8925   -2.5413 H   0  0  0  1  0  0  0  0  0  0  0  0
   -2.0838   -2.0580   -1.9000 H   0  0  0  1  0  0  0  0  0  0  0  0
    3.2199   -7.1247    1.1475 O   0  0  0  1  0  0  0  0  0  0  0  0
    1.1081   -5.8694    1.5314 O   0  0  0  1  0  0  0  0  0  0  0  0
    0.7524   -5.7152    0.1433 C   0  0  0  1  0  0  0  0  0  0  0  0
    1.1745   -6.5092   -0.4366 H   0  0  0  1  0  0  0  0  0  0  0  0
    1.1064   -4.7756   -0.2265 H   0  0  0  1  0  0  0  0  0  0  0  0
    4.7037   -8.9441   -0.0239 O   0  0  0  0  0  0  0  0  0  0  0  0
   -0.7448   -5.7662    0.0786 C   0  0  0  1  0  0  0  0  0  0  0  0
   -1.2719   -4.9732    0.4968 H   0  0  0  1  0  0  0  0  0  0  0  0
   -1.4478   -6.7483   -0.4729 C   0  0  0  1  0  0  0  0  0  0  0  0
   -2.9249   -6.8777   -0.2389 C   0  0  0  1  0  0  0  0  0  0  0  0
   -3.1366   -6.5125    0.7443 H   0  0  0  1  0  0  0  0  0  0  0  0
   -3.1786   -7.9156   -0.2967 H   0  0  0  1  0  0  0  0  0  0  0  0
   -3.8084   -6.1237   -1.2194 C   0  0  0  1  0  0  0  0  0  0  0  0
   -4.8249   -6.4150   -1.0554 H   0  0  0  1  0  0  0  0  0  0  0  0
   -3.5169   -6.3891   -2.2141 H   0  0  0  1  0  0  0  0  0  0  0  0
   -3.7097   -4.6405   -1.0749 C   0  0  0  1  0  0  0  0  0  0  0  0
   -4.0805   -4.2025   -0.2076 H   0  0  0  1  0  0  0  0  0  0  0  0
   -3.6077   -1.9832   -0.4188 C   0  0  0  1  0  0  0  0  0  0  0  0
   -2.9034   -2.3073    0.3186 H   0  0  0  1  0  0  0  0  0  0  0  0
   -4.5510   -2.4571   -0.2445 H   0  0  0  1  0  0  0  0  0  0  0  0
   -3.7773   -0.5006   -0.3166 C   0  0  0  1  0  0  0  0  0  0  0  0
   -2.9376    0.0920   -0.4756 H   0  0  0  1  0  0  0  0  0  0  0  0
   -4.9221    0.1165   -0.0376 C   0  0  0  1  0  0  0  0  0  0  0  0
   -6.2270   -0.5593    0.2691 C   0  0  0  1  0  0  0  0  0  0  0  0
   -6.0935   -1.6207    0.2470 H   0  0  0  1  0  0  0  0  0  0  0  0
   -6.9553   -0.2764   -0.4619 H   0  0  0  1  0  0  0  0  0  0  0  0
   -6.5623   -0.2625    1.2409 H   0  0  0  1  0  0  0  0  0  0  0  0
    2.6333   -5.9167    1.9823 P   0  0  0  1  0  0  0  0  0  0  0  0
    4.4881   -7.3253    0.1271 P   0  0  0  1  0  0  0  0  0  0  0  0
    3.2683   -4.7075    1.4087 O   0  0  0  0  0  0  0  0  0  0  0  0
    3.8604   -6.9370   -1.3150 O   0  5  0  1  0  0  0  0  0  0  0  0
   -0.8575   -7.8044   -1.3642 C   0  0  0  1  0  0  0  0  0  0  0  0
   -0.9185   -7.4862   -2.3840 H   0  0  0  1  0  0  0  0  0  0  0  0
   -1.4012   -8.7180   -1.2428 H   0  0  0  1  0  0  0  0  0  0  0  0
    0.1676   -7.9611   -1.1005 H   0  0  0  1  0  0  0  0  0  0  0  0
   -2.6215   -4.4262   -3.2677 C   0  0  0  1  0  0  0  0  0  0  0  0
   -2.7472   -3.7155   -4.0576 H   0  0  0  1  0  0  0  0  0  0  0  0
   -3.1418   -5.3283   -3.5138 H   0  0  0  1  0  0  0  0  0  0  0  0
   -1.5803   -4.6377   -3.1410 H   0  0  0  1  0  0  0  0  0  0  0  0
   -4.9622    1.6186   -0.0156 C   0  0  0  1  0  0  0  0  0  0  0  0
   -5.7465    1.9644   -0.6560 H   0  0  0  1  0  0  0  0  0  0  0  0
   -4.0253    2.0051   -0.3587 H   0  0  0  1  0  0  0  0  0  0  0  0
   -5.1432    1.9557    0.9837 H   0  0  0  1  0  0  0  0  0  0  0  0
    2.7386   -6.1738    3.4277 O   0  0  0  1  0  0  0  0  0  0  0  0
    5.6942   -6.5952    0.5773 O   0  0  0  1  0  0  0  0  0  0  0  0
  1  2  1  0  0  0  0
  1 20  2  0  0  0  0
  1 40  1  0  0  0  0
  2  3  1  0  0  0  0
  2  4  1  0  0  0  0
  2 22  1  0  0  0  0
  5 32  1  0  0  0  0
  5 33  1  0  0  0  0
  6  7  1  0  0  0  0
  6 32  1  0  0  0  0
  7  8  1  0  0  0  0
  7  9  1  0  0  0  0
  7 11  1  0  0  0  0
 10 33  1  0  0  0  0
 11 12  1  0  0  0  0
 11 13  2  0  0  0  0
 13 14  1  0  0  0  0
 13 36  1  0  0  0  0
 14 15  1  0  0  0  0
 14 16  1  0  0  0  0
 14 17  1  0  0  0  0
 17 18  1  0  0  0  0
 17 19  1  0  0  0  0
 17 20  1  0  0  0  0
 20 21  1  0  0  0  0
 22 23  1  0  0  0  0
 22 24  1  0  0  0  0
 22 25  1  0  0  0  0
 25 26  1  0  0  0  0
 25 27  2  0  0  0  0
 27 28  1  0  0  0  0
 27 44  1  0  0  0  0
 28 29  1  0  0  0  0
 28 30  1  0  0  0  0
 28 31  1  0  0  0  0
 32 34  1  0  0  0  0
 32 48  2  0  0  0  0
 33 35  1  0  0  0  0
 33 49  2  0  0  0  0
 36 37  1  0  0  0  0
 36 38  1  0  0  0  0
 36 39  1  0  0  0  0
 40 41  1  0  0  0  0
 40 42  1  0  0  0  0
 40 43  1  0  0  0  0
 44 45  1  0  0  0  0
 44 46  1  0  0  0  0
 44 47  1  0  0  0  0
M  BCL ATM C_TrTrTrPi C_TeTeTeTe H_S H_S O_Tr2TrTrPi2 O_Tr2TrTrPi2 C_TeTeTeTe H_S H_S O_Te2Te2TeTe C_TrTrTrPi H_S C_TrTrTrPi C_TeTeTeTe H_S H_S C_TeTeTeTe H_S H_S C_TrTrTrPi H_S C_TeTeTeTe H_S H_S C_TrTrTrPi H_S C_TrTrTrPi C_TeTeTeTe H_S H_S H_S P_TeTeTeTePi P_TeTeTeTePi O_Te2Te2TeTe O_Te2Te2Te2Te C_TeTeTeTe H_S H_S H_S C_TeTeTeTe H_S H_S H_S C_TeTeTeTe H_S H_S H_S O_Tr2Tr2TrPi O_Tr2Tr2TrPi
M  BCL BND NonConjugatedSingleBond ConjugatedDoubleBond NonConjugatedSingleBond NonConjugatedSingleBond NonConjugatedSingleBond NonConjugatedSingleBond ConjugatedSingleBond ConjugatedSingleBond NonConjugatedSingleBond ConjugatedSingleBond NonConjugatedSingleBond NonConjugatedSingleBond NonConjugatedSingleBond ConjugatedSingleBond NonConjugatedSingleBond ConjugatedDoubleBond NonConjugatedSingleBond NonConjugatedSingleBond NonConjugatedSingleBond NonConjugatedSingleBond NonConjugatedSingleBond NonConjugatedSingleBond NonConjugatedSingleBond NonConjugatedSingleBond NonConjugatedSingleBond NonConjugatedSingleBond NonConjugatedSingleBond NonConjugatedSingleBond NonConjugatedSingleBond ConjugatedDoubleBond NonConjugatedSingleBond NonConjugatedSingleBond NonConjugatedSingleBond NonConjugatedSingleBond NonConjugatedSingleBond ConjugatedSingleBond ConjugatedDoubleBond ConjugatedSingleBond ConjugatedDoubleBond NonConjugatedSingleBond NonConjugatedSingleBond NonConjugatedSingleBond NonConjugatedSingleBond NonConjugatedSingleBond NonConjugatedSingleBond NonConjugatedSingleBond NonConjugatedSingleBond NonConjugatedSingleBond
M  BCL CHI  32   S  33   S
M  BCL DBI Z Z - - -
M  END
> <ConfClashScore>
0 

> <ConfOneFourInteractionScore>
-0.995419 

> <ConfScore>
-0.0108223 

> <ConfScorePBest>
0.00830048 

> <ConfTolerance>
1.48619 

$$$$
L06.****
  PyMOL2.5          3D                             0

 49 48  0  0  0  0  0  0  0  0999 V2000
   -0.1228    0.1842    0.9849 C   0  0  0  1  0  0  0  0  0  0  0  0
   -1.5533   -0.2334    1.1656 C   0  0  0  1  0  0  0  0  0  0  0  0
   -1.9747    0.3339    1.9691 H   0  0  0  1  0  0  0  0  0  0  0  0
   -1.5756   -1.2741    1.4131 H   0  0  0  1  0  0  0  0  0  0  0  0
    7.8530    6.8140    3.3504 O   0  0  0  1  0  0  0  0  0  0  0  0
    6.2260    5.2335    2.4226 O   0  0  0  1  0  0  0  0  0  0  0  0
    5.8533    4.0204    1.7395 C   0  0  0  1  0  0  0  0  0  0  0  0
    6.4247    3.2088    2.1391 H   0  0  0  1  0  0  0  0  0  0  0  0
    6.0691    4.1300    0.6972 H   0  0  0  1  0  0  0  0  0  0  0  0
    8.0566    9.2972    2.5776 O   0  0  0  0  0  0  0  0  0  0  0  0
    4.3947    3.7130    1.9029 C   0  0  0  1  0  0  0  0  0  0  0  0
    3.7302    4.4755    1.6605 H   0  0  0  1  0  0  0  0  0  0  0  0
    3.8586    2.5710    2.3242 C   0  0  0  1  0  0  0  0  0  0  0  0
    2.3888    2.3390    2.6098 C   0  0  0  1  0  0  0  0  0  0  0  0
    1.9392    3.2495    2.9471 H   0  0  0  1  0  0  0  0  0  0  0  0
    2.2826    1.5874    3.3640 H   0  0  0  1  0  0  0  0  0  0  0  0
    1.7126    1.8781    1.3289 C   0  0  0  1  0  0  0  0  0  0  0  0
    2.3235    1.1098    0.9030 H   0  0  0  1  0  0  0  0  0  0  0  0
    1.6787    2.7166    0.6652 H   0  0  0  1  0  0  0  0  0  0  0  0
    0.3138    1.3328    1.4376 C   0  0  0  1  0  0  0  0  0  0  0  0
   -0.3814    1.9334    1.9250 H   0  0  0  1  0  0  0  0  0  0  0  0
   -2.3994   -0.0134   -0.0778 C   0  0  0  1  0  0  0  0  0  0  0  0
   -1.9357   -0.5027   -0.9087 H   0  0  0  1  0  0  0  0  0  0  0  0
   -2.4681    1.0361   -0.2742 H   0  0  0  1  0  0  0  0  0  0  0  0
   -3.7843   -0.5715    0.1135 C   0  0  0  1  0  0  0  0  0  0  0  0
   -3.8486   -1.5837    0.3434 H   0  0  0  1  0  0  0  0  0  0  0  0
   -4.9336    0.0889    0.0204 C   0  0  0  1  0  0  0  0  0  0  0  0
   -6.2793   -0.5519    0.1988 C   0  0  0  1  0  0  0  0  0  0  0  0
   -6.5088   -0.6163    1.2419 H   0  0  0  1  0  0  0  0  0  0  0  0
   -6.2650   -1.5346   -0.2243 H   0  0  0  1  0  0  0  0  0  0  0  0
   -7.0233    0.0383   -0.2941 H   0  0  0  1  0  0  0  0  0  0  0  0
    7.3613    5.2934    3.5205 P   0  0  0  1  0  0  0  0  0  0  0  0
    6.9652    8.1131    2.8878 P   0  0  0  1  0  0  0  0  0  0  0  0
    6.8215    5.0740    4.9017 O   0  0  0  0  0  0  0  0  0  0  0  0
    6.2319    7.8570    1.4662 O   0  5  0  1  0  0  0  0  0  0  0  0
    4.7471    1.3803    2.5505 C   0  0  0  1  0  0  0  0  0  0  0  0
    4.6309    1.0340    3.5563 H   0  0  0  1  0  0  0  0  0  0  0  0
    5.7666    1.6598    2.3853 H   0  0  0  1  0  0  0  0  0  0  0  0
    4.4763    0.5992    1.8712 H   0  0  0  1  0  0  0  0  0  0  0  0
    0.7357   -0.8114    0.2566 C   0  0  0  1  0  0  0  0  0  0  0  0
    0.7811   -1.7216    0.8174 H   0  0  0  1  0  0  0  0  0  0  0  0
    1.7225   -0.4142    0.1413 H   0  0  0  1  0  0  0  0  0  0  0  0
    0.3146   -1.0074   -0.7073 H   0  0  0  1  0  0  0  0  0  0  0  0
   -4.9725    1.5614   -0.2775 C   0  0  0  1  0  0  0  0  0  0  0  0
   -5.7120    1.7549   -1.0262 H   0  0  0  1  0  0  0  0  0  0  0  0
   -4.0143    1.8787   -0.6325 H   0  0  0  1  0  0  0  0  0  0  0  0
   -5.2190    2.0990    0.6142 H   0  0  0  1  0  0  0  0  0  0  0  0
    8.4421    4.3571    3.0866 O   0  0  0  1  0  0  0  0  0  0  0  0
    5.8748    8.5988    3.7627 O   0  0  0  1  0  0  0  0  0  0  0  0
  1  2  1  0  0  0  0
  1 20  2  0  0  0  0
  1 40  1  0  0  0  0
  2  3  1  0  0  0  0
  2  4  1  0  0  0  0
  2 22  1  0  0  0  0
  5 32  1  0  0  0  0
  5 33  1  0  0  0  0
  6  7  1  0  0  0  0
  6 32  1  0  0  0  0
  7  8  1  0  0  0  0
  7  9  1  0  0  0  0
  7 11  1  0  0  0  0
 10 33  1  0  0  0  0
 11 12  1  0  0  0  0
 11 13  2  0  0  0  0
 13 14  1  0  0  0  0
 13 36  1  0  0  0  0
 14 15  1  0  0  0  0
 14 16  1  0  0  0  0
 14 17  1  0  0  0  0
 17 18  1  0  0  0  0
 17 19  1  0  0  0  0
 17 20  1  0  0  0  0
 20 21  1  0  0  0  0
 22 23  1  0  0  0  0
 22 24  1  0  0  0  0
 22 25  1  0  0  0  0
 25 26  1  0  0  0  0
 25 27  2  0  0  0  0
 27 28  1  0  0  0  0
 27 44  1  0  0  0  0
 28 29  1  0  0  0  0
 28 30  1  0  0  0  0
 28 31  1  0  0  0  0
 32 34  1  0  0  0  0
 32 48  2  0  0  0  0
 33 35  1  0  0  0  0
 33 49  2  0  0  0  0
 36 37  1  0  0  0  0
 36 38  1  0  0  0  0
 36 39  1  0  0  0  0
 40 41  1  0  0  0  0
 40 42  1  0  0  0  0
 40 43  1  0  0  0  0
 44 45  1  0  0  0  0
 44 46  1  0  0  0  0
 44 47  1  0  0  0  0
M  BCL ATM C_TrTrTrPi C_TeTeTeTe H_S H_S O_Tr2TrTrPi2 O_Tr2TrTrPi2 C_TeTeTeTe H_S H_S O_Te2Te2TeTe C_TrTrTrPi H_S C_TrTrTrPi C_TeTeTeTe H_S H_S C_TeTeTeTe H_S H_S C_TrTrTrPi H_S C_TeTeTeTe H_S H_S C_TrTrTrPi H_S C_TrTrTrPi C_TeTeTeTe H_S H_S H_S P_TeTeTeTePi P_TeTeTeTePi O_Te2Te2TeTe O_Te2Te2Te2Te C_TeTeTeTe H_S H_S H_S C_TeTeTeTe H_S H_S H_S C_TeTeTeTe H_S H_S H_S O_Tr2Tr2TrPi O_Tr2Tr2TrPi
M  BCL BND NonConjugatedSingleBond ConjugatedDoubleBond NonConjugatedSingleBond NonConjugatedSingleBond NonConjugatedSingleBond NonConjugatedSingleBond ConjugatedSingleBond ConjugatedSingleBond NonConjugatedSingleBond ConjugatedSingleBond NonConjugatedSingleBond NonConjugatedSingleBond NonConjugatedSingleBond ConjugatedSingleBond NonConjugatedSingleBond ConjugatedDoubleBond NonConjugatedSingleBond NonConjugatedSingleBond NonConjugatedSingleBond NonConjugatedSingleBond NonConjugatedSingleBond NonConjugatedSingleBond NonConjugatedSingleBond NonConjugatedSingleBond NonConjugatedSingleBond NonConjugatedSingleBond NonConjugatedSingleBond NonConjugatedSingleBond NonConjugatedSingleBond ConjugatedDoubleBond NonConjugatedSingleBond NonConjugatedSingleBond NonConjugatedSingleBond NonConjugatedSingleBond NonConjugatedSingleBond ConjugatedSingleBond ConjugatedDoubleBond ConjugatedSingleBond ConjugatedDoubleBond NonConjugatedSingleBond NonConjugatedSingleBond NonConjugatedSingleBond NonConjugatedSingleBond NonConjugatedSingleBond NonConjugatedSingleBond NonConjugatedSingleBond NonConjugatedSingleBond NonConjugatedSingleBond
M  BCL CHI  32   S  33   S
M  BCL DBI Z Z - - -
M  END
> <ConfClashScore>
0 

> <ConfOneFourInteractionScore>
-0.985843 

> <ConfScore>
-0.0097344 

> <ConfScorePBest>
0.00819748 

> <ConfTolerance>
1.23316 

$$$$
L06.****
  PyMOL2.5          3D                             0

 49 48  0  0  0  0  0  0  0  0999 V2000
   -1.1684   -1.8291    0.5165 C   0  0  0  1  0  0  0  0  0  0  0  0
   -1.4863   -0.3649    0.6093 C   0  0  0  1  0  0  0  0  0  0  0  0
   -0.5759    0.1883    0.5085 H   0  0  0  1  0  0  0  0  0  0  0  0
   -1.9181   -0.1704    1.5688 H   0  0  0  1  0  0  0  0  0  0  0  0
   -1.0991   -8.7976   -6.8779 O   0  0  0  1  0  0  0  0  0  0  0  0
    0.1425   -7.4961   -5.3669 O   0  0  0  1  0  0  0  0  0  0  0  0
   -0.3336   -7.5556   -4.0078 C   0  0  0  1  0  0  0  0  0  0  0  0
    0.4141   -7.9977   -3.3830 H   0  0  0  1  0  0  0  0  0  0  0  0
   -1.2276   -8.1420   -3.9645 H   0  0  0  1  0  0  0  0  0  0  0  0
   -1.2897  -10.0516   -9.1900 O   0  0  0  0  0  0  0  0  0  0  0  0
   -0.6218   -6.1593   -3.5405 C   0  0  0  1  0  0  0  0  0  0  0  0
   -1.2092   -5.5727   -4.1670 H   0  0  0  1  0  0  0  0  0  0  0  0
   -0.2084   -5.5914   -2.4139 C   0  0  0  1  0  0  0  0  0  0  0  0
   -0.5755   -4.1764   -2.0725 C   0  0  0  1  0  0  0  0  0  0  0  0
   -1.2681   -3.8280   -2.8100 H   0  0  0  1  0  0  0  0  0  0  0  0
    0.3157   -3.5855   -2.1122 H   0  0  0  1  0  0  0  0  0  0  0  0
   -1.2083   -3.9793   -0.7047 C   0  0  0  1  0  0  0  0  0  0  0  0
   -0.4928   -4.2493    0.0437 H   0  0  0  1  0  0  0  0  0  0  0  0
   -2.0626   -4.6191   -0.6293 H   0  0  0  1  0  0  0  0  0  0  0  0
   -1.6449   -2.5723   -0.4593 C   0  0  0  1  0  0  0  0  0  0  0  0
   -2.3608   -2.1595   -1.0907 H   0  0  0  1  0  0  0  0  0  0  0  0
   -2.4577    0.1025   -0.4623 C   0  0  0  1  0  0  0  0  0  0  0  0
   -2.0437   -0.1286   -1.4215 H   0  0  0  1  0  0  0  0  0  0  0  0
   -2.5804    1.1616   -0.3720 H   0  0  0  1  0  0  0  0  0  0  0  0
   -3.8112   -0.5475   -0.3553 C   0  0  0  1  0  0  0  0  0  0  0  0
   -3.8695   -1.5701   -0.5356 H   0  0  0  1  0  0  0  0  0  0  0  0
   -4.9369    0.0878   -0.0478 C   0  0  0  1  0  0  0  0  0  0  0  0
   -6.2827   -0.5759   -0.0044 C   0  0  0  1  0  0  0  0  0  0  0  0
   -6.9054   -0.1717   -0.7749 H   0  0  0  1  0  0  0  0  0  0  0  0
   -6.7360   -0.4006    0.9489 H   0  0  0  1  0  0  0  0  0  0  0  0
   -6.1659   -1.6287   -0.1562 H   0  0  0  1  0  0  0  0  0  0  0  0
    0.4307   -8.7850   -6.3211 P   0  0  0  1  0  0  0  0  0  0  0  0
   -2.0740   -9.7601   -7.7795 P   0  0  0  1  0  0  0  0  0  0  0  0
    1.3654   -8.4151   -7.4128 O   0  0  0  0  0  0  0  0  0  0  0  0
   -2.1371  -11.2079   -7.0555 O   0  5  0  1  0  0  0  0  0  0  0  0
    0.6461   -6.2839   -1.3898 C   0  0  0  1  0  0  0  0  0  0  0  0
    1.6773   -6.0758   -1.5854 H   0  0  0  1  0  0  0  0  0  0  0  0
    0.4794   -7.3396   -1.4416 H   0  0  0  1  0  0  0  0  0  0  0  0
    0.3899   -5.9293   -0.4133 H   0  0  0  1  0  0  0  0  0  0  0  0
   -0.2805   -2.3504    1.6112 C   0  0  0  1  0  0  0  0  0  0  0  0
    0.6542   -1.8302    1.5912 H   0  0  0  1  0  0  0  0  0  0  0  0
   -0.1096   -3.3963    1.4637 H   0  0  0  1  0  0  0  0  0  0  0  0
   -0.7542   -2.1960    2.5582 H   0  0  0  1  0  0  0  0  0  0  0  0
   -4.9469    1.5527    0.2873 C   0  0  0  1  0  0  0  0  0  0  0  0
   -3.9429    1.9225    0.3025 H   0  0  0  1  0  0  0  0  0  0  0  0
   -5.3938    1.6953    1.2489 H   0  0  0  1  0  0  0  0  0  0  0  0
   -5.5110    2.0834   -0.4510 H   0  0  0  1  0  0  0  0  0  0  0  0
    0.7026   -9.9854   -5.4993 O   0  0  0  1  0  0  0  0  0  0  0  0
   -3.4294   -9.2096   -8.0038 O   0  0  0  1  0  0  0  0  0  0  0  0
  1  2  1  0  0  0  0
  1 20  2  0  0  0  0
  1 40  1  0  0  0  0
  2  3  1  0  0  0  0
  2  4  1  0  0  0  0
  2 22  1  0  0  0  0
  5 32  1  0  0  0  0
  5 33  1  0  0  0  0
  6  7  1  0  0  0  0
  6 32  1  0  0  0  0
  7  8  1  0  0  0  0
  7  9  1  0  0  0  0
  7 11  1  0  0  0  0
 10 33  1  0  0  0  0
 11 12  1  0  0  0  0
 11 13  2  0  0  0  0
 13 14  1  0  0  0  0
 13 36  1  0  0  0  0
 14 15  1  0  0  0  0
 14 16  1  0  0  0  0
 14 17  1  0  0  0  0
 17 18  1  0  0  0  0
 17 19  1  0  0  0  0
 17 20  1  0  0  0  0
 20 21  1  0  0  0  0
 22 23  1  0  0  0  0
 22 24  1  0  0  0  0
 22 25  1  0  0  0  0
 25 26  1  0  0  0  0
 25 27  2  0  0  0  0
 27 28  1  0  0  0  0
 27 44  1  0  0  0  0
 28 29  1  0  0  0  0
 28 30  1  0  0  0  0
 28 31  1  0  0  0  0
 32 34  1  0  0  0  0
 32 48  2  0  0  0  0
 33 35  1  0  0  0  0
 33 49  2  0  0  0  0
 36 37  1  0  0  0  0
 36 38  1  0  0  0  0
 36 39  1  0  0  0  0
 40 41  1  0  0  0  0
 40 42  1  0  0  0  0
 40 43  1  0  0  0  0
 44 45  1  0  0  0  0
 44 46  1  0  0  0  0
 44 47  1  0  0  0  0
M  BCL ATM C_TrTrTrPi C_TeTeTeTe H_S H_S O_Tr2TrTrPi2 O_Tr2TrTrPi2 C_TeTeTeTe H_S H_S O_Te2Te2TeTe C_TrTrTrPi H_S C_TrTrTrPi C_TeTeTeTe H_S H_S C_TeTeTeTe H_S H_S C_TrTrTrPi H_S C_TeTeTeTe H_S H_S C_TrTrTrPi H_S C_TrTrTrPi C_TeTeTeTe H_S H_S H_S P_TeTeTeTePi P_TeTeTeTePi O_Te2Te2TeTe O_Te2Te2Te2Te C_TeTeTeTe H_S H_S H_S C_TeTeTeTe H_S H_S H_S C_TeTeTeTe H_S H_S H_S O_Tr2Tr2TrPi O_Tr2Tr2TrPi
M  BCL BND NonConjugatedSingleBond ConjugatedDoubleBond NonConjugatedSingleBond NonConjugatedSingleBond NonConjugatedSingleBond NonConjugatedSingleBond ConjugatedSingleBond ConjugatedSingleBond NonConjugatedSingleBond ConjugatedSingleBond NonConjugatedSingleBond NonConjugatedSingleBond NonConjugatedSingleBond ConjugatedSingleBond NonConjugatedSingleBond ConjugatedDoubleBond NonConjugatedSingleBond NonConjugatedSingleBond NonConjugatedSingleBond NonConjugatedSingleBond NonConjugatedSingleBond NonConjugatedSingleBond NonConjugatedSingleBond NonConjugatedSingleBond NonConjugatedSingleBond NonConjugatedSingleBond NonConjugatedSingleBond NonConjugatedSingleBond NonConjugatedSingleBond ConjugatedDoubleBond NonConjugatedSingleBond NonConjugatedSingleBond NonConjugatedSingleBond NonConjugatedSingleBond NonConjugatedSingleBond ConjugatedSingleBond ConjugatedDoubleBond ConjugatedSingleBond ConjugatedDoubleBond NonConjugatedSingleBond NonConjugatedSingleBond NonConjugatedSingleBond NonConjugatedSingleBond NonConjugatedSingleBond NonConjugatedSingleBond NonConjugatedSingleBond NonConjugatedSingleBond NonConjugatedSingleBond
M  BCL CHI  32   S  33   S
M  BCL DBI Z Z - - -
M  END
> <ConfClashScore>
0 

> <ConfOneFourInteractionScore>
-0.982537 

> <ConfScore>
-0.0087779 

> <ConfScorePBest>
0.00809448 

> <ConfTolerance>
1.3738 

$$$$
L06.****
  PyMOL2.5          3D                             0

 49 48  0  0  0  0  0  0  0  0999 V2000
   -1.1682   -1.8633    0.4218 C   0  0  0  1  0  0  0  0  0  0  0  0
   -2.5061   -2.2918    0.9626 C   0  0  0  1  0  0  0  0  0  0  0  0
   -2.6858   -1.7702    1.8793 H   0  0  0  1  0  0  0  0  0  0  0  0
   -2.4760   -3.3447    1.1507 H   0  0  0  1  0  0  0  0  0  0  0  0
    4.9781    2.8598    0.3324 O   0  0  0  1  0  0  0  0  0  0  0  0
    5.2754    2.4678    2.6618 O   0  0  0  1  0  0  0  0  0  0  0  0
    5.1086    1.0395    2.7584 C   0  0  0  1  0  0  0  0  0  0  0  0
    5.4557    0.6997    3.7118 H   0  0  0  1  0  0  0  0  0  0  0  0
    5.6668    0.5581    1.9827 H   0  0  0  1  0  0  0  0  0  0  0  0
    3.5882    5.0789    0.9234 O   0  0  0  0  0  0  0  0  0  0  0  0
    3.6520    0.7170    2.6069 C   0  0  0  1  0  0  0  0  0  0  0  0
    2.9823    1.2119    3.2299 H   0  0  0  1  0  0  0  0  0  0  0  0
    3.1536   -0.1531    1.7367 C   0  0  0  1  0  0  0  0  0  0  0  0
    1.7450   -0.6650    1.8622 C   0  0  0  1  0  0  0  0  0  0  0  0
    1.2629   -0.1432    2.6623 H   0  0  0  1  0  0  0  0  0  0  0  0
    1.7814   -1.7103    2.0882 H   0  0  0  1  0  0  0  0  0  0  0  0
    0.9264   -0.4721    0.5961 C   0  0  0  1  0  0  0  0  0  0  0  0
    1.3093   -1.1130   -0.1703 H   0  0  0  1  0  0  0  0  0  0  0  0
    1.0033    0.5475    0.2806 H   0  0  0  1  0  0  0  0  0  0  0  0
   -0.5204   -0.8050    0.8404 C   0  0  0  1  0  0  0  0  0  0  0  0
   -1.0652   -0.1204    1.4027 H   0  0  0  1  0  0  0  0  0  0  0  0
   -3.6562   -2.0028    0.0068 C   0  0  0  1  0  0  0  0  0  0  0  0
   -4.5696   -2.3788    0.4182 H   0  0  0  1  0  0  0  0  0  0  0  0
   -3.4685   -2.4734   -0.9356 H   0  0  0  1  0  0  0  0  0  0  0  0
   -3.7599   -0.5247   -0.1809 C   0  0  0  1  0  0  0  0  0  0  0  0
   -2.9022    0.0017   -0.4431 H   0  0  0  1  0  0  0  0  0  0  0  0
   -4.8932    0.1501   -0.0296 C   0  0  0  1  0  0  0  0  0  0  0  0
   -6.2055   -0.5578    0.1556 C   0  0  0  1  0  0  0  0  0  0  0  0
   -6.0542   -1.6147    0.0847 H   0  0  0  1  0  0  0  0  0  0  0  0
   -6.8902   -0.2439   -0.6044 H   0  0  0  1  0  0  0  0  0  0  0  0
   -6.6065   -0.3190    1.1184 H   0  0  0  1  0  0  0  0  0  0  0  0
    6.0945    3.1232    1.4380 P   0  0  0  1  0  0  0  0  0  0  0  0
    3.4792    3.5177    0.4333 P   0  0  0  1  0  0  0  0  0  0  0  0
    6.2764    4.5656    1.6845 O   0  0  0  0  0  0  0  0  0  0  0  0
    2.8678    3.4570   -1.0657 O   0  5  0  1  0  0  0  0  0  0  0  0
    3.9209   -0.7034    0.5676 C   0  0  0  1  0  0  0  0  0  0  0  0
    4.9220   -0.3263    0.5880 H   0  0  0  1  0  0  0  0  0  0  0  0
    3.4458   -0.4041   -0.3432 H   0  0  0  1  0  0  0  0  0  0  0  0
    3.9411   -1.7716    0.6256 H   0  0  0  1  0  0  0  0  0  0  0  0
   -0.6080   -2.7565   -0.6624 C   0  0  0  1  0  0  0  0  0  0  0  0
   -0.2719   -2.1560   -1.4817 H   0  0  0  1  0  0  0  0  0  0  0  0
   -1.3701   -3.4270   -1.0009 H   0  0  0  1  0  0  0  0  0  0  0  0
    0.2144   -3.3186   -0.2716 H   0  0  0  1  0  0  0  0  0  0  0  0
   -4.9821    1.6482   -0.0273 C   0  0  0  1  0  0  0  0  0  0  0  0
   -4.0324    2.0628   -0.2938 H   0  0  0  1  0  0  0  0  0  0  0  0
   -5.2578    1.9874    0.9493 H   0  0  0  1  0  0  0  0  0  0  0  0
   -5.7197    1.9625   -0.7359 H   0  0  0  1  0  0  0  0  0  0  0  0
    7.2755    2.2929    1.1428 O   0  0  0  1  0  0  0  0  0  0  0  0
    2.6137    2.6431    1.2558 O   0  0  0  1  0  0  0  0  0  0  0  0
  1  2  1  0  0  0  0
  1 20  2  0  0  0  0
  1 40  1  0  0  0  0
  2  3  1  0  0  0  0
  2  4  1  0  0  0  0
  2 22  1  0  0  0  0
  5 32  1  0  0  0  0
  5 33  1  0  0  0  0
  6  7  1  0  0  0  0
  6 32  1  0  0  0  0
  7  8  1  0  0  0  0
  7  9  1  0  0  0  0
  7 11  1  0  0  0  0
 10 33  1  0  0  0  0
 11 12  1  0  0  0  0
 11 13  2  0  0  0  0
 13 14  1  0  0  0  0
 13 36  1  0  0  0  0
 14 15  1  0  0  0  0
 14 16  1  0  0  0  0
 14 17  1  0  0  0  0
 17 18  1  0  0  0  0
 17 19  1  0  0  0  0
 17 20  1  0  0  0  0
 20 21  1  0  0  0  0
 22 23  1  0  0  0  0
 22 24  1  0  0  0  0
 22 25  1  0  0  0  0
 25 26  1  0  0  0  0
 25 27  2  0  0  0  0
 27 28  1  0  0  0  0
 27 44  1  0  0  0  0
 28 29  1  0  0  0  0
 28 30  1  0  0  0  0
 28 31  1  0  0  0  0
 32 34  1  0  0  0  0
 32 48  2  0  0  0  0
 33 35  1  0  0  0  0
 33 49  2  0  0  0  0
 36 37  1  0  0  0  0
 36 38  1  0  0  0  0
 36 39  1  0  0  0  0
 40 41  1  0  0  0  0
 40 42  1  0  0  0  0
 40 43  1  0  0  0  0
 44 45  1  0  0  0  0
 44 46  1  0  0  0  0
 44 47  1  0  0  0  0
M  BCL ATM C_TrTrTrPi C_TeTeTeTe H_S H_S O_Tr2TrTrPi2 O_Tr2TrTrPi2 C_TeTeTeTe H_S H_S O_Te2Te2TeTe C_TrTrTrPi H_S C_TrTrTrPi C_TeTeTeTe H_S H_S C_TeTeTeTe H_S H_S C_TrTrTrPi H_S C_TeTeTeTe H_S H_S C_TrTrTrPi H_S C_TrTrTrPi C_TeTeTeTe H_S H_S H_S P_TeTeTeTePi P_TeTeTeTePi O_Te2Te2TeTe O_Te2Te2Te2Te C_TeTeTeTe H_S H_S H_S C_TeTeTeTe H_S H_S H_S C_TeTeTeTe H_S H_S H_S O_Tr2Tr2TrPi O_Tr2Tr2TrPi
M  BCL BND NonConjugatedSingleBond ConjugatedDoubleBond NonConjugatedSingleBond NonConjugatedSingleBond NonConjugatedSingleBond NonConjugatedSingleBond ConjugatedSingleBond ConjugatedSingleBond NonConjugatedSingleBond ConjugatedSingleBond NonConjugatedSingleBond NonConjugatedSingleBond NonConjugatedSingleBond ConjugatedSingleBond NonConjugatedSingleBond ConjugatedDoubleBond NonConjugatedSingleBond NonConjugatedSingleBond NonConjugatedSingleBond NonConjugatedSingleBond NonConjugatedSingleBond NonConjugatedSingleBond NonConjugatedSingleBond NonConjugatedSingleBond NonConjugatedSingleBond NonConjugatedSingleBond NonConjugatedSingleBond NonConjugatedSingleBond NonConjugatedSingleBond ConjugatedDoubleBond NonConjugatedSingleBond NonConjugatedSingleBond NonConjugatedSingleBond NonConjugatedSingleBond NonConjugatedSingleBond ConjugatedSingleBond ConjugatedDoubleBond ConjugatedSingleBond ConjugatedDoubleBond NonConjugatedSingleBond NonConjugatedSingleBond NonConjugatedSingleBond NonConjugatedSingleBond NonConjugatedSingleBond NonConjugatedSingleBond NonConjugatedSingleBond NonConjugatedSingleBond NonConjugatedSingleBond
M  BCL CHI  32   S  33   S
M  BCL DBI Z Z - - -
M  END
> <ConfClashScore>
0 

> <ConfOneFourInteractionScore>
-0.972961 

> <ConfScore>
-0.00654026 

> <ConfScorePBest>
0.00799148 

> <ConfTolerance>
1.47771 

$$$$
L06.****
  PyMOL2.5          3D                             0

 49 48  0  0  0  0  0  0  0  0999 V2000
   -0.5669    0.7116    2.0297 C   0  0  0  1  0  0  0  0  0  0  0  0
   -1.8491   -0.0604    1.8967 C   0  0  0  1  0  0  0  0  0  0  0  0
   -2.5419    0.3016    2.6273 H   0  0  0  1  0  0  0  0  0  0  0  0
   -1.6445   -1.0946    2.0801 H   0  0  0  1  0  0  0  0  0  0  0  0
    6.1160    1.1584   -2.7667 O   0  0  0  1  0  0  0  0  0  0  0  0
    6.7336    2.8580   -1.2181 O   0  0  0  1  0  0  0  0  0  0  0  0
    5.4984    3.5892   -1.2728 C   0  0  0  1  0  0  0  0  0  0  0  0
    5.3780    4.0063   -2.2508 H   0  0  0  1  0  0  0  0  0  0  0  0
    5.5222    4.3769   -0.5490 H   0  0  0  1  0  0  0  0  0  0  0  0
    5.0565    0.4693   -5.0533 O   0  0  0  0  0  0  0  0  0  0  0  0
    4.3429    2.6804   -0.9770 C   0  0  0  1  0  0  0  0  0  0  0  0
    4.2286    1.8813   -1.6327 H   0  0  0  1  0  0  0  0  0  0  0  0
    3.4395    2.7451    0.0030 C   0  0  0  1  0  0  0  0  0  0  0  0
    2.1688    1.9401   -0.0540 C   0  0  0  1  0  0  0  0  0  0  0  0
    2.4231    0.9009   -0.0426 H   0  0  0  1  0  0  0  0  0  0  0  0
    1.6586    2.1730   -0.9653 H   0  0  0  1  0  0  0  0  0  0  0  0
    1.2309    2.2225    1.1124 C   0  0  0  1  0  0  0  0  0  0  0  0
    0.9727    3.2607    1.0982 H   0  0  0  1  0  0  0  0  0  0  0  0
    1.7427    1.9941    2.0239 H   0  0  0  1  0  0  0  0  0  0  0  0
   -0.0369    1.4127    1.0590 C   0  0  0  1  0  0  0  0  0  0  0  0
   -0.5473    1.4097    0.1528 H   0  0  0  1  0  0  0  0  0  0  0  0
   -2.4833    0.0709    0.5216 C   0  0  0  1  0  0  0  0  0  0  0  0
   -1.8440   -0.4012   -0.1948 H   0  0  0  1  0  0  0  0  0  0  0  0
   -2.5758    1.1108    0.2872 H   0  0  0  1  0  0  0  0  0  0  0  0
   -3.8458   -0.5619    0.4381 C   0  0  0  1  0  0  0  0  0  0  0  0
   -3.9269   -1.5657    0.6979 H   0  0  0  1  0  0  0  0  0  0  0  0
   -4.9542    0.0667    0.0568 C   0  0  0  1  0  0  0  0  0  0  0  0
   -6.2756   -0.5864   -0.2270 C   0  0  0  1  0  0  0  0  0  0  0  0
   -6.3169   -1.5367    0.2631 H   0  0  0  1  0  0  0  0  0  0  0  0
   -6.3856   -0.7245   -1.2823 H   0  0  0  1  0  0  0  0  0  0  0  0
   -7.0663    0.0365    0.1360 H   0  0  0  1  0  0  0  0  0  0  0  0
    6.8137    1.2525   -1.3376 P   0  0  0  1  0  0  0  0  0  0  0  0
    6.2440    0.0764   -3.9925 P   0  0  0  1  0  0  0  0  0  0  0  0
    8.2262    0.8339   -1.4010 O   0  0  0  0  0  0  0  0  0  0  0  0
    7.7016    0.2843   -4.6683 O   0  5  0  1  0  0  0  0  0  0  0  0
    3.6542    3.6241    1.2028 C   0  0  0  1  0  0  0  0  0  0  0  0
    3.6416    3.0264    2.0903 H   0  0  0  1  0  0  0  0  0  0  0  0
    2.8739    4.3544    1.2538 H   0  0  0  1  0  0  0  0  0  0  0  0
    4.6001    4.1172    1.1187 H   0  0  0  1  0  0  0  0  0  0  0  0
    0.0818    0.6242    3.3801 C   0  0  0  1  0  0  0  0  0  0  0  0
    0.6500    1.5126    3.5615 H   0  0  0  1  0  0  0  0  0  0  0  0
    0.7307   -0.2261    3.4095 H   0  0  0  1  0  0  0  0  0  0  0  0
   -0.6727    0.5239    4.1321 H   0  0  0  1  0  0  0  0  0  0  0  0
   -4.9305    1.5720   -0.1199 C   0  0  0  1  0  0  0  0  0  0  0  0
   -5.7895    2.0007    0.3527 H   0  0  0  1  0  0  0  0  0  0  0  0
   -4.9425    1.8086   -1.1633 H   0  0  0  1  0  0  0  0  0  0  0  0
   -4.0428    1.9693    0.3262 H   0  0  0  1  0  0  0  0  0  0  0  0
    5.9310    0.6443   -0.3250 O   0  0  0  1  0  0  0  0  0  0  0  0
    6.1989   -1.3165   -3.4944 O   0  0  0  1  0  0  0  0  0  0  0  0
  1  2  1  0  0  0  0
  1 20  2  0  0  0  0
  1 40  1  0  0  0  0
  2  3  1  0  0  0  0
  2  4  1  0  0  0  0
  2 22  1  0  0  0  0
  5 32  1  0  0  0  0
  5 33  1  0  0  0  0
  6  7  1  0  0  0  0
  6 32  1  0  0  0  0
  7  8  1  0  0  0  0
  7  9  1  0  0  0  0
  7 11  1  0  0  0  0
 10 33  1  0  0  0  0
 11 12  1  0  0  0  0
 11 13  2  0  0  0  0
 13 14  1  0  0  0  0
 13 36  1  0  0  0  0
 14 15  1  0  0  0  0
 14 16  1  0  0  0  0
 14 17  1  0  0  0  0
 17 18  1  0  0  0  0
 17 19  1  0  0  0  0
 17 20  1  0  0  0  0
 20 21  1  0  0  0  0
 22 23  1  0  0  0  0
 22 24  1  0  0  0  0
 22 25  1  0  0  0  0
 25 26  1  0  0  0  0
 25 27  2  0  0  0  0
 27 28  1  0  0  0  0
 27 44  1  0  0  0  0
 28 29  1  0  0  0  0
 28 30  1  0  0  0  0
 28 31  1  0  0  0  0
 32 34  1  0  0  0  0
 32 48  2  0  0  0  0
 33 35  1  0  0  0  0
 33 49  2  0  0  0  0
 36 37  1  0  0  0  0
 36 38  1  0  0  0  0
 36 39  1  0  0  0  0
 40 41  1  0  0  0  0
 40 42  1  0  0  0  0
 40 43  1  0  0  0  0
 44 45  1  0  0  0  0
 44 46  1  0  0  0  0
 44 47  1  0  0  0  0
M  BCL ATM C_TrTrTrPi C_TeTeTeTe H_S H_S O_Tr2TrTrPi2 O_Tr2TrTrPi2 C_TeTeTeTe H_S H_S O_Te2Te2TeTe C_TrTrTrPi H_S C_TrTrTrPi C_TeTeTeTe H_S H_S C_TeTeTeTe H_S H_S C_TrTrTrPi H_S C_TeTeTeTe H_S H_S C_TrTrTrPi H_S C_TrTrTrPi C_TeTeTeTe H_S H_S H_S P_TeTeTeTePi P_TeTeTeTePi O_Te2Te2TeTe O_Te2Te2Te2Te C_TeTeTeTe H_S H_S H_S C_TeTeTeTe H_S H_S H_S C_TeTeTeTe H_S H_S H_S O_Tr2Tr2TrPi O_Tr2Tr2TrPi
M  BCL BND NonConjugatedSingleBond ConjugatedDoubleBond NonConjugatedSingleBond NonConjugatedSingleBond NonConjugatedSingleBond NonConjugatedSingleBond ConjugatedSingleBond ConjugatedSingleBond NonConjugatedSingleBond ConjugatedSingleBond NonConjugatedSingleBond NonConjugatedSingleBond NonConjugatedSingleBond ConjugatedSingleBond NonConjugatedSingleBond ConjugatedDoubleBond NonConjugatedSingleBond NonConjugatedSingleBond NonConjugatedSingleBond NonConjugatedSingleBond NonConjugatedSingleBond NonConjugatedSingleBond NonConjugatedSingleBond NonConjugatedSingleBond NonConjugatedSingleBond NonConjugatedSingleBond NonConjugatedSingleBond NonConjugatedSingleBond NonConjugatedSingleBond ConjugatedDoubleBond NonConjugatedSingleBond NonConjugatedSingleBond NonConjugatedSingleBond NonConjugatedSingleBond NonConjugatedSingleBond ConjugatedSingleBond ConjugatedDoubleBond ConjugatedSingleBond ConjugatedDoubleBond NonConjugatedSingleBond NonConjugatedSingleBond NonConjugatedSingleBond NonConjugatedSingleBond NonConjugatedSingleBond NonConjugatedSingleBond NonConjugatedSingleBond NonConjugatedSingleBond NonConjugatedSingleBond
M  BCL CHI  32   S  33   S
M  BCL DBI Z Z - - -
M  END
> <ConfClashScore>
0 

> <ConfOneFourInteractionScore>
-0.965893 

> <ConfScore>
-0.00571054 

> <ConfScorePBest>
0.00788848 

> <ConfTolerance>
1.45269 

$$$$
L06.****
  PyMOL2.5          3D                             0

 49 48  0  0  0  0  0  0  0  0999 V2000
   -3.2828   -2.3270    2.3810 C   0  0  0  1  0  0  0  0  0  0  0  0
   -2.7593   -2.6381    1.0102 C   0  0  0  1  0  0  0  0  0  0  0  0
   -2.7580   -3.7000    0.8790 H   0  0  0  1  0  0  0  0  0  0  0  0
   -1.7582   -2.2678    0.9357 H   0  0  0  1  0  0  0  0  0  0  0  0
   -1.9563   -0.4720   12.6091 O   0  0  0  1  0  0  0  0  0  0  0  0
   -2.2194    0.1276   10.2335 O   0  0  0  1  0  0  0  0  0  0  0  0
   -2.4075    0.7465    8.9612 C   0  0  0  1  0  0  0  0  0  0  0  0
   -1.7360    1.5734    8.8598 H   0  0  0  1  0  0  0  0  0  0  0  0
   -3.4162    1.0927    8.8744 H   0  0  0  1  0  0  0  0  0  0  0  0
   -1.5769   -2.6659   13.8202 O   0  0  0  0  0  0  0  0  0  0  0  0
   -2.1270   -0.2665    7.8905 C   0  0  0  1  0  0  0  0  0  0  0  0
   -1.1344   -0.5536    7.7724 H   0  0  0  1  0  0  0  0  0  0  0  0
   -3.0092   -0.8366    7.0767 C   0  0  0  1  0  0  0  0  0  0  0  0
   -2.6294   -1.5911    5.8267 C   0  0  0  1  0  0  0  0  0  0  0  0
   -2.9977   -2.5913    5.9201 H   0  0  0  1  0  0  0  0  0  0  0  0
   -1.5614   -1.6081    5.7631 H   0  0  0  1  0  0  0  0  0  0  0  0
   -3.1673   -1.0128    4.5280 C   0  0  0  1  0  0  0  0  0  0  0  0
   -2.9342    0.0314    4.5101 H   0  0  0  1  0  0  0  0  0  0  0  0
   -4.2295   -1.1418    4.5242 H   0  0  0  1  0  0  0  0  0  0  0  0
   -2.6202   -1.6319    3.2712 C   0  0  0  1  0  0  0  0  0  0  0  0
   -1.6057   -1.4928    3.0895 H   0  0  0  1  0  0  0  0  0  0  0  0
   -3.5896   -2.0145   -0.0999 C   0  0  0  1  0  0  0  0  0  0  0  0
   -4.5487   -2.4880   -0.1288 H   0  0  0  1  0  0  0  0  0  0  0  0
   -3.0909   -2.1604   -1.0352 H   0  0  0  1  0  0  0  0  0  0  0  0
   -3.7733   -0.5487    0.1347 C   0  0  0  1  0  0  0  0  0  0  0  0
   -2.9258   -0.0141    0.4132 H   0  0  0  1  0  0  0  0  0  0  0  0
   -4.9007    0.1438    0.0258 C   0  0  0  1  0  0  0  0  0  0  0  0
   -6.1754   -0.5056   -0.4336 C   0  0  0  1  0  0  0  0  0  0  0  0
   -5.9704   -1.1445   -1.2671 H   0  0  0  1  0  0  0  0  0  0  0  0
   -6.8745    0.2495   -0.7268 H   0  0  0  1  0  0  0  0  0  0  0  0
   -6.5889   -1.0842    0.3659 H   0  0  0  1  0  0  0  0  0  0  0  0
   -2.1931    0.8035   11.6643 P   0  0  0  1  0  0  0  0  0  0  0  0
   -2.5103   -2.0153   12.6391 P   0  0  0  1  0  0  0  0  0  0  0  0
   -1.0412    1.7137   11.8028 O   0  0  0  0  0  0  0  0  0  0  0  0
   -4.0446   -1.9860   13.1584 O   0  5  0  1  0  0  0  0  0  0  0  0
   -4.4859   -0.7708    7.3476 C   0  0  0  1  0  0  0  0  0  0  0  0
   -5.0012   -0.4924    6.4521 H   0  0  0  1  0  0  0  0  0  0  0  0
   -4.6766   -0.0438    8.1092 H   0  0  0  1  0  0  0  0  0  0  0  0
   -4.8315   -1.7293    7.6743 H   0  0  0  1  0  0  0  0  0  0  0  0
   -4.6476   -2.8778    2.6720 C   0  0  0  1  0  0  0  0  0  0  0  0
   -5.3347   -2.5441    1.9226 H   0  0  0  1  0  0  0  0  0  0  0  0
   -4.9731   -2.5349    3.6319 H   0  0  0  1  0  0  0  0  0  0  0  0
   -4.6086   -3.9471    2.6690 H   0  0  0  1  0  0  0  0  0  0  0  0
   -5.0192    1.6063    0.3408 C   0  0  0  1  0  0  0  0  0  0  0  0
   -5.1648    1.7344    1.3931 H   0  0  0  1  0  0  0  0  0  0  0  0
   -5.8538    2.0181   -0.1872 H   0  0  0  1  0  0  0  0  0  0  0  0
   -4.1235    2.1091    0.0411 H   0  0  0  1  0  0  0  0  0  0  0  0
   -3.5369    1.3305   11.9047 O   0  0  0  1  0  0  0  0  0  0  0  0
   -2.2671   -2.6685   11.3335 O   0  0  0  1  0  0  0  0  0  0  0  0
  1  2  1  0  0  0  0
  1 20  2  0  0  0  0
  1 40  1  0  0  0  0
  2  3  1  0  0  0  0
  2  4  1  0  0  0  0
  2 22  1  0  0  0  0
  5 32  1  0  0  0  0
  5 33  1  0  0  0  0
  6  7  1  0  0  0  0
  6 32  1  0  0  0  0
  7  8  1  0  0  0  0
  7  9  1  0  0  0  0
  7 11  1  0  0  0  0
 10 33  1  0  0  0  0
 11 12  1  0  0  0  0
 11 13  2  0  0  0  0
 13 14  1  0  0  0  0
 13 36  1  0  0  0  0
 14 15  1  0  0  0  0
 14 16  1  0  0  0  0
 14 17  1  0  0  0  0
 17 18  1  0  0  0  0
 17 19  1  0  0  0  0
 17 20  1  0  0  0  0
 20 21  1  0  0  0  0
 22 23  1  0  0  0  0
 22 24  1  0  0  0  0
 22 25  1  0  0  0  0
 25 26  1  0  0  0  0
 25 27  2  0  0  0  0
 27 28  1  0  0  0  0
 27 44  1  0  0  0  0
 28 29  1  0  0  0  0
 28 30  1  0  0  0  0
 28 31  1  0  0  0  0
 32 34  1  0  0  0  0
 32 48  2  0  0  0  0
 33 35  1  0  0  0  0
 33 49  2  0  0  0  0
 36 37  1  0  0  0  0
 36 38  1  0  0  0  0
 36 39  1  0  0  0  0
 40 41  1  0  0  0  0
 40 42  1  0  0  0  0
 40 43  1  0  0  0  0
 44 45  1  0  0  0  0
 44 46  1  0  0  0  0
 44 47  1  0  0  0  0
M  BCL ATM C_TrTrTrPi C_TeTeTeTe H_S H_S O_Tr2TrTrPi2 O_Tr2TrTrPi2 C_TeTeTeTe H_S H_S O_Te2Te2TeTe C_TrTrTrPi H_S C_TrTrTrPi C_TeTeTeTe H_S H_S C_TeTeTeTe H_S H_S C_TrTrTrPi H_S C_TeTeTeTe H_S H_S C_TrTrTrPi H_S C_TrTrTrPi C_TeTeTeTe H_S H_S H_S P_TeTeTeTePi P_TeTeTeTePi O_Te2Te2TeTe O_Te2Te2Te2Te C_TeTeTeTe H_S H_S H_S C_TeTeTeTe H_S H_S H_S C_TeTeTeTe H_S H_S H_S O_Tr2Tr2TrPi O_Tr2Tr2TrPi
M  BCL BND NonConjugatedSingleBond ConjugatedDoubleBond NonConjugatedSingleBond NonConjugatedSingleBond NonConjugatedSingleBond NonConjugatedSingleBond ConjugatedSingleBond ConjugatedSingleBond NonConjugatedSingleBond ConjugatedSingleBond NonConjugatedSingleBond NonConjugatedSingleBond NonConjugatedSingleBond ConjugatedSingleBond NonConjugatedSingleBond ConjugatedDoubleBond NonConjugatedSingleBond NonConjugatedSingleBond NonConjugatedSingleBond NonConjugatedSingleBond NonConjugatedSingleBond NonConjugatedSingleBond NonConjugatedSingleBond NonConjugatedSingleBond NonConjugatedSingleBond NonConjugatedSingleBond NonConjugatedSingleBond NonConjugatedSingleBond NonConjugatedSingleBond ConjugatedDoubleBond NonConjugatedSingleBond NonConjugatedSingleBond NonConjugatedSingleBond NonConjugatedSingleBond NonConjugatedSingleBond ConjugatedSingleBond ConjugatedDoubleBond ConjugatedSingleBond ConjugatedDoubleBond NonConjugatedSingleBond NonConjugatedSingleBond NonConjugatedSingleBond NonConjugatedSingleBond NonConjugatedSingleBond NonConjugatedSingleBond NonConjugatedSingleBond NonConjugatedSingleBond NonConjugatedSingleBond
M  BCL CHI  32   S  33   S
M  BCL DBI Z Z - - -
M  END
> <ConfClashScore>
0 

> <ConfOneFourInteractionScore>
-0.976267 

> <ConfScore>
-0.00559924 

> <ConfScorePBest>
0.00778548 

> <ConfTolerance>
1.52215 

$$$$
L06.****
  PyMOL2.5          3D                             0

 49 48  0  0  0  0  0  0  0  0999 V2000
   -2.4100   -4.0581   -0.4863 C   0  0  0  1  0  0  0  0  0  0  0  0
   -2.5391   -2.6079   -0.1209 C   0  0  0  1  0  0  0  0  0  0  0  0
   -1.6523   -2.0976   -0.4339 H   0  0  0  1  0  0  0  0  0  0  0  0
   -2.6388   -2.5319    0.9417 H   0  0  0  1  0  0  0  0  0  0  0  0
   -4.6635  -11.7016   -4.9841 O   0  0  0  1  0  0  0  0  0  0  0  0
   -3.5090  -10.2858   -3.2336 O   0  0  0  1  0  0  0  0  0  0  0  0
   -2.4777   -9.7219   -4.0675 C   0  0  0  1  0  0  0  0  0  0  0  0
   -2.8561   -9.6178   -5.0630 H   0  0  0  1  0  0  0  0  0  0  0  0
   -1.6366  -10.3833   -4.0725 H   0  0  0  1  0  0  0  0  0  0  0  0
   -4.9192  -13.0053   -7.2613 O   0  0  0  0  0  0  0  0  0  0  0  0
   -2.0332   -8.3749   -3.5737 C   0  0  0  1  0  0  0  0  0  0  0  0
   -1.5536   -8.3346   -2.6517 H   0  0  0  1  0  0  0  0  0  0  0  0
   -2.2070   -7.2309   -4.2269 C   0  0  0  1  0  0  0  0  0  0  0  0
   -1.9366   -5.8771   -3.6268 C   0  0  0  1  0  0  0  0  0  0  0  0
   -2.7637   -5.2405   -3.8625 H   0  0  0  1  0  0  0  0  0  0  0  0
   -1.0470   -5.4883   -4.0767 H   0  0  0  1  0  0  0  0  0  0  0  0
   -1.7458   -5.8591   -2.1189 C   0  0  0  1  0  0  0  0  0  0  0  0
   -0.8269   -6.3600   -1.8965 H   0  0  0  1  0  0  0  0  0  0  0  0
   -2.5603   -6.3939   -1.6768 H   0  0  0  1  0  0  0  0  0  0  0  0
   -1.6931   -4.4930   -1.4921 C   0  0  0  1  0  0  0  0  0  0  0  0
   -1.0135   -3.8208   -1.9019 H   0  0  0  1  0  0  0  0  0  0  0  0
   -3.7385   -1.9352   -0.7686 C   0  0  0  1  0  0  0  0  0  0  0  0
   -4.6294   -2.3995   -0.4004 H   0  0  0  1  0  0  0  0  0  0  0  0
   -3.6754   -2.0730   -1.8278 H   0  0  0  1  0  0  0  0  0  0  0  0
   -3.8134   -0.4595   -0.4811 C   0  0  0  1  0  0  0  0  0  0  0  0
   -2.9514    0.1037   -0.6276 H   0  0  0  1  0  0  0  0  0  0  0  0
   -4.8928    0.1738   -0.0563 C   0  0  0  1  0  0  0  0  0  0  0  0
   -6.1976   -0.5674    0.0185 C   0  0  0  1  0  0  0  0  0  0  0  0
   -6.6576   -0.5792   -0.9475 H   0  0  0  1  0  0  0  0  0  0  0  0
   -6.8456   -0.0789    0.7159 H   0  0  0  1  0  0  0  0  0  0  0  0
   -6.0188   -1.5721    0.3404 H   0  0  0  1  0  0  0  0  0  0  0  0
   -4.9150  -10.6615   -3.8322 P   0  0  0  1  0  0  0  0  0  0  0  0
   -5.5024  -12.8956   -5.7325 P   0  0  0  1  0  0  0  0  0  0  0  0
   -5.7180  -11.3825   -2.7967 O   0  0  0  0  0  0  0  0  0  0  0  0
   -5.1343  -14.2653   -4.9496 O   0  5  0  1  0  0  0  0  0  0  0  0
   -2.6980   -7.2029   -5.6469 C   0  0  0  1  0  0  0  0  0  0  0  0
   -2.3179   -6.3323   -6.1392 H   0  0  0  1  0  0  0  0  0  0  0  0
   -3.7677   -7.1778   -5.6537 H   0  0  0  1  0  0  0  0  0  0  0  0
   -2.3581   -8.0789   -6.1589 H   0  0  0  1  0  0  0  0  0  0  0  0
   -3.1745   -4.9989    0.3977 C   0  0  0  1  0  0  0  0  0  0  0  0
   -3.7082   -5.7025   -0.2065 H   0  0  0  1  0  0  0  0  0  0  0  0
   -3.8676   -4.4435    0.9943 H   0  0  0  1  0  0  0  0  0  0  0  0
   -2.4929   -5.5217    1.0356 H   0  0  0  1  0  0  0  0  0  0  0  0
   -4.9507    1.6101    0.3747 C   0  0  0  1  0  0  0  0  0  0  0  0
   -3.9726    2.0400    0.3172 H   0  0  0  1  0  0  0  0  0  0  0  0
   -5.3057    1.6657    1.3826 H   0  0  0  1  0  0  0  0  0  0  0  0
   -5.6152    2.1486   -0.2682 H   0  0  0  1  0  0  0  0  0  0  0  0
   -5.5129   -9.4129   -4.3403 O   0  0  0  1  0  0  0  0  0  0  0  0
   -6.9629  -12.7402   -5.5502 O   0  0  0  1  0  0  0  0  0  0  0  0
  1  2  1  0  0  0  0
  1 20  2  0  0  0  0
  1 40  1  0  0  0  0
  2  3  1  0  0  0  0
  2  4  1  0  0  0  0
  2 22  1  0  0  0  0
  5 32  1  0  0  0  0
  5 33  1  0  0  0  0
  6  7  1  0  0  0  0
  6 32  1  0  0  0  0
  7  8  1  0  0  0  0
  7  9  1  0  0  0  0
  7 11  1  0  0  0  0
 10 33  1  0  0  0  0
 11 12  1  0  0  0  0
 11 13  2  0  0  0  0
 13 14  1  0  0  0  0
 13 36  1  0  0  0  0
 14 15  1  0  0  0  0
 14 16  1  0  0  0  0
 14 17  1  0  0  0  0
 17 18  1  0  0  0  0
 17 19  1  0  0  0  0
 17 20  1  0  0  0  0
 20 21  1  0  0  0  0
 22 23  1  0  0  0  0
 22 24  1  0  0  0  0
 22 25  1  0  0  0  0
 25 26  1  0  0  0  0
 25 27  2  0  0  0  0
 27 28  1  0  0  0  0
 27 44  1  0  0  0  0
 28 29  1  0  0  0  0
 28 30  1  0  0  0  0
 28 31  1  0  0  0  0
 32 34  1  0  0  0  0
 32 48  2  0  0  0  0
 33 35  1  0  0  0  0
 33 49  2  0  0  0  0
 36 37  1  0  0  0  0
 36 38  1  0  0  0  0
 36 39  1  0  0  0  0
 40 41  1  0  0  0  0
 40 42  1  0  0  0  0
 40 43  1  0  0  0  0
 44 45  1  0  0  0  0
 44 46  1  0  0  0  0
 44 47  1  0  0  0  0
M  BCL ATM C_TrTrTrPi C_TeTeTeTe H_S H_S O_Tr2TrTrPi2 O_Tr2TrTrPi2 C_TeTeTeTe H_S H_S O_Te2Te2TeTe C_TrTrTrPi H_S C_TrTrTrPi C_TeTeTeTe H_S H_S C_TeTeTeTe H_S H_S C_TrTrTrPi H_S C_TeTeTeTe H_S H_S C_TrTrTrPi H_S C_TrTrTrPi C_TeTeTeTe H_S H_S H_S P_TeTeTeTePi P_TeTeTeTePi O_Te2Te2TeTe O_Te2Te2Te2Te C_TeTeTeTe H_S H_S H_S C_TeTeTeTe H_S H_S H_S C_TeTeTeTe H_S H_S H_S O_Tr2Tr2TrPi O_Tr2Tr2TrPi
M  BCL BND NonConjugatedSingleBond ConjugatedDoubleBond NonConjugatedSingleBond NonConjugatedSingleBond NonConjugatedSingleBond NonConjugatedSingleBond ConjugatedSingleBond ConjugatedSingleBond NonConjugatedSingleBond ConjugatedSingleBond NonConjugatedSingleBond NonConjugatedSingleBond NonConjugatedSingleBond ConjugatedSingleBond NonConjugatedSingleBond ConjugatedDoubleBond NonConjugatedSingleBond NonConjugatedSingleBond NonConjugatedSingleBond NonConjugatedSingleBond NonConjugatedSingleBond NonConjugatedSingleBond NonConjugatedSingleBond NonConjugatedSingleBond NonConjugatedSingleBond NonConjugatedSingleBond NonConjugatedSingleBond NonConjugatedSingleBond NonConjugatedSingleBond ConjugatedDoubleBond NonConjugatedSingleBond NonConjugatedSingleBond NonConjugatedSingleBond NonConjugatedSingleBond NonConjugatedSingleBond ConjugatedSingleBond ConjugatedDoubleBond ConjugatedSingleBond ConjugatedDoubleBond NonConjugatedSingleBond NonConjugatedSingleBond NonConjugatedSingleBond NonConjugatedSingleBond NonConjugatedSingleBond NonConjugatedSingleBond NonConjugatedSingleBond NonConjugatedSingleBond NonConjugatedSingleBond
M  BCL CHI  32   S  33   S
M  BCL DBI Z Z - - -
M  END
> <ConfClashScore>
0 

> <ConfOneFourInteractionScore>
-0.979561 

> <ConfScore>
-0.00559903 

> <ConfScorePBest>
0.00768248 

> <ConfTolerance>
1.40027 

$$$$
L06.****
  PyMOL2.5          3D                             0

 49 48  0  0  0  0  0  0  0  0999 V2000
   -0.3612   -0.3838   -1.8461 C   0  0  0  1  0  0  0  0  0  0  0  0
   -1.7517   -0.8611   -1.5229 C   0  0  0  1  0  0  0  0  0  0  0  0
   -1.6971   -1.8832   -1.2110 H   0  0  0  1  0  0  0  0  0  0  0  0
   -2.3506   -0.7890   -2.4067 H   0  0  0  1  0  0  0  0  0  0  0  0
    8.2147    1.5638   -1.3586 O   0  0  0  1  0  0  0  0  0  0  0  0
    6.0829    2.0852   -2.6666 O   0  0  0  1  0  0  0  0  0  0  0  0
    5.2211    3.1920   -2.3359 C   0  0  0  1  0  0  0  0  0  0  0  0
    5.1934    3.8685   -3.1645 H   0  0  0  1  0  0  0  0  0  0  0  0
    5.6167    3.6941   -1.4779 H   0  0  0  1  0  0  0  0  0  0  0  0
    6.9996   -0.5070   -0.2708 O   0  0  0  0  0  0  0  0  0  0  0  0
    3.8230    2.7401   -2.0317 C   0  0  0  1  0  0  0  0  0  0  0  0
    3.3639    2.1035   -2.7140 H   0  0  0  1  0  0  0  0  0  0  0  0
    3.1284    3.0923   -0.9565 C   0  0  0  1  0  0  0  0  0  0  0  0
    1.8612    2.3707   -0.5700 C   0  0  0  1  0  0  0  0  0  0  0  0
    1.0525    3.0711   -0.5843 H   0  0  0  1  0  0  0  0  0  0  0  0
    1.9793    1.9815    0.4198 H   0  0  0  1  0  0  0  0  0  0  0  0
    1.5221    1.2209   -1.5046 C   0  0  0  1  0  0  0  0  0  0  0  0
    2.3472    0.5398   -1.5200 H   0  0  0  1  0  0  0  0  0  0  0  0
    1.3661    1.6153   -2.4870 H   0  0  0  1  0  0  0  0  0  0  0  0
    0.2879    0.4685   -1.0892 C   0  0  0  1  0  0  0  0  0  0  0  0
   -0.0782    0.6364   -0.1304 H   0  0  0  1  0  0  0  0  0  0  0  0
   -2.4172   -0.0537   -0.4204 C   0  0  0  1  0  0  0  0  0  0  0  0
   -2.4826    0.9697   -0.7257 H   0  0  0  1  0  0  0  0  0  0  0  0
   -1.8282   -0.1238    0.4701 H   0  0  0  1  0  0  0  0  0  0  0  0
   -3.7882   -0.5693   -0.1415 C   0  0  0  1  0  0  0  0  0  0  0  0
   -3.8595   -1.6009   -0.0306 H   0  0  0  1  0  0  0  0  0  0  0  0
   -4.9324    0.0941   -0.0137 C   0  0  0  1  0  0  0  0  0  0  0  0
   -6.2578   -0.5695    0.2325 C   0  0  0  1  0  0  0  0  0  0  0  0
   -6.9168    0.1186    0.7195 H   0  0  0  1  0  0  0  0  0  0  0  0
   -6.1162   -1.4284    0.8547 H   0  0  0  1  0  0  0  0  0  0  0  0
   -6.6842   -0.8713   -0.7013 H   0  0  0  1  0  0  0  0  0  0  0  0
    7.7261    2.2464   -2.6148 P   0  0  0  1  0  0  0  0  0  0  0  0
    8.4049   -0.0152   -0.9586 P   0  0  0  1  0  0  0  0  0  0  0  0
    8.1421    1.4955   -3.8699 O   0  0  0  0  0  0  0  0  0  0  0  0
    8.7884   -0.8112   -2.3165 O   0  5  0  1  0  0  0  0  0  0  0  0
    3.5180    4.2130   -0.0376 C   0  0  0  1  0  0  0  0  0  0  0  0
    4.4026    4.6876   -0.4081 H   0  0  0  1  0  0  0  0  0  0  0  0
    3.7060    3.8227    0.9408 H   0  0  0  1  0  0  0  0  0  0  0  0
    2.7232    4.9278    0.0097 H   0  0  0  1  0  0  0  0  0  0  0  0
    0.3132   -0.9089   -3.0938 C   0  0  0  1  0  0  0  0  0  0  0  0
    0.4478   -1.9670   -3.0086 H   0  0  0  1  0  0  0  0  0  0  0  0
    1.2662   -0.4365   -3.2095 H   0  0  0  1  0  0  0  0  0  0  0  0
   -0.2974   -0.6947   -3.9459 H   0  0  0  1  0  0  0  0  0  0  0  0
   -4.9871    1.5908   -0.1080 C   0  0  0  1  0  0  0  0  0  0  0  0
   -5.5385    1.8738   -0.9802 H   0  0  0  1  0  0  0  0  0  0  0  0
   -3.9927    1.9804   -0.1730 H   0  0  0  1  0  0  0  0  0  0  0  0
   -5.4692    1.9853    0.7620 H   0  0  0  1  0  0  0  0  0  0  0  0
    8.0060    3.7271   -2.6755 O   0  0  0  1  0  0  0  0  0  0  0  0
    9.4957   -0.0099    0.0416 O   0  0  0  1  0  0  0  0  0  0  0  0
  1  2  1  0  0  0  0
  1 20  2  0  0  0  0
  1 40  1  0  0  0  0
  2  3  1  0  0  0  0
  2  4  1  0  0  0  0
  2 22  1  0  0  0  0
  5 32  1  0  0  0  0
  5 33  1  0  0  0  0
  6  7  1  0  0  0  0
  6 32  1  0  0  0  0
  7  8  1  0  0  0  0
  7  9  1  0  0  0  0
  7 11  1  0  0  0  0
 10 33  1  0  0  0  0
 11 12  1  0  0  0  0
 11 13  2  0  0  0  0
 13 14  1  0  0  0  0
 13 36  1  0  0  0  0
 14 15  1  0  0  0  0
 14 16  1  0  0  0  0
 14 17  1  0  0  0  0
 17 18  1  0  0  0  0
 17 19  1  0  0  0  0
 17 20  1  0  0  0  0
 20 21  1  0  0  0  0
 22 23  1  0  0  0  0
 22 24  1  0  0  0  0
 22 25  1  0  0  0  0
 25 26  1  0  0  0  0
 25 27  2  0  0  0  0
 27 28  1  0  0  0  0
 27 44  1  0  0  0  0
 28 29  1  0  0  0  0
 28 30  1  0  0  0  0
 28 31  1  0  0  0  0
 32 34  1  0  0  0  0
 32 48  2  0  0  0  0
 33 35  1  0  0  0  0
 33 49  2  0  0  0  0
 36 37  1  0  0  0  0
 36 38  1  0  0  0  0
 36 39  1  0  0  0  0
 40 41  1  0  0  0  0
 40 42  1  0  0  0  0
 40 43  1  0  0  0  0
 44 45  1  0  0  0  0
 44 46  1  0  0  0  0
 44 47  1  0  0  0  0
M  BCL ATM C_TrTrTrPi C_TeTeTeTe H_S H_S O_Tr2TrTrPi2 O_Tr2TrTrPi2 C_TeTeTeTe H_S H_S O_Te2Te2TeTe C_TrTrTrPi H_S C_TrTrTrPi C_TeTeTeTe H_S H_S C_TeTeTeTe H_S H_S C_TrTrTrPi H_S C_TeTeTeTe H_S H_S C_TrTrTrPi H_S C_TrTrTrPi C_TeTeTeTe H_S H_S H_S P_TeTeTeTePi P_TeTeTeTePi O_Te2Te2TeTe O_Te2Te2Te2Te C_TeTeTeTe H_S H_S H_S C_TeTeTeTe H_S H_S H_S C_TeTeTeTe H_S H_S H_S O_Tr2Tr2TrPi O_Tr2Tr2TrPi
M  BCL BND NonConjugatedSingleBond ConjugatedDoubleBond NonConjugatedSingleBond NonConjugatedSingleBond NonConjugatedSingleBond NonConjugatedSingleBond ConjugatedSingleBond ConjugatedSingleBond NonConjugatedSingleBond ConjugatedSingleBond NonConjugatedSingleBond NonConjugatedSingleBond NonConjugatedSingleBond ConjugatedSingleBond NonConjugatedSingleBond ConjugatedDoubleBond NonConjugatedSingleBond NonConjugatedSingleBond NonConjugatedSingleBond NonConjugatedSingleBond NonConjugatedSingleBond NonConjugatedSingleBond NonConjugatedSingleBond NonConjugatedSingleBond NonConjugatedSingleBond NonConjugatedSingleBond NonConjugatedSingleBond NonConjugatedSingleBond NonConjugatedSingleBond ConjugatedDoubleBond NonConjugatedSingleBond NonConjugatedSingleBond NonConjugatedSingleBond NonConjugatedSingleBond NonConjugatedSingleBond ConjugatedSingleBond ConjugatedDoubleBond ConjugatedSingleBond ConjugatedDoubleBond NonConjugatedSingleBond NonConjugatedSingleBond NonConjugatedSingleBond NonConjugatedSingleBond NonConjugatedSingleBond NonConjugatedSingleBond NonConjugatedSingleBond NonConjugatedSingleBond NonConjugatedSingleBond
M  BCL CHI  32   S  33   S
M  BCL DBI Z Z - - -
M  END
> <ConfClashScore>
0 

> <ConfOneFourInteractionScore>
-0.985736 

> <ConfScore>
-0.00528817 

> <ConfScorePBest>
0.00757948 

> <ConfTolerance>
1.41571 

$$$$
L06.****
  PyMOL2.5          3D                             0

 49 48  0  0  0  0  0  0  0  0999 V2000
   -1.4080    0.9049   -3.2290 C   0  0  0  1  0  0  0  0  0  0  0  0
   -2.5352    0.1257   -2.6191 C   0  0  0  1  0  0  0  0  0  0  0  0
   -2.3760   -0.9057   -2.8552 H   0  0  0  1  0  0  0  0  0  0  0  0
   -3.4416    0.4614   -3.0781 H   0  0  0  1  0  0  0  0  0  0  0  0
    5.6884    3.3271   -6.2241 O   0  0  0  1  0  0  0  0  0  0  0  0
    3.8718    5.0264   -5.6412 O   0  0  0  1  0  0  0  0  0  0  0  0
    2.5668    5.6380   -5.8110 C   0  0  0  1  0  0  0  0  0  0  0  0
    2.4436    5.9714   -6.8202 H   0  0  0  1  0  0  0  0  0  0  0  0
    2.4585    6.4682   -5.1448 H   0  0  0  1  0  0  0  0  0  0  0  0
    6.1071    4.4240   -8.5954 O   0  0  0  0  0  0  0  0  0  0  0  0
    1.5541    4.5790   -5.4880 C   0  0  0  1  0  0  0  0  0  0  0  0
    1.5805    4.1911   -4.5234 H   0  0  0  1  0  0  0  0  0  0  0  0
    0.6273    4.0831   -6.3006 C   0  0  0  1  0  0  0  0  0  0  0  0
   -0.5459    3.2709   -5.8300 C   0  0  0  1  0  0  0  0  0  0  0  0
   -0.5229    2.3310   -6.3410 H   0  0  0  1  0  0  0  0  0  0  0  0
   -1.4391    3.7983   -6.0924 H   0  0  0  1  0  0  0  0  0  0  0  0
   -0.5880    2.9911   -4.3334 C   0  0  0  1  0  0  0  0  0  0  0  0
   -0.8003    3.9065   -3.8217 H   0  0  0  1  0  0  0  0  0  0  0  0
    0.3702    2.6253   -4.0283 H   0  0  0  1  0  0  0  0  0  0  0  0
   -1.6320    1.9758   -3.9525 C   0  0  0  1  0  0  0  0  0  0  0  0
   -2.6034    2.1354   -4.2879 H   0  0  0  1  0  0  0  0  0  0  0  0
   -2.7242    0.2238   -1.1141 C   0  0  0  1  0  0  0  0  0  0  0  0
   -2.8496    1.2538   -0.8530 H   0  0  0  1  0  0  0  0  0  0  0  0
   -1.8486   -0.1620   -0.6351 H   0  0  0  1  0  0  0  0  0  0  0  0
   -3.9067   -0.5367   -0.6239 C   0  0  0  1  0  0  0  0  0  0  0  0
   -3.9190   -1.5729   -0.7115 H   0  0  0  1  0  0  0  0  0  0  0  0
   -4.9465    0.0836   -0.0767 C   0  0  0  1  0  0  0  0  0  0  0  0
   -6.2364   -0.5999    0.2680 C   0  0  0  1  0  0  0  0  0  0  0  0
   -7.0326   -0.1686   -0.3020 H   0  0  0  1  0  0  0  0  0  0  0  0
   -6.4376   -0.4761    1.3116 H   0  0  0  1  0  0  0  0  0  0  0  0
   -6.1592   -1.6425    0.0404 H   0  0  0  1  0  0  0  0  0  0  0  0
    4.1913    3.5275   -6.2575 P   0  0  0  1  0  0  0  0  0  0  0  0
    6.8537    3.8496   -7.2529 P   0  0  0  1  0  0  0  0  0  0  0  0
    3.4742    2.6323   -5.2593 O   0  0  0  0  0  0  0  0  0  0  0  0
    7.4937    5.2082   -6.6453 O   0  5  0  1  0  0  0  0  0  0  0  0
    0.6848    4.3030   -7.7862 C   0  0  0  1  0  0  0  0  0  0  0  0
   -0.2210    4.7691   -8.1136 H   0  0  0  1  0  0  0  0  0  0  0  0
    0.8005    3.3617   -8.2816 H   0  0  0  1  0  0  0  0  0  0  0  0
    1.5158    4.9348   -8.0210 H   0  0  0  1  0  0  0  0  0  0  0  0
   -0.0398    0.3593   -2.9415 C   0  0  0  1  0  0  0  0  0  0  0  0
    0.0629   -0.6045   -3.3948 H   0  0  0  1  0  0  0  0  0  0  0  0
    0.0939    0.2717   -1.8835 H   0  0  0  1  0  0  0  0  0  0  0  0
    0.6993    1.0218   -3.3413 H   0  0  0  1  0  0  0  0  0  0  0  0
   -4.9066    1.5486    0.2447 C   0  0  0  1  0  0  0  0  0  0  0  0
   -4.9498    2.1145   -0.6623 H   0  0  0  1  0  0  0  0  0  0  0  0
   -3.9984    1.7751    0.7632 H   0  0  0  1  0  0  0  0  0  0  0  0
   -5.7430    1.8008    0.8625 H   0  0  0  1  0  0  0  0  0  0  0  0
    3.5840    3.5016   -7.6378 O   0  0  0  1  0  0  0  0  0  0  0  0
    7.8993    2.8707   -7.6258 O   0  0  0  1  0  0  0  0  0  0  0  0
  1  2  1  0  0  0  0
  1 20  2  0  0  0  0
  1 40  1  0  0  0  0
  2  3  1  0  0  0  0
  2  4  1  0  0  0  0
  2 22  1  0  0  0  0
  5 32  1  0  0  0  0
  5 33  1  0  0  0  0
  6  7  1  0  0  0  0
  6 32  1  0  0  0  0
  7  8  1  0  0  0  0
  7  9  1  0  0  0  0
  7 11  1  0  0  0  0
 10 33  1  0  0  0  0
 11 12  1  0  0  0  0
 11 13  2  0  0  0  0
 13 14  1  0  0  0  0
 13 36  1  0  0  0  0
 14 15  1  0  0  0  0
 14 16  1  0  0  0  0
 14 17  1  0  0  0  0
 17 18  1  0  0  0  0
 17 19  1  0  0  0  0
 17 20  1  0  0  0  0
 20 21  1  0  0  0  0
 22 23  1  0  0  0  0
 22 24  1  0  0  0  0
 22 25  1  0  0  0  0
 25 26  1  0  0  0  0
 25 27  2  0  0  0  0
 27 28  1  0  0  0  0
 27 44  1  0  0  0  0
 28 29  1  0  0  0  0
 28 30  1  0  0  0  0
 28 31  1  0  0  0  0
 32 34  1  0  0  0  0
 32 48  2  0  0  0  0
 33 35  1  0  0  0  0
 33 49  2  0  0  0  0
 36 37  1  0  0  0  0
 36 38  1  0  0  0  0
 36 39  1  0  0  0  0
 40 41  1  0  0  0  0
 40 42  1  0  0  0  0
 40 43  1  0  0  0  0
 44 45  1  0  0  0  0
 44 46  1  0  0  0  0
 44 47  1  0  0  0  0
M  BCL ATM C_TrTrTrPi C_TeTeTeTe H_S H_S O_Tr2TrTrPi2 O_Tr2TrTrPi2 C_TeTeTeTe H_S H_S O_Te2Te2TeTe C_TrTrTrPi H_S C_TrTrTrPi C_TeTeTeTe H_S H_S C_TeTeTeTe H_S H_S C_TrTrTrPi H_S C_TeTeTeTe H_S H_S C_TrTrTrPi H_S C_TrTrTrPi C_TeTeTeTe H_S H_S H_S P_TeTeTeTePi P_TeTeTeTePi O_Te2Te2TeTe O_Te2Te2Te2Te C_TeTeTeTe H_S H_S H_S C_TeTeTeTe H_S H_S H_S C_TeTeTeTe H_S H_S H_S O_Tr2Tr2TrPi O_Tr2Tr2TrPi
M  BCL BND NonConjugatedSingleBond ConjugatedDoubleBond NonConjugatedSingleBond NonConjugatedSingleBond NonConjugatedSingleBond NonConjugatedSingleBond ConjugatedSingleBond ConjugatedSingleBond NonConjugatedSingleBond ConjugatedSingleBond NonConjugatedSingleBond NonConjugatedSingleBond NonConjugatedSingleBond ConjugatedSingleBond NonConjugatedSingleBond ConjugatedDoubleBond NonConjugatedSingleBond NonConjugatedSingleBond NonConjugatedSingleBond NonConjugatedSingleBond NonConjugatedSingleBond NonConjugatedSingleBond NonConjugatedSingleBond NonConjugatedSingleBond NonConjugatedSingleBond NonConjugatedSingleBond NonConjugatedSingleBond NonConjugatedSingleBond NonConjugatedSingleBond ConjugatedDoubleBond NonConjugatedSingleBond NonConjugatedSingleBond NonConjugatedSingleBond NonConjugatedSingleBond NonConjugatedSingleBond ConjugatedSingleBond ConjugatedDoubleBond ConjugatedSingleBond ConjugatedDoubleBond NonConjugatedSingleBond NonConjugatedSingleBond NonConjugatedSingleBond NonConjugatedSingleBond NonConjugatedSingleBond NonConjugatedSingleBond NonConjugatedSingleBond NonConjugatedSingleBond NonConjugatedSingleBond
M  BCL CHI  32   S  33   S
M  BCL DBI Z Z - - -
M  END
> <ConfClashScore>
0 

> <ConfOneFourInteractionScore>
-0.976508 

> <ConfScore>
-0.00499665 

> <ConfScorePBest>
0.00747648 

> <ConfTolerance>
1.46979 

$$$$
L06.****
  PyMOL2.5          3D                             0

 49 48  0  0  0  0  0  0  0  0999 V2000
   -2.2933   -4.0693   -0.5068 C   0  0  0  1  0  0  0  0  0  0  0  0
   -2.6312   -2.6399   -0.8364 C   0  0  0  1  0  0  0  0  0  0  0  0
   -3.1435   -2.6189   -1.7755 H   0  0  0  1  0  0  0  0  0  0  0  0
   -1.7203   -2.0838   -0.9138 H   0  0  0  1  0  0  0  0  0  0  0  0
   -6.4435  -11.7631   -2.7703 O   0  0  0  1  0  0  0  0  0  0  0  0
   -4.1723  -11.4425   -1.9598 O   0  0  0  1  0  0  0  0  0  0  0  0
   -2.7689  -11.1519   -2.0591 C   0  0  0  1  0  0  0  0  0  0  0  0
   -2.3419  -11.7085   -2.8670 H   0  0  0  1  0  0  0  0  0  0  0  0
   -2.2804  -11.4173   -1.1449 H   0  0  0  1  0  0  0  0  0  0  0  0
   -7.2758  -12.4112   -5.2247 O   0  0  0  0  0  0  0  0  0  0  0  0
   -2.6016   -9.6827   -2.3134 C   0  0  0  1  0  0  0  0  0  0  0  0
   -2.9120   -9.3155   -3.2357 H   0  0  0  1  0  0  0  0  0  0  0  0
   -2.0869   -8.8164   -1.4490 C   0  0  0  1  0  0  0  0  0  0  0  0
   -1.9563   -7.3584   -1.7878 C   0  0  0  1  0  0  0  0  0  0  0  0
   -2.3080   -7.2082   -2.7871 H   0  0  0  1  0  0  0  0  0  0  0  0
   -0.9232   -7.0861   -1.7281 H   0  0  0  1  0  0  0  0  0  0  0  0
   -2.7489   -6.4571   -0.8552 C   0  0  0  1  0  0  0  0  0  0  0  0
   -2.3144   -6.5108    0.1211 H   0  0  0  1  0  0  0  0  0  0  0  0
   -3.7583   -6.8101   -0.8169 H   0  0  0  1  0  0  0  0  0  0  0  0
   -2.7610   -5.0334   -1.2909 C   0  0  0  1  0  0  0  0  0  0  0  0
   -3.1430   -4.7894   -2.2270 H   0  0  0  1  0  0  0  0  0  0  0  0
   -3.5151   -1.9786    0.2130 C   0  0  0  1  0  0  0  0  0  0  0  0
   -3.0447   -2.0816    1.1685 H   0  0  0  1  0  0  0  0  0  0  0  0
   -4.4613   -2.4782    0.2251 H   0  0  0  1  0  0  0  0  0  0  0  0
   -3.7491   -0.5165   -0.0504 C   0  0  0  1  0  0  0  0  0  0  0  0
   -2.9115    0.0509   -0.2917 H   0  0  0  1  0  0  0  0  0  0  0  0
   -4.9097    0.1290   -0.0082 C   0  0  0  1  0  0  0  0  0  0  0  0
   -6.2134   -0.5240    0.3487 C   0  0  0  1  0  0  0  0  0  0  0  0
   -6.5980   -0.0866    1.2462 H   0  0  0  1  0  0  0  0  0  0  0  0
   -6.0574   -1.5715    0.5011 H   0  0  0  1  0  0  0  0  0  0  0  0
   -6.9141   -0.3793   -0.4470 H   0  0  0  1  0  0  0  0  0  0  0  0
   -5.2264  -10.7428   -2.9399 P   0  0  0  1  0  0  0  0  0  0  0  0
   -7.0980  -12.9546   -3.6876 P   0  0  0  1  0  0  0  0  0  0  0  0
   -5.5283   -9.4128   -2.3178 O   0  0  0  0  0  0  0  0  0  0  0  0
   -6.0309  -14.1730   -3.7241 O   0  5  0  1  0  0  0  0  0  0  0  0
   -1.5949   -9.1897   -0.0813 C   0  0  0  1  0  0  0  0  0  0  0  0
   -1.7391   -8.3667    0.5871 H   0  0  0  1  0  0  0  0  0  0  0  0
   -0.5536   -9.4307   -0.1306 H   0  0  0  1  0  0  0  0  0  0  0  0
   -2.1414  -10.0380    0.2748 H   0  0  0  1  0  0  0  0  0  0  0  0
   -1.4513   -4.3435    0.6808 C   0  0  0  1  0  0  0  0  0  0  0  0
   -0.5670   -3.7425    0.6382 H   0  0  0  1  0  0  0  0  0  0  0  0
   -1.1787   -5.3781    0.6934 H   0  0  0  1  0  0  0  0  0  0  0  0
   -1.9999   -4.1078    1.5688 H   0  0  0  1  0  0  0  0  0  0  0  0
   -5.0058    1.5955   -0.3221 C   0  0  0  1  0  0  0  0  0  0  0  0
   -5.3395    1.7238   -1.3306 H   0  0  0  1  0  0  0  0  0  0  0  0
   -4.0438    2.0490   -0.2045 H   0  0  0  1  0  0  0  0  0  0  0  0
   -5.7026    2.0580    0.3455 H   0  0  0  1  0  0  0  0  0  0  0  0
   -4.7505  -10.7070   -4.3596 O   0  0  0  1  0  0  0  0  0  0  0  0
   -8.3839  -13.4690   -3.1658 O   0  0  0  1  0  0  0  0  0  0  0  0
  1  2  1  0  0  0  0
  1 20  2  0  0  0  0
  1 40  1  0  0  0  0
  2  3  1  0  0  0  0
  2  4  1  0  0  0  0
  2 22  1  0  0  0  0
  5 32  1  0  0  0  0
  5 33  1  0  0  0  0
  6  7  1  0  0  0  0
  6 32  1  0  0  0  0
  7  8  1  0  0  0  0
  7  9  1  0  0  0  0
  7 11  1  0  0  0  0
 10 33  1  0  0  0  0
 11 12  1  0  0  0  0
 11 13  2  0  0  0  0
 13 14  1  0  0  0  0
 13 36  1  0  0  0  0
 14 15  1  0  0  0  0
 14 16  1  0  0  0  0
 14 17  1  0  0  0  0
 17 18  1  0  0  0  0
 17 19  1  0  0  0  0
 17 20  1  0  0  0  0
 20 21  1  0  0  0  0
 22 23  1  0  0  0  0
 22 24  1  0  0  0  0
 22 25  1  0  0  0  0
 25 26  1  0  0  0  0
 25 27  2  0  0  0  0
 27 28  1  0  0  0  0
 27 44  1  0  0  0  0
 28 29  1  0  0  0  0
 28 30  1  0  0  0  0
 28 31  1  0  0  0  0
 32 34  1  0  0  0  0
 32 48  2  0  0  0  0
 33 35  1  0  0  0  0
 33 49  2  0  0  0  0
 36 37  1  0  0  0  0
 36 38  1  0  0  0  0
 36 39  1  0  0  0  0
 40 41  1  0  0  0  0
 40 42  1  0  0  0  0
 40 43  1  0  0  0  0
 44 45  1  0  0  0  0
 44 46  1  0  0  0  0
 44 47  1  0  0  0  0
M  BCL ATM C_TrTrTrPi C_TeTeTeTe H_S H_S O_Tr2TrTrPi2 O_Tr2TrTrPi2 C_TeTeTeTe H_S H_S O_Te2Te2TeTe C_TrTrTrPi H_S C_TrTrTrPi C_TeTeTeTe H_S H_S C_TeTeTeTe H_S H_S C_TrTrTrPi H_S C_TeTeTeTe H_S H_S C_TrTrTrPi H_S C_TrTrTrPi C_TeTeTeTe H_S H_S H_S P_TeTeTeTePi P_TeTeTeTePi O_Te2Te2TeTe O_Te2Te2Te2Te C_TeTeTeTe H_S H_S H_S C_TeTeTeTe H_S H_S H_S C_TeTeTeTe H_S H_S H_S O_Tr2Tr2TrPi O_Tr2Tr2TrPi
M  BCL BND NonConjugatedSingleBond ConjugatedDoubleBond NonConjugatedSingleBond NonConjugatedSingleBond NonConjugatedSingleBond NonConjugatedSingleBond ConjugatedSingleBond ConjugatedSingleBond NonConjugatedSingleBond ConjugatedSingleBond NonConjugatedSingleBond NonConjugatedSingleBond NonConjugatedSingleBond ConjugatedSingleBond NonConjugatedSingleBond ConjugatedDoubleBond NonConjugatedSingleBond NonConjugatedSingleBond NonConjugatedSingleBond NonConjugatedSingleBond NonConjugatedSingleBond NonConjugatedSingleBond NonConjugatedSingleBond NonConjugatedSingleBond NonConjugatedSingleBond NonConjugatedSingleBond NonConjugatedSingleBond NonConjugatedSingleBond NonConjugatedSingleBond ConjugatedDoubleBond NonConjugatedSingleBond NonConjugatedSingleBond NonConjugatedSingleBond NonConjugatedSingleBond NonConjugatedSingleBond ConjugatedSingleBond ConjugatedDoubleBond ConjugatedSingleBond ConjugatedDoubleBond NonConjugatedSingleBond NonConjugatedSingleBond NonConjugatedSingleBond NonConjugatedSingleBond NonConjugatedSingleBond NonConjugatedSingleBond NonConjugatedSingleBond NonConjugatedSingleBond NonConjugatedSingleBond
M  BCL CHI  32   S  33   S
M  BCL DBI Z Z - - -
M  END
> <ConfClashScore>
0 

> <ConfOneFourInteractionScore>
-0.969908 

> <ConfScore>
-0.00407332 

> <ConfScorePBest>
0.00737347 

> <ConfTolerance>
1.45346 

$$$$
L06.****
  PyMOL2.5          3D                             0

 49 48  0  0  0  0  0  0  0  0999 V2000
   -2.5003   -1.6399   -2.0286 C   0  0  0  1  0  0  0  0  0  0  0  0
   -2.3677   -2.2090   -0.6413 C   0  0  0  1  0  0  0  0  0  0  0  0
   -1.5316   -1.7449   -0.1613 H   0  0  0  1  0  0  0  0  0  0  0  0
   -2.1950   -3.2620   -0.7202 H   0  0  0  1  0  0  0  0  0  0  0  0
   -1.2559    2.4702   -9.7263 O   0  0  0  1  0  0  0  0  0  0  0  0
   -0.4601    2.4972   -7.5162 O   0  0  0  1  0  0  0  0  0  0  0  0
   -1.6128    3.0415   -6.8437 C   0  0  0  1  0  0  0  0  0  0  0  0
   -2.4550    3.0277   -7.5037 H   0  0  0  1  0  0  0  0  0  0  0  0
   -1.4121    4.0482   -6.5418 H   0  0  0  1  0  0  0  0  0  0  0  0
   -2.6888    3.8902  -11.4211 O   0  0  0  0  0  0  0  0  0  0  0  0
   -1.9033    2.2005   -5.6366 C   0  0  0  1  0  0  0  0  0  0  0  0
   -1.7675    1.1749   -5.7425 H   0  0  0  1  0  0  0  0  0  0  0  0
   -2.3149    2.6233   -4.4473 C   0  0  0  1  0  0  0  0  0  0  0  0
   -2.3856    1.6936   -3.2690 C   0  0  0  1  0  0  0  0  0  0  0  0
   -3.3830    1.7095   -2.8820 H   0  0  0  1  0  0  0  0  0  0  0  0
   -1.7060    2.0416   -2.5194 H   0  0  0  1  0  0  0  0  0  0  0  0
   -2.0249    0.2563   -3.6207 C   0  0  0  1  0  0  0  0  0  0  0  0
   -1.1321    0.2637   -4.2103 H   0  0  0  1  0  0  0  0  0  0  0  0
   -2.8259   -0.1661   -4.1907 H   0  0  0  1  0  0  0  0  0  0  0  0
   -1.7920   -0.6065   -2.4093 C   0  0  0  1  0  0  0  0  0  0  0  0
   -0.9804   -0.3545   -1.8098 H   0  0  0  1  0  0  0  0  0  0  0  0
   -3.6032   -1.9841    0.2151 C   0  0  0  1  0  0  0  0  0  0  0  0
   -3.4731   -2.5009    1.1430 H   0  0  0  1  0  0  0  0  0  0  0  0
   -4.4519   -2.3832   -0.3000 H   0  0  0  1  0  0  0  0  0  0  0  0
   -3.8591   -0.5395    0.5065 C   0  0  0  1  0  0  0  0  0  0  0  0
   -3.1604   -0.0349    1.0885 H   0  0  0  1  0  0  0  0  0  0  0  0
   -4.9118    0.1465    0.0777 C   0  0  0  1  0  0  0  0  0  0  0  0
   -6.1160   -0.5466   -0.4941 C   0  0  0  1  0  0  0  0  0  0  0  0
   -5.9503   -1.6037   -0.5003 H   0  0  0  1  0  0  0  0  0  0  0  0
   -6.2817   -0.2059   -1.4948 H   0  0  0  1  0  0  0  0  0  0  0  0
   -6.9737   -0.3238    0.1056 H   0  0  0  1  0  0  0  0  0  0  0  0
    0.0307    3.0962   -8.9498 P   0  0  0  1  0  0  0  0  0  0  0  0
   -1.8163    2.5101  -11.2671 P   0  0  0  1  0  0  0  0  0  0  0  0
   -0.0527    4.5765   -8.9413 O   0  0  0  0  0  0  0  0  0  0  0  0
   -0.5182    2.5179  -12.2362 O   0  5  0  1  0  0  0  0  0  0  0  0
   -2.7417    4.0354   -4.1605 C   0  0  0  1  0  0  0  0  0  0  0  0
   -2.4208    4.3131   -3.1783 H   0  0  0  1  0  0  0  0  0  0  0  0
   -3.8078    4.1046   -4.2200 H   0  0  0  1  0  0  0  0  0  0  0  0
   -2.3004    4.6940   -4.8791 H   0  0  0  1  0  0  0  0  0  0  0  0
   -3.5492   -2.2293   -2.9508 C   0  0  0  1  0  0  0  0  0  0  0  0
   -3.4066   -3.2872   -3.0239 H   0  0  0  1  0  0  0  0  0  0  0  0
   -3.4576   -1.7894   -3.9219 H   0  0  0  1  0  0  0  0  0  0  0  0
   -4.5236   -2.0273   -2.5576 H   0  0  0  1  0  0  0  0  0  0  0  0
   -5.0087    1.6436    0.1170 C   0  0  0  1  0  0  0  0  0  0  0  0
   -4.8083    1.9885    1.1098 H   0  0  0  1  0  0  0  0  0  0  0  0
   -5.9936    1.9447   -0.1730 H   0  0  0  1  0  0  0  0  0  0  0  0
   -4.2932    2.0649   -0.5579 H   0  0  0  1  0  0  0  0  0  0  0  0
    1.2766    2.4382   -9.3826 O   0  0  0  1  0  0  0  0  0  0  0  0
   -2.6366    1.2956  -11.4737 O   0  0  0  1  0  0  0  0  0  0  0  0
  1  2  1  0  0  0  0
  1 20  2  0  0  0  0
  1 40  1  0  0  0  0
  2  3  1  0  0  0  0
  2  4  1  0  0  0  0
  2 22  1  0  0  0  0
  5 32  1  0  0  0  0
  5 33  1  0  0  0  0
  6  7  1  0  0  0  0
  6 32  1  0  0  0  0
  7  8  1  0  0  0  0
  7  9  1  0  0  0  0
  7 11  1  0  0  0  0
 10 33  1  0  0  0  0
 11 12  1  0  0  0  0
 11 13  2  0  0  0  0
 13 14  1  0  0  0  0
 13 36  1  0  0  0  0
 14 15  1  0  0  0  0
 14 16  1  0  0  0  0
 14 17  1  0  0  0  0
 17 18  1  0  0  0  0
 17 19  1  0  0  0  0
 17 20  1  0  0  0  0
 20 21  1  0  0  0  0
 22 23  1  0  0  0  0
 22 24  1  0  0  0  0
 22 25  1  0  0  0  0
 25 26  1  0  0  0  0
 25 27  2  0  0  0  0
 27 28  1  0  0  0  0
 27 44  1  0  0  0  0
 28 29  1  0  0  0  0
 28 30  1  0  0  0  0
 28 31  1  0  0  0  0
 32 34  1  0  0  0  0
 32 48  2  0  0  0  0
 33 35  1  0  0  0  0
 33 49  2  0  0  0  0
 36 37  1  0  0  0  0
 36 38  1  0  0  0  0
 36 39  1  0  0  0  0
 40 41  1  0  0  0  0
 40 42  1  0  0  0  0
 40 43  1  0  0  0  0
 44 45  1  0  0  0  0
 44 46  1  0  0  0  0
 44 47  1  0  0  0  0
M  BCL ATM C_TrTrTrPi C_TeTeTeTe H_S H_S O_Tr2TrTrPi2 O_Tr2TrTrPi2 C_TeTeTeTe H_S H_S O_Te2Te2TeTe C_TrTrTrPi H_S C_TrTrTrPi C_TeTeTeTe H_S H_S C_TeTeTeTe H_S H_S C_TrTrTrPi H_S C_TeTeTeTe H_S H_S C_TrTrTrPi H_S C_TrTrTrPi C_TeTeTeTe H_S H_S H_S P_TeTeTeTePi P_TeTeTeTePi O_Te2Te2TeTe O_Te2Te2Te2Te C_TeTeTeTe H_S H_S H_S C_TeTeTeTe H_S H_S H_S C_TeTeTeTe H_S H_S H_S O_Tr2Tr2TrPi O_Tr2Tr2TrPi
M  BCL BND NonConjugatedSingleBond ConjugatedDoubleBond NonConjugatedSingleBond NonConjugatedSingleBond NonConjugatedSingleBond NonConjugatedSingleBond ConjugatedSingleBond ConjugatedSingleBond NonConjugatedSingleBond ConjugatedSingleBond NonConjugatedSingleBond NonConjugatedSingleBond NonConjugatedSingleBond ConjugatedSingleBond NonConjugatedSingleBond ConjugatedDoubleBond NonConjugatedSingleBond NonConjugatedSingleBond NonConjugatedSingleBond NonConjugatedSingleBond NonConjugatedSingleBond NonConjugatedSingleBond NonConjugatedSingleBond NonConjugatedSingleBond NonConjugatedSingleBond NonConjugatedSingleBond NonConjugatedSingleBond NonConjugatedSingleBond NonConjugatedSingleBond ConjugatedDoubleBond NonConjugatedSingleBond NonConjugatedSingleBond NonConjugatedSingleBond NonConjugatedSingleBond NonConjugatedSingleBond ConjugatedSingleBond ConjugatedDoubleBond ConjugatedSingleBond ConjugatedDoubleBond NonConjugatedSingleBond NonConjugatedSingleBond NonConjugatedSingleBond NonConjugatedSingleBond NonConjugatedSingleBond NonConjugatedSingleBond NonConjugatedSingleBond NonConjugatedSingleBond NonConjugatedSingleBond
M  BCL CHI  32   S  33   S
M  BCL DBI Z Z - - -
M  END
> <ConfClashScore>
0 

> <ConfOneFourInteractionScore>
-0.974866 

> <ConfScore>
-0.00321195 

> <ConfScorePBest>
0.00727047 

> <ConfTolerance>
1.46235 

$$$$
L06.****
  PyMOL2.5          3D                             0

 49 48  0  0  0  0  0  0  0  0999 V2000
   -2.4208   -4.0626    0.5519 C   0  0  0  1  0  0  0  0  0  0  0  0
   -2.5877   -2.6216    0.1706 C   0  0  0  1  0  0  0  0  0  0  0  0
   -2.7162   -2.5626   -0.8901 H   0  0  0  1  0  0  0  0  0  0  0  0
   -1.7033   -2.0898    0.4533 H   0  0  0  1  0  0  0  0  0  0  0  0
   -6.3738   -3.2549    4.1204 O   0  0  0  1  0  0  0  0  0  0  0  0
   -3.9537   -3.1818    3.8694 O   0  0  0  1  0  0  0  0  0  0  0  0
   -3.4170   -4.2809    4.6227 C   0  0  0  1  0  0  0  0  0  0  0  0
   -4.2169   -4.8659    5.0263 H   0  0  0  1  0  0  0  0  0  0  0  0
   -2.8091   -3.9084    5.4205 H   0  0  0  1  0  0  0  0  0  0  0  0
   -7.5370   -3.9157    6.3372 O   0  0  0  0  0  0  0  0  0  0  0  0
   -2.5843   -5.1277    3.7058 C   0  0  0  1  0  0  0  0  0  0  0  0
   -3.0065   -5.4143    2.7996 H   0  0  0  1  0  0  0  0  0  0  0  0
   -1.3543   -5.5365    3.9639 C   0  0  0  1  0  0  0  0  0  0  0  0
   -0.4730   -6.0912    2.8826 C   0  0  0  1  0  0  0  0  0  0  0  0
   -0.2950   -7.1265    3.0859 H   0  0  0  1  0  0  0  0  0  0  0  0
    0.4558   -5.5601    2.8944 H   0  0  0  1  0  0  0  0  0  0  0  0
   -1.0830   -5.9683    1.4958 C   0  0  0  1  0  0  0  0  0  0  0  0
   -2.0154   -6.4931    1.4862 H   0  0  0  1  0  0  0  0  0  0  0  0
   -0.4148   -6.4144    0.7891 H   0  0  0  1  0  0  0  0  0  0  0  0
   -1.3303   -4.5507    1.0879 C   0  0  0  1  0  0  0  0  0  0  0  0
   -0.5517   -3.8799    1.2473 H   0  0  0  1  0  0  0  0  0  0  0  0
   -3.7830   -1.9631    0.8400 C   0  0  0  1  0  0  0  0  0  0  0  0
   -3.7105   -2.1190    1.8961 H   0  0  0  1  0  0  0  0  0  0  0  0
   -4.6760   -2.4232    0.4715 H   0  0  0  1  0  0  0  0  0  0  0  0
   -3.8632   -0.4922    0.5803 C   0  0  0  1  0  0  0  0  0  0  0  0
   -3.0295    0.0839    0.8140 H   0  0  0  1  0  0  0  0  0  0  0  0
   -4.9203    0.1332    0.0733 C   0  0  0  1  0  0  0  0  0  0  0  0
   -6.1626   -0.5715   -0.3888 C   0  0  0  1  0  0  0  0  0  0  0  0
   -6.1317   -1.5935   -0.0735 H   0  0  0  1  0  0  0  0  0  0  0  0
   -6.2199   -0.5295   -1.4564 H   0  0  0  1  0  0  0  0  0  0  0  0
   -7.0215   -0.0938    0.0341 H   0  0  0  1  0  0  0  0  0  0  0  0
   -5.1518   -2.2612    4.3971 P   0  0  0  1  0  0  0  0  0  0  0  0
   -7.8202   -3.1958    4.8911 P   0  0  0  1  0  0  0  0  0  0  0  0
   -4.9037   -2.0851    5.8625 O   0  0  0  0  0  0  0  0  0  0  0  0
   -8.0398   -1.5933    4.9807 O   0  5  0  1  0  0  0  0  0  0  0  0
   -0.7241   -5.4915    5.3274 C   0  0  0  1  0  0  0  0  0  0  0  0
   -1.3812   -4.9921    6.0083 H   0  0  0  1  0  0  0  0  0  0  0  0
    0.2037   -4.9612    5.2739 H   0  0  0  1  0  0  0  0  0  0  0  0
   -0.5460   -6.4891    5.6709 H   0  0  0  1  0  0  0  0  0  0  0  0
   -3.6156   -4.9300    0.2718 C   0  0  0  1  0  0  0  0  0  0  0  0
   -3.6107   -5.7698    0.9349 H   0  0  0  1  0  0  0  0  0  0  0  0
   -3.5763   -5.2748   -0.7403 H   0  0  0  1  0  0  0  0  0  0  0  0
   -4.5106   -4.3629    0.4215 H   0  0  0  1  0  0  0  0  0  0  0  0
   -4.9515    1.6280   -0.0787 C   0  0  0  1  0  0  0  0  0  0  0  0
   -5.2469    2.0751    0.8474 H   0  0  0  1  0  0  0  0  0  0  0  0
   -5.6521    1.8940   -0.8424 H   0  0  0  1  0  0  0  0  0  0  0  0
   -3.9776    1.9791   -0.3494 H   0  0  0  1  0  0  0  0  0  0  0  0
   -5.2954   -1.0053    3.6062 O   0  0  0  1  0  0  0  0  0  0  0  0
   -8.7721   -3.9340    4.0312 O   0  0  0  1  0  0  0  0  0  0  0  0
  1  2  1  0  0  0  0
  1 20  2  0  0  0  0
  1 40  1  0  0  0  0
  2  3  1  0  0  0  0
  2  4  1  0  0  0  0
  2 22  1  0  0  0  0
  5 32  1  0  0  0  0
  5 33  1  0  0  0  0
  6  7  1  0  0  0  0
  6 32  1  0  0  0  0
  7  8  1  0  0  0  0
  7  9  1  0  0  0  0
  7 11  1  0  0  0  0
 10 33  1  0  0  0  0
 11 12  1  0  0  0  0
 11 13  2  0  0  0  0
 13 14  1  0  0  0  0
 13 36  1  0  0  0  0
 14 15  1  0  0  0  0
 14 16  1  0  0  0  0
 14 17  1  0  0  0  0
 17 18  1  0  0  0  0
 17 19  1  0  0  0  0
 17 20  1  0  0  0  0
 20 21  1  0  0  0  0
 22 23  1  0  0  0  0
 22 24  1  0  0  0  0
 22 25  1  0  0  0  0
 25 26  1  0  0  0  0
 25 27  2  0  0  0  0
 27 28  1  0  0  0  0
 27 44  1  0  0  0  0
 28 29  1  0  0  0  0
 28 30  1  0  0  0  0
 28 31  1  0  0  0  0
 32 34  1  0  0  0  0
 32 48  2  0  0  0  0
 33 35  1  0  0  0  0
 33 49  2  0  0  0  0
 36 37  1  0  0  0  0
 36 38  1  0  0  0  0
 36 39  1  0  0  0  0
 40 41  1  0  0  0  0
 40 42  1  0  0  0  0
 40 43  1  0  0  0  0
 44 45  1  0  0  0  0
 44 46  1  0  0  0  0
 44 47  1  0  0  0  0
M  BCL ATM C_TrTrTrPi C_TeTeTeTe H_S H_S O_Tr2TrTrPi2 O_Tr2TrTrPi2 C_TeTeTeTe H_S H_S O_Te2Te2TeTe C_TrTrTrPi H_S C_TrTrTrPi C_TeTeTeTe H_S H_S C_TeTeTeTe H_S H_S C_TrTrTrPi H_S C_TeTeTeTe H_S H_S C_TrTrTrPi H_S C_TrTrTrPi C_TeTeTeTe H_S H_S H_S P_TeTeTeTePi P_TeTeTeTePi O_Te2Te2TeTe O_Te2Te2Te2Te C_TeTeTeTe H_S H_S H_S C_TeTeTeTe H_S H_S H_S C_TeTeTeTe H_S H_S H_S O_Tr2Tr2TrPi O_Tr2Tr2TrPi
M  BCL BND NonConjugatedSingleBond ConjugatedDoubleBond NonConjugatedSingleBond NonConjugatedSingleBond NonConjugatedSingleBond NonConjugatedSingleBond ConjugatedSingleBond ConjugatedSingleBond NonConjugatedSingleBond ConjugatedSingleBond NonConjugatedSingleBond NonConjugatedSingleBond NonConjugatedSingleBond ConjugatedSingleBond NonConjugatedSingleBond ConjugatedDoubleBond NonConjugatedSingleBond NonConjugatedSingleBond NonConjugatedSingleBond NonConjugatedSingleBond NonConjugatedSingleBond NonConjugatedSingleBond NonConjugatedSingleBond NonConjugatedSingleBond NonConjugatedSingleBond NonConjugatedSingleBond NonConjugatedSingleBond NonConjugatedSingleBond NonConjugatedSingleBond ConjugatedDoubleBond NonConjugatedSingleBond NonConjugatedSingleBond NonConjugatedSingleBond NonConjugatedSingleBond NonConjugatedSingleBond ConjugatedSingleBond ConjugatedDoubleBond ConjugatedSingleBond ConjugatedDoubleBond NonConjugatedSingleBond NonConjugatedSingleBond NonConjugatedSingleBond NonConjugatedSingleBond NonConjugatedSingleBond NonConjugatedSingleBond NonConjugatedSingleBond NonConjugatedSingleBond NonConjugatedSingleBond
M  BCL CHI  32   S  33   S
M  BCL DBI Z Z - - -
M  END
> <ConfClashScore>
0 

> <ConfOneFourInteractionScore>
-0.979561 

> <ConfScore>
-0.00319548 

> <ConfScorePBest>
0.00716747 

> <ConfTolerance>
1.61185 

$$$$
L06.****
  PyMOL2.5          3D                             0

 49 48  0  0  0  0  0  0  0  0999 V2000
   -0.1406    0.3596    0.3290 C   0  0  0  1  0  0  0  0  0  0  0  0
   -1.4353   -0.3696    0.1160 C   0  0  0  1  0  0  0  0  0  0  0  0
   -1.2751   -1.4016    0.3489 H   0  0  0  1  0  0  0  0  0  0  0  0
   -1.7024   -0.2736   -0.9157 H   0  0  0  1  0  0  0  0  0  0  0  0
   -0.7974    1.6141   -6.9326 O   0  0  0  1  0  0  0  0  0  0  0  0
   -0.1800    0.5690   -4.7266 O   0  0  0  1  0  0  0  0  0  0  0  0
    1.1807    1.0430   -4.7586 C   0  0  0  1  0  0  0  0  0  0  0  0
    1.2137    2.0142   -5.2065 H   0  0  0  1  0  0  0  0  0  0  0  0
    1.7846    0.3668   -5.3271 H   0  0  0  1  0  0  0  0  0  0  0  0
   -0.0532    3.7046   -8.3590 O   0  0  0  0  0  0  0  0  0  0  0  0
    1.6943    1.1180   -3.3509 C   0  0  0  1  0  0  0  0  0  0  0  0
    1.1476    1.7298   -2.7119 H   0  0  0  1  0  0  0  0  0  0  0  0
    2.7442    0.5185   -2.7997 C   0  0  0  1  0  0  0  0  0  0  0  0
    2.9814    0.4468   -1.3115 C   0  0  0  1  0  0  0  0  0  0  0  0
    3.9779    0.7797   -1.1090 H   0  0  0  1  0  0  0  0  0  0  0  0
    2.8741   -0.5707   -0.9982 H   0  0  0  1  0  0  0  0  0  0  0  0
    2.0132    1.3038   -0.5123 C   0  0  0  1  0  0  0  0  0  0  0  0
    2.0879    2.3139   -0.8573 H   0  0  0  1  0  0  0  0  0  0  0  0
    2.2900    1.2576    0.5202 H   0  0  0  1  0  0  0  0  0  0  0  0
    0.5832    0.8571   -0.6451 C   0  0  0  1  0  0  0  0  0  0  0  0
    0.1349    0.9497   -1.5790 H   0  0  0  1  0  0  0  0  0  0  0  0
   -2.6058    0.1233    0.9512 C   0  0  0  1  0  0  0  0  0  0  0  0
   -2.7010    1.1801    0.8138 H   0  0  0  1  0  0  0  0  0  0  0  0
   -2.4018   -0.0862    1.9805 H   0  0  0  1  0  0  0  0  0  0  0  0
   -3.9111   -0.5277    0.5793 C   0  0  0  1  0  0  0  0  0  0  0  0
   -4.0000   -1.5520    0.7363 H   0  0  0  1  0  0  0  0  0  0  0  0
   -4.9626    0.1113    0.0632 C   0  0  0  1  0  0  0  0  0  0  0  0
   -6.2348   -0.6194   -0.2611 C   0  0  0  1  0  0  0  0  0  0  0  0
   -7.0380   -0.2117    0.3164 H   0  0  0  1  0  0  0  0  0  0  0  0
   -6.1191   -1.6572   -0.0277 H   0  0  0  1  0  0  0  0  0  0  0  0
   -6.4533   -0.5097   -1.3028 H   0  0  0  1  0  0  0  0  0  0  0  0
   -0.9090    0.2194   -6.1211 P   0  0  0  1  0  0  0  0  0  0  0  0
    0.1123    2.0793   -8.2155 P   0  0  0  1  0  0  0  0  0  0  0  0
   -0.1946   -0.8240   -6.9344 O   0  0  0  0  0  0  0  0  0  0  0  0
    1.6220    1.9710   -7.6381 O   0  5  0  1  0  0  0  0  0  0  0  0
    3.7985   -0.1486   -3.6375 C   0  0  0  1  0  0  0  0  0  0  0  0
    3.4914   -0.1511   -4.6625 H   0  0  0  1  0  0  0  0  0  0  0  0
    3.9344   -1.1561   -3.3038 H   0  0  0  1  0  0  0  0  0  0  0  0
    4.7203    0.3865   -3.5429 H   0  0  0  1  0  0  0  0  0  0  0  0
    0.2817    0.4851    1.7658 C   0  0  0  1  0  0  0  0  0  0  0  0
   -0.1133    1.3908    2.1764 H   0  0  0  1  0  0  0  0  0  0  0  0
    1.3500    0.5041    1.8229 H   0  0  0  1  0  0  0  0  0  0  0  0
   -0.0909   -0.3503    2.3211 H   0  0  0  1  0  0  0  0  0  0  0  0
   -4.9170    1.5854   -0.2142 C   0  0  0  1  0  0  0  0  0  0  0  0
   -5.3729    2.1156    0.5957 H   0  0  0  1  0  0  0  0  0  0  0  0
   -5.4469    1.7942   -1.1200 H   0  0  0  1  0  0  0  0  0  0  0  0
   -3.8986    1.8976   -0.3162 H   0  0  0  1  0  0  0  0  0  0  0  0
   -2.3177   -0.0632   -5.9220 O   0  0  0  1  0  0  0  0  0  0  0  0
   -0.2053    1.2898   -9.4264 O   0  0  0  1  0  0  0  0  0  0  0  0
  1  2  1  0  0  0  0
  1 20  2  0  0  0  0
  1 40  1  0  0  0  0
  2  3  1  0  0  0  0
  2  4  1  0  0  0  0
  2 22  1  0  0  0  0
  5 32  1  0  0  0  0
  5 33  1  0  0  0  0
  6  7  1  0  0  0  0
  6 32  1  0  0  0  0
  7  8  1  0  0  0  0
  7  9  1  0  0  0  0
  7 11  1  0  0  0  0
 10 33  1  0  0  0  0
 11 12  1  0  0  0  0
 11 13  2  0  0  0  0
 13 14  1  0  0  0  0
 13 36  1  0  0  0  0
 14 15  1  0  0  0  0
 14 16  1  0  0  0  0
 14 17  1  0  0  0  0
 17 18  1  0  0  0  0
 17 19  1  0  0  0  0
 17 20  1  0  0  0  0
 20 21  1  0  0  0  0
 22 23  1  0  0  0  0
 22 24  1  0  0  0  0
 22 25  1  0  0  0  0
 25 26  1  0  0  0  0
 25 27  2  0  0  0  0
 27 28  1  0  0  0  0
 27 44  1  0  0  0  0
 28 29  1  0  0  0  0
 28 30  1  0  0  0  0
 28 31  1  0  0  0  0
 32 34  1  0  0  0  0
 32 48  2  0  0  0  0
 33 35  1  0  0  0  0
 33 49  2  0  0  0  0
 36 37  1  0  0  0  0
 36 38  1  0  0  0  0
 36 39  1  0  0  0  0
 40 41  1  0  0  0  0
 40 42  1  0  0  0  0
 40 43  1  0  0  0  0
 44 45  1  0  0  0  0
 44 46  1  0  0  0  0
 44 47  1  0  0  0  0
M  BCL ATM C_TrTrTrPi C_TeTeTeTe H_S H_S O_Tr2TrTrPi2 O_Tr2TrTrPi2 C_TeTeTeTe H_S H_S O_Te2Te2TeTe C_TrTrTrPi H_S C_TrTrTrPi C_TeTeTeTe H_S H_S C_TeTeTeTe H_S H_S C_TrTrTrPi H_S C_TeTeTeTe H_S H_S C_TrTrTrPi H_S C_TrTrTrPi C_TeTeTeTe H_S H_S H_S P_TeTeTeTePi P_TeTeTeTePi O_Te2Te2TeTe O_Te2Te2Te2Te C_TeTeTeTe H_S H_S H_S C_TeTeTeTe H_S H_S H_S C_TeTeTeTe H_S H_S H_S O_Tr2Tr2TrPi O_Tr2Tr2TrPi
M  BCL BND NonConjugatedSingleBond ConjugatedDoubleBond NonConjugatedSingleBond NonConjugatedSingleBond NonConjugatedSingleBond NonConjugatedSingleBond ConjugatedSingleBond ConjugatedSingleBond NonConjugatedSingleBond ConjugatedSingleBond NonConjugatedSingleBond NonConjugatedSingleBond NonConjugatedSingleBond ConjugatedSingleBond NonConjugatedSingleBond ConjugatedDoubleBond NonConjugatedSingleBond NonConjugatedSingleBond NonConjugatedSingleBond NonConjugatedSingleBond NonConjugatedSingleBond NonConjugatedSingleBond NonConjugatedSingleBond NonConjugatedSingleBond NonConjugatedSingleBond NonConjugatedSingleBond NonConjugatedSingleBond NonConjugatedSingleBond NonConjugatedSingleBond ConjugatedDoubleBond NonConjugatedSingleBond NonConjugatedSingleBond NonConjugatedSingleBond NonConjugatedSingleBond NonConjugatedSingleBond ConjugatedSingleBond ConjugatedDoubleBond ConjugatedSingleBond ConjugatedDoubleBond NonConjugatedSingleBond NonConjugatedSingleBond NonConjugatedSingleBond NonConjugatedSingleBond NonConjugatedSingleBond NonConjugatedSingleBond NonConjugatedSingleBond NonConjugatedSingleBond NonConjugatedSingleBond
M  BCL CHI  32   S  33   S
M  BCL DBI Z Z - - -
M  END
> <ConfClashScore>
0 

> <ConfOneFourInteractionScore>
-0.982867 

> <ConfScore>
-0.000807352 

> <ConfScorePBest>
0.00706447 

> <ConfTolerance>
1.55129 

$$$$
L06.****
  PyMOL2.5          3D                             0

 49 48  0  0  0  0  0  0  0  0999 V2000
   -2.0078   -0.3128   -2.1857 C   0  0  0  1  0  0  0  0  0  0  0  0
   -1.5722   -0.7999   -0.8327 C   0  0  0  1  0  0  0  0  0  0  0  0
   -0.5357   -0.5729   -0.6950 H   0  0  0  1  0  0  0  0  0  0  0  0
   -1.7163   -1.8587   -0.7779 H   0  0  0  1  0  0  0  0  0  0  0  0
   -7.6163    4.1943   -8.8913 O   0  0  0  1  0  0  0  0  0  0  0  0
   -6.7022    1.9273   -8.1173 O   0  0  0  1  0  0  0  0  0  0  0  0
   -5.4142    2.4307   -7.7112 C   0  0  0  1  0  0  0  0  0  0  0  0
   -5.4871    3.4765   -7.4970 H   0  0  0  1  0  0  0  0  0  0  0  0
   -4.7030    2.2754   -8.4954 H   0  0  0  1  0  0  0  0  0  0  0  0
   -7.8923    6.4410   -7.4389 O   0  0  0  0  0  0  0  0  0  0  0  0
   -4.9787    1.6922   -6.4809 C   0  0  0  1  0  0  0  0  0  0  0  0
   -5.0586    0.6553   -6.4885 H   0  0  0  1  0  0  0  0  0  0  0  0
   -4.4984    2.2639   -5.3818 C   0  0  0  1  0  0  0  0  0  0  0  0
   -4.3716    1.5573   -4.0619 C   0  0  0  1  0  0  0  0  0  0  0  0
   -4.7604    0.5649   -4.1564 H   0  0  0  1  0  0  0  0  0  0  0  0
   -4.9316    2.0914   -3.3229 H   0  0  0  1  0  0  0  0  0  0  0  0
   -2.9113    1.4831   -3.6260 C   0  0  0  1  0  0  0  0  0  0  0  0
   -2.5321    2.4795   -3.5346 H   0  0  0  1  0  0  0  0  0  0  0  0
   -2.3581    0.9580   -4.3765 H   0  0  0  1  0  0  0  0  0  0  0  0
   -2.7253    0.7820   -2.3205 C   0  0  0  1  0  0  0  0  0  0  0  0
   -3.1854    1.1786   -1.4763 H   0  0  0  1  0  0  0  0  0  0  0  0
   -2.3795   -0.1296    0.2670 C   0  0  0  1  0  0  0  0  0  0  0  0
   -2.3031    0.9324    0.1607 H   0  0  0  1  0  0  0  0  0  0  0  0
   -1.9872   -0.4224    1.2185 H   0  0  0  1  0  0  0  0  0  0  0  0
   -3.7951   -0.5216    0.1877 C   0  0  0  1  0  0  0  0  0  0  0  0
   -3.9296   -1.5482    0.2853 H   0  0  0  1  0  0  0  0  0  0  0  0
   -4.9471    0.1304    0.0201 C   0  0  0  1  0  0  0  0  0  0  0  0
   -6.2593   -0.6012   -0.0002 C   0  0  0  1  0  0  0  0  0  0  0  0
   -7.0222    0.0221    0.4174 H   0  0  0  1  0  0  0  0  0  0  0  0
   -6.1762   -1.4982    0.5772 H   0  0  0  1  0  0  0  0  0  0  0  0
   -6.5140   -0.8485   -1.0096 H   0  0  0  1  0  0  0  0  0  0  0  0
   -7.5237    2.6274   -9.3208 P   0  0  0  1  0  0  0  0  0  0  0  0
   -8.6483    5.0929   -7.9872 P   0  0  0  1  0  0  0  0  0  0  0  0
   -6.6838    2.4424  -10.5302 O   0  0  0  0  0  0  0  0  0  0  0  0
   -9.8350    5.6138   -8.9593 O   0  5  0  1  0  0  0  0  0  0  0  0
   -4.0352    3.6935   -5.3772 C   0  0  0  1  0  0  0  0  0  0  0  0
   -4.1228    4.1006   -6.3628 H   0  0  0  1  0  0  0  0  0  0  0  0
   -3.0130    3.7360   -5.0637 H   0  0  0  1  0  0  0  0  0  0  0  0
   -4.6398    4.2619   -4.7017 H   0  0  0  1  0  0  0  0  0  0  0  0
   -1.5604   -1.1679   -3.3349 C   0  0  0  1  0  0  0  0  0  0  0  0
   -2.3664   -1.7996   -3.6451 H   0  0  0  1  0  0  0  0  0  0  0  0
   -0.7319   -1.7718   -3.0284 H   0  0  0  1  0  0  0  0  0  0  0  0
   -1.2638   -0.5421   -4.1505 H   0  0  0  1  0  0  0  0  0  0  0  0
   -4.9786    1.6205   -0.1550 C   0  0  0  1  0  0  0  0  0  0  0  0
   -3.9784    2.0005   -0.1625 H   0  0  0  1  0  0  0  0  0  0  0  0
   -5.5219    2.0630    0.6537 H   0  0  0  1  0  0  0  0  0  0  0  0
   -5.4581    1.8605   -1.0810 H   0  0  0  1  0  0  0  0  0  0  0  0
   -8.9085    2.1935   -9.3399 O   0  0  0  1  0  0  0  0  0  0  0  0
   -9.3250    4.4706   -6.8274 O   0  0  0  1  0  0  0  0  0  0  0  0
  1  2  1  0  0  0  0
  1 20  2  0  0  0  0
  1 40  1  0  0  0  0
  2  3  1  0  0  0  0
  2  4  1  0  0  0  0
  2 22  1  0  0  0  0
  5 32  1  0  0  0  0
  5 33  1  0  0  0  0
  6  7  1  0  0  0  0
  6 32  1  0  0  0  0
  7  8  1  0  0  0  0
  7  9  1  0  0  0  0
  7 11  1  0  0  0  0
 10 33  1  0  0  0  0
 11 12  1  0  0  0  0
 11 13  2  0  0  0  0
 13 14  1  0  0  0  0
 13 36  1  0  0  0  0
 14 15  1  0  0  0  0
 14 16  1  0  0  0  0
 14 17  1  0  0  0  0
 17 18  1  0  0  0  0
 17 19  1  0  0  0  0
 17 20  1  0  0  0  0
 20 21  1  0  0  0  0
 22 23  1  0  0  0  0
 22 24  1  0  0  0  0
 22 25  1  0  0  0  0
 25 26  1  0  0  0  0
 25 27  2  0  0  0  0
 27 28  1  0  0  0  0
 27 44  1  0  0  0  0
 28 29  1  0  0  0  0
 28 30  1  0  0  0  0
 28 31  1  0  0  0  0
 32 34  1  0  0  0  0
 32 48  2  0  0  0  0
 33 35  1  0  0  0  0
 33 49  2  0  0  0  0
 36 37  1  0  0  0  0
 36 38  1  0  0  0  0
 36 39  1  0  0  0  0
 40 41  1  0  0  0  0
 40 42  1  0  0  0  0
 40 43  1  0  0  0  0
 44 45  1  0  0  0  0
 44 46  1  0  0  0  0
 44 47  1  0  0  0  0
M  BCL ATM C_TrTrTrPi C_TeTeTeTe H_S H_S O_Tr2TrTrPi2 O_Tr2TrTrPi2 C_TeTeTeTe H_S H_S O_Te2Te2TeTe C_TrTrTrPi H_S C_TrTrTrPi C_TeTeTeTe H_S H_S C_TeTeTeTe H_S H_S C_TrTrTrPi H_S C_TeTeTeTe H_S H_S C_TrTrTrPi H_S C_TrTrTrPi C_TeTeTeTe H_S H_S H_S P_TeTeTeTePi P_TeTeTeTePi O_Te2Te2TeTe O_Te2Te2Te2Te C_TeTeTeTe H_S H_S H_S C_TeTeTeTe H_S H_S H_S C_TeTeTeTe H_S H_S H_S O_Tr2Tr2TrPi O_Tr2Tr2TrPi
M  BCL BND NonConjugatedSingleBond ConjugatedDoubleBond NonConjugatedSingleBond NonConjugatedSingleBond NonConjugatedSingleBond NonConjugatedSingleBond ConjugatedSingleBond ConjugatedSingleBond NonConjugatedSingleBond ConjugatedSingleBond NonConjugatedSingleBond NonConjugatedSingleBond NonConjugatedSingleBond ConjugatedSingleBond NonConjugatedSingleBond ConjugatedDoubleBond NonConjugatedSingleBond NonConjugatedSingleBond NonConjugatedSingleBond NonConjugatedSingleBond NonConjugatedSingleBond NonConjugatedSingleBond NonConjugatedSingleBond NonConjugatedSingleBond NonConjugatedSingleBond NonConjugatedSingleBond NonConjugatedSingleBond NonConjugatedSingleBond NonConjugatedSingleBond ConjugatedDoubleBond NonConjugatedSingleBond NonConjugatedSingleBond NonConjugatedSingleBond NonConjugatedSingleBond NonConjugatedSingleBond ConjugatedSingleBond ConjugatedDoubleBond ConjugatedSingleBond ConjugatedDoubleBond NonConjugatedSingleBond NonConjugatedSingleBond NonConjugatedSingleBond NonConjugatedSingleBond NonConjugatedSingleBond NonConjugatedSingleBond NonConjugatedSingleBond NonConjugatedSingleBond NonConjugatedSingleBond
M  BCL CHI  32   S  33   S
M  BCL DBI Z Z - - -
M  END
> <ConfClashScore>
0 

> <ConfOneFourInteractionScore>
-0.982537 

> <ConfScore>
0.000626828 

> <ConfScorePBest>
0.00696147 

> <ConfTolerance>
1.49421 

$$$$
L06.****
  PyMOL2.5          3D                             0

 49 48  0  0  0  0  0  0  0  0999 V2000
   -2.0214   -0.4777    2.1648 C   0  0  0  1  0  0  0  0  0  0  0  0
   -1.5116   -0.5270    0.7550 C   0  0  0  1  0  0  0  0  0  0  0  0
   -1.3302   -1.5515    0.5052 H   0  0  0  1  0  0  0  0  0  0  0  0
   -0.5916    0.0181    0.7174 H   0  0  0  1  0  0  0  0  0  0  0  0
   -5.0949   -3.1689   10.5361 O   0  0  0  1  0  0  0  0  0  0  0  0
   -4.6059   -4.4693    8.4150 O   0  0  0  1  0  0  0  0  0  0  0  0
   -3.1792   -4.2867    8.3242 C   0  0  0  1  0  0  0  0  0  0  0  0
   -2.6832   -5.2095    8.5421 H   0  0  0  1  0  0  0  0  0  0  0  0
   -2.8662   -3.5393    9.0230 H   0  0  0  1  0  0  0  0  0  0  0  0
   -3.2770   -5.0698   10.8880 O   0  0  0  0  0  0  0  0  0  0  0  0
   -2.8411   -3.8483    6.9306 C   0  0  0  1  0  0  0  0  0  0  0  0
   -2.9761   -4.5527    6.1774 H   0  0  0  1  0  0  0  0  0  0  0  0
   -2.3882   -2.6585    6.5539 C   0  0  0  1  0  0  0  0  0  0  0  0
   -1.8365   -2.4326    5.1717 C   0  0  0  1  0  0  0  0  0  0  0  0
   -1.6605   -3.3844    4.7155 H   0  0  0  1  0  0  0  0  0  0  0  0
   -0.9119   -1.9008    5.2567 H   0  0  0  1  0  0  0  0  0  0  0  0
   -2.7734   -1.6345    4.2797 C   0  0  0  1  0  0  0  0  0  0  0  0
   -2.8676   -0.6473    4.6816 H   0  0  0  1  0  0  0  0  0  0  0  0
   -3.7309   -2.1122    4.2776 H   0  0  0  1  0  0  0  0  0  0  0  0
   -2.2906   -1.5297    2.8679 C   0  0  0  1  0  0  0  0  0  0  0  0
   -2.1506   -2.4370    2.3791 H   0  0  0  1  0  0  0  0  0  0  0  0
   -2.4439    0.0538   -0.2957 C   0  0  0  1  0  0  0  0  0  0  0  0
   -2.0091   -0.1027   -1.2607 H   0  0  0  1  0  0  0  0  0  0  0  0
   -2.5472    1.1036   -0.1164 H   0  0  0  1  0  0  0  0  0  0  0  0
   -3.8042   -0.5680   -0.2799 C   0  0  0  1  0  0  0  0  0  0  0  0
   -3.8694   -1.5880   -0.4722 H   0  0  0  1  0  0  0  0  0  0  0  0
   -4.9356    0.0856   -0.0386 C   0  0  0  1  0  0  0  0  0  0  0  0
   -6.2801   -0.5774    0.0398 C   0  0  0  1  0  0  0  0  0  0  0  0
   -6.9584   -0.0897   -0.6288 H   0  0  0  1  0  0  0  0  0  0  0  0
   -6.6540   -0.5081    1.0400 H   0  0  0  1  0  0  0  0  0  0  0  0
   -6.1864   -1.6070   -0.2359 H   0  0  0  1  0  0  0  0  0  0  0  0
   -5.4987   -3.2680    8.9874 P   0  0  0  1  0  0  0  0  0  0  0  0
   -3.6863   -3.5341   11.2925 P   0  0  0  1  0  0  0  0  0  0  0  0
   -5.0327   -2.0816    8.2414 O   0  0  0  0  0  0  0  0  0  0  0  0
   -2.5319   -2.5466   10.7297 O   0  5  0  1  0  0  0  0  0  0  0  0
   -2.3781   -1.4455    7.4410 C   0  0  0  1  0  0  0  0  0  0  0  0
   -2.7468   -1.7088    8.4103 H   0  0  0  1  0  0  0  0  0  0  0  0
   -3.0027   -0.6878    7.0158 H   0  0  0  1  0  0  0  0  0  0  0  0
   -1.3777   -1.0762    7.5284 H   0  0  0  1  0  0  0  0  0  0  0  0
   -2.2030    0.9046    2.7190 C   0  0  0  1  0  0  0  0  0  0  0  0
   -1.2613    1.2776    3.0641 H   0  0  0  1  0  0  0  0  0  0  0  0
   -2.8946    0.8734    3.5349 H   0  0  0  1  0  0  0  0  0  0  0  0
   -2.5825    1.5485    1.9534 H   0  0  0  1  0  0  0  0  0  0  0  0
   -4.9537    1.5725    0.1791 C   0  0  0  1  0  0  0  0  0  0  0  0
   -5.9640    1.9243    0.1578 H   0  0  0  1  0  0  0  0  0  0  0  0
   -4.3927    2.0529   -0.5951 H   0  0  0  1  0  0  0  0  0  0  0  0
   -4.5174    1.7989    1.1295 H   0  0  0  1  0  0  0  0  0  0  0  0
   -6.9258   -3.6341    8.9862 O   0  0  0  1  0  0  0  0  0  0  0  0
   -3.8038   -3.4994   12.7674 O   0  0  0  1  0  0  0  0  0  0  0  0
  1  2  1  0  0  0  0
  1 20  2  0  0  0  0
  1 40  1  0  0  0  0
  2  3  1  0  0  0  0
  2  4  1  0  0  0  0
  2 22  1  0  0  0  0
  5 32  1  0  0  0  0
  5 33  1  0  0  0  0
  6  7  1  0  0  0  0
  6 32  1  0  0  0  0
  7  8  1  0  0  0  0
  7  9  1  0  0  0  0
  7 11  1  0  0  0  0
 10 33  1  0  0  0  0
 11 12  1  0  0  0  0
 11 13  2  0  0  0  0
 13 14  1  0  0  0  0
 13 36  1  0  0  0  0
 14 15  1  0  0  0  0
 14 16  1  0  0  0  0
 14 17  1  0  0  0  0
 17 18  1  0  0  0  0
 17 19  1  0  0  0  0
 17 20  1  0  0  0  0
 20 21  1  0  0  0  0
 22 23  1  0  0  0  0
 22 24  1  0  0  0  0
 22 25  1  0  0  0  0
 25 26  1  0  0  0  0
 25 27  2  0  0  0  0
 27 28  1  0  0  0  0
 27 44  1  0  0  0  0
 28 29  1  0  0  0  0
 28 30  1  0  0  0  0
 28 31  1  0  0  0  0
 32 34  1  0  0  0  0
 32 48  2  0  0  0  0
 33 35  1  0  0  0  0
 33 49  2  0  0  0  0
 36 37  1  0  0  0  0
 36 38  1  0  0  0  0
 36 39  1  0  0  0  0
 40 41  1  0  0  0  0
 40 42  1  0  0  0  0
 40 43  1  0  0  0  0
 44 45  1  0  0  0  0
 44 46  1  0  0  0  0
 44 47  1  0  0  0  0
M  BCL ATM C_TrTrTrPi C_TeTeTeTe H_S H_S O_Tr2TrTrPi2 O_Tr2TrTrPi2 C_TeTeTeTe H_S H_S O_Te2Te2TeTe C_TrTrTrPi H_S C_TrTrTrPi C_TeTeTeTe H_S H_S C_TeTeTeTe H_S H_S C_TrTrTrPi H_S C_TeTeTeTe H_S H_S C_TrTrTrPi H_S C_TrTrTrPi C_TeTeTeTe H_S H_S H_S P_TeTeTeTePi P_TeTeTeTePi O_Te2Te2TeTe O_Te2Te2Te2Te C_TeTeTeTe H_S H_S H_S C_TeTeTeTe H_S H_S H_S C_TeTeTeTe H_S H_S H_S O_Tr2Tr2TrPi O_Tr2Tr2TrPi
M  BCL BND NonConjugatedSingleBond ConjugatedDoubleBond NonConjugatedSingleBond NonConjugatedSingleBond NonConjugatedSingleBond NonConjugatedSingleBond ConjugatedSingleBond ConjugatedSingleBond NonConjugatedSingleBond ConjugatedSingleBond NonConjugatedSingleBond NonConjugatedSingleBond NonConjugatedSingleBond ConjugatedSingleBond NonConjugatedSingleBond ConjugatedDoubleBond NonConjugatedSingleBond NonConjugatedSingleBond NonConjugatedSingleBond NonConjugatedSingleBond NonConjugatedSingleBond NonConjugatedSingleBond NonConjugatedSingleBond NonConjugatedSingleBond NonConjugatedSingleBond NonConjugatedSingleBond NonConjugatedSingleBond NonConjugatedSingleBond NonConjugatedSingleBond ConjugatedDoubleBond NonConjugatedSingleBond NonConjugatedSingleBond NonConjugatedSingleBond NonConjugatedSingleBond NonConjugatedSingleBond ConjugatedSingleBond ConjugatedDoubleBond ConjugatedSingleBond ConjugatedDoubleBond NonConjugatedSingleBond NonConjugatedSingleBond NonConjugatedSingleBond NonConjugatedSingleBond NonConjugatedSingleBond NonConjugatedSingleBond NonConjugatedSingleBond NonConjugatedSingleBond NonConjugatedSingleBond
M  BCL CHI  32   S  33   S
M  BCL DBI Z Z - - -
M  END
> <ConfClashScore>
0 

> <ConfOneFourInteractionScore>
-0.978413 

> <ConfScore>
0.00266615 

> <ConfScorePBest>
0.00685847 

> <ConfTolerance>
1.61525 

$$$$
L06.****
  PyMOL2.5          3D                             0

 49 48  0  0  0  0  0  0  0  0999 V2000
   -2.6662   -4.1804    0.4029 C   0  0  0  1  0  0  0  0  0  0  0  0
   -2.7036   -2.7265    0.0312 C   0  0  0  1  0  0  0  0  0  0  0  0
   -2.9050   -2.6480   -1.0168 H   0  0  0  1  0  0  0  0  0  0  0  0
   -1.7477   -2.2958    0.2444 H   0  0  0  1  0  0  0  0  0  0  0  0
   -1.9014  -11.7256    5.5599 O   0  0  0  1  0  0  0  0  0  0  0  0
   -2.3649  -10.6684    3.2704 O   0  0  0  1  0  0  0  0  0  0  0  0
   -1.0667  -10.0693    3.1317 C   0  0  0  1  0  0  0  0  0  0  0  0
   -0.4672  -10.6576    2.4689 H   0  0  0  1  0  0  0  0  0  0  0  0
   -0.5914  -10.0135    4.0887 H   0  0  0  1  0  0  0  0  0  0  0  0
   -0.1533  -11.3799    7.5547 O   0  0  0  0  0  0  0  0  0  0  0  0
   -1.2337   -8.6979    2.5736 C   0  0  0  1  0  0  0  0  0  0  0  0
   -2.1141   -8.1758    2.7579 H   0  0  0  1  0  0  0  0  0  0  0  0
   -0.2757   -8.1274    1.8424 C   0  0  0  1  0  0  0  0  0  0  0  0
   -0.4417   -6.7459    1.2791 C   0  0  0  1  0  0  0  0  0  0  0  0
   -0.4624   -6.8136    0.2115 H   0  0  0  1  0  0  0  0  0  0  0  0
    0.3943   -6.1514    1.5832 H   0  0  0  1  0  0  0  0  0  0  0  0
   -1.7167   -6.0621    1.7453 C   0  0  0  1  0  0  0  0  0  0  0  0
   -1.7422   -6.0590    2.8150 H   0  0  0  1  0  0  0  0  0  0  0  0
   -2.5613   -6.6009    1.3694 H   0  0  0  1  0  0  0  0  0  0  0  0
   -1.7744   -4.6431    1.2461 C   0  0  0  1  0  0  0  0  0  0  0  0
   -1.0535   -3.9802    1.5960 H   0  0  0  1  0  0  0  0  0  0  0  0
   -3.7658   -1.9456    0.7877 C   0  0  0  1  0  0  0  0  0  0  0  0
   -3.5796   -2.0643    1.8347 H   0  0  0  1  0  0  0  0  0  0  0  0
   -4.7197   -2.3652    0.5448 H   0  0  0  1  0  0  0  0  0  0  0  0
   -3.8171   -0.4826    0.4919 C   0  0  0  1  0  0  0  0  0  0  0  0
   -2.9535    0.0802    0.6295 H   0  0  0  1  0  0  0  0  0  0  0  0
   -4.9118    0.1353    0.0615 C   0  0  0  1  0  0  0  0  0  0  0  0
   -6.1865   -0.5759   -0.2888 C   0  0  0  1  0  0  0  0  0  0  0  0
   -7.0217    0.0463   -0.0435 H   0  0  0  1  0  0  0  0  0  0  0  0
   -6.2483   -1.4898    0.2642 H   0  0  0  1  0  0  0  0  0  0  0  0
   -6.1981   -0.7912   -1.3369 H   0  0  0  1  0  0  0  0  0  0  0  0
   -2.5621  -12.0355    4.1146 P   0  0  0  1  0  0  0  0  0  0  0  0
   -0.3268  -11.8633    5.9972 P   0  0  0  1  0  0  0  0  0  0  0  0
   -4.0062  -12.2969    4.4073 O   0  0  0  0  0  0  0  0  0  0  0  0
    0.0046  -13.4488    6.0277 O   0  5  0  1  0  0  0  0  0  0  0  0
    1.0321   -8.7863    1.5142 C   0  0  0  1  0  0  0  0  0  0  0  0
    1.7989   -8.0433    1.4448 H   0  0  0  1  0  0  0  0  0  0  0  0
    0.9477   -9.2999    0.5793 H   0  0  0  1  0  0  0  0  0  0  0  0
    1.2821   -9.4856    2.2846 H   0  0  0  1  0  0  0  0  0  0  0  0
   -3.6871   -5.0867   -0.2257 C   0  0  0  1  0  0  0  0  0  0  0  0
   -3.4505   -6.1047    0.0038 H   0  0  0  1  0  0  0  0  0  0  0  0
   -3.6800   -4.9497   -1.2869 H   0  0  0  1  0  0  0  0  0  0  0  0
   -4.6575   -4.8510    0.1584 H   0  0  0  1  0  0  0  0  0  0  0  0
   -4.9563    1.6276   -0.1107 C   0  0  0  1  0  0  0  0  0  0  0  0
   -5.0970    2.0931    0.8424 H   0  0  0  1  0  0  0  0  0  0  0  0
   -5.7679    1.8877   -0.7577 H   0  0  0  1  0  0  0  0  0  0  0  0
   -4.0357    1.9645   -0.5395 H   0  0  0  1  0  0  0  0  0  0  0  0
   -1.8084  -13.0569    3.3654 O   0  0  0  1  0  0  0  0  0  0  0  0
    0.6649  -11.1413    5.1691 O   0  0  0  1  0  0  0  0  0  0  0  0
  1  2  1  0  0  0  0
  1 20  2  0  0  0  0
  1 40  1  0  0  0  0
  2  3  1  0  0  0  0
  2  4  1  0  0  0  0
  2 22  1  0  0  0  0
  5 32  1  0  0  0  0
  5 33  1  0  0  0  0
  6  7  1  0  0  0  0
  6 32  1  0  0  0  0
  7  8  1  0  0  0  0
  7  9  1  0  0  0  0
  7 11  1  0  0  0  0
 10 33  1  0  0  0  0
 11 12  1  0  0  0  0
 11 13  2  0  0  0  0
 13 14  1  0  0  0  0
 13 36  1  0  0  0  0
 14 15  1  0  0  0  0
 14 16  1  0  0  0  0
 14 17  1  0  0  0  0
 17 18  1  0  0  0  0
 17 19  1  0  0  0  0
 17 20  1  0  0  0  0
 20 21  1  0  0  0  0
 22 23  1  0  0  0  0
 22 24  1  0  0  0  0
 22 25  1  0  0  0  0
 25 26  1  0  0  0  0
 25 27  2  0  0  0  0
 27 28  1  0  0  0  0
 27 44  1  0  0  0  0
 28 29  1  0  0  0  0
 28 30  1  0  0  0  0
 28 31  1  0  0  0  0
 32 34  1  0  0  0  0
 32 48  2  0  0  0  0
 33 35  1  0  0  0  0
 33 49  2  0  0  0  0
 36 37  1  0  0  0  0
 36 38  1  0  0  0  0
 36 39  1  0  0  0  0
 40 41  1  0  0  0  0
 40 42  1  0  0  0  0
 40 43  1  0  0  0  0
 44 45  1  0  0  0  0
 44 46  1  0  0  0  0
 44 47  1  0  0  0  0
M  BCL ATM C_TrTrTrPi C_TeTeTeTe H_S H_S O_Tr2TrTrPi2 O_Tr2TrTrPi2 C_TeTeTeTe H_S H_S O_Te2Te2TeTe C_TrTrTrPi H_S C_TrTrTrPi C_TeTeTeTe H_S H_S C_TeTeTeTe H_S H_S C_TrTrTrPi H_S C_TeTeTeTe H_S H_S C_TrTrTrPi H_S C_TrTrTrPi C_TeTeTeTe H_S H_S H_S P_TeTeTeTePi P_TeTeTeTePi O_Te2Te2TeTe O_Te2Te2Te2Te C_TeTeTeTe H_S H_S H_S C_TeTeTeTe H_S H_S H_S C_TeTeTeTe H_S H_S H_S O_Tr2Tr2TrPi O_Tr2Tr2TrPi
M  BCL BND NonConjugatedSingleBond ConjugatedDoubleBond NonConjugatedSingleBond NonConjugatedSingleBond NonConjugatedSingleBond NonConjugatedSingleBond ConjugatedSingleBond ConjugatedSingleBond NonConjugatedSingleBond ConjugatedSingleBond NonConjugatedSingleBond NonConjugatedSingleBond NonConjugatedSingleBond ConjugatedSingleBond NonConjugatedSingleBond ConjugatedDoubleBond NonConjugatedSingleBond NonConjugatedSingleBond NonConjugatedSingleBond NonConjugatedSingleBond NonConjugatedSingleBond NonConjugatedSingleBond NonConjugatedSingleBond NonConjugatedSingleBond NonConjugatedSingleBond NonConjugatedSingleBond NonConjugatedSingleBond NonConjugatedSingleBond NonConjugatedSingleBond ConjugatedDoubleBond NonConjugatedSingleBond NonConjugatedSingleBond NonConjugatedSingleBond NonConjugatedSingleBond NonConjugatedSingleBond ConjugatedSingleBond ConjugatedDoubleBond ConjugatedSingleBond ConjugatedDoubleBond NonConjugatedSingleBond NonConjugatedSingleBond NonConjugatedSingleBond NonConjugatedSingleBond NonConjugatedSingleBond NonConjugatedSingleBond NonConjugatedSingleBond NonConjugatedSingleBond NonConjugatedSingleBond
M  BCL CHI  32   S  33   S
M  BCL DBI Z Z - - -
M  END
> <ConfClashScore>
0 

> <ConfOneFourInteractionScore>
-0.978172 

> <ConfScore>
0.00267714 

> <ConfScorePBest>
0.00675547 

> <ConfTolerance>
1.50092 

$$$$
L06.****
  PyMOL2.5          3D                             0

 49 48  0  0  0  0  0  0  0  0999 V2000
   -0.2647    0.6338    1.0638 C   0  0  0  1  0  0  0  0  0  0  0  0
   -1.5935   -0.0619    1.0789 C   0  0  0  1  0  0  0  0  0  0  0  0
   -2.1559    0.3398    1.8958 H   0  0  0  1  0  0  0  0  0  0  0  0
   -1.4085   -1.1018    1.2497 H   0  0  0  1  0  0  0  0  0  0  0  0
    6.8869   -0.0952   -1.4511 O   0  0  0  1  0  0  0  0  0  0  0  0
    6.9169    1.4887    0.4245 O   0  0  0  1  0  0  0  0  0  0  0  0
    6.5226    0.6253    1.5091 C   0  0  0  1  0  0  0  0  0  0  0  0
    6.9130    1.0034    2.4308 H   0  0  0  1  0  0  0  0  0  0  0  0
    6.8997   -0.3615    1.3395 H   0  0  0  1  0  0  0  0  0  0  0  0
    7.1314   -0.9457   -3.8802 O   0  0  0  0  0  0  0  0  0  0  0  0
    5.0248    0.5900    1.5716 C   0  0  0  1  0  0  0  0  0  0  0  0
    4.5039    0.6595    0.6742 H   0  0  0  1  0  0  0  0  0  0  0  0
    4.3140    0.4764    2.6873 C   0  0  0  1  0  0  0  0  0  0  0  0
    2.8378    0.1994    2.6484 C   0  0  0  1  0  0  0  0  0  0  0  0
    2.3430    0.8989    3.2893 H   0  0  0  1  0  0  0  0  0  0  0  0
    2.6683   -0.7947    3.0063 H   0  0  0  1  0  0  0  0  0  0  0  0
    2.2438    0.3192    1.2481 C   0  0  0  1  0  0  0  0  0  0  0  0
    2.7902   -0.3239    0.5902 H   0  0  0  1  0  0  0  0  0  0  0  0
    2.3442    1.3331    0.9212 H   0  0  0  1  0  0  0  0  0  0  0  0
    0.8042   -0.0569    1.1910 C   0  0  0  1  0  0  0  0  0  0  0  0
    0.6350   -1.0800    1.2699 H   0  0  0  1  0  0  0  0  0  0  0  0
   -2.4585    0.0477   -0.1662 C   0  0  0  1  0  0  0  0  0  0  0  0
   -1.9544   -0.4390   -0.9749 H   0  0  0  1  0  0  0  0  0  0  0  0
   -2.5903    1.0836   -0.3992 H   0  0  0  1  0  0  0  0  0  0  0  0
   -3.8142   -0.5817    0.0010 C   0  0  0  1  0  0  0  0  0  0  0  0
   -3.8540   -1.6139    0.1219 H   0  0  0  1  0  0  0  0  0  0  0  0
   -4.9750    0.0886    0.0058 C   0  0  0  1  0  0  0  0  0  0  0  0
   -6.2872   -0.5872    0.1333 C   0  0  0  1  0  0  0  0  0  0  0  0
   -6.1585   -1.5265    0.6293 H   0  0  0  1  0  0  0  0  0  0  0  0
   -6.6993   -0.7518   -0.8403 H   0  0  0  1  0  0  0  0  0  0  0  0
   -6.9514    0.0286    0.7029 H   0  0  0  1  0  0  0  0  0  0  0  0
    7.8497    0.9617   -0.7279 P   0  0  0  1  0  0  0  0  0  0  0  0
    6.0354   -0.3161   -2.8352 P   0  0  0  1  0  0  0  0  0  0  0  0
    8.1760    2.0416   -1.6895 O   0  0  0  0  0  0  0  0  0  0  0  0
    5.0617   -1.5788   -2.5493 O   0  5  0  1  0  0  0  0  0  0  0  0
    4.8929    0.6090    4.0678 C   0  0  0  1  0  0  0  0  0  0  0  0
    5.9066    0.9444    3.9994 H   0  0  0  1  0  0  0  0  0  0  0  0
    4.8642   -0.3412    4.5590 H   0  0  0  1  0  0  0  0  0  0  0  0
    4.3198    1.3180    4.6279 H   0  0  0  1  0  0  0  0  0  0  0  0
   -0.3278    2.1232    0.8949 C   0  0  0  1  0  0  0  0  0  0  0  0
    0.6523    2.5015    0.6918 H   0  0  0  1  0  0  0  0  0  0  0  0
   -0.7025    2.5682    1.7929 H   0  0  0  1  0  0  0  0  0  0  0  0
   -0.9781    2.3622    0.0795 H   0  0  0  1  0  0  0  0  0  0  0  0
   -4.9457    1.5950   -0.1240 C   0  0  0  1  0  0  0  0  0  0  0  0
   -5.8497    1.9312   -0.5873 H   0  0  0  1  0  0  0  0  0  0  0  0
   -4.1085    1.8848   -0.7241 H   0  0  0  1  0  0  0  0  0  0  0  0
   -4.8581    2.0348    0.8475 H   0  0  0  1  0  0  0  0  0  0  0  0
    8.9479    0.2408   -0.0830 O   0  0  0  1  0  0  0  0  0  0  0  0
    5.4108    0.9013   -3.3994 O   0  0  0  1  0  0  0  0  0  0  0  0
  1  2  1  0  0  0  0
  1 20  2  0  0  0  0
  1 40  1  0  0  0  0
  2  3  1  0  0  0  0
  2  4  1  0  0  0  0
  2 22  1  0  0  0  0
  5 32  1  0  0  0  0
  5 33  1  0  0  0  0
  6  7  1  0  0  0  0
  6 32  1  0  0  0  0
  7  8  1  0  0  0  0
  7  9  1  0  0  0  0
  7 11  1  0  0  0  0
 10 33  1  0  0  0  0
 11 12  1  0  0  0  0
 11 13  2  0  0  0  0
 13 14  1  0  0  0  0
 13 36  1  0  0  0  0
 14 15  1  0  0  0  0
 14 16  1  0  0  0  0
 14 17  1  0  0  0  0
 17 18  1  0  0  0  0
 17 19  1  0  0  0  0
 17 20  1  0  0  0  0
 20 21  1  0  0  0  0
 22 23  1  0  0  0  0
 22 24  1  0  0  0  0
 22 25  1  0  0  0  0
 25 26  1  0  0  0  0
 25 27  2  0  0  0  0
 27 28  1  0  0  0  0
 27 44  1  0  0  0  0
 28 29  1  0  0  0  0
 28 30  1  0  0  0  0
 28 31  1  0  0  0  0
 32 34  1  0  0  0  0
 32 48  2  0  0  0  0
 33 35  1  0  0  0  0
 33 49  2  0  0  0  0
 36 37  1  0  0  0  0
 36 38  1  0  0  0  0
 36 39  1  0  0  0  0
 40 41  1  0  0  0  0
 40 42  1  0  0  0  0
 40 43  1  0  0  0  0
 44 45  1  0  0  0  0
 44 46  1  0  0  0  0
 44 47  1  0  0  0  0
M  BCL ATM C_TrTrTrPi C_TeTeTeTe H_S H_S O_Tr2TrTrPi2 O_Tr2TrTrPi2 C_TeTeTeTe H_S H_S O_Te2Te2TeTe C_TrTrTrPi H_S C_TrTrTrPi C_TeTeTeTe H_S H_S C_TeTeTeTe H_S H_S C_TrTrTrPi H_S C_TeTeTeTe H_S H_S C_TrTrTrPi H_S C_TrTrTrPi C_TeTeTeTe H_S H_S H_S P_TeTeTeTePi P_TeTeTeTePi O_Te2Te2TeTe O_Te2Te2Te2Te C_TeTeTeTe H_S H_S H_S C_TeTeTeTe H_S H_S H_S C_TeTeTeTe H_S H_S H_S O_Tr2Tr2TrPi O_Tr2Tr2TrPi
M  BCL BND NonConjugatedSingleBond ConjugatedDoubleBond NonConjugatedSingleBond NonConjugatedSingleBond NonConjugatedSingleBond NonConjugatedSingleBond ConjugatedSingleBond ConjugatedSingleBond NonConjugatedSingleBond ConjugatedSingleBond NonConjugatedSingleBond NonConjugatedSingleBond NonConjugatedSingleBond ConjugatedSingleBond NonConjugatedSingleBond ConjugatedDoubleBond NonConjugatedSingleBond NonConjugatedSingleBond NonConjugatedSingleBond NonConjugatedSingleBond NonConjugatedSingleBond NonConjugatedSingleBond NonConjugatedSingleBond NonConjugatedSingleBond NonConjugatedSingleBond NonConjugatedSingleBond NonConjugatedSingleBond NonConjugatedSingleBond NonConjugatedSingleBond ConjugatedDoubleBond NonConjugatedSingleBond NonConjugatedSingleBond NonConjugatedSingleBond NonConjugatedSingleBond NonConjugatedSingleBond ConjugatedSingleBond ConjugatedDoubleBond ConjugatedSingleBond ConjugatedDoubleBond NonConjugatedSingleBond NonConjugatedSingleBond NonConjugatedSingleBond NonConjugatedSingleBond NonConjugatedSingleBond NonConjugatedSingleBond NonConjugatedSingleBond NonConjugatedSingleBond NonConjugatedSingleBond
M  BCL CHI  32   S  33   S
M  BCL DBI Z Z - - -
M  END
> <ConfClashScore>
0 

> <ConfOneFourInteractionScore>
-0.975525 

> <ConfScore>
0.00358675 

> <ConfScorePBest>
0.00665247 

> <ConfTolerance>
1.46197 

$$$$
L06.****
  PyMOL2.5          3D                             0

 49 48  0  0  0  0  0  0  0  0999 V2000
    0.0642   -0.3846   -0.5052 C   0  0  0  1  0  0  0  0  0  0  0  0
   -1.2903   -1.0208   -0.3425 C   0  0  0  1  0  0  0  0  0  0  0  0
   -1.2805   -1.6212    0.5431 H   0  0  0  1  0  0  0  0  0  0  0  0
   -1.4792   -1.6420   -1.1931 H   0  0  0  1  0  0  0  0  0  0  0  0
    2.1211    5.5217   -4.9127 O   0  0  0  1  0  0  0  0  0  0  0  0
    3.8113    4.8064   -3.2695 O   0  0  0  1  0  0  0  0  0  0  0  0
    4.3749    4.4560   -1.9902 C   0  0  0  1  0  0  0  0  0  0  0  0
    4.4813    5.3355   -1.3902 H   0  0  0  1  0  0  0  0  0  0  0  0
    5.3333    4.0015   -2.1308 H   0  0  0  1  0  0  0  0  0  0  0  0
    3.1668    3.3608   -5.7587 O   0  0  0  0  0  0  0  0  0  0  0  0
    3.4508    3.4876   -1.3089 C   0  0  0  1  0  0  0  0  0  0  0  0
    3.1307    2.6759   -1.8749 H   0  0  0  1  0  0  0  0  0  0  0  0
    2.9940    3.5561   -0.0509 C   0  0  0  1  0  0  0  0  0  0  0  0
    1.9102    2.6039    0.3788 C   0  0  0  1  0  0  0  0  0  0  0  0
    1.0983    3.1719    0.7827 H   0  0  0  1  0  0  0  0  0  0  0  0
    2.3047    1.9575    1.1347 H   0  0  0  1  0  0  0  0  0  0  0  0
    1.3823    1.7489   -0.7616 C   0  0  0  1  0  0  0  0  0  0  0  0
    2.1735    1.1175   -1.1084 H   0  0  0  1  0  0  0  0  0  0  0  0
    1.0674    2.3950   -1.5543 H   0  0  0  1  0  0  0  0  0  0  0  0
    0.2301    0.8904   -0.3631 C   0  0  0  1  0  0  0  0  0  0  0  0
   -0.5568    1.3909    0.0973 H   0  0  0  1  0  0  0  0  0  0  0  0
   -2.4151   -0.0051   -0.2259 C   0  0  0  1  0  0  0  0  0  0  0  0
   -2.3733    0.6335   -1.0835 H   0  0  0  1  0  0  0  0  0  0  0  0
   -2.2472    0.5732    0.6585 H   0  0  0  1  0  0  0  0  0  0  0  0
   -3.7932   -0.5808   -0.1461 C   0  0  0  1  0  0  0  0  0  0  0  0
   -3.8663   -1.6171   -0.1960 H   0  0  0  1  0  0  0  0  0  0  0  0
   -4.9342    0.0880   -0.0183 C   0  0  0  1  0  0  0  0  0  0  0  0
   -6.2807   -0.5703    0.0654 C   0  0  0  1  0  0  0  0  0  0  0  0
   -6.1719   -1.6254   -0.0761 H   0  0  0  1  0  0  0  0  0  0  0  0
   -6.9197   -0.1728   -0.6953 H   0  0  0  1  0  0  0  0  0  0  0  0
   -6.7103   -0.3821    1.0271 H   0  0  0  1  0  0  0  0  0  0  0  0
    2.2665    4.9087   -3.4619 P   0  0  0  1  0  0  0  0  0  0  0  0
    2.7533    4.8617   -6.2744 P   0  0  0  1  0  0  0  0  0  0  0  0
    1.6759    3.5089   -3.5165 O   0  0  0  0  0  0  0  0  0  0  0  0
    1.4681    4.6566   -7.2392 O   0  5  0  1  0  0  0  0  0  0  0  0
    3.5129    4.5320    0.9355 C   0  0  0  1  0  0  0  0  0  0  0  0
    4.1516    4.0304    1.6322 H   0  0  0  1  0  0  0  0  0  0  0  0
    2.6940    4.9782    1.4601 H   0  0  0  1  0  0  0  0  0  0  0  0
    4.0679    5.2922    0.4267 H   0  0  0  1  0  0  0  0  0  0  0  0
    1.1714   -1.3414   -0.8381 C   0  0  0  1  0  0  0  0  0  0  0  0
    0.8631   -1.9795   -1.6398 H   0  0  0  1  0  0  0  0  0  0  0  0
    1.4001   -1.9351    0.0222 H   0  0  0  1  0  0  0  0  0  0  0  0
    2.0404   -0.7918   -1.1341 H   0  0  0  1  0  0  0  0  0  0  0  0
   -4.9622    1.5867    0.0535 C   0  0  0  1  0  0  0  0  0  0  0  0
   -3.9773    1.9706   -0.1126 H   0  0  0  1  0  0  0  0  0  0  0  0
   -5.3049    1.8908    1.0204 H   0  0  0  1  0  0  0  0  0  0  0  0
   -5.6242    1.9672   -0.6961 H   0  0  0  1  0  0  0  0  0  0  0  0
    1.7089    5.8247   -2.4269 O   0  0  0  1  0  0  0  0  0  0  0  0
    3.8476    5.7004   -6.8124 O   0  0  0  1  0  0  0  0  0  0  0  0
  1  2  1  0  0  0  0
  1 20  2  0  0  0  0
  1 40  1  0  0  0  0
  2  3  1  0  0  0  0
  2  4  1  0  0  0  0
  2 22  1  0  0  0  0
  5 32  1  0  0  0  0
  5 33  1  0  0  0  0
  6  7  1  0  0  0  0
  6 32  1  0  0  0  0
  7  8  1  0  0  0  0
  7  9  1  0  0  0  0
  7 11  1  0  0  0  0
 10 33  1  0  0  0  0
 11 12  1  0  0  0  0
 11 13  2  0  0  0  0
 13 14  1  0  0  0  0
 13 36  1  0  0  0  0
 14 15  1  0  0  0  0
 14 16  1  0  0  0  0
 14 17  1  0  0  0  0
 17 18  1  0  0  0  0
 17 19  1  0  0  0  0
 17 20  1  0  0  0  0
 20 21  1  0  0  0  0
 22 23  1  0  0  0  0
 22 24  1  0  0  0  0
 22 25  1  0  0  0  0
 25 26  1  0  0  0  0
 25 27  2  0  0  0  0
 27 28  1  0  0  0  0
 27 44  1  0  0  0  0
 28 29  1  0  0  0  0
 28 30  1  0  0  0  0
 28 31  1  0  0  0  0
 32 34  1  0  0  0  0
 32 48  2  0  0  0  0
 33 35  1  0  0  0  0
 33 49  2  0  0  0  0
 36 37  1  0  0  0  0
 36 38  1  0  0  0  0
 36 39  1  0  0  0  0
 40 41  1  0  0  0  0
 40 42  1  0  0  0  0
 40 43  1  0  0  0  0
 44 45  1  0  0  0  0
 44 46  1  0  0  0  0
 44 47  1  0  0  0  0
M  BCL ATM C_TrTrTrPi C_TeTeTeTe H_S H_S O_Tr2TrTrPi2 O_Tr2TrTrPi2 C_TeTeTeTe H_S H_S O_Te2Te2TeTe C_TrTrTrPi H_S C_TrTrTrPi C_TeTeTeTe H_S H_S C_TeTeTeTe H_S H_S C_TrTrTrPi H_S C_TeTeTeTe H_S H_S C_TrTrTrPi H_S C_TrTrTrPi C_TeTeTeTe H_S H_S H_S P_TeTeTeTePi P_TeTeTeTePi O_Te2Te2TeTe O_Te2Te2Te2Te C_TeTeTeTe H_S H_S H_S C_TeTeTeTe H_S H_S H_S C_TeTeTeTe H_S H_S H_S O_Tr2Tr2TrPi O_Tr2Tr2TrPi
M  BCL BND NonConjugatedSingleBond ConjugatedDoubleBond NonConjugatedSingleBond NonConjugatedSingleBond NonConjugatedSingleBond NonConjugatedSingleBond ConjugatedSingleBond ConjugatedSingleBond NonConjugatedSingleBond ConjugatedSingleBond NonConjugatedSingleBond NonConjugatedSingleBond NonConjugatedSingleBond ConjugatedSingleBond NonConjugatedSingleBond ConjugatedDoubleBond NonConjugatedSingleBond NonConjugatedSingleBond NonConjugatedSingleBond NonConjugatedSingleBond NonConjugatedSingleBond NonConjugatedSingleBond NonConjugatedSingleBond NonConjugatedSingleBond NonConjugatedSingleBond NonConjugatedSingleBond NonConjugatedSingleBond NonConjugatedSingleBond NonConjugatedSingleBond ConjugatedDoubleBond NonConjugatedSingleBond NonConjugatedSingleBond NonConjugatedSingleBond NonConjugatedSingleBond NonConjugatedSingleBond ConjugatedSingleBond ConjugatedDoubleBond ConjugatedSingleBond ConjugatedDoubleBond NonConjugatedSingleBond NonConjugatedSingleBond NonConjugatedSingleBond NonConjugatedSingleBond NonConjugatedSingleBond NonConjugatedSingleBond NonConjugatedSingleBond NonConjugatedSingleBond NonConjugatedSingleBond
M  BCL CHI  32   S  33   S
M  BCL DBI Z Z - - -
M  END
> <ConfClashScore>
0 

> <ConfOneFourInteractionScore>
-0.982684 

> <ConfScore>
0.00525246 

> <ConfScorePBest>
0.00654947 

> <ConfTolerance>
1.66231 

$$$$
L06.****
  PyMOL2.5          3D                             0

 49 48  0  0  0  0  0  0  0  0999 V2000
   -2.2313   -3.9232   -1.2794 C   0  0  0  1  0  0  0  0  0  0  0  0
   -2.3109   -2.5169   -0.7605 C   0  0  0  1  0  0  0  0  0  0  0  0
   -1.6640   -1.8998   -1.3484 H   0  0  0  1  0  0  0  0  0  0  0  0
   -1.9823   -2.5105    0.2578 H   0  0  0  1  0  0  0  0  0  0  0  0
   -1.1773   -8.0894   -3.8961 O   0  0  0  1  0  0  0  0  0  0  0  0
   -0.5369  -10.4740   -3.4061 O   0  0  0  1  0  0  0  0  0  0  0  0
   -0.6972  -10.6740   -1.9926 C   0  0  0  1  0  0  0  0  0  0  0  0
    0.0756  -11.3191   -1.6299 H   0  0  0  1  0  0  0  0  0  0  0  0
   -1.6521  -11.1156   -1.7971 H   0  0  0  1  0  0  0  0  0  0  0  0
   -3.0578   -9.3844   -5.0917 O   0  0  0  0  0  0  0  0  0  0  0  0
   -0.6073   -9.3514   -1.3125 C   0  0  0  1  0  0  0  0  0  0  0  0
    0.3046   -8.8560   -1.3807 H   0  0  0  1  0  0  0  0  0  0  0  0
   -1.5659   -8.7360   -0.6283 C   0  0  0  1  0  0  0  0  0  0  0  0
   -1.4495   -7.3178   -0.1081 C   0  0  0  1  0  0  0  0  0  0  0  0
   -0.4309   -6.9952   -0.1661 H   0  0  0  1  0  0  0  0  0  0  0  0
   -1.7791   -7.2789    0.9091 H   0  0  0  1  0  0  0  0  0  0  0  0
   -2.3221   -6.4141   -0.9639 C   0  0  0  1  0  0  0  0  0  0  0  0
   -3.3170   -6.8077   -0.9512 H   0  0  0  1  0  0  0  0  0  0  0  0
   -1.9413   -6.4379   -1.9635 H   0  0  0  1  0  0  0  0  0  0  0  0
   -2.3857   -4.9846   -0.5282 C   0  0  0  1  0  0  0  0  0  0  0  0
   -2.5729   -4.8154    0.4807 H   0  0  0  1  0  0  0  0  0  0  0  0
   -3.7156   -1.9391   -0.8192 C   0  0  0  1  0  0  0  0  0  0  0  0
   -4.3196   -2.4674   -0.1114 H   0  0  0  1  0  0  0  0  0  0  0  0
   -4.0977   -2.1002   -1.8055 H   0  0  0  1  0  0  0  0  0  0  0  0
   -3.8218   -0.4688   -0.5143 C   0  0  0  1  0  0  0  0  0  0  0  0
   -2.9760    0.1167   -0.6673 H   0  0  0  1  0  0  0  0  0  0  0  0
   -4.9156    0.1367   -0.0645 C   0  0  0  1  0  0  0  0  0  0  0  0
   -6.2007   -0.5781    0.2311 C   0  0  0  1  0  0  0  0  0  0  0  0
   -6.9968   -0.1251   -0.3221 H   0  0  0  1  0  0  0  0  0  0  0  0
   -6.4122   -0.5129    1.2780 H   0  0  0  1  0  0  0  0  0  0  0  0
   -6.1100   -1.6060   -0.0517 H   0  0  0  1  0  0  0  0  0  0  0  0
    0.0397   -9.1171   -4.0408 P   0  0  0  1  0  0  0  0  0  0  0  0
   -2.7898   -8.0403   -4.1911 P   0  0  0  1  0  0  0  0  0  0  0  0
    1.0932   -8.5125   -3.2061 O   0  0  0  0  0  0  0  0  0  0  0  0
   -3.5193   -8.3011   -2.7684 O   0  5  0  1  0  0  0  0  0  0  0  0
   -2.8676   -9.4172   -0.3121 C   0  0  0  1  0  0  0  0  0  0  0  0
   -2.9681   -9.5209    0.7481 H   0  0  0  1  0  0  0  0  0  0  0  0
   -2.8832  -10.3852   -0.7680 H   0  0  0  1  0  0  0  0  0  0  0  0
   -3.6781   -8.8307   -0.6914 H   0  0  0  1  0  0  0  0  0  0  0  0
   -1.9563   -4.0356   -2.7525 C   0  0  0  1  0  0  0  0  0  0  0  0
   -1.9620   -5.0664   -3.0393 H   0  0  0  1  0  0  0  0  0  0  0  0
   -0.9986   -3.6105   -2.9698 H   0  0  0  1  0  0  0  0  0  0  0  0
   -2.7123   -3.5098   -3.2974 H   0  0  0  1  0  0  0  0  0  0  0  0
   -4.9472    1.6179    0.1876 C   0  0  0  1  0  0  0  0  0  0  0  0
   -5.6056    2.0857   -0.5142 H   0  0  0  1  0  0  0  0  0  0  0  0
   -3.9620    2.0198    0.0746 H   0  0  0  1  0  0  0  0  0  0  0  0
   -5.2965    1.8029    1.1820 H   0  0  0  1  0  0  0  0  0  0  0  0
    0.2964   -9.4611   -5.4477 O   0  0  0  1  0  0  0  0  0  0  0  0
   -3.2427   -6.7965   -4.8532 O   0  0  0  1  0  0  0  0  0  0  0  0
  1  2  1  0  0  0  0
  1 20  2  0  0  0  0
  1 40  1  0  0  0  0
  2  3  1  0  0  0  0
  2  4  1  0  0  0  0
  2 22  1  0  0  0  0
  5 32  1  0  0  0  0
  5 33  1  0  0  0  0
  6  7  1  0  0  0  0
  6 32  1  0  0  0  0
  7  8  1  0  0  0  0
  7  9  1  0  0  0  0
  7 11  1  0  0  0  0
 10 33  1  0  0  0  0
 11 12  1  0  0  0  0
 11 13  2  0  0  0  0
 13 14  1  0  0  0  0
 13 36  1  0  0  0  0
 14 15  1  0  0  0  0
 14 16  1  0  0  0  0
 14 17  1  0  0  0  0
 17 18  1  0  0  0  0
 17 19  1  0  0  0  0
 17 20  1  0  0  0  0
 20 21  1  0  0  0  0
 22 23  1  0  0  0  0
 22 24  1  0  0  0  0
 22 25  1  0  0  0  0
 25 26  1  0  0  0  0
 25 27  2  0  0  0  0
 27 28  1  0  0  0  0
 27 44  1  0  0  0  0
 28 29  1  0  0  0  0
 28 30  1  0  0  0  0
 28 31  1  0  0  0  0
 32 34  1  0  0  0  0
 32 48  2  0  0  0  0
 33 35  1  0  0  0  0
 33 49  2  0  0  0  0
 36 37  1  0  0  0  0
 36 38  1  0  0  0  0
 36 39  1  0  0  0  0
 40 41  1  0  0  0  0
 40 42  1  0  0  0  0
 40 43  1  0  0  0  0
 44 45  1  0  0  0  0
 44 46  1  0  0  0  0
 44 47  1  0  0  0  0
M  BCL ATM C_TrTrTrPi C_TeTeTeTe H_S H_S O_Tr2TrTrPi2 O_Tr2TrTrPi2 C_TeTeTeTe H_S H_S O_Te2Te2TeTe C_TrTrTrPi H_S C_TrTrTrPi C_TeTeTeTe H_S H_S C_TeTeTeTe H_S H_S C_TrTrTrPi H_S C_TeTeTeTe H_S H_S C_TrTrTrPi H_S C_TrTrTrPi C_TeTeTeTe H_S H_S H_S P_TeTeTeTePi P_TeTeTeTePi O_Te2Te2TeTe O_Te2Te2Te2Te C_TeTeTeTe H_S H_S H_S C_TeTeTeTe H_S H_S H_S C_TeTeTeTe H_S H_S H_S O_Tr2Tr2TrPi O_Tr2Tr2TrPi
M  BCL BND NonConjugatedSingleBond ConjugatedDoubleBond NonConjugatedSingleBond NonConjugatedSingleBond NonConjugatedSingleBond NonConjugatedSingleBond ConjugatedSingleBond ConjugatedSingleBond NonConjugatedSingleBond ConjugatedSingleBond NonConjugatedSingleBond NonConjugatedSingleBond NonConjugatedSingleBond ConjugatedSingleBond NonConjugatedSingleBond ConjugatedDoubleBond NonConjugatedSingleBond NonConjugatedSingleBond NonConjugatedSingleBond NonConjugatedSingleBond NonConjugatedSingleBond NonConjugatedSingleBond NonConjugatedSingleBond NonConjugatedSingleBond NonConjugatedSingleBond NonConjugatedSingleBond NonConjugatedSingleBond NonConjugatedSingleBond NonConjugatedSingleBond ConjugatedDoubleBond NonConjugatedSingleBond NonConjugatedSingleBond NonConjugatedSingleBond NonConjugatedSingleBond NonConjugatedSingleBond ConjugatedSingleBond ConjugatedDoubleBond ConjugatedSingleBond ConjugatedDoubleBond NonConjugatedSingleBond NonConjugatedSingleBond NonConjugatedSingleBond NonConjugatedSingleBond NonConjugatedSingleBond NonConjugatedSingleBond NonConjugatedSingleBond NonConjugatedSingleBond NonConjugatedSingleBond
M  BCL CHI  32   S  33   S
M  BCL DBI Z Z - - -
M  END
> <ConfClashScore>
0 

> <ConfOneFourInteractionScore>
-0.972778 

> <ConfScore>
0.00610466 

> <ConfScorePBest>
0.00644647 

> <ConfTolerance>
1.79412 

$$$$
L06.****
  PyMOL2.5          3D                             0

 49 48  0  0  0  0  0  0  0  0999 V2000
   -0.9842    0.6886    2.8490 C   0  0  0  1  0  0  0  0  0  0  0  0
   -2.2790    0.0431    2.4332 C   0  0  0  1  0  0  0  0  0  0  0  0
   -3.0768    0.5522    2.9324 H   0  0  0  1  0  0  0  0  0  0  0  0
   -2.2546   -0.9789    2.7490 H   0  0  0  1  0  0  0  0  0  0  0  0
    1.7231   -1.5613    8.0512 O   0  0  0  1  0  0  0  0  0  0  0  0
    2.2140   -1.1497    5.7582 O   0  0  0  1  0  0  0  0  0  0  0  0
    2.9104   -1.4309    4.5282 C   0  0  0  1  0  0  0  0  0  0  0  0
    2.3608   -2.1413    3.9466 H   0  0  0  1  0  0  0  0  0  0  0  0
    3.8860   -1.8181    4.7362 H   0  0  0  1  0  0  0  0  0  0  0  0
   -0.1027    0.3303    7.8039 O   0  0  0  0  0  0  0  0  0  0  0  0
    3.0164   -0.1294    3.7909 C   0  0  0  1  0  0  0  0  0  0  0  0
    3.5805    0.6165    4.2458 H   0  0  0  1  0  0  0  0  0  0  0  0
    2.4676    0.1742    2.6195 C   0  0  0  1  0  0  0  0  0  0  0  0
    2.3438    1.5783    2.0948 C   0  0  0  1  0  0  0  0  0  0  0  0
    2.5160    1.5636    1.0389 H   0  0  0  1  0  0  0  0  0  0  0  0
    3.0859    2.1858    2.5693 H   0  0  0  1  0  0  0  0  0  0  0  0
    0.9778    2.1924    2.3538 C   0  0  0  1  0  0  0  0  0  0  0  0
    0.8850    3.0786    1.7614 H   0  0  0  1  0  0  0  0  0  0  0  0
    0.9100    2.4472    3.3908 H   0  0  0  1  0  0  0  0  0  0  0  0
   -0.1591    1.2668    2.0125 C   0  0  0  1  0  0  0  0  0  0  0  0
   -0.3052    1.0645    1.0029 H   0  0  0  1  0  0  0  0  0  0  0  0
   -2.5695    0.0662    0.9383 C   0  0  0  1  0  0  0  0  0  0  0  0
   -1.8013   -0.4816    0.4336 H   0  0  0  1  0  0  0  0  0  0  0  0
   -2.5607    1.0830    0.6053 H   0  0  0  1  0  0  0  0  0  0  0  0
   -3.9011   -0.5415    0.5868 C   0  0  0  1  0  0  0  0  0  0  0  0
   -4.0260   -1.5595    0.7594 H   0  0  0  1  0  0  0  0  0  0  0  0
   -4.9297    0.1263    0.0722 C   0  0  0  1  0  0  0  0  0  0  0  0
   -6.2112   -0.6045   -0.2131 C   0  0  0  1  0  0  0  0  0  0  0  0
   -6.9821   -0.2391    0.4328 H   0  0  0  1  0  0  0  0  0  0  0  0
   -6.0700   -1.6514   -0.0428 H   0  0  0  1  0  0  0  0  0  0  0  0
   -6.4941   -0.4434   -1.2323 H   0  0  0  1  0  0  0  0  0  0  0  0
    1.6267   -2.3443    6.6670 P   0  0  0  1  0  0  0  0  0  0  0  0
    1.3837    0.0016    8.4139 P   0  0  0  1  0  0  0  0  0  0  0  0
    0.2239   -2.6029    6.2930 O   0  0  0  0  0  0  0  0  0  0  0  0
    1.2607    0.2643   10.0077 O   0  5  0  1  0  0  0  0  0  0  0  0
    1.9167   -0.8880    1.7103 C   0  0  0  1  0  0  0  0  0  0  0  0
    0.8858   -0.6853    1.5076 H   0  0  0  1  0  0  0  0  0  0  0  0
    2.0057   -1.8435    2.1835 H   0  0  0  1  0  0  0  0  0  0  0  0
    2.4664   -0.8915    0.7922 H   0  0  0  1  0  0  0  0  0  0  0  0
   -0.6920    0.6239    4.3314 C   0  0  0  1  0  0  0  0  0  0  0  0
    0.3666    0.6048    4.4862 H   0  0  0  1  0  0  0  0  0  0  0  0
   -1.1284   -0.2624    4.7423 H   0  0  0  1  0  0  0  0  0  0  0  0
   -1.1074    1.4836    4.8144 H   0  0  0  1  0  0  0  0  0  0  0  0
   -4.9419    1.5885   -0.2652 C   0  0  0  1  0  0  0  0  0  0  0  0
   -4.3145    2.1185    0.4207 H   0  0  0  1  0  0  0  0  0  0  0  0
   -5.9420    1.9622   -0.1950 H   0  0  0  1  0  0  0  0  0  0  0  0
   -4.5778    1.7274   -1.2617 H   0  0  0  1  0  0  0  0  0  0  0  0
    2.5836   -3.4649    6.6755 O   0  0  0  1  0  0  0  0  0  0  0  0
    2.3096    0.9497    7.7548 O   0  0  0  1  0  0  0  0  0  0  0  0
  1  2  1  0  0  0  0
  1 20  2  0  0  0  0
  1 40  1  0  0  0  0
  2  3  1  0  0  0  0
  2  4  1  0  0  0  0
  2 22  1  0  0  0  0
  5 32  1  0  0  0  0
  5 33  1  0  0  0  0
  6  7  1  0  0  0  0
  6 32  1  0  0  0  0
  7  8  1  0  0  0  0
  7  9  1  0  0  0  0
  7 11  1  0  0  0  0
 10 33  1  0  0  0  0
 11 12  1  0  0  0  0
 11 13  2  0  0  0  0
 13 14  1  0  0  0  0
 13 36  1  0  0  0  0
 14 15  1  0  0  0  0
 14 16  1  0  0  0  0
 14 17  1  0  0  0  0
 17 18  1  0  0  0  0
 17 19  1  0  0  0  0
 17 20  1  0  0  0  0
 20 21  1  0  0  0  0
 22 23  1  0  0  0  0
 22 24  1  0  0  0  0
 22 25  1  0  0  0  0
 25 26  1  0  0  0  0
 25 27  2  0  0  0  0
 27 28  1  0  0  0  0
 27 44  1  0  0  0  0
 28 29  1  0  0  0  0
 28 30  1  0  0  0  0
 28 31  1  0  0  0  0
 32 34  1  0  0  0  0
 32 48  2  0  0  0  0
 33 35  1  0  0  0  0
 33 49  2  0  0  0  0
 36 37  1  0  0  0  0
 36 38  1  0  0  0  0
 36 39  1  0  0  0  0
 40 41  1  0  0  0  0
 40 42  1  0  0  0  0
 40 43  1  0  0  0  0
 44 45  1  0  0  0  0
 44 46  1  0  0  0  0
 44 47  1  0  0  0  0
M  BCL ATM C_TrTrTrPi C_TeTeTeTe H_S H_S O_Tr2TrTrPi2 O_Tr2TrTrPi2 C_TeTeTeTe H_S H_S O_Te2Te2TeTe C_TrTrTrPi H_S C_TrTrTrPi C_TeTeTeTe H_S H_S C_TeTeTeTe H_S H_S C_TrTrTrPi H_S C_TeTeTeTe H_S H_S C_TrTrTrPi H_S C_TrTrTrPi C_TeTeTeTe H_S H_S H_S P_TeTeTeTePi P_TeTeTeTePi O_Te2Te2TeTe O_Te2Te2Te2Te C_TeTeTeTe H_S H_S H_S C_TeTeTeTe H_S H_S H_S C_TeTeTeTe H_S H_S H_S O_Tr2Tr2TrPi O_Tr2Tr2TrPi
M  BCL BND NonConjugatedSingleBond ConjugatedDoubleBond NonConjugatedSingleBond NonConjugatedSingleBond NonConjugatedSingleBond NonConjugatedSingleBond ConjugatedSingleBond ConjugatedSingleBond NonConjugatedSingleBond ConjugatedSingleBond NonConjugatedSingleBond NonConjugatedSingleBond NonConjugatedSingleBond ConjugatedSingleBond NonConjugatedSingleBond ConjugatedDoubleBond NonConjugatedSingleBond NonConjugatedSingleBond NonConjugatedSingleBond NonConjugatedSingleBond NonConjugatedSingleBond NonConjugatedSingleBond NonConjugatedSingleBond NonConjugatedSingleBond NonConjugatedSingleBond NonConjugatedSingleBond NonConjugatedSingleBond NonConjugatedSingleBond NonConjugatedSingleBond ConjugatedDoubleBond NonConjugatedSingleBond NonConjugatedSingleBond NonConjugatedSingleBond NonConjugatedSingleBond NonConjugatedSingleBond ConjugatedSingleBond ConjugatedDoubleBond ConjugatedSingleBond ConjugatedDoubleBond NonConjugatedSingleBond NonConjugatedSingleBond NonConjugatedSingleBond NonConjugatedSingleBond NonConjugatedSingleBond NonConjugatedSingleBond NonConjugatedSingleBond NonConjugatedSingleBond NonConjugatedSingleBond
M  BCL CHI  32   S  33   S
M  BCL DBI Z Z - - -
M  END
> <ConfClashScore>
0 

> <ConfOneFourInteractionScore>
-0.985843 

> <ConfScore>
0.0142942 

> <ConfScorePBest>
0.00634346 

> <ConfTolerance>
1.8673 

$$$$
L06.****
  PyMOL2.5          3D                             0

 49 48  0  0  0  0  0  0  0  0999 V2000
   -0.1335    0.1965   -0.9872 C   0  0  0  1  0  0  0  0  0  0  0  0
   -1.4041   -0.4646   -0.5135 C   0  0  0  1  0  0  0  0  0  0  0  0
   -1.4474   -0.3941    0.5533 H   0  0  0  1  0  0  0  0  0  0  0  0
   -1.3805   -1.4945   -0.8028 H   0  0  0  1  0  0  0  0  0  0  0  0
   -5.0157    5.7671   -1.4486 O   0  0  0  1  0  0  0  0  0  0  0  0
   -2.5360    5.2690   -1.5140 O   0  0  0  1  0  0  0  0  0  0  0  0
   -1.1725    5.7126   -1.6016 C   0  0  0  1  0  0  0  0  0  0  0  0
   -1.0912    6.7065   -1.2139 H   0  0  0  1  0  0  0  0  0  0  0  0
   -0.8545    5.7007   -2.6232 H   0  0  0  1  0  0  0  0  0  0  0  0
   -7.0710    4.5721   -0.4153 O   0  0  0  0  0  0  0  0  0  0  0  0
   -0.3145    4.7834   -0.7944 C   0  0  0  1  0  0  0  0  0  0  0  0
   -0.4874    4.7366    0.2300 H   0  0  0  1  0  0  0  0  0  0  0  0
    0.6491    4.0164   -1.2904 C   0  0  0  1  0  0  0  0  0  0  0  0
    1.6331    3.3219   -0.3945 C   0  0  0  1  0  0  0  0  0  0  0  0
    1.3158    3.4450    0.6200 H   0  0  0  1  0  0  0  0  0  0  0  0
    2.5930    3.7759   -0.5261 H   0  0  0  1  0  0  0  0  0  0  0  0
    1.7570    1.8352   -0.6855 C   0  0  0  1  0  0  0  0  0  0  0  0
    2.6335    1.4737   -0.1896 H   0  0  0  1  0  0  0  0  0  0  0  0
    1.8692    1.7140   -1.7427 H   0  0  0  1  0  0  0  0  0  0  0  0
    0.5926    0.9923   -0.2429 C   0  0  0  1  0  0  0  0  0  0  0  0
    0.3364    1.0476    0.7636 H   0  0  0  1  0  0  0  0  0  0  0  0
   -2.6576    0.1717   -1.0917 C   0  0  0  1  0  0  0  0  0  0  0  0
   -2.5727    0.1584   -2.1582 H   0  0  0  1  0  0  0  0  0  0  0  0
   -2.7016    1.1845   -0.7495 H   0  0  0  1  0  0  0  0  0  0  0  0
   -3.9442   -0.4963   -0.7230 C   0  0  0  1  0  0  0  0  0  0  0  0
   -4.0572   -1.4978   -0.9795 H   0  0  0  1  0  0  0  0  0  0  0  0
   -4.9534    0.0945   -0.0921 C   0  0  0  1  0  0  0  0  0  0  0  0
   -6.2191   -0.6116    0.2987 C   0  0  0  1  0  0  0  0  0  0  0  0
   -6.8797   -0.6522   -0.5421 H   0  0  0  1  0  0  0  0  0  0  0  0
   -6.6917   -0.0798    1.0979 H   0  0  0  1  0  0  0  0  0  0  0  0
   -5.9881   -1.6061    0.6188 H   0  0  0  1  0  0  0  0  0  0  0  0
   -3.6887    6.0562   -2.2405 P   0  0  0  1  0  0  0  0  0  0  0  0
   -6.1561    4.6346   -1.7749 P   0  0  0  1  0  0  0  0  0  0  0  0
   -3.4445    7.5260   -2.1089 O   0  0  0  0  0  0  0  0  0  0  0  0
   -7.0055    5.1971   -3.0345 O   0  5  0  1  0  0  0  0  0  0  0  0
    0.8519    3.7687   -2.7587 C   0  0  0  1  0  0  0  0  0  0  0  0
    0.7491    2.7233   -2.9621 H   0  0  0  1  0  0  0  0  0  0  0  0
    1.8314    4.0924   -3.0428 H   0  0  0  1  0  0  0  0  0  0  0  0
    0.1197    4.3141   -3.3167 H   0  0  0  1  0  0  0  0  0  0  0  0
    0.2534   -0.1261   -2.4032 C   0  0  0  1  0  0  0  0  0  0  0  0
    0.0271   -1.1511   -2.6106 H   0  0  0  1  0  0  0  0  0  0  0  0
    1.3023    0.0407   -2.5329 H   0  0  0  1  0  0  0  0  0  0  0  0
   -0.2939    0.5025   -3.0742 H   0  0  0  1  0  0  0  0  0  0  0  0
   -4.9015    1.5481    0.2860 C   0  0  0  1  0  0  0  0  0  0  0  0
   -5.2480    2.1428   -0.5332 H   0  0  0  1  0  0  0  0  0  0  0  0
   -3.8937    1.8192    0.5220 H   0  0  0  1  0  0  0  0  0  0  0  0
   -5.5258    1.7171    1.1384 H   0  0  0  1  0  0  0  0  0  0  0  0
   -3.7519    5.5445   -3.6287 O   0  0  0  1  0  0  0  0  0  0  0  0
   -5.5183    3.3422   -2.1117 O   0  0  0  1  0  0  0  0  0  0  0  0
  1  2  1  0  0  0  0
  1 20  2  0  0  0  0
  1 40  1  0  0  0  0
  2  3  1  0  0  0  0
  2  4  1  0  0  0  0
  2 22  1  0  0  0  0
  5 32  1  0  0  0  0
  5 33  1  0  0  0  0
  6  7  1  0  0  0  0
  6 32  1  0  0  0  0
  7  8  1  0  0  0  0
  7  9  1  0  0  0  0
  7 11  1  0  0  0  0
 10 33  1  0  0  0  0
 11 12  1  0  0  0  0
 11 13  2  0  0  0  0
 13 14  1  0  0  0  0
 13 36  1  0  0  0  0
 14 15  1  0  0  0  0
 14 16  1  0  0  0  0
 14 17  1  0  0  0  0
 17 18  1  0  0  0  0
 17 19  1  0  0  0  0
 17 20  1  0  0  0  0
 20 21  1  0  0  0  0
 22 23  1  0  0  0  0
 22 24  1  0  0  0  0
 22 25  1  0  0  0  0
 25 26  1  0  0  0  0
 25 27  2  0  0  0  0
 27 28  1  0  0  0  0
 27 44  1  0  0  0  0
 28 29  1  0  0  0  0
 28 30  1  0  0  0  0
 28 31  1  0  0  0  0
 32 34  1  0  0  0  0
 32 48  2  0  0  0  0
 33 35  1  0  0  0  0
 33 49  2  0  0  0  0
 36 37  1  0  0  0  0
 36 38  1  0  0  0  0
 36 39  1  0  0  0  0
 40 41  1  0  0  0  0
 40 42  1  0  0  0  0
 40 43  1  0  0  0  0
 44 45  1  0  0  0  0
 44 46  1  0  0  0  0
 44 47  1  0  0  0  0
M  BCL ATM C_TrTrTrPi C_TeTeTeTe H_S H_S O_Tr2TrTrPi2 O_Tr2TrTrPi2 C_TeTeTeTe H_S H_S O_Te2Te2TeTe C_TrTrTrPi H_S C_TrTrTrPi C_TeTeTeTe H_S H_S C_TeTeTeTe H_S H_S C_TrTrTrPi H_S C_TeTeTeTe H_S H_S C_TrTrTrPi H_S C_TrTrTrPi C_TeTeTeTe H_S H_S H_S P_TeTeTeTePi P_TeTeTeTePi O_Te2Te2TeTe O_Te2Te2Te2Te C_TeTeTeTe H_S H_S H_S C_TeTeTeTe H_S H_S H_S C_TeTeTeTe H_S H_S H_S O_Tr2Tr2TrPi O_Tr2Tr2TrPi
M  BCL BND NonConjugatedSingleBond ConjugatedDoubleBond NonConjugatedSingleBond NonConjugatedSingleBond NonConjugatedSingleBond NonConjugatedSingleBond ConjugatedSingleBond ConjugatedSingleBond NonConjugatedSingleBond ConjugatedSingleBond NonConjugatedSingleBond NonConjugatedSingleBond NonConjugatedSingleBond ConjugatedSingleBond NonConjugatedSingleBond ConjugatedDoubleBond NonConjugatedSingleBond NonConjugatedSingleBond NonConjugatedSingleBond NonConjugatedSingleBond NonConjugatedSingleBond NonConjugatedSingleBond NonConjugatedSingleBond NonConjugatedSingleBond NonConjugatedSingleBond NonConjugatedSingleBond NonConjugatedSingleBond NonConjugatedSingleBond NonConjugatedSingleBond ConjugatedDoubleBond NonConjugatedSingleBond NonConjugatedSingleBond NonConjugatedSingleBond NonConjugatedSingleBond NonConjugatedSingleBond ConjugatedSingleBond ConjugatedDoubleBond ConjugatedSingleBond ConjugatedDoubleBond NonConjugatedSingleBond NonConjugatedSingleBond NonConjugatedSingleBond NonConjugatedSingleBond NonConjugatedSingleBond NonConjugatedSingleBond NonConjugatedSingleBond NonConjugatedSingleBond NonConjugatedSingleBond
M  BCL CHI  32   S  33   S
M  BCL DBI Z Z - - -
M  END
> <ConfClashScore>
0 

> <ConfOneFourInteractionScore>
-0.972961 

> <ConfScore>
0.016011 

> <ConfScorePBest>
0.00624046 

> <ConfTolerance>
1.51861 

$$$$
L06.****
  PyMOL2.5          3D                             0

 49 48  0  0  0  0  0  0  0  0999 V2000
   -2.2109   -3.9795   -0.3959 C   0  0  0  1  0  0  0  0  0  0  0  0
   -2.5933   -2.5373   -0.5604 C   0  0  0  1  0  0  0  0  0  0  0  0
   -2.9659   -2.4059   -1.5548 H   0  0  0  1  0  0  0  0  0  0  0  0
   -1.7121   -1.9450   -0.4280 H   0  0  0  1  0  0  0  0  0  0  0  0
   -2.1228   -4.8711    5.7844 O   0  0  0  1  0  0  0  0  0  0  0  0
   -2.7938   -7.0879    4.8992 O   0  0  0  1  0  0  0  0  0  0  0  0
   -2.9045   -6.5428    3.5873 C   0  0  0  1  0  0  0  0  0  0  0  0
   -3.4641   -5.6329    3.6481 H   0  0  0  1  0  0  0  0  0  0  0  0
   -3.4305   -7.2455    2.9753 H   0  0  0  1  0  0  0  0  0  0  0  0
   -3.0386   -3.1308    7.4368 O   0  0  0  0  0  0  0  0  0  0  0  0
   -1.5878   -6.2425    2.9334 C   0  0  0  1  0  0  0  0  0  0  0  0
   -1.0190   -5.4676    3.3304 H   0  0  0  1  0  0  0  0  0  0  0  0
   -1.0948   -6.8923    1.8859 C   0  0  0  1  0  0  0  0  0  0  0  0
    0.0538   -6.3347    1.0885 C   0  0  0  1  0  0  0  0  0  0  0  0
    0.7382   -7.1292    0.8757 H   0  0  0  1  0  0  0  0  0  0  0  0
    0.5454   -5.5877    1.6760 H   0  0  0  1  0  0  0  0  0  0  0  0
   -0.3826   -5.7072   -0.2253 C   0  0  0  1  0  0  0  0  0  0  0  0
   -1.1128   -6.3496   -0.6715 H   0  0  0  1  0  0  0  0  0  0  0  0
    0.4749   -5.6446   -0.8622 H   0  0  0  1  0  0  0  0  0  0  0  0
   -0.9808   -4.3302   -0.1154 C   0  0  0  1  0  0  0  0  0  0  0  0
   -0.3486   -3.5755    0.2196 H   0  0  0  1  0  0  0  0  0  0  0  0
   -3.6496   -2.0289    0.4072 C   0  0  0  1  0  0  0  0  0  0  0  0
   -3.3704   -2.3178    1.3989 H   0  0  0  1  0  0  0  0  0  0  0  0
   -4.5872   -2.4785    0.1548 H   0  0  0  1  0  0  0  0  0  0  0  0
   -3.8108   -0.5326    0.3714 C   0  0  0  1  0  0  0  0  0  0  0  0
   -2.9737    0.0300    0.6253 H   0  0  0  1  0  0  0  0  0  0  0  0
   -4.9055    0.1467    0.0509 C   0  0  0  1  0  0  0  0  0  0  0  0
   -6.1884   -0.5551   -0.2884 C   0  0  0  1  0  0  0  0  0  0  0  0
   -6.0706   -1.6077   -0.1365 H   0  0  0  1  0  0  0  0  0  0  0  0
   -6.4368   -0.3683   -1.3123 H   0  0  0  1  0  0  0  0  0  0  0  0
   -6.9721   -0.1896    0.3417 H   0  0  0  1  0  0  0  0  0  0  0  0
   -3.0121   -6.1296    6.1390 P   0  0  0  1  0  0  0  0  0  0  0  0
   -2.5354   -3.2870    5.8838 P   0  0  0  1  0  0  0  0  0  0  0  0
   -4.4111   -5.6513    6.0463 O   0  0  0  0  0  0  0  0  0  0  0  0
   -1.2856   -2.2800    5.6638 O   0  5  0  1  0  0  0  0  0  0  0  0
   -1.6144   -8.2133    1.3990 C   0  0  0  1  0  0  0  0  0  0  0  0
   -0.8158   -8.9251    1.3770 H   0  0  0  1  0  0  0  0  0  0  0  0
   -2.0157   -8.0973    0.4140 H   0  0  0  1  0  0  0  0  0  0  0  0
   -2.3822   -8.5594    2.0590 H   0  0  0  1  0  0  0  0  0  0  0  0
   -3.3402   -4.9542   -0.5783 C   0  0  0  1  0  0  0  0  0  0  0  0
   -3.7586   -4.8372   -1.5561 H   0  0  0  1  0  0  0  0  0  0  0  0
   -4.0947   -4.7672    0.1570 H   0  0  0  1  0  0  0  0  0  0  0  0
   -2.9712   -5.9523   -0.4656 H   0  0  0  1  0  0  0  0  0  0  0  0
   -4.9756    1.6468   -0.0049 C   0  0  0  1  0  0  0  0  0  0  0  0
   -5.7682    1.9911    0.6262 H   0  0  0  1  0  0  0  0  0  0  0  0
   -5.1611    1.9578   -1.0118 H   0  0  0  1  0  0  0  0  0  0  0  0
   -4.0475    2.0598    0.3312 H   0  0  0  1  0  0  0  0  0  0  0  0
   -2.5487   -6.7696    7.3740 O   0  0  0  1  0  0  0  0  0  0  0  0
   -3.6539   -2.9197    4.9868 O   0  0  0  1  0  0  0  0  0  0  0  0
  1  2  1  0  0  0  0
  1 20  2  0  0  0  0
  1 40  1  0  0  0  0
  2  3  1  0  0  0  0
  2  4  1  0  0  0  0
  2 22  1  0  0  0  0
  5 32  1  0  0  0  0
  5 33  1  0  0  0  0
  6  7  1  0  0  0  0
  6 32  1  0  0  0  0
  7  8  1  0  0  0  0
  7  9  1  0  0  0  0
  7 11  1  0  0  0  0
 10 33  1  0  0  0  0
 11 12  1  0  0  0  0
 11 13  2  0  0  0  0
 13 14  1  0  0  0  0
 13 36  1  0  0  0  0
 14 15  1  0  0  0  0
 14 16  1  0  0  0  0
 14 17  1  0  0  0  0
 17 18  1  0  0  0  0
 17 19  1  0  0  0  0
 17 20  1  0  0  0  0
 20 21  1  0  0  0  0
 22 23  1  0  0  0  0
 22 24  1  0  0  0  0
 22 25  1  0  0  0  0
 25 26  1  0  0  0  0
 25 27  2  0  0  0  0
 27 28  1  0  0  0  0
 27 44  1  0  0  0  0
 28 29  1  0  0  0  0
 28 30  1  0  0  0  0
 28 31  1  0  0  0  0
 32 34  1  0  0  0  0
 32 48  2  0  0  0  0
 33 35  1  0  0  0  0
 33 49  2  0  0  0  0
 36 37  1  0  0  0  0
 36 38  1  0  0  0  0
 36 39  1  0  0  0  0
 40 41  1  0  0  0  0
 40 42  1  0  0  0  0
 40 43  1  0  0  0  0
 44 45  1  0  0  0  0
 44 46  1  0  0  0  0
 44 47  1  0  0  0  0
M  BCL ATM C_TrTrTrPi C_TeTeTeTe H_S H_S O_Tr2TrTrPi2 O_Tr2TrTrPi2 C_TeTeTeTe H_S H_S O_Te2Te2TeTe C_TrTrTrPi H_S C_TrTrTrPi C_TeTeTeTe H_S H_S C_TeTeTeTe H_S H_S C_TrTrTrPi H_S C_TeTeTeTe H_S H_S C_TrTrTrPi H_S C_TrTrTrPi C_TeTeTeTe H_S H_S H_S P_TeTeTeTePi P_TeTeTeTePi O_Te2Te2TeTe O_Te2Te2Te2Te C_TeTeTeTe H_S H_S H_S C_TeTeTeTe H_S H_S H_S C_TeTeTeTe H_S H_S H_S O_Tr2Tr2TrPi O_Tr2Tr2TrPi
M  BCL BND NonConjugatedSingleBond ConjugatedDoubleBond NonConjugatedSingleBond NonConjugatedSingleBond NonConjugatedSingleBond NonConjugatedSingleBond ConjugatedSingleBond ConjugatedSingleBond NonConjugatedSingleBond ConjugatedSingleBond NonConjugatedSingleBond NonConjugatedSingleBond NonConjugatedSingleBond ConjugatedSingleBond NonConjugatedSingleBond ConjugatedDoubleBond NonConjugatedSingleBond NonConjugatedSingleBond NonConjugatedSingleBond NonConjugatedSingleBond NonConjugatedSingleBond NonConjugatedSingleBond NonConjugatedSingleBond NonConjugatedSingleBond NonConjugatedSingleBond NonConjugatedSingleBond NonConjugatedSingleBond NonConjugatedSingleBond NonConjugatedSingleBond ConjugatedDoubleBond NonConjugatedSingleBond NonConjugatedSingleBond NonConjugatedSingleBond NonConjugatedSingleBond NonConjugatedSingleBond ConjugatedSingleBond ConjugatedDoubleBond ConjugatedSingleBond ConjugatedDoubleBond NonConjugatedSingleBond NonConjugatedSingleBond NonConjugatedSingleBond NonConjugatedSingleBond NonConjugatedSingleBond NonConjugatedSingleBond NonConjugatedSingleBond NonConjugatedSingleBond NonConjugatedSingleBond
M  BCL CHI  32   S  33   S
M  BCL DBI Z Z - - -
M  END
> <ConfClashScore>
0 

> <ConfOneFourInteractionScore>
-0.972961 

> <ConfScore>
0.0169173 

> <ConfScorePBest>
0.00613746 

> <ConfTolerance>
1.79051 

$$$$
L06.****
  PyMOL2.5          3D                             0

 49 48  0  0  0  0  0  0  0  0999 V2000
   -2.2681   -3.9840   -0.6568 C   0  0  0  1  0  0  0  0  0  0  0  0
   -2.8037   -2.6093   -0.9556 C   0  0  0  1  0  0  0  0  0  0  0  0
   -3.5530   -2.6934   -1.7148 H   0  0  0  1  0  0  0  0  0  0  0  0
   -1.9995   -2.0009   -1.3134 H   0  0  0  1  0  0  0  0  0  0  0  0
    5.9723  -10.0380   -0.5711 O   0  0  0  1  0  0  0  0  0  0  0  0
    4.7090   -7.9086   -1.0169 O   0  0  0  1  0  0  0  0  0  0  0  0
    3.5563   -8.2990   -1.7800 C   0  0  0  1  0  0  0  0  0  0  0  0
    3.1330   -9.1786   -1.3418 H   0  0  0  1  0  0  0  0  0  0  0  0
    3.8612   -8.5112   -2.7834 H   0  0  0  1  0  0  0  0  0  0  0  0
    5.5591  -12.6814   -0.1563 O   0  0  0  0  0  0  0  0  0  0  0  0
    2.5137   -7.2215   -1.8077 C   0  0  0  1  0  0  0  0  0  0  0  0
    2.7891   -6.2757   -2.1411 H   0  0  0  1  0  0  0  0  0  0  0  0
    1.2435   -7.4176   -1.4237 C   0  0  0  1  0  0  0  0  0  0  0  0
    0.1169   -6.4735   -1.7354 C   0  0  0  1  0  0  0  0  0  0  0  0
   -0.7141   -7.0534   -2.0789 H   0  0  0  1  0  0  0  0  0  0  0  0
    0.4420   -5.8179   -2.5160 H   0  0  0  1  0  0  0  0  0  0  0  0
   -0.3590   -5.6150   -0.5673 C   0  0  0  1  0  0  0  0  0  0  0  0
    0.4889   -5.2969    0.0026 H   0  0  0  1  0  0  0  0  0  0  0  0
   -1.0089   -6.1959    0.0532 H   0  0  0  1  0  0  0  0  0  0  0  0
   -1.0980   -4.4115   -1.0602 C   0  0  0  1  0  0  0  0  0  0  0  0
   -0.6319   -3.8537   -1.8040 H   0  0  0  1  0  0  0  0  0  0  0  0
   -3.4189   -1.9330    0.2586 C   0  0  0  1  0  0  0  0  0  0  0  0
   -2.7268   -1.9985    1.0721 H   0  0  0  1  0  0  0  0  0  0  0  0
   -4.3210   -2.4482    0.5149 H   0  0  0  1  0  0  0  0  0  0  0  0
   -3.7427   -0.4963    0.0255 C   0  0  0  1  0  0  0  0  0  0  0  0
   -2.9232    0.1200   -0.1481 H   0  0  0  1  0  0  0  0  0  0  0  0
   -4.9245    0.1138    0.0066 C   0  0  0  1  0  0  0  0  0  0  0  0
   -6.2523   -0.5432    0.2574 C   0  0  0  1  0  0  0  0  0  0  0  0
   -6.7107   -0.1047    1.1190 H   0  0  0  1  0  0  0  0  0  0  0  0
   -6.1060   -1.5898    0.4253 H   0  0  0  1  0  0  0  0  0  0  0  0
   -6.8856   -0.4031   -0.5935 H   0  0  0  1  0  0  0  0  0  0  0  0
    5.3096   -8.7807    0.1268 P   0  0  0  1  0  0  0  0  0  0  0  0
    6.6037  -11.4299    0.0234 P   0  0  0  1  0  0  0  0  0  0  0  0
    6.3426   -8.1423    0.9681 O   0  0  0  0  0  0  0  0  0  0  0  0
    7.9003  -11.8615   -0.8467 O   0  5  0  1  0  0  0  0  0  0  0  0
    0.7783   -8.6074   -0.6308 C   0  0  0  1  0  0  0  0  0  0  0  0
    0.0745   -9.1689   -1.2091 H   0  0  0  1  0  0  0  0  0  0  0  0
    0.3117   -8.2734    0.2723 H   0  0  0  1  0  0  0  0  0  0  0  0
    1.6175   -9.2265   -0.3915 H   0  0  0  1  0  0  0  0  0  0  0  0
   -3.1857   -4.8536    0.1537 C   0  0  0  1  0  0  0  0  0  0  0  0
   -3.9207   -5.2928   -0.4879 H   0  0  0  1  0  0  0  0  0  0  0  0
   -3.6723   -4.2605    0.8995 H   0  0  0  1  0  0  0  0  0  0  0  0
   -2.6178   -5.6272    0.6270 H   0  0  0  1  0  0  0  0  0  0  0  0
   -4.9877    1.5844   -0.2856 C   0  0  0  1  0  0  0  0  0  0  0  0
   -5.7075    1.7647   -1.0566 H   0  0  0  1  0  0  0  0  0  0  0  0
   -4.0263    1.9252   -0.6088 H   0  0  0  1  0  0  0  0  0  0  0  0
   -5.2745    2.1118    0.6001 H   0  0  0  1  0  0  0  0  0  0  0  0
    4.1334   -9.1951    0.9428 O   0  0  0  1  0  0  0  0  0  0  0  0
    6.9314  -11.3770    1.4657 O   0  0  0  1  0  0  0  0  0  0  0  0
  1  2  1  0  0  0  0
  1 20  2  0  0  0  0
  1 40  1  0  0  0  0
  2  3  1  0  0  0  0
  2  4  1  0  0  0  0
  2 22  1  0  0  0  0
  5 32  1  0  0  0  0
  5 33  1  0  0  0  0
  6  7  1  0  0  0  0
  6 32  1  0  0  0  0
  7  8  1  0  0  0  0
  7  9  1  0  0  0  0
  7 11  1  0  0  0  0
 10 33  1  0  0  0  0
 11 12  1  0  0  0  0
 11 13  2  0  0  0  0
 13 14  1  0  0  0  0
 13 36  1  0  0  0  0
 14 15  1  0  0  0  0
 14 16  1  0  0  0  0
 14 17  1  0  0  0  0
 17 18  1  0  0  0  0
 17 19  1  0  0  0  0
 17 20  1  0  0  0  0
 20 21  1  0  0  0  0
 22 23  1  0  0  0  0
 22 24  1  0  0  0  0
 22 25  1  0  0  0  0
 25 26  1  0  0  0  0
 25 27  2  0  0  0  0
 27 28  1  0  0  0  0
 27 44  1  0  0  0  0
 28 29  1  0  0  0  0
 28 30  1  0  0  0  0
 28 31  1  0  0  0  0
 32 34  1  0  0  0  0
 32 48  2  0  0  0  0
 33 35  1  0  0  0  0
 33 49  2  0  0  0  0
 36 37  1  0  0  0  0
 36 38  1  0  0  0  0
 36 39  1  0  0  0  0
 40 41  1  0  0  0  0
 40 42  1  0  0  0  0
 40 43  1  0  0  0  0
 44 45  1  0  0  0  0
 44 46  1  0  0  0  0
 44 47  1  0  0  0  0
M  BCL ATM C_TrTrTrPi C_TeTeTeTe H_S H_S O_Tr2TrTrPi2 O_Tr2TrTrPi2 C_TeTeTeTe H_S H_S O_Te2Te2TeTe C_TrTrTrPi H_S C_TrTrTrPi C_TeTeTeTe H_S H_S C_TeTeTeTe H_S H_S C_TrTrTrPi H_S C_TeTeTeTe H_S H_S C_TrTrTrPi H_S C_TrTrTrPi C_TeTeTeTe H_S H_S H_S P_TeTeTeTePi P_TeTeTeTePi O_Te2Te2TeTe O_Te2Te2Te2Te C_TeTeTeTe H_S H_S H_S C_TeTeTeTe H_S H_S H_S C_TeTeTeTe H_S H_S H_S O_Tr2Tr2TrPi O_Tr2Tr2TrPi
M  BCL BND NonConjugatedSingleBond ConjugatedDoubleBond NonConjugatedSingleBond NonConjugatedSingleBond NonConjugatedSingleBond NonConjugatedSingleBond ConjugatedSingleBond ConjugatedSingleBond NonConjugatedSingleBond ConjugatedSingleBond NonConjugatedSingleBond NonConjugatedSingleBond NonConjugatedSingleBond ConjugatedSingleBond NonConjugatedSingleBond ConjugatedDoubleBond NonConjugatedSingleBond NonConjugatedSingleBond NonConjugatedSingleBond NonConjugatedSingleBond NonConjugatedSingleBond NonConjugatedSingleBond NonConjugatedSingleBond NonConjugatedSingleBond NonConjugatedSingleBond NonConjugatedSingleBond NonConjugatedSingleBond NonConjugatedSingleBond NonConjugatedSingleBond ConjugatedDoubleBond NonConjugatedSingleBond NonConjugatedSingleBond NonConjugatedSingleBond NonConjugatedSingleBond NonConjugatedSingleBond ConjugatedSingleBond ConjugatedDoubleBond ConjugatedSingleBond ConjugatedDoubleBond NonConjugatedSingleBond NonConjugatedSingleBond NonConjugatedSingleBond NonConjugatedSingleBond NonConjugatedSingleBond NonConjugatedSingleBond NonConjugatedSingleBond NonConjugatedSingleBond NonConjugatedSingleBond
M  BCL CHI  32   S  33   S
M  BCL DBI Z Z - - -
M  END
> <ConfClashScore>
0 

> <ConfOneFourInteractionScore>
-0.971439 

> <ConfScore>
0.0187039 

> <ConfScorePBest>
0.00603446 

> <ConfTolerance>
1.7725 

$$$$
L06.****
  PyMOL2.5          3D                             0

 49 48  0  0  0  0  0  0  0  0999 V2000
   -1.1827    1.2330    2.6010 C   0  0  0  1  0  0  0  0  0  0  0  0
   -2.4518    0.4968    2.2772 C   0  0  0  1  0  0  0  0  0  0  0  0
   -3.2825    1.1156    2.5456 H   0  0  0  1  0  0  0  0  0  0  0  0
   -2.4783   -0.4054    2.8518 H   0  0  0  1  0  0  0  0  0  0  0  0
   -0.0528    1.5525   10.0584 O   0  0  0  1  0  0  0  0  0  0  0  0
   -2.4007    1.7900    9.1020 O   0  0  0  1  0  0  0  0  0  0  0  0
   -2.1154    1.3368    7.7640 C   0  0  0  1  0  0  0  0  0  0  0  0
   -3.0208    0.9802    7.3191 H   0  0  0  1  0  0  0  0  0  0  0  0
   -1.4034    0.5396    7.8133 H   0  0  0  1  0  0  0  0  0  0  0  0
    0.2986    0.2288   12.3941 O   0  0  0  0  0  0  0  0  0  0  0  0
   -1.5550    2.4354    6.9095 C   0  0  0  1  0  0  0  0  0  0  0  0
   -2.1210    3.3054    6.8427 H   0  0  0  1  0  0  0  0  0  0  0  0
   -0.4140    2.4175    6.2288 C   0  0  0  1  0  0  0  0  0  0  0  0
   -0.0174    3.4759    5.2371 C   0  0  0  1  0  0  0  0  0  0  0  0
    0.9297    3.8723    5.5386 H   0  0  0  1  0  0  0  0  0  0  0  0
   -0.7550    4.2503    5.2682 H   0  0  0  1  0  0  0  0  0  0  0  0
    0.1081    3.0054    3.7972 C   0  0  0  1  0  0  0  0  0  0  0  0
    0.9082    2.2973    3.7388 H   0  0  0  1  0  0  0  0  0  0  0  0
    0.3337    3.8507    3.1812 H   0  0  0  1  0  0  0  0  0  0  0  0
   -1.1451    2.3556    3.2784 C   0  0  0  1  0  0  0  0  0  0  0  0
   -2.0493    2.8320    3.4710 H   0  0  0  1  0  0  0  0  0  0  0  0
   -2.5723    0.1368    0.8054 C   0  0  0  1  0  0  0  0  0  0  0  0
   -1.7597   -0.5087    0.5450 H   0  0  0  1  0  0  0  0  0  0  0  0
   -2.5129    1.0362    0.2288 H   0  0  0  1  0  0  0  0  0  0  0  0
   -3.8539   -0.5556    0.4755 C   0  0  0  1  0  0  0  0  0  0  0  0
   -3.8974   -1.5898    0.5767 H   0  0  0  1  0  0  0  0  0  0  0  0
   -4.9413    0.0846    0.0591 C   0  0  0  1  0  0  0  0  0  0  0  0
   -6.2569   -0.5889   -0.1965 C   0  0  0  1  0  0  0  0  0  0  0  0
   -7.0271   -0.0880    0.3520 H   0  0  0  1  0  0  0  0  0  0  0  0
   -6.2017   -1.6100    0.1182 H   0  0  0  1  0  0  0  0  0  0  0  0
   -6.4805   -0.5490   -1.2421 H   0  0  0  1  0  0  0  0  0  0  0  0
   -1.2933    2.4094   10.0678 P   0  0  0  1  0  0  0  0  0  0  0  0
    0.9334    1.3208   11.3481 P   0  0  0  1  0  0  0  0  0  0  0  0
   -1.0112    3.8333    9.4938 O   0  0  0  0  0  0  0  0  0  0  0  0
    2.3384    0.6971   10.8366 O   0  5  0  1  0  0  0  0  0  0  0  0
    0.5886    1.3117    6.4035 C   0  0  0  1  0  0  0  0  0  0  0  0
    1.5458    1.7307    6.6341 H   0  0  0  1  0  0  0  0  0  0  0  0
    0.6561    0.7455    5.4981 H   0  0  0  1  0  0  0  0  0  0  0  0
    0.2778    0.6718    7.2027 H   0  0  0  1  0  0  0  0  0  0  0  0
    0.0705    0.5832    2.0856 C   0  0  0  1  0  0  0  0  0  0  0  0
    0.9113    1.2099    2.2984 H   0  0  0  1  0  0  0  0  0  0  0  0
   -0.0102    0.4422    1.0280 H   0  0  0  1  0  0  0  0  0  0  0  0
    0.2028   -0.3650    2.5634 H   0  0  0  1  0  0  0  0  0  0  0  0
   -4.9335    1.5637   -0.1922 C   0  0  0  1  0  0  0  0  0  0  0  0
   -5.6646    2.0356    0.4304 H   0  0  0  1  0  0  0  0  0  0  0  0
   -5.1655    1.7518   -1.2197 H   0  0  0  1  0  0  0  0  0  0  0  0
   -3.9649    1.9585    0.0333 H   0  0  0  1  0  0  0  0  0  0  0  0
   -1.9547    2.5332   11.4098 O   0  0  0  1  0  0  0  0  0  0  0  0
    1.1155    2.6015   12.0672 O   0  0  0  1  0  0  0  0  0  0  0  0
  1  2  1  0  0  0  0
  1 20  2  0  0  0  0
  1 40  1  0  0  0  0
  2  3  1  0  0  0  0
  2  4  1  0  0  0  0
  2 22  1  0  0  0  0
  5 32  1  0  0  0  0
  5 33  1  0  0  0  0
  6  7  1  0  0  0  0
  6 32  1  0  0  0  0
  7  8  1  0  0  0  0
  7  9  1  0  0  0  0
  7 11  1  0  0  0  0
 10 33  1  0  0  0  0
 11 12  1  0  0  0  0
 11 13  2  0  0  0  0
 13 14  1  0  0  0  0
 13 36  1  0  0  0  0
 14 15  1  0  0  0  0
 14 16  1  0  0  0  0
 14 17  1  0  0  0  0
 17 18  1  0  0  0  0
 17 19  1  0  0  0  0
 17 20  1  0  0  0  0
 20 21  1  0  0  0  0
 22 23  1  0  0  0  0
 22 24  1  0  0  0  0
 22 25  1  0  0  0  0
 25 26  1  0  0  0  0
 25 27  2  0  0  0  0
 27 28  1  0  0  0  0
 27 44  1  0  0  0  0
 28 29  1  0  0  0  0
 28 30  1  0  0  0  0
 28 31  1  0  0  0  0
 32 34  1  0  0  0  0
 32 48  2  0  0  0  0
 33 35  1  0  0  0  0
 33 49  2  0  0  0  0
 36 37  1  0  0  0  0
 36 38  1  0  0  0  0
 36 39  1  0  0  0  0
 40 41  1  0  0  0  0
 40 42  1  0  0  0  0
 40 43  1  0  0  0  0
 44 45  1  0  0  0  0
 44 46  1  0  0  0  0
 44 47  1  0  0  0  0
M  BCL ATM C_TrTrTrPi C_TeTeTeTe H_S H_S O_Tr2TrTrPi2 O_Tr2TrTrPi2 C_TeTeTeTe H_S H_S O_Te2Te2TeTe C_TrTrTrPi H_S C_TrTrTrPi C_TeTeTeTe H_S H_S C_TeTeTeTe H_S H_S C_TrTrTrPi H_S C_TeTeTeTe H_S H_S C_TrTrTrPi H_S C_TrTrTrPi C_TeTeTeTe H_S H_S H_S P_TeTeTeTePi P_TeTeTeTePi O_Te2Te2TeTe O_Te2Te2Te2Te C_TeTeTeTe H_S H_S H_S C_TeTeTeTe H_S H_S H_S C_TeTeTeTe H_S H_S H_S O_Tr2Tr2TrPi O_Tr2Tr2TrPi
M  BCL BND NonConjugatedSingleBond ConjugatedDoubleBond NonConjugatedSingleBond NonConjugatedSingleBond NonConjugatedSingleBond NonConjugatedSingleBond ConjugatedSingleBond ConjugatedSingleBond NonConjugatedSingleBond ConjugatedSingleBond NonConjugatedSingleBond NonConjugatedSingleBond NonConjugatedSingleBond ConjugatedSingleBond NonConjugatedSingleBond ConjugatedDoubleBond NonConjugatedSingleBond NonConjugatedSingleBond NonConjugatedSingleBond NonConjugatedSingleBond NonConjugatedSingleBond NonConjugatedSingleBond NonConjugatedSingleBond NonConjugatedSingleBond NonConjugatedSingleBond NonConjugatedSingleBond NonConjugatedSingleBond NonConjugatedSingleBond NonConjugatedSingleBond ConjugatedDoubleBond NonConjugatedSingleBond NonConjugatedSingleBond NonConjugatedSingleBond NonConjugatedSingleBond NonConjugatedSingleBond ConjugatedSingleBond ConjugatedDoubleBond ConjugatedSingleBond ConjugatedDoubleBond NonConjugatedSingleBond NonConjugatedSingleBond NonConjugatedSingleBond NonConjugatedSingleBond NonConjugatedSingleBond NonConjugatedSingleBond NonConjugatedSingleBond NonConjugatedSingleBond NonConjugatedSingleBond
M  BCL CHI  32   S  33   S
M  BCL DBI Z Z - - -
M  END
> <ConfClashScore>
0 

> <ConfOneFourInteractionScore>
-0.972961 

> <ConfScore>
0.0276919 

> <ConfScorePBest>
0.00593146 

> <ConfTolerance>
1.596 

$$$$
L06.****
  PyMOL2.5          3D                             0

 49 48  0  0  0  0  0  0  0  0999 V2000
   -3.3424    0.9117    3.2359 C   0  0  0  1  0  0  0  0  0  0  0  0
   -2.2818    0.1754    2.4644 C   0  0  0  1  0  0  0  0  0  0  0  0
   -2.2303   -0.8342    2.8149 H   0  0  0  1  0  0  0  0  0  0  0  0
   -1.3383    0.6558    2.6190 H   0  0  0  1  0  0  0  0  0  0  0  0
  -12.5852    3.5761    4.5540 O   0  0  0  1  0  0  0  0  0  0  0  0
  -11.2338    1.6535    3.7410 O   0  0  0  1  0  0  0  0  0  0  0  0
  -10.0411    2.1494    4.3688 C   0  0  0  1  0  0  0  0  0  0  0  0
  -10.1152    1.9930    5.4247 H   0  0  0  1  0  0  0  0  0  0  0  0
   -9.9543    3.1968    4.1681 H   0  0  0  1  0  0  0  0  0  0  0  0
  -13.0141    5.1755    2.4330 O   0  0  0  0  0  0  0  0  0  0  0  0
   -8.8120    1.4547    3.8607 C   0  0  0  1  0  0  0  0  0  0  0  0
   -8.6073    1.5218    2.8433 H   0  0  0  1  0  0  0  0  0  0  0  0
   -7.9625    0.7575    4.6166 C   0  0  0  1  0  0  0  0  0  0  0  0
   -6.7039    0.1750    4.0131 C   0  0  0  1  0  0  0  0  0  0  0  0
   -6.7139    0.3609    2.9595 H   0  0  0  1  0  0  0  0  0  0  0  0
   -6.6984   -0.8803    4.1896 H   0  0  0  1  0  0  0  0  0  0  0  0
   -5.4330    0.7699    4.5974 C   0  0  0  1  0  0  0  0  0  0  0  0
   -5.4298    0.5736    5.6492 H   0  0  0  1  0  0  0  0  0  0  0  0
   -5.4565    1.8266    4.4313 H   0  0  0  1  0  0  0  0  0  0  0  0
   -4.1478    0.2379    4.0219 C   0  0  0  1  0  0  0  0  0  0  0  0
   -3.8783   -0.7366    4.2657 H   0  0  0  1  0  0  0  0  0  0  0  0
   -2.6014    0.1714    0.9783 C   0  0  0  1  0  0  0  0  0  0  0  0
   -1.8181   -0.3440    0.4629 H   0  0  0  1  0  0  0  0  0  0  0  0
   -2.6472    1.1845    0.6371 H   0  0  0  1  0  0  0  0  0  0  0  0
   -3.9093   -0.5016    0.6583 C   0  0  0  1  0  0  0  0  0  0  0  0
   -4.0059   -1.5074    0.9046 H   0  0  0  1  0  0  0  0  0  0  0  0
   -4.9495    0.0935    0.0844 C   0  0  0  1  0  0  0  0  0  0  0  0
   -6.2403   -0.6056   -0.2293 C   0  0  0  1  0  0  0  0  0  0  0  0
   -6.9556   -0.3963    0.5385 H   0  0  0  1  0  0  0  0  0  0  0  0
   -6.0709   -1.6608   -0.2805 H   0  0  0  1  0  0  0  0  0  0  0  0
   -6.6146   -0.2579   -1.1695 H   0  0  0  1  0  0  0  0  0  0  0  0
  -12.6415    2.0039    4.3949 P   0  0  0  1  0  0  0  0  0  0  0  0
  -11.9537    4.7624    3.6140 P   0  0  0  1  0  0  0  0  0  0  0  0
  -13.6556    1.7589    3.3419 O   0  0  0  0  0  0  0  0  0  0  0  0
  -11.9158    6.1767    4.4031 O   0  5  0  1  0  0  0  0  0  0  0  0
   -8.2713    0.4528    6.0331 C   0  0  0  1  0  0  0  0  0  0  0  0
   -8.1919   -0.6016    6.1971 H   0  0  0  1  0  0  0  0  0  0  0  0
   -9.2666    0.7746    6.2581 H   0  0  0  1  0  0  0  0  0  0  0  0
   -7.5783    0.9652    6.6672 H   0  0  0  1  0  0  0  0  0  0  0  0
   -3.3719    2.3964    3.0197 C   0  0  0  1  0  0  0  0  0  0  0  0
   -2.5925    2.8561    3.5908 H   0  0  0  1  0  0  0  0  0  0  0  0
   -4.3190    2.7834    3.3330 H   0  0  0  1  0  0  0  0  0  0  0  0
   -3.2252    2.6084    1.9812 H   0  0  0  1  0  0  0  0  0  0  0  0
   -4.9101    1.5452   -0.3023 C   0  0  0  1  0  0  0  0  0  0  0  0
   -4.3104    2.0857    0.3998 H   0  0  0  1  0  0  0  0  0  0  0  0
   -5.9041    1.9414   -0.3015 H   0  0  0  1  0  0  0  0  0  0  0  0
   -4.4879    1.6420   -1.2807 H   0  0  0  1  0  0  0  0  0  0  0  0
  -12.7828    1.3462    5.7031 O   0  0  0  1  0  0  0  0  0  0  0  0
  -10.6528    4.6122    2.9245 O   0  0  0  1  0  0  0  0  0  0  0  0
  1  2  1  0  0  0  0
  1 20  2  0  0  0  0
  1 40  1  0  0  0  0
  2  3  1  0  0  0  0
  2  4  1  0  0  0  0
  2 22  1  0  0  0  0
  5 32  1  0  0  0  0
  5 33  1  0  0  0  0
  6  7  1  0  0  0  0
  6 32  1  0  0  0  0
  7  8  1  0  0  0  0
  7  9  1  0  0  0  0
  7 11  1  0  0  0  0
 10 33  1  0  0  0  0
 11 12  1  0  0  0  0
 11 13  2  0  0  0  0
 13 14  1  0  0  0  0
 13 36  1  0  0  0  0
 14 15  1  0  0  0  0
 14 16  1  0  0  0  0
 14 17  1  0  0  0  0
 17 18  1  0  0  0  0
 17 19  1  0  0  0  0
 17 20  1  0  0  0  0
 20 21  1  0  0  0  0
 22 23  1  0  0  0  0
 22 24  1  0  0  0  0
 22 25  1  0  0  0  0
 25 26  1  0  0  0  0
 25 27  2  0  0  0  0
 27 28  1  0  0  0  0
 27 44  1  0  0  0  0
 28 29  1  0  0  0  0
 28 30  1  0  0  0  0
 28 31  1  0  0  0  0
 32 34  1  0  0  0  0
 32 48  2  0  0  0  0
 33 35  1  0  0  0  0
 33 49  2  0  0  0  0
 36 37  1  0  0  0  0
 36 38  1  0  0  0  0
 36 39  1  0  0  0  0
 40 41  1  0  0  0  0
 40 42  1  0  0  0  0
 40 43  1  0  0  0  0
 44 45  1  0  0  0  0
 44 46  1  0  0  0  0
 44 47  1  0  0  0  0
M  BCL ATM C_TrTrTrPi C_TeTeTeTe H_S H_S O_Tr2TrTrPi2 O_Tr2TrTrPi2 C_TeTeTeTe H_S H_S O_Te2Te2TeTe C_TrTrTrPi H_S C_TrTrTrPi C_TeTeTeTe H_S H_S C_TeTeTeTe H_S H_S C_TrTrTrPi H_S C_TeTeTeTe H_S H_S C_TrTrTrPi H_S C_TrTrTrPi C_TeTeTeTe H_S H_S H_S P_TeTeTeTePi P_TeTeTeTePi O_Te2Te2TeTe O_Te2Te2Te2Te C_TeTeTeTe H_S H_S H_S C_TeTeTeTe H_S H_S H_S C_TeTeTeTe H_S H_S H_S O_Tr2Tr2TrPi O_Tr2Tr2TrPi
M  BCL BND NonConjugatedSingleBond ConjugatedDoubleBond NonConjugatedSingleBond NonConjugatedSingleBond NonConjugatedSingleBond NonConjugatedSingleBond ConjugatedSingleBond ConjugatedSingleBond NonConjugatedSingleBond ConjugatedSingleBond NonConjugatedSingleBond NonConjugatedSingleBond NonConjugatedSingleBond ConjugatedSingleBond NonConjugatedSingleBond ConjugatedDoubleBond NonConjugatedSingleBond NonConjugatedSingleBond NonConjugatedSingleBond NonConjugatedSingleBond NonConjugatedSingleBond NonConjugatedSingleBond NonConjugatedSingleBond NonConjugatedSingleBond NonConjugatedSingleBond NonConjugatedSingleBond NonConjugatedSingleBond NonConjugatedSingleBond NonConjugatedSingleBond ConjugatedDoubleBond NonConjugatedSingleBond NonConjugatedSingleBond NonConjugatedSingleBond NonConjugatedSingleBond NonConjugatedSingleBond ConjugatedSingleBond ConjugatedDoubleBond ConjugatedSingleBond ConjugatedDoubleBond NonConjugatedSingleBond NonConjugatedSingleBond NonConjugatedSingleBond NonConjugatedSingleBond NonConjugatedSingleBond NonConjugatedSingleBond NonConjugatedSingleBond NonConjugatedSingleBond NonConjugatedSingleBond
M  BCL CHI  32   S  33   S
M  BCL DBI Z Z - - -
M  END
> <ConfClashScore>
0 

> <ConfOneFourInteractionScore>
-0.972961 

> <ConfScore>
0.0282876 

> <ConfScorePBest>
0.00582846 

> <ConfTolerance>
1.74077 

$$$$
L06.****
  PyMOL2.5          3D                             0

 49 48  0  0  0  0  0  0  0  0999 V2000
   -1.2263   -1.8673   -0.6130 C   0  0  0  1  0  0  0  0  0  0  0  0
   -2.5282   -2.5718   -0.3474 C   0  0  0  1  0  0  0  0  0  0  0  0
   -2.6890   -2.6031    0.7100 H   0  0  0  1  0  0  0  0  0  0  0  0
   -2.4594   -3.5695   -0.7279 H   0  0  0  1  0  0  0  0  0  0  0  0
    2.8587    3.4327    1.9154 O   0  0  0  1  0  0  0  0  0  0  0  0
    4.8485    3.2233    0.4700 O   0  0  0  1  0  0  0  0  0  0  0  0
    4.6460    1.8912   -0.0281 C   0  0  0  1  0  0  0  0  0  0  0  0
    5.2476    1.1965    0.5200 H   0  0  0  1  0  0  0  0  0  0  0  0
    4.9003    1.8424   -1.0663 H   0  0  0  1  0  0  0  0  0  0  0  0
    0.7486    4.6532    2.9952 O   0  0  0  0  0  0  0  0  0  0  0  0
    3.1908    1.5804    0.1640 C   0  0  0  1  0  0  0  0  0  0  0  0
    2.4887    2.2131   -0.2699 H   0  0  0  1  0  0  0  0  0  0  0  0
    2.7508    0.5267    0.8678 C   0  0  0  1  0  0  0  0  0  0  0  0
    1.3055    0.1205    0.9580 C   0  0  0  1  0  0  0  0  0  0  0  0
    0.7123    0.8600    0.4618 H   0  0  0  1  0  0  0  0  0  0  0  0
    1.0285    0.0743    1.9904 H   0  0  0  1  0  0  0  0  0  0  0  0
    1.0260   -1.2310    0.3211 C   0  0  0  1  0  0  0  0  0  0  0  0
    1.6078   -1.9728    0.8272 H   0  0  0  1  0  0  0  0  0  0  0  0
    1.3171   -1.1895   -0.7077 H   0  0  0  1  0  0  0  0  0  0  0  0
   -0.4229   -1.6279    0.3930 C   0  0  0  1  0  0  0  0  0  0  0  0
   -0.8310   -1.7225    1.3449 H   0  0  0  1  0  0  0  0  0  0  0  0
   -3.7192   -1.8871   -0.9978 C   0  0  0  1  0  0  0  0  0  0  0  0
   -4.6097   -2.4050   -0.7083 H   0  0  0  1  0  0  0  0  0  0  0  0
   -3.6044   -1.9405   -2.0602 H   0  0  0  1  0  0  0  0  0  0  0  0
   -3.8553   -0.4502   -0.6052 C   0  0  0  1  0  0  0  0  0  0  0  0
   -3.0243    0.1545   -0.7644 H   0  0  0  1  0  0  0  0  0  0  0  0
   -4.9226    0.1374   -0.0751 C   0  0  0  1  0  0  0  0  0  0  0  0
   -6.1978   -0.5862    0.2470 C   0  0  0  1  0  0  0  0  0  0  0  0
   -6.9405   -0.3437   -0.4841 H   0  0  0  1  0  0  0  0  0  0  0  0
   -6.5412   -0.2892    1.2159 H   0  0  0  1  0  0  0  0  0  0  0  0
   -6.0208   -1.6414    0.2387 H   0  0  0  1  0  0  0  0  0  0  0  0
    4.4103    3.7379    1.8830 P   0  0  0  1  0  0  0  0  0  0  0  0
    1.6802    3.3045    3.0487 P   0  0  0  1  0  0  0  0  0  0  0  0
    5.0506    2.8674    2.9525 O   0  0  0  0  0  0  0  0  0  0  0  0
    0.7546    2.0492    2.6107 O   0  5  0  1  0  0  0  0  0  0  0  0
    3.6416   -0.3863    1.6583 C   0  0  0  1  0  0  0  0  0  0  0  0
    3.6344   -0.0902    2.6865 H   0  0  0  1  0  0  0  0  0  0  0  0
    4.6398   -0.3279    1.2776 H   0  0  0  1  0  0  0  0  0  0  0  0
    3.2857   -1.3919    1.5746 H   0  0  0  1  0  0  0  0  0  0  0  0
   -0.9046   -1.4719   -2.0040 C   0  0  0  1  0  0  0  0  0  0  0  0
   -1.6174   -0.7499   -2.3440 H   0  0  0  1  0  0  0  0  0  0  0  0
   -0.9407   -2.3338   -2.6369 H   0  0  0  1  0  0  0  0  0  0  0  0
    0.0766   -1.0463   -2.0357 H   0  0  0  1  0  0  0  0  0  0  0  0
   -4.9328    1.6027    0.2486 C   0  0  0  1  0  0  0  0  0  0  0  0
   -5.5248    2.1241   -0.4743 H   0  0  0  1  0  0  0  0  0  0  0  0
   -3.9314    1.9792    0.2277 H   0  0  0  1  0  0  0  0  0  0  0  0
   -5.3493    1.7495    1.2232 H   0  0  0  1  0  0  0  0  0  0  0  0
    4.6792    5.2086    1.9706 O   0  0  0  1  0  0  0  0  0  0  0  0
    2.3233    3.0619    4.3594 O   0  0  0  1  0  0  0  0  0  0  0  0
  1  2  1  0  0  0  0
  1 20  2  0  0  0  0
  1 40  1  0  0  0  0
  2  3  1  0  0  0  0
  2  4  1  0  0  0  0
  2 22  1  0  0  0  0
  5 32  1  0  0  0  0
  5 33  1  0  0  0  0
  6  7  1  0  0  0  0
  6 32  1  0  0  0  0
  7  8  1  0  0  0  0
  7  9  1  0  0  0  0
  7 11  1  0  0  0  0
 10 33  1  0  0  0  0
 11 12  1  0  0  0  0
 11 13  2  0  0  0  0
 13 14  1  0  0  0  0
 13 36  1  0  0  0  0
 14 15  1  0  0  0  0
 14 16  1  0  0  0  0
 14 17  1  0  0  0  0
 17 18  1  0  0  0  0
 17 19  1  0  0  0  0
 17 20  1  0  0  0  0
 20 21  1  0  0  0  0
 22 23  1  0  0  0  0
 22 24  1  0  0  0  0
 22 25  1  0  0  0  0
 25 26  1  0  0  0  0
 25 27  2  0  0  0  0
 27 28  1  0  0  0  0
 27 44  1  0  0  0  0
 28 29  1  0  0  0  0
 28 30  1  0  0  0  0
 28 31  1  0  0  0  0
 32 34  1  0  0  0  0
 32 48  2  0  0  0  0
 33 35  1  0  0  0  0
 33 49  2  0  0  0  0
 36 37  1  0  0  0  0
 36 38  1  0  0  0  0
 36 39  1  0  0  0  0
 40 41  1  0  0  0  0
 40 42  1  0  0  0  0
 40 43  1  0  0  0  0
 44 45  1  0  0  0  0
 44 46  1  0  0  0  0
 44 47  1  0  0  0  0
M  BCL ATM C_TrTrTrPi C_TeTeTeTe H_S H_S O_Tr2TrTrPi2 O_Tr2TrTrPi2 C_TeTeTeTe H_S H_S O_Te2Te2TeTe C_TrTrTrPi H_S C_TrTrTrPi C_TeTeTeTe H_S H_S C_TeTeTeTe H_S H_S C_TrTrTrPi H_S C_TeTeTeTe H_S H_S C_TrTrTrPi H_S C_TrTrTrPi C_TeTeTeTe H_S H_S H_S P_TeTeTeTePi P_TeTeTeTePi O_Te2Te2TeTe O_Te2Te2Te2Te C_TeTeTeTe H_S H_S H_S C_TeTeTeTe H_S H_S H_S C_TeTeTeTe H_S H_S H_S O_Tr2Tr2TrPi O_Tr2Tr2TrPi
M  BCL BND NonConjugatedSingleBond ConjugatedDoubleBond NonConjugatedSingleBond NonConjugatedSingleBond NonConjugatedSingleBond NonConjugatedSingleBond ConjugatedSingleBond ConjugatedSingleBond NonConjugatedSingleBond ConjugatedSingleBond NonConjugatedSingleBond NonConjugatedSingleBond NonConjugatedSingleBond ConjugatedSingleBond NonConjugatedSingleBond ConjugatedDoubleBond NonConjugatedSingleBond NonConjugatedSingleBond NonConjugatedSingleBond NonConjugatedSingleBond NonConjugatedSingleBond NonConjugatedSingleBond NonConjugatedSingleBond NonConjugatedSingleBond NonConjugatedSingleBond NonConjugatedSingleBond NonConjugatedSingleBond NonConjugatedSingleBond NonConjugatedSingleBond ConjugatedDoubleBond NonConjugatedSingleBond NonConjugatedSingleBond NonConjugatedSingleBond NonConjugatedSingleBond NonConjugatedSingleBond ConjugatedSingleBond ConjugatedDoubleBond ConjugatedSingleBond ConjugatedDoubleBond NonConjugatedSingleBond NonConjugatedSingleBond NonConjugatedSingleBond NonConjugatedSingleBond NonConjugatedSingleBond NonConjugatedSingleBond NonConjugatedSingleBond NonConjugatedSingleBond NonConjugatedSingleBond
M  BCL CHI  32   S  33   S
M  BCL DBI Z Z - - -
M  END
> <ConfClashScore>
0 

> <ConfOneFourInteractionScore>
-0.972961 

> <ConfScore>
0.0322718 

> <ConfScorePBest>
0.00572546 

> <ConfTolerance>
1.7684 

$$$$
L06.****
  PyMOL2.5          3D                             0

 49 48  0  0  0  0  0  0  0  0999 V2000
   -1.1128   -2.0229   -0.1705 C   0  0  0  1  0  0  0  0  0  0  0  0
   -1.5600   -0.9914   -1.1652 C   0  0  0  1  0  0  0  0  0  0  0  0
   -2.0389   -1.5001   -1.9756 H   0  0  0  1  0  0  0  0  0  0  0  0
   -0.6908   -0.4828   -1.5266 H   0  0  0  1  0  0  0  0  0  0  0  0
    0.4633   -8.3624    5.6702 O   0  0  0  1  0  0  0  0  0  0  0  0
   -1.2125   -6.4684    5.3069 O   0  0  0  1  0  0  0  0  0  0  0  0
   -0.5131   -5.3108    5.8048 C   0  0  0  1  0  0  0  0  0  0  0  0
    0.5421   -5.4553    5.7019 H   0  0  0  1  0  0  0  0  0  0  0  0
   -0.7540   -5.1602    6.8364 H   0  0  0  1  0  0  0  0  0  0  0  0
   -0.1660   -8.3524    3.1180 O   0  0  0  0  0  0  0  0  0  0  0  0
   -0.9396   -4.1143    5.0063 C   0  0  0  1  0  0  0  0  0  0  0  0
   -1.9603   -3.9509    4.8920 H   0  0  0  1  0  0  0  0  0  0  0  0
   -0.1111   -3.2485    4.4346 C   0  0  0  1  0  0  0  0  0  0  0  0
   -0.5907   -2.2809    3.3920 C   0  0  0  1  0  0  0  0  0  0  0  0
    0.2359   -1.6758    3.0830 H   0  0  0  1  0  0  0  0  0  0  0  0
   -1.3458   -1.6592    3.8260 H   0  0  0  1  0  0  0  0  0  0  0  0
   -1.1734   -2.9661    2.1668 C   0  0  0  1  0  0  0  0  0  0  0  0
   -2.0558   -3.4955    2.4601 H   0  0  0  1  0  0  0  0  0  0  0  0
   -0.4509   -3.6583    1.7878 H   0  0  0  1  0  0  0  0  0  0  0  0
   -1.5357   -2.0024    1.0686 C   0  0  0  1  0  0  0  0  0  0  0  0
   -2.1932   -1.2373    1.3214 H   0  0  0  1  0  0  0  0  0  0  0  0
   -2.5262    0.0532   -0.6308 C   0  0  0  1  0  0  0  0  0  0  0  0
   -2.6241    0.8493   -1.3390 H   0  0  0  1  0  0  0  0  0  0  0  0
   -2.1596    0.4425    0.2960 H   0  0  0  1  0  0  0  0  0  0  0  0
   -3.8551   -0.5934   -0.4141 C   0  0  0  1  0  0  0  0  0  0  0  0
   -3.9335   -1.6210   -0.5537 H   0  0  0  1  0  0  0  0  0  0  0  0
   -4.9419    0.0797   -0.0518 C   0  0  0  1  0  0  0  0  0  0  0  0
   -6.2450   -0.5734    0.3073 C   0  0  0  1  0  0  0  0  0  0  0  0
   -6.1597   -1.6328    0.1832 H   0  0  0  1  0  0  0  0  0  0  0  0
   -7.0183   -0.2009   -0.3315 H   0  0  0  1  0  0  0  0  0  0  0  0
   -6.4857   -0.3521    1.3261 H   0  0  0  1  0  0  0  0  0  0  0  0
   -0.9818   -7.9903    5.9063 P   0  0  0  1  0  0  0  0  0  0  0  0
    1.0880   -8.5180    4.1618 P   0  0  0  1  0  0  0  0  0  0  0  0
   -1.2825   -7.7815    7.3821 O   0  0  0  0  0  0  0  0  0  0  0  0
    1.9594   -7.1541    4.0911 O   0  5  0  1  0  0  0  0  0  0  0  0
    1.3525   -3.1476    4.7604 C   0  0  0  1  0  0  0  0  0  0  0  0
    1.9292   -3.4389    3.9075 H   0  0  0  1  0  0  0  0  0  0  0  0
    1.5801   -3.7939    5.5823 H   0  0  0  1  0  0  0  0  0  0  0  0
    1.5903   -2.1380    5.0235 H   0  0  0  1  0  0  0  0  0  0  0  0
   -0.1618   -3.0511   -0.7154 C   0  0  0  1  0  0  0  0  0  0  0  0
   -0.5827   -3.4980   -1.5918 H   0  0  0  1  0  0  0  0  0  0  0  0
    0.0080   -3.8064    0.0232 H   0  0  0  1  0  0  0  0  0  0  0  0
    0.7663   -2.5811   -0.9656 H   0  0  0  1  0  0  0  0  0  0  0  0
   -4.9476    1.5804    0.0272 C   0  0  0  1  0  0  0  0  0  0  0  0
   -5.5939    1.9755   -0.7285 H   0  0  0  1  0  0  0  0  0  0  0  0
   -3.9547    1.9491   -0.1246 H   0  0  0  1  0  0  0  0  0  0  0  0
   -5.2983    1.8853    0.9911 H   0  0  0  1  0  0  0  0  0  0  0  0
   -1.9816   -8.8752    5.2049 O   0  0  0  1  0  0  0  0  0  0  0  0
    1.8562   -9.7793    4.0660 O   0  0  0  1  0  0  0  0  0  0  0  0
  1  2  1  0  0  0  0
  1 20  2  0  0  0  0
  1 40  1  0  0  0  0
  2  3  1  0  0  0  0
  2  4  1  0  0  0  0
  2 22  1  0  0  0  0
  5 32  1  0  0  0  0
  5 33  1  0  0  0  0
  6  7  1  0  0  0  0
  6 32  1  0  0  0  0
  7  8  1  0  0  0  0
  7  9  1  0  0  0  0
  7 11  1  0  0  0  0
 10 33  1  0  0  0  0
 11 12  1  0  0  0  0
 11 13  2  0  0  0  0
 13 14  1  0  0  0  0
 13 36  1  0  0  0  0
 14 15  1  0  0  0  0
 14 16  1  0  0  0  0
 14 17  1  0  0  0  0
 17 18  1  0  0  0  0
 17 19  1  0  0  0  0
 17 20  1  0  0  0  0
 20 21  1  0  0  0  0
 22 23  1  0  0  0  0
 22 24  1  0  0  0  0
 22 25  1  0  0  0  0
 25 26  1  0  0  0  0
 25 27  2  0  0  0  0
 27 28  1  0  0  0  0
 27 44  1  0  0  0  0
 28 29  1  0  0  0  0
 28 30  1  0  0  0  0
 28 31  1  0  0  0  0
 32 34  1  0  0  0  0
 32 48  2  0  0  0  0
 33 35  1  0  0  0  0
 33 49  2  0  0  0  0
 36 37  1  0  0  0  0
 36 38  1  0  0  0  0
 36 39  1  0  0  0  0
 40 41  1  0  0  0  0
 40 42  1  0  0  0  0
 40 43  1  0  0  0  0
 44 45  1  0  0  0  0
 44 46  1  0  0  0  0
 44 47  1  0  0  0  0
M  BCL ATM C_TrTrTrPi C_TeTeTeTe H_S H_S O_Tr2TrTrPi2 O_Tr2TrTrPi2 C_TeTeTeTe H_S H_S O_Te2Te2TeTe C_TrTrTrPi H_S C_TrTrTrPi C_TeTeTeTe H_S H_S C_TeTeTeTe H_S H_S C_TrTrTrPi H_S C_TeTeTeTe H_S H_S C_TrTrTrPi H_S C_TrTrTrPi C_TeTeTeTe H_S H_S H_S P_TeTeTeTePi P_TeTeTeTePi O_Te2Te2TeTe O_Te2Te2Te2Te C_TeTeTeTe H_S H_S H_S C_TeTeTeTe H_S H_S H_S C_TeTeTeTe H_S H_S H_S O_Tr2Tr2TrPi O_Tr2Tr2TrPi
M  BCL BND NonConjugatedSingleBond ConjugatedDoubleBond NonConjugatedSingleBond NonConjugatedSingleBond NonConjugatedSingleBond NonConjugatedSingleBond ConjugatedSingleBond ConjugatedSingleBond NonConjugatedSingleBond ConjugatedSingleBond NonConjugatedSingleBond NonConjugatedSingleBond NonConjugatedSingleBond ConjugatedSingleBond NonConjugatedSingleBond ConjugatedDoubleBond NonConjugatedSingleBond NonConjugatedSingleBond NonConjugatedSingleBond NonConjugatedSingleBond NonConjugatedSingleBond NonConjugatedSingleBond NonConjugatedSingleBond NonConjugatedSingleBond NonConjugatedSingleBond NonConjugatedSingleBond NonConjugatedSingleBond NonConjugatedSingleBond NonConjugatedSingleBond ConjugatedDoubleBond NonConjugatedSingleBond NonConjugatedSingleBond NonConjugatedSingleBond NonConjugatedSingleBond NonConjugatedSingleBond ConjugatedSingleBond ConjugatedDoubleBond ConjugatedSingleBond ConjugatedDoubleBond NonConjugatedSingleBond NonConjugatedSingleBond NonConjugatedSingleBond NonConjugatedSingleBond NonConjugatedSingleBond NonConjugatedSingleBond NonConjugatedSingleBond NonConjugatedSingleBond NonConjugatedSingleBond
M  BCL CHI  32   S  33   S
M  BCL DBI Z Z - - -
M  END
> <ConfClashScore>
0 

> <ConfOneFourInteractionScore>
-0.980655 

> <ConfScore>
0.0342729 

> <ConfScorePBest>
0.00562246 

> <ConfTolerance>
1.6878 

$$$$
L06.****
  PyMOL2.5          3D                             0

 49 48  0  0  0  0  0  0  0  0999 V2000
   -1.0565   -1.9563    0.0273 C   0  0  0  1  0  0  0  0  0  0  0  0
   -1.5028   -0.5805    0.4413 C   0  0  0  1  0  0  0  0  0  0  0  0
   -0.6396    0.0458    0.5283 H   0  0  0  1  0  0  0  0  0  0  0  0
   -1.9895   -0.6519    1.3915 H   0  0  0  1  0  0  0  0  0  0  0  0
   -5.1834   -1.3681    4.3756 O   0  0  0  1  0  0  0  0  0  0  0  0
   -4.8343   -3.4732    3.1826 O   0  0  0  1  0  0  0  0  0  0  0  0
   -5.0195   -4.6834    2.4312 C   0  0  0  1  0  0  0  0  0  0  0  0
   -5.8272   -4.5684    1.7389 H   0  0  0  1  0  0  0  0  0  0  0  0
   -5.2279   -5.4996    3.0909 H   0  0  0  1  0  0  0  0  0  0  0  0
   -3.1326   -1.9705    5.8855 O   0  0  0  0  0  0  0  0  0  0  0  0
   -3.7458   -4.9264    1.6992 C   0  0  0  1  0  0  0  0  0  0  0  0
   -2.8425   -4.8560    2.2098 H   0  0  0  1  0  0  0  0  0  0  0  0
   -3.7416   -5.2312    0.4071 C   0  0  0  1  0  0  0  0  0  0  0  0
   -2.5132   -5.1725   -0.4610 C   0  0  0  1  0  0  0  0  0  0  0  0
   -2.7591   -4.6547   -1.3645 H   0  0  0  1  0  0  0  0  0  0  0  0
   -2.2121   -6.1726   -0.6931 H   0  0  0  1  0  0  0  0  0  0  0  0
   -1.3478   -4.4583    0.2040 C   0  0  0  1  0  0  0  0  0  0  0  0
   -0.4986   -4.5154   -0.4444 H   0  0  0  1  0  0  0  0  0  0  0  0
   -1.1268   -4.9532    1.1266 H   0  0  0  1  0  0  0  0  0  0  0  0
   -1.6307   -3.0181    0.4923 C   0  0  0  1  0  0  0  0  0  0  0  0
   -2.4035   -2.8447    1.1663 H   0  0  0  1  0  0  0  0  0  0  0  0
   -2.4648    0.0563   -0.5483 C   0  0  0  1  0  0  0  0  0  0  0  0
   -2.0999   -0.0995   -1.5421 H   0  0  0  1  0  0  0  0  0  0  0  0
   -2.5270    1.1062   -0.3512 H   0  0  0  1  0  0  0  0  0  0  0  0
   -3.8367   -0.5510   -0.4254 C   0  0  0  1  0  0  0  0  0  0  0  0
   -3.9369   -1.5621   -0.6471 H   0  0  0  1  0  0  0  0  0  0  0  0
   -4.9282    0.1079   -0.0550 C   0  0  0  1  0  0  0  0  0  0  0  0
   -6.2541   -0.5869    0.0744 C   0  0  0  1  0  0  0  0  0  0  0  0
   -6.9424   -0.1780   -0.6355 H   0  0  0  1  0  0  0  0  0  0  0  0
   -6.6360   -0.4447    1.0637 H   0  0  0  1  0  0  0  0  0  0  0  0
   -6.1282   -1.6328   -0.1130 H   0  0  0  1  0  0  0  0  0  0  0  0
   -5.9719   -2.6949    3.9560 P   0  0  0  1  0  0  0  0  0  0  0  0
   -3.6134   -0.9902    4.6618 P   0  0  0  1  0  0  0  0  0  0  0  0
   -7.1265   -2.3519    3.0636 O   0  0  0  0  0  0  0  0  0  0  0  0
   -2.8396   -1.2762    3.2675 O   0  5  0  1  0  0  0  0  0  0  0  0
   -4.9927   -5.6680   -0.3019 C   0  0  0  1  0  0  0  0  0  0  0  0
   -5.8233   -5.6083    0.3699 H   0  0  0  1  0  0  0  0  0  0  0  0
   -4.8779   -6.6773   -0.6381 H   0  0  0  1  0  0  0  0  0  0  0  0
   -5.1674   -5.0293   -1.1425 H   0  0  0  1  0  0  0  0  0  0  0  0
    0.0841   -1.9795   -0.9471 C   0  0  0  1  0  0  0  0  0  0  0  0
   -0.1715   -1.4007   -1.8100 H   0  0  0  1  0  0  0  0  0  0  0  0
    0.2814   -2.9893   -1.2409 H   0  0  0  1  0  0  0  0  0  0  0  0
    0.9558   -1.5650   -0.4854 H   0  0  0  1  0  0  0  0  0  0  0  0
   -4.9536    1.5739    0.2646 C   0  0  0  1  0  0  0  0  0  0  0  0
   -3.9965    2.0025    0.0523 H   0  0  0  1  0  0  0  0  0  0  0  0
   -5.1825    1.7088    1.3011 H   0  0  0  1  0  0  0  0  0  0  0  0
   -5.7001    2.0558   -0.3317 H   0  0  0  1  0  0  0  0  0  0  0  0
   -6.3045   -3.4983    5.1754 O   0  0  0  1  0  0  0  0  0  0  0  0
   -3.5238    0.4108    5.1302 O   0  0  0  1  0  0  0  0  0  0  0  0
  1  2  1  0  0  0  0
  1 20  2  0  0  0  0
  1 40  1  0  0  0  0
  2  3  1  0  0  0  0
  2  4  1  0  0  0  0
  2 22  1  0  0  0  0
  5 32  1  0  0  0  0
  5 33  1  0  0  0  0
  6  7  1  0  0  0  0
  6 32  1  0  0  0  0
  7  8  1  0  0  0  0
  7  9  1  0  0  0  0
  7 11  1  0  0  0  0
 10 33  1  0  0  0  0
 11 12  1  0  0  0  0
 11 13  2  0  0  0  0
 13 14  1  0  0  0  0
 13 36  1  0  0  0  0
 14 15  1  0  0  0  0
 14 16  1  0  0  0  0
 14 17  1  0  0  0  0
 17 18  1  0  0  0  0
 17 19  1  0  0  0  0
 17 20  1  0  0  0  0
 20 21  1  0  0  0  0
 22 23  1  0  0  0  0
 22 24  1  0  0  0  0
 22 25  1  0  0  0  0
 25 26  1  0  0  0  0
 25 27  2  0  0  0  0
 27 28  1  0  0  0  0
 27 44  1  0  0  0  0
 28 29  1  0  0  0  0
 28 30  1  0  0  0  0
 28 31  1  0  0  0  0
 32 34  1  0  0  0  0
 32 48  2  0  0  0  0
 33 35  1  0  0  0  0
 33 49  2  0  0  0  0
 36 37  1  0  0  0  0
 36 38  1  0  0  0  0
 36 39  1  0  0  0  0
 40 41  1  0  0  0  0
 40 42  1  0  0  0  0
 40 43  1  0  0  0  0
 44 45  1  0  0  0  0
 44 46  1  0  0  0  0
 44 47  1  0  0  0  0
M  BCL ATM C_TrTrTrPi C_TeTeTeTe H_S H_S O_Tr2TrTrPi2 O_Tr2TrTrPi2 C_TeTeTeTe H_S H_S O_Te2Te2TeTe C_TrTrTrPi H_S C_TrTrTrPi C_TeTeTeTe H_S H_S C_TeTeTeTe H_S H_S C_TrTrTrPi H_S C_TeTeTeTe H_S H_S C_TrTrTrPi H_S C_TrTrTrPi C_TeTeTeTe H_S H_S H_S P_TeTeTeTePi P_TeTeTeTePi O_Te2Te2TeTe O_Te2Te2Te2Te C_TeTeTeTe H_S H_S H_S C_TeTeTeTe H_S H_S H_S C_TeTeTeTe H_S H_S H_S O_Tr2Tr2TrPi O_Tr2Tr2TrPi
M  BCL BND NonConjugatedSingleBond ConjugatedDoubleBond NonConjugatedSingleBond NonConjugatedSingleBond NonConjugatedSingleBond NonConjugatedSingleBond ConjugatedSingleBond ConjugatedSingleBond NonConjugatedSingleBond ConjugatedSingleBond NonConjugatedSingleBond NonConjugatedSingleBond NonConjugatedSingleBond ConjugatedSingleBond NonConjugatedSingleBond ConjugatedDoubleBond NonConjugatedSingleBond NonConjugatedSingleBond NonConjugatedSingleBond NonConjugatedSingleBond NonConjugatedSingleBond NonConjugatedSingleBond NonConjugatedSingleBond NonConjugatedSingleBond NonConjugatedSingleBond NonConjugatedSingleBond NonConjugatedSingleBond NonConjugatedSingleBond NonConjugatedSingleBond ConjugatedDoubleBond NonConjugatedSingleBond NonConjugatedSingleBond NonConjugatedSingleBond NonConjugatedSingleBond NonConjugatedSingleBond ConjugatedSingleBond ConjugatedDoubleBond ConjugatedSingleBond ConjugatedDoubleBond NonConjugatedSingleBond NonConjugatedSingleBond NonConjugatedSingleBond NonConjugatedSingleBond NonConjugatedSingleBond NonConjugatedSingleBond NonConjugatedSingleBond NonConjugatedSingleBond NonConjugatedSingleBond
M  BCL CHI  32   S  33   S
M  BCL DBI Z Z - - -
M  END
> <ConfClashScore>
0 

> <ConfOneFourInteractionScore>
-0.978172 

> <ConfScore>
0.0391882 

> <ConfScorePBest>
0.00551946 

> <ConfTolerance>
2.54107 

$$$$
L06.****
  PyMOL2.5          3D                             0

 49 48  0  0  0  0  0  0  0  0999 V2000
   -0.1104    0.1873   -0.5709 C   0  0  0  1  0  0  0  0  0  0  0  0
   -1.4042   -0.4689   -0.1694 C   0  0  0  1  0  0  0  0  0  0  0  0
   -1.5651   -0.2945    0.8740 H   0  0  0  1  0  0  0  0  0  0  0  0
   -1.3222   -1.5209   -0.3471 H   0  0  0  1  0  0  0  0  0  0  0  0
    4.4154    4.2204   -8.0334 O   0  0  0  1  0  0  0  0  0  0  0  0
    4.4411    2.4170   -6.3833 O   0  0  0  1  0  0  0  0  0  0  0  0
    4.8268    1.3225   -5.5372 C   0  0  0  1  0  0  0  0  0  0  0  0
    5.5036    1.6837   -4.7913 H   0  0  0  1  0  0  0  0  0  0  0  0
    5.3150    0.5800   -6.1331 H   0  0  0  1  0  0  0  0  0  0  0  0
    3.4909    5.9524   -9.8503 O   0  0  0  0  0  0  0  0  0  0  0  0
    3.6439    0.6981   -4.8573 C   0  0  0  1  0  0  0  0  0  0  0  0
    2.7218    0.8263   -5.3207 H   0  0  0  1  0  0  0  0  0  0  0  0
    3.6468   -0.0008   -3.7272 C   0  0  0  1  0  0  0  0  0  0  0  0
    2.4130   -0.5942   -3.1117 C   0  0  0  1  0  0  0  0  0  0  0  0
    2.5674   -1.6414   -2.9560 H   0  0  0  1  0  0  0  0  0  0  0  0
    1.5859   -0.4499   -3.7750 H   0  0  0  1  0  0  0  0  0  0  0  0
    2.1041    0.0677   -1.7787 C   0  0  0  1  0  0  0  0  0  0  0  0
    1.9563    1.1126   -1.9553 H   0  0  0  1  0  0  0  0  0  0  0  0
    2.9498   -0.0702   -1.1379 H   0  0  0  1  0  0  0  0  0  0  0  0
    0.8964   -0.4554   -1.0677 C   0  0  0  1  0  0  0  0  0  0  0  0
    0.8609   -1.4888   -0.9564 H   0  0  0  1  0  0  0  0  0  0  0  0
   -2.6038    0.0596   -0.9389 C   0  0  0  1  0  0  0  0  0  0  0  0
   -2.4566   -0.1419   -1.9794 H   0  0  0  1  0  0  0  0  0  0  0  0
   -2.6682    1.1165   -0.7854 H   0  0  0  1  0  0  0  0  0  0  0  0
   -3.9031   -0.5671   -0.5086 C   0  0  0  1  0  0  0  0  0  0  0  0
   -3.9819   -1.6022   -0.5706 H   0  0  0  1  0  0  0  0  0  0  0  0
   -4.9613    0.1065   -0.0537 C   0  0  0  1  0  0  0  0  0  0  0  0
   -6.2215   -0.6057    0.3532 C   0  0  0  1  0  0  0  0  0  0  0  0
   -6.1104   -1.6556    0.1793 H   0  0  0  1  0  0  0  0  0  0  0  0
   -7.0429   -0.2339   -0.2230 H   0  0  0  1  0  0  0  0  0  0  0  0
   -6.4079   -0.4343    1.3928 H   0  0  0  1  0  0  0  0  0  0  0  0
    5.4655    3.1861   -7.3388 P   0  0  0  1  0  0  0  0  0  0  0  0
    4.7227    4.9362   -9.4766 P   0  0  0  1  0  0  0  0  0  0  0  0
    6.4522    3.9576   -6.5479 O   0  0  0  0  0  0  0  0  0  0  0  0
    6.0795    5.7741   -9.1912 O   0  5  0  1  0  0  0  0  0  0  0  0
    4.9157   -0.2554   -2.9633 C   0  0  0  1  0  0  0  0  0  0  0  0
    4.7554   -1.0429   -2.2569 H   0  0  0  1  0  0  0  0  0  0  0  0
    5.2044    0.6351   -2.4449 H   0  0  0  1  0  0  0  0  0  0  0  0
    5.6907   -0.5395   -3.6441 H   0  0  0  1  0  0  0  0  0  0  0  0
   -0.0640    1.6732   -0.3515 C   0  0  0  1  0  0  0  0  0  0  0  0
   -0.4982    1.9078    0.5978 H   0  0  0  1  0  0  0  0  0  0  0  0
   -0.6139    2.1653   -1.1264 H   0  0  0  1  0  0  0  0  0  0  0  0
    0.9533    2.0046   -0.3698 H   0  0  0  1  0  0  0  0  0  0  0  0
   -4.9363    1.6040    0.0703 C   0  0  0  1  0  0  0  0  0  0  0  0
   -5.2118    2.0446   -0.8650 H   0  0  0  1  0  0  0  0  0  0  0  0
   -3.9506    1.9231    0.3380 H   0  0  0  1  0  0  0  0  0  0  0  0
   -5.6286    1.9106    0.8264 H   0  0  0  1  0  0  0  0  0  0  0  0
    5.9192    2.2212   -8.3575 O   0  0  0  1  0  0  0  0  0  0  0  0
    4.9400    3.8761  -10.4861 O   0  0  0  1  0  0  0  0  0  0  0  0
  1  2  1  0  0  0  0
  1 20  2  0  0  0  0
  1 40  1  0  0  0  0
  2  3  1  0  0  0  0
  2  4  1  0  0  0  0
  2 22  1  0  0  0  0
  5 32  1  0  0  0  0
  5 33  1  0  0  0  0
  6  7  1  0  0  0  0
  6 32  1  0  0  0  0
  7  8  1  0  0  0  0
  7  9  1  0  0  0  0
  7 11  1  0  0  0  0
 10 33  1  0  0  0  0
 11 12  1  0  0  0  0
 11 13  2  0  0  0  0
 13 14  1  0  0  0  0
 13 36  1  0  0  0  0
 14 15  1  0  0  0  0
 14 16  1  0  0  0  0
 14 17  1  0  0  0  0
 17 18  1  0  0  0  0
 17 19  1  0  0  0  0
 17 20  1  0  0  0  0
 20 21  1  0  0  0  0
 22 23  1  0  0  0  0
 22 24  1  0  0  0  0
 22 25  1  0  0  0  0
 25 26  1  0  0  0  0
 25 27  2  0  0  0  0
 27 28  1  0  0  0  0
 27 44  1  0  0  0  0
 28 29  1  0  0  0  0
 28 30  1  0  0  0  0
 28 31  1  0  0  0  0
 32 34  1  0  0  0  0
 32 48  2  0  0  0  0
 33 35  1  0  0  0  0
 33 49  2  0  0  0  0
 36 37  1  0  0  0  0
 36 38  1  0  0  0  0
 36 39  1  0  0  0  0
 40 41  1  0  0  0  0
 40 42  1  0  0  0  0
 40 43  1  0  0  0  0
 44 45  1  0  0  0  0
 44 46  1  0  0  0  0
 44 47  1  0  0  0  0
M  BCL ATM C_TrTrTrPi C_TeTeTeTe H_S H_S O_Tr2TrTrPi2 O_Tr2TrTrPi2 C_TeTeTeTe H_S H_S O_Te2Te2TeTe C_TrTrTrPi H_S C_TrTrTrPi C_TeTeTeTe H_S H_S C_TeTeTeTe H_S H_S C_TrTrTrPi H_S C_TeTeTeTe H_S H_S C_TrTrTrPi H_S C_TrTrTrPi C_TeTeTeTe H_S H_S H_S P_TeTeTeTePi P_TeTeTeTePi O_Te2Te2TeTe O_Te2Te2Te2Te C_TeTeTeTe H_S H_S H_S C_TeTeTeTe H_S H_S H_S C_TeTeTeTe H_S H_S H_S O_Tr2Tr2TrPi O_Tr2Tr2TrPi
M  BCL BND NonConjugatedSingleBond ConjugatedDoubleBond NonConjugatedSingleBond NonConjugatedSingleBond NonConjugatedSingleBond NonConjugatedSingleBond ConjugatedSingleBond ConjugatedSingleBond NonConjugatedSingleBond ConjugatedSingleBond NonConjugatedSingleBond NonConjugatedSingleBond NonConjugatedSingleBond ConjugatedSingleBond NonConjugatedSingleBond ConjugatedDoubleBond NonConjugatedSingleBond NonConjugatedSingleBond NonConjugatedSingleBond NonConjugatedSingleBond NonConjugatedSingleBond NonConjugatedSingleBond NonConjugatedSingleBond NonConjugatedSingleBond NonConjugatedSingleBond NonConjugatedSingleBond NonConjugatedSingleBond NonConjugatedSingleBond NonConjugatedSingleBond ConjugatedDoubleBond NonConjugatedSingleBond NonConjugatedSingleBond NonConjugatedSingleBond NonConjugatedSingleBond NonConjugatedSingleBond ConjugatedSingleBond ConjugatedDoubleBond ConjugatedSingleBond ConjugatedDoubleBond NonConjugatedSingleBond NonConjugatedSingleBond NonConjugatedSingleBond NonConjugatedSingleBond NonConjugatedSingleBond NonConjugatedSingleBond NonConjugatedSingleBond NonConjugatedSingleBond NonConjugatedSingleBond
M  BCL CHI  32   S  33   S
M  BCL DBI Z Z - - -
M  END
> <ConfClashScore>
0 

> <ConfOneFourInteractionScore>
-0.971573 

> <ConfScore>
0.0449432 

> <ConfScorePBest>
0.00541646 

> <ConfTolerance>
1.74503 

$$$$
L06.****
  PyMOL2.5          3D                             0

 49 48  0  0  0  0  0  0  0  0999 V2000
   -0.4952    0.7439    1.4262 C   0  0  0  1  0  0  0  0  0  0  0  0
   -1.8251    0.0385    1.4217 C   0  0  0  1  0  0  0  0  0  0  0  0
   -2.4583    0.5009    2.1498 H   0  0  0  1  0  0  0  0  0  0  0  0
   -1.6677   -0.9867    1.6846 H   0  0  0  1  0  0  0  0  0  0  0  0
    6.7940    2.0965    3.7738 O   0  0  0  1  0  0  0  0  0  0  0  0
    5.7548    3.6462    2.3465 O   0  0  0  1  0  0  0  0  0  0  0  0
    4.7664    4.4586    1.6940 C   0  0  0  1  0  0  0  0  0  0  0  0
    5.0393    4.5765    0.6661 H   0  0  0  1  0  0  0  0  0  0  0  0
    4.7385    5.4173    2.1684 H   0  0  0  1  0  0  0  0  0  0  0  0
    7.8491   -0.1282    2.8271 O   0  0  0  0  0  0  0  0  0  0  0  0
    3.4264    3.8538    1.7642 C   0  0  0  1  0  0  0  0  0  0  0  0
    3.2838    2.8496    1.5342 H   0  0  0  1  0  0  0  0  0  0  0  0
    2.4037    4.6185    2.1276 C   0  0  0  1  0  0  0  0  0  0  0  0
    1.0180    4.0364    2.3186 C   0  0  0  1  0  0  0  0  0  0  0  0
    0.3321    4.5115    1.6488 H   0  0  0  1  0  0  0  0  0  0  0  0
    0.6977    4.1922    3.3276 H   0  0  0  1  0  0  0  0  0  0  0  0
    1.0728    2.5464    2.0232 C   0  0  0  1  0  0  0  0  0  0  0  0
    1.6970    2.0769    2.7546 H   0  0  0  1  0  0  0  0  0  0  0  0
    1.4959    2.4074    1.0503 H   0  0  0  1  0  0  0  0  0  0  0  0
   -0.2722    1.8929    2.0552 C   0  0  0  1  0  0  0  0  0  0  0  0
   -1.0475    2.3463    2.5796 H   0  0  0  1  0  0  0  0  0  0  0  0
   -2.5219    0.0903    0.0718 C   0  0  0  1  0  0  0  0  0  0  0  0
   -1.8916   -0.3605   -0.6659 H   0  0  0  1  0  0  0  0  0  0  0  0
   -2.7042    1.1117   -0.1900 H   0  0  0  1  0  0  0  0  0  0  0  0
   -3.8035   -0.6321    0.1181 C   0  0  0  1  0  0  0  0  0  0  0  0
   -3.8272   -1.6659    0.2281 H   0  0  0  1  0  0  0  0  0  0  0  0
   -4.9351    0.0693    0.0157 C   0  0  0  1  0  0  0  0  0  0  0  0
   -6.2748   -0.5474   -0.2640 C   0  0  0  1  0  0  0  0  0  0  0  0
   -6.1401   -1.4773   -0.7758 H   0  0  0  1  0  0  0  0  0  0  0  0
   -6.8517    0.1153   -0.8746 H   0  0  0  1  0  0  0  0  0  0  0  0
   -6.7876   -0.7198    0.6592 H   0  0  0  1  0  0  0  0  0  0  0  0
    5.7201    3.3086    3.9401 P   0  0  0  1  0  0  0  0  0  0  0  0
    6.4867    0.5132    3.4768 P   0  0  0  1  0  0  0  0  0  0  0  0
    6.3260    4.4215    4.7126 O   0  0  0  0  0  0  0  0  0  0  0  0
    6.5139   -0.1381    4.9599 O   0  5  0  1  0  0  0  0  0  0  0  0
    2.5790    6.0922    2.3642 C   0  0  0  1  0  0  0  0  0  0  0  0
    3.3394    6.2477    3.1008 H   0  0  0  1  0  0  0  0  0  0  0  0
    1.6567    6.5098    2.7104 H   0  0  0  1  0  0  0  0  0  0  0  0
    2.8657    6.5683    1.4499 H   0  0  0  1  0  0  0  0  0  0  0  0
    0.5878    0.0476    0.6552 C   0  0  0  1  0  0  0  0  0  0  0  0
    0.5789   -0.9962    0.8903 H   0  0  0  1  0  0  0  0  0  0  0  0
    1.5373    0.4643    0.9190 H   0  0  0  1  0  0  0  0  0  0  0  0
    0.4193    0.1783   -0.3933 H   0  0  0  1  0  0  0  0  0  0  0  0
   -4.9516    1.5634    0.1767 C   0  0  0  1  0  0  0  0  0  0  0  0
   -5.7369    1.8416    0.8480 H   0  0  0  1  0  0  0  0  0  0  0  0
   -5.1171    2.0226   -0.7754 H   0  0  0  1  0  0  0  0  0  0  0  0
   -4.0124    1.8896    0.5721 H   0  0  0  1  0  0  0  0  0  0  0  0
    4.3964    2.7882    4.3268 O   0  0  0  1  0  0  0  0  0  0  0  0
    5.2494    0.3353    2.6844 O   0  0  0  1  0  0  0  0  0  0  0  0
  1  2  1  0  0  0  0
  1 20  2  0  0  0  0
  1 40  1  0  0  0  0
  2  3  1  0  0  0  0
  2  4  1  0  0  0  0
  2 22  1  0  0  0  0
  5 32  1  0  0  0  0
  5 33  1  0  0  0  0
  6  7  1  0  0  0  0
  6 32  1  0  0  0  0
  7  8  1  0  0  0  0
  7  9  1  0  0  0  0
  7 11  1  0  0  0  0
 10 33  1  0  0  0  0
 11 12  1  0  0  0  0
 11 13  2  0  0  0  0
 13 14  1  0  0  0  0
 13 36  1  0  0  0  0
 14 15  1  0  0  0  0
 14 16  1  0  0  0  0
 14 17  1  0  0  0  0
 17 18  1  0  0  0  0
 17 19  1  0  0  0  0
 17 20  1  0  0  0  0
 20 21  1  0  0  0  0
 22 23  1  0  0  0  0
 22 24  1  0  0  0  0
 22 25  1  0  0  0  0
 25 26  1  0  0  0  0
 25 27  2  0  0  0  0
 27 28  1  0  0  0  0
 27 44  1  0  0  0  0
 28 29  1  0  0  0  0
 28 30  1  0  0  0  0
 28 31  1  0  0  0  0
 32 34  1  0  0  0  0
 32 48  2  0  0  0  0
 33 35  1  0  0  0  0
 33 49  2  0  0  0  0
 36 37  1  0  0  0  0
 36 38  1  0  0  0  0
 36 39  1  0  0  0  0
 40 41  1  0  0  0  0
 40 42  1  0  0  0  0
 40 43  1  0  0  0  0
 44 45  1  0  0  0  0
 44 46  1  0  0  0  0
 44 47  1  0  0  0  0
M  BCL ATM C_TrTrTrPi C_TeTeTeTe H_S H_S O_Tr2TrTrPi2 O_Tr2TrTrPi2 C_TeTeTeTe H_S H_S O_Te2Te2TeTe C_TrTrTrPi H_S C_TrTrTrPi C_TeTeTeTe H_S H_S C_TeTeTeTe H_S H_S C_TrTrTrPi H_S C_TeTeTeTe H_S H_S C_TrTrTrPi H_S C_TrTrTrPi C_TeTeTeTe H_S H_S H_S P_TeTeTeTePi P_TeTeTeTePi O_Te2Te2TeTe O_Te2Te2Te2Te C_TeTeTeTe H_S H_S H_S C_TeTeTeTe H_S H_S H_S C_TeTeTeTe H_S H_S H_S O_Tr2Tr2TrPi O_Tr2Tr2TrPi
M  BCL BND NonConjugatedSingleBond ConjugatedDoubleBond NonConjugatedSingleBond NonConjugatedSingleBond NonConjugatedSingleBond NonConjugatedSingleBond ConjugatedSingleBond ConjugatedSingleBond NonConjugatedSingleBond ConjugatedSingleBond NonConjugatedSingleBond NonConjugatedSingleBond NonConjugatedSingleBond ConjugatedSingleBond NonConjugatedSingleBond ConjugatedDoubleBond NonConjugatedSingleBond NonConjugatedSingleBond NonConjugatedSingleBond NonConjugatedSingleBond NonConjugatedSingleBond NonConjugatedSingleBond NonConjugatedSingleBond NonConjugatedSingleBond NonConjugatedSingleBond NonConjugatedSingleBond NonConjugatedSingleBond NonConjugatedSingleBond NonConjugatedSingleBond ConjugatedDoubleBond NonConjugatedSingleBond NonConjugatedSingleBond NonConjugatedSingleBond NonConjugatedSingleBond NonConjugatedSingleBond ConjugatedSingleBond ConjugatedDoubleBond ConjugatedSingleBond ConjugatedDoubleBond NonConjugatedSingleBond NonConjugatedSingleBond NonConjugatedSingleBond NonConjugatedSingleBond NonConjugatedSingleBond NonConjugatedSingleBond NonConjugatedSingleBond NonConjugatedSingleBond NonConjugatedSingleBond
M  BCL CHI  32   S  33   S
M  BCL DBI Z Z - - -
M  END
> <ConfClashScore>
0 

> <ConfOneFourInteractionScore>
-0.979467 

> <ConfScore>
0.049686 

> <ConfScorePBest>
0.00531345 

> <ConfTolerance>
1.82954 

$$$$
L06.****
  PyMOL2.5          3D                             0

 49 48  0  0  0  0  0  0  0  0999 V2000
   -2.5664   -4.0675   -0.5114 C   0  0  0  1  0  0  0  0  0  0  0  0
   -2.5939   -2.5671   -0.4724 C   0  0  0  1  0  0  0  0  0  0  0  0
   -2.7769   -2.2040   -1.4622 H   0  0  0  1  0  0  0  0  0  0  0  0
   -1.6407   -2.2177   -0.1343 H   0  0  0  1  0  0  0  0  0  0  0  0
   -0.5367   -8.1743    6.5128 O   0  0  0  1  0  0  0  0  0  0  0  0
    0.2227   -6.3273    4.9558 O   0  0  0  1  0  0  0  0  0  0  0  0
   -0.2005   -7.1281    3.8413 C   0  0  0  1  0  0  0  0  0  0  0  0
   -0.3204   -8.1399    4.1681 H   0  0  0  1  0  0  0  0  0  0  0  0
    0.5500   -7.0854    3.0798 H   0  0  0  1  0  0  0  0  0  0  0  0
   -2.1109   -8.9537    4.5625 O   0  0  0  0  0  0  0  0  0  0  0  0
   -1.5008   -6.6460    3.2685 C   0  0  0  1  0  0  0  0  0  0  0  0
   -2.0352   -5.9248    3.7937 H   0  0  0  1  0  0  0  0  0  0  0  0
   -2.0050   -7.0969    2.1188 C   0  0  0  1  0  0  0  0  0  0  0  0
   -3.4254   -6.7811    1.7361 C   0  0  0  1  0  0  0  0  0  0  0  0
   -3.8105   -6.1015    2.4674 H   0  0  0  1  0  0  0  0  0  0  0  0
   -3.9781   -7.6966    1.7733 H   0  0  0  1  0  0  0  0  0  0  0  0
   -3.6638   -6.1611    0.3690 C   0  0  0  1  0  0  0  0  0  0  0  0
   -4.7088   -6.2192    0.1462 H   0  0  0  1  0  0  0  0  0  0  0  0
   -3.1120   -6.7186   -0.3587 H   0  0  0  1  0  0  0  0  0  0  0  0
   -3.2468   -4.7524    0.2945 C   0  0  0  1  0  0  0  0  0  0  0  0
   -3.5970   -4.1909    1.0968 H   0  0  0  1  0  0  0  0  0  0  0  0
   -3.6671   -2.0151    0.4516 C   0  0  0  1  0  0  0  0  0  0  0  0
   -3.4211   -2.2832    1.4578 H   0  0  0  1  0  0  0  0  0  0  0  0
   -4.6055   -2.4543    0.1843 H   0  0  0  1  0  0  0  0  0  0  0  0
   -3.7994   -0.5177    0.3734 C   0  0  0  1  0  0  0  0  0  0  0  0
   -2.9566    0.0518    0.5902 H   0  0  0  1  0  0  0  0  0  0  0  0
   -4.9126    0.1308    0.0481 C   0  0  0  1  0  0  0  0  0  0  0  0
   -6.1944   -0.5528   -0.3302 C   0  0  0  1  0  0  0  0  0  0  0  0
   -6.0481   -1.6128   -0.3279 H   0  0  0  1  0  0  0  0  0  0  0  0
   -6.4922   -0.2362   -1.3079 H   0  0  0  1  0  0  0  0  0  0  0  0
   -6.9566   -0.2968    0.3758 H   0  0  0  1  0  0  0  0  0  0  0  0
   -0.3649   -6.5866    6.4239 P   0  0  0  1  0  0  0  0  0  0  0  0
   -1.7249   -9.2382    6.1308 P   0  0  0  1  0  0  0  0  0  0  0  0
    0.7027   -6.1174    7.3308 O   0  0  0  0  0  0  0  0  0  0  0  0
   -1.0995  -10.7325    6.1499 O   0  5  0  1  0  0  0  0  0  0  0  0
   -1.2225   -7.9928    1.2406 C   0  0  0  1  0  0  0  0  0  0  0  0
   -0.9063   -7.4544    0.3717 H   0  0  0  1  0  0  0  0  0  0  0  0
   -1.8306   -8.8219    0.9445 H   0  0  0  1  0  0  0  0  0  0  0  0
   -0.3642   -8.3504    1.7702 H   0  0  0  1  0  0  0  0  0  0  0  0
   -1.6966   -4.7217   -1.5478 C   0  0  0  1  0  0  0  0  0  0  0  0
   -1.7994   -5.7846   -1.4811 H   0  0  0  1  0  0  0  0  0  0  0  0
   -0.6754   -4.4510   -1.3785 H   0  0  0  1  0  0  0  0  0  0  0  0
   -1.9959   -4.3951   -2.5219 H   0  0  0  1  0  0  0  0  0  0  0  0
   -4.9725    1.6323    0.0342 C   0  0  0  1  0  0  0  0  0  0  0  0
   -5.6343    1.9705    0.8040 H   0  0  0  1  0  0  0  0  0  0  0  0
   -5.3320    1.9659   -0.9168 H   0  0  0  1  0  0  0  0  0  0  0  0
   -3.9939    2.0297    0.2055 H   0  0  0  1  0  0  0  0  0  0  0  0
   -1.7292   -6.0469    6.5403 O   0  0  0  1  0  0  0  0  0  0  0  0
   -2.9258   -9.0335    6.9713 O   0  0  0  1  0  0  0  0  0  0  0  0
  1  2  1  0  0  0  0
  1 20  2  0  0  0  0
  1 40  1  0  0  0  0
  2  3  1  0  0  0  0
  2  4  1  0  0  0  0
  2 22  1  0  0  0  0
  5 32  1  0  0  0  0
  5 33  1  0  0  0  0
  6  7  1  0  0  0  0
  6 32  1  0  0  0  0
  7  8  1  0  0  0  0
  7  9  1  0  0  0  0
  7 11  1  0  0  0  0
 10 33  1  0  0  0  0
 11 12  1  0  0  0  0
 11 13  2  0  0  0  0
 13 14  1  0  0  0  0
 13 36  1  0  0  0  0
 14 15  1  0  0  0  0
 14 16  1  0  0  0  0
 14 17  1  0  0  0  0
 17 18  1  0  0  0  0
 17 19  1  0  0  0  0
 17 20  1  0  0  0  0
 20 21  1  0  0  0  0
 22 23  1  0  0  0  0
 22 24  1  0  0  0  0
 22 25  1  0  0  0  0
 25 26  1  0  0  0  0
 25 27  2  0  0  0  0
 27 28  1  0  0  0  0
 27 44  1  0  0  0  0
 28 29  1  0  0  0  0
 28 30  1  0  0  0  0
 28 31  1  0  0  0  0
 32 34  1  0  0  0  0
 32 48  2  0  0  0  0
 33 35  1  0  0  0  0
 33 49  2  0  0  0  0
 36 37  1  0  0  0  0
 36 38  1  0  0  0  0
 36 39  1  0  0  0  0
 40 41  1  0  0  0  0
 40 42  1  0  0  0  0
 40 43  1  0  0  0  0
 44 45  1  0  0  0  0
 44 46  1  0  0  0  0
 44 47  1  0  0  0  0
M  BCL ATM C_TrTrTrPi C_TeTeTeTe H_S H_S O_Tr2TrTrPi2 O_Tr2TrTrPi2 C_TeTeTeTe H_S H_S O_Te2Te2TeTe C_TrTrTrPi H_S C_TrTrTrPi C_TeTeTeTe H_S H_S C_TeTeTeTe H_S H_S C_TrTrTrPi H_S C_TeTeTeTe H_S H_S C_TrTrTrPi H_S C_TrTrTrPi C_TeTeTeTe H_S H_S H_S P_TeTeTeTePi P_TeTeTeTePi O_Te2Te2TeTe O_Te2Te2Te2Te C_TeTeTeTe H_S H_S H_S C_TeTeTeTe H_S H_S H_S C_TeTeTeTe H_S H_S H_S O_Tr2Tr2TrPi O_Tr2Tr2TrPi
M  BCL BND NonConjugatedSingleBond ConjugatedDoubleBond NonConjugatedSingleBond NonConjugatedSingleBond NonConjugatedSingleBond NonConjugatedSingleBond ConjugatedSingleBond ConjugatedSingleBond NonConjugatedSingleBond ConjugatedSingleBond NonConjugatedSingleBond NonConjugatedSingleBond NonConjugatedSingleBond ConjugatedSingleBond NonConjugatedSingleBond ConjugatedDoubleBond NonConjugatedSingleBond NonConjugatedSingleBond NonConjugatedSingleBond NonConjugatedSingleBond NonConjugatedSingleBond NonConjugatedSingleBond NonConjugatedSingleBond NonConjugatedSingleBond NonConjugatedSingleBond NonConjugatedSingleBond NonConjugatedSingleBond NonConjugatedSingleBond NonConjugatedSingleBond ConjugatedDoubleBond NonConjugatedSingleBond NonConjugatedSingleBond NonConjugatedSingleBond NonConjugatedSingleBond NonConjugatedSingleBond ConjugatedSingleBond ConjugatedDoubleBond ConjugatedSingleBond ConjugatedDoubleBond NonConjugatedSingleBond NonConjugatedSingleBond NonConjugatedSingleBond NonConjugatedSingleBond NonConjugatedSingleBond NonConjugatedSingleBond NonConjugatedSingleBond NonConjugatedSingleBond NonConjugatedSingleBond
M  BCL CHI  32   S  33   S
M  BCL DBI Z Z - - -
M  END
> <ConfClashScore>
0 

> <ConfOneFourInteractionScore>
-0.978501 

> <ConfScore>
0.0518181 

> <ConfScorePBest>
0.00521045 

> <ConfTolerance>
2.09083 

$$$$
L06.****
  PyMOL2.5          3D                             0

 49 48  0  0  0  0  0  0  0  0999 V2000
   -3.5021   -3.1776    1.1584 C   0  0  0  1  0  0  0  0  0  0  0  0
   -2.8108   -2.7278   -0.0959 C   0  0  0  1  0  0  0  0  0  0  0  0
   -2.5321   -3.5998   -0.6499 H   0  0  0  1  0  0  0  0  0  0  0  0
   -1.9313   -2.1883    0.1873 H   0  0  0  1  0  0  0  0  0  0  0  0
   -7.9053   -7.5238    6.6685 O   0  0  0  1  0  0  0  0  0  0  0  0
   -6.3481   -5.5308    6.7336 O   0  0  0  1  0  0  0  0  0  0  0  0
   -5.2806   -4.7257    7.2716 C   0  0  0  1  0  0  0  0  0  0  0  0
   -4.5084   -5.3523    7.6666 H   0  0  0  1  0  0  0  0  0  0  0  0
   -5.6532   -4.0872    8.0451 H   0  0  0  1  0  0  0  0  0  0  0  0
  -10.3637   -7.3626    5.4705 O   0  0  0  0  0  0  0  0  0  0  0  0
   -4.7500   -3.9049    6.1332 C   0  0  0  1  0  0  0  0  0  0  0  0
   -5.3733   -3.3341    5.5272 H   0  0  0  1  0  0  0  0  0  0  0  0
   -3.4297   -3.9517    5.9455 C   0  0  0  1  0  0  0  0  0  0  0  0
   -2.8079   -3.4603    4.6707 C   0  0  0  1  0  0  0  0  0  0  0  0
   -2.2392   -4.2576    4.2397 H   0  0  0  1  0  0  0  0  0  0  0  0
   -2.1580   -2.6423    4.9020 H   0  0  0  1  0  0  0  0  0  0  0  0
   -3.8326   -2.9906    3.6509 C   0  0  0  1  0  0  0  0  0  0  0  0
   -4.3254   -2.1233    4.0378 H   0  0  0  1  0  0  0  0  0  0  0  0
   -4.5485   -3.7719    3.5028 H   0  0  0  1  0  0  0  0  0  0  0  0
   -3.2224   -2.6412    2.3199 C   0  0  0  1  0  0  0  0  0  0  0  0
   -2.5004   -1.8927    2.3230 H   0  0  0  1  0  0  0  0  0  0  0  0
   -3.6347   -1.8352   -1.0096 C   0  0  0  1  0  0  0  0  0  0  0  0
   -4.6064   -2.2684   -1.1232 H   0  0  0  1  0  0  0  0  0  0  0  0
   -3.1519   -1.7857   -1.9632 H   0  0  0  1  0  0  0  0  0  0  0  0
   -3.7933   -0.4352   -0.4797 C   0  0  0  1  0  0  0  0  0  0  0  0
   -2.9316    0.1457   -0.4395 H   0  0  0  1  0  0  0  0  0  0  0  0
   -4.9148    0.1390   -0.0577 C   0  0  0  1  0  0  0  0  0  0  0  0
   -6.2408   -0.5627   -0.0047 C   0  0  0  1  0  0  0  0  0  0  0  0
   -6.4332   -1.0344   -0.9456 H   0  0  0  1  0  0  0  0  0  0  0  0
   -7.0127    0.1490    0.2016 H   0  0  0  1  0  0  0  0  0  0  0  0
   -6.2217   -1.3029    0.7678 H   0  0  0  1  0  0  0  0  0  0  0  0
   -6.4633   -7.0595    7.0887 P   0  0  0  1  0  0  0  0  0  0  0  0
   -9.2903   -6.6630    6.4941 P   0  0  0  1  0  0  0  0  0  0  0  0
   -5.5159   -7.8397    6.2338 O   0  0  0  0  0  0  0  0  0  0  0  0
   -9.8092   -6.3448    7.9955 O   0  5  0  1  0  0  0  0  0  0  0  0
   -2.5121   -4.4983    7.0027 C   0  0  0  1  0  0  0  0  0  0  0  0
   -2.9920   -4.4397    7.9573 H   0  0  0  1  0  0  0  0  0  0  0  0
   -1.6090   -3.9249    7.0220 H   0  0  0  1  0  0  0  0  0  0  0  0
   -2.2820   -5.5197    6.7816 H   0  0  0  1  0  0  0  0  0  0  0  0
   -4.5157   -4.2694    0.9609 C   0  0  0  1  0  0  0  0  0  0  0  0
   -5.1686   -4.0090    0.1542 H   0  0  0  1  0  0  0  0  0  0  0  0
   -5.0874   -4.3913    1.8571 H   0  0  0  1  0  0  0  0  0  0  0  0
   -4.0126   -5.1853    0.7308 H   0  0  0  1  0  0  0  0  0  0  0  0
   -4.9398    1.5673    0.4088 C   0  0  0  1  0  0  0  0  0  0  0  0
   -3.9637    1.9936    0.3065 H   0  0  0  1  0  0  0  0  0  0  0  0
   -5.2379    1.6016    1.4359 H   0  0  0  1  0  0  0  0  0  0  0  0
   -5.6356    2.1237   -0.1838 H   0  0  0  1  0  0  0  0  0  0  0  0
   -6.2496   -7.1797    8.5399 O   0  0  0  1  0  0  0  0  0  0  0  0
   -8.8961   -5.4435    5.7540 O   0  0  0  1  0  0  0  0  0  0  0  0
  1  2  1  0  0  0  0
  1 20  2  0  0  0  0
  1 40  1  0  0  0  0
  2  3  1  0  0  0  0
  2  4  1  0  0  0  0
  2 22  1  0  0  0  0
  5 32  1  0  0  0  0
  5 33  1  0  0  0  0
  6  7  1  0  0  0  0
  6 32  1  0  0  0  0
  7  8  1  0  0  0  0
  7  9  1  0  0  0  0
  7 11  1  0  0  0  0
 10 33  1  0  0  0  0
 11 12  1  0  0  0  0
 11 13  2  0  0  0  0
 13 14  1  0  0  0  0
 13 36  1  0  0  0  0
 14 15  1  0  0  0  0
 14 16  1  0  0  0  0
 14 17  1  0  0  0  0
 17 18  1  0  0  0  0
 17 19  1  0  0  0  0
 17 20  1  0  0  0  0
 20 21  1  0  0  0  0
 22 23  1  0  0  0  0
 22 24  1  0  0  0  0
 22 25  1  0  0  0  0
 25 26  1  0  0  0  0
 25 27  2  0  0  0  0
 27 28  1  0  0  0  0
 27 44  1  0  0  0  0
 28 29  1  0  0  0  0
 28 30  1  0  0  0  0
 28 31  1  0  0  0  0
 32 34  1  0  0  0  0
 32 48  2  0  0  0  0
 33 35  1  0  0  0  0
 33 49  2  0  0  0  0
 36 37  1  0  0  0  0
 36 38  1  0  0  0  0
 36 39  1  0  0  0  0
 40 41  1  0  0  0  0
 40 42  1  0  0  0  0
 40 43  1  0  0  0  0
 44 45  1  0  0  0  0
 44 46  1  0  0  0  0
 44 47  1  0  0  0  0
M  BCL ATM C_TrTrTrPi C_TeTeTeTe H_S H_S O_Tr2TrTrPi2 O_Tr2TrTrPi2 C_TeTeTeTe H_S H_S O_Te2Te2TeTe C_TrTrTrPi H_S C_TrTrTrPi C_TeTeTeTe H_S H_S C_TeTeTeTe H_S H_S C_TrTrTrPi H_S C_TeTeTeTe H_S H_S C_TrTrTrPi H_S C_TrTrTrPi C_TeTeTeTe H_S H_S H_S P_TeTeTeTePi P_TeTeTeTePi O_Te2Te2TeTe O_Te2Te2Te2Te C_TeTeTeTe H_S H_S H_S C_TeTeTeTe H_S H_S H_S C_TeTeTeTe H_S H_S H_S O_Tr2Tr2TrPi O_Tr2Tr2TrPi
M  BCL BND NonConjugatedSingleBond ConjugatedDoubleBond NonConjugatedSingleBond NonConjugatedSingleBond NonConjugatedSingleBond NonConjugatedSingleBond ConjugatedSingleBond ConjugatedSingleBond NonConjugatedSingleBond ConjugatedSingleBond NonConjugatedSingleBond NonConjugatedSingleBond NonConjugatedSingleBond ConjugatedSingleBond NonConjugatedSingleBond ConjugatedDoubleBond NonConjugatedSingleBond NonConjugatedSingleBond NonConjugatedSingleBond NonConjugatedSingleBond NonConjugatedSingleBond NonConjugatedSingleBond NonConjugatedSingleBond NonConjugatedSingleBond NonConjugatedSingleBond NonConjugatedSingleBond NonConjugatedSingleBond NonConjugatedSingleBond NonConjugatedSingleBond ConjugatedDoubleBond NonConjugatedSingleBond NonConjugatedSingleBond NonConjugatedSingleBond NonConjugatedSingleBond NonConjugatedSingleBond ConjugatedSingleBond ConjugatedDoubleBond ConjugatedSingleBond ConjugatedDoubleBond NonConjugatedSingleBond NonConjugatedSingleBond NonConjugatedSingleBond NonConjugatedSingleBond NonConjugatedSingleBond NonConjugatedSingleBond NonConjugatedSingleBond NonConjugatedSingleBond NonConjugatedSingleBond
M  BCL CHI  32   S  33   S
M  BCL DBI Z Z - - -
M  END
> <ConfClashScore>
0 

> <ConfOneFourInteractionScore>
-0.982867 

> <ConfScore>
0.0699385 

> <ConfScorePBest>
0.00510745 

> <ConfTolerance>
2.0649 

$$$$
L06.****
  PyMOL2.5          3D                             0

 49 48  0  0  0  0  0  0  0  0999 V2000
   -1.3561    0.0057    1.0478 C   0  0  0  1  0  0  0  0  0  0  0  0
   -1.4373   -0.3344   -0.4120 C   0  0  0  1  0  0  0  0  0  0  0  0
   -1.4506   -1.3995   -0.5133 H   0  0  0  1  0  0  0  0  0  0  0  0
   -0.5719    0.0602   -0.9023 H   0  0  0  1  0  0  0  0  0  0  0  0
    1.9341    7.4019    7.4834 O   0  0  0  1  0  0  0  0  0  0  0  0
    1.1308    5.2045    6.7856 O   0  0  0  1  0  0  0  0  0  0  0  0
    0.9224    3.7834    6.8113 C   0  0  0  1  0  0  0  0  0  0  0  0
    0.0219    3.5607    7.3447 H   0  0  0  1  0  0  0  0  0  0  0  0
    1.7502    3.3063    7.2930 H   0  0  0  1  0  0  0  0  0  0  0  0
    3.1039    8.7216    5.5403 O   0  0  0  0  0  0  0  0  0  0  0  0
    0.8077    3.2913    5.3985 C   0  0  0  1  0  0  0  0  0  0  0  0
    1.6087    3.4992    4.7687 H   0  0  0  1  0  0  0  0  0  0  0  0
   -0.2056    2.6192    4.8653 C   0  0  0  1  0  0  0  0  0  0  0  0
   -0.2422    2.2949    3.4000 C   0  0  0  1  0  0  0  0  0  0  0  0
    0.5022    2.8956    2.9205 H   0  0  0  1  0  0  0  0  0  0  0  0
   -1.2105    2.5679    3.0358 H   0  0  0  1  0  0  0  0  0  0  0  0
    0.0065    0.8517    2.9931 C   0  0  0  1  0  0  0  0  0  0  0  0
   -0.6078    0.2086    3.5879 H   0  0  0  1  0  0  0  0  0  0  0  0
    1.0367    0.6135    3.1571 H   0  0  0  1  0  0  0  0  0  0  0  0
   -0.3229    0.6428    1.5392 C   0  0  0  1  0  0  0  0  0  0  0  0
    0.3422    1.0484    0.8502 H   0  0  0  1  0  0  0  0  0  0  0  0
   -2.6807    0.2336   -1.0898 C   0  0  0  1  0  0  0  0  0  0  0  0
   -2.5518    0.1656   -2.1498 H   0  0  0  1  0  0  0  0  0  0  0  0
   -2.7833    1.2606   -0.8076 H   0  0  0  1  0  0  0  0  0  0  0  0
   -3.9328   -0.4896   -0.7157 C   0  0  0  1  0  0  0  0  0  0  0  0
   -4.0113   -1.4987   -0.9552 H   0  0  0  1  0  0  0  0  0  0  0  0
   -4.9514    0.0927   -0.0922 C   0  0  0  1  0  0  0  0  0  0  0  0
   -6.2432   -0.6041    0.2232 C   0  0  0  1  0  0  0  0  0  0  0  0
   -6.7235   -0.8953   -0.6875 H   0  0  0  1  0  0  0  0  0  0  0  0
   -6.8826    0.0595    0.7669 H   0  0  0  1  0  0  0  0  0  0  0  0
   -6.0442   -1.4731    0.8149 H   0  0  0  1  0  0  0  0  0  0  0  0
    1.4925    6.0205    8.1490 P   0  0  0  1  0  0  0  0  0  0  0  0
    3.3996    7.7967    6.8619 P   0  0  0  1  0  0  0  0  0  0  0  0
    0.2701    6.1924    8.9877 O   0  0  0  0  0  0  0  0  0  0  0  0
    4.1876    8.6916    7.9585 O   0  5  0  1  0  0  0  0  0  0  0  0
   -1.3895    2.1256    5.6483 C   0  0  0  1  0  0  0  0  0  0  0  0
   -2.0059    2.9553    5.9249 H   0  0  0  1  0  0  0  0  0  0  0  0
   -1.0495    1.6244    6.5305 H   0  0  0  1  0  0  0  0  0  0  0  0
   -1.9560    1.4455    5.0471 H   0  0  0  1  0  0  0  0  0  0  0  0
   -2.5029   -0.4111    1.9251 C   0  0  0  1  0  0  0  0  0  0  0  0
   -2.9618   -1.2887    1.5201 H   0  0  0  1  0  0  0  0  0  0  0  0
   -3.2229    0.3792    1.9699 H   0  0  0  1  0  0  0  0  0  0  0  0
   -2.1406   -0.6204    2.9099 H   0  0  0  1  0  0  0  0  0  0  0  0
   -4.8845    1.5260    0.3544 C   0  0  0  1  0  0  0  0  0  0  0  0
   -4.2152    2.0673   -0.2812 H   0  0  0  1  0  0  0  0  0  0  0  0
   -4.5308    1.5689    1.3633 H   0  0  0  1  0  0  0  0  0  0  0  0
   -5.8598    1.9625    0.2989 H   0  0  0  1  0  0  0  0  0  0  0  0
    2.6787    5.3953    8.6506 O   0  0  0  1  0  0  0  0  0  0  0  0
    4.2543    6.6275    6.5572 O   0  0  0  1  0  0  0  0  0  0  0  0
  1  2  1  0  0  0  0
  1 20  2  0  0  0  0
  1 40  1  0  0  0  0
  2  3  1  0  0  0  0
  2  4  1  0  0  0  0
  2 22  1  0  0  0  0
  5 32  1  0  0  0  0
  5 33  1  0  0  0  0
  6  7  1  0  0  0  0
  6 32  1  0  0  0  0
  7  8  1  0  0  0  0
  7  9  1  0  0  0  0
  7 11  1  0  0  0  0
 10 33  1  0  0  0  0
 11 12  1  0  0  0  0
 11 13  2  0  0  0  0
 13 14  1  0  0  0  0
 13 36  1  0  0  0  0
 14 15  1  0  0  0  0
 14 16  1  0  0  0  0
 14 17  1  0  0  0  0
 17 18  1  0  0  0  0
 17 19  1  0  0  0  0
 17 20  1  0  0  0  0
 20 21  1  0  0  0  0
 22 23  1  0  0  0  0
 22 24  1  0  0  0  0
 22 25  1  0  0  0  0
 25 26  1  0  0  0  0
 25 27  2  0  0  0  0
 27 28  1  0  0  0  0
 27 44  1  0  0  0  0
 28 29  1  0  0  0  0
 28 30  1  0  0  0  0
 28 31  1  0  0  0  0
 32 34  1  0  0  0  0
 32 48  2  0  0  0  0
 33 35  1  0  0  0  0
 33 49  2  0  0  0  0
 36 37  1  0  0  0  0
 36 38  1  0  0  0  0
 36 39  1  0  0  0  0
 40 41  1  0  0  0  0
 40 42  1  0  0  0  0
 40 43  1  0  0  0  0
 44 45  1  0  0  0  0
 44 46  1  0  0  0  0
 44 47  1  0  0  0  0
M  BCL ATM C_TrTrTrPi C_TeTeTeTe H_S H_S O_Tr2TrTrPi2 O_Tr2TrTrPi2 C_TeTeTeTe H_S H_S O_Te2Te2TeTe C_TrTrTrPi H_S C_TrTrTrPi C_TeTeTeTe H_S H_S C_TeTeTeTe H_S H_S C_TrTrTrPi H_S C_TeTeTeTe H_S H_S C_TrTrTrPi H_S C_TrTrTrPi C_TeTeTeTe H_S H_S H_S P_TeTeTeTePi P_TeTeTeTePi O_Te2Te2TeTe O_Te2Te2Te2Te C_TeTeTeTe H_S H_S H_S C_TeTeTeTe H_S H_S H_S C_TeTeTeTe H_S H_S H_S O_Tr2Tr2TrPi O_Tr2Tr2TrPi
M  BCL BND NonConjugatedSingleBond ConjugatedDoubleBond NonConjugatedSingleBond NonConjugatedSingleBond NonConjugatedSingleBond NonConjugatedSingleBond ConjugatedSingleBond ConjugatedSingleBond NonConjugatedSingleBond ConjugatedSingleBond NonConjugatedSingleBond NonConjugatedSingleBond NonConjugatedSingleBond ConjugatedSingleBond NonConjugatedSingleBond ConjugatedDoubleBond NonConjugatedSingleBond NonConjugatedSingleBond NonConjugatedSingleBond NonConjugatedSingleBond NonConjugatedSingleBond NonConjugatedSingleBond NonConjugatedSingleBond NonConjugatedSingleBond NonConjugatedSingleBond NonConjugatedSingleBond NonConjugatedSingleBond NonConjugatedSingleBond NonConjugatedSingleBond ConjugatedDoubleBond NonConjugatedSingleBond NonConjugatedSingleBond NonConjugatedSingleBond NonConjugatedSingleBond NonConjugatedSingleBond ConjugatedSingleBond ConjugatedDoubleBond ConjugatedSingleBond ConjugatedDoubleBond NonConjugatedSingleBond NonConjugatedSingleBond NonConjugatedSingleBond NonConjugatedSingleBond NonConjugatedSingleBond NonConjugatedSingleBond NonConjugatedSingleBond NonConjugatedSingleBond NonConjugatedSingleBond
M  BCL CHI  32   S  33   S
M  BCL DBI Z Z - - -
M  END
> <ConfClashScore>
0 

> <ConfOneFourInteractionScore>
-0.976267 

> <ConfScore>
0.0743106 

> <ConfScorePBest>
0.00500445 

> <ConfTolerance>
2.1734 

$$$$
L06.****
  PyMOL2.5          3D                             0

 49 48  0  0  0  0  0  0  0  0999 V2000
   -2.9538   -1.8225   -2.7375 C   0  0  0  1  0  0  0  0  0  0  0  0
   -2.4784   -2.2148   -1.3688 C   0  0  0  1  0  0  0  0  0  0  0  0
   -1.6133   -1.6369   -1.1188 H   0  0  0  1  0  0  0  0  0  0  0  0
   -2.2253   -3.2545   -1.3700 H   0  0  0  1  0  0  0  0  0  0  0  0
   -6.4100    5.8794   -1.5118 O   0  0  0  1  0  0  0  0  0  0  0  0
   -6.1112    3.4549   -1.8291 O   0  0  0  1  0  0  0  0  0  0  0  0
   -6.2565    2.3836   -2.7750 C   0  0  0  1  0  0  0  0  0  0  0  0
   -6.8997    2.6917   -3.5726 H   0  0  0  1  0  0  0  0  0  0  0  0
   -6.6757    1.5277   -2.2885 H   0  0  0  1  0  0  0  0  0  0  0  0
   -5.5829    8.2896   -1.2384 O   0  0  0  0  0  0  0  0  0  0  0  0
   -4.9019    2.0412   -3.3216 C   0  0  0  1  0  0  0  0  0  0  0  0
   -4.0956    2.5634   -2.9231 H   0  0  0  1  0  0  0  0  0  0  0  0
   -4.6206    1.1432   -4.2597 C   0  0  0  1  0  0  0  0  0  0  0  0
   -3.2828    1.0316   -4.9316 C   0  0  0  1  0  0  0  0  0  0  0  0
   -2.6143    1.7490   -4.5034 H   0  0  0  1  0  0  0  0  0  0  0  0
   -3.3976    1.2297   -5.9768 H   0  0  0  1  0  0  0  0  0  0  0  0
   -2.7026   -0.3614   -4.7491 C   0  0  0  1  0  0  0  0  0  0  0  0
   -1.7921   -0.4049   -5.3095 H   0  0  0  1  0  0  0  0  0  0  0  0
   -3.4062   -1.0571   -5.1562 H   0  0  0  1  0  0  0  0  0  0  0  0
   -2.3893   -0.8066   -3.3457 C   0  0  0  1  0  0  0  0  0  0  0  0
   -1.6717   -0.2687   -2.8190 H   0  0  0  1  0  0  0  0  0  0  0  0
   -3.5606   -1.9666   -0.3306 C   0  0  0  1  0  0  0  0  0  0  0  0
   -3.2838   -2.4638    0.5755 H   0  0  0  1  0  0  0  0  0  0  0  0
   -4.4811   -2.3733   -0.6943 H   0  0  0  1  0  0  0  0  0  0  0  0
   -3.7669   -0.5071   -0.0320 C   0  0  0  1  0  0  0  0  0  0  0  0
   -2.9124    0.0499    0.1707 H   0  0  0  1  0  0  0  0  0  0  0  0
   -4.9274    0.1506    0.0010 C   0  0  0  1  0  0  0  0  0  0  0  0
   -6.2235   -0.5443   -0.3000 C   0  0  0  1  0  0  0  0  0  0  0  0
   -6.5236   -0.3217   -1.3026 H   0  0  0  1  0  0  0  0  0  0  0  0
   -6.9761   -0.2053    0.3809 H   0  0  0  1  0  0  0  0  0  0  0  0
   -6.0946   -1.6011   -0.1928 H   0  0  0  1  0  0  0  0  0  0  0  0
   -7.2241    4.5461   -1.7589 P   0  0  0  1  0  0  0  0  0  0  0  0
   -6.6274    7.3858   -2.1226 P   0  0  0  1  0  0  0  0  0  0  0  0
   -7.8798    4.6795   -3.1240 O   0  0  0  0  0  0  0  0  0  0  0  0
   -6.1504    7.3798   -3.6707 O   0  5  0  1  0  0  0  0  0  0  0  0
   -5.6451    0.1488   -4.7289 C   0  0  0  1  0  0  0  0  0  0  0  0
   -6.5912    0.3730   -4.2823 H   0  0  0  1  0  0  0  0  0  0  0  0
   -5.3413   -0.8370   -4.4445 H   0  0  0  1  0  0  0  0  0  0  0  0
   -5.7321    0.2024   -5.7940 H   0  0  0  1  0  0  0  0  0  0  0  0
   -4.0687   -2.6646   -3.2910 C   0  0  0  1  0  0  0  0  0  0  0  0
   -4.2275   -2.4157   -4.3195 H   0  0  0  1  0  0  0  0  0  0  0  0
   -4.9649   -2.4784   -2.7368 H   0  0  0  1  0  0  0  0  0  0  0  0
   -3.8075   -3.6991   -3.2108 H   0  0  0  1  0  0  0  0  0  0  0  0
   -4.9837    1.6134    0.3409 C   0  0  0  1  0  0  0  0  0  0  0  0
   -5.5829    1.7540    1.2162 H   0  0  0  1  0  0  0  0  0  0  0  0
   -5.4147    2.1529   -0.4765 H   0  0  0  1  0  0  0  0  0  0  0  0
   -3.9936    1.9750    0.5249 H   0  0  0  1  0  0  0  0  0  0  0  0
   -8.1272    4.2429   -0.6169 O   0  0  0  1  0  0  0  0  0  0  0  0
   -7.9981    7.8097   -1.7591 O   0  0  0  1  0  0  0  0  0  0  0  0
  1  2  1  0  0  0  0
  1 20  2  0  0  0  0
  1 40  1  0  0  0  0
  2  3  1  0  0  0  0
  2  4  1  0  0  0  0
  2 22  1  0  0  0  0
  5 32  1  0  0  0  0
  5 33  1  0  0  0  0
  6  7  1  0  0  0  0
  6 32  1  0  0  0  0
  7  8  1  0  0  0  0
  7  9  1  0  0  0  0
  7 11  1  0  0  0  0
 10 33  1  0  0  0  0
 11 12  1  0  0  0  0
 11 13  2  0  0  0  0
 13 14  1  0  0  0  0
 13 36  1  0  0  0  0
 14 15  1  0  0  0  0
 14 16  1  0  0  0  0
 14 17  1  0  0  0  0
 17 18  1  0  0  0  0
 17 19  1  0  0  0  0
 17 20  1  0  0  0  0
 20 21  1  0  0  0  0
 22 23  1  0  0  0  0
 22 24  1  0  0  0  0
 22 25  1  0  0  0  0
 25 26  1  0  0  0  0
 25 27  2  0  0  0  0
 27 28  1  0  0  0  0
 27 44  1  0  0  0  0
 28 29  1  0  0  0  0
 28 30  1  0  0  0  0
 28 31  1  0  0  0  0
 32 34  1  0  0  0  0
 32 48  2  0  0  0  0
 33 35  1  0  0  0  0
 33 49  2  0  0  0  0
 36 37  1  0  0  0  0
 36 38  1  0  0  0  0
 36 39  1  0  0  0  0
 40 41  1  0  0  0  0
 40 42  1  0  0  0  0
 40 43  1  0  0  0  0
 44 45  1  0  0  0  0
 44 46  1  0  0  0  0
 44 47  1  0  0  0  0
M  BCL ATM C_TrTrTrPi C_TeTeTeTe H_S H_S O_Tr2TrTrPi2 O_Tr2TrTrPi2 C_TeTeTeTe H_S H_S O_Te2Te2TeTe C_TrTrTrPi H_S C_TrTrTrPi C_TeTeTeTe H_S H_S C_TeTeTeTe H_S H_S C_TrTrTrPi H_S C_TeTeTeTe H_S H_S C_TrTrTrPi H_S C_TrTrTrPi C_TeTeTeTe H_S H_S H_S P_TeTeTeTePi P_TeTeTeTePi O_Te2Te2TeTe O_Te2Te2Te2Te C_TeTeTeTe H_S H_S H_S C_TeTeTeTe H_S H_S H_S C_TeTeTeTe H_S H_S H_S O_Tr2Tr2TrPi O_Tr2Tr2TrPi
M  BCL BND NonConjugatedSingleBond ConjugatedDoubleBond NonConjugatedSingleBond NonConjugatedSingleBond NonConjugatedSingleBond NonConjugatedSingleBond ConjugatedSingleBond ConjugatedSingleBond NonConjugatedSingleBond ConjugatedSingleBond NonConjugatedSingleBond NonConjugatedSingleBond NonConjugatedSingleBond ConjugatedSingleBond NonConjugatedSingleBond ConjugatedDoubleBond NonConjugatedSingleBond NonConjugatedSingleBond NonConjugatedSingleBond NonConjugatedSingleBond NonConjugatedSingleBond NonConjugatedSingleBond NonConjugatedSingleBond NonConjugatedSingleBond NonConjugatedSingleBond NonConjugatedSingleBond NonConjugatedSingleBond NonConjugatedSingleBond NonConjugatedSingleBond ConjugatedDoubleBond NonConjugatedSingleBond NonConjugatedSingleBond NonConjugatedSingleBond NonConjugatedSingleBond NonConjugatedSingleBond ConjugatedSingleBond ConjugatedDoubleBond ConjugatedSingleBond ConjugatedDoubleBond NonConjugatedSingleBond NonConjugatedSingleBond NonConjugatedSingleBond NonConjugatedSingleBond NonConjugatedSingleBond NonConjugatedSingleBond NonConjugatedSingleBond NonConjugatedSingleBond NonConjugatedSingleBond
M  BCL CHI  32   S  33   S
M  BCL DBI Z Z - - -
M  END
> <ConfClashScore>
0 

> <ConfOneFourInteractionScore>
-0.972196 

> <ConfScore>
0.0841065 

> <ConfScorePBest>
0.00490145 

> <ConfTolerance>
3.53882 

$$$$
