# created with PyMOL 2.4.0
@<TRIPOS>MOLECULE
L06.****
49 48 1                 
SMALL
USER_CHARGES
@<TRIPOS>ATOM
1	   C	-2.143	0.188	0.000	C.2	1	UNK0	0.000	
2	   C	-2.858	-0.224	0.000	C.3	1	UNK0	0.000	
3	   H	-2.858	-0.853	0.890	 H	1	UNK0	0.000	
4	   H	-2.858	-0.853	-0.890	 H	1	UNK0	0.000	
5	   O	4.287	-0.224	0.000	O.3	1	UNK0	0.000	
6	   O	2.858	-0.224	0.000	O.3	1	UNK0	0.000	
7	   C	2.143	0.188	0.000	C.3	1	UNK0	0.000	
8	   H	2.143	0.817	-0.890	 H	1	UNK0	0.000	
9	   H	2.143	0.817	0.890	 H	1	UNK0	0.000	
10	   O	5.716	-0.224	0.000	O.2	1	UNK0	0.000	
11	   C	1.429	-0.224	0.000	C.2	1	UNK0	0.000	
12	   H	1.429	-1.304	0.000	 H	1	UNK0	0.000	
13	   C	0.715	0.188	0.000	C.2	1	UNK0	0.000	
14	   C	0.000	-0.224	0.000	C.3	1	UNK0	0.000	
15	   H	0.000	-0.853	0.890	 H	1	UNK0	0.000	
16	   H	0.000	-0.853	-0.890	 H	1	UNK0	0.000	
17	   C	-0.715	0.188	0.000	C.3	1	UNK0	0.000	
18	   H	-0.715	0.817	-0.890	 H	1	UNK0	0.000	
19	   H	-0.715	0.817	0.890	 H	1	UNK0	0.000	
20	   C	-1.429	-0.224	0.000	C.2	1	UNK0	0.000	
21	   H	-1.429	-1.304	0.000	 H	1	UNK0	0.000	
22	   C	-3.572	0.188	0.000	C.3	1	UNK0	0.000	
23	   H	-3.572	0.817	-0.890	 H	1	UNK0	0.000	
24	   H	-3.572	0.817	0.890	 H	1	UNK0	0.000	
25	   C	-4.287	-0.224	0.000	C.2	1	UNK0	0.000	
26	   H	-4.287	-1.304	0.000	 H	1	UNK0	0.000	
27	   C	-5.001	0.188	0.000	C.2	1	UNK0	0.000	
28	   C	-5.716	-0.224	0.000	C.3	1	UNK0	0.000	
29	   H	-6.544	0.485	0.000	 H	1	UNK0	0.000	
30	   H	-5.774	-0.851	0.890	 H	1	UNK0	0.000	
31	   H	-5.774	-0.851	-0.890	 H	1	UNK0	0.000	
32	   P	3.572	0.188	0.000	 P	1	UNK0	0.000	
33	   P	5.001	0.188	0.000	 P	1	UNK0	0.000	
34	   O	3.572	1.013	0.000	O.2	1	UNK0	0.000	
35	   O	5.001	1.013	0.000	O.2	1	UNK0	0.000	
36	   C	0.714	1.013	0.000	C.3	1	UNK0	0.000	
37	   H	-0.314	1.375	-0.000	 H	1	UNK0	0.000	
38	   H	1.227	1.377	-0.890	 H	1	UNK0	0.000	
39	   H	1.227	1.377	0.890	 H	1	UNK0	0.000	
40	   C	-2.143	1.013	0.000	C.3	1	UNK0	0.000	
41	   H	-3.171	1.376	-0.000	 H	1	UNK0	0.000	
42	   H	-1.629	1.376	-0.890	 H	1	UNK0	0.000	
43	   H	-1.629	1.376	0.890	 H	1	UNK0	0.000	
44	   C	-5.001	1.013	0.000	C.3	1	UNK0	0.000	
45	   H	-6.029	1.376	-0.000	 H	1	UNK0	0.000	
46	   H	-4.487	1.376	-0.890	 H	1	UNK0	0.000	
47	   H	-4.487	1.376	0.890	 H	1	UNK0	0.000	
48	   O	3.572	-0.637	0.000	O.2	1	UNK0	0.000	
49	   O	5.001	-0.637	0.000	O.2	1	UNK0	0.000	
@<TRIPOS>BOND
1 1 2 1
2 1 20 2
3 1 40 1
4 2 3 1
5 2 4 1
6 2 22 1
7 5 32 1
8 5 33 1
9 6 7 1
10 6 32 1
11 7 8 1
12 7 9 1
13 7 11 1
14 10 33 ar
15 11 12 1
16 11 13 2
17 13 14 1
18 13 36 1
19 14 15 1
20 14 16 1
21 14 17 1
22 17 18 1
23 17 19 1
24 17 20 1
25 20 21 1
26 22 23 1
27 22 24 1
28 22 25 1
29 25 26 1
30 25 27 2
31 27 28 1
32 27 44 1
33 28 29 1
34 28 30 1
35 28 31 1
36 32 34 ar
37 32 48 ar
38 33 35 ar
39 33 49 ar
40 36 37 1
41 36 38 1
42 36 39 1
43 40 41 1
44 40 42 1
45 40 43 1
46 44 45 1
47 44 46 1
48 44 47 1
@<TRIPOS>SUBSTRUCTURE
1	UNK0	1	GROUP	1 ****	UNK
