# created with PyMOL 2.5.2
@<TRIPOS>MOLECULE
L07
14 13 1                 
SMALL
USER_CHARGES
@<TRIPOS>ATOM
1	   O	16.358	-5.251	0.000	O.3	1	UNK0	0.000	
2	   O	14.930	-5.251	0.000	O.3	1	UNK0	0.000	
3	   O	15.644	-4.014	0.000	O.co2	1	UNK0	0.000	
4	   C	14.215	-4.838	0.000	C.3	1	UNK0	0.000	
5	   O	17.073	-4.013	0.000	O.co2	1	UNK0	0.000	
6	   O	17.788	-5.251	0.000	O.co2	1	UNK0	0.000	
7	   C	13.501	-5.251	0.000	C.3	1	UNK0	0.000	
8	   C	12.786	-4.838	0.000	C.2	1	UNK0	0.000	
9	   C	12.072	-5.251	0.000	C.3	1	UNK0	0.000	
10	   C	12.786	-4.014	0.000	C.2	1	UNK0	0.000	
11	   P	17.073	-4.838	0.000	P.3	1	UNK0	0.000	
12	   O	17.073	-5.663	0.000	O.co2	1	UNK0	0.000	
13	   P	15.644	-4.838	0.000	P.3	1	UNK0	0.000	
14	   O	15.644	-5.663	0.000	O.co2	1	UNK0	0.000	
@<TRIPOS>BOND
1 1 11 1
2 2 4 1
3 4 7 1
4 7 8 1
5 8 9 1
6 8 10 2
7 5 11 2
8 6 11 1
9 11 12 1
10 1 13 1
11 2 13 1
12 3 13 2
13 13 14 1
@<TRIPOS>SUBSTRUCTURE
1	UNK0	1	GROUP	1 ****	UNK
