L07.****
  PyMOL2.5          3D                             0

 23 22  0  0  0  0  0  0  0  0999 V2000
   16.3580   -5.2510    0.0000 O   0  0  0  0  0  0  0  0  0  0  0  0
   14.9300   -5.2510    0.0000 O   0  0  0  0  0  0  0  0  0  0  0  0
   15.6440   -4.0140    0.0000 O   0  0  0  0  0  0  0  0  0  0  0  0
   14.2150   -4.8380    0.0000 C   0  0  0  0  0  0  0  0  0  0  0  0
   14.2148   -4.2087   -0.8900 H   0  0  0  0  0  0  0  0  0  0  0  0
   14.2148   -4.2087    0.8900 H   0  0  0  0  0  0  0  0  0  0  0  0
   17.0730   -4.0130    0.0000 O   0  0  0  0  0  0  0  0  0  0  0  0
   17.7880   -5.2510    0.0000 O   0  5  0  0  0  0  0  0  0  0  0  0
   13.5010   -5.2510    0.0000 C   0  0  0  0  0  0  0  0  0  0  0  0
   13.5012   -5.8803    0.8900 H   0  0  0  0  0  0  0  0  0  0  0  0
   13.5012   -5.8803   -0.8900 H   0  0  0  0  0  0  0  0  0  0  0  0
   12.7860   -4.8380    0.0000 C   0  0  0  0  0  0  0  0  0  0  0  0
   12.0720   -5.2510    0.0000 C   0  0  0  0  0  0  0  0  0  0  0  0
   12.2721   -6.3225   -0.0000 H   0  0  0  0  0  0  0  0  0  0  0  0
   11.5002   -4.9881   -0.8900 H   0  0  0  0  0  0  0  0  0  0  0  0
   11.5002   -4.9881    0.8900 H   0  0  0  0  0  0  0  0  0  0  0  0
   12.7860   -4.0140    0.0000 C   0  0  0  0  0  0  0  0  0  0  0  0
   11.8507   -3.4740    0.0000 H   0  0  0  0  0  0  0  0  0  0  0  0
   13.7213   -3.4740    0.0000 H   0  0  0  0  0  0  0  0  0  0  0  0
   17.0730   -4.8380    0.0000 P   0  0  0  0  0  0  0  0  0  0  0  0
   16.9277   -5.0966    0.7698 O   0  5  0  0  0  0  0  0  0  0  0  0
   15.6440   -4.8380    0.0000 P   0  0  0  0  0  0  0  0  0  0  0  0
   15.4038   -5.2003    0.7012 O   0  5  0  0  0  0  0  0  0  0  0  0
  1 20  1  0  0  0  0
  1 22  1  0  0  0  0
  2  4  1  0  0  0  0
  2 22  1  0  0  0  0
  4  5  1  0  0  0  0
  4  6  1  0  0  0  0
  4  9  1  0  0  0  0
  9 10  1  0  0  0  0
  9 11  1  0  0  0  0
  9 12  1  0  0  0  0
 12 13  1  0  0  0  0
 12 17  2  0  0  0  0
 13 14  1  0  0  0  0
 13 15  1  0  0  0  0
 13 16  1  0  0  0  0
 17 18  1  0  0  0  0
 17 19  1  0  0  0  0
  3 22  1  0  0  0  0
  7 20  1  0  0  0  0
  8 20  1  0  0  0  0
 22 23  2  0  0  0  0
 20 21  2  0  0  0  0
M  END
$$$$
