# created with PyMOL 2.4.0
@<TRIPOS>MOLECULE
L07.****
23 22 1                 
SMALL
USER_CHARGES
@<TRIPOS>ATOM
1	   O	16.358	-5.251	0.000	O.3	1	UNK0	0.000	
2	   O	14.930	-5.251	0.000	O.3	1	UNK0	0.000	
3	   O	15.644	-4.014	0.000	O.2	1	UNK0	0.000	
4	   C	14.215	-4.838	0.000	C.3	1	UNK0	0.000	
5	   H	14.215	-4.209	-0.890	 H	1	UNK0	0.000	
6	   H	14.215	-4.209	0.890	 H	1	UNK0	0.000	
7	   O	17.073	-4.013	0.000	O.2	1	UNK0	0.000	
8	   O	17.788	-5.251	0.000	O.2	1	UNK0	0.000	
9	   C	13.501	-5.251	0.000	C.3	1	UNK0	0.000	
10	   H	13.501	-5.880	0.890	 H	1	UNK0	0.000	
11	   H	13.501	-5.880	-0.890	 H	1	UNK0	0.000	
12	   C	12.786	-4.838	0.000	C.2	1	UNK0	0.000	
13	   C	12.072	-5.251	0.000	C.3	1	UNK0	0.000	
14	   H	12.272	-6.323	-0.000	 H	1	UNK0	0.000	
15	   H	11.500	-4.988	-0.890	 H	1	UNK0	0.000	
16	   H	11.500	-4.988	0.890	 H	1	UNK0	0.000	
17	   C	12.786	-4.014	0.000	C.2	1	UNK0	0.000	
18	   H	11.851	-3.474	0.000	 H	1	UNK0	0.000	
19	   H	13.721	-3.474	0.000	 H	1	UNK0	0.000	
20	   P	17.073	-4.838	0.000	 P	1	UNK0	0.000	
21	   O	17.073	-5.663	0.000	O.2	1	UNK0	0.000	
22	   P	15.644	-4.838	0.000	 P	1	UNK0	0.000	
23	   O	15.644	-5.663	0.000	O.2	1	UNK0	0.000	
@<TRIPOS>BOND
1 1 20 1
2 1 22 1
3 2 4 1
4 2 22 1
5 3 22 ar
6 4 5 1
7 4 6 1
8 4 9 1
9 7 20 ar
10 8 20 ar
11 9 10 1
12 9 11 1
13 9 12 1
14 12 13 1
15 12 17 2
16 13 14 1
17 13 15 1
18 13 16 1
19 17 18 1
20 17 19 1
21 20 21 ar
22 22 23 ar
@<TRIPOS>SUBSTRUCTURE
1	UNK0	1	GROUP	1 ****	UNK
