L07.****
  PyMOL2.5          3D                             0

 23 22  0  0  0  0  0  0  0  0999 V2000
   14.8272   -9.7477   -0.4896 O   0  0  0  1  0  0  0  0  0  0  0  0
   15.5560   -7.3947   -0.5003 O   0  0  0  1  0  0  0  0  0  0  0  0
   17.2516   -9.2325   -0.7270 O   0  0  0  0  0  0  0  0  0  0  0  0
   14.4401   -6.6967    0.1088 C   0  0  0  1  0  0  0  0  0  0  0  0
   14.7040   -6.3791    1.0959 H   0  0  0  1  0  0  0  0  0  0  0  0
   13.5887   -7.3429    0.1571 H   0  0  0  1  0  0  0  0  0  0  0  0
   15.5050  -12.1616   -1.5286 O   0  0  0  0  0  0  0  0  0  0  0  0
   13.0875  -11.6956   -0.8716 O   0  5  0  1  0  0  0  0  0  0  0  0
   14.1222   -5.4808   -0.7618 C   0  0  0  1  0  0  0  0  0  0  0  0
   13.8788   -5.8013   -1.7532 H   0  0  0  1  0  0  0  0  0  0  0  0
   14.9706   -4.8297   -0.7950 H   0  0  0  1  0  0  0  0  0  0  0  0
   12.9518   -4.7560   -0.1632 C   0  0  0  1  0  0  0  0  0  0  0  0
   11.6963   -5.5741   -0.0498 C   0  0  0  1  0  0  0  0  0  0  0  0
   11.8725   -6.4117    0.5923 H   0  0  0  1  0  0  0  0  0  0  0  0
   11.4093   -5.9228   -1.0198 H   0  0  0  1  0  0  0  0  0  0  0  0
   10.9132   -4.9703    0.3589 H   0  0  0  1  0  0  0  0  0  0  0  0
   12.9967   -3.4914    0.2421 C   0  0  0  1  0  0  0  0  0  0  0  0
   12.1515   -3.0488    0.6562 H   0  0  0  1  0  0  0  0  0  0  0  0
   13.8760   -2.9447    0.1452 H   0  0  0  1  0  0  0  0  0  0  0  0
   14.6055  -11.3706   -0.4083 P   0  0  0  1  0  0  0  0  0  0  0  0
   14.8401  -11.9919    0.9143 O   0  0  0  1  0  0  0  0  0  0  0  0
   15.9931   -8.8027    0.0097 P   0  0  0  1  0  0  0  0  0  0  0  0
   16.0714   -8.7763    1.5018 O   0  0  0  1  0  0  0  0  0  0  0  0
  1 20  1  0  0  0  0
  1 22  1  0  0  0  0
  2  4  1  0  0  0  0
  2 22  1  0  0  0  0
  3 22  1  0  0  0  0
  4  5  1  0  0  0  0
  4  6  1  0  0  0  0
  4  9  1  0  0  0  0
  7 20  1  0  0  0  0
  8 20  1  0  0  0  0
  9 10  1  0  0  0  0
  9 11  1  0  0  0  0
  9 12  1  0  0  0  0
 12 13  1  0  0  0  0
 12 17  2  0  0  0  0
 13 14  1  0  0  0  0
 13 15  1  0  0  0  0
 13 16  1  0  0  0  0
 17 18  1  0  0  0  0
 17 19  1  0  0  0  0
 20 21  2  0  0  0  0
 22 23  2  0  0  0  0
M  BCL ATM O_Tr2TrTrPi2 O_Tr2TrTrPi2 O_Te2Te2TeTe C_TeTeTeTe H_S H_S O_Te2Te2TeTe O_Te2Te2Te2Te C_TeTeTeTe H_S H_S C_TrTrTrPi C_TeTeTeTe H_S H_S H_S C_TrTrTrPi H_S H_S P_TeTeTeTePi O_Tr2Tr2TrPi P_TeTeTeTePi O_Tr2Tr2TrPi
M  BCL BND ConjugatedSingleBond ConjugatedSingleBond NonConjugatedSingleBond ConjugatedSingleBond ConjugatedSingleBond NonConjugatedSingleBond NonConjugatedSingleBond NonConjugatedSingleBond ConjugatedSingleBond ConjugatedSingleBond NonConjugatedSingleBond NonConjugatedSingleBond NonConjugatedSingleBond NonConjugatedSingleBond ConjugatedDoubleBond NonConjugatedSingleBond NonConjugatedSingleBond NonConjugatedSingleBond NonConjugatedSingleBond NonConjugatedSingleBond ConjugatedDoubleBond ConjugatedDoubleBond
M  BCL CHI  20   R  22   S
M  BCL DBI - - -
M  END
> <ConfClashScore>
0 

> <ConfOneFourInteractionScore>
-0.968935 

> <ConfScore>
-0.281285 

> <ConfScorePBest>
0.0150985 

> <ConfTolerance>
0.458809 

$$$$
L07.****
  PyMOL2.5          3D                             0

 23 22  0  0  0  0  0  0  0  0999 V2000
    7.8437   -1.6599    1.4382 O   0  0  0  1  0  0  0  0  0  0  0  0
    8.6622   -2.9681   -0.4538 O   0  0  0  1  0  0  0  0  0  0  0  0
    6.2702   -2.0788   -0.5094 O   0  0  0  0  0  0  0  0  0  0  0  0
    9.8209   -3.5450    0.2003 C   0  0  0  1  0  0  0  0  0  0  0  0
    9.5686   -4.5162    0.5717 H   0  0  0  1  0  0  0  0  0  0  0  0
   10.1150   -2.9165    1.0148 H   0  0  0  1  0  0  0  0  0  0  0  0
    9.6586   -0.9758    3.2758 O   0  0  0  0  0  0  0  0  0  0  0  0
    9.3543   -3.4307    2.7922 O   0  5  0  1  0  0  0  0  0  0  0  0
   10.9789   -3.6687   -0.7813 C   0  0  0  1  0  0  0  0  0  0  0  0
   11.2516   -2.6881   -1.1115 H   0  0  0  1  0  0  0  0  0  0  0  0
   10.6547   -4.2504   -1.6188 H   0  0  0  1  0  0  0  0  0  0  0  0
   12.1925   -4.3270   -0.1815 C   0  0  0  1  0  0  0  0  0  0  0  0
   12.0456   -5.8002    0.0768 C   0  0  0  1  0  0  0  0  0  0  0  0
   12.9845   -6.2022    0.3958 H   0  0  0  1  0  0  0  0  0  0  0  0
   11.7350   -6.2904   -0.8221 H   0  0  0  1  0  0  0  0  0  0  0  0
   11.3128   -5.9568    0.8406 H   0  0  0  1  0  0  0  0  0  0  0  0
   13.2932   -3.6330    0.0872 C   0  0  0  1  0  0  0  0  0  0  0  0
   13.3053   -2.6030   -0.0562 H   0  0  0  1  0  0  0  0  0  0  0  0
   14.1418   -4.1193    0.4407 H   0  0  0  1  0  0  0  0  0  0  0  0
    8.4924   -2.0624    2.8896 P   0  0  0  1  0  0  0  0  0  0  0  0
    7.5200   -2.1204    4.0038 O   0  0  0  1  0  0  0  0  0  0  0  0
    7.2818   -2.7050    0.3712 P   0  0  0  1  0  0  0  0  0  0  0  0
    7.0301   -3.9284    1.0708 O   0  0  0  1  0  0  0  0  0  0  0  0
  1 20  1  0  0  0  0
  1 22  1  0  0  0  0
  2  4  1  0  0  0  0
  2 22  1  0  0  0  0
  3 22  1  0  0  0  0
  4  5  1  0  0  0  0
  4  6  1  0  0  0  0
  4  9  1  0  0  0  0
  7 20  1  0  0  0  0
  8 20  1  0  0  0  0
  9 10  1  0  0  0  0
  9 11  1  0  0  0  0
  9 12  1  0  0  0  0
 12 13  1  0  0  0  0
 12 17  2  0  0  0  0
 13 14  1  0  0  0  0
 13 15  1  0  0  0  0
 13 16  1  0  0  0  0
 17 18  1  0  0  0  0
 17 19  1  0  0  0  0
 20 21  2  0  0  0  0
 22 23  2  0  0  0  0
M  BCL ATM O_Tr2TrTrPi2 O_Tr2TrTrPi2 O_Te2Te2TeTe C_TeTeTeTe H_S H_S O_Te2Te2TeTe O_Te2Te2Te2Te C_TeTeTeTe H_S H_S C_TrTrTrPi C_TeTeTeTe H_S H_S H_S C_TrTrTrPi H_S H_S P_TeTeTeTePi O_Tr2Tr2TrPi P_TeTeTeTePi O_Tr2Tr2TrPi
M  BCL BND ConjugatedSingleBond ConjugatedSingleBond NonConjugatedSingleBond ConjugatedSingleBond ConjugatedSingleBond NonConjugatedSingleBond NonConjugatedSingleBond NonConjugatedSingleBond ConjugatedSingleBond ConjugatedSingleBond NonConjugatedSingleBond NonConjugatedSingleBond NonConjugatedSingleBond NonConjugatedSingleBond ConjugatedDoubleBond NonConjugatedSingleBond NonConjugatedSingleBond NonConjugatedSingleBond NonConjugatedSingleBond NonConjugatedSingleBond ConjugatedDoubleBond ConjugatedDoubleBond
M  BCL CHI  20   R  22   S
M  BCL DBI - - -
M  END
> <ConfClashScore>
0 

> <ConfOneFourInteractionScore>
-0.992869 

> <ConfScore>
-0.274744 

> <ConfScorePBest>
0.0149955 

> <ConfTolerance>
0.492964 

$$$$
L07.****
  PyMOL2.5          3D                             0

 23 22  0  0  0  0  0  0  0  0999 V2000
   13.5428   -8.2720    4.4224 O   0  0  0  1  0  0  0  0  0  0  0  0
   14.6820   -6.4385    3.1260 O   0  0  0  1  0  0  0  0  0  0  0  0
   15.9057   -7.7023    5.0549 O   0  0  0  0  0  0  0  0  0  0  0  0
   13.5543   -5.7908    2.4916 C   0  0  0  1  0  0  0  0  0  0  0  0
   13.2812   -4.9141    3.0411 H   0  0  0  1  0  0  0  0  0  0  0  0
   12.7222   -6.4623    2.4540 H   0  0  0  1  0  0  0  0  0  0  0  0
   14.4257  -10.3330    2.9993 O   0  0  0  0  0  0  0  0  0  0  0  0
   12.8291   -8.4126    1.9803 O   0  5  0  1  0  0  0  0  0  0  0  0
   13.9748   -5.4081    1.0821 C   0  0  0  1  0  0  0  0  0  0  0  0
   14.2756   -6.3003    0.5737 H   0  0  0  1  0  0  0  0  0  0  0  0
   14.8081   -4.7409    1.1559 H   0  0  0  1  0  0  0  0  0  0  0  0
   12.9139   -4.7359    0.2523 C   0  0  0  1  0  0  0  0  0  0  0  0
   11.7166   -5.5919   -0.0516 C   0  0  0  1  0  0  0  0  0  0  0  0
   12.0295   -6.4703   -0.5763 H   0  0  0  1  0  0  0  0  0  0  0  0
   11.0289   -5.0404   -0.6581 H   0  0  0  1  0  0  0  0  0  0  0  0
   11.2391   -5.8744    0.8633 H   0  0  0  1  0  0  0  0  0  0  0  0
   13.0049   -3.4859   -0.1889 C   0  0  0  1  0  0  0  0  0  0  0  0
   13.8683   -2.9342   -0.0108 H   0  0  0  1  0  0  0  0  0  0  0  0
   12.2134   -3.0596   -0.7119 H   0  0  0  1  0  0  0  0  0  0  0  0
   13.1348   -9.3560    3.2613 P   0  0  0  1  0  0  0  0  0  0  0  0
   11.8811  -10.0317    3.6639 O   0  0  0  1  0  0  0  0  0  0  0  0
   14.6153   -7.0751    4.6055 P   0  0  0  1  0  0  0  0  0  0  0  0
   14.0645   -6.1318    5.5597 O   0  0  0  1  0  0  0  0  0  0  0  0
  1 20  1  0  0  0  0
  1 22  1  0  0  0  0
  2  4  1  0  0  0  0
  2 22  1  0  0  0  0
  3 22  1  0  0  0  0
  4  5  1  0  0  0  0
  4  6  1  0  0  0  0
  4  9  1  0  0  0  0
  7 20  1  0  0  0  0
  8 20  1  0  0  0  0
  9 10  1  0  0  0  0
  9 11  1  0  0  0  0
  9 12  1  0  0  0  0
 12 13  1  0  0  0  0
 12 17  2  0  0  0  0
 13 14  1  0  0  0  0
 13 15  1  0  0  0  0
 13 16  1  0  0  0  0
 17 18  1  0  0  0  0
 17 19  1  0  0  0  0
 20 21  2  0  0  0  0
 22 23  2  0  0  0  0
M  BCL ATM O_Tr2TrTrPi2 O_Tr2TrTrPi2 O_Te2Te2TeTe C_TeTeTeTe H_S H_S O_Te2Te2TeTe O_Te2Te2Te2Te C_TeTeTeTe H_S H_S C_TrTrTrPi C_TeTeTeTe H_S H_S H_S C_TrTrTrPi H_S H_S P_TeTeTeTePi O_Tr2Tr2TrPi P_TeTeTeTePi O_Tr2Tr2TrPi
M  BCL BND ConjugatedSingleBond ConjugatedSingleBond NonConjugatedSingleBond ConjugatedSingleBond ConjugatedSingleBond NonConjugatedSingleBond NonConjugatedSingleBond NonConjugatedSingleBond ConjugatedSingleBond ConjugatedSingleBond NonConjugatedSingleBond NonConjugatedSingleBond NonConjugatedSingleBond NonConjugatedSingleBond ConjugatedDoubleBond NonConjugatedSingleBond NonConjugatedSingleBond NonConjugatedSingleBond NonConjugatedSingleBond NonConjugatedSingleBond ConjugatedDoubleBond ConjugatedDoubleBond
M  BCL CHI  20   R  22   S
M  BCL DBI - - -
M  END
> <ConfClashScore>
0 

> <ConfOneFourInteractionScore>
-0.98644 

> <ConfScore>
-0.271368 

> <ConfScorePBest>
0.0148925 

> <ConfTolerance>
0.618702 

$$$$
L07.****
  PyMOL2.5          3D                             0

 23 22  0  0  0  0  0  0  0  0999 V2000
   14.4013   -8.8719    3.4444 O   0  0  0  1  0  0  0  0  0  0  0  0
   15.2414   -6.7697    2.3483 O   0  0  0  1  0  0  0  0  0  0  0  0
   16.6434   -8.1600    3.9828 O   0  0  0  0  0  0  0  0  0  0  0  0
   13.9929   -6.2011    1.8755 C   0  0  0  1  0  0  0  0  0  0  0  0
   13.6521   -5.4677    2.5761 H   0  0  0  1  0  0  0  0  0  0  0  0
   13.2625   -6.9781    1.7882 H   0  0  0  1  0  0  0  0  0  0  0  0
   12.4132  -10.6412    3.2083 O   0  0  0  0  0  0  0  0  0  0  0  0
   11.9290   -8.2496    2.5773 O   0  5  0  1  0  0  0  0  0  0  0  0
   14.1899   -5.5415    0.5137 C   0  0  0  1  0  0  0  0  0  0  0  0
   14.3810   -6.2983   -0.2182 H   0  0  0  1  0  0  0  0  0  0  0  0
   15.0252   -4.8747    0.5645 H   0  0  0  1  0  0  0  0  0  0  0  0
   12.9642   -4.7671    0.1139 C   0  0  0  1  0  0  0  0  0  0  0  0
   11.7086   -5.5864    0.0099 C   0  0  0  1  0  0  0  0  0  0  0  0
   10.9201   -4.9825   -0.3882 H   0  0  0  1  0  0  0  0  0  0  0  0
   11.4317   -5.9391    0.9813 H   0  0  0  1  0  0  0  0  0  0  0  0
   11.8801   -6.4207   -0.6376 H   0  0  0  1  0  0  0  0  0  0  0  0
   12.9650   -3.4616   -0.1332 C   0  0  0  1  0  0  0  0  0  0  0  0
   12.0772   -2.9795   -0.3803 H   0  0  0  1  0  0  0  0  0  0  0  0
   13.8527   -2.9222   -0.0796 H   0  0  0  1  0  0  0  0  0  0  0  0
   12.7910   -9.1070    3.6478 P   0  0  0  1  0  0  0  0  0  0  0  0
   12.3057   -8.8831    5.0280 O   0  0  0  1  0  0  0  0  0  0  0  0
   15.3033   -7.5852    3.7294 P   0  0  0  1  0  0  0  0  0  0  0  0
   14.6720   -6.6841    4.7056 O   0  0  0  1  0  0  0  0  0  0  0  0
  1 20  1  0  0  0  0
  1 22  1  0  0  0  0
  2  4  1  0  0  0  0
  2 22  1  0  0  0  0
  3 22  1  0  0  0  0
  4  5  1  0  0  0  0
  4  6  1  0  0  0  0
  4  9  1  0  0  0  0
  7 20  1  0  0  0  0
  8 20  1  0  0  0  0
  9 10  1  0  0  0  0
  9 11  1  0  0  0  0
  9 12  1  0  0  0  0
 12 13  1  0  0  0  0
 12 17  2  0  0  0  0
 13 14  1  0  0  0  0
 13 15  1  0  0  0  0
 13 16  1  0  0  0  0
 17 18  1  0  0  0  0
 17 19  1  0  0  0  0
 20 21  2  0  0  0  0
 22 23  2  0  0  0  0
M  BCL ATM O_Tr2TrTrPi2 O_Tr2TrTrPi2 O_Te2Te2TeTe C_TeTeTeTe H_S H_S O_Te2Te2TeTe O_Te2Te2Te2Te C_TeTeTeTe H_S H_S C_TrTrTrPi C_TeTeTeTe H_S H_S H_S C_TrTrTrPi H_S H_S P_TeTeTeTePi O_Tr2Tr2TrPi P_TeTeTeTePi O_Tr2Tr2TrPi
M  BCL BND ConjugatedSingleBond ConjugatedSingleBond NonConjugatedSingleBond ConjugatedSingleBond ConjugatedSingleBond NonConjugatedSingleBond NonConjugatedSingleBond NonConjugatedSingleBond ConjugatedSingleBond ConjugatedSingleBond NonConjugatedSingleBond NonConjugatedSingleBond NonConjugatedSingleBond NonConjugatedSingleBond ConjugatedDoubleBond NonConjugatedSingleBond NonConjugatedSingleBond NonConjugatedSingleBond NonConjugatedSingleBond NonConjugatedSingleBond ConjugatedDoubleBond ConjugatedDoubleBond
M  BCL CHI  20   R  22   S
M  BCL DBI - - -
M  END
> <ConfClashScore>
0 

> <ConfOneFourInteractionScore>
-0.992869 

> <ConfScore>
-0.270605 

> <ConfScorePBest>
0.0147895 

> <ConfTolerance>
0.572245 

$$$$
L07.****
  PyMOL2.5          3D                             0

 23 22  0  0  0  0  0  0  0  0999 V2000
   13.7177   -5.2190   -5.6693 O   0  0  0  1  0  0  0  0  0  0  0  0
   14.3573   -6.1267   -3.4853 O   0  0  0  1  0  0  0  0  0  0  0  0
   15.4306   -7.1041   -5.5873 O   0  0  0  0  0  0  0  0  0  0  0  0
   13.2578   -5.7897   -2.6070 C   0  0  0  1  0  0  0  0  0  0  0  0
   12.6774   -6.6639   -2.3979 H   0  0  0  1  0  0  0  0  0  0  0  0
   12.6367   -5.0503   -3.0679 H   0  0  0  1  0  0  0  0  0  0  0  0
   15.3077   -3.9964   -7.4849 O   0  0  0  0  0  0  0  0  0  0  0  0
   12.7374   -3.3954   -7.3681 O   0  5  0  1  0  0  0  0  0  0  0  0
   13.8481   -5.2399   -1.3188 C   0  0  0  1  0  0  0  0  0  0  0  0
   14.5202   -4.4479   -1.5753 H   0  0  0  1  0  0  0  0  0  0  0  0
   14.3912   -6.0287   -0.8415 H   0  0  0  1  0  0  0  0  0  0  0  0
   12.8675   -4.7094   -0.3484 C   0  0  0  1  0  0  0  0  0  0  0  0
   11.7192   -5.6034    0.0759 C   0  0  0  1  0  0  0  0  0  0  0  0
   12.0938   -6.4040    0.6790 H   0  0  0  1  0  0  0  0  0  0  0  0
   11.2406   -6.0053   -0.7926 H   0  0  0  1  0  0  0  0  0  0  0  0
   11.0126   -5.0320    0.6409 H   0  0  0  1  0  0  0  0  0  0  0  0
   13.0273   -3.5140    0.2094 C   0  0  0  1  0  0  0  0  0  0  0  0
   13.8221   -2.9086   -0.0796 H   0  0  0  1  0  0  0  0  0  0  0  0
   12.3584   -3.1841    0.9341 H   0  0  0  1  0  0  0  0  0  0  0  0
   13.8108   -4.5944   -7.1828 P   0  0  0  1  0  0  0  0  0  0  0  0
   13.4924   -5.5761   -8.2437 O   0  0  0  1  0  0  0  0  0  0  0  0
   14.1559   -6.6018   -4.9792 P   0  0  0  1  0  0  0  0  0  0  0  0
   13.0063   -7.5618   -4.9848 O   0  0  0  1  0  0  0  0  0  0  0  0
  1 20  1  0  0  0  0
  1 22  1  0  0  0  0
  2  4  1  0  0  0  0
  2 22  1  0  0  0  0
  3 22  1  0  0  0  0
  4  5  1  0  0  0  0
  4  6  1  0  0  0  0
  4  9  1  0  0  0  0
  7 20  1  0  0  0  0
  8 20  1  0  0  0  0
  9 10  1  0  0  0  0
  9 11  1  0  0  0  0
  9 12  1  0  0  0  0
 12 13  1  0  0  0  0
 12 17  2  0  0  0  0
 13 14  1  0  0  0  0
 13 15  1  0  0  0  0
 13 16  1  0  0  0  0
 17 18  1  0  0  0  0
 17 19  1  0  0  0  0
 20 21  2  0  0  0  0
 22 23  2  0  0  0  0
M  BCL ATM O_Tr2TrTrPi2 O_Tr2TrTrPi2 O_Te2Te2TeTe C_TeTeTeTe H_S H_S O_Te2Te2TeTe O_Te2Te2Te2Te C_TeTeTeTe H_S H_S C_TrTrTrPi C_TeTeTeTe H_S H_S H_S C_TrTrTrPi H_S H_S P_TeTeTeTePi O_Tr2Tr2TrPi P_TeTeTeTePi O_Tr2Tr2TrPi
M  BCL BND ConjugatedSingleBond ConjugatedSingleBond NonConjugatedSingleBond ConjugatedSingleBond ConjugatedSingleBond NonConjugatedSingleBond NonConjugatedSingleBond NonConjugatedSingleBond ConjugatedSingleBond ConjugatedSingleBond NonConjugatedSingleBond NonConjugatedSingleBond NonConjugatedSingleBond NonConjugatedSingleBond ConjugatedDoubleBond NonConjugatedSingleBond NonConjugatedSingleBond NonConjugatedSingleBond NonConjugatedSingleBond NonConjugatedSingleBond ConjugatedDoubleBond ConjugatedDoubleBond
M  BCL CHI  20   R  22   S
M  BCL DBI - - -
M  END
> <ConfClashScore>
0 

> <ConfOneFourInteractionScore>
-0.98644 

> <ConfScore>
-0.256507 

> <ConfScorePBest>
0.0146865 

> <ConfTolerance>
0.413525 

$$$$
L07.****
  PyMOL2.5          3D                             0

 23 22  0  0  0  0  0  0  0  0999 V2000
   18.3966   -4.3055   -0.2756 O   0  0  0  1  0  0  0  0  0  0  0  0
   16.3979   -5.1184   -1.5609 O   0  0  0  1  0  0  0  0  0  0  0  0
   18.7350   -5.2879   -2.5154 O   0  0  0  0  0  0  0  0  0  0  0  0
   15.3458   -4.4847   -0.7958 C   0  0  0  1  0  0  0  0  0  0  0  0
   15.0669   -3.5599   -1.2561 H   0  0  0  1  0  0  0  0  0  0  0  0
   15.6825   -4.2993    0.2028 H   0  0  0  1  0  0  0  0  0  0  0  0
   19.9684   -3.9755    1.7826 O   0  0  0  0  0  0  0  0  0  0  0  0
   20.9269   -3.4755   -0.6051 O   0  5  0  1  0  0  0  0  0  0  0  0
   14.1523   -5.4350   -0.7738 C   0  0  0  1  0  0  0  0  0  0  0  0
   14.4019   -6.2984   -0.1932 H   0  0  0  1  0  0  0  0  0  0  0  0
   13.9222   -5.7325   -1.7755 H   0  0  0  1  0  0  0  0  0  0  0  0
   12.9487   -4.7655   -0.1695 C   0  0  0  1  0  0  0  0  0  0  0  0
   11.6886   -5.5754   -0.0481 C   0  0  0  1  0  0  0  0  0  0  0  0
   11.8626   -6.4124    0.5954 H   0  0  0  1  0  0  0  0  0  0  0  0
   11.3949   -5.9248   -1.0158 H   0  0  0  1  0  0  0  0  0  0  0  0
   10.9112   -4.9656    0.3627 H   0  0  0  1  0  0  0  0  0  0  0  0
   12.9979   -3.5031    0.2422 C   0  0  0  1  0  0  0  0  0  0  0  0
   12.1490   -3.0540    0.6415 H   0  0  0  1  0  0  0  0  0  0  0  0
   13.8843   -2.9647    0.1654 H   0  0  0  1  0  0  0  0  0  0  0  0
   19.9512   -4.4716    0.2195 P   0  0  0  1  0  0  0  0  0  0  0  0
   20.5513   -5.8151    0.0603 O   0  0  0  1  0  0  0  0  0  0  0  0
   17.8314   -4.3978   -1.7531 P   0  0  0  1  0  0  0  0  0  0  0  0
   17.5365   -3.0420   -2.2884 O   0  0  0  1  0  0  0  0  0  0  0  0
  1 20  1  0  0  0  0
  1 22  1  0  0  0  0
  2  4  1  0  0  0  0
  2 22  1  0  0  0  0
  3 22  1  0  0  0  0
  4  5  1  0  0  0  0
  4  6  1  0  0  0  0
  4  9  1  0  0  0  0
  7 20  1  0  0  0  0
  8 20  1  0  0  0  0
  9 10  1  0  0  0  0
  9 11  1  0  0  0  0
  9 12  1  0  0  0  0
 12 13  1  0  0  0  0
 12 17  2  0  0  0  0
 13 14  1  0  0  0  0
 13 15  1  0  0  0  0
 13 16  1  0  0  0  0
 17 18  1  0  0  0  0
 17 19  1  0  0  0  0
 20 21  2  0  0  0  0
 22 23  2  0  0  0  0
M  BCL ATM O_Tr2TrTrPi2 O_Tr2TrTrPi2 O_Te2Te2TeTe C_TeTeTeTe H_S H_S O_Te2Te2TeTe O_Te2Te2Te2Te C_TeTeTeTe H_S H_S C_TrTrTrPi C_TeTeTeTe H_S H_S H_S C_TrTrTrPi H_S H_S P_TeTeTeTePi O_Tr2Tr2TrPi P_TeTeTeTePi O_Tr2Tr2TrPi
M  BCL BND ConjugatedSingleBond ConjugatedSingleBond NonConjugatedSingleBond ConjugatedSingleBond ConjugatedSingleBond NonConjugatedSingleBond NonConjugatedSingleBond NonConjugatedSingleBond ConjugatedSingleBond ConjugatedSingleBond NonConjugatedSingleBond NonConjugatedSingleBond NonConjugatedSingleBond NonConjugatedSingleBond ConjugatedDoubleBond NonConjugatedSingleBond NonConjugatedSingleBond NonConjugatedSingleBond NonConjugatedSingleBond NonConjugatedSingleBond ConjugatedDoubleBond ConjugatedDoubleBond
M  BCL CHI  20   R  22   S
M  BCL DBI - - -
M  END
> <ConfClashScore>
0 

> <ConfOneFourInteractionScore>
-0.981767 

> <ConfScore>
-0.253 

> <ConfScorePBest>
0.0145835 

> <ConfTolerance>
0.504267 

$$$$
L07.****
  PyMOL2.5          3D                             0

 23 22  0  0  0  0  0  0  0  0999 V2000
   10.4307   -5.9923   -3.9342 O   0  0  0  1  0  0  0  0  0  0  0  0
   12.5432   -4.8526   -3.1697 O   0  0  0  1  0  0  0  0  0  0  0  0
   10.7963   -3.7166   -4.6623 O   0  0  0  0  0  0  0  0  0  0  0  0
   13.2796   -5.9057   -2.5044 C   0  0  0  1  0  0  0  0  0  0  0  0
   14.0648   -6.2587   -3.1398 H   0  0  0  1  0  0  0  0  0  0  0  0
   12.6220   -6.7153   -2.2657 H   0  0  0  1  0  0  0  0  0  0  0  0
    7.9205   -5.4385   -3.5534 O   0  0  0  0  0  0  0  0  0  0  0  0
    8.6207   -7.8761   -4.0805 O   0  5  0  1  0  0  0  0  0  0  0  0
   13.8676   -5.3233   -1.2296 C   0  0  0  1  0  0  0  0  0  0  0  0
   14.5663   -4.5616   -1.5063 H   0  0  0  1  0  0  0  0  0  0  0  0
   14.3805   -6.1083   -0.7141 H   0  0  0  1  0  0  0  0  0  0  0  0
   12.8715   -4.7164   -0.2781 C   0  0  0  1  0  0  0  0  0  0  0  0
   11.7147   -5.6084    0.0748 C   0  0  0  1  0  0  0  0  0  0  0  0
   12.0714   -6.4566    0.6208 H   0  0  0  1  0  0  0  0  0  0  0  0
   11.2328   -5.9386   -0.8217 H   0  0  0  1  0  0  0  0  0  0  0  0
   11.0163   -5.0652    0.6764 H   0  0  0  1  0  0  0  0  0  0  0  0
   13.0301   -3.4852    0.1957 C   0  0  0  1  0  0  0  0  0  0  0  0
   13.8592   -2.9237   -0.0853 H   0  0  0  1  0  0  0  0  0  0  0  0
   12.3259   -3.0833    0.8470 H   0  0  0  1  0  0  0  0  0  0  0  0
    8.9256   -6.3377   -4.4865 P   0  0  0  1  0  0  0  0  0  0  0  0
    8.7389   -5.9647   -5.9065 O   0  0  0  1  0  0  0  0  0  0  0  0
   11.5558   -4.9654   -4.4300 P   0  0  0  1  0  0  0  0  0  0  0  0
   12.3936   -5.5471   -5.4900 O   0  0  0  1  0  0  0  0  0  0  0  0
  1 20  1  0  0  0  0
  1 22  1  0  0  0  0
  2  4  1  0  0  0  0
  2 22  1  0  0  0  0
  3 22  1  0  0  0  0
  4  5  1  0  0  0  0
  4  6  1  0  0  0  0
  4  9  1  0  0  0  0
  7 20  1  0  0  0  0
  8 20  1  0  0  0  0
  9 10  1  0  0  0  0
  9 11  1  0  0  0  0
  9 12  1  0  0  0  0
 12 13  1  0  0  0  0
 12 17  2  0  0  0  0
 13 14  1  0  0  0  0
 13 15  1  0  0  0  0
 13 16  1  0  0  0  0
 17 18  1  0  0  0  0
 17 19  1  0  0  0  0
 20 21  2  0  0  0  0
 22 23  2  0  0  0  0
M  BCL ATM O_Tr2TrTrPi2 O_Tr2TrTrPi2 O_Te2Te2TeTe C_TeTeTeTe H_S H_S O_Te2Te2TeTe O_Te2Te2Te2Te C_TeTeTeTe H_S H_S C_TrTrTrPi C_TeTeTeTe H_S H_S H_S C_TrTrTrPi H_S H_S P_TeTeTeTePi O_Tr2Tr2TrPi P_TeTeTeTePi O_Tr2Tr2TrPi
M  BCL BND ConjugatedSingleBond ConjugatedSingleBond NonConjugatedSingleBond ConjugatedSingleBond ConjugatedSingleBond NonConjugatedSingleBond NonConjugatedSingleBond NonConjugatedSingleBond ConjugatedSingleBond ConjugatedSingleBond NonConjugatedSingleBond NonConjugatedSingleBond NonConjugatedSingleBond NonConjugatedSingleBond ConjugatedDoubleBond NonConjugatedSingleBond NonConjugatedSingleBond NonConjugatedSingleBond NonConjugatedSingleBond NonConjugatedSingleBond ConjugatedDoubleBond ConjugatedDoubleBond
M  BCL CHI  20   R  22   S
M  BCL DBI - - -
M  END
> <ConfClashScore>
0 

> <ConfOneFourInteractionScore>
-0.968935 

> <ConfScore>
-0.248259 

> <ConfScorePBest>
0.0144805 

> <ConfTolerance>
0.521852 

$$$$
L07.****
  PyMOL2.5          3D                             0

 23 22  0  0  0  0  0  0  0  0999 V2000
   15.6125   -5.7080    4.7441 O   0  0  0  1  0  0  0  0  0  0  0  0
   14.0784   -4.7580    2.9973 O   0  0  0  1  0  0  0  0  0  0  0  0
   14.4311   -3.5883    5.2168 O   0  0  0  0  0  0  0  0  0  0  0  0
   14.0040   -5.9571    2.1767 C   0  0  0  1  0  0  0  0  0  0  0  0
   13.0678   -6.4534    2.3249 H   0  0  0  1  0  0  0  0  0  0  0  0
   14.8044   -6.6249    2.4182 H   0  0  0  1  0  0  0  0  0  0  0  0
   18.0837   -4.9002    5.4607 O   0  0  0  0  0  0  0  0  0  0  0  0
   17.2574   -7.4360    5.7360 O   0  5  0  1  0  0  0  0  0  0  0  0
   14.1272   -5.4833    0.7549 C   0  0  0  1  0  0  0  0  0  0  0  0
   14.3138   -6.3430    0.1459 H   0  0  0  1  0  0  0  0  0  0  0  0
   14.9685   -4.8237    0.7090 H   0  0  0  1  0  0  0  0  0  0  0  0
   12.9526   -4.7566    0.1597 C   0  0  0  1  0  0  0  0  0  0  0  0
   11.6940   -5.5715    0.0590 C   0  0  0  1  0  0  0  0  0  0  0  0
   11.8531   -6.3935   -0.6072 H   0  0  0  1  0  0  0  0  0  0  0  0
   10.9011   -4.9580   -0.3150 H   0  0  0  1  0  0  0  0  0  0  0  0
   11.4316   -5.9432    1.0274 H   0  0  0  1  0  0  0  0  0  0  0  0
   12.9983   -3.4941   -0.2521 C   0  0  0  1  0  0  0  0  0  0  0  0
   12.1728   -3.0714   -0.7226 H   0  0  0  1  0  0  0  0  0  0  0  0
   13.8589   -2.9291   -0.1040 H   0  0  0  1  0  0  0  0  0  0  0  0
   16.8227   -5.8787    5.8376 P   0  0  0  1  0  0  0  0  0  0  0  0
   16.3317   -5.6920    7.2213 O   0  0  0  1  0  0  0  0  0  0  0  0
   14.2439   -4.9232    4.5962 P   0  0  0  1  0  0  0  0  0  0  0  0
   13.1095   -5.7641    5.0355 O   0  0  0  1  0  0  0  0  0  0  0  0
  1 20  1  0  0  0  0
  1 22  1  0  0  0  0
  2  4  1  0  0  0  0
  2 22  1  0  0  0  0
  3 22  1  0  0  0  0
  4  5  1  0  0  0  0
  4  6  1  0  0  0  0
  4  9  1  0  0  0  0
  7 20  1  0  0  0  0
  8 20  1  0  0  0  0
  9 10  1  0  0  0  0
  9 11  1  0  0  0  0
  9 12  1  0  0  0  0
 12 13  1  0  0  0  0
 12 17  2  0  0  0  0
 13 14  1  0  0  0  0
 13 15  1  0  0  0  0
 13 16  1  0  0  0  0
 17 18  1  0  0  0  0
 17 19  1  0  0  0  0
 20 21  2  0  0  0  0
 22 23  2  0  0  0  0
M  BCL ATM O_Tr2TrTrPi2 O_Tr2TrTrPi2 O_Te2Te2TeTe C_TeTeTeTe H_S H_S O_Te2Te2TeTe O_Te2Te2Te2Te C_TeTeTeTe H_S H_S C_TrTrTrPi C_TeTeTeTe H_S H_S H_S C_TrTrTrPi H_S H_S P_TeTeTeTePi O_Tr2Tr2TrPi P_TeTeTeTePi O_Tr2Tr2TrPi
M  BCL BND ConjugatedSingleBond ConjugatedSingleBond NonConjugatedSingleBond ConjugatedSingleBond ConjugatedSingleBond NonConjugatedSingleBond NonConjugatedSingleBond NonConjugatedSingleBond ConjugatedSingleBond ConjugatedSingleBond NonConjugatedSingleBond NonConjugatedSingleBond NonConjugatedSingleBond NonConjugatedSingleBond ConjugatedDoubleBond NonConjugatedSingleBond NonConjugatedSingleBond NonConjugatedSingleBond NonConjugatedSingleBond NonConjugatedSingleBond ConjugatedDoubleBond ConjugatedDoubleBond
M  BCL CHI  20   R  22   S
M  BCL DBI - - -
M  END
> <ConfClashScore>
0 

> <ConfOneFourInteractionScore>
-0.977311 

> <ConfScore>
-0.247973 

> <ConfScorePBest>
0.0143775 

> <ConfTolerance>
0.51184 

$$$$
L07.****
  PyMOL2.5          3D                             0

 23 22  0  0  0  0  0  0  0  0999 V2000
   14.7512   -9.7863    0.2913 O   0  0  0  1  0  0  0  0  0  0  0  0
   13.3510   -7.7117    0.3196 O   0  0  0  1  0  0  0  0  0  0  0  0
   12.2348   -9.9564    0.3245 O   0  0  0  0  0  0  0  0  0  0  0  0
   14.4425   -6.7918    0.0587 C   0  0  0  1  0  0  0  0  0  0  0  0
   14.5337   -6.6237   -0.9941 H   0  0  0  1  0  0  0  0  0  0  0  0
   15.3582   -7.1964    0.4364 H   0  0  0  1  0  0  0  0  0  0  0  0
   16.6638  -11.1995   -0.9795 O   0  0  0  0  0  0  0  0  0  0  0  0
   17.0181  -10.0202    1.2813 O   0  5  0  1  0  0  0  0  0  0  0  0
   14.1229   -5.4820    0.7673 C   0  0  0  1  0  0  0  0  0  0  0  0
   14.9820   -4.8465    0.7121 H   0  0  0  1  0  0  0  0  0  0  0  0
   13.9011   -5.6947    1.7922 H   0  0  0  1  0  0  0  0  0  0  0  0
   12.9503   -4.7561    0.1640 C   0  0  0  1  0  0  0  0  0  0  0  0
   11.6970   -5.5733    0.0492 C   0  0  0  1  0  0  0  0  0  0  0  0
   11.8737   -6.4097   -0.5944 H   0  0  0  1  0  0  0  0  0  0  0  0
   10.9136   -4.9691   -0.3586 H   0  0  0  1  0  0  0  0  0  0  0  0
   11.4100   -5.9238    1.0185 H   0  0  0  1  0  0  0  0  0  0  0  0
   12.9958   -3.4919   -0.2426 C   0  0  0  1  0  0  0  0  0  0  0  0
   12.1498   -3.0482   -0.6537 H   0  0  0  1  0  0  0  0  0  0  0  0
   13.8765   -2.9466   -0.1498 H   0  0  0  1  0  0  0  0  0  0  0  0
   16.3251   -9.8149   -0.1686 P   0  0  0  1  0  0  0  0  0  0  0  0
   16.6498   -8.5185   -0.8045 O   0  0  0  1  0  0  0  0  0  0  0  0
   13.3717   -9.1997   -0.2730 P   0  0  0  1  0  0  0  0  0  0  0  0
   13.5079   -9.0816   -1.7429 O   0  0  0  1  0  0  0  0  0  0  0  0
  1 20  1  0  0  0  0
  1 22  1  0  0  0  0
  2  4  1  0  0  0  0
  2 22  1  0  0  0  0
  3 22  1  0  0  0  0
  4  5  1  0  0  0  0
  4  6  1  0  0  0  0
  4  9  1  0  0  0  0
  7 20  1  0  0  0  0
  8 20  1  0  0  0  0
  9 10  1  0  0  0  0
  9 11  1  0  0  0  0
  9 12  1  0  0  0  0
 12 13  1  0  0  0  0
 12 17  2  0  0  0  0
 13 14  1  0  0  0  0
 13 15  1  0  0  0  0
 13 16  1  0  0  0  0
 17 18  1  0  0  0  0
 17 19  1  0  0  0  0
 20 21  2  0  0  0  0
 22 23  2  0  0  0  0
M  BCL ATM O_Tr2TrTrPi2 O_Tr2TrTrPi2 O_Te2Te2TeTe C_TeTeTeTe H_S H_S O_Te2Te2TeTe O_Te2Te2Te2Te C_TeTeTeTe H_S H_S C_TrTrTrPi C_TeTeTeTe H_S H_S H_S C_TrTrTrPi H_S H_S P_TeTeTeTePi O_Tr2Tr2TrPi P_TeTeTeTePi O_Tr2Tr2TrPi
M  BCL BND ConjugatedSingleBond ConjugatedSingleBond NonConjugatedSingleBond ConjugatedSingleBond ConjugatedSingleBond NonConjugatedSingleBond NonConjugatedSingleBond NonConjugatedSingleBond ConjugatedSingleBond ConjugatedSingleBond NonConjugatedSingleBond NonConjugatedSingleBond NonConjugatedSingleBond NonConjugatedSingleBond ConjugatedDoubleBond NonConjugatedSingleBond NonConjugatedSingleBond NonConjugatedSingleBond NonConjugatedSingleBond NonConjugatedSingleBond ConjugatedDoubleBond ConjugatedDoubleBond
M  BCL CHI  20   R  22   S
M  BCL DBI - - -
M  END
> <ConfClashScore>
0 

> <ConfOneFourInteractionScore>
-0.975364 

> <ConfScore>
-0.243718 

> <ConfScorePBest>
0.0142745 

> <ConfTolerance>
0.545899 

$$$$
L07.****
  PyMOL2.5          3D                             0

 23 22  0  0  0  0  0  0  0  0999 V2000
   14.1139   -7.0316   -4.8146 O   0  0  0  1  0  0  0  0  0  0  0  0
   15.0964   -6.7718   -2.5946 O   0  0  0  1  0  0  0  0  0  0  0  0
   16.3720   -8.0993   -4.3625 O   0  0  0  0  0  0  0  0  0  0  0  0
   13.8931   -6.1601   -2.0734 C   0  0  0  1  0  0  0  0  0  0  0  0
   13.1618   -6.9251   -1.9158 H   0  0  0  1  0  0  0  0  0  0  0  0
   13.5269   -5.4588   -2.7939 H   0  0  0  1  0  0  0  0  0  0  0  0
   12.2461   -6.6523   -6.6558 O   0  0  0  0  0  0  0  0  0  0  0  0
   12.9538   -9.0504   -5.6860 O   0  5  0  1  0  0  0  0  0  0  0  0
   14.1217   -5.4352   -0.7680 C   0  0  0  1  0  0  0  0  0  0  0  0
   14.8634   -4.6844   -0.9442 H   0  0  0  1  0  0  0  0  0  0  0  0
   14.4972   -6.1504   -0.0662 H   0  0  0  1  0  0  0  0  0  0  0  0
   12.9378   -4.7580   -0.1311 C   0  0  0  1  0  0  0  0  0  0  0  0
   11.6894   -5.5900   -0.0436 C   0  0  0  1  0  0  0  0  0  0  0  0
   11.8691   -6.4391    0.5823 H   0  0  0  1  0  0  0  0  0  0  0  0
   11.4124   -5.9212   -1.0226 H   0  0  0  1  0  0  0  0  0  0  0  0
   10.8977   -5.0022    0.3719 H   0  0  0  1  0  0  0  0  0  0  0  0
   13.0036   -3.4839    0.2401 C   0  0  0  1  0  0  0  0  0  0  0  0
   12.1656   -3.0161    0.6408 H   0  0  0  1  0  0  0  0  0  0  0  0
   13.8922   -2.9549    0.1302 H   0  0  0  1  0  0  0  0  0  0  0  0
   13.4959   -7.6186   -6.2157 P   0  0  0  1  0  0  0  0  0  0  0  0
   14.5914   -7.8165   -7.1910 O   0  0  0  1  0  0  0  0  0  0  0  0
   15.0229   -7.8644   -3.8014 P   0  0  0  1  0  0  0  0  0  0  0  0
   14.2156   -8.9293   -3.2876 O   0  0  0  1  0  0  0  0  0  0  0  0
  1 20  1  0  0  0  0
  1 22  1  0  0  0  0
  2  4  1  0  0  0  0
  2 22  1  0  0  0  0
  3 22  1  0  0  0  0
  4  5  1  0  0  0  0
  4  6  1  0  0  0  0
  4  9  1  0  0  0  0
  7 20  1  0  0  0  0
  8 20  1  0  0  0  0
  9 10  1  0  0  0  0
  9 11  1  0  0  0  0
  9 12  1  0  0  0  0
 12 13  1  0  0  0  0
 12 17  2  0  0  0  0
 13 14  1  0  0  0  0
 13 15  1  0  0  0  0
 13 16  1  0  0  0  0
 17 18  1  0  0  0  0
 17 19  1  0  0  0  0
 20 21  2  0  0  0  0
 22 23  2  0  0  0  0
M  BCL ATM O_Tr2TrTrPi2 O_Tr2TrTrPi2 O_Te2Te2TeTe C_TeTeTeTe H_S H_S O_Te2Te2TeTe O_Te2Te2Te2Te C_TeTeTeTe H_S H_S C_TrTrTrPi C_TeTeTeTe H_S H_S H_S C_TrTrTrPi H_S H_S P_TeTeTeTePi O_Tr2Tr2TrPi P_TeTeTeTePi O_Tr2Tr2TrPi
M  BCL BND ConjugatedSingleBond ConjugatedSingleBond NonConjugatedSingleBond ConjugatedSingleBond ConjugatedSingleBond NonConjugatedSingleBond NonConjugatedSingleBond NonConjugatedSingleBond ConjugatedSingleBond ConjugatedSingleBond NonConjugatedSingleBond NonConjugatedSingleBond NonConjugatedSingleBond NonConjugatedSingleBond ConjugatedDoubleBond NonConjugatedSingleBond NonConjugatedSingleBond NonConjugatedSingleBond NonConjugatedSingleBond NonConjugatedSingleBond ConjugatedDoubleBond ConjugatedDoubleBond
M  BCL CHI  20   R  22   S
M  BCL DBI - - -
M  END
> <ConfClashScore>
0 

> <ConfOneFourInteractionScore>
-0.98644 

> <ConfScore>
-0.242739 

> <ConfScorePBest>
0.0141715 

> <ConfTolerance>
0.628561 

$$$$
L07.****
  PyMOL2.5          3D                             0

 23 22  0  0  0  0  0  0  0  0999 V2000
   15.5309   -5.7570    4.5982 O   0  0  0  1  0  0  0  0  0  0  0  0
   13.8926   -5.0849    2.9497 O   0  0  0  1  0  0  0  0  0  0  0  0
   13.7662   -4.1638    5.2782 O   0  0  0  0  0  0  0  0  0  0  0  0
   14.1471   -6.1073    1.9579 C   0  0  0  1  0  0  0  0  0  0  0  0
   13.3608   -6.8322    1.9893 H   0  0  0  1  0  0  0  0  0  0  0  0
   15.0807   -6.5833    2.1742 H   0  0  0  1  0  0  0  0  0  0  0  0
   17.9671   -6.4652    4.4904 O   0  0  0  0  0  0  0  0  0  0  0  0
   16.0960   -7.9434    3.2349 O   0  5  0  1  0  0  0  0  0  0  0  0
   14.2079   -5.4948    0.5681 C   0  0  0  1  0  0  0  0  0  0  0  0
   14.4040   -6.2810   -0.1308 H   0  0  0  1  0  0  0  0  0  0  0  0
   15.0152   -4.7928    0.5518 H   0  0  0  1  0  0  0  0  0  0  0  0
   12.9607   -4.7786    0.1235 C   0  0  0  1  0  0  0  0  0  0  0  0
   11.6906   -5.5776    0.0405 C   0  0  0  1  0  0  0  0  0  0  0  0
   11.8866   -6.5105   -0.4455 H   0  0  0  1  0  0  0  0  0  0  0  0
   10.9613   -5.0304   -0.5194 H   0  0  0  1  0  0  0  0  0  0  0  0
   11.3196   -5.7609    1.0272 H   0  0  0  1  0  0  0  0  0  0  0  0
   12.9822   -3.4863   -0.1844 C   0  0  0  1  0  0  0  0  0  0  0  0
   12.1115   -3.0135   -0.5004 H   0  0  0  1  0  0  0  0  0  0  0  0
   13.8690   -2.9481   -0.1095 H   0  0  0  1  0  0  0  0  0  0  0  0
   16.4605   -7.1079    4.5741 P   0  0  0  1  0  0  0  0  0  0  0  0
   16.3647   -7.7907    5.8837 O   0  0  0  1  0  0  0  0  0  0  0  0
   14.0148   -5.4654    4.4764 P   0  0  0  1  0  0  0  0  0  0  0  0
   13.2057   -6.6380    4.8531 O   0  0  0  1  0  0  0  0  0  0  0  0
  1 20  1  0  0  0  0
  1 22  1  0  0  0  0
  2  4  1  0  0  0  0
  2 22  1  0  0  0  0
  3 22  1  0  0  0  0
  4  5  1  0  0  0  0
  4  6  1  0  0  0  0
  4  9  1  0  0  0  0
  7 20  1  0  0  0  0
  8 20  1  0  0  0  0
  9 10  1  0  0  0  0
  9 11  1  0  0  0  0
  9 12  1  0  0  0  0
 12 13  1  0  0  0  0
 12 17  2  0  0  0  0
 13 14  1  0  0  0  0
 13 15  1  0  0  0  0
 13 16  1  0  0  0  0
 17 18  1  0  0  0  0
 17 19  1  0  0  0  0
 20 21  2  0  0  0  0
 22 23  2  0  0  0  0
M  BCL ATM O_Tr2TrTrPi2 O_Tr2TrTrPi2 O_Te2Te2TeTe C_TeTeTeTe H_S H_S O_Te2Te2TeTe O_Te2Te2Te2Te C_TeTeTeTe H_S H_S C_TrTrTrPi C_TeTeTeTe H_S H_S H_S C_TrTrTrPi H_S H_S P_TeTeTeTePi O_Tr2Tr2TrPi P_TeTeTeTePi O_Tr2Tr2TrPi
M  BCL BND ConjugatedSingleBond ConjugatedSingleBond NonConjugatedSingleBond ConjugatedSingleBond ConjugatedSingleBond NonConjugatedSingleBond NonConjugatedSingleBond NonConjugatedSingleBond ConjugatedSingleBond ConjugatedSingleBond NonConjugatedSingleBond NonConjugatedSingleBond NonConjugatedSingleBond NonConjugatedSingleBond ConjugatedDoubleBond NonConjugatedSingleBond NonConjugatedSingleBond NonConjugatedSingleBond NonConjugatedSingleBond NonConjugatedSingleBond ConjugatedDoubleBond ConjugatedDoubleBond
M  BCL CHI  20   R  22   S
M  BCL DBI - - -
M  END
> <ConfClashScore>
0 

> <ConfOneFourInteractionScore>
-0.992869 

> <ConfScore>
-0.242534 

> <ConfScorePBest>
0.0140685 

> <ConfTolerance>
0.606844 

$$$$
L07.****
  PyMOL2.5          3D                             0

 23 22  0  0  0  0  0  0  0  0999 V2000
   11.4499   -7.0280    4.0687 O   0  0  0  1  0  0  0  0  0  0  0  0
   11.7069   -4.7337    3.0755 O   0  0  0  1  0  0  0  0  0  0  0  0
   12.9989   -5.4376    5.1401 O   0  0  0  0  0  0  0  0  0  0  0  0
   10.5688   -4.5358    2.2040 C   0  0  0  1  0  0  0  0  0  0  0  0
    9.8020   -3.9989    2.7223 H   0  0  0  1  0  0  0  0  0  0  0  0
   10.1872   -5.4823    1.8825 H   0  0  0  1  0  0  0  0  0  0  0  0
   10.6076   -9.1776    2.8376 O   0  0  0  0  0  0  0  0  0  0  0  0
    8.9583   -7.2125    3.1382 O   0  5  0  1  0  0  0  0  0  0  0  0
   11.0413   -3.7332    1.0029 C   0  0  0  1  0  0  0  0  0  0  0  0
   11.3356   -2.7642    1.3485 H   0  0  0  1  0  0  0  0  0  0  0  0
   10.2182   -3.6363    0.3262 H   0  0  0  1  0  0  0  0  0  0  0  0
   12.1983   -4.3269    0.2448 C   0  0  0  1  0  0  0  0  0  0  0  0
   12.0389   -5.7783   -0.1110 C   0  0  0  1  0  0  0  0  0  0  0  0
   12.9791   -6.1716   -0.4369 H   0  0  0  1  0  0  0  0  0  0  0  0
   11.3200   -5.8755   -0.8976 H   0  0  0  1  0  0  0  0  0  0  0  0
   11.7040   -6.3212    0.7481 H   0  0  0  1  0  0  0  0  0  0  0  0
   13.2858   -3.6432   -0.0950 C   0  0  0  1  0  0  0  0  0  0  0  0
   13.4095   -2.6658    0.2381 H   0  0  0  1  0  0  0  0  0  0  0  0
   14.0126   -4.0850   -0.6934 H   0  0  0  1  0  0  0  0  0  0  0  0
   10.1483   -8.0104    3.8941 P   0  0  0  1  0  0  0  0  0  0  0  0
    9.6302   -8.5257    5.1812 O   0  0  0  1  0  0  0  0  0  0  0  0
   11.6711   -5.4975    4.5033 P   0  0  0  1  0  0  0  0  0  0  0  0
   10.4709   -4.9636    5.1651 O   0  0  0  1  0  0  0  0  0  0  0  0
  1 20  1  0  0  0  0
  1 22  1  0  0  0  0
  2  4  1  0  0  0  0
  2 22  1  0  0  0  0
  3 22  1  0  0  0  0
  4  5  1  0  0  0  0
  4  6  1  0  0  0  0
  4  9  1  0  0  0  0
  7 20  1  0  0  0  0
  8 20  1  0  0  0  0
  9 10  1  0  0  0  0
  9 11  1  0  0  0  0
  9 12  1  0  0  0  0
 12 13  1  0  0  0  0
 12 17  2  0  0  0  0
 13 14  1  0  0  0  0
 13 15  1  0  0  0  0
 13 16  1  0  0  0  0
 17 18  1  0  0  0  0
 17 19  1  0  0  0  0
 20 21  2  0  0  0  0
 22 23  2  0  0  0  0
M  BCL ATM O_Tr2TrTrPi2 O_Tr2TrTrPi2 O_Te2Te2TeTe C_TeTeTeTe H_S H_S O_Te2Te2TeTe O_Te2Te2Te2Te C_TeTeTeTe H_S H_S C_TrTrTrPi C_TeTeTeTe H_S H_S H_S C_TrTrTrPi H_S H_S P_TeTeTeTePi O_Tr2Tr2TrPi P_TeTeTeTePi O_Tr2Tr2TrPi
M  BCL BND ConjugatedSingleBond ConjugatedSingleBond NonConjugatedSingleBond ConjugatedSingleBond ConjugatedSingleBond NonConjugatedSingleBond NonConjugatedSingleBond NonConjugatedSingleBond ConjugatedSingleBond ConjugatedSingleBond NonConjugatedSingleBond NonConjugatedSingleBond NonConjugatedSingleBond NonConjugatedSingleBond ConjugatedDoubleBond NonConjugatedSingleBond NonConjugatedSingleBond NonConjugatedSingleBond NonConjugatedSingleBond NonConjugatedSingleBond ConjugatedDoubleBond ConjugatedDoubleBond
M  BCL CHI  20   R  22   S
M  BCL DBI - - -
M  END
> <ConfClashScore>
0 

> <ConfOneFourInteractionScore>
-0.992869 

> <ConfScore>
-0.238894 

> <ConfScorePBest>
0.0139655 

> <ConfTolerance>
0.513759 

$$$$
L07.****
  PyMOL2.5          3D                             0

 23 22  0  0  0  0  0  0  0  0999 V2000
   12.6373   -8.4461   -4.0186 O   0  0  0  1  0  0  0  0  0  0  0  0
   12.4888   -7.0273   -2.0395 O   0  0  0  1  0  0  0  0  0  0  0  0
   10.5543   -8.4790   -2.5168 O   0  0  0  0  0  0  0  0  0  0  0  0
   13.4600   -6.0007   -2.3692 C   0  0  0  1  0  0  0  0  0  0  0  0
   12.9943   -5.2312   -2.9487 H   0  0  0  1  0  0  0  0  0  0  0  0
   14.2673   -6.4283   -2.9263 H   0  0  0  1  0  0  0  0  0  0  0  0
   13.9017  -10.4011   -5.3070 O   0  0  0  0  0  0  0  0  0  0  0  0
   11.3888   -9.8762   -5.9096 O   0  5  0  1  0  0  0  0  0  0  0  0
   13.9822   -5.4209   -1.0612 C   0  0  0  1  0  0  0  0  0  0  0  0
   14.7474   -4.7077   -1.2863 H   0  0  0  1  0  0  0  0  0  0  0  0
   14.3959   -6.2163   -0.4772 H   0  0  0  1  0  0  0  0  0  0  0  0
   12.9144   -4.7380   -0.2516 C   0  0  0  1  0  0  0  0  0  0  0  0
   11.7252   -5.5975    0.0735 C   0  0  0  1  0  0  0  0  0  0  0  0
   12.0570   -6.5153    0.5122 H   0  0  0  1  0  0  0  0  0  0  0  0
   11.1812   -5.8074   -0.8237 H   0  0  0  1  0  0  0  0  0  0  0  0
   11.0906   -5.0816    0.7635 H   0  0  0  1  0  0  0  0  0  0  0  0
   12.9924   -3.4759    0.1562 C   0  0  0  1  0  0  0  0  0  0  0  0
   13.7709   -2.8708   -0.1744 H   0  0  0  1  0  0  0  0  0  0  0  0
   12.2756   -3.0934    0.8054 H   0  0  0  1  0  0  0  0  0  0  0  0
   12.4561   -9.9304   -4.6921 P   0  0  0  1  0  0  0  0  0  0  0  0
   12.1311  -10.9833   -3.7041 O   0  0  0  1  0  0  0  0  0  0  0  0
   11.5470   -7.5938   -3.2029 P   0  0  0  1  0  0  0  0  0  0  0  0
   10.9747   -6.5095   -4.0500 O   0  0  0  1  0  0  0  0  0  0  0  0
  1 20  1  0  0  0  0
  1 22  1  0  0  0  0
  2  4  1  0  0  0  0
  2 22  1  0  0  0  0
  3 22  1  0  0  0  0
  4  5  1  0  0  0  0
  4  6  1  0  0  0  0
  4  9  1  0  0  0  0
  7 20  1  0  0  0  0
  8 20  1  0  0  0  0
  9 10  1  0  0  0  0
  9 11  1  0  0  0  0
  9 12  1  0  0  0  0
 12 13  1  0  0  0  0
 12 17  2  0  0  0  0
 13 14  1  0  0  0  0
 13 15  1  0  0  0  0
 13 16  1  0  0  0  0
 17 18  1  0  0  0  0
 17 19  1  0  0  0  0
 20 21  2  0  0  0  0
 22 23  2  0  0  0  0
M  BCL ATM O_Tr2TrTrPi2 O_Tr2TrTrPi2 O_Te2Te2TeTe C_TeTeTeTe H_S H_S O_Te2Te2TeTe O_Te2Te2Te2Te C_TeTeTeTe H_S H_S C_TrTrTrPi C_TeTeTeTe H_S H_S H_S C_TrTrTrPi H_S H_S P_TeTeTeTePi O_Tr2Tr2TrPi P_TeTeTeTePi O_Tr2Tr2TrPi
M  BCL BND ConjugatedSingleBond ConjugatedSingleBond NonConjugatedSingleBond ConjugatedSingleBond ConjugatedSingleBond NonConjugatedSingleBond NonConjugatedSingleBond NonConjugatedSingleBond ConjugatedSingleBond ConjugatedSingleBond NonConjugatedSingleBond NonConjugatedSingleBond NonConjugatedSingleBond NonConjugatedSingleBond ConjugatedDoubleBond NonConjugatedSingleBond NonConjugatedSingleBond NonConjugatedSingleBond NonConjugatedSingleBond NonConjugatedSingleBond ConjugatedDoubleBond ConjugatedDoubleBond
M  BCL CHI  20   R  22   S
M  BCL DBI - - -
M  END
> <ConfClashScore>
0 

> <ConfOneFourInteractionScore>
-0.968935 

> <ConfScore>
-0.237239 

> <ConfScorePBest>
0.0138625 

> <ConfTolerance>
0.557436 

$$$$
L07.****
  PyMOL2.5          3D                             0

 23 22  0  0  0  0  0  0  0  0999 V2000
   10.9565   -5.8758   -4.4461 O   0  0  0  1  0  0  0  0  0  0  0  0
   10.2842   -5.3827   -2.0214 O   0  0  0  1  0  0  0  0  0  0  0  0
    9.5114   -7.4768   -3.0554 O   0  0  0  0  0  0  0  0  0  0  0  0
   10.4207   -3.9435   -1.9067 C   0  0  0  1  0  0  0  0  0  0  0  0
    9.4850   -3.4705   -2.1207 H   0  0  0  1  0  0  0  0  0  0  0  0
   11.1635   -3.5921   -2.5921 H   0  0  0  1  0  0  0  0  0  0  0  0
   12.6833   -5.7981   -6.4850 O   0  0  0  0  0  0  0  0  0  0  0  0
   10.4387   -6.9942   -6.6881 O   0  5  0  1  0  0  0  0  0  0  0  0
   10.8447   -3.6316   -0.4775 C   0  0  0  1  0  0  0  0  0  0  0  0
   10.0757   -3.9669    0.1867 H   0  0  0  1  0  0  0  0  0  0  0  0
   10.9634   -2.5726   -0.3808 H   0  0  0  1  0  0  0  0  0  0  0  0
   12.1378   -4.2963   -0.0877 C   0  0  0  1  0  0  0  0  0  0  0  0
   12.0704   -5.7911    0.0521 C   0  0  0  1  0  0  0  0  0  0  0  0
   13.0519   -6.1777    0.2308 H   0  0  0  1  0  0  0  0  0  0  0  0
   11.6784   -6.2159   -0.8483 H   0  0  0  1  0  0  0  0  0  0  0  0
   11.4328   -6.0438    0.8734 H   0  0  0  1  0  0  0  0  0  0  0  0
   13.2907   -3.6501    0.0499 C   0  0  0  1  0  0  0  0  0  0  0  0
   13.3231   -2.6168   -0.0626 H   0  0  0  1  0  0  0  0  0  0  0  0
   14.1598   -4.1773    0.2698 H   0  0  0  1  0  0  0  0  0  0  0  0
   11.6526   -6.7557   -5.6422 P   0  0  0  1  0  0  0  0  0  0  0  0
   12.2016   -8.0312   -5.1303 O   0  0  0  1  0  0  0  0  0  0  0  0
    9.7363   -6.0572   -3.3847 P   0  0  0  1  0  0  0  0  0  0  0  0
    8.6573   -5.2789   -3.9645 O   0  0  0  1  0  0  0  0  0  0  0  0
  1 20  1  0  0  0  0
  1 22  1  0  0  0  0
  2  4  1  0  0  0  0
  2 22  1  0  0  0  0
  3 22  1  0  0  0  0
  4  5  1  0  0  0  0
  4  6  1  0  0  0  0
  4  9  1  0  0  0  0
  7 20  1  0  0  0  0
  8 20  1  0  0  0  0
  9 10  1  0  0  0  0
  9 11  1  0  0  0  0
  9 12  1  0  0  0  0
 12 13  1  0  0  0  0
 12 17  2  0  0  0  0
 13 14  1  0  0  0  0
 13 15  1  0  0  0  0
 13 16  1  0  0  0  0
 17 18  1  0  0  0  0
 17 19  1  0  0  0  0
 20 21  2  0  0  0  0
 22 23  2  0  0  0  0
M  BCL ATM O_Tr2TrTrPi2 O_Tr2TrTrPi2 O_Te2Te2TeTe C_TeTeTeTe H_S H_S O_Te2Te2TeTe O_Te2Te2Te2Te C_TeTeTeTe H_S H_S C_TrTrTrPi C_TeTeTeTe H_S H_S H_S C_TrTrTrPi H_S H_S P_TeTeTeTePi O_Tr2Tr2TrPi P_TeTeTeTePi O_Tr2Tr2TrPi
M  BCL BND ConjugatedSingleBond ConjugatedSingleBond NonConjugatedSingleBond ConjugatedSingleBond ConjugatedSingleBond NonConjugatedSingleBond NonConjugatedSingleBond NonConjugatedSingleBond ConjugatedSingleBond ConjugatedSingleBond NonConjugatedSingleBond NonConjugatedSingleBond NonConjugatedSingleBond NonConjugatedSingleBond ConjugatedDoubleBond NonConjugatedSingleBond NonConjugatedSingleBond NonConjugatedSingleBond NonConjugatedSingleBond NonConjugatedSingleBond ConjugatedDoubleBond ConjugatedDoubleBond
M  BCL CHI  20   R  22   S
M  BCL DBI - - -
M  END
> <ConfClashScore>
0 

> <ConfOneFourInteractionScore>
-0.98644 

> <ConfScore>
-0.236256 

> <ConfScorePBest>
0.0137595 

> <ConfTolerance>
0.554257 

$$$$
L07.****
  PyMOL2.5          3D                             0

 23 22  0  0  0  0  0  0  0  0999 V2000
    6.6205   -3.7346   -0.5252 O   0  0  0  1  0  0  0  0  0  0  0  0
    8.7659   -2.8682    0.5416 O   0  0  0  1  0  0  0  0  0  0  0  0
    6.5709   -1.6186    0.7069 O   0  0  0  0  0  0  0  0  0  0  0  0
    9.8083   -3.6141   -0.1298 C   0  0  0  1  0  0  0  0  0  0  0  0
   10.0676   -3.1314   -1.0489 H   0  0  0  1  0  0  0  0  0  0  0  0
    9.4719   -4.6096   -0.3316 H   0  0  0  1  0  0  0  0  0  0  0  0
    4.7637   -4.1141    1.2294 O   0  0  0  0  0  0  0  0  0  0  0  0
    4.8949   -5.7659   -0.8335 O   0  5  0  1  0  0  0  0  0  0  0  0
   11.0180   -3.6529    0.7949 C   0  0  0  1  0  0  0  0  0  0  0  0
   10.7472   -4.1759    1.6882 H   0  0  0  1  0  0  0  0  0  0  0  0
   11.2926   -2.6479    1.0387 H   0  0  0  1  0  0  0  0  0  0  0  0
   12.2084   -4.3391    0.1801 C   0  0  0  1  0  0  0  0  0  0  0  0
   12.0315   -5.8053   -0.0846 C   0  0  0  1  0  0  0  0  0  0  0  0
   12.9711   -6.2335   -0.3652 H   0  0  0  1  0  0  0  0  0  0  0  0
   11.3265   -5.9417   -0.8779 H   0  0  0  1  0  0  0  0  0  0  0  0
   11.6707   -6.2862    0.8005 H   0  0  0  1  0  0  0  0  0  0  0  0
   13.3026   -3.6320   -0.0812 C   0  0  0  1  0  0  0  0  0  0  0  0
   13.3301   -2.6167    0.1426 H   0  0  0  1  0  0  0  0  0  0  0  0
   14.1306   -4.0933   -0.5092 H   0  0  0  1  0  0  0  0  0  0  0  0
    5.0606   -4.2195   -0.3801 P   0  0  0  1  0  0  0  0  0  0  0  0
    4.3148   -3.1987   -1.1496 O   0  0  0  1  0  0  0  0  0  0  0  0
    7.4583   -2.4423   -0.2232 P   0  0  0  1  0  0  0  0  0  0  0  0
    7.8836   -1.7153   -1.4537 O   0  0  0  1  0  0  0  0  0  0  0  0
  1 20  1  0  0  0  0
  1 22  1  0  0  0  0
  2  4  1  0  0  0  0
  2 22  1  0  0  0  0
  3 22  1  0  0  0  0
  4  5  1  0  0  0  0
  4  6  1  0  0  0  0
  4  9  1  0  0  0  0
  7 20  1  0  0  0  0
  8 20  1  0  0  0  0
  9 10  1  0  0  0  0
  9 11  1  0  0  0  0
  9 12  1  0  0  0  0
 12 13  1  0  0  0  0
 12 17  2  0  0  0  0
 13 14  1  0  0  0  0
 13 15  1  0  0  0  0
 13 16  1  0  0  0  0
 17 18  1  0  0  0  0
 17 19  1  0  0  0  0
 20 21  2  0  0  0  0
 22 23  2  0  0  0  0
M  BCL ATM O_Tr2TrTrPi2 O_Tr2TrTrPi2 O_Te2Te2TeTe C_TeTeTeTe H_S H_S O_Te2Te2TeTe O_Te2Te2Te2Te C_TeTeTeTe H_S H_S C_TrTrTrPi C_TeTeTeTe H_S H_S H_S C_TrTrTrPi H_S H_S P_TeTeTeTePi O_Tr2Tr2TrPi P_TeTeTeTePi O_Tr2Tr2TrPi
M  BCL BND ConjugatedSingleBond ConjugatedSingleBond NonConjugatedSingleBond ConjugatedSingleBond ConjugatedSingleBond NonConjugatedSingleBond NonConjugatedSingleBond NonConjugatedSingleBond ConjugatedSingleBond ConjugatedSingleBond NonConjugatedSingleBond NonConjugatedSingleBond NonConjugatedSingleBond NonConjugatedSingleBond ConjugatedDoubleBond NonConjugatedSingleBond NonConjugatedSingleBond NonConjugatedSingleBond NonConjugatedSingleBond NonConjugatedSingleBond ConjugatedDoubleBond ConjugatedDoubleBond
M  BCL CHI  20   R  22   S
M  BCL DBI - - -
M  END
> <ConfClashScore>
0 

> <ConfOneFourInteractionScore>
-0.98644 

> <ConfScore>
-0.233947 

> <ConfScorePBest>
0.0136565 

> <ConfTolerance>
0.551122 

$$$$
L07.****
  PyMOL2.5          3D                             0

 23 22  0  0  0  0  0  0  0  0999 V2000
   15.7768   -6.6517   -4.7797 O   0  0  0  1  0  0  0  0  0  0  0  0
   15.2683   -6.8925   -2.3241 O   0  0  0  1  0  0  0  0  0  0  0  0
   16.7225   -8.5538   -3.6262 O   0  0  0  0  0  0  0  0  0  0  0  0
   14.0976   -6.0942   -2.0155 C   0  0  0  1  0  0  0  0  0  0  0  0
   13.2219   -6.7017   -2.1107 H   0  0  0  1  0  0  0  0  0  0  0  0
   14.0396   -5.2743   -2.7005 H   0  0  0  1  0  0  0  0  0  0  0  0
   15.7383   -4.6362   -6.5328 O   0  0  0  0  0  0  0  0  0  0  0  0
   15.1406   -4.2200   -4.0119 O   0  5  0  1  0  0  0  0  0  0  0  0
   14.1815   -5.5559   -0.5966 C   0  0  0  1  0  0  0  0  0  0  0  0
   15.0357   -4.9144   -0.5369 H   0  0  0  1  0  0  0  0  0  0  0  0
   14.3121   -6.3870    0.0646 H   0  0  0  1  0  0  0  0  0  0  0  0
   12.9814   -4.7759   -0.1304 C   0  0  0  1  0  0  0  0  0  0  0  0
   11.7034   -5.5622   -0.0480 C   0  0  0  1  0  0  0  0  0  0  0  0
   11.8800   -6.4768    0.4786 H   0  0  0  1  0  0  0  0  0  0  0  0
   11.3553   -5.7812   -1.0358 H   0  0  0  1  0  0  0  0  0  0  0  0
   10.9648   -4.9885    0.4720 H   0  0  0  1  0  0  0  0  0  0  0  0
   12.9760   -3.4890    0.2004 C   0  0  0  1  0  0  0  0  0  0  0  0
   12.1055   -3.0497    0.5621 H   0  0  0  1  0  0  0  0  0  0  0  0
   13.8415   -2.9216    0.0977 H   0  0  0  1  0  0  0  0  0  0  0  0
   14.9900   -5.2833   -5.2247 P   0  0  0  1  0  0  0  0  0  0  0  0
   13.5510   -5.5564   -5.4369 O   0  0  0  1  0  0  0  0  0  0  0  0
   15.4756   -7.7574   -3.6603 P   0  0  0  1  0  0  0  0  0  0  0  0
   14.1722   -8.4052   -3.8729 O   0  0  0  1  0  0  0  0  0  0  0  0
  1 20  1  0  0  0  0
  1 22  1  0  0  0  0
  2  4  1  0  0  0  0
  2 22  1  0  0  0  0
  3 22  1  0  0  0  0
  4  5  1  0  0  0  0
  4  6  1  0  0  0  0
  4  9  1  0  0  0  0
  7 20  1  0  0  0  0
  8 20  1  0  0  0  0
  9 10  1  0  0  0  0
  9 11  1  0  0  0  0
  9 12  1  0  0  0  0
 12 13  1  0  0  0  0
 12 17  2  0  0  0  0
 13 14  1  0  0  0  0
 13 15  1  0  0  0  0
 13 16  1  0  0  0  0
 17 18  1  0  0  0  0
 17 19  1  0  0  0  0
 20 21  2  0  0  0  0
 22 23  2  0  0  0  0
M  BCL ATM O_Tr2TrTrPi2 O_Tr2TrTrPi2 O_Te2Te2TeTe C_TeTeTeTe H_S H_S O_Te2Te2TeTe O_Te2Te2Te2Te C_TeTeTeTe H_S H_S C_TrTrTrPi C_TeTeTeTe H_S H_S H_S C_TrTrTrPi H_S H_S P_TeTeTeTePi O_Tr2Tr2TrPi P_TeTeTeTePi O_Tr2Tr2TrPi
M  BCL BND ConjugatedSingleBond ConjugatedSingleBond NonConjugatedSingleBond ConjugatedSingleBond ConjugatedSingleBond NonConjugatedSingleBond NonConjugatedSingleBond NonConjugatedSingleBond ConjugatedSingleBond ConjugatedSingleBond NonConjugatedSingleBond NonConjugatedSingleBond NonConjugatedSingleBond NonConjugatedSingleBond ConjugatedDoubleBond NonConjugatedSingleBond NonConjugatedSingleBond NonConjugatedSingleBond NonConjugatedSingleBond NonConjugatedSingleBond ConjugatedDoubleBond ConjugatedDoubleBond
M  BCL CHI  20   R  22   S
M  BCL DBI - - -
M  END
> <ConfClashScore>
0 

> <ConfOneFourInteractionScore>
-0.992869 

> <ConfScore>
-0.233235 

> <ConfScorePBest>
0.0135535 

> <ConfTolerance>
0.656558 

$$$$
L07.****
  PyMOL2.5          3D                             0

 23 22  0  0  0  0  0  0  0  0999 V2000
   16.5513   -7.1718    3.5846 O   0  0  0  1  0  0  0  0  0  0  0  0
   15.7592   -7.0475    1.1492 O   0  0  0  1  0  0  0  0  0  0  0  0
   15.3075   -9.1054    2.4306 O   0  0  0  0  0  0  0  0  0  0  0  0
   14.5023   -6.3497    1.3208 C   0  0  0  1  0  0  0  0  0  0  0  0
   14.5536   -5.7120    2.1784 H   0  0  0  1  0  0  0  0  0  0  0  0
   13.7080   -7.0555    1.4475 H   0  0  0  1  0  0  0  0  0  0  0  0
   15.5862   -7.7344    5.9603 O   0  0  0  0  0  0  0  0  0  0  0  0
   17.6743   -6.1869    5.6619 O   0  5  0  1  0  0  0  0  0  0  0  0
   14.2630   -5.5236    0.0789 C   0  0  0  1  0  0  0  0  0  0  0  0
   14.3156   -6.1849   -0.7606 H   0  0  0  1  0  0  0  0  0  0  0  0
   15.0521   -4.8036    0.0164 H   0  0  0  1  0  0  0  0  0  0  0  0
   12.9611   -4.7744   -0.0187 C   0  0  0  1  0  0  0  0  0  0  0  0
   11.6948   -5.6046    0.0024 C   0  0  0  1  0  0  0  0  0  0  0  0
   10.8432   -4.9585   -0.0445 H   0  0  0  1  0  0  0  0  0  0  0  0
   11.6588   -6.1768    0.9058 H   0  0  0  1  0  0  0  0  0  0  0  0
   11.6877   -6.2652   -0.8393 H   0  0  0  1  0  0  0  0  0  0  0  0
   12.9607   -3.4457   -0.0262 C   0  0  0  1  0  0  0  0  0  0  0  0
   12.0595   -2.9270   -0.0471 H   0  0  0  1  0  0  0  0  0  0  0  0
   13.8608   -2.9249   -0.0112 H   0  0  0  1  0  0  0  0  0  0  0  0
   16.9830   -7.5485    5.1212 P   0  0  0  1  0  0  0  0  0  0  0  0
   17.9263   -8.6715    5.3196 O   0  0  0  1  0  0  0  0  0  0  0  0
   16.3568   -8.0750    2.2449 P   0  0  0  1  0  0  0  0  0  0  0  0
   17.7074   -8.4840    1.9066 O   0  0  0  1  0  0  0  0  0  0  0  0
  1 20  1  0  0  0  0
  1 22  1  0  0  0  0
  2  4  1  0  0  0  0
  2 22  1  0  0  0  0
  3 22  1  0  0  0  0
  4  5  1  0  0  0  0
  4  6  1  0  0  0  0
  4  9  1  0  0  0  0
  7 20  1  0  0  0  0
  8 20  1  0  0  0  0
  9 10  1  0  0  0  0
  9 11  1  0  0  0  0
  9 12  1  0  0  0  0
 12 13  1  0  0  0  0
 12 17  2  0  0  0  0
 13 14  1  0  0  0  0
 13 15  1  0  0  0  0
 13 16  1  0  0  0  0
 17 18  1  0  0  0  0
 17 19  1  0  0  0  0
 20 21  2  0  0  0  0
 22 23  2  0  0  0  0
M  BCL ATM O_Tr2TrTrPi2 O_Tr2TrTrPi2 O_Te2Te2TeTe C_TeTeTeTe H_S H_S O_Te2Te2TeTe O_Te2Te2Te2Te C_TeTeTeTe H_S H_S C_TrTrTrPi C_TeTeTeTe H_S H_S H_S C_TrTrTrPi H_S H_S P_TeTeTeTePi O_Tr2Tr2TrPi P_TeTeTeTePi O_Tr2Tr2TrPi
M  BCL BND ConjugatedSingleBond ConjugatedSingleBond NonConjugatedSingleBond ConjugatedSingleBond ConjugatedSingleBond NonConjugatedSingleBond NonConjugatedSingleBond NonConjugatedSingleBond ConjugatedSingleBond ConjugatedSingleBond NonConjugatedSingleBond NonConjugatedSingleBond NonConjugatedSingleBond NonConjugatedSingleBond ConjugatedDoubleBond NonConjugatedSingleBond NonConjugatedSingleBond NonConjugatedSingleBond NonConjugatedSingleBond NonConjugatedSingleBond ConjugatedDoubleBond ConjugatedDoubleBond
M  BCL CHI  20   R  22   S
M  BCL DBI - - -
M  END
> <ConfClashScore>
0 

> <ConfOneFourInteractionScore>
-0.98644 

> <ConfScore>
-0.222475 

> <ConfScorePBest>
0.0134505 

> <ConfTolerance>
0.509131 

$$$$
L07.****
  PyMOL2.5          3D                             0

 23 22  0  0  0  0  0  0  0  0999 V2000
   17.1089   -8.8864    2.4003 O   0  0  0  1  0  0  0  0  0  0  0  0
   15.4429   -7.1304    1.6368 O   0  0  0  1  0  0  0  0  0  0  0  0
   15.6827   -7.5970    4.0371 O   0  0  0  0  0  0  0  0  0  0  0  0
   14.1886   -6.4149    1.5444 C   0  0  0  1  0  0  0  0  0  0  0  0
   14.0676   -5.7800    2.3972 H   0  0  0  1  0  0  0  0  0  0  0  0
   13.3757   -7.1091    1.4977 H   0  0  0  1  0  0  0  0  0  0  0  0
   17.1194   -9.5733   -0.1902 O   0  0  0  0  0  0  0  0  0  0  0  0
   16.9738  -11.4212    1.5729 O   0  5  0  1  0  0  0  0  0  0  0  0
   14.2275   -5.5755    0.2741 C   0  0  0  1  0  0  0  0  0  0  0  0
   14.3623   -6.2293   -0.5621 H   0  0  0  1  0  0  0  0  0  0  0  0
   15.0555   -4.9007    0.3370 H   0  0  0  1  0  0  0  0  0  0  0  0
   12.9727   -4.7749    0.0584 C   0  0  0  1  0  0  0  0  0  0  0  0
   11.7081   -5.5857    0.0191 C   0  0  0  1  0  0  0  0  0  0  0  0
   10.8840   -4.9503   -0.2301 H   0  0  0  1  0  0  0  0  0  0  0  0
   11.5390   -6.0290    0.9782 H   0  0  0  1  0  0  0  0  0  0  0  0
   11.8008   -6.3551   -0.7186 H   0  0  0  1  0  0  0  0  0  0  0  0
   12.9569   -3.4544   -0.0886 C   0  0  0  1  0  0  0  0  0  0  0  0
   12.0612   -2.9651   -0.2885 H   0  0  0  1  0  0  0  0  0  0  0  0
   13.8394   -2.9106   -0.0039 H   0  0  0  1  0  0  0  0  0  0  0  0
   17.6576   -9.9772    1.3054 P   0  0  0  1  0  0  0  0  0  0  0  0
   19.1316  -10.0983    1.2495 O   0  0  0  1  0  0  0  0  0  0  0  0
   15.6986   -8.2856    2.6691 P   0  0  0  1  0  0  0  0  0  0  0  0
   14.7133   -9.3853    2.5475 O   0  0  0  1  0  0  0  0  0  0  0  0
  1 20  1  0  0  0  0
  1 22  1  0  0  0  0
  2  4  1  0  0  0  0
  2 22  1  0  0  0  0
  3 22  1  0  0  0  0
  4  5  1  0  0  0  0
  4  6  1  0  0  0  0
  4  9  1  0  0  0  0
  7 20  1  0  0  0  0
  8 20  1  0  0  0  0
  9 10  1  0  0  0  0
  9 11  1  0  0  0  0
  9 12  1  0  0  0  0
 12 13  1  0  0  0  0
 12 17  2  0  0  0  0
 13 14  1  0  0  0  0
 13 15  1  0  0  0  0
 13 16  1  0  0  0  0
 17 18  1  0  0  0  0
 17 19  1  0  0  0  0
 20 21  2  0  0  0  0
 22 23  2  0  0  0  0
M  BCL ATM O_Tr2TrTrPi2 O_Tr2TrTrPi2 O_Te2Te2TeTe C_TeTeTeTe H_S H_S O_Te2Te2TeTe O_Te2Te2Te2Te C_TeTeTeTe H_S H_S C_TrTrTrPi C_TeTeTeTe H_S H_S H_S C_TrTrTrPi H_S H_S P_TeTeTeTePi O_Tr2Tr2TrPi P_TeTeTeTePi O_Tr2Tr2TrPi
M  BCL BND ConjugatedSingleBond ConjugatedSingleBond NonConjugatedSingleBond ConjugatedSingleBond ConjugatedSingleBond NonConjugatedSingleBond NonConjugatedSingleBond NonConjugatedSingleBond ConjugatedSingleBond ConjugatedSingleBond NonConjugatedSingleBond NonConjugatedSingleBond NonConjugatedSingleBond NonConjugatedSingleBond ConjugatedDoubleBond NonConjugatedSingleBond NonConjugatedSingleBond NonConjugatedSingleBond NonConjugatedSingleBond NonConjugatedSingleBond ConjugatedDoubleBond ConjugatedDoubleBond
M  BCL CHI  20   R  22   S
M  BCL DBI - - -
M  END
> <ConfClashScore>
0 

> <ConfOneFourInteractionScore>
-0.975364 

> <ConfScore>
-0.219197 

> <ConfScorePBest>
0.0133475 

> <ConfTolerance>
0.530585 

$$$$
L07.****
  PyMOL2.5          3D                             0

 23 22  0  0  0  0  0  0  0  0999 V2000
   18.3197   -4.2938    0.0788 O   0  0  0  1  0  0  0  0  0  0  0  0
   16.5434   -5.3317   -1.2238 O   0  0  0  1  0  0  0  0  0  0  0  0
   18.8602   -5.7896   -1.9311 O   0  0  0  0  0  0  0  0  0  0  0  0
   15.4181   -4.6831   -0.5855 C   0  0  0  1  0  0  0  0  0  0  0  0
   15.3031   -3.7062   -1.0064 H   0  0  0  1  0  0  0  0  0  0  0  0
   15.6212   -4.5992    0.4617 H   0  0  0  1  0  0  0  0  0  0  0  0
   16.9604   -1.9316    0.1829 O   0  0  0  0  0  0  0  0  0  0  0  0
   19.6146   -2.1688    0.3878 O   0  5  0  1  0  0  0  0  0  0  0  0
   14.1135   -5.4477   -0.7678 C   0  0  0  1  0  0  0  0  0  0  0  0
   14.2145   -6.4083   -0.3074 H   0  0  0  1  0  0  0  0  0  0  0  0
   13.9345   -5.5708   -1.8155 H   0  0  0  1  0  0  0  0  0  0  0  0
   12.9290   -4.7465   -0.1585 C   0  0  0  1  0  0  0  0  0  0  0  0
   11.6895   -5.5887   -0.0453 C   0  0  0  1  0  0  0  0  0  0  0  0
   11.8846   -6.4278    0.5893 H   0  0  0  1  0  0  0  0  0  0  0  0
   11.4041   -5.9351   -1.0166 H   0  0  0  1  0  0  0  0  0  0  0  0
   10.8973   -5.0028    0.3720 H   0  0  0  1  0  0  0  0  0  0  0  0
   13.0045   -3.4808    0.2387 C   0  0  0  1  0  0  0  0  0  0  0  0
   12.1674   -3.0120    0.6403 H   0  0  0  1  0  0  0  0  0  0  0  0
   13.8997   -2.9593    0.1481 H   0  0  0  1  0  0  0  0  0  0  0  0
   18.1911   -2.8250    0.7969 P   0  0  0  1  0  0  0  0  0  0  0  0
   18.0406   -2.9847    2.2605 O   0  0  0  1  0  0  0  0  0  0  0  0
   17.9880   -4.6774   -1.4390 P   0  0  0  1  0  0  0  0  0  0  0  0
   17.9390   -3.4582   -2.3001 O   0  0  0  1  0  0  0  0  0  0  0  0
  1 20  1  0  0  0  0
  1 22  1  0  0  0  0
  2  4  1  0  0  0  0
  2 22  1  0  0  0  0
  3 22  1  0  0  0  0
  4  5  1  0  0  0  0
  4  6  1  0  0  0  0
  4  9  1  0  0  0  0
  7 20  1  0  0  0  0
  8 20  1  0  0  0  0
  9 10  1  0  0  0  0
  9 11  1  0  0  0  0
  9 12  1  0  0  0  0
 12 13  1  0  0  0  0
 12 17  2  0  0  0  0
 13 14  1  0  0  0  0
 13 15  1  0  0  0  0
 13 16  1  0  0  0  0
 17 18  1  0  0  0  0
 17 19  1  0  0  0  0
 20 21  2  0  0  0  0
 22 23  2  0  0  0  0
M  BCL ATM O_Tr2TrTrPi2 O_Tr2TrTrPi2 O_Te2Te2TeTe C_TeTeTeTe H_S H_S O_Te2Te2TeTe O_Te2Te2Te2Te C_TeTeTeTe H_S H_S C_TrTrTrPi C_TeTeTeTe H_S H_S H_S C_TrTrTrPi H_S H_S P_TeTeTeTePi O_Tr2Tr2TrPi P_TeTeTeTePi O_Tr2Tr2TrPi
M  BCL BND ConjugatedSingleBond ConjugatedSingleBond NonConjugatedSingleBond ConjugatedSingleBond ConjugatedSingleBond NonConjugatedSingleBond NonConjugatedSingleBond NonConjugatedSingleBond ConjugatedSingleBond ConjugatedSingleBond NonConjugatedSingleBond NonConjugatedSingleBond NonConjugatedSingleBond NonConjugatedSingleBond ConjugatedDoubleBond NonConjugatedSingleBond NonConjugatedSingleBond NonConjugatedSingleBond NonConjugatedSingleBond NonConjugatedSingleBond ConjugatedDoubleBond ConjugatedDoubleBond
M  BCL CHI  20   R  22   S
M  BCL DBI - - -
M  END
> <ConfClashScore>
0 

> <ConfOneFourInteractionScore>
-0.981767 

> <ConfScore>
-0.217288 

> <ConfScorePBest>
0.0132445 

> <ConfTolerance>
0.628362 

$$$$
L07.****
  PyMOL2.5          3D                             0

 23 22  0  0  0  0  0  0  0  0999 V2000
   12.9117   -7.5778    5.1155 O   0  0  0  1  0  0  0  0  0  0  0  0
   14.0202   -5.8963    3.6152 O   0  0  0  1  0  0  0  0  0  0  0  0
   14.7337   -6.1864    6.0210 O   0  0  0  0  0  0  0  0  0  0  0  0
   13.0496   -5.6322    2.5706 C   0  0  0  1  0  0  0  0  0  0  0  0
   12.4279   -4.8076    2.8508 H   0  0  0  1  0  0  0  0  0  0  0  0
   12.4426   -6.4985    2.4096 H   0  0  0  1  0  0  0  0  0  0  0  0
   12.0028   -9.8063    4.2835 O   0  0  0  0  0  0  0  0  0  0  0  0
   14.0578   -9.7376    5.7614 O   0  5  0  1  0  0  0  0  0  0  0  0
   13.8211   -5.2927    1.2952 C   0  0  0  1  0  0  0  0  0  0  0  0
   14.2639   -6.1807    0.8947 H   0  0  0  1  0  0  0  0  0  0  0  0
   14.5878   -4.5799    1.5167 H   0  0  0  1  0  0  0  0  0  0  0  0
   12.8606   -4.7092    0.2937 C   0  0  0  1  0  0  0  0  0  0  0  0
   11.7198   -5.6119   -0.0833 C   0  0  0  1  0  0  0  0  0  0  0  0
   12.0925   -6.4432   -0.6445 H   0  0  0  1  0  0  0  0  0  0  0  0
   11.0159   -5.0675   -0.6776 H   0  0  0  1  0  0  0  0  0  0  0  0
   11.2386   -5.9676    0.8037 H   0  0  0  1  0  0  0  0  0  0  0  0
   13.0347   -3.4881   -0.2004 C   0  0  0  1  0  0  0  0  0  0  0  0
   13.8379   -2.9091    0.1178 H   0  0  0  1  0  0  0  0  0  0  0  0
   12.3684   -3.1116   -0.9046 H   0  0  0  1  0  0  0  0  0  0  0  0
   13.4176   -8.9981    4.4700 P   0  0  0  1  0  0  0  0  0  0  0  0
   14.2817   -8.9032    3.2722 O   0  0  0  1  0  0  0  0  0  0  0  0
   13.5499   -6.1277    5.1437 P   0  0  0  1  0  0  0  0  0  0  0  0
   12.5175   -5.1099    5.4061 O   0  0  0  1  0  0  0  0  0  0  0  0
  1 20  1  0  0  0  0
  1 22  1  0  0  0  0
  2  4  1  0  0  0  0
  2 22  1  0  0  0  0
  3 22  1  0  0  0  0
  4  5  1  0  0  0  0
  4  6  1  0  0  0  0
  4  9  1  0  0  0  0
  7 20  1  0  0  0  0
  8 20  1  0  0  0  0
  9 10  1  0  0  0  0
  9 11  1  0  0  0  0
  9 12  1  0  0  0  0
 12 13  1  0  0  0  0
 12 17  2  0  0  0  0
 13 14  1  0  0  0  0
 13 15  1  0  0  0  0
 13 16  1  0  0  0  0
 17 18  1  0  0  0  0
 17 19  1  0  0  0  0
 20 21  2  0  0  0  0
 22 23  2  0  0  0  0
M  BCL ATM O_Tr2TrTrPi2 O_Tr2TrTrPi2 O_Te2Te2TeTe C_TeTeTeTe H_S H_S O_Te2Te2TeTe O_Te2Te2Te2Te C_TeTeTeTe H_S H_S C_TrTrTrPi C_TeTeTeTe H_S H_S H_S C_TrTrTrPi H_S H_S P_TeTeTeTePi O_Tr2Tr2TrPi P_TeTeTeTePi O_Tr2Tr2TrPi
M  BCL BND ConjugatedSingleBond ConjugatedSingleBond NonConjugatedSingleBond ConjugatedSingleBond ConjugatedSingleBond NonConjugatedSingleBond NonConjugatedSingleBond NonConjugatedSingleBond ConjugatedSingleBond ConjugatedSingleBond NonConjugatedSingleBond NonConjugatedSingleBond NonConjugatedSingleBond NonConjugatedSingleBond ConjugatedDoubleBond NonConjugatedSingleBond NonConjugatedSingleBond NonConjugatedSingleBond NonConjugatedSingleBond NonConjugatedSingleBond ConjugatedDoubleBond ConjugatedDoubleBond
M  BCL CHI  20   R  22   S
M  BCL DBI - - -
M  END
> <ConfClashScore>
0 

> <ConfOneFourInteractionScore>
-0.977311 

> <ConfScore>
-0.212163 

> <ConfScorePBest>
0.0131415 

> <ConfTolerance>
0.690629 

$$$$
L07.****
  PyMOL2.5          3D                             0

 23 22  0  0  0  0  0  0  0  0999 V2000
   16.7963   -7.8457    4.0572 O   0  0  0  1  0  0  0  0  0  0  0  0
   15.1403   -6.5997    2.5630 O   0  0  0  1  0  0  0  0  0  0  0  0
   15.0533   -6.2998    4.9999 O   0  0  0  0  0  0  0  0  0  0  0  0
   13.8838   -6.0660    2.0833 C   0  0  0  1  0  0  0  0  0  0  0  0
   13.5272   -5.3135    2.7552 H   0  0  0  1  0  0  0  0  0  0  0  0
   13.1596   -6.8501    2.0084 H   0  0  0  1  0  0  0  0  0  0  0  0
   17.1921   -8.6011    6.5594 O   0  0  0  0  0  0  0  0  0  0  0  0
   18.2503   -6.3521    5.7284 O   0  5  0  1  0  0  0  0  0  0  0  0
   14.1340   -5.4581    0.7094 C   0  0  0  1  0  0  0  0  0  0  0  0
   14.4095   -6.2420    0.0352 H   0  0  0  1  0  0  0  0  0  0  0  0
   14.9378   -4.7563    0.7887 H   0  0  0  1  0  0  0  0  0  0  0  0
   12.9304   -4.7471    0.1511 C   0  0  0  1  0  0  0  0  0  0  0  0
   11.7046   -5.6011    0.0135 C   0  0  0  1  0  0  0  0  0  0  0  0
   10.9577   -5.0678   -0.5366 H   0  0  0  1  0  0  0  0  0  0  0  0
   11.3273   -5.8422    0.9853 H   0  0  0  1  0  0  0  0  0  0  0  0
   11.9546   -6.5023   -0.5063 H   0  0  0  1  0  0  0  0  0  0  0  0
   12.9808   -3.4624   -0.1845 C   0  0  0  1  0  0  0  0  0  0  0  0
   12.1255   -2.9823   -0.5301 H   0  0  0  1  0  0  0  0  0  0  0  0
   13.8748   -2.9375   -0.1016 H   0  0  0  1  0  0  0  0  0  0  0  0
   17.8962   -7.8661    5.2735 P   0  0  0  1  0  0  0  0  0  0  0  0
   19.0541   -8.6626    4.8096 O   0  0  0  1  0  0  0  0  0  0  0  0
   15.3545   -7.3986    3.9929 P   0  0  0  1  0  0  0  0  0  0  0  0
   14.3471   -8.5209    4.0033 O   0  0  0  1  0  0  0  0  0  0  0  0
  1 20  1  0  0  0  0
  1 22  1  0  0  0  0
  2  4  1  0  0  0  0
  2 22  1  0  0  0  0
  3 22  1  0  0  0  0
  4  5  1  0  0  0  0
  4  6  1  0  0  0  0
  4  9  1  0  0  0  0
  7 20  1  0  0  0  0
  8 20  1  0  0  0  0
  9 10  1  0  0  0  0
  9 11  1  0  0  0  0
  9 12  1  0  0  0  0
 12 13  1  0  0  0  0
 12 17  2  0  0  0  0
 13 14  1  0  0  0  0
 13 15  1  0  0  0  0
 13 16  1  0  0  0  0
 17 18  1  0  0  0  0
 17 19  1  0  0  0  0
 20 21  2  0  0  0  0
 22 23  2  0  0  0  0
M  BCL ATM O_Tr2TrTrPi2 O_Tr2TrTrPi2 O_Te2Te2TeTe C_TeTeTeTe H_S H_S O_Te2Te2TeTe O_Te2Te2Te2Te C_TeTeTeTe H_S H_S C_TrTrTrPi C_TeTeTeTe H_S H_S H_S C_TrTrTrPi H_S H_S P_TeTeTeTePi O_Tr2Tr2TrPi P_TeTeTeTePi O_Tr2Tr2TrPi
M  BCL BND ConjugatedSingleBond ConjugatedSingleBond NonConjugatedSingleBond ConjugatedSingleBond ConjugatedSingleBond NonConjugatedSingleBond NonConjugatedSingleBond NonConjugatedSingleBond ConjugatedSingleBond ConjugatedSingleBond NonConjugatedSingleBond NonConjugatedSingleBond NonConjugatedSingleBond NonConjugatedSingleBond ConjugatedDoubleBond NonConjugatedSingleBond NonConjugatedSingleBond NonConjugatedSingleBond NonConjugatedSingleBond NonConjugatedSingleBond ConjugatedDoubleBond ConjugatedDoubleBond
M  BCL CHI  20   R  22   S
M  BCL DBI - - -
M  END
> <ConfClashScore>
0 

> <ConfOneFourInteractionScore>
-0.975364 

> <ConfScore>
-0.211551 

> <ConfScorePBest>
0.0130385 

> <ConfTolerance>
0.456396 

$$$$
L07.****
  PyMOL2.5          3D                             0

 23 22  0  0  0  0  0  0  0  0999 V2000
   18.1502   -4.2224    0.3645 O   0  0  0  1  0  0  0  0  0  0  0  0
   15.6572   -4.1797   -0.0882 O   0  0  0  1  0  0  0  0  0  0  0  0
   17.1772   -3.5898   -1.8991 O   0  0  0  0  0  0  0  0  0  0  0  0
   15.2029   -4.5192    1.2439 C   0  0  0  1  0  0  0  0  0  0  0  0
   14.9440   -3.6342    1.7868 H   0  0  0  1  0  0  0  0  0  0  0  0
   15.9643   -5.0530    1.7732 H   0  0  0  1  0  0  0  0  0  0  0  0
   20.5028   -3.1156   -0.4400 O   0  0  0  0  0  0  0  0  0  0  0  0
   19.9765   -5.6700   -0.8362 O   0  5  0  1  0  0  0  0  0  0  0  0
   13.9758   -5.3997    1.0470 C   0  0  0  1  0  0  0  0  0  0  0  0
   13.5765   -5.6474    2.0083 H   0  0  0  1  0  0  0  0  0  0  0  0
   14.2761   -6.2948    0.5435 H   0  0  0  1  0  0  0  0  0  0  0  0
   12.8959   -4.7336    0.2369 C   0  0  0  1  0  0  0  0  0  0  0  0
   11.7083   -5.6039   -0.0640 C   0  0  0  1  0  0  0  0  0  0  0  0
   12.0381   -6.5113   -0.5252 H   0  0  0  1  0  0  0  0  0  0  0  0
   11.0466   -5.0870   -0.7273 H   0  0  0  1  0  0  0  0  0  0  0  0
   11.1945   -5.8330    0.8462 H   0  0  0  1  0  0  0  0  0  0  0  0
   13.0127   -3.4729   -0.1662 C   0  0  0  1  0  0  0  0  0  0  0  0
   13.8552   -2.9210    0.0932 H   0  0  0  1  0  0  0  0  0  0  0  0
   12.2624   -3.0384   -0.7405 H   0  0  0  1  0  0  0  0  0  0  0  0
   19.7670   -4.4372    0.1937 P   0  0  0  1  0  0  0  0  0  0  0  0
   20.4545   -5.0293    1.3630 O   0  0  0  1  0  0  0  0  0  0  0  0
   17.0215   -3.4140   -0.4345 P   0  0  0  1  0  0  0  0  0  0  0  0
   17.0253   -2.0738    0.1533 O   0  0  0  1  0  0  0  0  0  0  0  0
  1 20  1  0  0  0  0
  1 22  1  0  0  0  0
  2  4  1  0  0  0  0
  2 22  1  0  0  0  0
  3 22  1  0  0  0  0
  4  5  1  0  0  0  0
  4  6  1  0  0  0  0
  4  9  1  0  0  0  0
  7 20  1  0  0  0  0
  8 20  1  0  0  0  0
  9 10  1  0  0  0  0
  9 11  1  0  0  0  0
  9 12  1  0  0  0  0
 12 13  1  0  0  0  0
 12 17  2  0  0  0  0
 13 14  1  0  0  0  0
 13 15  1  0  0  0  0
 13 16  1  0  0  0  0
 17 18  1  0  0  0  0
 17 19  1  0  0  0  0
 20 21  2  0  0  0  0
 22 23  2  0  0  0  0
M  BCL ATM O_Tr2TrTrPi2 O_Tr2TrTrPi2 O_Te2Te2TeTe C_TeTeTeTe H_S H_S O_Te2Te2TeTe O_Te2Te2Te2Te C_TeTeTeTe H_S H_S C_TrTrTrPi C_TeTeTeTe H_S H_S H_S C_TrTrTrPi H_S H_S P_TeTeTeTePi O_Tr2Tr2TrPi P_TeTeTeTePi O_Tr2Tr2TrPi
M  BCL BND ConjugatedSingleBond ConjugatedSingleBond NonConjugatedSingleBond ConjugatedSingleBond ConjugatedSingleBond NonConjugatedSingleBond NonConjugatedSingleBond NonConjugatedSingleBond ConjugatedSingleBond ConjugatedSingleBond NonConjugatedSingleBond NonConjugatedSingleBond NonConjugatedSingleBond NonConjugatedSingleBond ConjugatedDoubleBond NonConjugatedSingleBond NonConjugatedSingleBond NonConjugatedSingleBond NonConjugatedSingleBond NonConjugatedSingleBond ConjugatedDoubleBond ConjugatedDoubleBond
M  BCL CHI  20   R  22   S
M  BCL DBI - - -
M  END
> <ConfClashScore>
0 

> <ConfOneFourInteractionScore>
-0.981767 

> <ConfScore>
-0.211375 

> <ConfScorePBest>
0.0129355 

> <ConfTolerance>
0.56127 

$$$$
L07.****
  PyMOL2.5          3D                             0

 23 22  0  0  0  0  0  0  0  0999 V2000
   13.9268   -9.0292    1.9969 O   0  0  0  1  0  0  0  0  0  0  0  0
   13.4579   -7.6865   -0.1170 O   0  0  0  1  0  0  0  0  0  0  0  0
   12.1398   -9.7661    0.4867 O   0  0  0  0  0  0  0  0  0  0  0  0
   14.5284   -6.7207    0.0054 C   0  0  0  1  0  0  0  0  0  0  0  0
   15.4325   -7.1256   -0.3992 H   0  0  0  1  0  0  0  0  0  0  0  0
   14.6783   -6.4713    1.0351 H   0  0  0  1  0  0  0  0  0  0  0  0
   15.3978   -9.3936    4.2007 O   0  0  0  0  0  0  0  0  0  0  0  0
   14.7555   -6.9892    3.4407 O   0  5  0  1  0  0  0  0  0  0  0  0
   14.1216   -5.4779   -0.7754 C   0  0  0  1  0  0  0  0  0  0  0  0
   13.8595   -5.7715   -1.7704 H   0  0  0  1  0  0  0  0  0  0  0  0
   14.9557   -4.8084   -0.8086 H   0  0  0  1  0  0  0  0  0  0  0  0
   12.9509   -4.7550   -0.1650 C   0  0  0  1  0  0  0  0  0  0  0  0
   11.6948   -5.5726   -0.0543 C   0  0  0  1  0  0  0  0  0  0  0  0
   11.8609   -6.3942    0.6108 H   0  0  0  1  0  0  0  0  0  0  0  0
   11.4257   -5.9450   -1.0206 H   0  0  0  1  0  0  0  0  0  0  0  0
   10.9036   -4.9608    0.3258 H   0  0  0  1  0  0  0  0  0  0  0  0
   12.9985   -3.4939    0.2510 C   0  0  0  1  0  0  0  0  0  0  0  0
   12.1636   -3.0624    0.6963 H   0  0  0  1  0  0  0  0  0  0  0  0
   13.8699   -2.9389    0.1313 H   0  0  0  1  0  0  0  0  0  0  0  0
   15.1813   -8.4476    2.8786 P   0  0  0  1  0  0  0  0  0  0  0  0
   16.4684   -8.3377    2.1563 O   0  0  0  1  0  0  0  0  0  0  0  0
   13.5376   -9.1400    0.4805 P   0  0  0  1  0  0  0  0  0  0  0  0
   14.5287   -9.8914   -0.3245 O   0  0  0  1  0  0  0  0  0  0  0  0
  1 20  1  0  0  0  0
  1 22  1  0  0  0  0
  2  4  1  0  0  0  0
  2 22  1  0  0  0  0
  3 22  1  0  0  0  0
  4  5  1  0  0  0  0
  4  6  1  0  0  0  0
  4  9  1  0  0  0  0
  7 20  1  0  0  0  0
  8 20  1  0  0  0  0
  9 10  1  0  0  0  0
  9 11  1  0  0  0  0
  9 12  1  0  0  0  0
 12 13  1  0  0  0  0
 12 17  2  0  0  0  0
 13 14  1  0  0  0  0
 13 15  1  0  0  0  0
 13 16  1  0  0  0  0
 17 18  1  0  0  0  0
 17 19  1  0  0  0  0
 20 21  2  0  0  0  0
 22 23  2  0  0  0  0
M  BCL ATM O_Tr2TrTrPi2 O_Tr2TrTrPi2 O_Te2Te2TeTe C_TeTeTeTe H_S H_S O_Te2Te2TeTe O_Te2Te2Te2Te C_TeTeTeTe H_S H_S C_TrTrTrPi C_TeTeTeTe H_S H_S H_S C_TrTrTrPi H_S H_S P_TeTeTeTePi O_Tr2Tr2TrPi P_TeTeTeTePi O_Tr2Tr2TrPi
M  BCL BND ConjugatedSingleBond ConjugatedSingleBond NonConjugatedSingleBond ConjugatedSingleBond ConjugatedSingleBond NonConjugatedSingleBond NonConjugatedSingleBond NonConjugatedSingleBond ConjugatedSingleBond ConjugatedSingleBond NonConjugatedSingleBond NonConjugatedSingleBond NonConjugatedSingleBond NonConjugatedSingleBond ConjugatedDoubleBond NonConjugatedSingleBond NonConjugatedSingleBond NonConjugatedSingleBond NonConjugatedSingleBond NonConjugatedSingleBond ConjugatedDoubleBond ConjugatedDoubleBond
M  BCL CHI  20   R  22   S
M  BCL DBI - - -
M  END
> <ConfClashScore>
0 

> <ConfOneFourInteractionScore>
-0.975364 

> <ConfScore>
-0.210541 

> <ConfScorePBest>
0.0128325 

> <ConfTolerance>
0.624388 

$$$$
L07.****
  PyMOL2.5          3D                             0

 23 22  0  0  0  0  0  0  0  0999 V2000
   13.4658   -7.9766   -4.3632 O   0  0  0  1  0  0  0  0  0  0  0  0
   12.9880   -6.8544   -2.1280 O   0  0  0  1  0  0  0  0  0  0  0  0
   11.2808   -8.3796   -3.1372 O   0  0  0  0  0  0  0  0  0  0  0  0
   14.1316   -5.9670   -2.0268 C   0  0  0  1  0  0  0  0  0  0  0  0
   14.0160   -5.1324   -2.6864 H   0  0  0  1  0  0  0  0  0  0  0  0
   15.0330   -6.4907   -2.2682 H   0  0  0  1  0  0  0  0  0  0  0  0
   14.9723   -9.0467   -6.2968 O   0  0  0  0  0  0  0  0  0  0  0  0
   14.1130   -6.5999   -6.5124 O   0  5  0  1  0  0  0  0  0  0  0  0
   14.1608   -5.4999   -0.5807 C   0  0  0  1  0  0  0  0  0  0  0  0
   15.0051   -4.8537   -0.4595 H   0  0  0  1  0  0  0  0  0  0  0  0
   14.2784   -6.3618    0.0422 H   0  0  0  1  0  0  0  0  0  0  0  0
   12.9400   -4.7582   -0.1194 C   0  0  0  1  0  0  0  0  0  0  0  0
   11.6912   -5.5904   -0.0400 C   0  0  0  1  0  0  0  0  0  0  0  0
   11.9081   -6.5136    0.4556 H   0  0  0  1  0  0  0  0  0  0  0  0
   11.3337   -5.7917   -1.0282 H   0  0  0  1  0  0  0  0  0  0  0  0
   10.9427   -5.0584    0.5092 H   0  0  0  1  0  0  0  0  0  0  0  0
   12.9913   -3.4664    0.1877 C   0  0  0  1  0  0  0  0  0  0  0  0
   12.1353   -2.9773    0.5188 H   0  0  0  1  0  0  0  0  0  0  0  0
   13.8865   -2.9450    0.0970 H   0  0  0  1  0  0  0  0  0  0  0  0
   13.6906   -8.0722   -5.9849 P   0  0  0  1  0  0  0  0  0  0  0  0
   12.5260   -8.5550   -6.7602 O   0  0  0  1  0  0  0  0  0  0  0  0
   12.3863   -7.3463   -3.5204 P   0  0  0  1  0  0  0  0  0  0  0  0
   11.7468   -6.1336   -4.1322 O   0  0  0  1  0  0  0  0  0  0  0  0
  1 20  1  0  0  0  0
  1 22  1  0  0  0  0
  2  4  1  0  0  0  0
  2 22  1  0  0  0  0
  3 22  1  0  0  0  0
  4  5  1  0  0  0  0
  4  6  1  0  0  0  0
  4  9  1  0  0  0  0
  7 20  1  0  0  0  0
  8 20  1  0  0  0  0
  9 10  1  0  0  0  0
  9 11  1  0  0  0  0
  9 12  1  0  0  0  0
 12 13  1  0  0  0  0
 12 17  2  0  0  0  0
 13 14  1  0  0  0  0
 13 15  1  0  0  0  0
 13 16  1  0  0  0  0
 17 18  1  0  0  0  0
 17 19  1  0  0  0  0
 20 21  2  0  0  0  0
 22 23  2  0  0  0  0
M  BCL ATM O_Tr2TrTrPi2 O_Tr2TrTrPi2 O_Te2Te2TeTe C_TeTeTeTe H_S H_S O_Te2Te2TeTe O_Te2Te2Te2Te C_TeTeTeTe H_S H_S C_TrTrTrPi C_TeTeTeTe H_S H_S H_S C_TrTrTrPi H_S H_S P_TeTeTeTePi O_Tr2Tr2TrPi P_TeTeTeTePi O_Tr2Tr2TrPi
M  BCL BND ConjugatedSingleBond ConjugatedSingleBond NonConjugatedSingleBond ConjugatedSingleBond ConjugatedSingleBond NonConjugatedSingleBond NonConjugatedSingleBond NonConjugatedSingleBond ConjugatedSingleBond ConjugatedSingleBond NonConjugatedSingleBond NonConjugatedSingleBond NonConjugatedSingleBond NonConjugatedSingleBond ConjugatedDoubleBond NonConjugatedSingleBond NonConjugatedSingleBond NonConjugatedSingleBond NonConjugatedSingleBond NonConjugatedSingleBond ConjugatedDoubleBond ConjugatedDoubleBond
M  BCL CHI  20   R  22   S
M  BCL DBI - - -
M  END
> <ConfClashScore>
0 

> <ConfOneFourInteractionScore>
-0.98644 

> <ConfScore>
-0.208352 

> <ConfScorePBest>
0.0127295 

> <ConfTolerance>
0.635051 

$$$$
L07.****
  PyMOL2.5          3D                             0

 23 22  0  0  0  0  0  0  0  0999 V2000
   12.0882   -6.3533    4.8996 O   0  0  0  1  0  0  0  0  0  0  0  0
   12.7063   -6.7351    2.4994 O   0  0  0  1  0  0  0  0  0  0  0  0
   11.1602   -8.3323    3.6440 O   0  0  0  0  0  0  0  0  0  0  0  0
   13.7796   -5.7719    2.3807 C   0  0  0  1  0  0  0  0  0  0  0  0
   14.6694   -6.1810    2.8117 H   0  0  0  1  0  0  0  0  0  0  0  0
   13.5092   -4.8771    2.9014 H   0  0  0  1  0  0  0  0  0  0  0  0
   12.6004   -5.0091    7.2236 O   0  0  0  0  0  0  0  0  0  0  0  0
   13.1760   -7.3686    7.0838 O   0  5  0  1  0  0  0  0  0  0  0  0
   14.0373   -5.4421    0.9195 C   0  0  0  1  0  0  0  0  0  0  0  0
   14.2355   -6.3587    0.4042 H   0  0  0  1  0  0  0  0  0  0  0  0
   14.9001   -4.8111    0.8707 H   0  0  0  1  0  0  0  0  0  0  0  0
   12.9101   -4.7434    0.2072 C   0  0  0  1  0  0  0  0  0  0  0  0
   11.7028   -5.6001   -0.0515 C   0  0  0  1  0  0  0  0  0  0  0  0
   12.0113   -6.5347   -0.4711 H   0  0  0  1  0  0  0  0  0  0  0  0
   11.0509   -5.0996   -0.7367 H   0  0  0  1  0  0  0  0  0  0  0  0
   11.1866   -5.7758    0.8691 H   0  0  0  1  0  0  0  0  0  0  0  0
   13.0051   -3.4677   -0.1520 C   0  0  0  1  0  0  0  0  0  0  0  0
   13.8741   -2.9342    0.0526 H   0  0  0  1  0  0  0  0  0  0  0  0
   12.2112   -3.0031   -0.6372 H   0  0  0  1  0  0  0  0  0  0  0  0
   12.0153   -6.3791    6.5378 P   0  0  0  1  0  0  0  0  0  0  0  0
   10.7054   -6.7819    7.0967 O   0  0  0  1  0  0  0  0  0  0  0  0
   12.3920   -7.5341    3.8516 P   0  0  0  1  0  0  0  0  0  0  0  0
   13.6486   -8.1876    4.2729 O   0  0  0  1  0  0  0  0  0  0  0  0
  1 20  1  0  0  0  0
  1 22  1  0  0  0  0
  2  4  1  0  0  0  0
  2 22  1  0  0  0  0
  3 22  1  0  0  0  0
  4  5  1  0  0  0  0
  4  6  1  0  0  0  0
  4  9  1  0  0  0  0
  7 20  1  0  0  0  0
  8 20  1  0  0  0  0
  9 10  1  0  0  0  0
  9 11  1  0  0  0  0
  9 12  1  0  0  0  0
 12 13  1  0  0  0  0
 12 17  2  0  0  0  0
 13 14  1  0  0  0  0
 13 15  1  0  0  0  0
 13 16  1  0  0  0  0
 17 18  1  0  0  0  0
 17 19  1  0  0  0  0
 20 21  2  0  0  0  0
 22 23  2  0  0  0  0
M  BCL ATM O_Tr2TrTrPi2 O_Tr2TrTrPi2 O_Te2Te2TeTe C_TeTeTeTe H_S H_S O_Te2Te2TeTe O_Te2Te2Te2Te C_TeTeTeTe H_S H_S C_TrTrTrPi C_TeTeTeTe H_S H_S H_S C_TrTrTrPi H_S H_S P_TeTeTeTePi O_Tr2Tr2TrPi P_TeTeTeTePi O_Tr2Tr2TrPi
M  BCL BND ConjugatedSingleBond ConjugatedSingleBond NonConjugatedSingleBond ConjugatedSingleBond ConjugatedSingleBond NonConjugatedSingleBond NonConjugatedSingleBond NonConjugatedSingleBond ConjugatedSingleBond ConjugatedSingleBond NonConjugatedSingleBond NonConjugatedSingleBond NonConjugatedSingleBond NonConjugatedSingleBond ConjugatedDoubleBond NonConjugatedSingleBond NonConjugatedSingleBond NonConjugatedSingleBond NonConjugatedSingleBond NonConjugatedSingleBond ConjugatedDoubleBond ConjugatedDoubleBond
M  BCL CHI  20   R  22   S
M  BCL DBI - - -
M  END
> <ConfClashScore>
0 

> <ConfOneFourInteractionScore>
-0.98644 

> <ConfScore>
-0.203847 

> <ConfScorePBest>
0.0126265 

> <ConfTolerance>
0.64528 

$$$$
L07.****
  PyMOL2.5          3D                             0

 23 22  0  0  0  0  0  0  0  0999 V2000
   18.2254   -4.2558   -0.2405 O   0  0  0  1  0  0  0  0  0  0  0  0
   15.7206   -4.2568   -0.4217 O   0  0  0  1  0  0  0  0  0  0  0  0
   17.1689   -3.1928   -2.2026 O   0  0  0  0  0  0  0  0  0  0  0  0
   15.2818   -4.4752    0.9432 C   0  0  0  1  0  0  0  0  0  0  0  0
   15.0130   -3.5425    1.3932 H   0  0  0  1  0  0  0  0  0  0  0  0
   16.0664   -4.9320    1.5095 H   0  0  0  1  0  0  0  0  0  0  0  0
   18.0396   -4.4073    2.4251 O   0  0  0  0  0  0  0  0  0  0  0  0
   19.9832   -5.6144    1.1136 O   0  5  0  1  0  0  0  0  0  0  0  0
   14.0683   -5.3990    0.8975 C   0  0  0  1  0  0  0  0  0  0  0  0
   13.7708   -5.6371    1.8974 H   0  0  0  1  0  0  0  0  0  0  0  0
   14.3308   -6.2977    0.3794 H   0  0  0  1  0  0  0  0  0  0  0  0
   12.9195   -4.7363    0.1854 C   0  0  0  1  0  0  0  0  0  0  0  0
   11.6875   -5.5865    0.0525 C   0  0  0  1  0  0  0  0  0  0  0  0
   11.8506   -6.3380   -0.6916 H   0  0  0  1  0  0  0  0  0  0  0  0
   10.8602   -4.9725   -0.2365 H   0  0  0  1  0  0  0  0  0  0  0  0
   11.4744   -6.0544    0.9908 H   0  0  0  1  0  0  0  0  0  0  0  0
   13.0177   -3.4950   -0.2784 C   0  0  0  1  0  0  0  0  0  0  0  0
   12.2066   -3.0544   -0.7576 H   0  0  0  1  0  0  0  0  0  0  0  0
   13.9047   -2.9646   -0.1622 H   0  0  0  1  0  0  0  0  0  0  0  0
   18.4084   -5.2381    1.0600 P   0  0  0  1  0  0  0  0  0  0  0  0
   17.7221   -6.5321    0.8483 O   0  0  0  1  0  0  0  0  0  0  0  0
   17.0221   -3.3533   -0.7389 P   0  0  0  1  0  0  0  0  0  0  0  0
   16.8912   -2.1463    0.1035 O   0  0  0  1  0  0  0  0  0  0  0  0
  1 20  1  0  0  0  0
  1 22  1  0  0  0  0
  2  4  1  0  0  0  0
  2 22  1  0  0  0  0
  3 22  1  0  0  0  0
  4  5  1  0  0  0  0
  4  6  1  0  0  0  0
  4  9  1  0  0  0  0
  7 20  1  0  0  0  0
  8 20  1  0  0  0  0
  9 10  1  0  0  0  0
  9 11  1  0  0  0  0
  9 12  1  0  0  0  0
 12 13  1  0  0  0  0
 12 17  2  0  0  0  0
 13 14  1  0  0  0  0
 13 15  1  0  0  0  0
 13 16  1  0  0  0  0
 17 18  1  0  0  0  0
 17 19  1  0  0  0  0
 20 21  2  0  0  0  0
 22 23  2  0  0  0  0
M  BCL ATM O_Tr2TrTrPi2 O_Tr2TrTrPi2 O_Te2Te2TeTe C_TeTeTeTe H_S H_S O_Te2Te2TeTe O_Te2Te2Te2Te C_TeTeTeTe H_S H_S C_TrTrTrPi C_TeTeTeTe H_S H_S H_S C_TrTrTrPi H_S H_S P_TeTeTeTePi O_Tr2Tr2TrPi P_TeTeTeTePi O_Tr2Tr2TrPi
M  BCL BND ConjugatedSingleBond ConjugatedSingleBond NonConjugatedSingleBond ConjugatedSingleBond ConjugatedSingleBond NonConjugatedSingleBond NonConjugatedSingleBond NonConjugatedSingleBond ConjugatedSingleBond ConjugatedSingleBond NonConjugatedSingleBond NonConjugatedSingleBond NonConjugatedSingleBond NonConjugatedSingleBond ConjugatedDoubleBond NonConjugatedSingleBond NonConjugatedSingleBond NonConjugatedSingleBond NonConjugatedSingleBond NonConjugatedSingleBond ConjugatedDoubleBond ConjugatedDoubleBond
M  BCL CHI  20   R  22   S
M  BCL DBI - - -
M  END
> <ConfClashScore>
0 

> <ConfOneFourInteractionScore>
-0.988196 

> <ConfScore>
-0.19957 

> <ConfScorePBest>
0.0125235 

> <ConfTolerance>
0.711277 

$$$$
L07.****
  PyMOL2.5          3D                             0

 23 22  0  0  0  0  0  0  0  0999 V2000
   11.4350   -5.6278   -4.6012 O   0  0  0  1  0  0  0  0  0  0  0  0
   12.9148   -4.4253   -3.2290 O   0  0  0  1  0  0  0  0  0  0  0  0
   11.8465   -3.1795   -5.1867 O   0  0  0  0  0  0  0  0  0  0  0  0
   13.4554   -5.6064   -2.5820 C   0  0  0  1  0  0  0  0  0  0  0  0
   14.2726   -5.9728   -3.1676 H   0  0  0  1  0  0  0  0  0  0  0  0
   12.6883   -6.3508   -2.5341 H   0  0  0  1  0  0  0  0  0  0  0  0
   10.6732   -7.3874   -6.5467 O   0  0  0  0  0  0  0  0  0  0  0  0
    9.6677   -4.9992   -6.3922 O   0  5  0  1  0  0  0  0  0  0  0  0
   13.9545   -5.3310   -1.1696 C   0  0  0  1  0  0  0  0  0  0  0  0
   14.7756   -4.6472   -1.2259 H   0  0  0  1  0  0  0  0  0  0  0  0
   14.2862   -6.2530   -0.7398 H   0  0  0  1  0  0  0  0  0  0  0  0
   12.8989   -4.7389   -0.2768 C   0  0  0  1  0  0  0  0  0  0  0  0
   11.7151   -5.5961    0.0639 C   0  0  0  1  0  0  0  0  0  0  0  0
   12.0428   -6.4590    0.6050 H   0  0  0  1  0  0  0  0  0  0  0  0
   11.2272   -5.9044   -0.8372 H   0  0  0  1  0  0  0  0  0  0  0  0
   11.0311   -5.0359    0.6667 H   0  0  0  1  0  0  0  0  0  0  0  0
   13.0106   -3.5013    0.1935 C   0  0  0  1  0  0  0  0  0  0  0  0
   13.8426   -2.9267   -0.0499 H   0  0  0  1  0  0  0  0  0  0  0  0
   12.2667   -3.1075    0.8044 H   0  0  0  1  0  0  0  0  0  0  0  0
   10.1932   -6.2338   -5.4844 P   0  0  0  1  0  0  0  0  0  0  0  0
    9.0642   -6.6048   -4.6023 O   0  0  0  1  0  0  0  0  0  0  0  0
   12.5305   -4.4422   -4.8123 P   0  0  0  1  0  0  0  0  0  0  0  0
   13.6722   -4.9187   -5.6136 O   0  0  0  1  0  0  0  0  0  0  0  0
  1 20  1  0  0  0  0
  1 22  1  0  0  0  0
  2  4  1  0  0  0  0
  2 22  1  0  0  0  0
  3 22  1  0  0  0  0
  4  5  1  0  0  0  0
  4  6  1  0  0  0  0
  4  9  1  0  0  0  0
  7 20  1  0  0  0  0
  8 20  1  0  0  0  0
  9 10  1  0  0  0  0
  9 11  1  0  0  0  0
  9 12  1  0  0  0  0
 12 13  1  0  0  0  0
 12 17  2  0  0  0  0
 13 14  1  0  0  0  0
 13 15  1  0  0  0  0
 13 16  1  0  0  0  0
 17 18  1  0  0  0  0
 17 19  1  0  0  0  0
 20 21  2  0  0  0  0
 22 23  2  0  0  0  0
M  BCL ATM O_Tr2TrTrPi2 O_Tr2TrTrPi2 O_Te2Te2TeTe C_TeTeTeTe H_S H_S O_Te2Te2TeTe O_Te2Te2Te2Te C_TeTeTeTe H_S H_S C_TrTrTrPi C_TeTeTeTe H_S H_S H_S C_TrTrTrPi H_S H_S P_TeTeTeTePi O_Tr2Tr2TrPi P_TeTeTeTePi O_Tr2Tr2TrPi
M  BCL BND ConjugatedSingleBond ConjugatedSingleBond NonConjugatedSingleBond ConjugatedSingleBond ConjugatedSingleBond NonConjugatedSingleBond NonConjugatedSingleBond NonConjugatedSingleBond ConjugatedSingleBond ConjugatedSingleBond NonConjugatedSingleBond NonConjugatedSingleBond NonConjugatedSingleBond NonConjugatedSingleBond ConjugatedDoubleBond NonConjugatedSingleBond NonConjugatedSingleBond NonConjugatedSingleBond NonConjugatedSingleBond NonConjugatedSingleBond ConjugatedDoubleBond ConjugatedDoubleBond
M  BCL CHI  20   R  22   S
M  BCL DBI - - -
M  END
> <ConfClashScore>
0 

> <ConfOneFourInteractionScore>
-0.98644 

> <ConfScore>
-0.198745 

> <ConfScorePBest>
0.0124205 

> <ConfTolerance>
0.657871 

$$$$
L07.****
  PyMOL2.5          3D                             0

 23 22  0  0  0  0  0  0  0  0999 V2000
   13.4404   -0.3029   -2.1157 O   0  0  0  1  0  0  0  0  0  0  0  0
   12.5343   -2.6049   -2.6228 O   0  0  0  1  0  0  0  0  0  0  0  0
   14.3630   -1.7539   -3.9718 O   0  0  0  0  0  0  0  0  0  0  0  0
   11.4302   -2.4089   -1.7031 C   0  0  0  1  0  0  0  0  0  0  0  0
   10.5821   -2.0227   -2.2290 H   0  0  0  1  0  0  0  0  0  0  0  0
   11.7151   -1.7236   -0.9324 H   0  0  0  1  0  0  0  0  0  0  0  0
   15.0339    0.7648   -0.1632 O   0  0  0  0  0  0  0  0  0  0  0  0
   15.7303    0.6609   -2.6726 O   0  5  0  1  0  0  0  0  0  0  0  0
   11.0901   -3.7627   -1.0937 C   0  0  0  1  0  0  0  0  0  0  0  0
   10.8682   -4.4468   -1.8859 H   0  0  0  1  0  0  0  0  0  0  0  0
   10.2291   -3.6483   -0.4689 H   0  0  0  1  0  0  0  0  0  0  0  0
   12.2099   -4.3348   -0.2662 C   0  0  0  1  0  0  0  0  0  0  0  0
   12.0349   -5.7746    0.1176 C   0  0  0  1  0  0  0  0  0  0  0  0
   12.9602   -6.1592    0.4930 H   0  0  0  1  0  0  0  0  0  0  0  0
   11.7367   -6.3387   -0.7413 H   0  0  0  1  0  0  0  0  0  0  0  0
   11.2831   -5.8527    0.8750 H   0  0  0  1  0  0  0  0  0  0  0  0
   13.2794   -3.6406    0.1078 C   0  0  0  1  0  0  0  0  0  0  0  0
   13.4036   -2.6616   -0.2206 H   0  0  0  1  0  0  0  0  0  0  0  0
   13.9915   -4.0757    0.7283 H   0  0  0  1  0  0  0  0  0  0  0  0
   14.9590   -0.1652   -1.5120 P   0  0  0  1  0  0  0  0  0  0  0  0
   15.6667   -1.4540   -1.3422 O   0  0  0  1  0  0  0  0  0  0  0  0
   13.0872   -1.3078   -3.3292 P   0  0  0  1  0  0  0  0  0  0  0  0
   12.0570   -0.6001   -4.1196 O   0  0  0  1  0  0  0  0  0  0  0  0
  1 20  1  0  0  0  0
  1 22  1  0  0  0  0
  2  4  1  0  0  0  0
  2 22  1  0  0  0  0
  3 22  1  0  0  0  0
  4  5  1  0  0  0  0
  4  6  1  0  0  0  0
  4  9  1  0  0  0  0
  7 20  1  0  0  0  0
  8 20  1  0  0  0  0
  9 10  1  0  0  0  0
  9 11  1  0  0  0  0
  9 12  1  0  0  0  0
 12 13  1  0  0  0  0
 12 17  2  0  0  0  0
 13 14  1  0  0  0  0
 13 15  1  0  0  0  0
 13 16  1  0  0  0  0
 17 18  1  0  0  0  0
 17 19  1  0  0  0  0
 20 21  2  0  0  0  0
 22 23  2  0  0  0  0
M  BCL ATM O_Tr2TrTrPi2 O_Tr2TrTrPi2 O_Te2Te2TeTe C_TeTeTeTe H_S H_S O_Te2Te2TeTe O_Te2Te2Te2Te C_TeTeTeTe H_S H_S C_TrTrTrPi C_TeTeTeTe H_S H_S H_S C_TrTrTrPi H_S H_S P_TeTeTeTePi O_Tr2Tr2TrPi P_TeTeTeTePi O_Tr2Tr2TrPi
M  BCL BND ConjugatedSingleBond ConjugatedSingleBond NonConjugatedSingleBond ConjugatedSingleBond ConjugatedSingleBond NonConjugatedSingleBond NonConjugatedSingleBond NonConjugatedSingleBond ConjugatedSingleBond ConjugatedSingleBond NonConjugatedSingleBond NonConjugatedSingleBond NonConjugatedSingleBond NonConjugatedSingleBond ConjugatedDoubleBond NonConjugatedSingleBond NonConjugatedSingleBond NonConjugatedSingleBond NonConjugatedSingleBond NonConjugatedSingleBond ConjugatedDoubleBond ConjugatedDoubleBond
M  BCL CHI  20   R  22   S
M  BCL DBI - - -
M  END
> <ConfClashScore>
0 

> <ConfOneFourInteractionScore>
-0.981767 

> <ConfScore>
-0.195584 

> <ConfScorePBest>
0.0123175 

> <ConfTolerance>
0.654041 

$$$$
L07.****
  PyMOL2.5          3D                             0

 23 22  0  0  0  0  0  0  0  0999 V2000
   10.0879   -2.5742    4.3942 O   0  0  0  1  0  0  0  0  0  0  0  0
   10.2742   -3.2654    1.9490 O   0  0  0  1  0  0  0  0  0  0  0  0
    8.0894   -3.3692    3.2227 O   0  0  0  0  0  0  0  0  0  0  0  0
    9.8101   -3.8700    0.7190 C   0  0  0  1  0  0  0  0  0  0  0  0
    8.8779   -3.4331    0.4273 H   0  0  0  1  0  0  0  0  0  0  0  0
    9.6834   -4.9236    0.8560 H   0  0  0  1  0  0  0  0  0  0  0  0
   11.8658   -1.3595    5.7968 O   0  0  0  0  0  0  0  0  0  0  0  0
   12.5420   -3.5929    4.4846 O   0  5  0  1  0  0  0  0  0  0  0  0
   10.8626   -3.6088   -0.3505 C   0  0  0  1  0  0  0  0  0  0  0  0
   11.0482   -2.5560   -0.3958 H   0  0  0  1  0  0  0  0  0  0  0  0
   10.4819   -3.9452   -1.2922 H   0  0  0  1  0  0  0  0  0  0  0  0
   12.1650   -4.3138   -0.0808 C   0  0  0  1  0  0  0  0  0  0  0  0
   12.0597   -5.8062    0.0306 C   0  0  0  1  0  0  0  0  0  0  0  0
   13.0313   -6.2212    0.1997 H   0  0  0  1  0  0  0  0  0  0  0  0
   11.6554   -6.2036   -0.8769 H   0  0  0  1  0  0  0  0  0  0  0  0
   11.4172   -6.0582    0.8483 H   0  0  0  1  0  0  0  0  0  0  0  0
   13.3029   -3.6392    0.0440 C   0  0  0  1  0  0  0  0  0  0  0  0
   13.2945   -2.5994    0.0253 H   0  0  0  1  0  0  0  0  0  0  0  0
   14.2010   -4.1505    0.1603 H   0  0  0  1  0  0  0  0  0  0  0  0
   11.3857   -2.8638    5.3540 P   0  0  0  1  0  0  0  0  0  0  0  0
   10.9359   -3.6567    6.5200 O   0  0  0  1  0  0  0  0  0  0  0  0
    9.5934   -3.6112    3.3249 P   0  0  0  1  0  0  0  0  0  0  0  0
    9.9580   -5.0184    3.6565 O   0  0  0  1  0  0  0  0  0  0  0  0
  1 20  1  0  0  0  0
  1 22  1  0  0  0  0
  2  4  1  0  0  0  0
  2 22  1  0  0  0  0
  3 22  1  0  0  0  0
  4  5  1  0  0  0  0
  4  6  1  0  0  0  0
  4  9  1  0  0  0  0
  7 20  1  0  0  0  0
  8 20  1  0  0  0  0
  9 10  1  0  0  0  0
  9 11  1  0  0  0  0
  9 12  1  0  0  0  0
 12 13  1  0  0  0  0
 12 17  2  0  0  0  0
 13 14  1  0  0  0  0
 13 15  1  0  0  0  0
 13 16  1  0  0  0  0
 17 18  1  0  0  0  0
 17 19  1  0  0  0  0
 20 21  2  0  0  0  0
 22 23  2  0  0  0  0
M  BCL ATM O_Tr2TrTrPi2 O_Tr2TrTrPi2 O_Te2Te2TeTe C_TeTeTeTe H_S H_S O_Te2Te2TeTe O_Te2Te2Te2Te C_TeTeTeTe H_S H_S C_TrTrTrPi C_TeTeTeTe H_S H_S H_S C_TrTrTrPi H_S H_S P_TeTeTeTePi O_Tr2Tr2TrPi P_TeTeTeTePi O_Tr2Tr2TrPi
M  BCL BND ConjugatedSingleBond ConjugatedSingleBond NonConjugatedSingleBond ConjugatedSingleBond ConjugatedSingleBond NonConjugatedSingleBond NonConjugatedSingleBond NonConjugatedSingleBond ConjugatedSingleBond ConjugatedSingleBond NonConjugatedSingleBond NonConjugatedSingleBond NonConjugatedSingleBond NonConjugatedSingleBond ConjugatedDoubleBond NonConjugatedSingleBond NonConjugatedSingleBond NonConjugatedSingleBond NonConjugatedSingleBond NonConjugatedSingleBond ConjugatedDoubleBond ConjugatedDoubleBond
M  BCL CHI  20   R  22   S
M  BCL DBI - - -
M  END
> <ConfClashScore>
0 

> <ConfOneFourInteractionScore>
-0.968935 

> <ConfScore>
-0.192707 

> <ConfScorePBest>
0.0122145 

> <ConfTolerance>
0.512457 

$$$$
L07.****
  PyMOL2.5          3D                             0

 23 22  0  0  0  0  0  0  0  0999 V2000
   15.0301   -7.2073   -5.5789 O   0  0  0  1  0  0  0  0  0  0  0  0
   14.0922   -6.3314   -3.4257 O   0  0  0  1  0  0  0  0  0  0  0  0
   12.9758   -8.2588   -4.5645 O   0  0  0  0  0  0  0  0  0  0  0  0
   13.1175   -5.8207   -2.4860 C   0  0  0  1  0  0  0  0  0  0  0  0
   12.4302   -6.5953   -2.2167 H   0  0  0  1  0  0  0  0  0  0  0  0
   12.5820   -5.0044   -2.9239 H   0  0  0  1  0  0  0  0  0  0  0  0
   17.1197   -7.8941   -7.0177 O   0  0  0  0  0  0  0  0  0  0  0  0
   14.9880   -6.9287   -8.1937 O   0  5  0  1  0  0  0  0  0  0  0  0
   13.8740   -5.3420   -1.2467 C   0  0  0  1  0  0  0  0  0  0  0  0
   14.6082   -4.6171   -1.5304 H   0  0  0  1  0  0  0  0  0  0  0  0
   14.3560   -6.1729   -0.7754 H   0  0  0  1  0  0  0  0  0  0  0  0
   12.8893   -4.7197   -0.2933 C   0  0  0  1  0  0  0  0  0  0  0  0
   11.7281   -5.5997    0.0749 C   0  0  0  1  0  0  0  0  0  0  0  0
   12.0812   -6.4429    0.6310 H   0  0  0  1  0  0  0  0  0  0  0  0
   11.2412   -5.9386   -0.8156 H   0  0  0  1  0  0  0  0  0  0  0  0
   11.0350   -5.0442    0.6716 H   0  0  0  1  0  0  0  0  0  0  0  0
   13.0141   -3.4915    0.1980 C   0  0  0  1  0  0  0  0  0  0  0  0
   13.8159   -2.8957   -0.0914 H   0  0  0  1  0  0  0  0  0  0  0  0
   12.3107   -3.1263    0.8714 H   0  0  0  1  0  0  0  0  0  0  0  0
   15.4798   -7.9012   -6.9951 P   0  0  0  1  0  0  0  0  0  0  0  0
   14.8969   -9.2615   -6.9877 O   0  0  0  1  0  0  0  0  0  0  0  0
   13.6328   -6.9545   -4.8279 P   0  0  0  1  0  0  0  0  0  0  0  0
   12.9225   -5.8927   -5.5625 O   0  0  0  1  0  0  0  0  0  0  0  0
  1 20  1  0  0  0  0
  1 22  1  0  0  0  0
  2  4  1  0  0  0  0
  2 22  1  0  0  0  0
  3 22  1  0  0  0  0
  4  5  1  0  0  0  0
  4  6  1  0  0  0  0
  4  9  1  0  0  0  0
  7 20  1  0  0  0  0
  8 20  1  0  0  0  0
  9 10  1  0  0  0  0
  9 11  1  0  0  0  0
  9 12  1  0  0  0  0
 12 13  1  0  0  0  0
 12 17  2  0  0  0  0
 13 14  1  0  0  0  0
 13 15  1  0  0  0  0
 13 16  1  0  0  0  0
 17 18  1  0  0  0  0
 17 19  1  0  0  0  0
 20 21  2  0  0  0  0
 22 23  2  0  0  0  0
M  BCL ATM O_Tr2TrTrPi2 O_Tr2TrTrPi2 O_Te2Te2TeTe C_TeTeTeTe H_S H_S O_Te2Te2TeTe O_Te2Te2Te2Te C_TeTeTeTe H_S H_S C_TrTrTrPi C_TeTeTeTe H_S H_S H_S C_TrTrTrPi H_S H_S P_TeTeTeTePi O_Tr2Tr2TrPi P_TeTeTeTePi O_Tr2Tr2TrPi
M  BCL BND ConjugatedSingleBond ConjugatedSingleBond NonConjugatedSingleBond ConjugatedSingleBond ConjugatedSingleBond NonConjugatedSingleBond NonConjugatedSingleBond NonConjugatedSingleBond ConjugatedSingleBond ConjugatedSingleBond NonConjugatedSingleBond NonConjugatedSingleBond NonConjugatedSingleBond NonConjugatedSingleBond ConjugatedDoubleBond NonConjugatedSingleBond NonConjugatedSingleBond NonConjugatedSingleBond NonConjugatedSingleBond NonConjugatedSingleBond ConjugatedDoubleBond ConjugatedDoubleBond
M  BCL CHI  20   R  22   S
M  BCL DBI - - -
M  END
> <ConfClashScore>
0 

> <ConfOneFourInteractionScore>
-0.975364 

> <ConfScore>
-0.190897 

> <ConfScorePBest>
0.0121115 

> <ConfTolerance>
0.525864 

$$$$
L07.****
  PyMOL2.5          3D                             0

 23 22  0  0  0  0  0  0  0  0999 V2000
   11.9277   -6.6985    4.5460 O   0  0  0  1  0  0  0  0  0  0  0  0
   13.3668   -5.2521    3.0431 O   0  0  0  1  0  0  0  0  0  0  0  0
   14.3773   -6.2352    5.0245 O   0  0  0  0  0  0  0  0  0  0  0  0
   13.7598   -6.2329    2.0484 C   0  0  0  1  0  0  0  0  0  0  0  0
   12.9486   -6.9043    1.8583 H   0  0  0  1  0  0  0  0  0  0  0  0
   14.6070   -6.7859    2.3967 H   0  0  0  1  0  0  0  0  0  0  0  0
    9.9489   -8.4599    4.9675 O   0  0  0  0  0  0  0  0  0  0  0  0
   11.3287   -7.5637    6.9964 O   0  5  0  1  0  0  0  0  0  0  0  0
   14.1198   -5.4804    0.7740 C   0  0  0  1  0  0  0  0  0  0  0  0
   14.4933   -6.1824    0.0580 H   0  0  0  1  0  0  0  0  0  0  0  0
   14.8817   -4.7654    1.0044 H   0  0  0  1  0  0  0  0  0  0  0  0
   12.9501   -4.7549    0.1678 C   0  0  0  1  0  0  0  0  0  0  0  0
   11.6990   -5.5772    0.0369 C   0  0  0  1  0  0  0  0  0  0  0  0
   11.8969   -6.4341   -0.5726 H   0  0  0  1  0  0  0  0  0  0  0  0
   10.9304   -4.9870   -0.4167 H   0  0  0  1  0  0  0  0  0  0  0  0
   11.3789   -5.8961    1.0069 H   0  0  0  1  0  0  0  0  0  0  0  0
   12.9937   -3.4875   -0.2287 C   0  0  0  1  0  0  0  0  0  0  0  0
   12.1281   -3.0185   -0.5639 H   0  0  0  1  0  0  0  0  0  0  0  0
   13.8926   -2.9650   -0.2038 H   0  0  0  1  0  0  0  0  0  0  0  0
   11.4477   -7.9885    5.4376 P   0  0  0  1  0  0  0  0  0  0  0  0
   12.3391   -9.1684    5.3756 O   0  0  0  1  0  0  0  0  0  0  0  0
   13.1103   -5.6188    4.5817 P   0  0  0  1  0  0  0  0  0  0  0  0
   12.5530   -4.4645    5.3051 O   0  0  0  1  0  0  0  0  0  0  0  0
  1 20  1  0  0  0  0
  1 22  1  0  0  0  0
  2  4  1  0  0  0  0
  2 22  1  0  0  0  0
  3 22  1  0  0  0  0
  4  5  1  0  0  0  0
  4  6  1  0  0  0  0
  4  9  1  0  0  0  0
  7 20  1  0  0  0  0
  8 20  1  0  0  0  0
  9 10  1  0  0  0  0
  9 11  1  0  0  0  0
  9 12  1  0  0  0  0
 12 13  1  0  0  0  0
 12 17  2  0  0  0  0
 13 14  1  0  0  0  0
 13 15  1  0  0  0  0
 13 16  1  0  0  0  0
 17 18  1  0  0  0  0
 17 19  1  0  0  0  0
 20 21  2  0  0  0  0
 22 23  2  0  0  0  0
M  BCL ATM O_Tr2TrTrPi2 O_Tr2TrTrPi2 O_Te2Te2TeTe C_TeTeTeTe H_S H_S O_Te2Te2TeTe O_Te2Te2Te2Te C_TeTeTeTe H_S H_S C_TrTrTrPi C_TeTeTeTe H_S H_S H_S C_TrTrTrPi H_S H_S P_TeTeTeTePi O_Tr2Tr2TrPi P_TeTeTeTePi O_Tr2Tr2TrPi
M  BCL BND ConjugatedSingleBond ConjugatedSingleBond NonConjugatedSingleBond ConjugatedSingleBond ConjugatedSingleBond NonConjugatedSingleBond NonConjugatedSingleBond NonConjugatedSingleBond ConjugatedSingleBond ConjugatedSingleBond NonConjugatedSingleBond NonConjugatedSingleBond NonConjugatedSingleBond NonConjugatedSingleBond ConjugatedDoubleBond NonConjugatedSingleBond NonConjugatedSingleBond NonConjugatedSingleBond NonConjugatedSingleBond NonConjugatedSingleBond ConjugatedDoubleBond ConjugatedDoubleBond
M  BCL CHI  20   R  22   S
M  BCL DBI - - -
M  END
> <ConfClashScore>
0 

> <ConfOneFourInteractionScore>
-0.968935 

> <ConfScore>
-0.190826 

> <ConfScorePBest>
0.0120085 

> <ConfTolerance>
0.428875 

$$$$
L07.****
  PyMOL2.5          3D                             0

 23 22  0  0  0  0  0  0  0  0999 V2000
   17.3918   -7.0132    1.7298 O   0  0  0  1  0  0  0  0  0  0  0  0
   15.7069   -7.2778   -0.0069 O   0  0  0  1  0  0  0  0  0  0  0  0
   15.7141   -8.8810    1.8782 O   0  0  0  0  0  0  0  0  0  0  0  0
   14.6110   -6.4576    0.4721 C   0  0  0  1  0  0  0  0  0  0  0  0
   14.9328   -5.9061    1.3307 H   0  0  0  1  0  0  0  0  0  0  0  0
   13.7896   -7.0888    0.7403 H   0  0  0  1  0  0  0  0  0  0  0  0
   17.9228   -5.4694   -0.3401 O   0  0  0  0  0  0  0  0  0  0  0  0
   19.9031   -6.3765    1.1020 O   0  5  0  1  0  0  0  0  0  0  0  0
   14.1612   -5.4806   -0.6143 C   0  0  0  1  0  0  0  0  0  0  0  0
   13.9288   -6.0189   -1.5093 H   0  0  0  1  0  0  0  0  0  0  0  0
   14.9432   -4.7778   -0.8131 H   0  0  0  1  0  0  0  0  0  0  0  0
   12.9367   -4.7523   -0.1284 C   0  0  0  1  0  0  0  0  0  0  0  0
   11.7021   -5.5986   -0.0267 C   0  0  0  1  0  0  0  0  0  0  0  0
   10.9383   -5.0555    0.4897 H   0  0  0  1  0  0  0  0  0  0  0  0
   11.9279   -6.4952    0.5119 H   0  0  0  1  0  0  0  0  0  0  0  0
   11.3595   -5.8487   -1.0090 H   0  0  0  1  0  0  0  0  0  0  0  0
   12.9776   -3.4602    0.1787 C   0  0  0  1  0  0  0  0  0  0  0  0
   12.1293   -2.9884    0.5520 H   0  0  0  1  0  0  0  0  0  0  0  0
   13.8571   -2.9212    0.0460 H   0  0  0  1  0  0  0  0  0  0  0  0
   18.3836   -5.8222    1.1938 P   0  0  0  1  0  0  0  0  0  0  0  0
   18.2320   -4.5986    2.0125 O   0  0  0  1  0  0  0  0  0  0  0  0
   16.6105   -8.1250    0.9348 P   0  0  0  1  0  0  0  0  0  0  0  0
   17.6343   -8.8962    0.1919 O   0  0  0  1  0  0  0  0  0  0  0  0
  1 20  1  0  0  0  0
  1 22  1  0  0  0  0
  2  4  1  0  0  0  0
  2 22  1  0  0  0  0
  3 22  1  0  0  0  0
  4  5  1  0  0  0  0
  4  6  1  0  0  0  0
  4  9  1  0  0  0  0
  7 20  1  0  0  0  0
  8 20  1  0  0  0  0
  9 10  1  0  0  0  0
  9 11  1  0  0  0  0
  9 12  1  0  0  0  0
 12 13  1  0  0  0  0
 12 17  2  0  0  0  0
 13 14  1  0  0  0  0
 13 15  1  0  0  0  0
 13 16  1  0  0  0  0
 17 18  1  0  0  0  0
 17 19  1  0  0  0  0
 20 21  2  0  0  0  0
 22 23  2  0  0  0  0
M  BCL ATM O_Tr2TrTrPi2 O_Tr2TrTrPi2 O_Te2Te2TeTe C_TeTeTeTe H_S H_S O_Te2Te2TeTe O_Te2Te2Te2Te C_TeTeTeTe H_S H_S C_TrTrTrPi C_TeTeTeTe H_S H_S H_S C_TrTrTrPi H_S H_S P_TeTeTeTePi O_Tr2Tr2TrPi P_TeTeTeTePi O_Tr2Tr2TrPi
M  BCL BND ConjugatedSingleBond ConjugatedSingleBond NonConjugatedSingleBond ConjugatedSingleBond ConjugatedSingleBond NonConjugatedSingleBond NonConjugatedSingleBond NonConjugatedSingleBond ConjugatedSingleBond ConjugatedSingleBond NonConjugatedSingleBond NonConjugatedSingleBond NonConjugatedSingleBond NonConjugatedSingleBond ConjugatedDoubleBond NonConjugatedSingleBond NonConjugatedSingleBond NonConjugatedSingleBond NonConjugatedSingleBond NonConjugatedSingleBond ConjugatedDoubleBond ConjugatedDoubleBond
M  BCL CHI  20   R  22   S
M  BCL DBI - - -
M  END
> <ConfClashScore>
0 

> <ConfOneFourInteractionScore>
-0.98644 

> <ConfScore>
-0.189039 

> <ConfScorePBest>
0.0119055 

> <ConfTolerance>
0.609663 

$$$$
L07.****
  PyMOL2.5          3D                             0

 23 22  0  0  0  0  0  0  0  0999 V2000
   14.6451   -7.6044    4.7065 O   0  0  0  1  0  0  0  0  0  0  0  0
   15.2709   -6.2850    2.6632 O   0  0  0  1  0  0  0  0  0  0  0  0
   17.0368   -7.1962    4.2341 O   0  0  0  0  0  0  0  0  0  0  0  0
   14.0672   -5.6038    2.2379 C   0  0  0  1  0  0  0  0  0  0  0  0
   14.0163   -4.6362    2.6919 H   0  0  0  1  0  0  0  0  0  0  0  0
   13.2069   -6.1752    2.5177 H   0  0  0  1  0  0  0  0  0  0  0  0
   13.0274   -9.0516    6.2776 O   0  0  0  0  0  0  0  0  0  0  0  0
   12.8974   -6.4316    6.1604 O   0  5  0  1  0  0  0  0  0  0  0  0
   14.1261   -5.4633    0.7225 C   0  0  0  1  0  0  0  0  0  0  0  0
   14.1779   -6.4413    0.2915 H   0  0  0  1  0  0  0  0  0  0  0  0
   15.0069   -4.9127    0.4656 H   0  0  0  1  0  0  0  0  0  0  0  0
   12.9309   -4.7498    0.1495 C   0  0  0  1  0  0  0  0  0  0  0  0
   11.6917   -5.5891    0.0396 C   0  0  0  1  0  0  0  0  0  0  0  0
   11.9006   -6.4592   -0.5470 H   0  0  0  1  0  0  0  0  0  0  0  0
   10.9165   -5.0203   -0.4299 H   0  0  0  1  0  0  0  0  0  0  0  0
   11.3746   -5.8861    1.0174 H   0  0  0  1  0  0  0  0  0  0  0  0
   12.9989   -3.4766   -0.2207 C   0  0  0  1  0  0  0  0  0  0  0  0
   12.1493   -2.9934   -0.5761 H   0  0  0  1  0  0  0  0  0  0  0  0
   13.9008   -2.9630   -0.1553 H   0  0  0  1  0  0  0  0  0  0  0  0
   13.9258   -7.6832    6.1782 P   0  0  0  1  0  0  0  0  0  0  0  0
   15.0035   -7.4602    7.1678 O   0  0  0  1  0  0  0  0  0  0  0  0
   15.7057   -6.5425    4.1981 P   0  0  0  1  0  0  0  0  0  0  0  0
   15.5240   -5.2483    4.8927 O   0  0  0  1  0  0  0  0  0  0  0  0
  1 20  1  0  0  0  0
  1 22  1  0  0  0  0
  2  4  1  0  0  0  0
  2 22  1  0  0  0  0
  3 22  1  0  0  0  0
  4  5  1  0  0  0  0
  4  6  1  0  0  0  0
  4  9  1  0  0  0  0
  7 20  1  0  0  0  0
  8 20  1  0  0  0  0
  9 10  1  0  0  0  0
  9 11  1  0  0  0  0
  9 12  1  0  0  0  0
 12 13  1  0  0  0  0
 12 17  2  0  0  0  0
 13 14  1  0  0  0  0
 13 15  1  0  0  0  0
 13 16  1  0  0  0  0
 17 18  1  0  0  0  0
 17 19  1  0  0  0  0
 20 21  2  0  0  0  0
 22 23  2  0  0  0  0
M  BCL ATM O_Tr2TrTrPi2 O_Tr2TrTrPi2 O_Te2Te2TeTe C_TeTeTeTe H_S H_S O_Te2Te2TeTe O_Te2Te2Te2Te C_TeTeTeTe H_S H_S C_TrTrTrPi C_TeTeTeTe H_S H_S H_S C_TrTrTrPi H_S H_S P_TeTeTeTePi O_Tr2Tr2TrPi P_TeTeTeTePi O_Tr2Tr2TrPi
M  BCL BND ConjugatedSingleBond ConjugatedSingleBond NonConjugatedSingleBond ConjugatedSingleBond ConjugatedSingleBond NonConjugatedSingleBond NonConjugatedSingleBond NonConjugatedSingleBond ConjugatedSingleBond ConjugatedSingleBond NonConjugatedSingleBond NonConjugatedSingleBond NonConjugatedSingleBond NonConjugatedSingleBond ConjugatedDoubleBond NonConjugatedSingleBond NonConjugatedSingleBond NonConjugatedSingleBond NonConjugatedSingleBond NonConjugatedSingleBond ConjugatedDoubleBond ConjugatedDoubleBond
M  BCL CHI  20   R  22   S
M  BCL DBI - - -
M  END
> <ConfClashScore>
0 

> <ConfOneFourInteractionScore>
-0.98644 

> <ConfScore>
-0.188319 

> <ConfScorePBest>
0.0118025 

> <ConfTolerance>
0.613772 

$$$$
L07.****
  PyMOL2.5          3D                             0

 23 22  0  0  0  0  0  0  0  0999 V2000
   17.1920   -3.6386   -2.4982 O   0  0  0  1  0  0  0  0  0  0  0  0
   15.7279   -4.5328   -0.6253 O   0  0  0  1  0  0  0  0  0  0  0  0
   17.3335   -2.7335   -0.1452 O   0  0  0  0  0  0  0  0  0  0  0  0
   15.3835   -4.7090    0.7691 C   0  0  0  1  0  0  0  0  0  0  0  0
   15.2470   -3.7593    1.2427 H   0  0  0  1  0  0  0  0  0  0  0  0
   16.1512   -5.2545    1.2771 H   0  0  0  1  0  0  0  0  0  0  0  0
   16.9539   -3.9822   -5.1393 O   0  0  0  0  0  0  0  0  0  0  0  0
   17.7067   -5.9946   -3.5463 O   0  5  0  1  0  0  0  0  0  0  0  0
   14.0802   -5.4971    0.7734 C   0  0  0  1  0  0  0  0  0  0  0  0
   13.8290   -5.7343    1.7861 H   0  0  0  1  0  0  0  0  0  0  0  0
   14.2272   -6.4015    0.2207 H   0  0  0  1  0  0  0  0  0  0  0  0
   12.9322   -4.7415    0.1593 C   0  0  0  1  0  0  0  0  0  0  0  0
   11.6982   -5.5911    0.0410 C   0  0  0  1  0  0  0  0  0  0  0  0
   11.9040   -6.4348   -0.5841 H   0  0  0  1  0  0  0  0  0  0  0  0
   10.9074   -5.0130   -0.3895 H   0  0  0  1  0  0  0  0  0  0  0  0
   11.4047   -5.9304    1.0124 H   0  0  0  1  0  0  0  0  0  0  0  0
   13.0029   -3.4615   -0.2354 C   0  0  0  1  0  0  0  0  0  0  0  0
   12.1577   -2.9873   -0.6127 H   0  0  0  1  0  0  0  0  0  0  0  0
   13.9021   -2.9438   -0.1642 H   0  0  0  1  0  0  0  0  0  0  0  0
   17.8176   -4.3999   -3.8092 P   0  0  0  1  0  0  0  0  0  0  0  0
   19.2686   -4.1156   -3.8745 O   0  0  0  1  0  0  0  0  0  0  0  0
   17.1639   -4.0029   -0.9854 P   0  0  0  1  0  0  0  0  0  0  0  0
   18.2194   -5.0154   -0.7495 O   0  0  0  1  0  0  0  0  0  0  0  0
  1 20  1  0  0  0  0
  1 22  1  0  0  0  0
  2  4  1  0  0  0  0
  2 22  1  0  0  0  0
  3 22  1  0  0  0  0
  4  5  1  0  0  0  0
  4  6  1  0  0  0  0
  4  9  1  0  0  0  0
  7 20  1  0  0  0  0
  8 20  1  0  0  0  0
  9 10  1  0  0  0  0
  9 11  1  0  0  0  0
  9 12  1  0  0  0  0
 12 13  1  0  0  0  0
 12 17  2  0  0  0  0
 13 14  1  0  0  0  0
 13 15  1  0  0  0  0
 13 16  1  0  0  0  0
 17 18  1  0  0  0  0
 17 19  1  0  0  0  0
 20 21  2  0  0  0  0
 22 23  2  0  0  0  0
M  BCL ATM O_Tr2TrTrPi2 O_Tr2TrTrPi2 O_Te2Te2TeTe C_TeTeTeTe H_S H_S O_Te2Te2TeTe O_Te2Te2Te2Te C_TeTeTeTe H_S H_S C_TrTrTrPi C_TeTeTeTe H_S H_S H_S C_TrTrTrPi H_S H_S P_TeTeTeTePi O_Tr2Tr2TrPi P_TeTeTeTePi O_Tr2Tr2TrPi
M  BCL BND ConjugatedSingleBond ConjugatedSingleBond NonConjugatedSingleBond ConjugatedSingleBond ConjugatedSingleBond NonConjugatedSingleBond NonConjugatedSingleBond NonConjugatedSingleBond ConjugatedSingleBond ConjugatedSingleBond NonConjugatedSingleBond NonConjugatedSingleBond NonConjugatedSingleBond NonConjugatedSingleBond ConjugatedDoubleBond NonConjugatedSingleBond NonConjugatedSingleBond NonConjugatedSingleBond NonConjugatedSingleBond NonConjugatedSingleBond ConjugatedDoubleBond ConjugatedDoubleBond
M  BCL CHI  20   R  22   S
M  BCL DBI - - -
M  END
> <ConfClashScore>
0 

> <ConfOneFourInteractionScore>
-0.981767 

> <ConfScore>
-0.181863 

> <ConfScorePBest>
0.0116995 

> <ConfTolerance>
0.583291 

$$$$
L07.****
  PyMOL2.5          3D                             0

 23 22  0  0  0  0  0  0  0  0999 V2000
   13.0279   -7.2117    4.4739 O   0  0  0  1  0  0  0  0  0  0  0  0
   13.9957   -5.4956    2.8331 O   0  0  0  1  0  0  0  0  0  0  0  0
   15.5258   -6.5988    4.4215 O   0  0  0  0  0  0  0  0  0  0  0  0
   14.1674   -6.3336    1.6660 C   0  0  0  1  0  0  0  0  0  0  0  0
   13.3507   -7.0221    1.6035 H   0  0  0  1  0  0  0  0  0  0  0  0
   15.0857   -6.8757    1.7536 H   0  0  0  1  0  0  0  0  0  0  0  0
   11.2159   -6.9750    6.4520 O   0  0  0  0  0  0  0  0  0  0  0  0
   10.7778   -8.6010    4.4327 O   0  5  0  1  0  0  0  0  0  0  0  0
   14.2050   -5.4859    0.4050 C   0  0  0  1  0  0  0  0  0  0  0  0
   14.4341   -6.1293   -0.4186 H   0  0  0  1  0  0  0  0  0  0  0  0
   14.9829   -4.7600    0.5184 H   0  0  0  1  0  0  0  0  0  0  0  0
   12.9302   -4.7536    0.0816 C   0  0  0  1  0  0  0  0  0  0  0  0
   11.6986   -5.6128    0.0225 C   0  0  0  1  0  0  0  0  0  0  0  0
   10.8738   -5.0309   -0.3324 H   0  0  0  1  0  0  0  0  0  0  0  0
   11.4770   -5.9858    1.0006 H   0  0  0  1  0  0  0  0  0  0  0  0
   11.8682   -6.4336   -0.6428 H   0  0  0  1  0  0  0  0  0  0  0  0
   12.9690   -3.4415   -0.1244 C   0  0  0  1  0  0  0  0  0  0  0  0
   12.1043   -2.9335   -0.3995 H   0  0  0  1  0  0  0  0  0  0  0  0
   13.8634   -2.9230   -0.0105 H   0  0  0  1  0  0  0  0  0  0  0  0
   11.4293   -7.1743    4.8382 P   0  0  0  1  0  0  0  0  0  0  0  0
   10.6604   -6.2137    4.0156 O   0  0  0  1  0  0  0  0  0  0  0  0
   14.1534   -6.0434    4.3458 P   0  0  0  1  0  0  0  0  0  0  0  0
   13.7307   -5.0508    5.3153 O   0  0  0  1  0  0  0  0  0  0  0  0
  1 20  1  0  0  0  0
  1 22  1  0  0  0  0
  2  4  1  0  0  0  0
  2 22  1  0  0  0  0
  3 22  1  0  0  0  0
  4  5  1  0  0  0  0
  4  6  1  0  0  0  0
  4  9  1  0  0  0  0
  7 20  1  0  0  0  0
  8 20  1  0  0  0  0
  9 10  1  0  0  0  0
  9 11  1  0  0  0  0
  9 12  1  0  0  0  0
 12 13  1  0  0  0  0
 12 17  2  0  0  0  0
 13 14  1  0  0  0  0
 13 15  1  0  0  0  0
 13 16  1  0  0  0  0
 17 18  1  0  0  0  0
 17 19  1  0  0  0  0
 20 21  2  0  0  0  0
 22 23  2  0  0  0  0
M  BCL ATM O_Tr2TrTrPi2 O_Tr2TrTrPi2 O_Te2Te2TeTe C_TeTeTeTe H_S H_S O_Te2Te2TeTe O_Te2Te2Te2Te C_TeTeTeTe H_S H_S C_TrTrTrPi C_TeTeTeTe H_S H_S H_S C_TrTrTrPi H_S H_S P_TeTeTeTePi O_Tr2Tr2TrPi P_TeTeTeTePi O_Tr2Tr2TrPi
M  BCL BND ConjugatedSingleBond ConjugatedSingleBond NonConjugatedSingleBond ConjugatedSingleBond ConjugatedSingleBond NonConjugatedSingleBond NonConjugatedSingleBond NonConjugatedSingleBond ConjugatedSingleBond ConjugatedSingleBond NonConjugatedSingleBond NonConjugatedSingleBond NonConjugatedSingleBond NonConjugatedSingleBond ConjugatedDoubleBond NonConjugatedSingleBond NonConjugatedSingleBond NonConjugatedSingleBond NonConjugatedSingleBond NonConjugatedSingleBond ConjugatedDoubleBond ConjugatedDoubleBond
M  BCL CHI  20   R  22   S
M  BCL DBI - - -
M  END
> <ConfClashScore>
0 

> <ConfOneFourInteractionScore>
-0.968935 

> <ConfScore>
-0.181501 

> <ConfScorePBest>
0.0115965 

> <ConfTolerance>
0.509489 

$$$$
L07.****
  PyMOL2.5          3D                             0

 23 22  0  0  0  0  0  0  0  0999 V2000
   13.9857   -3.4254    5.0064 O   0  0  0  1  0  0  0  0  0  0  0  0
   14.0981   -4.7805    2.8601 O   0  0  0  1  0  0  0  0  0  0  0  0
   12.4931   -5.4231    4.6097 O   0  0  0  0  0  0  0  0  0  0  0  0
   14.1575   -5.9809    2.0541 C   0  0  0  1  0  0  0  0  0  0  0  0
   13.2975   -6.5891    2.2423 H   0  0  0  1  0  0  0  0  0  0  0  0
   15.0436   -6.5332    2.2878 H   0  0  0  1  0  0  0  0  0  0  0  0
   16.5299   -2.4113    4.8876 O   0  0  0  0  0  0  0  0  0  0  0  0
   15.5516   -3.0661    7.1087 O   0  5  0  1  0  0  0  0  0  0  0  0
   14.1819   -5.5562    0.5949 C   0  0  0  1  0  0  0  0  0  0  0  0
   14.2540   -6.4395   -0.0047 H   0  0  0  1  0  0  0  0  0  0  0  0
   15.0496   -4.9491    0.4423 H   0  0  0  1  0  0  0  0  0  0  0  0
   12.9815   -4.7760    0.1298 C   0  0  0  1  0  0  0  0  0  0  0  0
   11.7032   -5.5620    0.0491 C   0  0  0  1  0  0  0  0  0  0  0  0
   11.8784   -6.4755   -0.4798 H   0  0  0  1  0  0  0  0  0  0  0  0
   10.9634   -4.9872   -0.4679 H   0  0  0  1  0  0  0  0  0  0  0  0
   11.3576   -5.7829    1.0373 H   0  0  0  1  0  0  0  0  0  0  0  0
   12.9762   -3.4892   -0.2014 C   0  0  0  1  0  0  0  0  0  0  0  0
   12.1075   -3.0516   -0.5695 H   0  0  0  1  0  0  0  0  0  0  0  0
   13.8398   -2.9201   -0.0925 H   0  0  0  1  0  0  0  0  0  0  0  0
   15.0987   -2.4325    5.6882 P   0  0  0  1  0  0  0  0  0  0  0  0
   14.5645   -1.0906    6.0112 O   0  0  0  1  0  0  0  0  0  0  0  0
   13.9066   -4.8647    4.4197 P   0  0  0  1  0  0  0  0  0  0  0  0
   14.9576   -5.6747    5.0787 O   0  0  0  1  0  0  0  0  0  0  0  0
  1 20  1  0  0  0  0
  1 22  1  0  0  0  0
  2  4  1  0  0  0  0
  2 22  1  0  0  0  0
  3 22  1  0  0  0  0
  4  5  1  0  0  0  0
  4  6  1  0  0  0  0
  4  9  1  0  0  0  0
  7 20  1  0  0  0  0
  8 20  1  0  0  0  0
  9 10  1  0  0  0  0
  9 11  1  0  0  0  0
  9 12  1  0  0  0  0
 12 13  1  0  0  0  0
 12 17  2  0  0  0  0
 13 14  1  0  0  0  0
 13 15  1  0  0  0  0
 13 16  1  0  0  0  0
 17 18  1  0  0  0  0
 17 19  1  0  0  0  0
 20 21  2  0  0  0  0
 22 23  2  0  0  0  0
M  BCL ATM O_Tr2TrTrPi2 O_Tr2TrTrPi2 O_Te2Te2TeTe C_TeTeTeTe H_S H_S O_Te2Te2TeTe O_Te2Te2Te2Te C_TeTeTeTe H_S H_S C_TrTrTrPi C_TeTeTeTe H_S H_S H_S C_TrTrTrPi H_S H_S P_TeTeTeTePi O_Tr2Tr2TrPi P_TeTeTeTePi O_Tr2Tr2TrPi
M  BCL BND ConjugatedSingleBond ConjugatedSingleBond NonConjugatedSingleBond ConjugatedSingleBond ConjugatedSingleBond NonConjugatedSingleBond NonConjugatedSingleBond NonConjugatedSingleBond ConjugatedSingleBond ConjugatedSingleBond NonConjugatedSingleBond NonConjugatedSingleBond NonConjugatedSingleBond NonConjugatedSingleBond ConjugatedDoubleBond NonConjugatedSingleBond NonConjugatedSingleBond NonConjugatedSingleBond NonConjugatedSingleBond NonConjugatedSingleBond ConjugatedDoubleBond ConjugatedDoubleBond
M  BCL CHI  20   R  22   S
M  BCL DBI - - -
M  END
> <ConfClashScore>
0 

> <ConfOneFourInteractionScore>
-0.992869 

> <ConfScore>
-0.180432 

> <ConfScorePBest>
0.0114935 

> <ConfTolerance>
0.62526 

$$$$
L07.****
  PyMOL2.5          3D                             0

 23 22  0  0  0  0  0  0  0  0999 V2000
   13.3834   -8.7680   -2.6608 O   0  0  0  1  0  0  0  0  0  0  0  0
   13.2184   -7.6838   -0.4864 O   0  0  0  1  0  0  0  0  0  0  0  0
   14.5162   -9.8512   -0.8242 O   0  0  0  0  0  0  0  0  0  0  0  0
   14.2719   -6.7498   -0.7426 C   0  0  0  1  0  0  0  0  0  0  0  0
   14.1822   -6.4018   -1.7505 H   0  0  0  1  0  0  0  0  0  0  0  0
   15.2096   -7.2504   -0.6198 H   0  0  0  1  0  0  0  0  0  0  0  0
   15.5098   -8.3770   -4.0854 O   0  0  0  0  0  0  0  0  0  0  0  0
   13.4001   -8.7051   -5.3961 O   0  5  0  1  0  0  0  0  0  0  0  0
   14.2377   -5.5854    0.1623 C   0  0  0  1  0  0  0  0  0  0  0  0
   15.0710   -4.9535   -0.0641 H   0  0  0  1  0  0  0  0  0  0  0  0
   14.3183   -5.9351    1.1704 H   0  0  0  1  0  0  0  0  0  0  0  0
   12.9745   -4.7767    0.0352 C   0  0  0  1  0  0  0  0  0  0  0  0
   11.7090   -5.5867    0.0076 C   0  0  0  1  0  0  0  0  0  0  0  0
   10.8711   -4.9357   -0.1302 H   0  0  0  1  0  0  0  0  0  0  0  0
   11.6027   -6.1134    0.9329 H   0  0  0  1  0  0  0  0  0  0  0  0
   11.7521   -6.2879   -0.7995 H   0  0  0  1  0  0  0  0  0  0  0  0
   12.9532   -3.4507   -0.0478 C   0  0  0  1  0  0  0  0  0  0  0  0
   12.0465   -2.9515   -0.1481 H   0  0  0  1  0  0  0  0  0  0  0  0
   13.8425   -2.9127   -0.0124 H   0  0  0  1  0  0  0  0  0  0  0  0
   14.1181   -9.2439   -4.0476 P   0  0  0  1  0  0  0  0  0  0  0  0
   14.5230  -10.6675   -4.0525 O   0  0  0  1  0  0  0  0  0  0  0  0
   13.2442   -9.1639   -1.1412 P   0  0  0  1  0  0  0  0  0  0  0  0
   11.9692   -9.8400   -0.8177 O   0  0  0  1  0  0  0  0  0  0  0  0
  1 20  1  0  0  0  0
  1 22  1  0  0  0  0
  2  4  1  0  0  0  0
  2 22  1  0  0  0  0
  3 22  1  0  0  0  0
  4  5  1  0  0  0  0
  4  6  1  0  0  0  0
  4  9  1  0  0  0  0
  7 20  1  0  0  0  0
  8 20  1  0  0  0  0
  9 10  1  0  0  0  0
  9 11  1  0  0  0  0
  9 12  1  0  0  0  0
 12 13  1  0  0  0  0
 12 17  2  0  0  0  0
 13 14  1  0  0  0  0
 13 15  1  0  0  0  0
 13 16  1  0  0  0  0
 17 18  1  0  0  0  0
 17 19  1  0  0  0  0
 20 21  2  0  0  0  0
 22 23  2  0  0  0  0
M  BCL ATM O_Tr2TrTrPi2 O_Tr2TrTrPi2 O_Te2Te2TeTe C_TeTeTeTe H_S H_S O_Te2Te2TeTe O_Te2Te2Te2Te C_TeTeTeTe H_S H_S C_TrTrTrPi C_TeTeTeTe H_S H_S H_S C_TrTrTrPi H_S H_S P_TeTeTeTePi O_Tr2Tr2TrPi P_TeTeTeTePi O_Tr2Tr2TrPi
M  BCL BND ConjugatedSingleBond ConjugatedSingleBond NonConjugatedSingleBond ConjugatedSingleBond ConjugatedSingleBond NonConjugatedSingleBond NonConjugatedSingleBond NonConjugatedSingleBond ConjugatedSingleBond ConjugatedSingleBond NonConjugatedSingleBond NonConjugatedSingleBond NonConjugatedSingleBond NonConjugatedSingleBond ConjugatedDoubleBond NonConjugatedSingleBond NonConjugatedSingleBond NonConjugatedSingleBond NonConjugatedSingleBond NonConjugatedSingleBond ConjugatedDoubleBond ConjugatedDoubleBond
M  BCL CHI  20   R  22   S
M  BCL DBI - - -
M  END
> <ConfClashScore>
0 

> <ConfOneFourInteractionScore>
-0.975364 

> <ConfScore>
-0.17952 

> <ConfScorePBest>
0.0113905 

> <ConfTolerance>
0.505576 

$$$$
L07.****
  PyMOL2.5          3D                             0

 23 22  0  0  0  0  0  0  0  0999 V2000
   15.2139   -7.2962    5.4142 O   0  0  0  1  0  0  0  0  0  0  0  0
   14.1242   -6.1384    3.5600 O   0  0  0  1  0  0  0  0  0  0  0  0
   13.7749   -5.2669    5.9357 O   0  0  0  0  0  0  0  0  0  0  0  0
   13.1787   -5.3974    2.7458 C   0  0  0  1  0  0  0  0  0  0  0  0
   13.0167   -4.4273    3.1673 H   0  0  0  1  0  0  0  0  0  0  0  0
   12.2491   -5.9249    2.6957 H   0  0  0  1  0  0  0  0  0  0  0  0
   15.7375   -8.1059    7.8476 O   0  0  0  0  0  0  0  0  0  0  0  0
   16.9372   -9.2401    5.7330 O   0  5  0  1  0  0  0  0  0  0  0  0
   13.7738   -5.2640    1.3536 C   0  0  0  1  0  0  0  0  0  0  0  0
   14.0837   -6.2365    1.0325 H   0  0  0  1  0  0  0  0  0  0  0  0
   14.6266   -4.6210    1.4193 H   0  0  0  1  0  0  0  0  0  0  0  0
   12.8489   -4.7028    0.3079 C   0  0  0  1  0  0  0  0  0  0  0  0
   11.7269   -5.6152   -0.0928 C   0  0  0  1  0  0  0  0  0  0  0  0
   12.1175   -6.4337   -0.6606 H   0  0  0  1  0  0  0  0  0  0  0  0
   11.0218   -5.0731   -0.6877 H   0  0  0  1  0  0  0  0  0  0  0  0
   11.2413   -5.9894    0.7842 H   0  0  0  1  0  0  0  0  0  0  0  0
   13.0371   -3.4904   -0.2020 C   0  0  0  1  0  0  0  0  0  0  0  0
   13.8018   -2.8870    0.1623 H   0  0  0  1  0  0  0  0  0  0  0  0
   12.4202   -3.1450   -0.9648 H   0  0  0  1  0  0  0  0  0  0  0  0
   15.5494   -8.6314    6.3055 P   0  0  0  1  0  0  0  0  0  0  0  0
   14.5060   -9.6638    6.1164 O   0  0  0  1  0  0  0  0  0  0  0  0
   13.8566   -6.5055    5.1249 P   0  0  0  1  0  0  0  0  0  0  0  0
   12.8012   -7.4725    5.1028 O   0  0  0  1  0  0  0  0  0  0  0  0
  1 20  1  0  0  0  0
  1 22  1  0  0  0  0
  2  4  1  0  0  0  0
  2 22  1  0  0  0  0
  3 22  1  0  0  0  0
  4  5  1  0  0  0  0
  4  6  1  0  0  0  0
  4  9  1  0  0  0  0
  7 20  1  0  0  0  0
  8 20  1  0  0  0  0
  9 10  1  0  0  0  0
  9 11  1  0  0  0  0
  9 12  1  0  0  0  0
 12 13  1  0  0  0  0
 12 17  2  0  0  0  0
 13 14  1  0  0  0  0
 13 15  1  0  0  0  0
 13 16  1  0  0  0  0
 17 18  1  0  0  0  0
 17 19  1  0  0  0  0
 20 21  2  0  0  0  0
 22 23  2  0  0  0  0
M  BCL ATM O_Tr2TrTrPi2 O_Tr2TrTrPi2 O_Te2Te2TeTe C_TeTeTeTe H_S H_S O_Te2Te2TeTe O_Te2Te2Te2Te C_TeTeTeTe H_S H_S C_TrTrTrPi C_TeTeTeTe H_S H_S H_S C_TrTrTrPi H_S H_S P_TeTeTeTePi O_Tr2Tr2TrPi P_TeTeTeTePi O_Tr2Tr2TrPi
M  BCL BND ConjugatedSingleBond ConjugatedSingleBond NonConjugatedSingleBond ConjugatedSingleBond ConjugatedSingleBond NonConjugatedSingleBond NonConjugatedSingleBond NonConjugatedSingleBond ConjugatedSingleBond ConjugatedSingleBond NonConjugatedSingleBond NonConjugatedSingleBond NonConjugatedSingleBond NonConjugatedSingleBond ConjugatedDoubleBond NonConjugatedSingleBond NonConjugatedSingleBond NonConjugatedSingleBond NonConjugatedSingleBond NonConjugatedSingleBond ConjugatedDoubleBond ConjugatedDoubleBond
M  BCL CHI  20   R  22   S
M  BCL DBI - - -
M  END
> <ConfClashScore>
0 

> <ConfOneFourInteractionScore>
-0.992869 

> <ConfScore>
-0.178186 

> <ConfScorePBest>
0.0112875 

> <ConfTolerance>
0.617387 

$$$$
L07.****
  PyMOL2.5          3D                             0

 23 22  0  0  0  0  0  0  0  0999 V2000
   15.5873   -7.7596   -5.0147 O   0  0  0  1  0  0  0  0  0  0  0  0
   14.5468   -6.4103   -3.2037 O   0  0  0  1  0  0  0  0  0  0  0  0
   13.2216   -7.2055   -5.1123 O   0  0  0  0  0  0  0  0  0  0  0  0
   13.5138   -5.6365   -2.5404 C   0  0  0  1  0  0  0  0  0  0  0  0
   12.5903   -6.1768   -2.5509 H   0  0  0  1  0  0  0  0  0  0  0  0
   13.3845   -4.6986   -3.0389 H   0  0  0  1  0  0  0  0  0  0  0  0
   17.9196   -6.9768   -4.0522 O   0  0  0  0  0  0  0  0  0  0  0  0
   17.5173   -9.4919   -4.8835 O   0  5  0  1  0  0  0  0  0  0  0  0
   13.9618   -5.4027   -1.1036 C   0  0  0  1  0  0  0  0  0  0  0  0
   14.8339   -4.7829   -1.1153 H   0  0  0  1  0  0  0  0  0  0  0  0
   14.2014   -6.3481   -0.6635 H   0  0  0  1  0  0  0  0  0  0  0  0
   12.9100   -4.7341   -0.2594 C   0  0  0  1  0  0  0  0  0  0  0  0
   11.7221   -5.5956    0.0648 C   0  0  0  1  0  0  0  0  0  0  0  0
   12.0506   -6.4853    0.5601 H   0  0  0  1  0  0  0  0  0  0  0  0
   11.2147   -5.8580   -0.8400 H   0  0  0  1  0  0  0  0  0  0  0  0
   11.0551   -5.0568    0.7049 H   0  0  0  1  0  0  0  0  0  0  0  0
   13.0011   -3.4825    0.1773 C   0  0  0  1  0  0  0  0  0  0  0  0
   13.8222   -2.9001   -0.0837 H   0  0  0  1  0  0  0  0  0  0  0  0
   12.2519   -3.0855    0.7796 H   0  0  0  1  0  0  0  0  0  0  0  0
   16.8651   -8.2319   -4.1016 P   0  0  0  1  0  0  0  0  0  0  0  0
   16.4621   -8.5063   -2.7042 O   0  0  0  1  0  0  0  0  0  0  0  0
   14.5342   -6.6030   -4.7830 P   0  0  0  1  0  0  0  0  0  0  0  0
   14.9539   -5.3624   -5.4608 O   0  0  0  1  0  0  0  0  0  0  0  0
  1 20  1  0  0  0  0
  1 22  1  0  0  0  0
  2  4  1  0  0  0  0
  2 22  1  0  0  0  0
  3 22  1  0  0  0  0
  4  5  1  0  0  0  0
  4  6  1  0  0  0  0
  4  9  1  0  0  0  0
  7 20  1  0  0  0  0
  8 20  1  0  0  0  0
  9 10  1  0  0  0  0
  9 11  1  0  0  0  0
  9 12  1  0  0  0  0
 12 13  1  0  0  0  0
 12 17  2  0  0  0  0
 13 14  1  0  0  0  0
 13 15  1  0  0  0  0
 13 16  1  0  0  0  0
 17 18  1  0  0  0  0
 17 19  1  0  0  0  0
 20 21  2  0  0  0  0
 22 23  2  0  0  0  0
M  BCL ATM O_Tr2TrTrPi2 O_Tr2TrTrPi2 O_Te2Te2TeTe C_TeTeTeTe H_S H_S O_Te2Te2TeTe O_Te2Te2Te2Te C_TeTeTeTe H_S H_S C_TrTrTrPi C_TeTeTeTe H_S H_S H_S C_TrTrTrPi H_S H_S P_TeTeTeTePi O_Tr2Tr2TrPi P_TeTeTeTePi O_Tr2Tr2TrPi
M  BCL BND ConjugatedSingleBond ConjugatedSingleBond NonConjugatedSingleBond ConjugatedSingleBond ConjugatedSingleBond NonConjugatedSingleBond NonConjugatedSingleBond NonConjugatedSingleBond ConjugatedSingleBond ConjugatedSingleBond NonConjugatedSingleBond NonConjugatedSingleBond NonConjugatedSingleBond NonConjugatedSingleBond ConjugatedDoubleBond NonConjugatedSingleBond NonConjugatedSingleBond NonConjugatedSingleBond NonConjugatedSingleBond NonConjugatedSingleBond ConjugatedDoubleBond ConjugatedDoubleBond
M  BCL CHI  20   R  22   S
M  BCL DBI - - -
M  END
> <ConfClashScore>
0 

> <ConfOneFourInteractionScore>
-0.992869 

> <ConfScore>
-0.178107 

> <ConfScorePBest>
0.0111845 

> <ConfTolerance>
0.607068 

$$$$
L07.****
  PyMOL2.5          3D                             0

 23 22  0  0  0  0  0  0  0  0999 V2000
   17.9221   -3.7423   -2.7212 O   0  0  0  1  0  0  0  0  0  0  0  0
   16.2412   -5.4097   -1.8706 O   0  0  0  1  0  0  0  0  0  0  0  0
   18.5712   -5.1347   -0.7805 O   0  0  0  0  0  0  0  0  0  0  0  0
   15.2642   -4.6045   -1.1699 C   0  0  0  1  0  0  0  0  0  0  0  0
   15.1029   -3.6871   -1.6965 H   0  0  0  1  0  0  0  0  0  0  0  0
   15.6097   -4.3920   -0.1798 H   0  0  0  1  0  0  0  0  0  0  0  0
   18.3927   -1.6894   -4.3871 O   0  0  0  0  0  0  0  0  0  0  0  0
   16.5065   -3.2610   -4.9132 O   0  5  0  1  0  0  0  0  0  0  0  0
   13.9677   -5.4013   -1.1070 C   0  0  0  1  0  0  0  0  0  0  0  0
   14.1764   -6.3578   -0.6751 H   0  0  0  1  0  0  0  0  0  0  0  0
   13.5995   -5.5319   -2.1032 H   0  0  0  1  0  0  0  0  0  0  0  0
   12.9007   -4.7276   -0.2863 C   0  0  0  1  0  0  0  0  0  0  0  0
   11.7193   -5.5883    0.0534 C   0  0  0  1  0  0  0  0  0  0  0  0
   12.0501   -6.4536    0.5889 H   0  0  0  1  0  0  0  0  0  0  0  0
   11.2291   -5.8926   -0.8477 H   0  0  0  1  0  0  0  0  0  0  0  0
   11.0364   -5.0325    0.6613 H   0  0  0  1  0  0  0  0  0  0  0  0
   13.0021   -3.4908    0.1887 C   0  0  0  1  0  0  0  0  0  0  0  0
   13.8522   -2.9261   -0.0112 H   0  0  0  1  0  0  0  0  0  0  0  0
   12.2320   -3.0879    0.7599 H   0  0  0  1  0  0  0  0  0  0  0  0
   18.0028   -3.2795   -4.2925 P   0  0  0  1  0  0  0  0  0  0  0  0
   18.9079   -4.2174   -4.9936 O   0  0  0  1  0  0  0  0  0  0  0  0
   17.7713   -5.1589   -2.0302 P   0  0  0  1  0  0  0  0  0  0  0  0
   18.2373   -6.2392   -2.9450 O   0  0  0  1  0  0  0  0  0  0  0  0
  1 20  1  0  0  0  0
  1 22  1  0  0  0  0
  2  4  1  0  0  0  0
  2 22  1  0  0  0  0
  3 22  1  0  0  0  0
  4  5  1  0  0  0  0
  4  6  1  0  0  0  0
  4  9  1  0  0  0  0
  7 20  1  0  0  0  0
  8 20  1  0  0  0  0
  9 10  1  0  0  0  0
  9 11  1  0  0  0  0
  9 12  1  0  0  0  0
 12 13  1  0  0  0  0
 12 17  2  0  0  0  0
 13 14  1  0  0  0  0
 13 15  1  0  0  0  0
 13 16  1  0  0  0  0
 17 18  1  0  0  0  0
 17 19  1  0  0  0  0
 20 21  2  0  0  0  0
 22 23  2  0  0  0  0
M  BCL ATM O_Tr2TrTrPi2 O_Tr2TrTrPi2 O_Te2Te2TeTe C_TeTeTeTe H_S H_S O_Te2Te2TeTe O_Te2Te2Te2Te C_TeTeTeTe H_S H_S C_TrTrTrPi C_TeTeTeTe H_S H_S H_S C_TrTrTrPi H_S H_S P_TeTeTeTePi O_Tr2Tr2TrPi P_TeTeTeTePi O_Tr2Tr2TrPi
M  BCL BND ConjugatedSingleBond ConjugatedSingleBond NonConjugatedSingleBond ConjugatedSingleBond ConjugatedSingleBond NonConjugatedSingleBond NonConjugatedSingleBond NonConjugatedSingleBond ConjugatedSingleBond ConjugatedSingleBond NonConjugatedSingleBond NonConjugatedSingleBond NonConjugatedSingleBond NonConjugatedSingleBond ConjugatedDoubleBond NonConjugatedSingleBond NonConjugatedSingleBond NonConjugatedSingleBond NonConjugatedSingleBond NonConjugatedSingleBond ConjugatedDoubleBond ConjugatedDoubleBond
M  BCL CHI  20   R  22   S
M  BCL DBI - - -
M  END
> <ConfClashScore>
0 

> <ConfOneFourInteractionScore>
-0.981767 

> <ConfScore>
-0.177926 

> <ConfScorePBest>
0.0110815 

> <ConfTolerance>
0.6686 

$$$$
L07.****
  PyMOL2.5          3D                             0

 23 22  0  0  0  0  0  0  0  0999 V2000
   11.3328   -9.1688    2.3293 O   0  0  0  1  0  0  0  0  0  0  0  0
   12.6717   -7.1444    2.0359 O   0  0  0  1  0  0  0  0  0  0  0  0
   12.9527   -8.4964    4.1782 O   0  0  0  0  0  0  0  0  0  0  0  0
   13.4881   -5.9852    2.3447 C   0  0  0  1  0  0  0  0  0  0  0  0
   14.3201   -6.2765    2.9512 H   0  0  0  1  0  0  0  0  0  0  0  0
   12.9036   -5.2564    2.8664 H   0  0  0  1  0  0  0  0  0  0  0  0
    9.8922  -10.5991    4.0165 O   0  0  0  0  0  0  0  0  0  0  0  0
   12.2289  -11.4124    3.0244 O   0  5  0  1  0  0  0  0  0  0  0  0
   13.9848   -5.4051    1.0269 C   0  0  0  1  0  0  0  0  0  0  0  0
   14.3977   -6.1985    0.4396 H   0  0  0  1  0  0  0  0  0  0  0  0
   14.7461   -4.6834    1.2379 H   0  0  0  1  0  0  0  0  0  0  0  0
   12.8982   -4.7358    0.2310 C   0  0  0  1  0  0  0  0  0  0  0  0
   11.7054   -5.6006   -0.0543 C   0  0  0  1  0  0  0  0  0  0  0  0
   12.0245   -6.5020   -0.5344 H   0  0  0  1  0  0  0  0  0  0  0  0
   11.0294   -5.0750   -0.6959 H   0  0  0  1  0  0  0  0  0  0  0  0
   11.2119   -5.8414    0.8641 H   0  0  0  1  0  0  0  0  0  0  0  0
   13.0145   -3.4756   -0.1737 C   0  0  0  1  0  0  0  0  0  0  0  0
   13.8863   -2.9447    0.0258 H   0  0  0  1  0  0  0  0  0  0  0  0
   12.2344   -3.0205   -0.6895 H   0  0  0  1  0  0  0  0  0  0  0  0
   10.8231  -10.6900    2.6694 P   0  0  0  1  0  0  0  0  0  0  0  0
   10.2669  -11.3864    1.4878 O   0  0  0  1  0  0  0  0  0  0  0  0
   11.9687   -7.9640    3.1805 P   0  0  0  1  0  0  0  0  0  0  0  0
   10.8838   -7.1041    3.7324 O   0  0  0  1  0  0  0  0  0  0  0  0
  1 20  1  0  0  0  0
  1 22  1  0  0  0  0
  2  4  1  0  0  0  0
  2 22  1  0  0  0  0
  3 22  1  0  0  0  0
  4  5  1  0  0  0  0
  4  6  1  0  0  0  0
  4  9  1  0  0  0  0
  7 20  1  0  0  0  0
  8 20  1  0  0  0  0
  9 10  1  0  0  0  0
  9 11  1  0  0  0  0
  9 12  1  0  0  0  0
 12 13  1  0  0  0  0
 12 17  2  0  0  0  0
 13 14  1  0  0  0  0
 13 15  1  0  0  0  0
 13 16  1  0  0  0  0
 17 18  1  0  0  0  0
 17 19  1  0  0  0  0
 20 21  2  0  0  0  0
 22 23  2  0  0  0  0
M  BCL ATM O_Tr2TrTrPi2 O_Tr2TrTrPi2 O_Te2Te2TeTe C_TeTeTeTe H_S H_S O_Te2Te2TeTe O_Te2Te2Te2Te C_TeTeTeTe H_S H_S C_TrTrTrPi C_TeTeTeTe H_S H_S H_S C_TrTrTrPi H_S H_S P_TeTeTeTePi O_Tr2Tr2TrPi P_TeTeTeTePi O_Tr2Tr2TrPi
M  BCL BND ConjugatedSingleBond ConjugatedSingleBond NonConjugatedSingleBond ConjugatedSingleBond ConjugatedSingleBond NonConjugatedSingleBond NonConjugatedSingleBond NonConjugatedSingleBond ConjugatedSingleBond ConjugatedSingleBond NonConjugatedSingleBond NonConjugatedSingleBond NonConjugatedSingleBond NonConjugatedSingleBond ConjugatedDoubleBond NonConjugatedSingleBond NonConjugatedSingleBond NonConjugatedSingleBond NonConjugatedSingleBond NonConjugatedSingleBond ConjugatedDoubleBond ConjugatedDoubleBond
M  BCL CHI  20   R  22   S
M  BCL DBI - - -
M  END
> <ConfClashScore>
0 

> <ConfOneFourInteractionScore>
-0.975364 

> <ConfScore>
-0.175876 

> <ConfScorePBest>
0.0109785 

> <ConfTolerance>
0.485965 

$$$$
L07.****
  PyMOL2.5          3D                             0

 23 22  0  0  0  0  0  0  0  0999 V2000
   15.8393   -5.8475   -3.2430 O   0  0  0  1  0  0  0  0  0  0  0  0
   15.5827   -4.8408   -1.0073 O   0  0  0  1  0  0  0  0  0  0  0  0
   17.0460   -3.7056   -2.7313 O   0  0  0  0  0  0  0  0  0  0  0  0
   15.1204   -5.9821   -0.2394 C   0  0  0  1  0  0  0  0  0  0  0  0
   15.9468   -6.4464    0.2568 H   0  0  0  1  0  0  0  0  0  0  0  0
   14.6492   -6.6908   -0.8879 H   0  0  0  1  0  0  0  0  0  0  0  0
   13.8787   -4.2220   -3.8535 O   0  0  0  0  0  0  0  0  0  0  0  0
   13.3409   -6.5294   -2.4024 O   0  5  0  1  0  0  0  0  0  0  0  0
   14.1180   -5.4728    0.7880 C   0  0  0  1  0  0  0  0  0  0  0  0
   14.6208   -4.7979    1.4488 H   0  0  0  1  0  0  0  0  0  0  0  0
   13.7469   -6.3078    1.3448 H   0  0  0  1  0  0  0  0  0  0  0  0
   12.9503   -4.7541    0.1667 C   0  0  0  1  0  0  0  0  0  0  0  0
   11.6933   -5.5708    0.0604 C   0  0  0  1  0  0  0  0  0  0  0  0
   11.8454   -6.3720   -0.6322 H   0  0  0  1  0  0  0  0  0  0  0  0
   10.8927   -4.9497   -0.2833 H   0  0  0  1  0  0  0  0  0  0  0  0
   11.4467   -5.9722    1.0212 H   0  0  0  1  0  0  0  0  0  0  0  0
   13.0013   -3.4974   -0.2618 C   0  0  0  1  0  0  0  0  0  0  0  0
   12.1818   -3.0814   -0.7485 H   0  0  0  1  0  0  0  0  0  0  0  0
   13.8599   -2.9304   -0.1106 H   0  0  0  1  0  0  0  0  0  0  0  0
   14.2276   -5.7938   -3.5413 P   0  0  0  1  0  0  0  0  0  0  0  0
   14.0232   -6.6700   -4.7164 O   0  0  0  1  0  0  0  0  0  0  0  0
   16.6672   -5.0151   -2.1466 P   0  0  0  1  0  0  0  0  0  0  0  0
   17.7206   -5.8693   -1.5968 O   0  0  0  1  0  0  0  0  0  0  0  0
  1 20  1  0  0  0  0
  1 22  1  0  0  0  0
  2  4  1  0  0  0  0
  2 22  1  0  0  0  0
  3 22  1  0  0  0  0
  4  5  1  0  0  0  0
  4  6  1  0  0  0  0
  4  9  1  0  0  0  0
  7 20  1  0  0  0  0
  8 20  1  0  0  0  0
  9 10  1  0  0  0  0
  9 11  1  0  0  0  0
  9 12  1  0  0  0  0
 12 13  1  0  0  0  0
 12 17  2  0  0  0  0
 13 14  1  0  0  0  0
 13 15  1  0  0  0  0
 13 16  1  0  0  0  0
 17 18  1  0  0  0  0
 17 19  1  0  0  0  0
 20 21  2  0  0  0  0
 22 23  2  0  0  0  0
M  BCL ATM O_Tr2TrTrPi2 O_Tr2TrTrPi2 O_Te2Te2TeTe C_TeTeTeTe H_S H_S O_Te2Te2TeTe O_Te2Te2Te2Te C_TeTeTeTe H_S H_S C_TrTrTrPi C_TeTeTeTe H_S H_S H_S C_TrTrTrPi H_S H_S P_TeTeTeTePi O_Tr2Tr2TrPi P_TeTeTeTePi O_Tr2Tr2TrPi
M  BCL BND ConjugatedSingleBond ConjugatedSingleBond NonConjugatedSingleBond ConjugatedSingleBond ConjugatedSingleBond NonConjugatedSingleBond NonConjugatedSingleBond NonConjugatedSingleBond ConjugatedSingleBond ConjugatedSingleBond NonConjugatedSingleBond NonConjugatedSingleBond NonConjugatedSingleBond NonConjugatedSingleBond ConjugatedDoubleBond NonConjugatedSingleBond NonConjugatedSingleBond NonConjugatedSingleBond NonConjugatedSingleBond NonConjugatedSingleBond ConjugatedDoubleBond ConjugatedDoubleBond
M  BCL CHI  20   R  22   S
M  BCL DBI - - -
M  END
> <ConfClashScore>
0 

> <ConfOneFourInteractionScore>
-0.98644 

> <ConfScore>
-0.175829 

> <ConfScorePBest>
0.0108755 

> <ConfTolerance>
0.678503 

$$$$
L07.****
  PyMOL2.5          3D                             0

 23 22  0  0  0  0  0  0  0  0999 V2000
   17.1789   -2.1892    1.4015 O   0  0  0  1  0  0  0  0  0  0  0  0
   15.7726   -4.0399    0.3649 O   0  0  0  1  0  0  0  0  0  0  0  0
   18.2185   -4.3544    0.9225 O   0  0  0  0  0  0  0  0  0  0  0  0
   15.1207   -4.5170    1.5656 C   0  0  0  1  0  0  0  0  0  0  0  0
   14.7569   -3.6884    2.1366 H   0  0  0  1  0  0  0  0  0  0  0  0
   15.8120   -5.0814    2.1559 H   0  0  0  1  0  0  0  0  0  0  0  0
   17.8673   -0.3355    3.1160 O   0  0  0  0  0  0  0  0  0  0  0  0
   19.6723   -1.3255    1.5288 O   0  5  0  1  0  0  0  0  0  0  0  0
   13.9603   -5.4018    1.1403 C   0  0  0  1  0  0  0  0  0  0  0  0
   13.4731   -5.7552    2.0250 H   0  0  0  1  0  0  0  0  0  0  0  0
   14.3603   -6.2322    0.5968 H   0  0  0  1  0  0  0  0  0  0  0  0
   12.9255   -4.7363    0.2752 C   0  0  0  1  0  0  0  0  0  0  0  0
   11.7284   -5.5838   -0.0521 C   0  0  0  1  0  0  0  0  0  0  0  0
   12.0397   -6.4403   -0.6128 H   0  0  0  1  0  0  0  0  0  0  0  0
   11.0343   -5.0116   -0.6315 H   0  0  0  1  0  0  0  0  0  0  0  0
   11.2589   -5.9029    0.8549 H   0  0  0  1  0  0  0  0  0  0  0  0
   12.9956   -3.4977   -0.2007 C   0  0  0  1  0  0  0  0  0  0  0  0
   13.8423   -2.9205   -0.0230 H   0  0  0  1  0  0  0  0  0  0  0  0
   12.2045   -3.1057   -0.7503 H   0  0  0  1  0  0  0  0  0  0  0  0
   18.3800   -1.7285    2.4187 P   0  0  0  1  0  0  0  0  0  0  0  0
   18.4750   -2.8441    3.3866 O   0  0  0  1  0  0  0  0  0  0  0  0
   17.1925   -3.3695    0.3672 P   0  0  0  1  0  0  0  0  0  0  0  0
   17.4737   -2.9264   -1.0285 O   0  0  0  1  0  0  0  0  0  0  0  0
  1 20  1  0  0  0  0
  1 22  1  0  0  0  0
  2  4  1  0  0  0  0
  2 22  1  0  0  0  0
  3 22  1  0  0  0  0
  4  5  1  0  0  0  0
  4  6  1  0  0  0  0
  4  9  1  0  0  0  0
  7 20  1  0  0  0  0
  8 20  1  0  0  0  0
  9 10  1  0  0  0  0
  9 11  1  0  0  0  0
  9 12  1  0  0  0  0
 12 13  1  0  0  0  0
 12 17  2  0  0  0  0
 13 14  1  0  0  0  0
 13 15  1  0  0  0  0
 13 16  1  0  0  0  0
 17 18  1  0  0  0  0
 17 19  1  0  0  0  0
 20 21  2  0  0  0  0
 22 23  2  0  0  0  0
M  BCL ATM O_Tr2TrTrPi2 O_Tr2TrTrPi2 O_Te2Te2TeTe C_TeTeTeTe H_S H_S O_Te2Te2TeTe O_Te2Te2Te2Te C_TeTeTeTe H_S H_S C_TrTrTrPi C_TeTeTeTe H_S H_S H_S C_TrTrTrPi H_S H_S P_TeTeTeTePi O_Tr2Tr2TrPi P_TeTeTeTePi O_Tr2Tr2TrPi
M  BCL BND ConjugatedSingleBond ConjugatedSingleBond NonConjugatedSingleBond ConjugatedSingleBond ConjugatedSingleBond NonConjugatedSingleBond NonConjugatedSingleBond NonConjugatedSingleBond ConjugatedSingleBond ConjugatedSingleBond NonConjugatedSingleBond NonConjugatedSingleBond NonConjugatedSingleBond NonConjugatedSingleBond ConjugatedDoubleBond NonConjugatedSingleBond NonConjugatedSingleBond NonConjugatedSingleBond NonConjugatedSingleBond NonConjugatedSingleBond ConjugatedDoubleBond ConjugatedDoubleBond
M  BCL CHI  20   R  22   S
M  BCL DBI - - -
M  END
> <ConfClashScore>
0 

> <ConfOneFourInteractionScore>
-0.975339 

> <ConfScore>
-0.175778 

> <ConfScorePBest>
0.0107725 

> <ConfTolerance>
0.534333 

$$$$
L07.****
  PyMOL2.5          3D                             0

 23 22  0  0  0  0  0  0  0  0999 V2000
   14.7605   -9.7272    1.6140 O   0  0  0  1  0  0  0  0  0  0  0  0
   15.2009   -7.2157    1.8836 O   0  0  0  1  0  0  0  0  0  0  0  0
   16.8275   -8.7879    0.6574 O   0  0  0  0  0  0  0  0  0  0  0  0
   14.4253   -6.6541    0.7988 C   0  0  0  1  0  0  0  0  0  0  0  0
   13.6312   -7.3210    0.5353 H   0  0  0  1  0  0  0  0  0  0  0  0
   15.0532   -6.4922   -0.0524 H   0  0  0  1  0  0  0  0  0  0  0  0
   13.0068  -11.5909    0.8224 O   0  0  0  0  0  0  0  0  0  0  0  0
   15.6165  -11.5781    0.1688 O   0  5  0  1  0  0  0  0  0  0  0  0
   13.8508   -5.3278    1.2793 C   0  0  0  1  0  0  0  0  0  0  0  0
   14.6583   -4.6428    1.4335 H   0  0  0  1  0  0  0  0  0  0  0  0
   13.3409   -5.4930    2.2053 H   0  0  0  1  0  0  0  0  0  0  0  0
   12.8832   -4.7157    0.3020 C   0  0  0  1  0  0  0  0  0  0  0  0
   11.7328   -5.6025   -0.0834 C   0  0  0  1  0  0  0  0  0  0  0  0
   12.0994   -6.4446   -0.6325 H   0  0  0  1  0  0  0  0  0  0  0  0
   11.0465   -5.0517   -0.6920 H   0  0  0  1  0  0  0  0  0  0  0  0
   11.2336   -5.9428    0.7997 H   0  0  0  1  0  0  0  0  0  0  0  0
   13.0135   -3.4914   -0.1948 C   0  0  0  1  0  0  0  0  0  0  0  0
   13.7787   -2.8732    0.1424 H   0  0  0  1  0  0  0  0  0  0  0  0
   12.3509   -3.1510   -0.9206 H   0  0  0  1  0  0  0  0  0  0  0  0
   14.2861  -10.6740    0.3617 P   0  0  0  1  0  0  0  0  0  0  0  0
   14.0560   -9.8038   -0.8131 O   0  0  0  1  0  0  0  0  0  0  0  0
   15.9470   -8.6520    1.8547 P   0  0  0  1  0  0  0  0  0  0  0  0
   16.5633   -8.7894    3.1949 O   0  0  0  1  0  0  0  0  0  0  0  0
  1 20  1  0  0  0  0
  1 22  1  0  0  0  0
  2  4  1  0  0  0  0
  2 22  1  0  0  0  0
  3 22  1  0  0  0  0
  4  5  1  0  0  0  0
  4  6  1  0  0  0  0
  4  9  1  0  0  0  0
  7 20  1  0  0  0  0
  8 20  1  0  0  0  0
  9 10  1  0  0  0  0
  9 11  1  0  0  0  0
  9 12  1  0  0  0  0
 12 13  1  0  0  0  0
 12 17  2  0  0  0  0
 13 14  1  0  0  0  0
 13 15  1  0  0  0  0
 13 16  1  0  0  0  0
 17 18  1  0  0  0  0
 17 19  1  0  0  0  0
 20 21  2  0  0  0  0
 22 23  2  0  0  0  0
M  BCL ATM O_Tr2TrTrPi2 O_Tr2TrTrPi2 O_Te2Te2TeTe C_TeTeTeTe H_S H_S O_Te2Te2TeTe O_Te2Te2Te2Te C_TeTeTeTe H_S H_S C_TrTrTrPi C_TeTeTeTe H_S H_S H_S C_TrTrTrPi H_S H_S P_TeTeTeTePi O_Tr2Tr2TrPi P_TeTeTeTePi O_Tr2Tr2TrPi
M  BCL BND ConjugatedSingleBond ConjugatedSingleBond NonConjugatedSingleBond ConjugatedSingleBond ConjugatedSingleBond NonConjugatedSingleBond NonConjugatedSingleBond NonConjugatedSingleBond ConjugatedSingleBond ConjugatedSingleBond NonConjugatedSingleBond NonConjugatedSingleBond NonConjugatedSingleBond NonConjugatedSingleBond ConjugatedDoubleBond NonConjugatedSingleBond NonConjugatedSingleBond NonConjugatedSingleBond NonConjugatedSingleBond NonConjugatedSingleBond ConjugatedDoubleBond ConjugatedDoubleBond
M  BCL CHI  20   R  22   S
M  BCL DBI - - -
M  END
> <ConfClashScore>
0 

> <ConfOneFourInteractionScore>
-0.968935 

> <ConfScore>
-0.172118 

> <ConfScorePBest>
0.0106695 

> <ConfTolerance>
0.577335 

$$$$
L07.****
  PyMOL2.5          3D                             0

 23 22  0  0  0  0  0  0  0  0999 V2000
    7.2227   -5.5009   -1.4570 O   0  0  0  1  0  0  0  0  0  0  0  0
    9.5585   -5.4883   -0.6904 O   0  0  0  1  0  0  0  0  0  0  0  0
    9.0456   -6.0394   -3.0988 O   0  0  0  0  0  0  0  0  0  0  0  0
    9.8057   -4.0666   -0.8430 C   0  0  0  1  0  0  0  0  0  0  0  0
    8.8923   -3.5315   -0.6874 H   0  0  0  1  0  0  0  0  0  0  0  0
   10.1672   -3.8760   -1.8319 H   0  0  0  1  0  0  0  0  0  0  0  0
    5.4377   -4.1658   -0.0300 O   0  0  0  0  0  0  0  0  0  0  0  0
    7.1214   -5.8190    1.1904 O   0  5  0  1  0  0  0  0  0  0  0  0
   10.8417   -3.5954    0.1691 C   0  0  0  1  0  0  0  0  0  0  0  0
   10.4579   -3.7651    1.1534 H   0  0  0  1  0  0  0  0  0  0  0  0
   11.0063   -2.5480    0.0256 H   0  0  0  1  0  0  0  0  0  0  0  0
   12.1603   -4.3099    0.0393 C   0  0  0  1  0  0  0  0  0  0  0  0
   12.0608   -5.8083   -0.0169 C   0  0  0  1  0  0  0  0  0  0  0  0
   13.0422   -6.2292   -0.0849 H   0  0  0  1  0  0  0  0  0  0  0  0
   11.4895   -6.0956   -0.8748 H   0  0  0  1  0  0  0  0  0  0  0  0
   11.5798   -6.1671    0.8690 H   0  0  0  1  0  0  0  0  0  0  0  0
   13.3064   -3.6400   -0.0186 C   0  0  0  1  0  0  0  0  0  0  0  0
   13.3022   -2.6005    0.0143 H   0  0  0  1  0  0  0  0  0  0  0  0
   14.2067   -4.1546   -0.0966 H   0  0  0  1  0  0  0  0  0  0  0  0
    6.2382   -5.5923   -0.1486 P   0  0  0  1  0  0  0  0  0  0  0  0
    5.2755   -6.7067   -0.2965 O   0  0  0  1  0  0  0  0  0  0  0  0
    8.6205   -6.2563   -1.6937 P   0  0  0  1  0  0  0  0  0  0  0  0
    8.5092   -7.6287   -1.1980 O   0  0  0  1  0  0  0  0  0  0  0  0
  1 20  1  0  0  0  0
  1 22  1  0  0  0  0
  2  4  1  0  0  0  0
  2 22  1  0  0  0  0
  3 22  1  0  0  0  0
  4  5  1  0  0  0  0
  4  6  1  0  0  0  0
  4  9  1  0  0  0  0
  7 20  1  0  0  0  0
  8 20  1  0  0  0  0
  9 10  1  0  0  0  0
  9 11  1  0  0  0  0
  9 12  1  0  0  0  0
 12 13  1  0  0  0  0
 12 17  2  0  0  0  0
 13 14  1  0  0  0  0
 13 15  1  0  0  0  0
 13 16  1  0  0  0  0
 17 18  1  0  0  0  0
 17 19  1  0  0  0  0
 20 21  2  0  0  0  0
 22 23  2  0  0  0  0
M  BCL ATM O_Tr2TrTrPi2 O_Tr2TrTrPi2 O_Te2Te2TeTe C_TeTeTeTe H_S H_S O_Te2Te2TeTe O_Te2Te2Te2Te C_TeTeTeTe H_S H_S C_TrTrTrPi C_TeTeTeTe H_S H_S H_S C_TrTrTrPi H_S H_S P_TeTeTeTePi O_Tr2Tr2TrPi P_TeTeTeTePi O_Tr2Tr2TrPi
M  BCL BND ConjugatedSingleBond ConjugatedSingleBond NonConjugatedSingleBond ConjugatedSingleBond ConjugatedSingleBond NonConjugatedSingleBond NonConjugatedSingleBond NonConjugatedSingleBond ConjugatedSingleBond ConjugatedSingleBond NonConjugatedSingleBond NonConjugatedSingleBond NonConjugatedSingleBond NonConjugatedSingleBond ConjugatedDoubleBond NonConjugatedSingleBond NonConjugatedSingleBond NonConjugatedSingleBond NonConjugatedSingleBond NonConjugatedSingleBond ConjugatedDoubleBond ConjugatedDoubleBond
M  BCL CHI  20   R  22   S
M  BCL DBI - - -
M  END
> <ConfClashScore>
0 

> <ConfOneFourInteractionScore>
-0.968935 

> <ConfScore>
-0.171412 

> <ConfScorePBest>
0.0105665 

> <ConfTolerance>
0.663012 

$$$$
L07.****
  PyMOL2.5          3D                             0

 23 22  0  0  0  0  0  0  0  0999 V2000
    6.5455   -2.5795   -2.1621 O   0  0  0  1  0  0  0  0  0  0  0  0
    8.7233   -3.3376   -1.3510 O   0  0  0  1  0  0  0  0  0  0  0  0
    6.6436   -4.6340   -0.6756 O   0  0  0  0  0  0  0  0  0  0  0  0
    9.7210   -3.9190   -0.4791 C   0  0  0  1  0  0  0  0  0  0  0  0
    9.5500   -4.9724   -0.4011 H   0  0  0  1  0  0  0  0  0  0  0  0
    9.6452   -3.4722    0.4902 H   0  0  0  1  0  0  0  0  0  0  0  0
    5.4736   -2.0280   -4.5345 O   0  0  0  0  0  0  0  0  0  0  0  0
    4.1294   -3.6072   -2.8335 O   0  5  0  1  0  0  0  0  0  0  0  0
   11.1184   -3.6775   -1.0347 C   0  0  0  1  0  0  0  0  0  0  0  0
   11.2972   -2.6229   -1.0602 H   0  0  0  1  0  0  0  0  0  0  0  0
   11.1624   -4.0714   -2.0286 H   0  0  0  1  0  0  0  0  0  0  0  0
   12.1999   -4.3272   -0.2135 C   0  0  0  1  0  0  0  0  0  0  0  0
   12.0235   -5.7974    0.1034 C   0  0  0  1  0  0  0  0  0  0  0  0
   12.9268   -6.1819    0.5289 H   0  0  0  1  0  0  0  0  0  0  0  0
   11.7976   -6.3313   -0.7959 H   0  0  0  1  0  0  0  0  0  0  0  0
   11.2214   -5.9178    0.8013 H   0  0  0  1  0  0  0  0  0  0  0  0
   13.2844   -3.6364    0.1173 C   0  0  0  1  0  0  0  0  0  0  0  0
   13.3229   -2.6129   -0.0632 H   0  0  0  1  0  0  0  0  0  0  0  0
   14.0946   -4.1184    0.5565 H   0  0  0  1  0  0  0  0  0  0  0  0
    5.5964   -3.1688   -3.3627 P   0  0  0  1  0  0  0  0  0  0  0  0
    6.2921   -4.3266   -3.9677 O   0  0  0  1  0  0  0  0  0  0  0  0
    7.2091   -3.2708   -0.8444 P   0  0  0  1  0  0  0  0  0  0  0  0
    7.1639   -2.2972    0.2749 O   0  0  0  1  0  0  0  0  0  0  0  0
  1 20  1  0  0  0  0
  1 22  1  0  0  0  0
  2  4  1  0  0  0  0
  2 22  1  0  0  0  0
  3 22  1  0  0  0  0
  4  5  1  0  0  0  0
  4  6  1  0  0  0  0
  4  9  1  0  0  0  0
  7 20  1  0  0  0  0
  8 20  1  0  0  0  0
  9 10  1  0  0  0  0
  9 11  1  0  0  0  0
  9 12  1  0  0  0  0
 12 13  1  0  0  0  0
 12 17  2  0  0  0  0
 13 14  1  0  0  0  0
 13 15  1  0  0  0  0
 13 16  1  0  0  0  0
 17 18  1  0  0  0  0
 17 19  1  0  0  0  0
 20 21  2  0  0  0  0
 22 23  2  0  0  0  0
M  BCL ATM O_Tr2TrTrPi2 O_Tr2TrTrPi2 O_Te2Te2TeTe C_TeTeTeTe H_S H_S O_Te2Te2TeTe O_Te2Te2Te2Te C_TeTeTeTe H_S H_S C_TrTrTrPi C_TeTeTeTe H_S H_S H_S C_TrTrTrPi H_S H_S P_TeTeTeTePi O_Tr2Tr2TrPi P_TeTeTeTePi O_Tr2Tr2TrPi
M  BCL BND ConjugatedSingleBond ConjugatedSingleBond NonConjugatedSingleBond ConjugatedSingleBond ConjugatedSingleBond NonConjugatedSingleBond NonConjugatedSingleBond NonConjugatedSingleBond ConjugatedSingleBond ConjugatedSingleBond NonConjugatedSingleBond NonConjugatedSingleBond NonConjugatedSingleBond NonConjugatedSingleBond ConjugatedDoubleBond NonConjugatedSingleBond NonConjugatedSingleBond NonConjugatedSingleBond NonConjugatedSingleBond NonConjugatedSingleBond ConjugatedDoubleBond ConjugatedDoubleBond
M  BCL CHI  20   R  22   S
M  BCL DBI - - -
M  END
> <ConfClashScore>
0 

> <ConfOneFourInteractionScore>
-0.975364 

> <ConfScore>
-0.171018 

> <ConfScorePBest>
0.0104635 

> <ConfTolerance>
0.581072 

$$$$
L07.****
  PyMOL2.5          3D                             0

 23 22  0  0  0  0  0  0  0  0999 V2000
   11.3441   -9.0975   -2.1014 O   0  0  0  1  0  0  0  0  0  0  0  0
   12.9171   -7.2781   -1.6923 O   0  0  0  1  0  0  0  0  0  0  0  0
   12.1992   -7.6262   -4.0249 O   0  0  0  0  0  0  0  0  0  0  0  0
   13.8607   -6.2128   -1.9545 C   0  0  0  1  0  0  0  0  0  0  0  0
   13.4360   -5.5107   -2.6412 H   0  0  0  1  0  0  0  0  0  0  0  0
   14.7610   -6.6170   -2.3680 H   0  0  0  1  0  0  0  0  0  0  0  0
    9.2728  -10.6481   -1.5801 O   0  0  0  0  0  0  0  0  0  0  0  0
   11.0213  -11.4236   -3.4066 O   0  5  0  1  0  0  0  0  0  0  0  0
   14.1622   -5.5238   -0.6269 C   0  0  0  1  0  0  0  0  0  0  0  0
   14.9760   -4.8424   -0.7622 H   0  0  0  1  0  0  0  0  0  0  0  0
   14.4318   -6.2627    0.0985 H   0  0  0  1  0  0  0  0  0  0  0  0
   12.9593   -4.7645   -0.1344 C   0  0  0  1  0  0  0  0  0  0  0  0
   11.6987   -5.5769   -0.0380 C   0  0  0  1  0  0  0  0  0  0  0  0
   11.9018   -6.4915    0.4790 H   0  0  0  1  0  0  0  0  0  0  0  0
   11.3397   -5.7959   -1.0219 H   0  0  0  1  0  0  0  0  0  0  0  0
   10.9571   -5.0219    0.4975 H   0  0  0  1  0  0  0  0  0  0  0  0
   12.9841   -3.4776    0.1955 C   0  0  0  1  0  0  0  0  0  0  0  0
   12.1125   -3.0057    0.5104 H   0  0  0  1  0  0  0  0  0  0  0  0
   13.8742   -2.9428    0.1388 H   0  0  0  1  0  0  0  0  0  0  0  0
   10.2685  -10.1344   -2.7777 P   0  0  0  1  0  0  0  0  0  0  0  0
    9.3431   -9.4637   -3.7181 O   0  0  0  1  0  0  0  0  0  0  0  0
   12.6037   -8.3880   -2.8019 P   0  0  0  1  0  0  0  0  0  0  0  0
   13.7365   -9.3571   -2.9788 O   0  0  0  1  0  0  0  0  0  0  0  0
  1 20  1  0  0  0  0
  1 22  1  0  0  0  0
  2  4  1  0  0  0  0
  2 22  1  0  0  0  0
  3 22  1  0  0  0  0
  4  5  1  0  0  0  0
  4  6  1  0  0  0  0
  4  9  1  0  0  0  0
  7 20  1  0  0  0  0
  8 20  1  0  0  0  0
  9 10  1  0  0  0  0
  9 11  1  0  0  0  0
  9 12  1  0  0  0  0
 12 13  1  0  0  0  0
 12 17  2  0  0  0  0
 13 14  1  0  0  0  0
 13 15  1  0  0  0  0
 13 16  1  0  0  0  0
 17 18  1  0  0  0  0
 17 19  1  0  0  0  0
 20 21  2  0  0  0  0
 22 23  2  0  0  0  0
M  BCL ATM O_Tr2TrTrPi2 O_Tr2TrTrPi2 O_Te2Te2TeTe C_TeTeTeTe H_S H_S O_Te2Te2TeTe O_Te2Te2Te2Te C_TeTeTeTe H_S H_S C_TrTrTrPi C_TeTeTeTe H_S H_S H_S C_TrTrTrPi H_S H_S P_TeTeTeTePi O_Tr2Tr2TrPi P_TeTeTeTePi O_Tr2Tr2TrPi
M  BCL BND ConjugatedSingleBond ConjugatedSingleBond NonConjugatedSingleBond ConjugatedSingleBond ConjugatedSingleBond NonConjugatedSingleBond NonConjugatedSingleBond NonConjugatedSingleBond ConjugatedSingleBond ConjugatedSingleBond NonConjugatedSingleBond NonConjugatedSingleBond NonConjugatedSingleBond NonConjugatedSingleBond ConjugatedDoubleBond NonConjugatedSingleBond NonConjugatedSingleBond NonConjugatedSingleBond NonConjugatedSingleBond NonConjugatedSingleBond ConjugatedDoubleBond ConjugatedDoubleBond
M  BCL CHI  20   R  22   S
M  BCL DBI - - -
M  END
> <ConfClashScore>
0 

> <ConfOneFourInteractionScore>
-0.975364 

> <ConfScore>
-0.169618 

> <ConfScorePBest>
0.0103605 

> <ConfTolerance>
0.534771 

$$$$
L07.****
  PyMOL2.5          3D                             0

 23 22  0  0  0  0  0  0  0  0999 V2000
   14.2949   -5.1611    4.7693 O   0  0  0  1  0  0  0  0  0  0  0  0
   14.2818   -5.7441    2.2726 O   0  0  0  1  0  0  0  0  0  0  0  0
   13.6833   -7.5019    3.8952 O   0  0  0  0  0  0  0  0  0  0  0  0
   14.3545   -6.5610    1.0804 C   0  0  0  1  0  0  0  0  0  0  0  0
   13.5492   -7.2650    1.0499 H   0  0  0  1  0  0  0  0  0  0  0  0
   15.2872   -7.0830    1.0311 H   0  0  0  1  0  0  0  0  0  0  0  0
   16.0862   -3.6582    6.1005 O   0  0  0  0  0  0  0  0  0  0  0  0
   13.6604   -2.7464    5.4205 O   0  5  0  1  0  0  0  0  0  0  0  0
   14.2363   -5.5500   -0.0525 C   0  0  0  1  0  0  0  0  0  0  0  0
   14.2852   -6.0748   -0.9837 H   0  0  0  1  0  0  0  0  0  0  0  0
   15.0559   -4.8654    0.0151 H   0  0  0  1  0  0  0  0  0  0  0  0
   12.9533   -4.7664   -0.0115 C   0  0  0  1  0  0  0  0  0  0  0  0
   11.7053   -5.6035    0.0007 C   0  0  0  1  0  0  0  0  0  0  0  0
   10.8473   -4.9652    0.0371 H   0  0  0  1  0  0  0  0  0  0  0  0
   11.7120   -6.2409    0.8601 H   0  0  0  1  0  0  0  0  0  0  0  0
   11.6679   -6.2005   -0.8865 H   0  0  0  1  0  0  0  0  0  0  0  0
   12.9555   -3.4378    0.0116 C   0  0  0  1  0  0  0  0  0  0  0  0
   12.0551   -2.9176    0.0292 H   0  0  0  1  0  0  0  0  0  0  0  0
   13.8567   -2.9188    0.0119 H   0  0  0  1  0  0  0  0  0  0  0  0
   14.9170   -3.6545    4.9506 P   0  0  0  1  0  0  0  0  0  0  0  0
   15.3356   -3.1203    3.6353 O   0  0  0  1  0  0  0  0  0  0  0  0
   14.6208   -6.3663    3.7256 P   0  0  0  1  0  0  0  0  0  0  0  0
   16.0461   -6.5864    3.8883 O   0  0  0  1  0  0  0  0  0  0  0  0
  1 20  1  0  0  0  0
  1 22  1  0  0  0  0
  2  4  1  0  0  0  0
  2 22  1  0  0  0  0
  3 22  1  0  0  0  0
  4  5  1  0  0  0  0
  4  6  1  0  0  0  0
  4  9  1  0  0  0  0
  7 20  1  0  0  0  0
  8 20  1  0  0  0  0
  9 10  1  0  0  0  0
  9 11  1  0  0  0  0
  9 12  1  0  0  0  0
 12 13  1  0  0  0  0
 12 17  2  0  0  0  0
 13 14  1  0  0  0  0
 13 15  1  0  0  0  0
 13 16  1  0  0  0  0
 17 18  1  0  0  0  0
 17 19  1  0  0  0  0
 20 21  2  0  0  0  0
 22 23  2  0  0  0  0
M  BCL ATM O_Tr2TrTrPi2 O_Tr2TrTrPi2 O_Te2Te2TeTe C_TeTeTeTe H_S H_S O_Te2Te2TeTe O_Te2Te2Te2Te C_TeTeTeTe H_S H_S C_TrTrTrPi C_TeTeTeTe H_S H_S H_S C_TrTrTrPi H_S H_S P_TeTeTeTePi O_Tr2Tr2TrPi P_TeTeTeTePi O_Tr2Tr2TrPi
M  BCL BND ConjugatedSingleBond ConjugatedSingleBond NonConjugatedSingleBond ConjugatedSingleBond ConjugatedSingleBond NonConjugatedSingleBond NonConjugatedSingleBond NonConjugatedSingleBond ConjugatedSingleBond ConjugatedSingleBond NonConjugatedSingleBond NonConjugatedSingleBond NonConjugatedSingleBond NonConjugatedSingleBond ConjugatedDoubleBond NonConjugatedSingleBond NonConjugatedSingleBond NonConjugatedSingleBond NonConjugatedSingleBond NonConjugatedSingleBond ConjugatedDoubleBond ConjugatedDoubleBond
M  BCL CHI  20   R  22   S
M  BCL DBI - - -
M  END
> <ConfClashScore>
0 

> <ConfOneFourInteractionScore>
-0.975364 

> <ConfScore>
-0.167138 

> <ConfScorePBest>
0.0102575 

> <ConfTolerance>
0.608283 

$$$$
L07.****
  PyMOL2.5          3D                             0

 23 22  0  0  0  0  0  0  0  0999 V2000
   12.3062   -6.2647    4.8636 O   0  0  0  1  0  0  0  0  0  0  0  0
   13.4694   -4.9632    3.0077 O   0  0  0  1  0  0  0  0  0  0  0  0
   14.6683   -5.6709    5.1215 O   0  0  0  0  0  0  0  0  0  0  0  0
   13.8894   -6.0333    2.1236 C   0  0  0  1  0  0  0  0  0  0  0  0
   13.1237   -6.7797    2.0854 H   0  0  0  1  0  0  0  0  0  0  0  0
   14.7925   -6.4669    2.4995 H   0  0  0  1  0  0  0  0  0  0  0  0
   10.2943   -7.9325    5.0149 O   0  0  0  0  0  0  0  0  0  0  0  0
   10.6873   -6.5171    2.7972 O   0  5  0  1  0  0  0  0  0  0  0  0
   14.1371   -5.4968    0.7198 C   0  0  0  1  0  0  0  0  0  0  0  0
   14.3657   -6.3202    0.0759 H   0  0  0  1  0  0  0  0  0  0  0  0
   14.9712   -4.8274    0.7533 H   0  0  0  1  0  0  0  0  0  0  0  0
   12.9535   -4.7595    0.1529 C   0  0  0  1  0  0  0  0  0  0  0  0
   11.6968   -5.5727    0.0516 C   0  0  0  1  0  0  0  0  0  0  0  0
   11.8731   -6.4269   -0.5683 H   0  0  0  1  0  0  0  0  0  0  0  0
   10.9194   -4.9755   -0.3773 H   0  0  0  1  0  0  0  0  0  0  0  0
   11.4016   -5.8958    1.0280 H   0  0  0  1  0  0  0  0  0  0  0  0
   12.9927   -3.4891   -0.2345 C   0  0  0  1  0  0  0  0  0  0  0  0
   12.1485   -3.0473   -0.6512 H   0  0  0  1  0  0  0  0  0  0  0  0
   13.8668   -2.9371   -0.1210 H   0  0  0  1  0  0  0  0  0  0  0  0
   10.7424   -6.4731    4.4157 P   0  0  0  1  0  0  0  0  0  0  0  0
   10.0117   -5.3761    5.0888 O   0  0  0  1  0  0  0  0  0  0  0  0
   13.3515   -5.1320    4.5677 P   0  0  0  1  0  0  0  0  0  0  0  0
   12.9579   -3.8068    5.1266 O   0  0  0  1  0  0  0  0  0  0  0  0
  1 20  1  0  0  0  0
  1 22  1  0  0  0  0
  2  4  1  0  0  0  0
  2 22  1  0  0  0  0
  3 22  1  0  0  0  0
  4  5  1  0  0  0  0
  4  6  1  0  0  0  0
  4  9  1  0  0  0  0
  7 20  1  0  0  0  0
  8 20  1  0  0  0  0
  9 10  1  0  0  0  0
  9 11  1  0  0  0  0
  9 12  1  0  0  0  0
 12 13  1  0  0  0  0
 12 17  2  0  0  0  0
 13 14  1  0  0  0  0
 13 15  1  0  0  0  0
 13 16  1  0  0  0  0
 17 18  1  0  0  0  0
 17 19  1  0  0  0  0
 20 21  2  0  0  0  0
 22 23  2  0  0  0  0
M  BCL ATM O_Tr2TrTrPi2 O_Tr2TrTrPi2 O_Te2Te2TeTe C_TeTeTeTe H_S H_S O_Te2Te2TeTe O_Te2Te2Te2Te C_TeTeTeTe H_S H_S C_TrTrTrPi C_TeTeTeTe H_S H_S H_S C_TrTrTrPi H_S H_S P_TeTeTeTePi O_Tr2Tr2TrPi P_TeTeTeTePi O_Tr2Tr2TrPi
M  BCL BND ConjugatedSingleBond ConjugatedSingleBond NonConjugatedSingleBond ConjugatedSingleBond ConjugatedSingleBond NonConjugatedSingleBond NonConjugatedSingleBond NonConjugatedSingleBond ConjugatedSingleBond ConjugatedSingleBond NonConjugatedSingleBond NonConjugatedSingleBond NonConjugatedSingleBond NonConjugatedSingleBond ConjugatedDoubleBond NonConjugatedSingleBond NonConjugatedSingleBond NonConjugatedSingleBond NonConjugatedSingleBond NonConjugatedSingleBond ConjugatedDoubleBond ConjugatedDoubleBond
M  BCL CHI  20   R  22   S
M  BCL DBI - - -
M  END
> <ConfClashScore>
0 

> <ConfOneFourInteractionScore>
-0.968935 

> <ConfScore>
-0.166601 

> <ConfScorePBest>
0.0101545 

> <ConfTolerance>
0.615932 

$$$$
L07.****
  PyMOL2.5          3D                             0

 23 22  0  0  0  0  0  0  0  0999 V2000
   14.4263   -5.0852    5.0200 O   0  0  0  1  0  0  0  0  0  0  0  0
   14.6744   -6.4224    3.1046 O   0  0  0  1  0  0  0  0  0  0  0  0
   13.4298   -7.4320    5.0939 O   0  0  0  0  0  0  0  0  0  0  0  0
   13.5541   -5.8050    2.4282 C   0  0  0  1  0  0  0  0  0  0  0  0
   13.2463   -4.9282    2.9587 H   0  0  0  1  0  0  0  0  0  0  0  0
   12.7373   -6.4940    2.3726 H   0  0  0  1  0  0  0  0  0  0  0  0
   16.5140   -3.8775    4.0016 O   0  0  0  0  0  0  0  0  0  0  0  0
   14.8816   -2.5005    5.5295 O   0  5  0  1  0  0  0  0  0  0  0  0
   14.0114   -5.4285    1.0250 C   0  0  0  1  0  0  0  0  0  0  0  0
   14.3120   -6.3193    0.5143 H   0  0  0  1  0  0  0  0  0  0  0  0
   14.8462   -4.7640    1.1058 H   0  0  0  1  0  0  0  0  0  0  0  0
   12.9380   -4.7525    0.2171 C   0  0  0  1  0  0  0  0  0  0  0  0
   11.7222   -5.5919   -0.0581 C   0  0  0  1  0  0  0  0  0  0  0  0
   12.0190   -6.5088   -0.5231 H   0  0  0  1  0  0  0  0  0  0  0  0
   11.0614   -5.0594   -0.7098 H   0  0  0  1  0  0  0  0  0  0  0  0
   11.2206   -5.8053    0.8626 H   0  0  0  1  0  0  0  0  0  0  0  0
   12.9914   -3.4826   -0.1704 C   0  0  0  1  0  0  0  0  0  0  0  0
   13.8270   -2.9060    0.0552 H   0  0  0  1  0  0  0  0  0  0  0  0
   12.1985   -3.0658   -0.6986 H   0  0  0  1  0  0  0  0  0  0  0  0
   14.9376   -3.6571    4.3966 P   0  0  0  1  0  0  0  0  0  0  0  0
   14.1551   -3.1645    3.2410 O   0  0  0  1  0  0  0  0  0  0  0  0
   14.6451   -6.6693    4.7149 P   0  0  0  1  0  0  0  0  0  0  0  0
   15.9660   -7.1183    5.1905 O   0  0  0  1  0  0  0  0  0  0  0  0
  1 20  1  0  0  0  0
  1 22  1  0  0  0  0
  2  4  1  0  0  0  0
  2 22  1  0  0  0  0
  3 22  1  0  0  0  0
  4  5  1  0  0  0  0
  4  6  1  0  0  0  0
  4  9  1  0  0  0  0
  7 20  1  0  0  0  0
  8 20  1  0  0  0  0
  9 10  1  0  0  0  0
  9 11  1  0  0  0  0
  9 12  1  0  0  0  0
 12 13  1  0  0  0  0
 12 17  2  0  0  0  0
 13 14  1  0  0  0  0
 13 15  1  0  0  0  0
 13 16  1  0  0  0  0
 17 18  1  0  0  0  0
 17 19  1  0  0  0  0
 20 21  2  0  0  0  0
 22 23  2  0  0  0  0
M  BCL ATM O_Tr2TrTrPi2 O_Tr2TrTrPi2 O_Te2Te2TeTe C_TeTeTeTe H_S H_S O_Te2Te2TeTe O_Te2Te2Te2Te C_TeTeTeTe H_S H_S C_TrTrTrPi C_TeTeTeTe H_S H_S H_S C_TrTrTrPi H_S H_S P_TeTeTeTePi O_Tr2Tr2TrPi P_TeTeTeTePi O_Tr2Tr2TrPi
M  BCL BND ConjugatedSingleBond ConjugatedSingleBond NonConjugatedSingleBond ConjugatedSingleBond ConjugatedSingleBond NonConjugatedSingleBond NonConjugatedSingleBond NonConjugatedSingleBond ConjugatedSingleBond ConjugatedSingleBond NonConjugatedSingleBond NonConjugatedSingleBond NonConjugatedSingleBond NonConjugatedSingleBond ConjugatedDoubleBond NonConjugatedSingleBond NonConjugatedSingleBond NonConjugatedSingleBond NonConjugatedSingleBond NonConjugatedSingleBond ConjugatedDoubleBond ConjugatedDoubleBond
M  BCL CHI  20   R  22   S
M  BCL DBI - - -
M  END
> <ConfClashScore>
0 

> <ConfOneFourInteractionScore>
-0.98644 

> <ConfScore>
-0.16527 

> <ConfScorePBest>
0.0100515 

> <ConfTolerance>
0.74737 

$$$$
L07.****
  PyMOL2.5          3D                             0

 23 22  0  0  0  0  0  0  0  0999 V2000
    6.1940   -2.7548    0.3715 O   0  0  0  1  0  0  0  0  0  0  0  0
    8.4686   -3.5351    0.1691 O   0  0  0  1  0  0  0  0  0  0  0  0
    7.1494   -3.0250   -1.8933 O   0  0  0  0  0  0  0  0  0  0  0  0
    9.6830   -4.0998   -0.3897 C   0  0  0  1  0  0  0  0  0  0  0  0
    9.8153   -3.7572   -1.3947 H   0  0  0  1  0  0  0  0  0  0  0  0
    9.6255   -5.1682   -0.3812 H   0  0  0  1  0  0  0  0  0  0  0  0
    5.7538   -0.2180    0.0894 O   0  0  0  0  0  0  0  0  0  0  0  0
    7.8058   -0.8462    1.3417 O   0  5  0  1  0  0  0  0  0  0  0  0
   10.8486   -3.6361    0.4741 C   0  0  0  1  0  0  0  0  0  0  0  0
   10.6236   -3.8566    1.4966 H   0  0  0  1  0  0  0  0  0  0  0  0
   10.9626   -2.5791    0.3533 H   0  0  0  1  0  0  0  0  0  0  0  0
   12.1499   -4.3024    0.1154 C   0  0  0  1  0  0  0  0  0  0  0  0
   12.0682   -5.7938   -0.0508 C   0  0  0  1  0  0  0  0  0  0  0  0
   13.0483   -6.1886   -0.2197 H   0  0  0  1  0  0  0  0  0  0  0  0
   11.4416   -6.0255   -0.8866 H   0  0  0  1  0  0  0  0  0  0  0  0
   11.6566   -6.2292    0.8358 H   0  0  0  1  0  0  0  0  0  0  0  0
   13.2939   -3.6464   -0.0471 C   0  0  0  1  0  0  0  0  0  0  0  0
   13.3237   -2.6150    0.0831 H   0  0  0  1  0  0  0  0  0  0  0  0
   14.1587   -4.1638   -0.3042 H   0  0  0  1  0  0  0  0  0  0  0  0
    6.2682   -1.3298    1.1798 P   0  0  0  1  0  0  0  0  0  0  0  0
    5.6032   -1.2221    2.4976 O   0  0  0  1  0  0  0  0  0  0  0  0
    7.0582   -3.6981   -0.5014 P   0  0  0  1  0  0  0  0  0  0  0  0
    6.5544   -5.0747   -0.4689 O   0  0  0  1  0  0  0  0  0  0  0  0
  1 20  1  0  0  0  0
  1 22  1  0  0  0  0
  2  4  1  0  0  0  0
  2 22  1  0  0  0  0
  3 22  1  0  0  0  0
  4  5  1  0  0  0  0
  4  6  1  0  0  0  0
  4  9  1  0  0  0  0
  7 20  1  0  0  0  0
  8 20  1  0  0  0  0
  9 10  1  0  0  0  0
  9 11  1  0  0  0  0
  9 12  1  0  0  0  0
 12 13  1  0  0  0  0
 12 17  2  0  0  0  0
 13 14  1  0  0  0  0
 13 15  1  0  0  0  0
 13 16  1  0  0  0  0
 17 18  1  0  0  0  0
 17 19  1  0  0  0  0
 20 21  2  0  0  0  0
 22 23  2  0  0  0  0
M  BCL ATM O_Tr2TrTrPi2 O_Tr2TrTrPi2 O_Te2Te2TeTe C_TeTeTeTe H_S H_S O_Te2Te2TeTe O_Te2Te2Te2Te C_TeTeTeTe H_S H_S C_TrTrTrPi C_TeTeTeTe H_S H_S H_S C_TrTrTrPi H_S H_S P_TeTeTeTePi O_Tr2Tr2TrPi P_TeTeTeTePi O_Tr2Tr2TrPi
M  BCL BND ConjugatedSingleBond ConjugatedSingleBond NonConjugatedSingleBond ConjugatedSingleBond ConjugatedSingleBond NonConjugatedSingleBond NonConjugatedSingleBond NonConjugatedSingleBond ConjugatedSingleBond ConjugatedSingleBond NonConjugatedSingleBond NonConjugatedSingleBond NonConjugatedSingleBond NonConjugatedSingleBond ConjugatedDoubleBond NonConjugatedSingleBond NonConjugatedSingleBond NonConjugatedSingleBond NonConjugatedSingleBond NonConjugatedSingleBond ConjugatedDoubleBond ConjugatedDoubleBond
M  BCL CHI  20   R  22   S
M  BCL DBI - - -
M  END
> <ConfClashScore>
0 

> <ConfOneFourInteractionScore>
-0.975364 

> <ConfScore>
-0.164613 

> <ConfScorePBest>
0.0099485 

> <ConfTolerance>
0.65464 

$$$$
L07.****
  PyMOL2.5          3D                             0

 23 22  0  0  0  0  0  0  0  0999 V2000
    8.0516   -2.8865   -3.0818 O   0  0  0  1  0  0  0  0  0  0  0  0
   10.0775   -3.8808   -2.1097 O   0  0  0  1  0  0  0  0  0  0  0  0
    9.6675   -4.0752   -4.5931 O   0  0  0  0  0  0  0  0  0  0  0  0
    9.7302   -4.0939   -0.7213 C   0  0  0  1  0  0  0  0  0  0  0  0
    9.5791   -5.1396   -0.5524 H   0  0  0  1  0  0  0  0  0  0  0  0
    8.8290   -3.5621   -0.4979 H   0  0  0  1  0  0  0  0  0  0  0  0
    9.5469   -0.8463   -4.0911 O   0  0  0  0  0  0  0  0  0  0  0  0
    7.0208   -0.5202   -3.3578 O   0  5  0  1  0  0  0  0  0  0  0  0
   10.8431   -3.5961    0.1864 C   0  0  0  1  0  0  0  0  0  0  0  0
   10.5168   -3.7059    1.1995 H   0  0  0  1  0  0  0  0  0  0  0  0
   11.0043   -2.5600   -0.0266 H   0  0  0  1  0  0  0  0  0  0  0  0
   12.1606   -4.3100    0.0430 C   0  0  0  1  0  0  0  0  0  0  0  0
   12.0608   -5.8083   -0.0163 C   0  0  0  1  0  0  0  0  0  0  0  0
   13.0408   -6.2283   -0.1062 H   0  0  0  1  0  0  0  0  0  0  0  0
   11.4719   -6.0931   -0.8631 H   0  0  0  1  0  0  0  0  0  0  0  0
   11.5985   -6.1704    0.8782 H   0  0  0  1  0  0  0  0  0  0  0  0
   13.3060   -3.6398   -0.0234 C   0  0  0  1  0  0  0  0  0  0  0  0
   13.3002   -2.5999   -0.0133 H   0  0  0  1  0  0  0  0  0  0  0  0
   14.2075   -4.1547   -0.0854 H   0  0  0  1  0  0  0  0  0  0  0  0
    8.0681   -1.5532   -4.0366 P   0  0  0  1  0  0  0  0  0  0  0  0
    7.4581   -1.8330   -5.3557 O   0  0  0  1  0  0  0  0  0  0  0  0
    9.0300   -4.1471   -3.2534 P   0  0  0  1  0  0  0  0  0  0  0  0
    8.3062   -5.3644   -2.8850 O   0  0  0  1  0  0  0  0  0  0  0  0
  1 20  1  0  0  0  0
  1 22  1  0  0  0  0
  2  4  1  0  0  0  0
  2 22  1  0  0  0  0
  3 22  1  0  0  0  0
  4  5  1  0  0  0  0
  4  6  1  0  0  0  0
  4  9  1  0  0  0  0
  7 20  1  0  0  0  0
  8 20  1  0  0  0  0
  9 10  1  0  0  0  0
  9 11  1  0  0  0  0
  9 12  1  0  0  0  0
 12 13  1  0  0  0  0
 12 17  2  0  0  0  0
 13 14  1  0  0  0  0
 13 15  1  0  0  0  0
 13 16  1  0  0  0  0
 17 18  1  0  0  0  0
 17 19  1  0  0  0  0
 20 21  2  0  0  0  0
 22 23  2  0  0  0  0
M  BCL ATM O_Tr2TrTrPi2 O_Tr2TrTrPi2 O_Te2Te2TeTe C_TeTeTeTe H_S H_S O_Te2Te2TeTe O_Te2Te2Te2Te C_TeTeTeTe H_S H_S C_TrTrTrPi C_TeTeTeTe H_S H_S H_S C_TrTrTrPi H_S H_S P_TeTeTeTePi O_Tr2Tr2TrPi P_TeTeTeTePi O_Tr2Tr2TrPi
M  BCL BND ConjugatedSingleBond ConjugatedSingleBond NonConjugatedSingleBond ConjugatedSingleBond ConjugatedSingleBond NonConjugatedSingleBond NonConjugatedSingleBond NonConjugatedSingleBond ConjugatedSingleBond ConjugatedSingleBond NonConjugatedSingleBond NonConjugatedSingleBond NonConjugatedSingleBond NonConjugatedSingleBond ConjugatedDoubleBond NonConjugatedSingleBond NonConjugatedSingleBond NonConjugatedSingleBond NonConjugatedSingleBond NonConjugatedSingleBond ConjugatedDoubleBond ConjugatedDoubleBond
M  BCL CHI  20   R  22   S
M  BCL DBI - - -
M  END
> <ConfClashScore>
0 

> <ConfOneFourInteractionScore>
-0.98644 

> <ConfScore>
-0.164057 

> <ConfScorePBest>
0.0098455 

> <ConfTolerance>
0.675002 

$$$$
L07.****
  PyMOL2.5          3D                             0

 23 22  0  0  0  0  0  0  0  0999 V2000
   14.1209   -9.7629    1.4985 O   0  0  0  1  0  0  0  0  0  0  0  0
   13.3445   -7.6066    0.4947 O   0  0  0  1  0  0  0  0  0  0  0  0
   12.3418   -9.7668   -0.2881 O   0  0  0  0  0  0  0  0  0  0  0  0
   14.4326   -6.6988    0.7918 C   0  0  0  1  0  0  0  0  0  0  0  0
   15.0353   -6.5729   -0.0832 H   0  0  0  1  0  0  0  0  0  0  0  0
   15.0286   -7.1093    1.5800 H   0  0  0  1  0  0  0  0  0  0  0  0
   15.2002  -12.1458    1.9839 O   0  0  0  0  0  0  0  0  0  0  0  0
   12.8817  -11.9635    0.8447 O   0  5  0  1  0  0  0  0  0  0  0  0
   13.8916   -5.3463    1.2258 C   0  0  0  1  0  0  0  0  0  0  0  0
   14.7197   -4.6760    1.3248 H   0  0  0  1  0  0  0  0  0  0  0  0
   13.4169   -5.4704    2.1767 H   0  0  0  1  0  0  0  0  0  0  0  0
   12.8964   -4.7192    0.2887 C   0  0  0  1  0  0  0  0  0  0  0  0
   11.7218   -5.6015   -0.0704 C   0  0  0  1  0  0  0  0  0  0  0  0
   12.0671   -6.4461   -0.6291 H   0  0  0  1  0  0  0  0  0  0  0  0
   11.0249   -5.0443   -0.6609 H   0  0  0  1  0  0  0  0  0  0  0  0
   11.2423   -5.9383    0.8249 H   0  0  0  1  0  0  0  0  0  0  0  0
   13.0168   -3.4892   -0.1992 C   0  0  0  1  0  0  0  0  0  0  0  0
   13.8366   -2.9051    0.0622 H   0  0  0  1  0  0  0  0  0  0  0  0
   12.2920   -3.1109   -0.8420 H   0  0  0  1  0  0  0  0  0  0  0  0
   13.8002  -11.2918    1.9977 P   0  0  0  1  0  0  0  0  0  0  0  0
   13.0558  -11.2987    3.2769 O   0  0  0  1  0  0  0  0  0  0  0  0
   13.6318   -9.1347    0.1101 P   0  0  0  1  0  0  0  0  0  0  0  0
   14.7876   -9.1417   -0.8106 O   0  0  0  1  0  0  0  0  0  0  0  0
  1 20  1  0  0  0  0
  1 22  1  0  0  0  0
  2  4  1  0  0  0  0
  2 22  1  0  0  0  0
  3 22  1  0  0  0  0
  4  5  1  0  0  0  0
  4  6  1  0  0  0  0
  4  9  1  0  0  0  0
  7 20  1  0  0  0  0
  8 20  1  0  0  0  0
  9 10  1  0  0  0  0
  9 11  1  0  0  0  0
  9 12  1  0  0  0  0
 12 13  1  0  0  0  0
 12 17  2  0  0  0  0
 13 14  1  0  0  0  0
 13 15  1  0  0  0  0
 13 16  1  0  0  0  0
 17 18  1  0  0  0  0
 17 19  1  0  0  0  0
 20 21  2  0  0  0  0
 22 23  2  0  0  0  0
M  BCL ATM O_Tr2TrTrPi2 O_Tr2TrTrPi2 O_Te2Te2TeTe C_TeTeTeTe H_S H_S O_Te2Te2TeTe O_Te2Te2Te2Te C_TeTeTeTe H_S H_S C_TrTrTrPi C_TeTeTeTe H_S H_S H_S C_TrTrTrPi H_S H_S P_TeTeTeTePi O_Tr2Tr2TrPi P_TeTeTeTePi O_Tr2Tr2TrPi
M  BCL BND ConjugatedSingleBond ConjugatedSingleBond NonConjugatedSingleBond ConjugatedSingleBond ConjugatedSingleBond NonConjugatedSingleBond NonConjugatedSingleBond NonConjugatedSingleBond ConjugatedSingleBond ConjugatedSingleBond NonConjugatedSingleBond NonConjugatedSingleBond NonConjugatedSingleBond NonConjugatedSingleBond ConjugatedDoubleBond NonConjugatedSingleBond NonConjugatedSingleBond NonConjugatedSingleBond NonConjugatedSingleBond NonConjugatedSingleBond ConjugatedDoubleBond ConjugatedDoubleBond
M  BCL CHI  20   R  22   S
M  BCL DBI - - -
M  END
> <ConfClashScore>
0 

> <ConfOneFourInteractionScore>
-0.98644 

> <ConfScore>
-0.162342 

> <ConfScorePBest>
0.0097425 

> <ConfTolerance>
0.712392 

$$$$
L07.****
  PyMOL2.5          3D                             0

 23 22  0  0  0  0  0  0  0  0999 V2000
    8.4133   -0.3701    2.9149 O   0  0  0  1  0  0  0  0  0  0  0  0
   10.1189   -1.6182    1.8893 O   0  0  0  1  0  0  0  0  0  0  0  0
   10.8033    0.4837    3.1696 O   0  0  0  0  0  0  0  0  0  0  0  0
   11.2282   -2.2138    1.1757 C   0  0  0  1  0  0  0  0  0  0  0  0
   12.1259   -2.0363    1.7304 H   0  0  0  1  0  0  0  0  0  0  0  0
   11.3046   -1.7498    0.2146 H   0  0  0  1  0  0  0  0  0  0  0  0
    7.8644   -2.8273    2.7916 O   0  0  0  0  0  0  0  0  0  0  0  0
    6.9700   -1.3523    4.8755 O   0  5  0  1  0  0  0  0  0  0  0  0
   11.0671   -3.7155    0.9791 C   0  0  0  1  0  0  0  0  0  0  0  0
   10.1650   -3.8925    0.4316 H   0  0  0  1  0  0  0  0  0  0  0  0
   10.9980   -4.1794    1.9409 H   0  0  0  1  0  0  0  0  0  0  0  0
   12.2135   -4.3382    0.2281 C   0  0  0  1  0  0  0  0  0  0  0  0
   12.0338   -5.7938   -0.0996 C   0  0  0  1  0  0  0  0  0  0  0  0
   12.9536   -6.1917   -0.4745 H   0  0  0  1  0  0  0  0  0  0  0  0
   11.2705   -5.9005   -0.8418 H   0  0  0  1  0  0  0  0  0  0  0  0
   11.7494   -6.3257    0.7842 H   0  0  0  1  0  0  0  0  0  0  0  0
   13.2873   -3.6300   -0.1051 C   0  0  0  1  0  0  0  0  0  0  0  0
   13.3299   -2.6154    0.1192 H   0  0  0  1  0  0  0  0  0  0  0  0
   14.0843   -4.0899   -0.5896 H   0  0  0  1  0  0  0  0  0  0  0  0
    8.2215   -1.6695    3.8969 P   0  0  0  1  0  0  0  0  0  0  0  0
    9.5109   -1.8912    4.5888 O   0  0  0  1  0  0  0  0  0  0  0  0
    9.8290   -0.0416    2.1812 P   0  0  0  1  0  0  0  0  0  0  0  0
    9.6095    0.6835    0.9169 O   0  0  0  1  0  0  0  0  0  0  0  0
  1 20  1  0  0  0  0
  1 22  1  0  0  0  0
  2  4  1  0  0  0  0
  2 22  1  0  0  0  0
  3 22  1  0  0  0  0
  4  5  1  0  0  0  0
  4  6  1  0  0  0  0
  4  9  1  0  0  0  0
  7 20  1  0  0  0  0
  8 20  1  0  0  0  0
  9 10  1  0  0  0  0
  9 11  1  0  0  0  0
  9 12  1  0  0  0  0
 12 13  1  0  0  0  0
 12 17  2  0  0  0  0
 13 14  1  0  0  0  0
 13 15  1  0  0  0  0
 13 16  1  0  0  0  0
 17 18  1  0  0  0  0
 17 19  1  0  0  0  0
 20 21  2  0  0  0  0
 22 23  2  0  0  0  0
M  BCL ATM O_Tr2TrTrPi2 O_Tr2TrTrPi2 O_Te2Te2TeTe C_TeTeTeTe H_S H_S O_Te2Te2TeTe O_Te2Te2Te2Te C_TeTeTeTe H_S H_S C_TrTrTrPi C_TeTeTeTe H_S H_S H_S C_TrTrTrPi H_S H_S P_TeTeTeTePi O_Tr2Tr2TrPi P_TeTeTeTePi O_Tr2Tr2TrPi
M  BCL BND ConjugatedSingleBond ConjugatedSingleBond NonConjugatedSingleBond ConjugatedSingleBond ConjugatedSingleBond NonConjugatedSingleBond NonConjugatedSingleBond NonConjugatedSingleBond ConjugatedSingleBond ConjugatedSingleBond NonConjugatedSingleBond NonConjugatedSingleBond NonConjugatedSingleBond NonConjugatedSingleBond ConjugatedDoubleBond NonConjugatedSingleBond NonConjugatedSingleBond NonConjugatedSingleBond NonConjugatedSingleBond NonConjugatedSingleBond ConjugatedDoubleBond ConjugatedDoubleBond
M  BCL CHI  20   R  22   S
M  BCL DBI - - -
M  END
> <ConfClashScore>
0 

> <ConfOneFourInteractionScore>
-0.988196 

> <ConfScore>
-0.161022 

> <ConfScorePBest>
0.0096395 

> <ConfTolerance>
0.725633 

$$$$
L07.****
  PyMOL2.5          3D                             0

 23 22  0  0  0  0  0  0  0  0999 V2000
   16.4393   -1.5991    0.8231 O   0  0  0  1  0  0  0  0  0  0  0  0
   15.4240   -3.8067    1.4830 O   0  0  0  1  0  0  0  0  0  0  0  0
   16.5512   -2.2471    3.2470 O   0  0  0  0  0  0  0  0  0  0  0  0
   15.4483   -4.5832    0.2612 C   0  0  0  1  0  0  0  0  0  0  0  0
   16.3582   -5.1446    0.2186 H   0  0  0  1  0  0  0  0  0  0  0  0
   15.3974   -3.9212   -0.5779 H   0  0  0  1  0  0  0  0  0  0  0  0
   14.7607    0.0533    2.1328 O   0  0  0  0  0  0  0  0  0  0  0  0
   14.0778   -0.8502   -0.2021 O   0  5  0  1  0  0  0  0  0  0  0  0
   14.2631   -5.5431    0.2165 C   0  0  0  1  0  0  0  0  0  0  0  0
   14.2282   -6.1001    1.1294 H   0  0  0  1  0  0  0  0  0  0  0  0
   14.3865   -6.2147   -0.6073 H   0  0  0  1  0  0  0  0  0  0  0  0
   12.9713   -4.7887    0.0489 C   0  0  0  1  0  0  0  0  0  0  0  0
   11.7009   -5.5861    0.0030 C   0  0  0  1  0  0  0  0  0  0  0  0
   10.8725   -4.9291   -0.1616 H   0  0  0  1  0  0  0  0  0  0  0  0
   11.5689   -6.1001    0.9321 H   0  0  0  1  0  0  0  0  0  0  0  0
   11.7553   -6.2977   -0.7942 H   0  0  0  1  0  0  0  0  0  0  0  0
   12.9566   -3.4640   -0.0546 C   0  0  0  1  0  0  0  0  0  0  0  0
   12.0516   -2.9611   -0.1526 H   0  0  0  1  0  0  0  0  0  0  0  0
   13.8492   -2.9307   -0.0376 H   0  0  0  1  0  0  0  0  0  0  0  0
   15.3594   -0.3747    0.6672 P   0  0  0  1  0  0  0  0  0  0  0  0
   15.9152    0.8689    0.0885 O   0  0  0  1  0  0  0  0  0  0  0  0
   16.6434   -2.8226    1.8612 P   0  0  0  1  0  0  0  0  0  0  0  0
   17.9255   -3.4377    1.5713 O   0  0  0  1  0  0  0  0  0  0  0  0
  1 20  1  0  0  0  0
  1 22  1  0  0  0  0
  2  4  1  0  0  0  0
  2 22  1  0  0  0  0
  3 22  1  0  0  0  0
  4  5  1  0  0  0  0
  4  6  1  0  0  0  0
  4  9  1  0  0  0  0
  7 20  1  0  0  0  0
  8 20  1  0  0  0  0
  9 10  1  0  0  0  0
  9 11  1  0  0  0  0
  9 12  1  0  0  0  0
 12 13  1  0  0  0  0
 12 17  2  0  0  0  0
 13 14  1  0  0  0  0
 13 15  1  0  0  0  0
 13 16  1  0  0  0  0
 17 18  1  0  0  0  0
 17 19  1  0  0  0  0
 20 21  2  0  0  0  0
 22 23  2  0  0  0  0
M  BCL ATM O_Tr2TrTrPi2 O_Tr2TrTrPi2 O_Te2Te2TeTe C_TeTeTeTe H_S H_S O_Te2Te2TeTe O_Te2Te2Te2Te C_TeTeTeTe H_S H_S C_TrTrTrPi C_TeTeTeTe H_S H_S H_S C_TrTrTrPi H_S H_S P_TeTeTeTePi O_Tr2Tr2TrPi P_TeTeTeTePi O_Tr2Tr2TrPi
M  BCL BND ConjugatedSingleBond ConjugatedSingleBond NonConjugatedSingleBond ConjugatedSingleBond ConjugatedSingleBond NonConjugatedSingleBond NonConjugatedSingleBond NonConjugatedSingleBond ConjugatedSingleBond ConjugatedSingleBond NonConjugatedSingleBond NonConjugatedSingleBond NonConjugatedSingleBond NonConjugatedSingleBond ConjugatedDoubleBond NonConjugatedSingleBond NonConjugatedSingleBond NonConjugatedSingleBond NonConjugatedSingleBond NonConjugatedSingleBond ConjugatedDoubleBond ConjugatedDoubleBond
M  BCL CHI  20   R  22   S
M  BCL DBI - - -
M  END
> <ConfClashScore>
0 

> <ConfOneFourInteractionScore>
-0.981767 

> <ConfScore>
-0.160831 

> <ConfScorePBest>
0.0095365 

> <ConfTolerance>
0.720392 

$$$$
L07.****
  PyMOL2.5          3D                             0

 23 22  0  0  0  0  0  0  0  0999 V2000
   17.2385   -2.9054    2.4235 O   0  0  0  1  0  0  0  0  0  0  0  0
   15.8002   -4.0953    0.6917 O   0  0  0  1  0  0  0  0  0  0  0  0
   18.2137   -3.6530    0.2032 O   0  0  0  0  0  0  0  0  0  0  0  0
   15.3992   -4.5303   -0.6288 C   0  0  0  1  0  0  0  0  0  0  0  0
   16.2198   -5.0460   -1.0824 H   0  0  0  1  0  0  0  0  0  0  0  0
   15.1528   -3.6679   -1.2124 H   0  0  0  1  0  0  0  0  0  0  0  0
   19.7245   -1.8963    2.6553 O   0  0  0  0  0  0  0  0  0  0  0  0
   19.0968   -4.2470    3.6614 O   0  5  0  1  0  0  0  0  0  0  0  0
   14.1939   -5.4612   -0.6042 C   0  0  0  1  0  0  0  0  0  0  0  0
   14.4084   -6.2788    0.0518 H   0  0  0  1  0  0  0  0  0  0  0  0
   14.0293   -5.8315   -1.5945 H   0  0  0  1  0  0  0  0  0  0  0  0
   12.9356   -4.7842   -0.1305 C   0  0  0  1  0  0  0  0  0  0  0  0
   11.6917   -5.5835   -0.0385 C   0  0  0  1  0  0  0  0  0  0  0  0
   11.8960   -6.5055    0.4647 H   0  0  0  1  0  0  0  0  0  0  0  0
   11.3259   -5.7882   -1.0230 H   0  0  0  1  0  0  0  0  0  0  0  0
   10.9548   -5.0342    0.5093 H   0  0  0  1  0  0  0  0  0  0  0  0
   12.9848   -3.4842    0.1909 C   0  0  0  1  0  0  0  0  0  0  0  0
   12.1220   -2.9933    0.5014 H   0  0  0  1  0  0  0  0  0  0  0  0
   13.8848   -2.9666    0.1299 H   0  0  0  1  0  0  0  0  0  0  0  0
   18.5410   -2.7467    3.4073 P   0  0  0  1  0  0  0  0  0  0  0  0
   18.2493   -2.0546    4.6826 O   0  0  0  1  0  0  0  0  0  0  0  0
   16.9791   -3.0520    0.9456 P   0  0  0  1  0  0  0  0  0  0  0  0
   16.5504   -1.7871    0.2600 O   0  0  0  1  0  0  0  0  0  0  0  0
  1 20  1  0  0  0  0
  1 22  1  0  0  0  0
  2  4  1  0  0  0  0
  2 22  1  0  0  0  0
  3 22  1  0  0  0  0
  4  5  1  0  0  0  0
  4  6  1  0  0  0  0
  4  9  1  0  0  0  0
  7 20  1  0  0  0  0
  8 20  1  0  0  0  0
  9 10  1  0  0  0  0
  9 11  1  0  0  0  0
  9 12  1  0  0  0  0
 12 13  1  0  0  0  0
 12 17  2  0  0  0  0
 13 14  1  0  0  0  0
 13 15  1  0  0  0  0
 13 16  1  0  0  0  0
 17 18  1  0  0  0  0
 17 19  1  0  0  0  0
 20 21  2  0  0  0  0
 22 23  2  0  0  0  0
M  BCL ATM O_Tr2TrTrPi2 O_Tr2TrTrPi2 O_Te2Te2TeTe C_TeTeTeTe H_S H_S O_Te2Te2TeTe O_Te2Te2Te2Te C_TeTeTeTe H_S H_S C_TrTrTrPi C_TeTeTeTe H_S H_S H_S C_TrTrTrPi H_S H_S P_TeTeTeTePi O_Tr2Tr2TrPi P_TeTeTeTePi O_Tr2Tr2TrPi
M  BCL BND ConjugatedSingleBond ConjugatedSingleBond NonConjugatedSingleBond ConjugatedSingleBond ConjugatedSingleBond NonConjugatedSingleBond NonConjugatedSingleBond NonConjugatedSingleBond ConjugatedSingleBond ConjugatedSingleBond NonConjugatedSingleBond NonConjugatedSingleBond NonConjugatedSingleBond NonConjugatedSingleBond ConjugatedDoubleBond NonConjugatedSingleBond NonConjugatedSingleBond NonConjugatedSingleBond NonConjugatedSingleBond NonConjugatedSingleBond ConjugatedDoubleBond ConjugatedDoubleBond
M  BCL CHI  20   R  22   S
M  BCL DBI - - -
M  END
> <ConfClashScore>
0 

> <ConfOneFourInteractionScore>
-0.988196 

> <ConfScore>
-0.160346 

> <ConfScorePBest>
0.00943349 

> <ConfTolerance>
0.588806 

$$$$
L07.****
  PyMOL2.5          3D                             0

 23 22  0  0  0  0  0  0  0  0999 V2000
   16.1094   -1.4700    0.9237 O   0  0  0  1  0  0  0  0  0  0  0  0
   14.9193   -3.3814    2.0338 O   0  0  0  1  0  0  0  0  0  0  0  0
   15.6764   -1.2817    3.3767 O   0  0  0  0  0  0  0  0  0  0  0  0
   15.2221   -4.5715    1.2606 C   0  0  0  1  0  0  0  0  0  0  0  0
   15.9745   -5.1473    1.7577 H   0  0  0  1  0  0  0  0  0  0  0  0
   15.5691   -4.2949    0.2869 H   0  0  0  1  0  0  0  0  0  0  0  0
   18.5446   -1.6816   -0.0350 O   0  0  0  0  0  0  0  0  0  0  0  0
   16.6872   -0.5717   -1.4899 O   0  5  0  1  0  0  0  0  0  0  0  0
   13.9399   -5.3849    1.1426 C   0  0  0  1  0  0  0  0  0  0  0  0
   13.5262   -5.5125    2.1211 H   0  0  0  1  0  0  0  0  0  0  0  0
   14.1806   -6.3420    0.7290 H   0  0  0  1  0  0  0  0  0  0  0  0
   12.9051   -4.7309    0.2665 C   0  0  0  1  0  0  0  0  0  0  0  0
   11.7194   -5.5925   -0.0557 C   0  0  0  1  0  0  0  0  0  0  0  0
   12.0413   -6.4515   -0.6065 H   0  0  0  1  0  0  0  0  0  0  0  0
   11.0216   -5.0333   -0.6433 H   0  0  0  1  0  0  0  0  0  0  0  0
   11.2500   -5.9070    0.8529 H   0  0  0  1  0  0  0  0  0  0  0  0
   13.0098   -3.4904   -0.1978 C   0  0  0  1  0  0  0  0  0  0  0  0
   13.8687   -2.9357   -0.0074 H   0  0  0  1  0  0  0  0  0  0  0  0
   12.2336   -3.0744   -0.7512 H   0  0  0  1  0  0  0  0  0  0  0  0
   16.9595   -1.7788   -0.4443 P   0  0  0  1  0  0  0  0  0  0  0  0
   16.6367   -3.1328   -0.9473 O   0  0  0  1  0  0  0  0  0  0  0  0
   16.0517   -2.2698    2.3173 P   0  0  0  1  0  0  0  0  0  0  0  0
   17.3494   -2.8825    2.5278 O   0  0  0  1  0  0  0  0  0  0  0  0
  1 20  1  0  0  0  0
  1 22  1  0  0  0  0
  2  4  1  0  0  0  0
  2 22  1  0  0  0  0
  3 22  1  0  0  0  0
  4  5  1  0  0  0  0
  4  6  1  0  0  0  0
  4  9  1  0  0  0  0
  7 20  1  0  0  0  0
  8 20  1  0  0  0  0
  9 10  1  0  0  0  0
  9 11  1  0  0  0  0
  9 12  1  0  0  0  0
 12 13  1  0  0  0  0
 12 17  2  0  0  0  0
 13 14  1  0  0  0  0
 13 15  1  0  0  0  0
 13 16  1  0  0  0  0
 17 18  1  0  0  0  0
 17 19  1  0  0  0  0
 20 21  2  0  0  0  0
 22 23  2  0  0  0  0
M  BCL ATM O_Tr2TrTrPi2 O_Tr2TrTrPi2 O_Te2Te2TeTe C_TeTeTeTe H_S H_S O_Te2Te2TeTe O_Te2Te2Te2Te C_TeTeTeTe H_S H_S C_TrTrTrPi C_TeTeTeTe H_S H_S H_S C_TrTrTrPi H_S H_S P_TeTeTeTePi O_Tr2Tr2TrPi P_TeTeTeTePi O_Tr2Tr2TrPi
M  BCL BND ConjugatedSingleBond ConjugatedSingleBond NonConjugatedSingleBond ConjugatedSingleBond ConjugatedSingleBond NonConjugatedSingleBond NonConjugatedSingleBond NonConjugatedSingleBond ConjugatedSingleBond ConjugatedSingleBond NonConjugatedSingleBond NonConjugatedSingleBond NonConjugatedSingleBond NonConjugatedSingleBond ConjugatedDoubleBond NonConjugatedSingleBond NonConjugatedSingleBond NonConjugatedSingleBond NonConjugatedSingleBond NonConjugatedSingleBond ConjugatedDoubleBond ConjugatedDoubleBond
M  BCL CHI  20   R  22   S
M  BCL DBI - - -
M  END
> <ConfClashScore>
0 

> <ConfOneFourInteractionScore>
-0.988196 

> <ConfScore>
-0.153402 

> <ConfScorePBest>
0.00933049 

> <ConfTolerance>
0.730413 

$$$$
L07.****
  PyMOL2.5          3D                             0

 23 22  0  0  0  0  0  0  0  0999 V2000
   13.7523   -8.0548    4.2138 O   0  0  0  1  0  0  0  0  0  0  0  0
   12.8766   -6.5737    2.5606 O   0  0  0  1  0  0  0  0  0  0  0  0
   12.6136   -5.9179    4.9805 O   0  0  0  0  0  0  0  0  0  0  0  0
   13.9996   -5.7110    2.2622 C   0  0  0  1  0  0  0  0  0  0  0  0
   14.8938   -6.1791    2.6175 H   0  0  0  1  0  0  0  0  0  0  0  0
   13.8586   -4.7792    2.7690 H   0  0  0  1  0  0  0  0  0  0  0  0
   15.8365   -7.4712    5.6563 O   0  0  0  0  0  0  0  0  0  0  0  0
   15.5971   -9.9076    4.7152 O   0  5  0  1  0  0  0  0  0  0  0  0
   14.1542   -5.4355    0.7722 C   0  0  0  1  0  0  0  0  0  0  0  0
   14.3147   -6.3659    0.2687 H   0  0  0  1  0  0  0  0  0  0  0  0
   15.0037   -4.8009    0.6296 H   0  0  0  1  0  0  0  0  0  0  0  0
   12.9489   -4.7656    0.1683 C   0  0  0  1  0  0  0  0  0  0  0  0
   11.6875   -5.5742    0.0523 C   0  0  0  1  0  0  0  0  0  0  0  0
   11.8536   -6.4031   -0.6035 H   0  0  0  1  0  0  0  0  0  0  0  0
   10.9051   -4.9595   -0.3412 H   0  0  0  1  0  0  0  0  0  0  0  0
   11.4056   -5.9356    1.0192 H   0  0  0  1  0  0  0  0  0  0  0  0
   12.9988   -3.5046   -0.2473 C   0  0  0  1  0  0  0  0  0  0  0  0
   12.1581   -3.0648   -0.6733 H   0  0  0  1  0  0  0  0  0  0  0  0
   13.8777   -2.9578   -0.1468 H   0  0  0  1  0  0  0  0  0  0  0  0
   14.7627   -8.6720    5.3487 P   0  0  0  1  0  0  0  0  0  0  0  0
   13.8716   -8.9729    6.4914 O   0  0  0  1  0  0  0  0  0  0  0  0
   12.5100   -7.0589    4.0534 P   0  0  0  1  0  0  0  0  0  0  0  0
   11.2620   -7.8415    4.0179 O   0  0  0  1  0  0  0  0  0  0  0  0
  1 20  1  0  0  0  0
  1 22  1  0  0  0  0
  2  4  1  0  0  0  0
  2 22  1  0  0  0  0
  3 22  1  0  0  0  0
  4  5  1  0  0  0  0
  4  6  1  0  0  0  0
  4  9  1  0  0  0  0
  7 20  1  0  0  0  0
  8 20  1  0  0  0  0
  9 10  1  0  0  0  0
  9 11  1  0  0  0  0
  9 12  1  0  0  0  0
 12 13  1  0  0  0  0
 12 17  2  0  0  0  0
 13 14  1  0  0  0  0
 13 15  1  0  0  0  0
 13 16  1  0  0  0  0
 17 18  1  0  0  0  0
 17 19  1  0  0  0  0
 20 21  2  0  0  0  0
 22 23  2  0  0  0  0
M  BCL ATM O_Tr2TrTrPi2 O_Tr2TrTrPi2 O_Te2Te2TeTe C_TeTeTeTe H_S H_S O_Te2Te2TeTe O_Te2Te2Te2Te C_TeTeTeTe H_S H_S C_TrTrTrPi C_TeTeTeTe H_S H_S H_S C_TrTrTrPi H_S H_S P_TeTeTeTePi O_Tr2Tr2TrPi P_TeTeTeTePi O_Tr2Tr2TrPi
M  BCL BND ConjugatedSingleBond ConjugatedSingleBond NonConjugatedSingleBond ConjugatedSingleBond ConjugatedSingleBond NonConjugatedSingleBond NonConjugatedSingleBond NonConjugatedSingleBond ConjugatedSingleBond ConjugatedSingleBond NonConjugatedSingleBond NonConjugatedSingleBond NonConjugatedSingleBond NonConjugatedSingleBond ConjugatedDoubleBond NonConjugatedSingleBond NonConjugatedSingleBond NonConjugatedSingleBond NonConjugatedSingleBond NonConjugatedSingleBond ConjugatedDoubleBond ConjugatedDoubleBond
M  BCL CHI  20   R  22   S
M  BCL DBI - - -
M  END
> <ConfClashScore>
0 

> <ConfOneFourInteractionScore>
-0.98644 

> <ConfScore>
-0.153245 

> <ConfScorePBest>
0.00922749 

> <ConfTolerance>
0.626232 

$$$$
L07.****
  PyMOL2.5          3D                             0

 23 22  0  0  0  0  0  0  0  0999 V2000
   14.6359   -6.1520   -4.9614 O   0  0  0  1  0  0  0  0  0  0  0  0
   13.5900   -5.0807   -3.0377 O   0  0  0  1  0  0  0  0  0  0  0  0
   12.1483   -6.4733   -4.6009 O   0  0  0  0  0  0  0  0  0  0  0  0
   13.9307   -6.0899   -2.0583 C   0  0  0  1  0  0  0  0  0  0  0  0
   14.8286   -6.5804   -2.3716 H   0  0  0  1  0  0  0  0  0  0  0  0
   13.1332   -6.8016   -2.0096 H   0  0  0  1  0  0  0  0  0  0  0  0
   14.7404   -5.2247   -7.4083 O   0  0  0  0  0  0  0  0  0  0  0  0
   13.7781   -7.4990   -6.9145 O   0  5  0  1  0  0  0  0  0  0  0  0
   14.1525   -5.5123   -0.6666 C   0  0  0  1  0  0  0  0  0  0  0  0
   14.9855   -4.8418   -0.7049 H   0  0  0  1  0  0  0  0  0  0  0  0
   14.3716   -6.3161    0.0048 H   0  0  0  1  0  0  0  0  0  0  0  0
   12.9574   -4.7622   -0.1421 C   0  0  0  1  0  0  0  0  0  0  0  0
   11.6973   -5.5753   -0.0450 C   0  0  0  1  0  0  0  0  0  0  0  0
   11.8881   -6.4638    0.5198 H   0  0  0  1  0  0  0  0  0  0  0  0
   11.3683   -5.8415   -1.0278 H   0  0  0  1  0  0  0  0  0  0  0  0
   10.9382   -4.9996    0.4420 H   0  0  0  1  0  0  0  0  0  0  0  0
   12.9882   -3.4824    0.2137 C   0  0  0  1  0  0  0  0  0  0  0  0
   12.1291   -3.0247    0.5799 H   0  0  0  1  0  0  0  0  0  0  0  0
   13.8705   -2.9389    0.1261 H   0  0  0  1  0  0  0  0  0  0  0  0
   15.0308   -6.5591   -6.5002 P   0  0  0  1  0  0  0  0  0  0  0  0
   16.3496   -7.2006   -6.6994 O   0  0  0  1  0  0  0  0  0  0  0  0
   13.2556   -5.4784   -4.5230 P   0  0  0  1  0  0  0  0  0  0  0  0
   13.0450   -4.2052   -5.2831 O   0  0  0  1  0  0  0  0  0  0  0  0
  1 20  1  0  0  0  0
  1 22  1  0  0  0  0
  2  4  1  0  0  0  0
  2 22  1  0  0  0  0
  3 22  1  0  0  0  0
  4  5  1  0  0  0  0
  4  6  1  0  0  0  0
  4  9  1  0  0  0  0
  7 20  1  0  0  0  0
  8 20  1  0  0  0  0
  9 10  1  0  0  0  0
  9 11  1  0  0  0  0
  9 12  1  0  0  0  0
 12 13  1  0  0  0  0
 12 17  2  0  0  0  0
 13 14  1  0  0  0  0
 13 15  1  0  0  0  0
 13 16  1  0  0  0  0
 17 18  1  0  0  0  0
 17 19  1  0  0  0  0
 20 21  2  0  0  0  0
 22 23  2  0  0  0  0
M  BCL ATM O_Tr2TrTrPi2 O_Tr2TrTrPi2 O_Te2Te2TeTe C_TeTeTeTe H_S H_S O_Te2Te2TeTe O_Te2Te2Te2Te C_TeTeTeTe H_S H_S C_TrTrTrPi C_TeTeTeTe H_S H_S H_S C_TrTrTrPi H_S H_S P_TeTeTeTePi O_Tr2Tr2TrPi P_TeTeTeTePi O_Tr2Tr2TrPi
M  BCL BND ConjugatedSingleBond ConjugatedSingleBond NonConjugatedSingleBond ConjugatedSingleBond ConjugatedSingleBond NonConjugatedSingleBond NonConjugatedSingleBond NonConjugatedSingleBond ConjugatedSingleBond ConjugatedSingleBond NonConjugatedSingleBond NonConjugatedSingleBond NonConjugatedSingleBond NonConjugatedSingleBond ConjugatedDoubleBond NonConjugatedSingleBond NonConjugatedSingleBond NonConjugatedSingleBond NonConjugatedSingleBond NonConjugatedSingleBond ConjugatedDoubleBond ConjugatedDoubleBond
M  BCL CHI  20   R  22   S
M  BCL DBI - - -
M  END
> <ConfClashScore>
0 

> <ConfOneFourInteractionScore>
-0.98644 

> <ConfScore>
-0.152033 

> <ConfScorePBest>
0.00912449 

> <ConfTolerance>
0.761487 

$$$$
L07.****
  PyMOL2.5          3D                             0

 23 22  0  0  0  0  0  0  0  0999 V2000
   15.8900   -9.3324   -0.3275 O   0  0  0  1  0  0  0  0  0  0  0  0
   15.9118   -6.9865    0.6126 O   0  0  0  1  0  0  0  0  0  0  0  0
   17.4201   -7.6649   -1.2655 O   0  0  0  0  0  0  0  0  0  0  0  0
   14.7718   -6.4471   -0.0968 C   0  0  0  1  0  0  0  0  0  0  0  0
   14.0862   -7.2330   -0.3358 H   0  0  0  1  0  0  0  0  0  0  0  0
   15.0960   -5.9696   -0.9978 H   0  0  0  1  0  0  0  0  0  0  0  0
   15.7352  -11.1693    1.3222 O   0  0  0  0  0  0  0  0  0  0  0  0
   17.6346  -11.1427   -0.4212 O   0  5  0  1  0  0  0  0  0  0  0  0
   14.0980   -5.4305    0.8155 C   0  0  0  1  0  0  0  0  0  0  0  0
   14.8188   -4.6889    1.0900 H   0  0  0  1  0  0  0  0  0  0  0  0
   13.7539   -5.9363    1.6934 H   0  0  0  1  0  0  0  0  0  0  0  0
   12.9258   -4.7430    0.1681 C   0  0  0  1  0  0  0  0  0  0  0  0
   11.6884   -5.5875    0.0497 C   0  0  0  1  0  0  0  0  0  0  0  0
   11.8696   -6.3933   -0.6305 H   0  0  0  1  0  0  0  0  0  0  0  0
   10.8810   -4.9876   -0.3153 H   0  0  0  1  0  0  0  0  0  0  0  0
   11.4334   -5.9828    1.0108 H   0  0  0  1  0  0  0  0  0  0  0  0
   13.0095   -3.4864   -0.2555 C   0  0  0  1  0  0  0  0  0  0  0  0
   12.1848   -3.0312   -0.6962 H   0  0  0  1  0  0  0  0  0  0  0  0
   13.8989   -2.9585   -0.1465 H   0  0  0  1  0  0  0  0  0  0  0  0
   16.0307  -10.9656   -0.2780 P   0  0  0  1  0  0  0  0  0  0  0  0
   15.2159  -11.7947   -1.1940 O   0  0  0  1  0  0  0  0  0  0  0  0
   16.8270   -8.1218    0.0304 P   0  0  0  1  0  0  0  0  0  0  0  0
   17.7991   -8.4717    1.0825 O   0  0  0  1  0  0  0  0  0  0  0  0
  1 20  1  0  0  0  0
  1 22  1  0  0  0  0
  2  4  1  0  0  0  0
  2 22  1  0  0  0  0
  3 22  1  0  0  0  0
  4  5  1  0  0  0  0
  4  6  1  0  0  0  0
  4  9  1  0  0  0  0
  7 20  1  0  0  0  0
  8 20  1  0  0  0  0
  9 10  1  0  0  0  0
  9 11  1  0  0  0  0
  9 12  1  0  0  0  0
 12 13  1  0  0  0  0
 12 17  2  0  0  0  0
 13 14  1  0  0  0  0
 13 15  1  0  0  0  0
 13 16  1  0  0  0  0
 17 18  1  0  0  0  0
 17 19  1  0  0  0  0
 20 21  2  0  0  0  0
 22 23  2  0  0  0  0
M  BCL ATM O_Tr2TrTrPi2 O_Tr2TrTrPi2 O_Te2Te2TeTe C_TeTeTeTe H_S H_S O_Te2Te2TeTe O_Te2Te2Te2Te C_TeTeTeTe H_S H_S C_TrTrTrPi C_TeTeTeTe H_S H_S H_S C_TrTrTrPi H_S H_S P_TeTeTeTePi O_Tr2Tr2TrPi P_TeTeTeTePi O_Tr2Tr2TrPi
M  BCL BND ConjugatedSingleBond ConjugatedSingleBond NonConjugatedSingleBond ConjugatedSingleBond ConjugatedSingleBond NonConjugatedSingleBond NonConjugatedSingleBond NonConjugatedSingleBond ConjugatedSingleBond ConjugatedSingleBond NonConjugatedSingleBond NonConjugatedSingleBond NonConjugatedSingleBond NonConjugatedSingleBond ConjugatedDoubleBond NonConjugatedSingleBond NonConjugatedSingleBond NonConjugatedSingleBond NonConjugatedSingleBond NonConjugatedSingleBond ConjugatedDoubleBond ConjugatedDoubleBond
M  BCL CHI  20   R  22   S
M  BCL DBI - - -
M  END
> <ConfClashScore>
0 

> <ConfOneFourInteractionScore>
-0.98644 

> <ConfScore>
-0.149712 

> <ConfScorePBest>
0.00902149 

> <ConfTolerance>
0.657559 

$$$$
L07.****
  PyMOL2.5          3D                             0

 23 22  0  0  0  0  0  0  0  0999 V2000
   13.2164   -7.8060    4.9001 O   0  0  0  1  0  0  0  0  0  0  0  0
   14.3572   -6.1086    3.4373 O   0  0  0  1  0  0  0  0  0  0  0  0
   15.4886   -7.0567    5.4984 O   0  0  0  0  0  0  0  0  0  0  0  0
   13.2759   -5.6715    2.5807 C   0  0  0  1  0  0  0  0  0  0  0  0
   12.8044   -4.8079    3.0011 H   0  0  0  1  0  0  0  0  0  0  0  0
   12.5555   -6.4556    2.4744 H   0  0  0  1  0  0  0  0  0  0  0  0
   13.5202   -8.2108    2.2955 O   0  0  0  0  0  0  0  0  0  0  0  0
   11.1209   -7.9534    3.2682 O   0  5  0  1  0  0  0  0  0  0  0  0
   13.8723   -5.3274    1.2222 C   0  0  0  1  0  0  0  0  0  0  0  0
   14.2548   -6.2241    0.7811 H   0  0  0  1  0  0  0  0  0  0  0  0
   14.6720   -4.6316    1.3677 H   0  0  0  1  0  0  0  0  0  0  0  0
   12.8724   -4.7171    0.2768 C   0  0  0  1  0  0  0  0  0  0  0  0
   11.7154   -5.6089   -0.0764 C   0  0  0  1  0  0  0  0  0  0  0  0
   12.0734   -6.4631   -0.6121 H   0  0  0  1  0  0  0  0  0  0  0  0
   11.0231   -5.0690   -0.6880 H   0  0  0  1  0  0  0  0  0  0  0  0
   11.2260   -5.9294    0.8196 H   0  0  0  1  0  0  0  0  0  0  0  0
   13.0281   -3.4836   -0.1919 C   0  0  0  1  0  0  0  0  0  0  0  0
   13.8485   -2.9163    0.1024 H   0  0  0  1  0  0  0  0  0  0  0  0
   12.3303   -3.0859   -0.8526 H   0  0  0  1  0  0  0  0  0  0  0  0
   12.5837   -8.5688    3.5934 P   0  0  0  1  0  0  0  0  0  0  0  0
   12.5416  -10.0478    3.6271 O   0  0  0  1  0  0  0  0  0  0  0  0
   14.2047   -6.5411    4.9907 P   0  0  0  1  0  0  0  0  0  0  0  0
   13.5294   -5.3942    5.6171 O   0  0  0  1  0  0  0  0  0  0  0  0
  1 20  1  0  0  0  0
  1 22  1  0  0  0  0
  2  4  1  0  0  0  0
  2 22  1  0  0  0  0
  3 22  1  0  0  0  0
  4  5  1  0  0  0  0
  4  6  1  0  0  0  0
  4  9  1  0  0  0  0
  7 20  1  0  0  0  0
  8 20  1  0  0  0  0
  9 10  1  0  0  0  0
  9 11  1  0  0  0  0
  9 12  1  0  0  0  0
 12 13  1  0  0  0  0
 12 17  2  0  0  0  0
 13 14  1  0  0  0  0
 13 15  1  0  0  0  0
 13 16  1  0  0  0  0
 17 18  1  0  0  0  0
 17 19  1  0  0  0  0
 20 21  2  0  0  0  0
 22 23  2  0  0  0  0
M  BCL ATM O_Tr2TrTrPi2 O_Tr2TrTrPi2 O_Te2Te2TeTe C_TeTeTeTe H_S H_S O_Te2Te2TeTe O_Te2Te2Te2Te C_TeTeTeTe H_S H_S C_TrTrTrPi C_TeTeTeTe H_S H_S H_S C_TrTrTrPi H_S H_S P_TeTeTeTePi O_Tr2Tr2TrPi P_TeTeTeTePi O_Tr2Tr2TrPi
M  BCL BND ConjugatedSingleBond ConjugatedSingleBond NonConjugatedSingleBond ConjugatedSingleBond ConjugatedSingleBond NonConjugatedSingleBond NonConjugatedSingleBond NonConjugatedSingleBond ConjugatedSingleBond ConjugatedSingleBond NonConjugatedSingleBond NonConjugatedSingleBond NonConjugatedSingleBond NonConjugatedSingleBond ConjugatedDoubleBond NonConjugatedSingleBond NonConjugatedSingleBond NonConjugatedSingleBond NonConjugatedSingleBond NonConjugatedSingleBond ConjugatedDoubleBond ConjugatedDoubleBond
M  BCL CHI  20   R  22   S
M  BCL DBI - - -
M  END
> <ConfClashScore>
0.000511 

> <ConfOneFourInteractionScore>
-0.98644 

> <ConfScore>
-0.149163 

> <ConfScorePBest>
0.00891849 

> <ConfTolerance>
0.839099 

$$$$
L07.****
  PyMOL2.5          3D                             0

 23 22  0  0  0  0  0  0  0  0999 V2000
   16.7392   -8.2950   -0.5664 O   0  0  0  1  0  0  0  0  0  0  0  0
   15.0482   -6.6392   -0.8256 O   0  0  0  1  0  0  0  0  0  0  0  0
   14.5733   -8.9559   -1.7203 O   0  0  0  0  0  0  0  0  0  0  0  0
   14.3902   -6.8084    0.4519 C   0  0  0  1  0  0  0  0  0  0  0  0
   15.0528   -7.2869    1.1426 H   0  0  0  1  0  0  0  0  0  0  0  0
   13.5089   -7.4033    0.3320 H   0  0  0  1  0  0  0  0  0  0  0  0
   18.0374   -9.0993    1.5599 O   0  0  0  0  0  0  0  0  0  0  0  0
   16.9000  -10.8752   -0.0524 O   0  5  0  1  0  0  0  0  0  0  0  0
   14.0166   -5.4274    0.9652 C   0  0  0  1  0  0  0  0  0  0  0  0
   14.8866   -4.8072    0.9070 H   0  0  0  1  0  0  0  0  0  0  0  0
   13.7156   -5.5254    1.9872 H   0  0  0  1  0  0  0  0  0  0  0  0
   12.9054   -4.7401    0.2176 C   0  0  0  1  0  0  0  0  0  0  0  0
   11.7042   -5.6010   -0.0546 C   0  0  0  1  0  0  0  0  0  0  0  0
   12.0188   -6.5247   -0.4936 H   0  0  0  1  0  0  0  0  0  0  0  0
   11.0463   -5.0923   -0.7279 H   0  0  0  1  0  0  0  0  0  0  0  0
   11.1921   -5.7991    0.8638 H   0  0  0  1  0  0  0  0  0  0  0  0
   13.0083   -3.4699   -0.1588 C   0  0  0  1  0  0  0  0  0  0  0  0
   13.8726   -2.9331    0.0567 H   0  0  0  1  0  0  0  0  0  0  0  0
   12.2253   -3.0130   -0.6684 H   0  0  0  1  0  0  0  0  0  0  0  0
   16.7243   -9.4166    0.6301 P   0  0  0  1  0  0  0  0  0  0  0  0
   15.5112   -9.2517    1.4618 O   0  0  0  1  0  0  0  0  0  0  0  0
   15.6216   -7.9100   -1.6345 P   0  0  0  1  0  0  0  0  0  0  0  0
   16.2714   -7.4465   -2.8701 O   0  0  0  1  0  0  0  0  0  0  0  0
  1 20  1  0  0  0  0
  1 22  1  0  0  0  0
  2  4  1  0  0  0  0
  2 22  1  0  0  0  0
  3 22  1  0  0  0  0
  4  5  1  0  0  0  0
  4  6  1  0  0  0  0
  4  9  1  0  0  0  0
  7 20  1  0  0  0  0
  8 20  1  0  0  0  0
  9 10  1  0  0  0  0
  9 11  1  0  0  0  0
  9 12  1  0  0  0  0
 12 13  1  0  0  0  0
 12 17  2  0  0  0  0
 13 14  1  0  0  0  0
 13 15  1  0  0  0  0
 13 16  1  0  0  0  0
 17 18  1  0  0  0  0
 17 19  1  0  0  0  0
 20 21  2  0  0  0  0
 22 23  2  0  0  0  0
M  BCL ATM O_Tr2TrTrPi2 O_Tr2TrTrPi2 O_Te2Te2TeTe C_TeTeTeTe H_S H_S O_Te2Te2TeTe O_Te2Te2Te2Te C_TeTeTeTe H_S H_S C_TrTrTrPi C_TeTeTeTe H_S H_S H_S C_TrTrTrPi H_S H_S P_TeTeTeTePi O_Tr2Tr2TrPi P_TeTeTeTePi O_Tr2Tr2TrPi
M  BCL BND ConjugatedSingleBond ConjugatedSingleBond NonConjugatedSingleBond ConjugatedSingleBond ConjugatedSingleBond NonConjugatedSingleBond NonConjugatedSingleBond NonConjugatedSingleBond ConjugatedSingleBond ConjugatedSingleBond NonConjugatedSingleBond NonConjugatedSingleBond NonConjugatedSingleBond NonConjugatedSingleBond ConjugatedDoubleBond NonConjugatedSingleBond NonConjugatedSingleBond NonConjugatedSingleBond NonConjugatedSingleBond NonConjugatedSingleBond ConjugatedDoubleBond ConjugatedDoubleBond
M  BCL CHI  20   R  22   S
M  BCL DBI - - -
M  END
> <ConfClashScore>
0 

> <ConfOneFourInteractionScore>
-0.992869 

> <ConfScore>
-0.148543 

> <ConfScorePBest>
0.00881549 

> <ConfTolerance>
0.759458 

$$$$
L07.****
  PyMOL2.5          3D                             0

 23 22  0  0  0  0  0  0  0  0999 V2000
   14.1000   -8.8610    2.2756 O   0  0  0  1  0  0  0  0  0  0  0  0
   15.4765   -7.3275    1.0702 O   0  0  0  1  0  0  0  0  0  0  0  0
   15.4468   -9.7573    0.3126 O   0  0  0  0  0  0  0  0  0  0  0  0
   14.4126   -6.7610    0.2696 C   0  0  0  1  0  0  0  0  0  0  0  0
   13.5486   -7.3907    0.3135 H   0  0  0  1  0  0  0  0  0  0  0  0
   14.7330   -6.6646   -0.7467 H   0  0  0  1  0  0  0  0  0  0  0  0
   13.6295  -11.0681    3.4359 O   0  0  0  0  0  0  0  0  0  0  0  0
   12.2721  -10.4796    1.2239 O   0  5  0  1  0  0  0  0  0  0  0  0
   14.0837   -5.3885    0.8422 C   0  0  0  1  0  0  0  0  0  0  0  0
   14.9384   -4.7560    0.7230 H   0  0  0  1  0  0  0  0  0  0  0  0
   13.8627   -5.4978    1.8834 H   0  0  0  1  0  0  0  0  0  0  0  0
   12.9076   -4.7358    0.1692 C   0  0  0  1  0  0  0  0  0  0  0  0
   11.6820   -5.5973    0.0504 C   0  0  0  1  0  0  0  0  0  0  0  0
   11.8647   -6.3834   -0.6520 H   0  0  0  1  0  0  0  0  0  0  0  0
   10.8593   -5.0020   -0.2868 H   0  0  0  1  0  0  0  0  0  0  0  0
   11.4493   -6.0197    1.0056 H   0  0  0  1  0  0  0  0  0  0  0  0
   13.0189   -3.4843   -0.2633 C   0  0  0  1  0  0  0  0  0  0  0  0
   12.2106   -3.0212   -0.7256 H   0  0  0  1  0  0  0  0  0  0  0  0
   13.9134   -2.9685   -0.1396 H   0  0  0  1  0  0  0  0  0  0  0  0
   12.8587   -9.8795    2.6096 P   0  0  0  1  0  0  0  0  0  0  0  0
   11.7501   -9.2018    3.3182 O   0  0  0  1  0  0  0  0  0  0  0  0
   15.4545   -8.7897    1.4693 P   0  0  0  1  0  0  0  0  0  0  0  0
   16.4964   -8.9846    2.4837 O   0  0  0  1  0  0  0  0  0  0  0  0
  1 20  1  0  0  0  0
  1 22  1  0  0  0  0
  2  4  1  0  0  0  0
  2 22  1  0  0  0  0
  3 22  1  0  0  0  0
  4  5  1  0  0  0  0
  4  6  1  0  0  0  0
  4  9  1  0  0  0  0
  7 20  1  0  0  0  0
  8 20  1  0  0  0  0
  9 10  1  0  0  0  0
  9 11  1  0  0  0  0
  9 12  1  0  0  0  0
 12 13  1  0  0  0  0
 12 17  2  0  0  0  0
 13 14  1  0  0  0  0
 13 15  1  0  0  0  0
 13 16  1  0  0  0  0
 17 18  1  0  0  0  0
 17 19  1  0  0  0  0
 20 21  2  0  0  0  0
 22 23  2  0  0  0  0
M  BCL ATM O_Tr2TrTrPi2 O_Tr2TrTrPi2 O_Te2Te2TeTe C_TeTeTeTe H_S H_S O_Te2Te2TeTe O_Te2Te2Te2Te C_TeTeTeTe H_S H_S C_TrTrTrPi C_TeTeTeTe H_S H_S H_S C_TrTrTrPi H_S H_S P_TeTeTeTePi O_Tr2Tr2TrPi P_TeTeTeTePi O_Tr2Tr2TrPi
M  BCL BND ConjugatedSingleBond ConjugatedSingleBond NonConjugatedSingleBond ConjugatedSingleBond ConjugatedSingleBond NonConjugatedSingleBond NonConjugatedSingleBond NonConjugatedSingleBond ConjugatedSingleBond ConjugatedSingleBond NonConjugatedSingleBond NonConjugatedSingleBond NonConjugatedSingleBond NonConjugatedSingleBond ConjugatedDoubleBond NonConjugatedSingleBond NonConjugatedSingleBond NonConjugatedSingleBond NonConjugatedSingleBond NonConjugatedSingleBond ConjugatedDoubleBond ConjugatedDoubleBond
M  BCL CHI  20   R  22   S
M  BCL DBI - - -
M  END
> <ConfClashScore>
0 

> <ConfOneFourInteractionScore>
-0.98644 

> <ConfScore>
-0.145911 

> <ConfScorePBest>
0.00871249 

> <ConfTolerance>
0.682755 

$$$$
L07.****
  PyMOL2.5          3D                             0

 23 22  0  0  0  0  0  0  0  0999 V2000
   12.8711   -0.3189    3.0130 O   0  0  0  1  0  0  0  0  0  0  0  0
   11.7462   -1.6921    1.1629 O   0  0  0  1  0  0  0  0  0  0  0  0
   13.0550    0.4716    0.6869 O   0  0  0  0  0  0  0  0  0  0  0  0
   11.0882   -2.0267   -0.0865 C   0  0  0  1  0  0  0  0  0  0  0  0
   11.6994   -1.7050   -0.9037 H   0  0  0  1  0  0  0  0  0  0  0  0
   10.1420   -1.5292   -0.1306 H   0  0  0  1  0  0  0  0  0  0  0  0
   13.4472    2.2219    3.2754 O   0  0  0  0  0  0  0  0  0  0  0  0
   15.0022    0.3738    4.4106 O   0  5  0  1  0  0  0  0  0  0  0  0
   10.8692   -3.5307   -0.1858 C   0  0  0  1  0  0  0  0  0  0  0  0
   10.4361   -3.7495   -1.1395 H   0  0  0  1  0  0  0  0  0  0  0  0
   10.1948   -3.8286    0.5896 H   0  0  0  1  0  0  0  0  0  0  0  0
   12.1416   -4.3225   -0.0445 C   0  0  0  1  0  0  0  0  0  0  0  0
   12.0541   -5.7999    0.0212 C   0  0  0  1  0  0  0  0  0  0  0  0
   13.0392   -6.2139    0.0777 H   0  0  0  1  0  0  0  0  0  0  0  0
   11.5629   -6.1672   -0.8556 H   0  0  0  1  0  0  0  0  0  0  0  0
   11.4971   -6.0857    0.8889 H   0  0  0  1  0  0  0  0  0  0  0  0
   13.3072   -3.6641    0.0169 C   0  0  0  1  0  0  0  0  0  0  0  0
   13.3214   -2.6265   -0.0514 H   0  0  0  1  0  0  0  0  0  0  0  0
   14.1968   -4.1903    0.1327 H   0  0  0  1  0  0  0  0  0  0  0  0
   13.4738    0.7850    4.0656 P   0  0  0  1  0  0  0  0  0  0  0  0
   12.5149    0.7735    5.1929 O   0  0  0  1  0  0  0  0  0  0  0  0
   12.0752   -0.1717    1.6107 P   0  0  0  1  0  0  0  0  0  0  0  0
   10.7519    0.4704    1.7832 O   0  0  0  1  0  0  0  0  0  0  0  0
  1 20  1  0  0  0  0
  1 22  1  0  0  0  0
  2  4  1  0  0  0  0
  2 22  1  0  0  0  0
  3 22  1  0  0  0  0
  4  5  1  0  0  0  0
  4  6  1  0  0  0  0
  4  9  1  0  0  0  0
  7 20  1  0  0  0  0
  8 20  1  0  0  0  0
  9 10  1  0  0  0  0
  9 11  1  0  0  0  0
  9 12  1  0  0  0  0
 12 13  1  0  0  0  0
 12 17  2  0  0  0  0
 13 14  1  0  0  0  0
 13 15  1  0  0  0  0
 13 16  1  0  0  0  0
 17 18  1  0  0  0  0
 17 19  1  0  0  0  0
 20 21  2  0  0  0  0
 22 23  2  0  0  0  0
M  BCL ATM O_Tr2TrTrPi2 O_Tr2TrTrPi2 O_Te2Te2TeTe C_TeTeTeTe H_S H_S O_Te2Te2TeTe O_Te2Te2Te2Te C_TeTeTeTe H_S H_S C_TrTrTrPi C_TeTeTeTe H_S H_S H_S C_TrTrTrPi H_S H_S P_TeTeTeTePi O_Tr2Tr2TrPi P_TeTeTeTePi O_Tr2Tr2TrPi
M  BCL BND ConjugatedSingleBond ConjugatedSingleBond NonConjugatedSingleBond ConjugatedSingleBond ConjugatedSingleBond NonConjugatedSingleBond NonConjugatedSingleBond NonConjugatedSingleBond ConjugatedSingleBond ConjugatedSingleBond NonConjugatedSingleBond NonConjugatedSingleBond NonConjugatedSingleBond NonConjugatedSingleBond ConjugatedDoubleBond NonConjugatedSingleBond NonConjugatedSingleBond NonConjugatedSingleBond NonConjugatedSingleBond NonConjugatedSingleBond ConjugatedDoubleBond ConjugatedDoubleBond
M  BCL CHI  20   R  22   S
M  BCL DBI - - -
M  END
> <ConfClashScore>
0 

> <ConfOneFourInteractionScore>
-0.988196 

> <ConfScore>
-0.144204 

> <ConfScorePBest>
0.00860949 

> <ConfTolerance>
0.630879 

$$$$
L07.****
  PyMOL2.5          3D                             0

 23 22  0  0  0  0  0  0  0  0999 V2000
   12.5575    0.5782   -0.2222 O   0  0  0  1  0  0  0  0  0  0  0  0
   11.3781   -1.4568    0.6583 O   0  0  0  1  0  0  0  0  0  0  0  0
   10.2800    0.8223    0.6995 O   0  0  0  0  0  0  0  0  0  0  0  0
   10.9416   -2.1202   -0.5523 C   0  0  0  1  0  0  0  0  0  0  0  0
   11.6530   -1.9702   -1.3374 H   0  0  0  1  0  0  0  0  0  0  0  0
    9.9870   -1.7467   -0.8591 H   0  0  0  1  0  0  0  0  0  0  0  0
   14.3657    1.3443   -1.7266 O   0  0  0  0  0  0  0  0  0  0  0  0
   14.7811    1.4462    0.7526 O   0  5  0  1  0  0  0  0  0  0  0  0
   10.8452   -3.5953   -0.1988 C   0  0  0  1  0  0  0  0  0  0  0  0
   10.2908   -4.0845   -0.9723 H   0  0  0  1  0  0  0  0  0  0  0  0
   10.3161   -3.6789    0.7274 H   0  0  0  1  0  0  0  0  0  0  0  0
   12.1614   -4.3100   -0.0479 C   0  0  0  1  0  0  0  0  0  0  0  0
   12.0587   -5.8073    0.0297 C   0  0  0  1  0  0  0  0  0  0  0  0
   13.0405   -6.2323    0.0468 H   0  0  0  1  0  0  0  0  0  0  0  0
   11.5270   -6.1728   -0.8239 H   0  0  0  1  0  0  0  0  0  0  0  0
   11.5354   -6.0829    0.9213 H   0  0  0  1  0  0  0  0  0  0  0  0
   13.3082   -3.6413    0.0094 C   0  0  0  1  0  0  0  0  0  0  0  0
   13.3168   -2.6120   -0.1394 H   0  0  0  1  0  0  0  0  0  0  0  0
   14.1963   -4.1467    0.2028 H   0  0  0  1  0  0  0  0  0  0  0  0
   13.6354    1.8091   -0.3337 P   0  0  0  1  0  0  0  0  0  0  0  0
   13.0692    3.1724   -0.2282 O   0  0  0  1  0  0  0  0  0  0  0  0
   11.5654    0.1255    0.9275 P   0  0  0  1  0  0  0  0  0  0  0  0
   12.2147    0.2364    2.2515 O   0  0  0  1  0  0  0  0  0  0  0  0
  1 20  1  0  0  0  0
  1 22  1  0  0  0  0
  2  4  1  0  0  0  0
  2 22  1  0  0  0  0
  3 22  1  0  0  0  0
  4  5  1  0  0  0  0
  4  6  1  0  0  0  0
  4  9  1  0  0  0  0
  7 20  1  0  0  0  0
  8 20  1  0  0  0  0
  9 10  1  0  0  0  0
  9 11  1  0  0  0  0
  9 12  1  0  0  0  0
 12 13  1  0  0  0  0
 12 17  2  0  0  0  0
 13 14  1  0  0  0  0
 13 15  1  0  0  0  0
 13 16  1  0  0  0  0
 17 18  1  0  0  0  0
 17 19  1  0  0  0  0
 20 21  2  0  0  0  0
 22 23  2  0  0  0  0
M  BCL ATM O_Tr2TrTrPi2 O_Tr2TrTrPi2 O_Te2Te2TeTe C_TeTeTeTe H_S H_S O_Te2Te2TeTe O_Te2Te2Te2Te C_TeTeTeTe H_S H_S C_TrTrTrPi C_TeTeTeTe H_S H_S H_S C_TrTrTrPi H_S H_S P_TeTeTeTePi O_Tr2Tr2TrPi P_TeTeTeTePi O_Tr2Tr2TrPi
M  BCL BND ConjugatedSingleBond ConjugatedSingleBond NonConjugatedSingleBond ConjugatedSingleBond ConjugatedSingleBond NonConjugatedSingleBond NonConjugatedSingleBond NonConjugatedSingleBond ConjugatedSingleBond ConjugatedSingleBond NonConjugatedSingleBond NonConjugatedSingleBond NonConjugatedSingleBond NonConjugatedSingleBond ConjugatedDoubleBond NonConjugatedSingleBond NonConjugatedSingleBond NonConjugatedSingleBond NonConjugatedSingleBond NonConjugatedSingleBond ConjugatedDoubleBond ConjugatedDoubleBond
M  BCL CHI  20   R  22   S
M  BCL DBI - - -
M  END
> <ConfClashScore>
0 

> <ConfOneFourInteractionScore>
-0.972639 

> <ConfScore>
-0.141555 

> <ConfScorePBest>
0.00850649 

> <ConfTolerance>
0.624872 

$$$$
L07.****
  PyMOL2.5          3D                             0

 23 22  0  0  0  0  0  0  0  0999 V2000
   19.1434   -5.9277   -0.2391 O   0  0  0  1  0  0  0  0  0  0  0  0
   16.7081   -5.4211    0.1066 O   0  0  0  1  0  0  0  0  0  0  0  0
   18.3277   -3.6380   -0.6596 O   0  0  0  0  0  0  0  0  0  0  0  0
   15.4909   -4.6415    0.1746 C   0  0  0  1  0  0  0  0  0  0  0  0
   15.4741   -3.9432   -0.6359 H   0  0  0  1  0  0  0  0  0  0  0  0
   15.4637   -4.1112    1.1036 H   0  0  0  1  0  0  0  0  0  0  0  0
   19.6718   -8.3485   -0.7567 O   0  0  0  0  0  0  0  0  0  0  0  0
   18.4911   -7.8562    1.3431 O   0  5  0  1  0  0  0  0  0  0  0  0
   14.2719   -5.5496    0.0796 C   0  0  0  1  0  0  0  0  0  0  0  0
   14.2535   -6.1861    0.9395 H   0  0  0  1  0  0  0  0  0  0  0  0
   14.3596   -6.1461   -0.8044 H   0  0  0  1  0  0  0  0  0  0  0  0
   12.9739   -4.7897    0.0181 C   0  0  0  1  0  0  0  0  0  0  0  0
   11.7001   -5.5869    0.0008 C   0  0  0  1  0  0  0  0  0  0  0  0
   10.8636   -4.9223   -0.0589 H   0  0  0  1  0  0  0  0  0  0  0  0
   11.6308   -6.1676    0.8968 H   0  0  0  1  0  0  0  0  0  0  0  0
   11.6988   -6.2384   -0.8480 H   0  0  0  1  0  0  0  0  0  0  0  0
   12.9553   -3.4617   -0.0196 C   0  0  0  1  0  0  0  0  0  0  0  0
   12.0471   -2.9561   -0.0540 H   0  0  0  1  0  0  0  0  0  0  0  0
   13.8481   -2.9283   -0.0148 H   0  0  0  1  0  0  0  0  0  0  0  0
   19.7351   -7.2762    0.4826 P   0  0  0  1  0  0  0  0  0  0  0  0
   21.0027   -7.0952    1.2248 O   0  0  0  1  0  0  0  0  0  0  0  0
   18.1808   -4.7764    0.2696 P   0  0  0  1  0  0  0  0  0  0  0  0
   18.3630   -4.5456    1.7189 O   0  0  0  1  0  0  0  0  0  0  0  0
  1 20  1  0  0  0  0
  1 22  1  0  0  0  0
  2  4  1  0  0  0  0
  2 22  1  0  0  0  0
  3 22  1  0  0  0  0
  4  5  1  0  0  0  0
  4  6  1  0  0  0  0
  4  9  1  0  0  0  0
  7 20  1  0  0  0  0
  8 20  1  0  0  0  0
  9 10  1  0  0  0  0
  9 11  1  0  0  0  0
  9 12  1  0  0  0  0
 12 13  1  0  0  0  0
 12 17  2  0  0  0  0
 13 14  1  0  0  0  0
 13 15  1  0  0  0  0
 13 16  1  0  0  0  0
 17 18  1  0  0  0  0
 17 19  1  0  0  0  0
 20 21  2  0  0  0  0
 22 23  2  0  0  0  0
M  BCL ATM O_Tr2TrTrPi2 O_Tr2TrTrPi2 O_Te2Te2TeTe C_TeTeTeTe H_S H_S O_Te2Te2TeTe O_Te2Te2Te2Te C_TeTeTeTe H_S H_S C_TrTrTrPi C_TeTeTeTe H_S H_S H_S C_TrTrTrPi H_S H_S P_TeTeTeTePi O_Tr2Tr2TrPi P_TeTeTeTePi O_Tr2Tr2TrPi
M  BCL BND ConjugatedSingleBond ConjugatedSingleBond NonConjugatedSingleBond ConjugatedSingleBond ConjugatedSingleBond NonConjugatedSingleBond NonConjugatedSingleBond NonConjugatedSingleBond ConjugatedSingleBond ConjugatedSingleBond NonConjugatedSingleBond NonConjugatedSingleBond NonConjugatedSingleBond NonConjugatedSingleBond ConjugatedDoubleBond NonConjugatedSingleBond NonConjugatedSingleBond NonConjugatedSingleBond NonConjugatedSingleBond NonConjugatedSingleBond ConjugatedDoubleBond ConjugatedDoubleBond
M  BCL CHI  20   R  22   S
M  BCL DBI - - -
M  END
> <ConfClashScore>
0 

> <ConfOneFourInteractionScore>
-0.988196 

> <ConfScore>
-0.140418 

> <ConfScorePBest>
0.00840348 

> <ConfTolerance>
0.616726 

$$$$
L07.****
  PyMOL2.5          3D                             0

 23 22  0  0  0  0  0  0  0  0999 V2000
   12.8940   -9.6081    1.5659 O   0  0  0  1  0  0  0  0  0  0  0  0
   13.8569   -7.4878    0.4931 O   0  0  0  1  0  0  0  0  0  0  0  0
   15.0742   -9.6123    0.2003 O   0  0  0  0  0  0  0  0  0  0  0  0
   14.8320   -6.4621    0.1912 C   0  0  0  1  0  0  0  0  0  0  0  0
   15.6789   -6.8970   -0.2973 H   0  0  0  1  0  0  0  0  0  0  0  0
   15.1478   -5.9825    1.0941 H   0  0  0  1  0  0  0  0  0  0  0  0
   11.3365  -11.7406    2.1453 O   0  0  0  0  0  0  0  0  0  0  0  0
   11.7092   -9.8326    3.8390 O   0  5  0  1  0  0  0  0  0  0  0  0
   14.1677   -5.4499   -0.7276 C   0  0  0  1  0  0  0  0  0  0  0  0
   13.8756   -5.9584   -1.6226 H   0  0  0  1  0  0  0  0  0  0  0  0
   14.8889   -4.6958   -0.9644 H   0  0  0  1  0  0  0  0  0  0  0  0
   12.9505   -4.7674   -0.1631 C   0  0  0  1  0  0  0  0  0  0  0  0
   11.6973   -5.5843   -0.0197 C   0  0  0  1  0  0  0  0  0  0  0  0
   10.9797   -5.0392    0.5572 H   0  0  0  1  0  0  0  0  0  0  0  0
   11.9267   -6.5052    0.4745 H   0  0  0  1  0  0  0  0  0  0  0  0
   11.2932   -5.7901   -0.9889 H   0  0  0  1  0  0  0  0  0  0  0  0
   12.9832   -3.4884    0.1956 C   0  0  0  1  0  0  0  0  0  0  0  0
   12.1261   -3.0315    0.5673 H   0  0  0  1  0  0  0  0  0  0  0  0
   13.8651   -2.9447    0.1047 H   0  0  0  1  0  0  0  0  0  0  0  0
   12.4764  -10.7058    2.7106 P   0  0  0  1  0  0  0  0  0  0  0  0
   13.5070  -11.5692    3.3292 O   0  0  0  1  0  0  0  0  0  0  0  0
   14.2986   -8.8636    1.2179 P   0  0  0  1  0  0  0  0  0  0  0  0
   14.8864   -8.6113    2.5206 O   0  0  0  1  0  0  0  0  0  0  0  0
  1 20  1  0  0  0  0
  1 22  1  0  0  0  0
  2  4  1  0  0  0  0
  2 22  1  0  0  0  0
  3 22  1  0  0  0  0
  4  5  1  0  0  0  0
  4  6  1  0  0  0  0
  4  9  1  0  0  0  0
  7 20  1  0  0  0  0
  8 20  1  0  0  0  0
  9 10  1  0  0  0  0
  9 11  1  0  0  0  0
  9 12  1  0  0  0  0
 12 13  1  0  0  0  0
 12 17  2  0  0  0  0
 13 14  1  0  0  0  0
 13 15  1  0  0  0  0
 13 16  1  0  0  0  0
 17 18  1  0  0  0  0
 17 19  1  0  0  0  0
 20 21  2  0  0  0  0
 22 23  2  0  0  0  0
M  BCL ATM O_Tr2TrTrPi2 O_Tr2TrTrPi2 O_Te2Te2TeTe C_TeTeTeTe H_S H_S O_Te2Te2TeTe O_Te2Te2Te2Te C_TeTeTeTe H_S H_S C_TrTrTrPi C_TeTeTeTe H_S H_S H_S C_TrTrTrPi H_S H_S P_TeTeTeTePi O_Tr2Tr2TrPi P_TeTeTeTePi O_Tr2Tr2TrPi
M  BCL BND ConjugatedSingleBond ConjugatedSingleBond NonConjugatedSingleBond ConjugatedSingleBond ConjugatedSingleBond NonConjugatedSingleBond NonConjugatedSingleBond NonConjugatedSingleBond ConjugatedSingleBond ConjugatedSingleBond NonConjugatedSingleBond NonConjugatedSingleBond NonConjugatedSingleBond NonConjugatedSingleBond ConjugatedDoubleBond NonConjugatedSingleBond NonConjugatedSingleBond NonConjugatedSingleBond NonConjugatedSingleBond NonConjugatedSingleBond ConjugatedDoubleBond ConjugatedDoubleBond
M  BCL CHI  20   R  22   S
M  BCL DBI - - -
M  END
> <ConfClashScore>
0 

> <ConfOneFourInteractionScore>
-0.992869 

> <ConfScore>
-0.136305 

> <ConfScorePBest>
0.00830048 

> <ConfTolerance>
0.650079 

$$$$
L07.****
  PyMOL2.5          3D                             0

 23 22  0  0  0  0  0  0  0  0999 V2000
   11.1027   -5.1397   -4.1704 O   0  0  0  1  0  0  0  0  0  0  0  0
   12.3942   -6.3639   -2.4670 O   0  0  0  1  0  0  0  0  0  0  0  0
   12.6412   -6.9588   -4.8938 O   0  0  0  0  0  0  0  0  0  0  0  0
   13.6602   -5.6641   -2.4325 C   0  0  0  1  0  0  0  0  0  0  0  0
   13.5783   -4.7366   -2.9597 H   0  0  0  1  0  0  0  0  0  0  0  0
   14.4214   -6.2656   -2.8839 H   0  0  0  1  0  0  0  0  0  0  0  0
    8.4216   -4.7739   -4.2068 O   0  0  0  0  0  0  0  0  0  0  0  0
    9.9998   -2.7340   -4.1470 O   0  5  0  1  0  0  0  0  0  0  0  0
   14.0042   -5.4020   -0.9721 C   0  0  0  1  0  0  0  0  0  0  0  0
   14.8665   -4.7697   -0.9335 H   0  0  0  1  0  0  0  0  0  0  0  0
   14.2255   -6.3370   -0.5013 H   0  0  0  1  0  0  0  0  0  0  0  0
   12.8884   -4.7367   -0.2143 C   0  0  0  1  0  0  0  0  0  0  0  0
   11.6969   -5.6095    0.0632 C   0  0  0  1  0  0  0  0  0  0  0  0
   12.0245   -6.5396    0.4787 H   0  0  0  1  0  0  0  0  0  0  0  0
   11.1692   -5.7930   -0.8494 H   0  0  0  1  0  0  0  0  0  0  0  0
   11.0487   -5.1174    0.7579 H   0  0  0  1  0  0  0  0  0  0  0  0
   13.0184   -3.4656    0.1504 C   0  0  0  1  0  0  0  0  0  0  0  0
   13.8725   -2.9345   -0.1142 H   0  0  0  1  0  0  0  0  0  0  0  0
   12.2667   -3.0023    0.6998 H   0  0  0  1  0  0  0  0  0  0  0  0
    9.8505   -4.2500   -3.5958 P   0  0  0  1  0  0  0  0  0  0  0  0
    9.8326   -4.2431   -2.1160 O   0  0  0  1  0  0  0  0  0  0  0  0
   11.6386   -6.5845   -3.8139 P   0  0  0  1  0  0  0  0  0  0  0  0
   10.5139   -7.5423   -3.5890 O   0  0  0  1  0  0  0  0  0  0  0  0
  1 20  1  0  0  0  0
  1 22  1  0  0  0  0
  2  4  1  0  0  0  0
  2 22  1  0  0  0  0
  3 22  1  0  0  0  0
  4  5  1  0  0  0  0
  4  6  1  0  0  0  0
  4  9  1  0  0  0  0
  7 20  1  0  0  0  0
  8 20  1  0  0  0  0
  9 10  1  0  0  0  0
  9 11  1  0  0  0  0
  9 12  1  0  0  0  0
 12 13  1  0  0  0  0
 12 17  2  0  0  0  0
 13 14  1  0  0  0  0
 13 15  1  0  0  0  0
 13 16  1  0  0  0  0
 17 18  1  0  0  0  0
 17 19  1  0  0  0  0
 20 21  2  0  0  0  0
 22 23  2  0  0  0  0
M  BCL ATM O_Tr2TrTrPi2 O_Tr2TrTrPi2 O_Te2Te2TeTe C_TeTeTeTe H_S H_S O_Te2Te2TeTe O_Te2Te2Te2Te C_TeTeTeTe H_S H_S C_TrTrTrPi C_TeTeTeTe H_S H_S H_S C_TrTrTrPi H_S H_S P_TeTeTeTePi O_Tr2Tr2TrPi P_TeTeTeTePi O_Tr2Tr2TrPi
M  BCL BND ConjugatedSingleBond ConjugatedSingleBond NonConjugatedSingleBond ConjugatedSingleBond ConjugatedSingleBond NonConjugatedSingleBond NonConjugatedSingleBond NonConjugatedSingleBond ConjugatedSingleBond ConjugatedSingleBond NonConjugatedSingleBond NonConjugatedSingleBond NonConjugatedSingleBond NonConjugatedSingleBond ConjugatedDoubleBond NonConjugatedSingleBond NonConjugatedSingleBond NonConjugatedSingleBond NonConjugatedSingleBond NonConjugatedSingleBond ConjugatedDoubleBond ConjugatedDoubleBond
M  BCL CHI  20   R  22   S
M  BCL DBI - - -
M  END
> <ConfClashScore>
0 

> <ConfOneFourInteractionScore>
-0.983174 

> <ConfScore>
-0.135282 

> <ConfScorePBest>
0.00819748 

> <ConfTolerance>
0.629293 

$$$$
L07.****
  PyMOL2.5          3D                             0

 23 22  0  0  0  0  0  0  0  0999 V2000
   17.3964   -7.4131    1.1285 O   0  0  0  1  0  0  0  0  0  0  0  0
   15.2848   -6.1870    1.2440 O   0  0  0  1  0  0  0  0  0  0  0  0
   16.6456   -6.4891    3.3698 O   0  0  0  0  0  0  0  0  0  0  0  0
   14.6954   -6.6408    0.0029 C   0  0  0  1  0  0  0  0  0  0  0  0
   13.9216   -7.3478    0.2182 H   0  0  0  1  0  0  0  0  0  0  0  0
   15.4497   -7.1080   -0.5952 H   0  0  0  1  0  0  0  0  0  0  0  0
   19.5403   -6.8936   -0.2953 O   0  0  0  0  0  0  0  0  0  0  0  0
   18.1204   -4.9128    0.8084 O   0  5  0  1  0  0  0  0  0  0  0  0
   14.1074   -5.4762   -0.7585 C   0  0  0  1  0  0  0  0  0  0  0  0
   13.7939   -5.8434   -1.7134 H   0  0  0  1  0  0  0  0  0  0  0  0
   14.8862   -4.7546   -0.8915 H   0  0  0  1  0  0  0  0  0  0  0  0
   12.9333   -4.7634   -0.1426 C   0  0  0  1  0  0  0  0  0  0  0  0
   11.6997   -5.5973    0.0442 C   0  0  0  1  0  0  0  0  0  0  0  0
   11.9765   -6.5738    0.3828 H   0  0  0  1  0  0  0  0  0  0  0  0
   11.1792   -5.6773   -0.8873 H   0  0  0  1  0  0  0  0  0  0  0  0
   11.0637   -5.1353    0.7701 H   0  0  0  1  0  0  0  0  0  0  0  0
   12.9938   -3.4647    0.1269 C   0  0  0  1  0  0  0  0  0  0  0  0
   13.8751   -2.9397   -0.0442 H   0  0  0  1  0  0  0  0  0  0  0  0
   12.1607   -2.9730    0.5086 H   0  0  0  1  0  0  0  0  0  0  0  0
   18.0354   -6.3465    0.0590 P   0  0  0  1  0  0  0  0  0  0  0  0
   17.1295   -6.1415   -1.0932 O   0  0  0  1  0  0  0  0  0  0  0  0
   16.1497   -7.1785    2.1510 P   0  0  0  1  0  0  0  0  0  0  0  0
   15.3862   -8.4461    2.2658 O   0  0  0  1  0  0  0  0  0  0  0  0
  1 20  1  0  0  0  0
  1 22  1  0  0  0  0
  2  4  1  0  0  0  0
  2 22  1  0  0  0  0
  3 22  1  0  0  0  0
  4  5  1  0  0  0  0
  4  6  1  0  0  0  0
  4  9  1  0  0  0  0
  7 20  1  0  0  0  0
  8 20  1  0  0  0  0
  9 10  1  0  0  0  0
  9 11  1  0  0  0  0
  9 12  1  0  0  0  0
 12 13  1  0  0  0  0
 12 17  2  0  0  0  0
 13 14  1  0  0  0  0
 13 15  1  0  0  0  0
 13 16  1  0  0  0  0
 17 18  1  0  0  0  0
 17 19  1  0  0  0  0
 20 21  2  0  0  0  0
 22 23  2  0  0  0  0
M  BCL ATM O_Tr2TrTrPi2 O_Tr2TrTrPi2 O_Te2Te2TeTe C_TeTeTeTe H_S H_S O_Te2Te2TeTe O_Te2Te2Te2Te C_TeTeTeTe H_S H_S C_TrTrTrPi C_TeTeTeTe H_S H_S H_S C_TrTrTrPi H_S H_S P_TeTeTeTePi O_Tr2Tr2TrPi P_TeTeTeTePi O_Tr2Tr2TrPi
M  BCL BND ConjugatedSingleBond ConjugatedSingleBond NonConjugatedSingleBond ConjugatedSingleBond ConjugatedSingleBond NonConjugatedSingleBond NonConjugatedSingleBond NonConjugatedSingleBond ConjugatedSingleBond ConjugatedSingleBond NonConjugatedSingleBond NonConjugatedSingleBond NonConjugatedSingleBond NonConjugatedSingleBond ConjugatedDoubleBond NonConjugatedSingleBond NonConjugatedSingleBond NonConjugatedSingleBond NonConjugatedSingleBond NonConjugatedSingleBond ConjugatedDoubleBond ConjugatedDoubleBond
M  BCL CHI  20   R  22   S
M  BCL DBI - - -
M  END
> <ConfClashScore>
0 

> <ConfOneFourInteractionScore>
-0.98644 

> <ConfScore>
-0.132375 

> <ConfScorePBest>
0.00809448 

> <ConfTolerance>
0.849368 

$$$$
L07.****
  PyMOL2.5          3D                             0

 23 22  0  0  0  0  0  0  0  0999 V2000
   11.5504   -8.2336   -3.8807 O   0  0  0  1  0  0  0  0  0  0  0  0
   12.9525   -6.5634   -2.5789 O   0  0  0  1  0  0  0  0  0  0  0  0
   11.5806   -5.7763   -4.4611 O   0  0  0  0  0  0  0  0  0  0  0  0
   13.9555   -5.5449   -2.3534 C   0  0  0  1  0  0  0  0  0  0  0  0
   13.6382   -4.6190   -2.7856 H   0  0  0  1  0  0  0  0  0  0  0  0
   14.8842   -5.8444   -2.7925 H   0  0  0  1  0  0  0  0  0  0  0  0
   12.4080  -10.2210   -5.3542 O   0  0  0  0  0  0  0  0  0  0  0  0
   10.6403   -8.6947   -6.3820 O   0  5  0  1  0  0  0  0  0  0  0  0
   14.1215   -5.3846   -0.8479 C   0  0  0  1  0  0  0  0  0  0  0  0
   14.9706   -4.7601   -0.6634 H   0  0  0  1  0  0  0  0  0  0  0  0
   14.2887   -6.3505   -0.4189 H   0  0  0  1  0  0  0  0  0  0  0  0
   12.9195   -4.7672   -0.1845 C   0  0  0  1  0  0  0  0  0  0  0  0
   11.6905   -5.5821   -0.0436 C   0  0  0  1  0  0  0  0  0  0  0  0
   11.8729   -6.3892    0.6349 H   0  0  0  1  0  0  0  0  0  0  0  0
   11.4122   -5.9756   -0.9989 H   0  0  0  1  0  0  0  0  0  0  0  0
   10.8986   -4.9702    0.3352 H   0  0  0  1  0  0  0  0  0  0  0  0
   13.0034   -3.5039    0.2546 C   0  0  0  1  0  0  0  0  0  0  0  0
   12.1618   -3.0328    0.6438 H   0  0  0  1  0  0  0  0  0  0  0  0
   13.9091   -2.9951    0.2064 H   0  0  0  1  0  0  0  0  0  0  0  0
   11.0657   -9.3614   -4.9682 P   0  0  0  1  0  0  0  0  0  0  0  0
   10.0105  -10.2751   -4.4761 O   0  0  0  1  0  0  0  0  0  0  0  0
   12.4386   -6.9622   -4.0101 P   0  0  0  1  0  0  0  0  0  0  0  0
   13.5384   -7.2805   -4.9374 O   0  0  0  1  0  0  0  0  0  0  0  0
  1 20  1  0  0  0  0
  1 22  1  0  0  0  0
  2  4  1  0  0  0  0
  2 22  1  0  0  0  0
  3 22  1  0  0  0  0
  4  5  1  0  0  0  0
  4  6  1  0  0  0  0
  4  9  1  0  0  0  0
  7 20  1  0  0  0  0
  8 20  1  0  0  0  0
  9 10  1  0  0  0  0
  9 11  1  0  0  0  0
  9 12  1  0  0  0  0
 12 13  1  0  0  0  0
 12 17  2  0  0  0  0
 13 14  1  0  0  0  0
 13 15  1  0  0  0  0
 13 16  1  0  0  0  0
 17 18  1  0  0  0  0
 17 19  1  0  0  0  0
 20 21  2  0  0  0  0
 22 23  2  0  0  0  0
M  BCL ATM O_Tr2TrTrPi2 O_Tr2TrTrPi2 O_Te2Te2TeTe C_TeTeTeTe H_S H_S O_Te2Te2TeTe O_Te2Te2Te2Te C_TeTeTeTe H_S H_S C_TrTrTrPi C_TeTeTeTe H_S H_S H_S C_TrTrTrPi H_S H_S P_TeTeTeTePi O_Tr2Tr2TrPi P_TeTeTeTePi O_Tr2Tr2TrPi
M  BCL BND ConjugatedSingleBond ConjugatedSingleBond NonConjugatedSingleBond ConjugatedSingleBond ConjugatedSingleBond NonConjugatedSingleBond NonConjugatedSingleBond NonConjugatedSingleBond ConjugatedSingleBond ConjugatedSingleBond NonConjugatedSingleBond NonConjugatedSingleBond NonConjugatedSingleBond NonConjugatedSingleBond ConjugatedDoubleBond NonConjugatedSingleBond NonConjugatedSingleBond NonConjugatedSingleBond NonConjugatedSingleBond NonConjugatedSingleBond ConjugatedDoubleBond ConjugatedDoubleBond
M  BCL CHI  20   R  22   S
M  BCL DBI - - -
M  END
> <ConfClashScore>
0 

> <ConfOneFourInteractionScore>
-0.992869 

> <ConfScore>
-0.130637 

> <ConfScorePBest>
0.00799148 

> <ConfTolerance>
0.809216 

$$$$
L07.****
  PyMOL2.5          3D                             0

 23 22  0  0  0  0  0  0  0  0999 V2000
   14.4485   -6.5304   -5.0993 O   0  0  0  1  0  0  0  0  0  0  0  0
   13.7046   -5.2120   -3.0412 O   0  0  0  1  0  0  0  0  0  0  0  0
   12.1156   -6.6999   -4.1802 O   0  0  0  0  0  0  0  0  0  0  0  0
   14.0201   -6.1729   -2.0006 C   0  0  0  1  0  0  0  0  0  0  0  0
   14.9317   -6.6749   -2.2492 H   0  0  0  1  0  0  0  0  0  0  0  0
   13.2270   -6.8875   -1.9286 H   0  0  0  1  0  0  0  0  0  0  0  0
   16.5643   -6.0775   -3.4413 O   0  0  0  0  0  0  0  0  0  0  0  0
   16.2710   -4.7629   -5.6555 O   0  5  0  1  0  0  0  0  0  0  0  0
   14.1843   -5.4710   -0.6624 C   0  0  0  1  0  0  0  0  0  0  0  0
   14.9591   -4.7403   -0.7658 H   0  0  0  1  0  0  0  0  0  0  0  0
   14.4779   -6.2031    0.0605 H   0  0  0  1  0  0  0  0  0  0  0  0
   12.9548   -4.7738   -0.1444 C   0  0  0  1  0  0  0  0  0  0  0  0
   11.6907   -5.5757   -0.0446 C   0  0  0  1  0  0  0  0  0  0  0  0
   11.8771   -6.4683    0.5151 H   0  0  0  1  0  0  0  0  0  0  0  0
   11.3543   -5.8346   -1.0268 H   0  0  0  1  0  0  0  0  0  0  0  0
   10.9389   -4.9959    0.4491 H   0  0  0  1  0  0  0  0  0  0  0  0
   12.9881   -3.4942    0.2117 C   0  0  0  1  0  0  0  0  0  0  0  0
   12.1273   -3.0321    0.5682 H   0  0  0  1  0  0  0  0  0  0  0  0
   13.8741   -2.9552    0.1341 H   0  0  0  1  0  0  0  0  0  0  0  0
   16.0565   -6.2259   -4.9937 P   0  0  0  1  0  0  0  0  0  0  0  0
   16.9311   -7.1991   -5.6854 O   0  0  0  1  0  0  0  0  0  0  0  0
   13.2697   -5.7745   -4.5322 P   0  0  0  1  0  0  0  0  0  0  0  0
   12.8532   -4.5664   -5.3331 O   0  0  0  1  0  0  0  0  0  0  0  0
  1 20  1  0  0  0  0
  1 22  1  0  0  0  0
  2  4  1  0  0  0  0
  2 22  1  0  0  0  0
  3 22  1  0  0  0  0
  4  5  1  0  0  0  0
  4  6  1  0  0  0  0
  4  9  1  0  0  0  0
  7 20  1  0  0  0  0
  8 20  1  0  0  0  0
  9 10  1  0  0  0  0
  9 11  1  0  0  0  0
  9 12  1  0  0  0  0
 12 13  1  0  0  0  0
 12 17  2  0  0  0  0
 13 14  1  0  0  0  0
 13 15  1  0  0  0  0
 13 16  1  0  0  0  0
 17 18  1  0  0  0  0
 17 19  1  0  0  0  0
 20 21  2  0  0  0  0
 22 23  2  0  0  0  0
M  BCL ATM O_Tr2TrTrPi2 O_Tr2TrTrPi2 O_Te2Te2TeTe C_TeTeTeTe H_S H_S O_Te2Te2TeTe O_Te2Te2Te2Te C_TeTeTeTe H_S H_S C_TrTrTrPi C_TeTeTeTe H_S H_S H_S C_TrTrTrPi H_S H_S P_TeTeTeTePi O_Tr2Tr2TrPi P_TeTeTeTePi O_Tr2Tr2TrPi
M  BCL BND ConjugatedSingleBond ConjugatedSingleBond NonConjugatedSingleBond ConjugatedSingleBond ConjugatedSingleBond NonConjugatedSingleBond NonConjugatedSingleBond NonConjugatedSingleBond ConjugatedSingleBond ConjugatedSingleBond NonConjugatedSingleBond NonConjugatedSingleBond NonConjugatedSingleBond NonConjugatedSingleBond ConjugatedDoubleBond NonConjugatedSingleBond NonConjugatedSingleBond NonConjugatedSingleBond NonConjugatedSingleBond NonConjugatedSingleBond ConjugatedDoubleBond ConjugatedDoubleBond
M  BCL CHI  20   R  22   S
M  BCL DBI - - -
M  END
> <ConfClashScore>
0 

> <ConfOneFourInteractionScore>
-0.98644 

> <ConfScore>
-0.129127 

> <ConfScorePBest>
0.00788848 

> <ConfTolerance>
0.799222 

$$$$
L07.****
  PyMOL2.5          3D                             0

 23 22  0  0  0  0  0  0  0  0999 V2000
   12.8699   -9.4738    1.7401 O   0  0  0  1  0  0  0  0  0  0  0  0
   13.7775   -7.4147    0.7378 O   0  0  0  1  0  0  0  0  0  0  0  0
   15.2292   -9.4528    0.9449 O   0  0  0  0  0  0  0  0  0  0  0  0
   14.7586   -6.4417    0.2974 C   0  0  0  1  0  0  0  0  0  0  0  0
   15.5738   -6.9513   -0.1724 H   0  0  0  1  0  0  0  0  0  0  0  0
   15.1189   -5.8965    1.1446 H   0  0  0  1  0  0  0  0  0  0  0  0
   10.4811   -9.0782    0.8309 O   0  0  0  0  0  0  0  0  0  0  0  0
   11.3987   -7.6092    2.7923 O   0  5  0  1  0  0  0  0  0  0  0  0
   14.1350   -5.4702   -0.6960 C   0  0  0  1  0  0  0  0  0  0  0  0
   13.8343   -6.0176   -1.5648 H   0  0  0  1  0  0  0  0  0  0  0  0
   14.8710   -4.7431   -0.9691 H   0  0  0  1  0  0  0  0  0  0  0  0
   12.9336   -4.7513   -0.1430 C   0  0  0  1  0  0  0  0  0  0  0  0
   11.6896   -5.5888   -0.0455 C   0  0  0  1  0  0  0  0  0  0  0  0
   11.8906   -6.4599    0.5424 H   0  0  0  1  0  0  0  0  0  0  0  0
   11.3810   -5.8842   -1.0265 H   0  0  0  1  0  0  0  0  0  0  0  0
   10.9114   -5.0184    0.4171 H   0  0  0  1  0  0  0  0  0  0  0  0
   12.9993   -3.4754    0.2219 C   0  0  0  1  0  0  0  0  0  0  0  0
   12.1580   -3.0024    0.6094 H   0  0  0  1  0  0  0  0  0  0  0  0
   13.8911   -2.9501    0.1202 H   0  0  0  1  0  0  0  0  0  0  0  0
   11.3425   -9.1259    2.2256 P   0  0  0  1  0  0  0  0  0  0  0  0
   10.8025  -10.1482    3.1495 O   0  0  0  1  0  0  0  0  0  0  0  0
   14.1889   -8.6047    1.6589 P   0  0  0  1  0  0  0  0  0  0  0  0
   14.5725   -8.0705    3.0007 O   0  0  0  1  0  0  0  0  0  0  0  0
  1 20  1  0  0  0  0
  1 22  1  0  0  0  0
  2  4  1  0  0  0  0
  2 22  1  0  0  0  0
  3 22  1  0  0  0  0
  4  5  1  0  0  0  0
  4  6  1  0  0  0  0
  4  9  1  0  0  0  0
  7 20  1  0  0  0  0
  8 20  1  0  0  0  0
  9 10  1  0  0  0  0
  9 11  1  0  0  0  0
  9 12  1  0  0  0  0
 12 13  1  0  0  0  0
 12 17  2  0  0  0  0
 13 14  1  0  0  0  0
 13 15  1  0  0  0  0
 13 16  1  0  0  0  0
 17 18  1  0  0  0  0
 17 19  1  0  0  0  0
 20 21  2  0  0  0  0
 22 23  2  0  0  0  0
M  BCL ATM O_Tr2TrTrPi2 O_Tr2TrTrPi2 O_Te2Te2TeTe C_TeTeTeTe H_S H_S O_Te2Te2TeTe O_Te2Te2Te2Te C_TeTeTeTe H_S H_S C_TrTrTrPi C_TeTeTeTe H_S H_S H_S C_TrTrTrPi H_S H_S P_TeTeTeTePi O_Tr2Tr2TrPi P_TeTeTeTePi O_Tr2Tr2TrPi
M  BCL BND ConjugatedSingleBond ConjugatedSingleBond NonConjugatedSingleBond ConjugatedSingleBond ConjugatedSingleBond NonConjugatedSingleBond NonConjugatedSingleBond NonConjugatedSingleBond ConjugatedSingleBond ConjugatedSingleBond NonConjugatedSingleBond NonConjugatedSingleBond NonConjugatedSingleBond NonConjugatedSingleBond ConjugatedDoubleBond NonConjugatedSingleBond NonConjugatedSingleBond NonConjugatedSingleBond NonConjugatedSingleBond NonConjugatedSingleBond ConjugatedDoubleBond ConjugatedDoubleBond
M  BCL CHI  20   R  22   S
M  BCL DBI - - -
M  END
> <ConfClashScore>
0 

> <ConfOneFourInteractionScore>
-0.992869 

> <ConfScore>
-0.129063 

> <ConfScorePBest>
0.00778548 

> <ConfTolerance>
0.671065 

$$$$
L07.****
  PyMOL2.5          3D                             0

 23 22  0  0  0  0  0  0  0  0999 V2000
   13.6582   -7.3238    3.8501 O   0  0  0  1  0  0  0  0  0  0  0  0
   14.5143   -5.7312    2.2050 O   0  0  0  1  0  0  0  0  0  0  0  0
   16.1618   -7.1988    3.4641 O   0  0  0  0  0  0  0  0  0  0  0  0
   14.4772   -6.5450    1.0091 C   0  0  0  1  0  0  0  0  0  0  0  0
   13.6805   -7.2560    1.0768 H   0  0  0  1  0  0  0  0  0  0  0  0
   15.4071   -7.0607    0.8904 H   0  0  0  1  0  0  0  0  0  0  0  0
   12.2913   -9.4665    3.2471 O   0  0  0  0  0  0  0  0  0  0  0  0
   12.5536   -8.7084    5.6046 O   0  5  0  1  0  0  0  0  0  0  0  0
   14.2443   -5.6161   -0.1753 C   0  0  0  1  0  0  0  0  0  0  0  0
   14.1648   -6.2090   -1.0625 H   0  0  0  1  0  0  0  0  0  0  0  0
   15.0823   -4.9563   -0.2605 H   0  0  0  1  0  0  0  0  0  0  0  0
   12.9945   -4.7883   -0.0386 C   0  0  0  1  0  0  0  0  0  0  0  0
   11.7119   -5.5710   -0.0123 C   0  0  0  1  0  0  0  0  0  0  0  0
   10.8900   -4.9046    0.1468 H   0  0  0  1  0  0  0  0  0  0  0  0
   11.7481   -6.2880    0.7810 H   0  0  0  1  0  0  0  0  0  0  0  0
   11.5843   -6.0776   -0.9461 H   0  0  0  1  0  0  0  0  0  0  0  0
   12.9506   -3.4637    0.0566 C   0  0  0  1  0  0  0  0  0  0  0  0
   12.0373   -2.9825    0.1827 H   0  0  0  1  0  0  0  0  0  0  0  0
   13.8286   -2.9088    0.0052 H   0  0  0  1  0  0  0  0  0  0  0  0
   13.4443   -8.8961    4.2645 P   0  0  0  1  0  0  0  0  0  0  0  0
   14.6873   -9.6929    4.3665 O   0  0  0  1  0  0  0  0  0  0  0  0
   14.9483   -6.3581    3.6094 P   0  0  0  1  0  0  0  0  0  0  0  0
   14.9122   -5.2639    4.6067 O   0  0  0  1  0  0  0  0  0  0  0  0
  1 20  1  0  0  0  0
  1 22  1  0  0  0  0
  2  4  1  0  0  0  0
  2 22  1  0  0  0  0
  3 22  1  0  0  0  0
  4  5  1  0  0  0  0
  4  6  1  0  0  0  0
  4  9  1  0  0  0  0
  7 20  1  0  0  0  0
  8 20  1  0  0  0  0
  9 10  1  0  0  0  0
  9 11  1  0  0  0  0
  9 12  1  0  0  0  0
 12 13  1  0  0  0  0
 12 17  2  0  0  0  0
 13 14  1  0  0  0  0
 13 15  1  0  0  0  0
 13 16  1  0  0  0  0
 17 18  1  0  0  0  0
 17 19  1  0  0  0  0
 20 21  2  0  0  0  0
 22 23  2  0  0  0  0
M  BCL ATM O_Tr2TrTrPi2 O_Tr2TrTrPi2 O_Te2Te2TeTe C_TeTeTeTe H_S H_S O_Te2Te2TeTe O_Te2Te2Te2Te C_TeTeTeTe H_S H_S C_TrTrTrPi C_TeTeTeTe H_S H_S H_S C_TrTrTrPi H_S H_S P_TeTeTeTePi O_Tr2Tr2TrPi P_TeTeTeTePi O_Tr2Tr2TrPi
M  BCL BND ConjugatedSingleBond ConjugatedSingleBond NonConjugatedSingleBond ConjugatedSingleBond ConjugatedSingleBond NonConjugatedSingleBond NonConjugatedSingleBond NonConjugatedSingleBond ConjugatedSingleBond ConjugatedSingleBond NonConjugatedSingleBond NonConjugatedSingleBond NonConjugatedSingleBond NonConjugatedSingleBond ConjugatedDoubleBond NonConjugatedSingleBond NonConjugatedSingleBond NonConjugatedSingleBond NonConjugatedSingleBond NonConjugatedSingleBond ConjugatedDoubleBond ConjugatedDoubleBond
M  BCL CHI  20   R  22   S
M  BCL DBI - - -
M  END
> <ConfClashScore>
0 

> <ConfOneFourInteractionScore>
-0.992869 

> <ConfScore>
-0.127662 

> <ConfScorePBest>
0.00768248 

> <ConfTolerance>
0.654122 

$$$$
L07.****
  PyMOL2.5          3D                             0

 23 22  0  0  0  0  0  0  0  0999 V2000
   16.1105   -8.2799    2.1592 O   0  0  0  1  0  0  0  0  0  0  0  0
   15.1289   -6.1121    1.2045 O   0  0  0  1  0  0  0  0  0  0  0  0
   17.6502   -6.6256    1.1782 O   0  0  0  0  0  0  0  0  0  0  0  0
   14.7321   -6.5825   -0.1019 C   0  0  0  1  0  0  0  0  0  0  0  0
   14.0079   -7.3639   -0.0033 H   0  0  0  1  0  0  0  0  0  0  0  0
   15.5857   -6.9513   -0.6312 H   0  0  0  1  0  0  0  0  0  0  0  0
   18.4356   -9.4974    2.4554 O   0  0  0  0  0  0  0  0  0  0  0  0
   16.3862  -10.9241    2.6595 O   0  5  0  1  0  0  0  0  0  0  0  0
   14.1265   -5.4070   -0.8514 C   0  0  0  1  0  0  0  0  0  0  0  0
   13.8149   -5.7546   -1.8142 H   0  0  0  1  0  0  0  0  0  0  0  0
   14.8868   -4.6634   -0.9689 H   0  0  0  1  0  0  0  0  0  0  0  0
   12.9430   -4.7593   -0.1866 C   0  0  0  1  0  0  0  0  0  0  0  0
   11.6873   -5.5740   -0.0521 C   0  0  0  1  0  0  0  0  0  0  0  0
   11.8460   -6.3607    0.6556 H   0  0  0  1  0  0  0  0  0  0  0  0
   11.4324   -5.9953   -1.0021 H   0  0  0  1  0  0  0  0  0  0  0  0
   10.8896   -4.9461    0.2859 H   0  0  0  1  0  0  0  0  0  0  0  0
   13.0055   -3.5115    0.2656 C   0  0  0  1  0  0  0  0  0  0  0  0
   12.1703   -3.0771    0.7076 H   0  0  0  1  0  0  0  0  0  0  0  0
   13.8889   -2.9697    0.1776 H   0  0  0  1  0  0  0  0  0  0  0  0
   16.8982   -9.4306    3.0223 P   0  0  0  1  0  0  0  0  0  0  0  0
   16.9776   -9.1707    4.4772 O   0  0  0  1  0  0  0  0  0  0  0  0
   16.4094   -6.6961    2.0044 P   0  0  0  1  0  0  0  0  0  0  0  0
   16.3974   -5.9897    3.3175 O   0  0  0  1  0  0  0  0  0  0  0  0
  1 20  1  0  0  0  0
  1 22  1  0  0  0  0
  2  4  1  0  0  0  0
  2 22  1  0  0  0  0
  3 22  1  0  0  0  0
  4  5  1  0  0  0  0
  4  6  1  0  0  0  0
  4  9  1  0  0  0  0
  7 20  1  0  0  0  0
  8 20  1  0  0  0  0
  9 10  1  0  0  0  0
  9 11  1  0  0  0  0
  9 12  1  0  0  0  0
 12 13  1  0  0  0  0
 12 17  2  0  0  0  0
 13 14  1  0  0  0  0
 13 15  1  0  0  0  0
 13 16  1  0  0  0  0
 17 18  1  0  0  0  0
 17 19  1  0  0  0  0
 20 21  2  0  0  0  0
 22 23  2  0  0  0  0
M  BCL ATM O_Tr2TrTrPi2 O_Tr2TrTrPi2 O_Te2Te2TeTe C_TeTeTeTe H_S H_S O_Te2Te2TeTe O_Te2Te2Te2Te C_TeTeTeTe H_S H_S C_TrTrTrPi C_TeTeTeTe H_S H_S H_S C_TrTrTrPi H_S H_S P_TeTeTeTePi O_Tr2Tr2TrPi P_TeTeTeTePi O_Tr2Tr2TrPi
M  BCL BND ConjugatedSingleBond ConjugatedSingleBond NonConjugatedSingleBond ConjugatedSingleBond ConjugatedSingleBond NonConjugatedSingleBond NonConjugatedSingleBond NonConjugatedSingleBond ConjugatedSingleBond ConjugatedSingleBond NonConjugatedSingleBond NonConjugatedSingleBond NonConjugatedSingleBond NonConjugatedSingleBond ConjugatedDoubleBond NonConjugatedSingleBond NonConjugatedSingleBond NonConjugatedSingleBond NonConjugatedSingleBond NonConjugatedSingleBond ConjugatedDoubleBond ConjugatedDoubleBond
M  BCL CHI  20   R  22   S
M  BCL DBI - - -
M  END
> <ConfClashScore>
0 

> <ConfOneFourInteractionScore>
-0.98644 

> <ConfScore>
-0.125284 

> <ConfScorePBest>
0.00757948 

> <ConfTolerance>
0.67216 

$$$$
L07.****
  PyMOL2.5          3D                             0

 23 22  0  0  0  0  0  0  0  0999 V2000
   15.6790   -6.4906   -3.2395 O   0  0  0  1  0  0  0  0  0  0  0  0
   14.9348   -6.3953   -0.9731 O   0  0  0  1  0  0  0  0  0  0  0  0
   16.7763   -8.0524   -1.5578 O   0  0  0  0  0  0  0  0  0  0  0  0
   14.5351   -6.6932    0.3853 C   0  0  0  1  0  0  0  0  0  0  0  0
   15.3710   -7.0704    0.9367 H   0  0  0  1  0  0  0  0  0  0  0  0
   13.7509   -7.4211    0.3831 H   0  0  0  1  0  0  0  0  0  0  0  0
   18.2079   -6.8805   -3.6730 O   0  0  0  0  0  0  0  0  0  0  0  0
   16.9449   -5.0962   -5.0888 O   0  5  0  1  0  0  0  0  0  0  0  0
   14.0394   -5.3985    1.0160 C   0  0  0  1  0  0  0  0  0  0  0  0
   14.8565   -4.7095    1.0664 H   0  0  0  1  0  0  0  0  0  0  0  0
   13.6915   -5.6128    2.0049 H   0  0  0  1  0  0  0  0  0  0  0  0
   12.9188   -4.7570    0.2423 C   0  0  0  1  0  0  0  0  0  0  0  0
   11.7110   -5.5981   -0.0613 C   0  0  0  1  0  0  0  0  0  0  0  0
   12.0206   -6.5187   -0.5104 H   0  0  0  1  0  0  0  0  0  0  0  0
   11.0695   -5.0704   -0.7358 H   0  0  0  1  0  0  0  0  0  0  0  0
   11.1830   -5.8042    0.8462 H   0  0  0  1  0  0  0  0  0  0  0  0
   12.9956   -3.4811   -0.1614 C   0  0  0  1  0  0  0  0  0  0  0  0
   13.8170   -2.9012    0.1043 H   0  0  0  1  0  0  0  0  0  0  0  0
   12.2345   -3.0715   -0.7399 H   0  0  0  1  0  0  0  0  0  0  0  0
   16.7919   -6.5733   -4.4413 P   0  0  0  1  0  0  0  0  0  0  0  0
   16.5433   -7.5812   -5.4962 O   0  0  0  1  0  0  0  0  0  0  0  0
   15.4786   -7.4022   -1.9672 P   0  0  0  1  0  0  0  0  0  0  0  0
   14.3774   -8.3014   -2.3296 O   0  0  0  1  0  0  0  0  0  0  0  0
  1 20  1  0  0  0  0
  1 22  1  0  0  0  0
  2  4  1  0  0  0  0
  2 22  1  0  0  0  0
  3 22  1  0  0  0  0
  4  5  1  0  0  0  0
  4  6  1  0  0  0  0
  4  9  1  0  0  0  0
  7 20  1  0  0  0  0
  8 20  1  0  0  0  0
  9 10  1  0  0  0  0
  9 11  1  0  0  0  0
  9 12  1  0  0  0  0
 12 13  1  0  0  0  0
 12 17  2  0  0  0  0
 13 14  1  0  0  0  0
 13 15  1  0  0  0  0
 13 16  1  0  0  0  0
 17 18  1  0  0  0  0
 17 19  1  0  0  0  0
 20 21  2  0  0  0  0
 22 23  2  0  0  0  0
M  BCL ATM O_Tr2TrTrPi2 O_Tr2TrTrPi2 O_Te2Te2TeTe C_TeTeTeTe H_S H_S O_Te2Te2TeTe O_Te2Te2Te2Te C_TeTeTeTe H_S H_S C_TrTrTrPi C_TeTeTeTe H_S H_S H_S C_TrTrTrPi H_S H_S P_TeTeTeTePi O_Tr2Tr2TrPi P_TeTeTeTePi O_Tr2Tr2TrPi
M  BCL BND ConjugatedSingleBond ConjugatedSingleBond NonConjugatedSingleBond ConjugatedSingleBond ConjugatedSingleBond NonConjugatedSingleBond NonConjugatedSingleBond NonConjugatedSingleBond ConjugatedSingleBond ConjugatedSingleBond NonConjugatedSingleBond NonConjugatedSingleBond NonConjugatedSingleBond NonConjugatedSingleBond ConjugatedDoubleBond NonConjugatedSingleBond NonConjugatedSingleBond NonConjugatedSingleBond NonConjugatedSingleBond NonConjugatedSingleBond ConjugatedDoubleBond ConjugatedDoubleBond
M  BCL CHI  20   R  22   S
M  BCL DBI - - -
M  END
> <ConfClashScore>
0 

> <ConfOneFourInteractionScore>
-0.968935 

> <ConfScore>
-0.124609 

> <ConfScorePBest>
0.00747648 

> <ConfTolerance>
0.6843 

$$$$
L07.****
  PyMOL2.5          3D                             0

 23 22  0  0  0  0  0  0  0  0999 V2000
   11.7220   -4.8082    3.6067 O   0  0  0  1  0  0  0  0  0  0  0  0
   14.0164   -4.7592    2.9600 O   0  0  0  1  0  0  0  0  0  0  0  0
   13.4418   -5.8302    5.1693 O   0  0  0  0  0  0  0  0  0  0  0  0
   13.9741   -5.9479    2.1304 C   0  0  0  1  0  0  0  0  0  0  0  0
   13.0329   -6.4426    2.2503 H   0  0  0  1  0  0  0  0  0  0  0  0
   14.7651   -6.6134    2.4066 H   0  0  0  1  0  0  0  0  0  0  0  0
    9.7740   -4.5095    5.5563 O   0  0  0  0  0  0  0  0  0  0  0  0
    9.9952   -6.5968    4.0014 O   0  5  0  1  0  0  0  0  0  0  0  0
   14.1481   -5.5080    0.6827 C   0  0  0  1  0  0  0  0  0  0  0  0
   14.3053   -6.3774    0.0791 H   0  0  0  1  0  0  0  0  0  0  0  0
   15.0054   -4.8707    0.6211 H   0  0  0  1  0  0  0  0  0  0  0  0
   12.9563   -4.7612    0.1460 C   0  0  0  1  0  0  0  0  0  0  0  0
   11.6976   -5.5757    0.0432 C   0  0  0  1  0  0  0  0  0  0  0  0
   11.8903   -6.4607   -0.5264 H   0  0  0  1  0  0  0  0  0  0  0  0
   10.9380   -4.9984   -0.4412 H   0  0  0  1  0  0  0  0  0  0  0  0
   11.3681   -5.8480    1.0242 H   0  0  0  1  0  0  0  0  0  0  0  0
   12.9888   -3.4829   -0.2152 C   0  0  0  1  0  0  0  0  0  0  0  0
   12.1275   -3.0227   -0.5730 H   0  0  0  1  0  0  0  0  0  0  0  0
   13.8746   -2.9432   -0.1403 H   0  0  0  1  0  0  0  0  0  0  0  0
   10.1479   -4.9843    4.0318 P   0  0  0  1  0  0  0  0  0  0  0  0
    9.1794   -4.4284    3.0605 O   0  0  0  1  0  0  0  0  0  0  0  0
   13.1475   -4.6653    4.3144 P   0  0  0  1  0  0  0  0  0  0  0  0
   13.2745   -3.3110    4.8811 O   0  0  0  1  0  0  0  0  0  0  0  0
  1 20  1  0  0  0  0
  1 22  1  0  0  0  0
  2  4  1  0  0  0  0
  2 22  1  0  0  0  0
  3 22  1  0  0  0  0
  4  5  1  0  0  0  0
  4  6  1  0  0  0  0
  4  9  1  0  0  0  0
  7 20  1  0  0  0  0
  8 20  1  0  0  0  0
  9 10  1  0  0  0  0
  9 11  1  0  0  0  0
  9 12  1  0  0  0  0
 12 13  1  0  0  0  0
 12 17  2  0  0  0  0
 13 14  1  0  0  0  0
 13 15  1  0  0  0  0
 13 16  1  0  0  0  0
 17 18  1  0  0  0  0
 17 19  1  0  0  0  0
 20 21  2  0  0  0  0
 22 23  2  0  0  0  0
M  BCL ATM O_Tr2TrTrPi2 O_Tr2TrTrPi2 O_Te2Te2TeTe C_TeTeTeTe H_S H_S O_Te2Te2TeTe O_Te2Te2Te2Te C_TeTeTeTe H_S H_S C_TrTrTrPi C_TeTeTeTe H_S H_S H_S C_TrTrTrPi H_S H_S P_TeTeTeTePi O_Tr2Tr2TrPi P_TeTeTeTePi O_Tr2Tr2TrPi
M  BCL BND ConjugatedSingleBond ConjugatedSingleBond NonConjugatedSingleBond ConjugatedSingleBond ConjugatedSingleBond NonConjugatedSingleBond NonConjugatedSingleBond NonConjugatedSingleBond ConjugatedSingleBond ConjugatedSingleBond NonConjugatedSingleBond NonConjugatedSingleBond NonConjugatedSingleBond NonConjugatedSingleBond ConjugatedDoubleBond NonConjugatedSingleBond NonConjugatedSingleBond NonConjugatedSingleBond NonConjugatedSingleBond NonConjugatedSingleBond ConjugatedDoubleBond ConjugatedDoubleBond
M  BCL CHI  20   R  22   S
M  BCL DBI - - -
M  END
> <ConfClashScore>
0 

> <ConfOneFourInteractionScore>
-0.98644 

> <ConfScore>
-0.114788 

> <ConfScorePBest>
0.00737347 

> <ConfTolerance>
0.674541 

$$$$
L07.****
  PyMOL2.5          3D                             0

 23 22  0  0  0  0  0  0  0  0999 V2000
   11.7882   -8.4670    3.2587 O   0  0  0  1  0  0  0  0  0  0  0  0
   13.2186   -6.9384    1.8636 O   0  0  0  1  0  0  0  0  0  0  0  0
   14.2404   -8.7897    3.3540 O   0  0  0  0  0  0  0  0  0  0  0  0
   14.4366   -6.2423    1.4925 C   0  0  0  1  0  0  0  0  0  0  0  0
   15.2483   -6.9366    1.4292 H   0  0  0  1  0  0  0  0  0  0  0  0
   14.6641   -5.4924    2.2210 H   0  0  0  1  0  0  0  0  0  0  0  0
   11.2454   -8.7974    0.6227 O   0  0  0  0  0  0  0  0  0  0  0  0
    9.4087   -9.2925    2.3722 O   0  5  0  1  0  0  0  0  0  0  0  0
   14.2032   -5.5940    0.1377 C   0  0  0  1  0  0  0  0  0  0  0  0
   14.1453   -6.3718   -0.5948 H   0  0  0  1  0  0  0  0  0  0  0  0
   15.0415   -4.9641   -0.0756 H   0  0  0  1  0  0  0  0  0  0  0  0
   12.9565   -4.7599    0.0284 C   0  0  0  1  0  0  0  0  0  0  0  0
   11.7133   -5.6055    0.0074 C   0  0  0  1  0  0  0  0  0  0  0  0
   10.8558   -4.9768   -0.1126 H   0  0  0  1  0  0  0  0  0  0  0  0
   11.6337   -6.1450    0.9280 H   0  0  0  1  0  0  0  0  0  0  0  0
   11.7658   -6.2962   -0.8081 H   0  0  0  1  0  0  0  0  0  0  0  0
   12.9545   -3.4204   -0.0420 C   0  0  0  1  0  0  0  0  0  0  0  0
   12.0549   -2.9069   -0.1339 H   0  0  0  1  0  0  0  0  0  0  0  0
   13.8518   -2.8959   -0.0048 H   0  0  0  1  0  0  0  0  0  0  0  0
   11.0095   -9.3771    2.1385 P   0  0  0  1  0  0  0  0  0  0  0  0
   11.4793  -10.7799    2.0942 O   0  0  0  1  0  0  0  0  0  0  0  0
   13.1968   -7.7465    3.1962 P   0  0  0  1  0  0  0  0  0  0  0  0
   13.3038   -6.7140    4.2655 O   0  0  0  1  0  0  0  0  0  0  0  0
  1 20  1  0  0  0  0
  1 22  1  0  0  0  0
  2  4  1  0  0  0  0
  2 22  1  0  0  0  0
  3 22  1  0  0  0  0
  4  5  1  0  0  0  0
  4  6  1  0  0  0  0
  4  9  1  0  0  0  0
  7 20  1  0  0  0  0
  8 20  1  0  0  0  0
  9 10  1  0  0  0  0
  9 11  1  0  0  0  0
  9 12  1  0  0  0  0
 12 13  1  0  0  0  0
 12 17  2  0  0  0  0
 13 14  1  0  0  0  0
 13 15  1  0  0  0  0
 13 16  1  0  0  0  0
 17 18  1  0  0  0  0
 17 19  1  0  0  0  0
 20 21  2  0  0  0  0
 22 23  2  0  0  0  0
M  BCL ATM O_Tr2TrTrPi2 O_Tr2TrTrPi2 O_Te2Te2TeTe C_TeTeTeTe H_S H_S O_Te2Te2TeTe O_Te2Te2Te2Te C_TeTeTeTe H_S H_S C_TrTrTrPi C_TeTeTeTe H_S H_S H_S C_TrTrTrPi H_S H_S P_TeTeTeTePi O_Tr2Tr2TrPi P_TeTeTeTePi O_Tr2Tr2TrPi
M  BCL BND ConjugatedSingleBond ConjugatedSingleBond NonConjugatedSingleBond ConjugatedSingleBond ConjugatedSingleBond NonConjugatedSingleBond NonConjugatedSingleBond NonConjugatedSingleBond ConjugatedSingleBond ConjugatedSingleBond NonConjugatedSingleBond NonConjugatedSingleBond NonConjugatedSingleBond NonConjugatedSingleBond ConjugatedDoubleBond NonConjugatedSingleBond NonConjugatedSingleBond NonConjugatedSingleBond NonConjugatedSingleBond NonConjugatedSingleBond ConjugatedDoubleBond ConjugatedDoubleBond
M  BCL CHI  20   R  22   S
M  BCL DBI - - -
M  END
> <ConfClashScore>
0 

> <ConfOneFourInteractionScore>
-0.989602 

> <ConfScore>
-0.114247 

> <ConfScorePBest>
0.00727047 

> <ConfTolerance>
0.753381 

$$$$
L07.****
  PyMOL2.5          3D                             0

 23 22  0  0  0  0  0  0  0  0999 V2000
   17.7497   -2.5983    0.3817 O   0  0  0  1  0  0  0  0  0  0  0  0
   15.8876   -4.2325   -0.1362 O   0  0  0  1  0  0  0  0  0  0  0  0
   16.8240   -2.9186   -1.9630 O   0  0  0  0  0  0  0  0  0  0  0  0
   15.2705   -4.5186    1.1412 C   0  0  0  1  0  0  0  0  0  0  0  0
   14.9368   -3.6095    1.5963 H   0  0  0  1  0  0  0  0  0  0  0  0
   15.9741   -5.0032    1.7853 H   0  0  0  1  0  0  0  0  0  0  0  0
   19.9417   -2.0719    1.7824 O   0  0  0  0  0  0  0  0  0  0  0  0
   18.1246   -0.1729    1.1778 O   0  5  0  1  0  0  0  0  0  0  0  0
   14.0828   -5.4372    0.8856 C   0  0  0  1  0  0  0  0  0  0  0  0
   13.7324   -5.8101    1.8253 H   0  0  0  1  0  0  0  0  0  0  0  0
   14.4090   -6.2540    0.2763 H   0  0  0  1  0  0  0  0  0  0  0  0
   12.9427   -4.7462    0.1895 C   0  0  0  1  0  0  0  0  0  0  0  0
   11.6938   -5.5715    0.0567 C   0  0  0  1  0  0  0  0  0  0  0  0
   11.8407   -6.3242   -0.6894 H   0  0  0  1  0  0  0  0  0  0  0  0
   10.8783   -4.9405   -0.2293 H   0  0  0  1  0  0  0  0  0  0  0  0
   11.4730   -6.0374    0.9943 H   0  0  0  1  0  0  0  0  0  0  0  0
   13.0090   -3.5049   -0.2799 C   0  0  0  1  0  0  0  0  0  0  0  0
   12.1890   -3.0894   -0.7662 H   0  0  0  1  0  0  0  0  0  0  0  0
   13.8802   -2.9494   -0.1612 H   0  0  0  1  0  0  0  0  0  0  0  0
   18.9199   -1.4797    0.6446 P   0  0  0  1  0  0  0  0  0  0  0  0
   19.7146   -1.2348   -0.5797 O   0  0  0  1  0  0  0  0  0  0  0  0
   16.4526   -2.7862   -0.5323 P   0  0  0  1  0  0  0  0  0  0  0  0
   15.5224   -1.7278   -0.0998 O   0  0  0  1  0  0  0  0  0  0  0  0
  1 20  1  0  0  0  0
  1 22  1  0  0  0  0
  2  4  1  0  0  0  0
  2 22  1  0  0  0  0
  3 22  1  0  0  0  0
  4  5  1  0  0  0  0
  4  6  1  0  0  0  0
  4  9  1  0  0  0  0
  7 20  1  0  0  0  0
  8 20  1  0  0  0  0
  9 10  1  0  0  0  0
  9 11  1  0  0  0  0
  9 12  1  0  0  0  0
 12 13  1  0  0  0  0
 12 17  2  0  0  0  0
 13 14  1  0  0  0  0
 13 15  1  0  0  0  0
 13 16  1  0  0  0  0
 17 18  1  0  0  0  0
 17 19  1  0  0  0  0
 20 21  2  0  0  0  0
 22 23  2  0  0  0  0
M  BCL ATM O_Tr2TrTrPi2 O_Tr2TrTrPi2 O_Te2Te2TeTe C_TeTeTeTe H_S H_S O_Te2Te2TeTe O_Te2Te2Te2Te C_TeTeTeTe H_S H_S C_TrTrTrPi C_TeTeTeTe H_S H_S H_S C_TrTrTrPi H_S H_S P_TeTeTeTePi O_Tr2Tr2TrPi P_TeTeTeTePi O_Tr2Tr2TrPi
M  BCL BND ConjugatedSingleBond ConjugatedSingleBond NonConjugatedSingleBond ConjugatedSingleBond ConjugatedSingleBond NonConjugatedSingleBond NonConjugatedSingleBond NonConjugatedSingleBond ConjugatedSingleBond ConjugatedSingleBond NonConjugatedSingleBond NonConjugatedSingleBond NonConjugatedSingleBond NonConjugatedSingleBond ConjugatedDoubleBond NonConjugatedSingleBond NonConjugatedSingleBond NonConjugatedSingleBond NonConjugatedSingleBond NonConjugatedSingleBond ConjugatedDoubleBond ConjugatedDoubleBond
M  BCL CHI  20   R  22   S
M  BCL DBI - - -
M  END
> <ConfClashScore>
0 

> <ConfOneFourInteractionScore>
-0.981767 

> <ConfScore>
-0.111613 

> <ConfScorePBest>
0.00716747 

> <ConfTolerance>
0.842759 

$$$$
L07.****
  PyMOL2.5          3D                             0

 23 22  0  0  0  0  0  0  0  0999 V2000
   11.4254   -8.5874    3.3929 O   0  0  0  1  0  0  0  0  0  0  0  0
   13.0669   -7.1584    2.0712 O   0  0  0  1  0  0  0  0  0  0  0  0
   13.2057   -7.2134    4.5685 O   0  0  0  0  0  0  0  0  0  0  0  0
   14.0937   -6.1392    1.9573 C   0  0  0  1  0  0  0  0  0  0  0  0
   15.0393   -6.5789    2.1969 H   0  0  0  1  0  0  0  0  0  0  0  0
   13.8768   -5.3566    2.6539 H   0  0  0  1  0  0  0  0  0  0  0  0
    9.5047   -8.3953    1.5037 O   0  0  0  0  0  0  0  0  0  0  0  0
    8.9721   -7.8915    4.0417 O   0  5  0  1  0  0  0  0  0  0  0  0
   14.1772   -5.5388    0.5635 C   0  0  0  1  0  0  0  0  0  0  0  0
   14.3336   -6.3374   -0.1312 H   0  0  0  1  0  0  0  0  0  0  0  0
   15.0162   -4.8752    0.5397 H   0  0  0  1  0  0  0  0  0  0  0  0
   12.9628   -4.7681    0.1191 C   0  0  0  1  0  0  0  0  0  0  0  0
   11.6979   -5.5759    0.0436 C   0  0  0  1  0  0  0  0  0  0  0  0
   11.8960   -6.5044   -0.4501 H   0  0  0  1  0  0  0  0  0  0  0  0
   10.9590   -5.0307   -0.5057 H   0  0  0  1  0  0  0  0  0  0  0  0
   11.3380   -5.7680    1.0328 H   0  0  0  1  0  0  0  0  0  0  0  0
   12.9816   -3.4754   -0.1877 C   0  0  0  1  0  0  0  0  0  0  0  0
   12.1160   -3.0101   -0.5281 H   0  0  0  1  0  0  0  0  0  0  0  0
   13.8610   -2.9294   -0.0875 H   0  0  0  1  0  0  0  0  0  0  0  0
    9.8407   -8.8315    3.0485 P   0  0  0  1  0  0  0  0  0  0  0  0
    9.4097  -10.2134    3.3567 O   0  0  0  1  0  0  0  0  0  0  0  0
   12.1823   -7.2835    3.3920 P   0  0  0  1  0  0  0  0  0  0  0  0
   11.3138   -6.0592    3.4110 O   0  0  0  1  0  0  0  0  0  0  0  0
  1 20  1  0  0  0  0
  1 22  1  0  0  0  0
  2  4  1  0  0  0  0
  2 22  1  0  0  0  0
  3 22  1  0  0  0  0
  4  5  1  0  0  0  0
  4  6  1  0  0  0  0
  4  9  1  0  0  0  0
  7 20  1  0  0  0  0
  8 20  1  0  0  0  0
  9 10  1  0  0  0  0
  9 11  1  0  0  0  0
  9 12  1  0  0  0  0
 12 13  1  0  0  0  0
 12 17  2  0  0  0  0
 13 14  1  0  0  0  0
 13 15  1  0  0  0  0
 13 16  1  0  0  0  0
 17 18  1  0  0  0  0
 17 19  1  0  0  0  0
 20 21  2  0  0  0  0
 22 23  2  0  0  0  0
M  BCL ATM O_Tr2TrTrPi2 O_Tr2TrTrPi2 O_Te2Te2TeTe C_TeTeTeTe H_S H_S O_Te2Te2TeTe O_Te2Te2Te2Te C_TeTeTeTe H_S H_S C_TrTrTrPi C_TeTeTeTe H_S H_S H_S C_TrTrTrPi H_S H_S P_TeTeTeTePi O_Tr2Tr2TrPi P_TeTeTeTePi O_Tr2Tr2TrPi
M  BCL BND ConjugatedSingleBond ConjugatedSingleBond NonConjugatedSingleBond ConjugatedSingleBond ConjugatedSingleBond NonConjugatedSingleBond NonConjugatedSingleBond NonConjugatedSingleBond ConjugatedSingleBond ConjugatedSingleBond NonConjugatedSingleBond NonConjugatedSingleBond NonConjugatedSingleBond NonConjugatedSingleBond ConjugatedDoubleBond NonConjugatedSingleBond NonConjugatedSingleBond NonConjugatedSingleBond NonConjugatedSingleBond NonConjugatedSingleBond ConjugatedDoubleBond ConjugatedDoubleBond
M  BCL CHI  20   R  22   S
M  BCL DBI - - -
M  END
> <ConfClashScore>
0 

> <ConfOneFourInteractionScore>
-0.992869 

> <ConfScore>
-0.107811 

> <ConfScorePBest>
0.00706447 

> <ConfTolerance>
0.781544 

$$$$
L07.****
  PyMOL2.5          3D                             0

 23 22  0  0  0  0  0  0  0  0999 V2000
   16.3825   -7.1676    4.8980 O   0  0  0  1  0  0  0  0  0  0  0  0
   14.9405   -6.0141    3.1194 O   0  0  0  1  0  0  0  0  0  0  0  0
   15.2187   -4.9101    5.3068 O   0  0  0  0  0  0  0  0  0  0  0  0
   13.8418   -5.2531    2.5541 C   0  0  0  1  0  0  0  0  0  0  0  0
   13.9161   -4.2238    2.8371 H   0  0  0  1  0  0  0  0  0  0  0  0
   12.9044   -5.6480    2.8862 H   0  0  0  1  0  0  0  0  0  0  0  0
   15.5792   -7.6391    7.3441 O   0  0  0  0  0  0  0  0  0  0  0  0
   18.1205   -8.0999    6.6186 O   0  5  0  1  0  0  0  0  0  0  0  0
   13.9748   -5.3995    1.0471 C   0  0  0  1  0  0  0  0  0  0  0  0
   13.9654   -6.4440    0.8149 H   0  0  0  1  0  0  0  0  0  0  0  0
   14.9139   -4.9773    0.7561 H   0  0  0  1  0  0  0  0  0  0  0  0
   12.8952   -4.7339    0.2363 C   0  0  0  1  0  0  0  0  0  0  0  0
   11.7087   -5.6022   -0.0621 C   0  0  0  1  0  0  0  0  0  0  0  0
   12.0368   -6.5071   -0.5295 H   0  0  0  1  0  0  0  0  0  0  0  0
   11.0431   -5.0827   -0.7194 H   0  0  0  1  0  0  0  0  0  0  0  0
   11.1999   -5.8362    0.8496 H   0  0  0  1  0  0  0  0  0  0  0  0
   13.0128   -3.4749   -0.1685 C   0  0  0  1  0  0  0  0  0  0  0  0
   13.8618   -2.9275    0.0786 H   0  0  0  1  0  0  0  0  0  0  0  0
   12.2566   -3.0367   -0.7321 H   0  0  0  1  0  0  0  0  0  0  0  0
   16.5693   -8.1964    6.1615 P   0  0  0  1  0  0  0  0  0  0  0  0
   16.3216   -9.5936    5.7411 O   0  0  0  1  0  0  0  0  0  0  0  0
   15.0459   -6.2577    4.7140 P   0  0  0  1  0  0  0  0  0  0  0  0
   13.9771   -7.1159    5.1908 O   0  0  0  1  0  0  0  0  0  0  0  0
  1 20  1  0  0  0  0
  1 22  1  0  0  0  0
  2  4  1  0  0  0  0
  2 22  1  0  0  0  0
  3 22  1  0  0  0  0
  4  5  1  0  0  0  0
  4  6  1  0  0  0  0
  4  9  1  0  0  0  0
  7 20  1  0  0  0  0
  8 20  1  0  0  0  0
  9 10  1  0  0  0  0
  9 11  1  0  0  0  0
  9 12  1  0  0  0  0
 12 13  1  0  0  0  0
 12 17  2  0  0  0  0
 13 14  1  0  0  0  0
 13 15  1  0  0  0  0
 13 16  1  0  0  0  0
 17 18  1  0  0  0  0
 17 19  1  0  0  0  0
 20 21  2  0  0  0  0
 22 23  2  0  0  0  0
M  BCL ATM O_Tr2TrTrPi2 O_Tr2TrTrPi2 O_Te2Te2TeTe C_TeTeTeTe H_S H_S O_Te2Te2TeTe O_Te2Te2Te2Te C_TeTeTeTe H_S H_S C_TrTrTrPi C_TeTeTeTe H_S H_S H_S C_TrTrTrPi H_S H_S P_TeTeTeTePi O_Tr2Tr2TrPi P_TeTeTeTePi O_Tr2Tr2TrPi
M  BCL BND ConjugatedSingleBond ConjugatedSingleBond NonConjugatedSingleBond ConjugatedSingleBond ConjugatedSingleBond NonConjugatedSingleBond NonConjugatedSingleBond NonConjugatedSingleBond ConjugatedSingleBond ConjugatedSingleBond NonConjugatedSingleBond NonConjugatedSingleBond NonConjugatedSingleBond NonConjugatedSingleBond ConjugatedDoubleBond NonConjugatedSingleBond NonConjugatedSingleBond NonConjugatedSingleBond NonConjugatedSingleBond NonConjugatedSingleBond ConjugatedDoubleBond ConjugatedDoubleBond
M  BCL CHI  20   R  22   S
M  BCL DBI - - -
M  END
> <ConfClashScore>
0 

> <ConfOneFourInteractionScore>
-0.98644 

> <ConfScore>
-0.102141 

> <ConfScorePBest>
0.00696147 

> <ConfTolerance>
0.755675 

$$$$
L07.****
  PyMOL2.5          3D                             0

 23 22  0  0  0  0  0  0  0  0999 V2000
   14.7527   -3.5101    4.7729 O   0  0  0  1  0  0  0  0  0  0  0  0
   14.8876   -3.7930    2.3062 O   0  0  0  1  0  0  0  0  0  0  0  0
   16.7808   -4.3838    3.7547 O   0  0  0  0  0  0  0  0  0  0  0  0
   14.3911   -5.1515    2.2015 C   0  0  0  1  0  0  0  0  0  0  0  0
   13.4683   -5.2444    2.7349 H   0  0  0  1  0  0  0  0  0  0  0  0
   15.1085   -5.8339    2.6072 H   0  0  0  1  0  0  0  0  0  0  0  0
   14.6334   -1.8323    6.8185 O   0  0  0  0  0  0  0  0  0  0  0  0
   12.6989   -3.4991    6.5244 O   0  5  0  1  0  0  0  0  0  0  0  0
   14.1689   -5.4501    0.7246 C   0  0  0  1  0  0  0  0  0  0  0  0
   14.0530   -6.5070    0.6045 H   0  0  0  1  0  0  0  0  0  0  0  0
   15.0273   -5.1205    0.1775 H   0  0  0  1  0  0  0  0  0  0  0  0
   12.9509   -4.7676    0.1617 C   0  0  0  1  0  0  0  0  0  0  0  0
   11.6963   -5.5833    0.0240 C   0  0  0  1  0  0  0  0  0  0  0  0
   10.9819   -5.0437   -0.5619 H   0  0  0  1  0  0  0  0  0  0  0  0
   11.2885   -5.7766    0.9942 H   0  0  0  1  0  0  0  0  0  0  0  0
   11.9253   -6.5106   -0.4584 H   0  0  0  1  0  0  0  0  0  0  0  0
   12.9841   -3.4895   -0.2002 C   0  0  0  1  0  0  0  0  0  0  0  0
   12.1324   -3.0385   -0.5910 H   0  0  0  1  0  0  0  0  0  0  0  0
   13.8610   -2.9408   -0.0929 H   0  0  0  1  0  0  0  0  0  0  0  0
   13.7365   -2.5909    5.6741 P   0  0  0  1  0  0  0  0  0  0  0  0
   12.9881   -1.5554    4.9272 O   0  0  0  1  0  0  0  0  0  0  0  0
   15.7527   -3.3351    3.5606 P   0  0  0  1  0  0  0  0  0  0  0  0
   16.1695   -1.9277    3.4180 O   0  0  0  1  0  0  0  0  0  0  0  0
  1 20  1  0  0  0  0
  1 22  1  0  0  0  0
  2  4  1  0  0  0  0
  2 22  1  0  0  0  0
  3 22  1  0  0  0  0
  4  5  1  0  0  0  0
  4  6  1  0  0  0  0
  4  9  1  0  0  0  0
  7 20  1  0  0  0  0
  8 20  1  0  0  0  0
  9 10  1  0  0  0  0
  9 11  1  0  0  0  0
  9 12  1  0  0  0  0
 12 13  1  0  0  0  0
 12 17  2  0  0  0  0
 13 14  1  0  0  0  0
 13 15  1  0  0  0  0
 13 16  1  0  0  0  0
 17 18  1  0  0  0  0
 17 19  1  0  0  0  0
 20 21  2  0  0  0  0
 22 23  2  0  0  0  0
M  BCL ATM O_Tr2TrTrPi2 O_Tr2TrTrPi2 O_Te2Te2TeTe C_TeTeTeTe H_S H_S O_Te2Te2TeTe O_Te2Te2Te2Te C_TeTeTeTe H_S H_S C_TrTrTrPi C_TeTeTeTe H_S H_S H_S C_TrTrTrPi H_S H_S P_TeTeTeTePi O_Tr2Tr2TrPi P_TeTeTeTePi O_Tr2Tr2TrPi
M  BCL BND ConjugatedSingleBond ConjugatedSingleBond NonConjugatedSingleBond ConjugatedSingleBond ConjugatedSingleBond NonConjugatedSingleBond NonConjugatedSingleBond NonConjugatedSingleBond ConjugatedSingleBond ConjugatedSingleBond NonConjugatedSingleBond NonConjugatedSingleBond NonConjugatedSingleBond NonConjugatedSingleBond ConjugatedDoubleBond NonConjugatedSingleBond NonConjugatedSingleBond NonConjugatedSingleBond NonConjugatedSingleBond NonConjugatedSingleBond ConjugatedDoubleBond ConjugatedDoubleBond
M  BCL CHI  20   R  22   S
M  BCL DBI - - -
M  END
> <ConfClashScore>
0 

> <ConfOneFourInteractionScore>
-0.977311 

> <ConfScore>
-0.100149 

> <ConfScorePBest>
0.00685847 

> <ConfTolerance>
0.756781 

$$$$
L07.****
  PyMOL2.5          3D                             0

 23 22  0  0  0  0  0  0  0  0999 V2000
   16.7217   -4.0057    3.4266 O   0  0  0  1  0  0  0  0  0  0  0  0
   15.1379   -3.4527    1.6612 O   0  0  0  1  0  0  0  0  0  0  0  0
   17.5604   -2.6632    1.6037 O   0  0  0  0  0  0  0  0  0  0  0  0
   15.3871   -4.6255    0.8511 C   0  0  0  1  0  0  0  0  0  0  0  0
   16.1702   -5.2099    1.2871 H   0  0  0  1  0  0  0  0  0  0  0  0
   15.6692   -4.3317   -0.1384 H   0  0  0  1  0  0  0  0  0  0  0  0
   16.2016   -5.9712    5.1516 O   0  0  0  0  0  0  0  0  0  0  0  0
   14.3437   -4.8459    3.8003 O   0  5  0  1  0  0  0  0  0  0  0  0
   14.1017   -5.4354    0.8038 C   0  0  0  1  0  0  0  0  0  0  0  0
   13.8321   -5.6856    1.8086 H   0  0  0  1  0  0  0  0  0  0  0  0
   14.2963   -6.3315    0.2525 H   0  0  0  1  0  0  0  0  0  0  0  0
   12.9265   -4.7438    0.1662 C   0  0  0  1  0  0  0  0  0  0  0  0
   11.6894   -5.5886    0.0458 C   0  0  0  1  0  0  0  0  0  0  0  0
   11.8799   -6.4089   -0.6142 H   0  0  0  1  0  0  0  0  0  0  0  0
   10.8893   -4.9952   -0.3449 H   0  0  0  1  0  0  0  0  0  0  0  0
   11.4181   -5.9630    1.0108 H   0  0  0  1  0  0  0  0  0  0  0  0
   13.0074   -3.4838   -0.2478 C   0  0  0  1  0  0  0  0  0  0  0  0
   12.1739   -3.0186   -0.6607 H   0  0  0  1  0  0  0  0  0  0  0  0
   13.9034   -2.9634   -0.1590 H   0  0  0  1  0  0  0  0  0  0  0  0
   15.7038   -4.5049    4.6117 P   0  0  0  1  0  0  0  0  0  0  0  0
   15.4553   -3.4224    5.5899 O   0  0  0  1  0  0  0  0  0  0  0  0
   16.3728   -2.7969    2.4767 P   0  0  0  1  0  0  0  0  0  0  0  0
   15.8771   -1.6019    3.1933 O   0  0  0  1  0  0  0  0  0  0  0  0
  1 20  1  0  0  0  0
  1 22  1  0  0  0  0
  2  4  1  0  0  0  0
  2 22  1  0  0  0  0
  3 22  1  0  0  0  0
  4  5  1  0  0  0  0
  4  6  1  0  0  0  0
  4  9  1  0  0  0  0
  7 20  1  0  0  0  0
  8 20  1  0  0  0  0
  9 10  1  0  0  0  0
  9 11  1  0  0  0  0
  9 12  1  0  0  0  0
 12 13  1  0  0  0  0
 12 17  2  0  0  0  0
 13 14  1  0  0  0  0
 13 15  1  0  0  0  0
 13 16  1  0  0  0  0
 17 18  1  0  0  0  0
 17 19  1  0  0  0  0
 20 21  2  0  0  0  0
 22 23  2  0  0  0  0
M  BCL ATM O_Tr2TrTrPi2 O_Tr2TrTrPi2 O_Te2Te2TeTe C_TeTeTeTe H_S H_S O_Te2Te2TeTe O_Te2Te2Te2Te C_TeTeTeTe H_S H_S C_TrTrTrPi C_TeTeTeTe H_S H_S H_S C_TrTrTrPi H_S H_S P_TeTeTeTePi O_Tr2Tr2TrPi P_TeTeTeTePi O_Tr2Tr2TrPi
M  BCL BND ConjugatedSingleBond ConjugatedSingleBond NonConjugatedSingleBond ConjugatedSingleBond ConjugatedSingleBond NonConjugatedSingleBond NonConjugatedSingleBond NonConjugatedSingleBond ConjugatedSingleBond ConjugatedSingleBond NonConjugatedSingleBond NonConjugatedSingleBond NonConjugatedSingleBond NonConjugatedSingleBond ConjugatedDoubleBond NonConjugatedSingleBond NonConjugatedSingleBond NonConjugatedSingleBond NonConjugatedSingleBond NonConjugatedSingleBond ConjugatedDoubleBond ConjugatedDoubleBond
M  BCL CHI  20   R  22   S
M  BCL DBI - - -
M  END
> <ConfClashScore>
0 

> <ConfOneFourInteractionScore>
-0.981767 

> <ConfScore>
-0.098232 

> <ConfScorePBest>
0.00675547 

> <ConfTolerance>
0.872551 

$$$$
L07.****
  PyMOL2.5          3D                             0

 23 22  0  0  0  0  0  0  0  0999 V2000
   13.5696   -8.0981   -2.6342 O   0  0  0  1  0  0  0  0  0  0  0  0
   13.6897   -7.6018   -0.2157 O   0  0  0  1  0  0  0  0  0  0  0  0
   15.2692   -9.3013   -1.2212 O   0  0  0  0  0  0  0  0  0  0  0  0
   14.6686   -6.5409   -0.0681 C   0  0  0  1  0  0  0  0  0  0  0  0
   14.9231   -6.1593   -1.0349 H   0  0  0  1  0  0  0  0  0  0  0  0
   15.5454   -6.9335    0.4030 H   0  0  0  1  0  0  0  0  0  0  0  0
   12.6038   -5.6088   -2.3770 O   0  0  0  0  0  0  0  0  0  0  0  0
   11.0340   -7.6502   -1.9396 O   0  5  0  1  0  0  0  0  0  0  0  0
   14.1043   -5.4116    0.7841 C   0  0  0  1  0  0  0  0  0  0  0  0
   14.8705   -4.6789    0.9290 H   0  0  0  1  0  0  0  0  0  0  0  0
   13.8108   -5.8137    1.7312 H   0  0  0  1  0  0  0  0  0  0  0  0
   12.9113   -4.7401    0.1582 C   0  0  0  1  0  0  0  0  0  0  0  0
   11.6840   -5.5996    0.0417 C   0  0  0  1  0  0  0  0  0  0  0  0
   11.8918   -6.4347   -0.5941 H   0  0  0  1  0  0  0  0  0  0  0  0
   10.8843   -5.0242   -0.3756 H   0  0  0  1  0  0  0  0  0  0  0  0
   11.4022   -5.9518    1.0120 H   0  0  0  1  0  0  0  0  0  0  0  0
   13.0114   -3.4759   -0.2385 C   0  0  0  1  0  0  0  0  0  0  0  0
   12.1810   -2.9878   -0.6307 H   0  0  0  1  0  0  0  0  0  0  0  0
   13.9192   -2.9751   -0.1570 H   0  0  0  1  0  0  0  0  0  0  0  0
   12.2610   -7.1367   -2.8644 P   0  0  0  1  0  0  0  0  0  0  0  0
   11.7594   -7.0718   -4.2552 O   0  0  0  1  0  0  0  0  0  0  0  0
   13.8706   -8.8131   -1.2180 P   0  0  0  1  0  0  0  0  0  0  0  0
   12.7962   -9.7632   -0.9271 O   0  0  0  1  0  0  0  0  0  0  0  0
  1 20  1  0  0  0  0
  1 22  1  0  0  0  0
  2  4  1  0  0  0  0
  2 22  1  0  0  0  0
  3 22  1  0  0  0  0
  4  5  1  0  0  0  0
  4  6  1  0  0  0  0
  4  9  1  0  0  0  0
  7 20  1  0  0  0  0
  8 20  1  0  0  0  0
  9 10  1  0  0  0  0
  9 11  1  0  0  0  0
  9 12  1  0  0  0  0
 12 13  1  0  0  0  0
 12 17  2  0  0  0  0
 13 14  1  0  0  0  0
 13 15  1  0  0  0  0
 13 16  1  0  0  0  0
 17 18  1  0  0  0  0
 17 19  1  0  0  0  0
 20 21  2  0  0  0  0
 22 23  2  0  0  0  0
M  BCL ATM O_Tr2TrTrPi2 O_Tr2TrTrPi2 O_Te2Te2TeTe C_TeTeTeTe H_S H_S O_Te2Te2TeTe O_Te2Te2Te2Te C_TeTeTeTe H_S H_S C_TrTrTrPi C_TeTeTeTe H_S H_S H_S C_TrTrTrPi H_S H_S P_TeTeTeTePi O_Tr2Tr2TrPi P_TeTeTeTePi O_Tr2Tr2TrPi
M  BCL BND ConjugatedSingleBond ConjugatedSingleBond NonConjugatedSingleBond ConjugatedSingleBond ConjugatedSingleBond NonConjugatedSingleBond NonConjugatedSingleBond NonConjugatedSingleBond ConjugatedSingleBond ConjugatedSingleBond NonConjugatedSingleBond NonConjugatedSingleBond NonConjugatedSingleBond NonConjugatedSingleBond ConjugatedDoubleBond NonConjugatedSingleBond NonConjugatedSingleBond NonConjugatedSingleBond NonConjugatedSingleBond NonConjugatedSingleBond ConjugatedDoubleBond ConjugatedDoubleBond
M  BCL CHI  20   R  22   S
M  BCL DBI - - -
M  END
> <ConfClashScore>
0 

> <ConfOneFourInteractionScore>
-0.98644 

> <ConfScore>
-0.0980604 

> <ConfScorePBest>
0.00665247 

> <ConfTolerance>
0.877694 

$$$$
L07.****
  PyMOL2.5          3D                             0

 23 22  0  0  0  0  0  0  0  0999 V2000
    8.5997   -1.5903   -2.5116 O   0  0  0  1  0  0  0  0  0  0  0  0
    9.7210   -2.8119   -0.5793 O   0  0  0  1  0  0  0  0  0  0  0  0
    7.3624   -3.3732   -1.1965 O   0  0  0  0  0  0  0  0  0  0  0  0
    9.7633   -3.6995    0.5591 C   0  0  0  1  0  0  0  0  0  0  0  0
    9.4649   -4.6767    0.2415 H   0  0  0  1  0  0  0  0  0  0  0  0
    9.0785   -3.3396    1.2984 H   0  0  0  1  0  0  0  0  0  0  0  0
    8.9555   -3.7564   -3.9902 O   0  0  0  0  0  0  0  0  0  0  0  0
   11.0464   -2.2483   -3.3489 O   0  5  0  1  0  0  0  0  0  0  0  0
   11.1459   -3.7933    1.1833 C   0  0  0  1  0  0  0  0  0  0  0  0
   11.0779   -4.4275    2.0424 H   0  0  0  1  0  0  0  0  0  0  0  0
   11.4382   -2.8100    1.4875 H   0  0  0  1  0  0  0  0  0  0  0  0
   12.2222   -4.3407    0.2867 C   0  0  0  1  0  0  0  0  0  0  0  0
   12.0350   -5.7761   -0.1170 C   0  0  0  1  0  0  0  0  0  0  0  0
   12.9254   -6.1328   -0.5912 H   0  0  0  1  0  0  0  0  0  0  0  0
   11.2138   -5.8504   -0.7989 H   0  0  0  1  0  0  0  0  0  0  0  0
   11.8325   -6.3672    0.7516 H   0  0  0  1  0  0  0  0  0  0  0  0
   13.2661   -3.6318   -0.1297 C   0  0  0  1  0  0  0  0  0  0  0  0
   13.3339   -2.6210    0.1052 H   0  0  0  1  0  0  0  0  0  0  0  0
   14.0146   -4.0874   -0.6899 H   0  0  0  1  0  0  0  0  0  0  0  0
    9.4761   -2.2205   -3.7463 P   0  0  0  1  0  0  0  0  0  0  0  0
    9.2952   -1.4189   -4.9772 O   0  0  0  1  0  0  0  0  0  0  0  0
    8.3695   -2.1818   -1.1441 P   0  0  0  1  0  0  0  0  0  0  0  0
    7.9222   -1.1943   -0.1056 O   0  0  0  1  0  0  0  0  0  0  0  0
  1 20  1  0  0  0  0
  1 22  1  0  0  0  0
  2  4  1  0  0  0  0
  2 22  1  0  0  0  0
  3 22  1  0  0  0  0
  4  5  1  0  0  0  0
  4  6  1  0  0  0  0
  4  9  1  0  0  0  0
  7 20  1  0  0  0  0
  8 20  1  0  0  0  0
  9 10  1  0  0  0  0
  9 11  1  0  0  0  0
  9 12  1  0  0  0  0
 12 13  1  0  0  0  0
 12 17  2  0  0  0  0
 13 14  1  0  0  0  0
 13 15  1  0  0  0  0
 13 16  1  0  0  0  0
 17 18  1  0  0  0  0
 17 19  1  0  0  0  0
 20 21  2  0  0  0  0
 22 23  2  0  0  0  0
M  BCL ATM O_Tr2TrTrPi2 O_Tr2TrTrPi2 O_Te2Te2TeTe C_TeTeTeTe H_S H_S O_Te2Te2TeTe O_Te2Te2Te2Te C_TeTeTeTe H_S H_S C_TrTrTrPi C_TeTeTeTe H_S H_S H_S C_TrTrTrPi H_S H_S P_TeTeTeTePi O_Tr2Tr2TrPi P_TeTeTeTePi O_Tr2Tr2TrPi
M  BCL BND ConjugatedSingleBond ConjugatedSingleBond NonConjugatedSingleBond ConjugatedSingleBond ConjugatedSingleBond NonConjugatedSingleBond NonConjugatedSingleBond NonConjugatedSingleBond ConjugatedSingleBond ConjugatedSingleBond NonConjugatedSingleBond NonConjugatedSingleBond NonConjugatedSingleBond NonConjugatedSingleBond ConjugatedDoubleBond NonConjugatedSingleBond NonConjugatedSingleBond NonConjugatedSingleBond NonConjugatedSingleBond NonConjugatedSingleBond ConjugatedDoubleBond ConjugatedDoubleBond
M  BCL CHI  20   R  22   S
M  BCL DBI - - -
M  END
> <ConfClashScore>
0 

> <ConfOneFourInteractionScore>
-0.992869 

> <ConfScore>
-0.0966015 

> <ConfScorePBest>
0.00654947 

> <ConfTolerance>
0.79556 

$$$$
L07.****
  PyMOL2.5          3D                             0

 23 22  0  0  0  0  0  0  0  0999 V2000
   13.5181   -8.2825   -4.0605 O   0  0  0  1  0  0  0  0  0  0  0  0
   14.8604   -6.8295   -2.6644 O   0  0  0  1  0  0  0  0  0  0  0  0
   15.9396   -8.7460   -3.8716 O   0  0  0  0  0  0  0  0  0  0  0  0
   13.7527   -6.0706   -2.1250 C   0  0  0  1  0  0  0  0  0  0  0  0
   12.9063   -6.7151   -2.0111 H   0  0  0  1  0  0  0  0  0  0  0  0
   13.5086   -5.2762   -2.7990 H   0  0  0  1  0  0  0  0  0  0  0  0
   12.3644   -7.6764   -6.3211 O   0  0  0  0  0  0  0  0  0  0  0  0
   14.7211   -6.5527   -5.5766 O   0  5  0  1  0  0  0  0  0  0  0  0
   14.1219   -5.4815   -0.7668 C   0  0  0  1  0  0  0  0  0  0  0  0
   14.9333   -4.7951   -0.8910 H   0  0  0  1  0  0  0  0  0  0  0  0
   14.4203   -6.2724   -0.1108 H   0  0  0  1  0  0  0  0  0  0  0  0
   12.9504   -4.7562   -0.1639 C   0  0  0  1  0  0  0  0  0  0  0  0
   11.6970   -5.5730   -0.0502 C   0  0  0  1  0  0  0  0  0  0  0  0
   11.8718   -6.4074    0.5964 H   0  0  0  1  0  0  0  0  0  0  0  0
   11.4129   -5.9265   -1.0194 H   0  0  0  1  0  0  0  0  0  0  0  0
   10.9124   -4.9676    0.3533 H   0  0  0  1  0  0  0  0  0  0  0  0
   12.9961   -3.4924    0.2438 C   0  0  0  1  0  0  0  0  0  0  0  0
   12.1521   -3.0510    0.6615 H   0  0  0  1  0  0  0  0  0  0  0  0
   13.8749   -2.9452    0.1452 H   0  0  0  1  0  0  0  0  0  0  0  0
   13.2523   -7.0403   -5.0978 P   0  0  0  1  0  0  0  0  0  0  0  0
   12.4583   -6.0416   -4.3478 O   0  0  0  1  0  0  0  0  0  0  0  0
   14.6881   -8.3529   -3.0483 P   0  0  0  1  0  0  0  0  0  0  0  0
   14.3595   -9.2076   -1.9032 O   0  0  0  1  0  0  0  0  0  0  0  0
  1 20  1  0  0  0  0
  1 22  1  0  0  0  0
  2  4  1  0  0  0  0
  2 22  1  0  0  0  0
  3 22  1  0  0  0  0
  4  5  1  0  0  0  0
  4  6  1  0  0  0  0
  4  9  1  0  0  0  0
  7 20  1  0  0  0  0
  8 20  1  0  0  0  0
  9 10  1  0  0  0  0
  9 11  1  0  0  0  0
  9 12  1  0  0  0  0
 12 13  1  0  0  0  0
 12 17  2  0  0  0  0
 13 14  1  0  0  0  0
 13 15  1  0  0  0  0
 13 16  1  0  0  0  0
 17 18  1  0  0  0  0
 17 19  1  0  0  0  0
 20 21  2  0  0  0  0
 22 23  2  0  0  0  0
M  BCL ATM O_Tr2TrTrPi2 O_Tr2TrTrPi2 O_Te2Te2TeTe C_TeTeTeTe H_S H_S O_Te2Te2TeTe O_Te2Te2Te2Te C_TeTeTeTe H_S H_S C_TrTrTrPi C_TeTeTeTe H_S H_S H_S C_TrTrTrPi H_S H_S P_TeTeTeTePi O_Tr2Tr2TrPi P_TeTeTeTePi O_Tr2Tr2TrPi
M  BCL BND ConjugatedSingleBond ConjugatedSingleBond NonConjugatedSingleBond ConjugatedSingleBond ConjugatedSingleBond NonConjugatedSingleBond NonConjugatedSingleBond NonConjugatedSingleBond ConjugatedSingleBond ConjugatedSingleBond NonConjugatedSingleBond NonConjugatedSingleBond NonConjugatedSingleBond NonConjugatedSingleBond ConjugatedDoubleBond NonConjugatedSingleBond NonConjugatedSingleBond NonConjugatedSingleBond NonConjugatedSingleBond NonConjugatedSingleBond ConjugatedDoubleBond ConjugatedDoubleBond
M  BCL CHI  20   R  22   S
M  BCL DBI - - -
M  END
> <ConfClashScore>
0 

> <ConfOneFourInteractionScore>
-0.98644 

> <ConfScore>
-0.0957048 

> <ConfScorePBest>
0.00644647 

> <ConfTolerance>
0.936331 

$$$$
L07.****
  PyMOL2.5          3D                             0

 23 22  0  0  0  0  0  0  0  0999 V2000
   14.9779   -1.4888    0.9405 O   0  0  0  1  0  0  0  0  0  0  0  0
   15.5386   -3.7615    0.7431 O   0  0  0  1  0  0  0  0  0  0  0  0
   17.1578   -2.2546    2.0210 O   0  0  0  0  0  0  0  0  0  0  0  0
   14.8176   -4.2921    1.8851 C   0  0  0  1  0  0  0  0  0  0  0  0
   14.3441   -3.4951    2.4195 H   0  0  0  1  0  0  0  0  0  0  0  0
   15.4935   -4.8064    2.5360 H   0  0  0  1  0  0  0  0  0  0  0  0
   13.0211    0.2894    0.4523 O   0  0  0  0  0  0  0  0  0  0  0  0
   14.8725   -0.0827   -1.3210 O   0  5  0  1  0  0  0  0  0  0  0  0
   13.7684   -5.2584    1.3602 C   0  0  0  1  0  0  0  0  0  0  0  0
   13.1695   -5.5769    2.1878 H   0  0  0  1  0  0  0  0  0  0  0  0
   14.2765   -6.1018    0.9415 H   0  0  0  1  0  0  0  0  0  0  0  0
   12.8482   -4.7021    0.3086 C   0  0  0  1  0  0  0  0  0  0  0  0
   11.7243   -5.6133   -0.0879 C   0  0  0  1  0  0  0  0  0  0  0  0
   12.1089   -6.4193   -0.6773 H   0  0  0  1  0  0  0  0  0  0  0  0
   11.0056   -5.0647   -0.6600 H   0  0  0  1  0  0  0  0  0  0  0  0
   11.2568   -6.0059    0.7909 H   0  0  0  1  0  0  0  0  0  0  0  0
   13.0417   -3.4941   -0.2098 C   0  0  0  1  0  0  0  0  0  0  0  0
   13.8376   -2.9101    0.1176 H   0  0  0  1  0  0  0  0  0  0  0  0
   12.3980   -3.1328   -0.9424 H   0  0  0  1  0  0  0  0  0  0  0  0
   14.6200   -0.0317    0.2784 P   0  0  0  1  0  0  0  0  0  0  0  0
   15.4475    0.9527    1.0109 O   0  0  0  1  0  0  0  0  0  0  0  0
   16.3505   -2.3493    0.7794 P   0  0  0  1  0  0  0  0  0  0  0  0
   16.9874   -2.0859   -0.5303 O   0  0  0  1  0  0  0  0  0  0  0  0
  1 20  1  0  0  0  0
  1 22  1  0  0  0  0
  2  4  1  0  0  0  0
  2 22  1  0  0  0  0
  3 22  1  0  0  0  0
  4  5  1  0  0  0  0
  4  6  1  0  0  0  0
  4  9  1  0  0  0  0
  7 20  1  0  0  0  0
  8 20  1  0  0  0  0
  9 10  1  0  0  0  0
  9 11  1  0  0  0  0
  9 12  1  0  0  0  0
 12 13  1  0  0  0  0
 12 17  2  0  0  0  0
 13 14  1  0  0  0  0
 13 15  1  0  0  0  0
 13 16  1  0  0  0  0
 17 18  1  0  0  0  0
 17 19  1  0  0  0  0
 20 21  2  0  0  0  0
 22 23  2  0  0  0  0
M  BCL ATM O_Tr2TrTrPi2 O_Tr2TrTrPi2 O_Te2Te2TeTe C_TeTeTeTe H_S H_S O_Te2Te2TeTe O_Te2Te2Te2Te C_TeTeTeTe H_S H_S C_TrTrTrPi C_TeTeTeTe H_S H_S H_S C_TrTrTrPi H_S H_S P_TeTeTeTePi O_Tr2Tr2TrPi P_TeTeTeTePi O_Tr2Tr2TrPi
M  BCL BND ConjugatedSingleBond ConjugatedSingleBond NonConjugatedSingleBond ConjugatedSingleBond ConjugatedSingleBond NonConjugatedSingleBond NonConjugatedSingleBond NonConjugatedSingleBond ConjugatedSingleBond ConjugatedSingleBond NonConjugatedSingleBond NonConjugatedSingleBond NonConjugatedSingleBond NonConjugatedSingleBond ConjugatedDoubleBond NonConjugatedSingleBond NonConjugatedSingleBond NonConjugatedSingleBond NonConjugatedSingleBond NonConjugatedSingleBond ConjugatedDoubleBond ConjugatedDoubleBond
M  BCL CHI  20   R  22   S
M  BCL DBI - - -
M  END
> <ConfClashScore>
2.46781e-05 

> <ConfOneFourInteractionScore>
-0.981767 

> <ConfScore>
-0.092943 

> <ConfScorePBest>
0.00634346 

> <ConfTolerance>
0.926236 

$$$$
L07.****
  PyMOL2.5          3D                             0

 23 22  0  0  0  0  0  0  0  0999 V2000
   18.1659   -7.2695   -2.2129 O   0  0  0  1  0  0  0  0  0  0  0  0
   15.7706   -6.9404   -1.3596 O   0  0  0  1  0  0  0  0  0  0  0  0
   17.4399   -5.1979   -0.8848 O   0  0  0  0  0  0  0  0  0  0  0  0
   14.6938   -6.5494   -0.4688 C   0  0  0  1  0  0  0  0  0  0  0  0
   15.0951   -6.2371    0.4727 H   0  0  0  1  0  0  0  0  0  0  0  0
   14.0284   -7.3736   -0.3178 H   0  0  0  1  0  0  0  0  0  0  0  0
   20.4095   -6.1028   -1.4989 O   0  0  0  0  0  0  0  0  0  0  0  0
   19.4024   -5.5323   -3.8005 O   0  5  0  1  0  0  0  0  0  0  0  0
   13.9498   -5.3964   -1.1225 C   0  0  0  1  0  0  0  0  0  0  0  0
   13.4657   -5.7712   -2.0000 H   0  0  0  1  0  0  0  0  0  0  0  0
   14.6691   -4.6547   -1.4006 H   0  0  0  1  0  0  0  0  0  0  0  0
   12.9064   -4.7326   -0.2642 C   0  0  0  1  0  0  0  0  0  0  0  0
   11.7252   -5.5960    0.0694 C   0  0  0  1  0  0  0  0  0  0  0  0
   12.0602   -6.4851    0.5615 H   0  0  0  1  0  0  0  0  0  0  0  0
   11.2106   -5.8593   -0.8310 H   0  0  0  1  0  0  0  0  0  0  0  0
   11.0625   -5.0592    0.7156 H   0  0  0  1  0  0  0  0  0  0  0  0
   13.0002   -3.4834    0.1757 C   0  0  0  1  0  0  0  0  0  0  0  0
   13.8049   -2.8908   -0.1123 H   0  0  0  1  0  0  0  0  0  0  0  0
   12.2698   -3.0979    0.8078 H   0  0  0  1  0  0  0  0  0  0  0  0
   19.6223   -6.7670   -2.7751 P   0  0  0  1  0  0  0  0  0  0  0  0
   20.4715   -7.7816   -3.4383 O   0  0  0  1  0  0  0  0  0  0  0  0
   17.3138   -6.6641   -0.9656 P   0  0  0  1  0  0  0  0  0  0  0  0
   17.7272   -7.4796    0.1615 O   0  0  0  1  0  0  0  0  0  0  0  0
  1 20  1  0  0  0  0
  1 22  1  0  0  0  0
  2  4  1  0  0  0  0
  2 22  1  0  0  0  0
  3 22  1  0  0  0  0
  4  5  1  0  0  0  0
  4  6  1  0  0  0  0
  4  9  1  0  0  0  0
  7 20  1  0  0  0  0
  8 20  1  0  0  0  0
  9 10  1  0  0  0  0
  9 11  1  0  0  0  0
  9 12  1  0  0  0  0
 12 13  1  0  0  0  0
 12 17  2  0  0  0  0
 13 14  1  0  0  0  0
 13 15  1  0  0  0  0
 13 16  1  0  0  0  0
 17 18  1  0  0  0  0
 17 19  1  0  0  0  0
 20 21  2  0  0  0  0
 22 23  2  0  0  0  0
M  BCL ATM O_Tr2TrTrPi2 O_Tr2TrTrPi2 O_Te2Te2TeTe C_TeTeTeTe H_S H_S O_Te2Te2TeTe O_Te2Te2Te2Te C_TeTeTeTe H_S H_S C_TrTrTrPi C_TeTeTeTe H_S H_S H_S C_TrTrTrPi H_S H_S P_TeTeTeTePi O_Tr2Tr2TrPi P_TeTeTeTePi O_Tr2Tr2TrPi
M  BCL BND ConjugatedSingleBond ConjugatedSingleBond NonConjugatedSingleBond ConjugatedSingleBond ConjugatedSingleBond NonConjugatedSingleBond NonConjugatedSingleBond NonConjugatedSingleBond ConjugatedSingleBond ConjugatedSingleBond NonConjugatedSingleBond NonConjugatedSingleBond NonConjugatedSingleBond NonConjugatedSingleBond ConjugatedDoubleBond NonConjugatedSingleBond NonConjugatedSingleBond NonConjugatedSingleBond NonConjugatedSingleBond NonConjugatedSingleBond ConjugatedDoubleBond ConjugatedDoubleBond
M  BCL CHI  20   R  22   S
M  BCL DBI - - -
M  END
> <ConfClashScore>
0 

> <ConfOneFourInteractionScore>
-0.992869 

> <ConfScore>
-0.0862827 

> <ConfScorePBest>
0.00624046 

> <ConfTolerance>
0.805555 

$$$$
L07.****
  PyMOL2.5          3D                             0

 23 22  0  0  0  0  0  0  0  0999 V2000
   14.9044   -4.4257    4.7042 O   0  0  0  1  0  0  0  0  0  0  0  0
   14.7703   -5.3104    2.3187 O   0  0  0  1  0  0  0  0  0  0  0  0
   13.1569   -6.0416    4.1267 O   0  0  0  0  0  0  0  0  0  0  0  0
   14.5411   -6.2858    1.2748 C   0  0  0  1  0  0  0  0  0  0  0  0
   13.7089   -6.9018    1.5448 H   0  0  0  1  0  0  0  0  0  0  0  0
   15.4143   -6.8941    1.1631 H   0  0  0  1  0  0  0  0  0  0  0  0
   14.8135   -2.3708    6.3691 O   0  0  0  0  0  0  0  0  0  0  0  0
   13.7573   -4.5952    7.1093 O   0  5  0  1  0  0  0  0  0  0  0  0
   14.2423   -5.5901   -0.0467 C   0  0  0  1  0  0  0  0  0  0  0  0
   14.1489   -6.3342   -0.8099 H   0  0  0  1  0  0  0  0  0  0  0  0
   15.0583   -4.9387   -0.2808 H   0  0  0  1  0  0  0  0  0  0  0  0
   12.9755   -4.7777   -0.0121 C   0  0  0  1  0  0  0  0  0  0  0  0
   11.7094   -5.5871    0.0092 C   0  0  0  1  0  0  0  0  0  0  0  0
   10.8653   -4.9297    0.0187 H   0  0  0  1  0  0  0  0  0  0  0  0
   11.6933   -6.2005    0.8858 H   0  0  0  1  0  0  0  0  0  0  0  0
   11.6683   -6.2074   -0.8617 H   0  0  0  1  0  0  0  0  0  0  0  0
   12.9516   -3.4492   -0.0007 C   0  0  0  1  0  0  0  0  0  0  0  0
   12.0418   -2.9462   -0.0274 H   0  0  0  1  0  0  0  0  0  0  0  0
   13.8420   -2.9129    0.0349 H   0  0  0  1  0  0  0  0  0  0  0  0
   13.9645   -3.6559    5.8058 P   0  0  0  1  0  0  0  0  0  0  0  0
   12.7416   -3.2489    5.0782 O   0  0  0  1  0  0  0  0  0  0  0  0
   14.6163   -5.7006    3.8353 P   0  0  0  1  0  0  0  0  0  0  0  0
   15.5636   -6.8210    4.1013 O   0  0  0  1  0  0  0  0  0  0  0  0
  1 20  1  0  0  0  0
  1 22  1  0  0  0  0
  2  4  1  0  0  0  0
  2 22  1  0  0  0  0
  3 22  1  0  0  0  0
  4  5  1  0  0  0  0
  4  6  1  0  0  0  0
  4  9  1  0  0  0  0
  7 20  1  0  0  0  0
  8 20  1  0  0  0  0
  9 10  1  0  0  0  0
  9 11  1  0  0  0  0
  9 12  1  0  0  0  0
 12 13  1  0  0  0  0
 12 17  2  0  0  0  0
 13 14  1  0  0  0  0
 13 15  1  0  0  0  0
 13 16  1  0  0  0  0
 17 18  1  0  0  0  0
 17 19  1  0  0  0  0
 20 21  2  0  0  0  0
 22 23  2  0  0  0  0
M  BCL ATM O_Tr2TrTrPi2 O_Tr2TrTrPi2 O_Te2Te2TeTe C_TeTeTeTe H_S H_S O_Te2Te2TeTe O_Te2Te2Te2Te C_TeTeTeTe H_S H_S C_TrTrTrPi C_TeTeTeTe H_S H_S H_S C_TrTrTrPi H_S H_S P_TeTeTeTePi O_Tr2Tr2TrPi P_TeTeTeTePi O_Tr2Tr2TrPi
M  BCL BND ConjugatedSingleBond ConjugatedSingleBond NonConjugatedSingleBond ConjugatedSingleBond ConjugatedSingleBond NonConjugatedSingleBond NonConjugatedSingleBond NonConjugatedSingleBond ConjugatedSingleBond ConjugatedSingleBond NonConjugatedSingleBond NonConjugatedSingleBond NonConjugatedSingleBond NonConjugatedSingleBond ConjugatedDoubleBond NonConjugatedSingleBond NonConjugatedSingleBond NonConjugatedSingleBond NonConjugatedSingleBond NonConjugatedSingleBond ConjugatedDoubleBond ConjugatedDoubleBond
M  BCL CHI  20   R  22   S
M  BCL DBI - - -
M  END
> <ConfClashScore>
0 

> <ConfOneFourInteractionScore>
-0.98644 

> <ConfScore>
-0.0850071 

> <ConfScorePBest>
0.00613746 

> <ConfTolerance>
0.752756 

$$$$
L07.****
  PyMOL2.5          3D                             0

 23 22  0  0  0  0  0  0  0  0999 V2000
   17.3579   -8.5761    0.6867 O   0  0  0  1  0  0  0  0  0  0  0  0
   15.3053   -7.3298    1.5856 O   0  0  0  1  0  0  0  0  0  0  0  0
   16.2444   -9.4485    2.7038 O   0  0  0  0  0  0  0  0  0  0  0  0
   14.4916   -6.7231    0.5532 C   0  0  0  1  0  0  0  0  0  0  0  0
   13.6727   -7.3671    0.3091 H   0  0  0  1  0  0  0  0  0  0  0  0
   15.0826   -6.5496   -0.3217 H   0  0  0  1  0  0  0  0  0  0  0  0
   19.9666   -8.3920    0.1671 O   0  0  0  0  0  0  0  0  0  0  0  0
   19.0936   -9.6293    2.2290 O   0  5  0  1  0  0  0  0  0  0  0  0
   13.9682   -5.4027    1.0944 C   0  0  0  1  0  0  0  0  0  0  0  0
   14.7958   -4.7301    1.1809 H   0  0  0  1  0  0  0  0  0  0  0  0
   13.5531   -5.5846    2.0637 H   0  0  0  1  0  0  0  0  0  0  0  0
   12.9124   -4.7344    0.2550 C   0  0  0  1  0  0  0  0  0  0  0  0
   11.7170   -5.5919   -0.0523 C   0  0  0  1  0  0  0  0  0  0  0  0
   12.0316   -6.4662   -0.5828 H   0  0  0  1  0  0  0  0  0  0  0  0
   11.0269   -5.0386   -0.6544 H   0  0  0  1  0  0  0  0  0  0  0  0
   11.2415   -5.8812    0.8615 H   0  0  0  1  0  0  0  0  0  0  0  0
   13.0059   -3.4874   -0.1909 C   0  0  0  1  0  0  0  0  0  0  0  0
   13.8688   -2.9353   -0.0113 H   0  0  0  1  0  0  0  0  0  0  0  0
   12.2171   -3.0630   -0.7192 H   0  0  0  1  0  0  0  0  0  0  0  0
   18.8323   -8.2953    1.3477 P   0  0  0  1  0  0  0  0  0  0  0  0
   18.8037   -7.1034    2.2245 O   0  0  0  1  0  0  0  0  0  0  0  0
   15.9201   -8.8147    1.3922 P   0  0  0  1  0  0  0  0  0  0  0  0
   14.9660   -9.5097    0.4969 O   0  0  0  1  0  0  0  0  0  0  0  0
  1 20  1  0  0  0  0
  1 22  1  0  0  0  0
  2  4  1  0  0  0  0
  2 22  1  0  0  0  0
  3 22  1  0  0  0  0
  4  5  1  0  0  0  0
  4  6  1  0  0  0  0
  4  9  1  0  0  0  0
  7 20  1  0  0  0  0
  8 20  1  0  0  0  0
  9 10  1  0  0  0  0
  9 11  1  0  0  0  0
  9 12  1  0  0  0  0
 12 13  1  0  0  0  0
 12 17  2  0  0  0  0
 13 14  1  0  0  0  0
 13 15  1  0  0  0  0
 13 16  1  0  0  0  0
 17 18  1  0  0  0  0
 17 19  1  0  0  0  0
 20 21  2  0  0  0  0
 22 23  2  0  0  0  0
M  BCL ATM O_Tr2TrTrPi2 O_Tr2TrTrPi2 O_Te2Te2TeTe C_TeTeTeTe H_S H_S O_Te2Te2TeTe O_Te2Te2Te2Te C_TeTeTeTe H_S H_S C_TrTrTrPi C_TeTeTeTe H_S H_S H_S C_TrTrTrPi H_S H_S P_TeTeTeTePi O_Tr2Tr2TrPi P_TeTeTeTePi O_Tr2Tr2TrPi
M  BCL BND ConjugatedSingleBond ConjugatedSingleBond NonConjugatedSingleBond ConjugatedSingleBond ConjugatedSingleBond NonConjugatedSingleBond NonConjugatedSingleBond NonConjugatedSingleBond ConjugatedSingleBond ConjugatedSingleBond NonConjugatedSingleBond NonConjugatedSingleBond NonConjugatedSingleBond NonConjugatedSingleBond ConjugatedDoubleBond NonConjugatedSingleBond NonConjugatedSingleBond NonConjugatedSingleBond NonConjugatedSingleBond NonConjugatedSingleBond ConjugatedDoubleBond ConjugatedDoubleBond
M  BCL CHI  20   R  22   S
M  BCL DBI - - -
M  END
> <ConfClashScore>
0 

> <ConfOneFourInteractionScore>
-0.98644 

> <ConfScore>
-0.0814436 

> <ConfScorePBest>
0.00603446 

> <ConfTolerance>
0.854274 

$$$$
L07.****
  PyMOL2.5          3D                             0

 23 22  0  0  0  0  0  0  0  0999 V2000
   10.9724   -5.8789    3.0063 O   0  0  0  1  0  0  0  0  0  0  0  0
   12.8283   -7.0152    1.8997 O   0  0  0  1  0  0  0  0  0  0  0  0
   10.8470   -8.4002    2.7010 O   0  0  0  0  0  0  0  0  0  0  0  0
   13.9451   -6.1003    2.0470 C   0  0  0  1  0  0  0  0  0  0  0  0
   14.8226   -6.6400    2.3360 H   0  0  0  1  0  0  0  0  0  0  0  0
   13.7177   -5.3643    2.7896 H   0  0  0  1  0  0  0  0  0  0  0  0
    9.4135   -3.7399    3.5162 O   0  0  0  0  0  0  0  0  0  0  0  0
   11.4771   -4.5197    5.0364 O   0  5  0  1  0  0  0  0  0  0  0  0
   14.1710   -5.4257    0.7003 C   0  0  0  1  0  0  0  0  0  0  0  0
   14.5068   -6.1636    0.0019 H   0  0  0  1  0  0  0  0  0  0  0  0
   14.9249   -4.6755    0.8174 H   0  0  0  1  0  0  0  0  0  0  0  0
   12.9306   -4.7763    0.1512 C   0  0  0  1  0  0  0  0  0  0  0  0
   11.6936   -5.5848    0.0464 C   0  0  0  1  0  0  0  0  0  0  0  0
   10.9895   -5.0805   -0.5819 H   0  0  0  1  0  0  0  0  0  0  0  0
   11.2711   -5.7176    1.0204 H   0  0  0  1  0  0  0  0  0  0  0  0
   11.9270   -6.5402   -0.3750 H   0  0  0  1  0  0  0  0  0  0  0  0
   12.9877   -3.4909   -0.2235 C   0  0  0  1  0  0  0  0  0  0  0  0
   12.1803   -3.0571   -0.7148 H   0  0  0  1  0  0  0  0  0  0  0  0
   13.8387   -2.9277   -0.0231 H   0  0  0  1  0  0  0  0  0  0  0  0
   10.2018   -5.0200    4.1717 P   0  0  0  1  0  0  0  0  0  0  0  0
    9.3576   -5.9199    4.9890 O   0  0  0  1  0  0  0  0  0  0  0  0
   11.7683   -7.2689    3.0346 P   0  0  0  1  0  0  0  0  0  0  0  0
   12.5233   -7.3987    4.3215 O   0  0  0  1  0  0  0  0  0  0  0  0
  1 20  1  0  0  0  0
  1 22  1  0  0  0  0
  2  4  1  0  0  0  0
  2 22  1  0  0  0  0
  3 22  1  0  0  0  0
  4  5  1  0  0  0  0
  4  6  1  0  0  0  0
  4  9  1  0  0  0  0
  7 20  1  0  0  0  0
  8 20  1  0  0  0  0
  9 10  1  0  0  0  0
  9 11  1  0  0  0  0
  9 12  1  0  0  0  0
 12 13  1  0  0  0  0
 12 17  2  0  0  0  0
 13 14  1  0  0  0  0
 13 15  1  0  0  0  0
 13 16  1  0  0  0  0
 17 18  1  0  0  0  0
 17 19  1  0  0  0  0
 20 21  2  0  0  0  0
 22 23  2  0  0  0  0
M  BCL ATM O_Tr2TrTrPi2 O_Tr2TrTrPi2 O_Te2Te2TeTe C_TeTeTeTe H_S H_S O_Te2Te2TeTe O_Te2Te2Te2Te C_TeTeTeTe H_S H_S C_TrTrTrPi C_TeTeTeTe H_S H_S H_S C_TrTrTrPi H_S H_S P_TeTeTeTePi O_Tr2Tr2TrPi P_TeTeTeTePi O_Tr2Tr2TrPi
M  BCL BND ConjugatedSingleBond ConjugatedSingleBond NonConjugatedSingleBond ConjugatedSingleBond ConjugatedSingleBond NonConjugatedSingleBond NonConjugatedSingleBond NonConjugatedSingleBond ConjugatedSingleBond ConjugatedSingleBond NonConjugatedSingleBond NonConjugatedSingleBond NonConjugatedSingleBond NonConjugatedSingleBond ConjugatedDoubleBond NonConjugatedSingleBond NonConjugatedSingleBond NonConjugatedSingleBond NonConjugatedSingleBond NonConjugatedSingleBond ConjugatedDoubleBond ConjugatedDoubleBond
M  BCL CHI  20   R  22   S
M  BCL DBI - - -
M  END
> <ConfClashScore>
0 

> <ConfOneFourInteractionScore>
-0.98644 

> <ConfScore>
-0.0814282 

> <ConfScorePBest>
0.00593146 

> <ConfTolerance>
0.868278 

$$$$
L07.****
  PyMOL2.5          3D                             0

 23 22  0  0  0  0  0  0  0  0999 V2000
   15.6663   -8.3076    0.8850 O   0  0  0  1  0  0  0  0  0  0  0  0
   15.1480   -6.5518    2.6313 O   0  0  0  1  0  0  0  0  0  0  0  0
   16.7993   -8.3868    3.0549 O   0  0  0  0  0  0  0  0  0  0  0  0
   13.8894   -5.9945    2.1717 C   0  0  0  1  0  0  0  0  0  0  0  0
   13.5784   -5.2078    2.8269 H   0  0  0  1  0  0  0  0  0  0  0  0
   13.1398   -6.7576    2.1487 H   0  0  0  1  0  0  0  0  0  0  0  0
   15.3774   -8.3914   -1.6268 O   0  0  0  0  0  0  0  0  0  0  0  0
   13.2736   -7.9319   -0.0460 O   0  5  0  1  0  0  0  0  0  0  0  0
   14.1118   -5.4450    0.7721 C   0  0  0  1  0  0  0  0  0  0  0  0
   14.3800   -6.2620    0.1355 H   0  0  0  1  0  0  0  0  0  0  0  0
   14.9209   -4.7462    0.8166 H   0  0  0  1  0  0  0  0  0  0  0  0
   12.9283   -4.7466    0.1576 C   0  0  0  1  0  0  0  0  0  0  0  0
   11.6882   -5.5848    0.0554 C   0  0  0  1  0  0  0  0  0  0  0  0
   11.8632   -6.4013   -0.6138 H   0  0  0  1  0  0  0  0  0  0  0  0
   10.8829   -4.9861   -0.3158 H   0  0  0  1  0  0  0  0  0  0  0  0
   11.4342   -5.9650    1.0228 H   0  0  0  1  0  0  0  0  0  0  0  0
   13.0067   -3.4862   -0.2523 C   0  0  0  1  0  0  0  0  0  0  0  0
   12.1910   -3.0404   -0.7186 H   0  0  0  1  0  0  0  0  0  0  0  0
   13.8831   -2.9453   -0.1074 H   0  0  0  1  0  0  0  0  0  0  0  0
   14.6046   -8.8327   -0.2493 P   0  0  0  1  0  0  0  0  0  0  0  0
   14.3240  -10.2852   -0.2044 O   0  0  0  1  0  0  0  0  0  0  0  0
   15.4767   -8.0772    2.4286 P   0  0  0  1  0  0  0  0  0  0  0  0
   14.3333   -8.8364    2.9601 O   0  0  0  1  0  0  0  0  0  0  0  0
  1 20  1  0  0  0  0
  1 22  1  0  0  0  0
  2  4  1  0  0  0  0
  2 22  1  0  0  0  0
  3 22  1  0  0  0  0
  4  5  1  0  0  0  0
  4  6  1  0  0  0  0
  4  9  1  0  0  0  0
  7 20  1  0  0  0  0
  8 20  1  0  0  0  0
  9 10  1  0  0  0  0
  9 11  1  0  0  0  0
  9 12  1  0  0  0  0
 12 13  1  0  0  0  0
 12 17  2  0  0  0  0
 13 14  1  0  0  0  0
 13 15  1  0  0  0  0
 13 16  1  0  0  0  0
 17 18  1  0  0  0  0
 17 19  1  0  0  0  0
 20 21  2  0  0  0  0
 22 23  2  0  0  0  0
M  BCL ATM O_Tr2TrTrPi2 O_Tr2TrTrPi2 O_Te2Te2TeTe C_TeTeTeTe H_S H_S O_Te2Te2TeTe O_Te2Te2Te2Te C_TeTeTeTe H_S H_S C_TrTrTrPi C_TeTeTeTe H_S H_S H_S C_TrTrTrPi H_S H_S P_TeTeTeTePi O_Tr2Tr2TrPi P_TeTeTeTePi O_Tr2Tr2TrPi
M  BCL BND ConjugatedSingleBond ConjugatedSingleBond NonConjugatedSingleBond ConjugatedSingleBond ConjugatedSingleBond NonConjugatedSingleBond NonConjugatedSingleBond NonConjugatedSingleBond ConjugatedSingleBond ConjugatedSingleBond NonConjugatedSingleBond NonConjugatedSingleBond NonConjugatedSingleBond NonConjugatedSingleBond ConjugatedDoubleBond NonConjugatedSingleBond NonConjugatedSingleBond NonConjugatedSingleBond NonConjugatedSingleBond NonConjugatedSingleBond ConjugatedDoubleBond ConjugatedDoubleBond
M  BCL CHI  20   R  22   S
M  BCL DBI - - -
M  END
> <ConfClashScore>
0 

> <ConfOneFourInteractionScore>
-0.992869 

> <ConfScore>
-0.0800768 

> <ConfScorePBest>
0.00582846 

> <ConfTolerance>
1.09086 

$$$$
L07.****
  PyMOL2.5          3D                             0

 23 22  0  0  0  0  0  0  0  0999 V2000
   14.0148   -7.9469    2.6941 O   0  0  0  1  0  0  0  0  0  0  0  0
   15.1060   -6.1820    1.4079 O   0  0  0  1  0  0  0  0  0  0  0  0
   15.2516   -6.1126    3.9515 O   0  0  0  0  0  0  0  0  0  0  0  0
   14.5374   -6.6806    0.1705 C   0  0  0  1  0  0  0  0  0  0  0  0
   13.6754   -7.2788    0.3805 H   0  0  0  1  0  0  0  0  0  0  0  0
   15.2620   -7.2694   -0.3523 H   0  0  0  1  0  0  0  0  0  0  0  0
   16.3390   -9.2728    2.9979 O   0  0  0  0  0  0  0  0  0  0  0  0
   15.1885   -9.1259    0.6381 O   0  5  0  1  0  0  0  0  0  0  0  0
   14.1402   -5.4769   -0.6740 C   0  0  0  1  0  0  0  0  0  0  0  0
   13.9224   -5.8138   -1.6660 H   0  0  0  1  0  0  0  0  0  0  0  0
   14.9632   -4.7937   -0.7015 H   0  0  0  1  0  0  0  0  0  0  0  0
   12.9341   -4.7529   -0.1383 C   0  0  0  1  0  0  0  0  0  0  0  0
   11.6908   -5.5880   -0.0444 C   0  0  0  1  0  0  0  0  0  0  0  0
   11.8952   -6.4702    0.5256 H   0  0  0  1  0  0  0  0  0  0  0  0
   11.3723   -5.8649   -1.0277 H   0  0  0  1  0  0  0  0  0  0  0  0
   10.9183   -5.0244    0.4358 H   0  0  0  1  0  0  0  0  0  0  0  0
   12.9968   -3.4747    0.2153 C   0  0  0  1  0  0  0  0  0  0  0  0
   12.1524   -2.9983    0.5916 H   0  0  0  1  0  0  0  0  0  0  0  0
   13.8894   -2.9504    0.1161 H   0  0  0  1  0  0  0  0  0  0  0  0
   14.8922   -9.2510    2.2259 P   0  0  0  1  0  0  0  0  0  0  0  0
   14.1487  -10.5269    2.3242 O   0  0  0  1  0  0  0  0  0  0  0  0
   14.3593   -6.3847    2.7781 P   0  0  0  1  0  0  0  0  0  0  0  0
   13.1042   -5.5837    2.7159 O   0  0  0  1  0  0  0  0  0  0  0  0
  1 20  1  0  0  0  0
  1 22  1  0  0  0  0
  2  4  1  0  0  0  0
  2 22  1  0  0  0  0
  3 22  1  0  0  0  0
  4  5  1  0  0  0  0
  4  6  1  0  0  0  0
  4  9  1  0  0  0  0
  7 20  1  0  0  0  0
  8 20  1  0  0  0  0
  9 10  1  0  0  0  0
  9 11  1  0  0  0  0
  9 12  1  0  0  0  0
 12 13  1  0  0  0  0
 12 17  2  0  0  0  0
 13 14  1  0  0  0  0
 13 15  1  0  0  0  0
 13 16  1  0  0  0  0
 17 18  1  0  0  0  0
 17 19  1  0  0  0  0
 20 21  2  0  0  0  0
 22 23  2  0  0  0  0
M  BCL ATM O_Tr2TrTrPi2 O_Tr2TrTrPi2 O_Te2Te2TeTe C_TeTeTeTe H_S H_S O_Te2Te2TeTe O_Te2Te2Te2Te C_TeTeTeTe H_S H_S C_TrTrTrPi C_TeTeTeTe H_S H_S H_S C_TrTrTrPi H_S H_S P_TeTeTeTePi O_Tr2Tr2TrPi P_TeTeTeTePi O_Tr2Tr2TrPi
M  BCL BND ConjugatedSingleBond ConjugatedSingleBond NonConjugatedSingleBond ConjugatedSingleBond ConjugatedSingleBond NonConjugatedSingleBond NonConjugatedSingleBond NonConjugatedSingleBond ConjugatedSingleBond ConjugatedSingleBond NonConjugatedSingleBond NonConjugatedSingleBond NonConjugatedSingleBond NonConjugatedSingleBond ConjugatedDoubleBond NonConjugatedSingleBond NonConjugatedSingleBond NonConjugatedSingleBond NonConjugatedSingleBond NonConjugatedSingleBond ConjugatedDoubleBond ConjugatedDoubleBond
M  BCL CHI  20   R  22   S
M  BCL DBI - - -
M  END
> <ConfClashScore>
0 

> <ConfOneFourInteractionScore>
-0.98644 

> <ConfScore>
-0.0786104 

> <ConfScorePBest>
0.00572546 

> <ConfTolerance>
0.99286 

$$$$
L07.****
  PyMOL2.5          3D                             0

 23 22  0  0  0  0  0  0  0  0999 V2000
   16.8346   -6.3638    2.4662 O   0  0  0  1  0  0  0  0  0  0  0  0
   15.1376   -6.3508    0.6124 O   0  0  0  1  0  0  0  0  0  0  0  0
   16.7635   -8.2734    0.9088 O   0  0  0  0  0  0  0  0  0  0  0  0
   14.4662   -6.6509   -0.6376 C   0  0  0  1  0  0  0  0  0  0  0  0
   13.6750   -7.3508   -0.4673 H   0  0  0  1  0  0  0  0  0  0  0  0
   15.1639   -7.0635   -1.3361 H   0  0  0  1  0  0  0  0  0  0  0  0
   16.8165   -8.3849    4.0147 O   0  0  0  0  0  0  0  0  0  0  0  0
   17.8556   -6.0008    4.8185 O   0  5  0  1  0  0  0  0  0  0  0  0
   13.8972   -5.3470   -1.1815 C   0  0  0  1  0  0  0  0  0  0  0  0
   13.4330   -5.5453   -2.1249 H   0  0  0  1  0  0  0  0  0  0  0  0
   14.7018   -4.6549   -1.3178 H   0  0  0  1  0  0  0  0  0  0  0  0
   12.8773   -4.7220   -0.2676 C   0  0  0  1  0  0  0  0  0  0  0  0
   11.7154   -5.6072    0.0751 C   0  0  0  1  0  0  0  0  0  0  0  0
   12.0685   -6.4775    0.5877 H   0  0  0  1  0  0  0  0  0  0  0  0
   11.2144   -5.9015   -0.8234 H   0  0  0  1  0  0  0  0  0  0  0  0
   11.0348   -5.0739    0.7053 H   0  0  0  1  0  0  0  0  0  0  0  0
   13.0226   -3.4809    0.1839 C   0  0  0  1  0  0  0  0  0  0  0  0
   13.8406   -2.9123   -0.1148 H   0  0  0  1  0  0  0  0  0  0  0  0
   12.3189   -3.0783    0.8354 H   0  0  0  1  0  0  0  0  0  0  0  0
   17.7424   -7.0890    3.6236 P   0  0  0  1  0  0  0  0  0  0  0  0
   19.0517   -7.4183    3.0173 O   0  0  0  1  0  0  0  0  0  0  0  0
   16.6598   -6.8033    0.9311 P   0  0  0  1  0  0  0  0  0  0  0  0
   17.4773   -5.9566    0.0488 O   0  0  0  1  0  0  0  0  0  0  0  0
  1 20  1  0  0  0  0
  1 22  1  0  0  0  0
  2  4  1  0  0  0  0
  2 22  1  0  0  0  0
  3 22  1  0  0  0  0
  4  5  1  0  0  0  0
  4  6  1  0  0  0  0
  4  9  1  0  0  0  0
  7 20  1  0  0  0  0
  8 20  1  0  0  0  0
  9 10  1  0  0  0  0
  9 11  1  0  0  0  0
  9 12  1  0  0  0  0
 12 13  1  0  0  0  0
 12 17  2  0  0  0  0
 13 14  1  0  0  0  0
 13 15  1  0  0  0  0
 13 16  1  0  0  0  0
 17 18  1  0  0  0  0
 17 19  1  0  0  0  0
 20 21  2  0  0  0  0
 22 23  2  0  0  0  0
M  BCL ATM O_Tr2TrTrPi2 O_Tr2TrTrPi2 O_Te2Te2TeTe C_TeTeTeTe H_S H_S O_Te2Te2TeTe O_Te2Te2Te2Te C_TeTeTeTe H_S H_S C_TrTrTrPi C_TeTeTeTe H_S H_S H_S C_TrTrTrPi H_S H_S P_TeTeTeTePi O_Tr2Tr2TrPi P_TeTeTeTePi O_Tr2Tr2TrPi
M  BCL BND ConjugatedSingleBond ConjugatedSingleBond NonConjugatedSingleBond ConjugatedSingleBond ConjugatedSingleBond NonConjugatedSingleBond NonConjugatedSingleBond NonConjugatedSingleBond ConjugatedSingleBond ConjugatedSingleBond NonConjugatedSingleBond NonConjugatedSingleBond NonConjugatedSingleBond NonConjugatedSingleBond ConjugatedDoubleBond NonConjugatedSingleBond NonConjugatedSingleBond NonConjugatedSingleBond NonConjugatedSingleBond NonConjugatedSingleBond ConjugatedDoubleBond ConjugatedDoubleBond
M  BCL CHI  20   R  22   S
M  BCL DBI - - -
M  END
> <ConfClashScore>
0 

> <ConfOneFourInteractionScore>
-0.968935 

> <ConfScore>
-0.0725819 

> <ConfScorePBest>
0.00562246 

> <ConfTolerance>
0.891595 

$$$$
L07.****
  PyMOL2.5          3D                             0

 23 22  0  0  0  0  0  0  0  0999 V2000
   16.9725   -2.6302   -1.0657 O   0  0  0  1  0  0  0  0  0  0  0  0
   15.7067   -3.9173    0.6787 O   0  0  0  1  0  0  0  0  0  0  0  0
   15.2448   -1.3840    0.2496 O   0  0  0  0  0  0  0  0  0  0  0  0
   14.8379   -4.2634    1.7871 C   0  0  0  1  0  0  0  0  0  0  0  0
   14.3376   -3.3823    2.1310 H   0  0  0  1  0  0  0  0  0  0  0  0
   15.4263   -4.6730    2.5814 H   0  0  0  1  0  0  0  0  0  0  0  0
   15.0776   -2.3107   -2.9523 O   0  0  0  0  0  0  0  0  0  0  0  0
   15.6871   -4.6444   -2.0469 O   0  5  0  1  0  0  0  0  0  0  0  0
   13.7997   -5.2921    1.3490 C   0  0  0  1  0  0  0  0  0  0  0  0
   13.2293   -5.5995    2.2005 H   0  0  0  1  0  0  0  0  0  0  0  0
   14.3007   -6.1395    0.9298 H   0  0  0  1  0  0  0  0  0  0  0  0
   12.8714   -4.7077    0.3180 C   0  0  0  1  0  0  0  0  0  0  0  0
   11.7344   -5.6040   -0.0847 C   0  0  0  1  0  0  0  0  0  0  0  0
   12.1094   -6.4128   -0.6765 H   0  0  0  1  0  0  0  0  0  0  0  0
   11.0241   -5.0438   -0.6562 H   0  0  0  1  0  0  0  0  0  0  0  0
   11.2600   -5.9936    0.7917 H   0  0  0  1  0  0  0  0  0  0  0  0
   13.0236   -3.4978   -0.2097 C   0  0  0  1  0  0  0  0  0  0  0  0
   13.7995   -2.8848    0.1127 H   0  0  0  1  0  0  0  0  0  0  0  0
   12.3674   -3.1641   -0.9443 H   0  0  0  1  0  0  0  0  0  0  0  0
   16.3477   -3.2243   -2.4608 P   0  0  0  1  0  0  0  0  0  0  0  0
   17.3480   -3.3952   -3.5381 O   0  0  0  1  0  0  0  0  0  0  0  0
   16.2990   -2.4476    0.3828 P   0  0  0  1  0  0  0  0  0  0  0  0
   17.3531   -2.1069    1.3192 O   0  0  0  1  0  0  0  0  0  0  0  0
  1 20  1  0  0  0  0
  1 22  1  0  0  0  0
  2  4  1  0  0  0  0
  2 22  1  0  0  0  0
  3 22  1  0  0  0  0
  4  5  1  0  0  0  0
  4  6  1  0  0  0  0
  4  9  1  0  0  0  0
  7 20  1  0  0  0  0
  8 20  1  0  0  0  0
  9 10  1  0  0  0  0
  9 11  1  0  0  0  0
  9 12  1  0  0  0  0
 12 13  1  0  0  0  0
 12 17  2  0  0  0  0
 13 14  1  0  0  0  0
 13 15  1  0  0  0  0
 13 16  1  0  0  0  0
 17 18  1  0  0  0  0
 17 19  1  0  0  0  0
 20 21  2  0  0  0  0
 22 23  2  0  0  0  0
M  BCL ATM O_Tr2TrTrPi2 O_Tr2TrTrPi2 O_Te2Te2TeTe C_TeTeTeTe H_S H_S O_Te2Te2TeTe O_Te2Te2Te2Te C_TeTeTeTe H_S H_S C_TrTrTrPi C_TeTeTeTe H_S H_S H_S C_TrTrTrPi H_S H_S P_TeTeTeTePi O_Tr2Tr2TrPi P_TeTeTeTePi O_Tr2Tr2TrPi
M  BCL BND ConjugatedSingleBond ConjugatedSingleBond NonConjugatedSingleBond ConjugatedSingleBond ConjugatedSingleBond NonConjugatedSingleBond NonConjugatedSingleBond NonConjugatedSingleBond ConjugatedSingleBond ConjugatedSingleBond NonConjugatedSingleBond NonConjugatedSingleBond NonConjugatedSingleBond NonConjugatedSingleBond ConjugatedDoubleBond NonConjugatedSingleBond NonConjugatedSingleBond NonConjugatedSingleBond NonConjugatedSingleBond NonConjugatedSingleBond ConjugatedDoubleBond ConjugatedDoubleBond
M  BCL CHI  20   R  22   S
M  BCL DBI - - -
M  END
> <ConfClashScore>
0 

> <ConfOneFourInteractionScore>
-0.988196 

> <ConfScore>
-0.0615425 

> <ConfScorePBest>
0.00551946 

> <ConfTolerance>
1.04696 

$$$$
L07.****
  PyMOL2.5          3D                             0

 23 22  0  0  0  0  0  0  0  0999 V2000
   16.8238   -8.8959   -1.9772 O   0  0  0  1  0  0  0  0  0  0  0  0
   15.7463   -7.3286   -0.2576 O   0  0  0  1  0  0  0  0  0  0  0  0
   16.0930   -9.8409    0.1774 O   0  0  0  0  0  0  0  0  0  0  0  0
   14.5644   -6.6734    0.2597 C   0  0  0  1  0  0  0  0  0  0  0  0
   14.7705   -6.2977    1.2401 H   0  0  0  1  0  0  0  0  0  0  0  0
   13.7628   -7.3804    0.3093 H   0  0  0  1  0  0  0  0  0  0  0  0
   17.1141  -11.4408   -2.6837 O   0  0  0  0  0  0  0  0  0  0  0  0
   18.8769  -10.2326   -1.1937 O   0  5  0  1  0  0  0  0  0  0  0  0
   14.1583   -5.5175   -0.6452 C   0  0  0  1  0  0  0  0  0  0  0  0
   13.9289   -5.9082   -1.6146 H   0  0  0  1  0  0  0  0  0  0  0  0
   14.9813   -4.8378   -0.7197 H   0  0  0  1  0  0  0  0  0  0  0  0
   12.9589   -4.7636   -0.1364 C   0  0  0  1  0  0  0  0  0  0  0  0
   11.6963   -5.5742   -0.0503 C   0  0  0  1  0  0  0  0  0  0  0  0
   11.8801   -6.4624    0.5172 H   0  0  0  1  0  0  0  0  0  0  0  0
   11.3761   -5.8408   -1.0359 H   0  0  0  1  0  0  0  0  0  0  0  0
   10.9338   -4.9964    0.4289 H   0  0  0  1  0  0  0  0  0  0  0  0
   12.9880   -3.4826    0.2154 C   0  0  0  1  0  0  0  0  0  0  0  0
   12.1376   -3.0336    0.6114 H   0  0  0  1  0  0  0  0  0  0  0  0
   13.8604   -2.9295    0.0950 H   0  0  0  1  0  0  0  0  0  0  0  0
   17.9081  -10.0211   -2.4748 P   0  0  0  1  0  0  0  0  0  0  0  0
   18.5372   -9.5259   -3.7196 O   0  0  0  1  0  0  0  0  0  0  0  0
   15.6706   -8.8363   -0.8422 P   0  0  0  1  0  0  0  0  0  0  0  0
   14.3105   -8.9547   -1.4192 O   0  0  0  1  0  0  0  0  0  0  0  0
  1 20  1  0  0  0  0
  1 22  1  0  0  0  0
  2  4  1  0  0  0  0
  2 22  1  0  0  0  0
  3 22  1  0  0  0  0
  4  5  1  0  0  0  0
  4  6  1  0  0  0  0
  4  9  1  0  0  0  0
  7 20  1  0  0  0  0
  8 20  1  0  0  0  0
  9 10  1  0  0  0  0
  9 11  1  0  0  0  0
  9 12  1  0  0  0  0
 12 13  1  0  0  0  0
 12 17  2  0  0  0  0
 13 14  1  0  0  0  0
 13 15  1  0  0  0  0
 13 16  1  0  0  0  0
 17 18  1  0  0  0  0
 17 19  1  0  0  0  0
 20 21  2  0  0  0  0
 22 23  2  0  0  0  0
M  BCL ATM O_Tr2TrTrPi2 O_Tr2TrTrPi2 O_Te2Te2TeTe C_TeTeTeTe H_S H_S O_Te2Te2TeTe O_Te2Te2Te2Te C_TeTeTeTe H_S H_S C_TrTrTrPi C_TeTeTeTe H_S H_S H_S C_TrTrTrPi H_S H_S P_TeTeTeTePi O_Tr2Tr2TrPi P_TeTeTeTePi O_Tr2Tr2TrPi
M  BCL BND ConjugatedSingleBond ConjugatedSingleBond NonConjugatedSingleBond ConjugatedSingleBond ConjugatedSingleBond NonConjugatedSingleBond NonConjugatedSingleBond NonConjugatedSingleBond ConjugatedSingleBond ConjugatedSingleBond NonConjugatedSingleBond NonConjugatedSingleBond NonConjugatedSingleBond NonConjugatedSingleBond ConjugatedDoubleBond NonConjugatedSingleBond NonConjugatedSingleBond NonConjugatedSingleBond NonConjugatedSingleBond NonConjugatedSingleBond ConjugatedDoubleBond ConjugatedDoubleBond
M  BCL CHI  20   R  22   S
M  BCL DBI - - -
M  END
> <ConfClashScore>
0 

> <ConfOneFourInteractionScore>
-0.98644 

> <ConfScore>
-0.0588551 

> <ConfScorePBest>
0.00541646 

> <ConfTolerance>
0.982552 

$$$$
L07.****
  PyMOL2.5          3D                             0

 23 22  0  0  0  0  0  0  0  0999 V2000
    7.3475   -4.9554    1.4108 O   0  0  0  1  0  0  0  0  0  0  0  0
    9.2057   -3.6915    2.4088 O   0  0  0  1  0  0  0  0  0  0  0  0
    8.1391   -5.6437    3.6207 O   0  0  0  0  0  0  0  0  0  0  0  0
   10.3102   -4.4648    1.8837 C   0  0  0  1  0  0  0  0  0  0  0  0
    9.9566   -5.4097    1.5273 H   0  0  0  1  0  0  0  0  0  0  0  0
   11.0410   -4.6226    2.6492 H   0  0  0  1  0  0  0  0  0  0  0  0
    6.0272   -4.9906   -0.8497 O   0  0  0  0  0  0  0  0  0  0  0  0
    6.0211   -2.7991    0.6805 O   0  5  0  1  0  0  0  0  0  0  0  0
   10.9239   -3.6741    0.7357 C   0  0  0  1  0  0  0  0  0  0  0  0
   11.1720   -2.6956    1.0904 H   0  0  0  1  0  0  0  0  0  0  0  0
   10.2010   -3.5968   -0.0494 H   0  0  0  1  0  0  0  0  0  0  0  0
   12.1688   -4.3120    0.1795 C   0  0  0  1  0  0  0  0  0  0  0  0
   12.0568   -5.7878   -0.0812 C   0  0  0  1  0  0  0  0  0  0  0  0
   13.0214   -6.1816   -0.3252 H   0  0  0  1  0  0  0  0  0  0  0  0
   11.3863   -5.9556   -0.8980 H   0  0  0  1  0  0  0  0  0  0  0  0
   11.6831   -6.2770    0.7939 H   0  0  0  1  0  0  0  0  0  0  0  0
   13.2906   -3.6450   -0.0699 C   0  0  0  1  0  0  0  0  0  0  0  0
   13.3563   -2.6339    0.1645 H   0  0  0  1  0  0  0  0  0  0  0  0
   14.1021   -4.1336   -0.4993 H   0  0  0  1  0  0  0  0  0  0  0  0
    5.9775   -4.4186    0.6865 P   0  0  0  1  0  0  0  0  0  0  0  0
    4.8641   -5.1105    1.3734 O   0  0  0  1  0  0  0  0  0  0  0  0
    7.8237   -4.4129    2.8552 P   0  0  0  1  0  0  0  0  0  0  0  0
    6.8575   -3.4276    3.3925 O   0  0  0  1  0  0  0  0  0  0  0  0
  1 20  1  0  0  0  0
  1 22  1  0  0  0  0
  2  4  1  0  0  0  0
  2 22  1  0  0  0  0
  3 22  1  0  0  0  0
  4  5  1  0  0  0  0
  4  6  1  0  0  0  0
  4  9  1  0  0  0  0
  7 20  1  0  0  0  0
  8 20  1  0  0  0  0
  9 10  1  0  0  0  0
  9 11  1  0  0  0  0
  9 12  1  0  0  0  0
 12 13  1  0  0  0  0
 12 17  2  0  0  0  0
 13 14  1  0  0  0  0
 13 15  1  0  0  0  0
 13 16  1  0  0  0  0
 17 18  1  0  0  0  0
 17 19  1  0  0  0  0
 20 21  2  0  0  0  0
 22 23  2  0  0  0  0
M  BCL ATM O_Tr2TrTrPi2 O_Tr2TrTrPi2 O_Te2Te2TeTe C_TeTeTeTe H_S H_S O_Te2Te2TeTe O_Te2Te2Te2Te C_TeTeTeTe H_S H_S C_TrTrTrPi C_TeTeTeTe H_S H_S H_S C_TrTrTrPi H_S H_S P_TeTeTeTePi O_Tr2Tr2TrPi P_TeTeTeTePi O_Tr2Tr2TrPi
M  BCL BND ConjugatedSingleBond ConjugatedSingleBond NonConjugatedSingleBond ConjugatedSingleBond ConjugatedSingleBond NonConjugatedSingleBond NonConjugatedSingleBond NonConjugatedSingleBond ConjugatedSingleBond ConjugatedSingleBond NonConjugatedSingleBond NonConjugatedSingleBond NonConjugatedSingleBond NonConjugatedSingleBond ConjugatedDoubleBond NonConjugatedSingleBond NonConjugatedSingleBond NonConjugatedSingleBond NonConjugatedSingleBond NonConjugatedSingleBond ConjugatedDoubleBond ConjugatedDoubleBond
M  BCL CHI  20   R  22   S
M  BCL DBI - - -
M  END
> <ConfClashScore>
0 

> <ConfOneFourInteractionScore>
-0.968935 

> <ConfScore>
-0.0541589 

> <ConfScorePBest>
0.00531345 

> <ConfTolerance>
0.926169 

$$$$
L07.****
  PyMOL2.5          3D                             0

 23 22  0  0  0  0  0  0  0  0999 V2000
   15.7546   -5.4702    5.6211 O   0  0  0  1  0  0  0  0  0  0  0  0
   14.0890   -5.6563    3.7251 O   0  0  0  1  0  0  0  0  0  0  0  0
   15.1244   -3.4989    4.1576 O   0  0  0  0  0  0  0  0  0  0  0  0
   13.1285   -5.1656    2.7605 C   0  0  0  1  0  0  0  0  0  0  0  0
   12.8507   -4.1609    3.0016 H   0  0  0  1  0  0  0  0  0  0  0  0
   12.2579   -5.7877    2.7643 H   0  0  0  1  0  0  0  0  0  0  0  0
   16.9071   -7.2881    6.7435 O   0  0  0  0  0  0  0  0  0  0  0  0
   18.2751   -5.9149    5.0377 O   0  5  0  1  0  0  0  0  0  0  0  0
   13.7901   -5.2062    1.3861 C   0  0  0  1  0  0  0  0  0  0  0  0
   14.0812   -6.2122    1.1665 H   0  0  0  1  0  0  0  0  0  0  0  0
   14.6559   -4.5776    1.3948 H   0  0  0  1  0  0  0  0  0  0  0  0
   12.8406   -4.7238    0.3223 C   0  0  0  1  0  0  0  0  0  0  0  0
   11.7239   -5.6077   -0.0856 C   0  0  0  1  0  0  0  0  0  0  0  0
   12.1013   -6.4014   -0.6960 H   0  0  0  1  0  0  0  0  0  0  0  0
   11.0057   -5.0415   -0.6410 H   0  0  0  1  0  0  0  0  0  0  0  0
   11.2582   -6.0188    0.7857 H   0  0  0  1  0  0  0  0  0  0  0  0
   13.0385   -3.5134   -0.2177 C   0  0  0  1  0  0  0  0  0  0  0  0
   13.8310   -2.9234    0.1071 H   0  0  0  1  0  0  0  0  0  0  0  0
   12.4003   -3.1644   -0.9610 H   0  0  0  1  0  0  0  0  0  0  0  0
   16.8399   -6.6389    5.2390 P   0  0  0  1  0  0  0  0  0  0  0  0
   16.4495   -7.5671    4.1543 O   0  0  0  1  0  0  0  0  0  0  0  0
   14.5872   -4.6676    4.8835 P   0  0  0  1  0  0  0  0  0  0  0  0
   13.5402   -4.4922    5.9029 O   0  0  0  1  0  0  0  0  0  0  0  0
  1 20  1  0  0  0  0
  1 22  1  0  0  0  0
  2  4  1  0  0  0  0
  2 22  1  0  0  0  0
  3 22  1  0  0  0  0
  4  5  1  0  0  0  0
  4  6  1  0  0  0  0
  4  9  1  0  0  0  0
  7 20  1  0  0  0  0
  8 20  1  0  0  0  0
  9 10  1  0  0  0  0
  9 11  1  0  0  0  0
  9 12  1  0  0  0  0
 12 13  1  0  0  0  0
 12 17  2  0  0  0  0
 13 14  1  0  0  0  0
 13 15  1  0  0  0  0
 13 16  1  0  0  0  0
 17 18  1  0  0  0  0
 17 19  1  0  0  0  0
 20 21  2  0  0  0  0
 22 23  2  0  0  0  0
M  BCL ATM O_Tr2TrTrPi2 O_Tr2TrTrPi2 O_Te2Te2TeTe C_TeTeTeTe H_S H_S O_Te2Te2TeTe O_Te2Te2Te2Te C_TeTeTeTe H_S H_S C_TrTrTrPi C_TeTeTeTe H_S H_S H_S C_TrTrTrPi H_S H_S P_TeTeTeTePi O_Tr2Tr2TrPi P_TeTeTeTePi O_Tr2Tr2TrPi
M  BCL BND ConjugatedSingleBond ConjugatedSingleBond NonConjugatedSingleBond ConjugatedSingleBond ConjugatedSingleBond NonConjugatedSingleBond NonConjugatedSingleBond NonConjugatedSingleBond ConjugatedSingleBond ConjugatedSingleBond NonConjugatedSingleBond NonConjugatedSingleBond NonConjugatedSingleBond NonConjugatedSingleBond ConjugatedDoubleBond NonConjugatedSingleBond NonConjugatedSingleBond NonConjugatedSingleBond NonConjugatedSingleBond NonConjugatedSingleBond ConjugatedDoubleBond ConjugatedDoubleBond
M  BCL CHI  20   R  22   S
M  BCL DBI - - -
M  END
> <ConfClashScore>
0 

> <ConfOneFourInteractionScore>
-0.992869 

> <ConfScore>
-0.0406628 

> <ConfScorePBest>
0.00521045 

> <ConfTolerance>
1.05703 

$$$$
L07.****
  PyMOL2.5          3D                             0

 23 22  0  0  0  0  0  0  0  0999 V2000
   13.4192   -7.7867    4.4769 O   0  0  0  1  0  0  0  0  0  0  0  0
   12.8302   -6.6379    2.3227 O   0  0  0  1  0  0  0  0  0  0  0  0
   11.5360   -8.6541    3.1363 O   0  0  0  0  0  0  0  0  0  0  0  0
   14.0198   -5.8190    2.1911 C   0  0  0  1  0  0  0  0  0  0  0  0
   14.8780   -6.3676    2.5188 H   0  0  0  1  0  0  0  0  0  0  0  0
   13.9177   -4.9309    2.7791 H   0  0  0  1  0  0  0  0  0  0  0  0
   14.2377   -9.8290    5.9136 O   0  0  0  0  0  0  0  0  0  0  0  0
   14.9852   -7.4611    6.6004 O   0  5  0  1  0  0  0  0  0  0  0  0
   14.1688   -5.4529    0.7202 C   0  0  0  1  0  0  0  0  0  0  0  0
   14.3459   -6.3487    0.1625 H   0  0  0  1  0  0  0  0  0  0  0  0
   15.0069   -4.7958    0.6160 H   0  0  0  1  0  0  0  0  0  0  0  0
   12.9516   -4.7701    0.1562 C   0  0  0  1  0  0  0  0  0  0  0  0
   11.6885   -5.5732    0.0535 C   0  0  0  1  0  0  0  0  0  0  0  0
   11.8568   -6.4251   -0.5718 H   0  0  0  1  0  0  0  0  0  0  0  0
   10.9145   -4.9677   -0.3697 H   0  0  0  1  0  0  0  0  0  0  0  0
   11.3935   -5.8998    1.0289 H   0  0  0  1  0  0  0  0  0  0  0  0
   12.9944   -3.5015   -0.2366 C   0  0  0  1  0  0  0  0  0  0  0  0
   12.1528   -3.0604   -0.6594 H   0  0  0  1  0  0  0  0  0  0  0  0
   13.8686   -2.9501   -0.1213 H   0  0  0  1  0  0  0  0  0  0  0  0
   14.7075   -8.3834    5.2978 P   0  0  0  1  0  0  0  0  0  0  0  0
   15.9743   -8.5262    4.5459 O   0  0  0  1  0  0  0  0  0  0  0  0
   12.9016   -8.0977    3.0119 P   0  0  0  1  0  0  0  0  0  0  0  0
   13.9167   -8.8558    2.2492 O   0  0  0  1  0  0  0  0  0  0  0  0
  1 20  1  0  0  0  0
  1 22  1  0  0  0  0
  2  4  1  0  0  0  0
  2 22  1  0  0  0  0
  3 22  1  0  0  0  0
  4  5  1  0  0  0  0
  4  6  1  0  0  0  0
  4  9  1  0  0  0  0
  7 20  1  0  0  0  0
  8 20  1  0  0  0  0
  9 10  1  0  0  0  0
  9 11  1  0  0  0  0
  9 12  1  0  0  0  0
 12 13  1  0  0  0  0
 12 17  2  0  0  0  0
 13 14  1  0  0  0  0
 13 15  1  0  0  0  0
 13 16  1  0  0  0  0
 17 18  1  0  0  0  0
 17 19  1  0  0  0  0
 20 21  2  0  0  0  0
 22 23  2  0  0  0  0
M  BCL ATM O_Tr2TrTrPi2 O_Tr2TrTrPi2 O_Te2Te2TeTe C_TeTeTeTe H_S H_S O_Te2Te2TeTe O_Te2Te2Te2Te C_TeTeTeTe H_S H_S C_TrTrTrPi C_TeTeTeTe H_S H_S H_S C_TrTrTrPi H_S H_S P_TeTeTeTePi O_Tr2Tr2TrPi P_TeTeTeTePi O_Tr2Tr2TrPi
M  BCL BND ConjugatedSingleBond ConjugatedSingleBond NonConjugatedSingleBond ConjugatedSingleBond ConjugatedSingleBond NonConjugatedSingleBond NonConjugatedSingleBond NonConjugatedSingleBond ConjugatedSingleBond ConjugatedSingleBond NonConjugatedSingleBond NonConjugatedSingleBond NonConjugatedSingleBond NonConjugatedSingleBond ConjugatedDoubleBond NonConjugatedSingleBond NonConjugatedSingleBond NonConjugatedSingleBond NonConjugatedSingleBond NonConjugatedSingleBond ConjugatedDoubleBond ConjugatedDoubleBond
M  BCL CHI  20   R  22   S
M  BCL DBI - - -
M  END
> <ConfClashScore>
0 

> <ConfOneFourInteractionScore>
-0.98644 

> <ConfScore>
-0.0323737 

> <ConfScorePBest>
0.00510745 

> <ConfTolerance>
1.15036 

$$$$
L07.****
  PyMOL2.5          3D                             0

 23 22  0  0  0  0  0  0  0  0999 V2000
   15.0627   -5.2043   -4.5527 O   0  0  0  1  0  0  0  0  0  0  0  0
   14.7440   -4.4550   -2.1724 O   0  0  0  1  0  0  0  0  0  0  0  0
   12.7720   -4.6308   -3.8289 O   0  0  0  0  0  0  0  0  0  0  0  0
   14.7263   -5.7513   -1.5298 C   0  0  0  1  0  0  0  0  0  0  0  0
   15.7121   -6.1672   -1.5211 H   0  0  0  1  0  0  0  0  0  0  0  0
   14.0657   -6.4093   -2.0548 H   0  0  0  1  0  0  0  0  0  0  0  0
   12.9655   -5.5812   -6.1719 O   0  0  0  0  0  0  0  0  0  0  0  0
   14.2949   -7.5523   -5.0855 O   0  5  0  1  0  0  0  0  0  0  0  0
   14.2343   -5.5531   -0.1021 C   0  0  0  1  0  0  0  0  0  0  0  0
   14.9878   -5.0294    0.4482 H   0  0  0  1  0  0  0  0  0  0  0  0
   14.0731   -6.5144    0.3392 H   0  0  0  1  0  0  0  0  0  0  0  0
   12.9518   -4.7688   -0.0239 C   0  0  0  1  0  0  0  0  0  0  0  0
   11.7062   -5.6043    0.0107 C   0  0  0  1  0  0  0  0  0  0  0  0
   10.8489   -4.9657    0.0565 H   0  0  0  1  0  0  0  0  0  0  0  0
   11.7254   -6.2375    0.8730 H   0  0  0  1  0  0  0  0  0  0  0  0
   11.6558   -6.2057   -0.8729 H   0  0  0  1  0  0  0  0  0  0  0  0
   12.9551   -3.4349    0.0106 C   0  0  0  1  0  0  0  0  0  0  0  0
   12.0556   -2.9132   -0.0015 H   0  0  0  1  0  0  0  0  0  0  0  0
   13.8564   -2.9175    0.0496 H   0  0  0  1  0  0  0  0  0  0  0  0
   14.4722   -6.1044   -5.7900 P   0  0  0  1  0  0  0  0  0  0  0  0
   15.4391   -6.1022   -6.9105 O   0  0  0  1  0  0  0  0  0  0  0  0
   14.1893   -4.2718   -3.6175 P   0  0  0  1  0  0  0  0  0  0  0  0
   14.4330   -2.8357   -3.9363 O   0  0  0  1  0  0  0  0  0  0  0  0
  1 20  1  0  0  0  0
  1 22  1  0  0  0  0
  2  4  1  0  0  0  0
  2 22  1  0  0  0  0
  3 22  1  0  0  0  0
  4  5  1  0  0  0  0
  4  6  1  0  0  0  0
  4  9  1  0  0  0  0
  7 20  1  0  0  0  0
  8 20  1  0  0  0  0
  9 10  1  0  0  0  0
  9 11  1  0  0  0  0
  9 12  1  0  0  0  0
 12 13  1  0  0  0  0
 12 17  2  0  0  0  0
 13 14  1  0  0  0  0
 13 15  1  0  0  0  0
 13 16  1  0  0  0  0
 17 18  1  0  0  0  0
 17 19  1  0  0  0  0
 20 21  2  0  0  0  0
 22 23  2  0  0  0  0
M  BCL ATM O_Tr2TrTrPi2 O_Tr2TrTrPi2 O_Te2Te2TeTe C_TeTeTeTe H_S H_S O_Te2Te2TeTe O_Te2Te2Te2Te C_TeTeTeTe H_S H_S C_TrTrTrPi C_TeTeTeTe H_S H_S H_S C_TrTrTrPi H_S H_S P_TeTeTeTePi O_Tr2Tr2TrPi P_TeTeTeTePi O_Tr2Tr2TrPi
M  BCL BND ConjugatedSingleBond ConjugatedSingleBond NonConjugatedSingleBond ConjugatedSingleBond ConjugatedSingleBond NonConjugatedSingleBond NonConjugatedSingleBond NonConjugatedSingleBond ConjugatedSingleBond ConjugatedSingleBond NonConjugatedSingleBond NonConjugatedSingleBond NonConjugatedSingleBond NonConjugatedSingleBond ConjugatedDoubleBond NonConjugatedSingleBond NonConjugatedSingleBond NonConjugatedSingleBond NonConjugatedSingleBond NonConjugatedSingleBond ConjugatedDoubleBond ConjugatedDoubleBond
M  BCL CHI  20   R  22   S
M  BCL DBI - - -
M  END
> <ConfClashScore>
0 

> <ConfOneFourInteractionScore>
-0.976745 

> <ConfScore>
-0.0265688 

> <ConfScorePBest>
0.00500445 

> <ConfTolerance>
1.37722 

$$$$
L07.****
  PyMOL2.5          3D                             0

 23 22  0  0  0  0  0  0  0  0999 V2000
   15.2355   -3.7342   -3.6401 O   0  0  0  1  0  0  0  0  0  0  0  0
   13.3920   -5.1247   -3.0340 O   0  0  0  1  0  0  0  0  0  0  0  0
   14.9408   -5.9327   -4.8853 O   0  0  0  0  0  0  0  0  0  0  0  0
   13.7850   -6.1459   -2.0809 C   0  0  0  1  0  0  0  0  0  0  0  0
   14.6462   -6.6686   -2.4413 H   0  0  0  1  0  0  0  0  0  0  0  0
   12.9818   -6.8378   -1.9362 H   0  0  0  1  0  0  0  0  0  0  0  0
   16.7411   -3.0460   -5.7179 O   0  0  0  0  0  0  0  0  0  0  0  0
   17.8621   -4.1915   -3.6671 O   0  5  0  1  0  0  0  0  0  0  0  0
   14.1132   -5.4498   -0.7665 C   0  0  0  1  0  0  0  0  0  0  0  0
   14.8824   -4.7281   -0.9461 H   0  0  0  1  0  0  0  0  0  0  0  0
   14.4664   -6.1830   -0.0718 H   0  0  0  1  0  0  0  0  0  0  0  0
   12.9285   -4.7465   -0.1598 C   0  0  0  1  0  0  0  0  0  0  0  0
   11.6918   -5.5912   -0.0355 C   0  0  0  1  0  0  0  0  0  0  0  0
   11.9045   -6.4495    0.5669 H   0  0  0  1  0  0  0  0  0  0  0  0
   11.3768   -5.9074   -1.0079 H   0  0  0  1  0  0  0  0  0  0  0  0
   10.9134   -5.0180    0.4232 H   0  0  0  1  0  0  0  0  0  0  0  0
   13.0017   -3.4771    0.2259 C   0  0  0  1  0  0  0  0  0  0  0  0
   12.1487   -2.9875    0.5641 H   0  0  0  1  0  0  0  0  0  0  0  0
   13.9109   -2.9737    0.1896 H   0  0  0  1  0  0  0  0  0  0  0  0
   16.6998   -3.1418   -4.0812 P   0  0  0  1  0  0  0  0  0  0  0  0
   17.0258   -1.7714   -3.6270 O   0  0  0  1  0  0  0  0  0  0  0  0
   14.2163   -4.7696   -4.2556 P   0  0  0  1  0  0  0  0  0  0  0  0
   13.3686   -3.9680   -5.1391 O   0  0  0  1  0  0  0  0  0  0  0  0
  1 20  1  0  0  0  0
  1 22  1  0  0  0  0
  2  4  1  0  0  0  0
  2 22  1  0  0  0  0
  3 22  1  0  0  0  0
  4  5  1  0  0  0  0
  4  6  1  0  0  0  0
  4  9  1  0  0  0  0
  7 20  1  0  0  0  0
  8 20  1  0  0  0  0
  9 10  1  0  0  0  0
  9 11  1  0  0  0  0
  9 12  1  0  0  0  0
 12 13  1  0  0  0  0
 12 17  2  0  0  0  0
 13 14  1  0  0  0  0
 13 15  1  0  0  0  0
 13 16  1  0  0  0  0
 17 18  1  0  0  0  0
 17 19  1  0  0  0  0
 20 21  2  0  0  0  0
 22 23  2  0  0  0  0
M  BCL ATM O_Tr2TrTrPi2 O_Tr2TrTrPi2 O_Te2Te2TeTe C_TeTeTeTe H_S H_S O_Te2Te2TeTe O_Te2Te2Te2Te C_TeTeTeTe H_S H_S C_TrTrTrPi C_TeTeTeTe H_S H_S H_S C_TrTrTrPi H_S H_S P_TeTeTeTePi O_Tr2Tr2TrPi P_TeTeTeTePi O_Tr2Tr2TrPi
M  BCL BND ConjugatedSingleBond ConjugatedSingleBond NonConjugatedSingleBond ConjugatedSingleBond ConjugatedSingleBond NonConjugatedSingleBond NonConjugatedSingleBond NonConjugatedSingleBond ConjugatedSingleBond ConjugatedSingleBond NonConjugatedSingleBond NonConjugatedSingleBond NonConjugatedSingleBond NonConjugatedSingleBond ConjugatedDoubleBond NonConjugatedSingleBond NonConjugatedSingleBond NonConjugatedSingleBond NonConjugatedSingleBond NonConjugatedSingleBond ConjugatedDoubleBond ConjugatedDoubleBond
M  BCL CHI  20   R  22   S
M  BCL DBI - - -
M  END
> <ConfClashScore>
0 

> <ConfOneFourInteractionScore>
-0.968935 

> <ConfScore>
-0.00660683 

> <ConfScorePBest>
0.00490145 

> <ConfTolerance>
1.83431 

$$$$
