# created with PyMOL 2.5.2
@<TRIPOS>MOLECULE
L08
16 16 1                 
SMALL
USER_CHARGES
@<TRIPOS>ATOM
1	   C	11.855	-4.673	0.000	C.3	1	UNK0	0.000	
2	   C	11.071	-4.418	0.000	C.3	1	UNK0	0.000	
3	   C	11.071	-3.593	0.000	C.3	1	UNK0	0.000	
4	   O	12.110	-5.457	0.000	O.3	1	UNK0	0.000	
5	   O	10.403	-4.903	0.000	O.3	1	UNK0	0.000	
6	   O	11.855	-3.338	0.000	O.3	1	UNK0	0.000	
7	   C	10.403	-3.108	0.000	C.3	1	UNK0	0.000	
8	   C	13.054	-4.418	0.000	C.3	1	UNK0	0.000	
9	   O	13.769	-4.005	0.000	O.3	1	UNK0	0.000	
10	   C	12.340	-4.005	0.000	C.3	1	UNK0	0.000	
11	   O	13.054	-3.593	0.000	O.3	1	UNK0	0.000	
12	   O	9.649	-3.444	0.000	O.3	1	UNK0	0.000	
13	   O	8.221	-3.444	0.000	O.co2	1	UNK0	0.000	
14	   O	8.935	-3.856	0.000	O.co2	1	UNK0	0.000	
15	   P	8.935	-3.031	0.000	P.3	1	UNK0	0.000	
16	   O	8.935	-2.206	0.000	O.co2	1	UNK0	0.000	
@<TRIPOS>BOND
1 1 2 1
2 1 4 1
3 2 3 1
4 2 5 1
5 3 6 1
6 3 7 1
7 7 12 1
8 8 9 1
9 1 10 1
10 6 10 1
11 8 10 1
12 10 11 1
13 12 15 1
14 13 15 1
15 14 15 1
16 15 16 2
@<TRIPOS>SUBSTRUCTURE
1	UNK0	1	GROUP	1 ****	UNK
