L08.****
  PyMOL2.5          3D                             0

 27 27  0  0  0  0  0  0  0  0999 V2000
   11.8550   -4.6730    0.0000 C   0  0  0  0  0  0  0  0  0  0  0  0
   11.8550   -4.6730   -1.0900 H   0  0  0  0  0  0  0  0  0  0  0  0
   11.0710   -4.4180    0.0000 C   0  0  0  0  0  0  0  0  0  0  0  0
   11.0710   -4.4180   -1.0900 H   0  0  0  0  0  0  0  0  0  0  0  0
   11.0710   -3.5930    0.0000 C   0  0  0  0  0  0  0  0  0  0  0  0
   11.0710   -3.5930   -1.0900 H   0  0  0  0  0  0  0  0  0  0  0  0
   12.0520   -5.3205    0.4708 O   0  0  0  0  0  0  0  0  0  0  0  0
   11.3297   -5.9504    0.4152 H   0  0  0  0  0  0  0  0  0  0  0  0
   10.3995   -4.6665    0.4109 O   0  0  0  0  0  0  0  0  0  0  0  0
    9.6606   -4.1332    0.1091 H   0  0  0  0  0  0  0  0  0  0  0  0
   11.8550   -3.3380    0.0000 O   0  0  0  0  0  0  0  0  0  0  0  0
   10.5420   -3.0317    0.2942 C   0  0  0  0  0  0  0  0  0  0  0  0
   10.4920   -2.2299   -0.4425 H   0  0  0  0  0  0  0  0  0  0  0  0
   10.9722   -2.6486    1.2196 H   0  0  0  0  0  0  0  0  0  0  0  0
   12.6474   -4.5445   -0.5430 C   0  0  0  0  0  0  0  0  0  0  0  0
   12.7979   -5.4809   -0.0058 H   0  0  0  0  0  0  0  0  0  0  0  0
   11.8879   -4.6847   -1.3121 H   0  0  0  0  0  0  0  0  0  0  0  0
   13.3552   -4.3775   -0.9342 O   0  0  0  0  0  0  0  0  0  0  0  0
   13.6500   -3.5113   -0.6438 H   0  0  0  0  0  0  0  0  0  0  0  0
   12.3400   -4.0050    0.0000 C   0  0  0  0  0  0  0  0  0  0  0  0
   12.4287   -4.0435    0.8187 O   0  0  0  0  0  0  0  0  0  0  0  0
   13.0976   -3.4019    1.0687 H   0  0  0  0  0  0  0  0  0  0  0  0
    9.7637   -3.2476    0.4647 O   0  0  0  0  0  0  0  0  0  0  0  0
    8.3776   -2.6619    0.5746 O   0  0  0  0  0  0  0  0  0  0  0  0
    8.9053   -2.8266   -0.0154 O   0  5  0  0  0  0  0  0  0  0  0  0
    9.1767   -2.7489    0.7599 P   0  0  0  0  0  0  0  0  0  0  0  0
    9.4828   -2.0089    0.5615 O   0  5  0  0  0  0  0  0  0  0  0  0
  1  2  1  0  0  0  0
  1  3  1  0  0  0  0
  1  7  1  0  0  0  0
  1 20  1  0  0  0  0
  3  4  1  0  0  0  0
  3  5  1  0  0  0  0
  3  9  1  0  0  0  0
  5  6  1  0  0  0  0
  5 11  1  0  0  0  0
  5 12  1  0  0  0  0
  7  8  1  0  0  0  0
  9 10  1  0  0  0  0
 11 20  1  0  0  0  0
 12 13  1  0  0  0  0
 12 14  1  0  0  0  0
 12 23  1  0  0  0  0
 15 16  1  0  0  0  0
 15 17  1  0  0  0  0
 15 18  1  0  0  0  0
 15 20  1  0  0  0  0
 18 19  1  0  0  0  0
 20 21  1  0  0  0  0
 21 22  1  0  0  0  0
 23 26  1  0  0  0  0
 24 26  1  0  0  0  0
 25 26  2  0  0  0  0
 26 27  1  0  0  0  0
M  END
$$$$
