# created with PyMOL 2.4.0
@<TRIPOS>MOLECULE
L08.****
27 27 1                 
SMALL
USER_CHARGES
@<TRIPOS>ATOM
1	   C	11.855	-4.673	0.000	C.3	1	UNK0	0.000	
2	   H	11.855	-4.673	-1.090	 H	1	UNK0	0.000	
3	   C	11.071	-4.418	0.000	C.3	1	UNK0	0.000	
4	   H	11.071	-4.418	-1.090	 H	1	UNK0	0.000	
5	   C	11.071	-3.593	0.000	C.3	1	UNK0	0.000	
6	   H	11.071	-3.593	-1.090	 H	1	UNK0	0.000	
7	   O	12.110	-5.457	0.000	O.3	1	UNK0	0.000	
8	   H	11.446	-5.978	-0.458	 H	1	UNK0	0.000	
9	   O	10.403	-4.903	0.000	O.3	1	UNK0	0.000	
10	   H	9.703	-4.432	-0.458	 H	1	UNK0	0.000	
11	   O	11.855	-3.338	0.000	O.3	1	UNK0	0.000	
12	   C	10.403	-3.108	0.000	C.3	1	UNK0	0.000	
13	   H	10.469	-2.482	-0.890	 H	1	UNK0	0.000	
14	   H	10.469	-2.482	0.890	 H	1	UNK0	0.000	
15	   C	13.054	-4.418	0.000	C.3	1	UNK0	0.000	
16	   H	13.054	-5.047	0.890	 H	1	UNK0	0.000	
17	   H	13.054	-5.047	-0.890	 H	1	UNK0	0.000	
18	   O	13.769	-4.005	0.000	O.3	1	UNK0	0.000	
19	   H	13.563	-3.068	-0.024	 H	1	UNK0	0.000	
20	   C	12.340	-4.005	0.000	C.3	1	UNK0	0.000	
21	   O	13.054	-3.593	0.000	O.3	1	UNK0	0.000	
22	   H	13.534	-3.844	-0.793	 H	1	UNK0	0.000	
23	   O	9.649	-3.444	0.000	O.3	1	UNK0	0.000	
24	   O	8.221	-3.444	0.000	O.2	1	UNK0	0.000	
25	   O	8.935	-3.856	0.000	O.2	1	UNK0	0.000	
26	   P	8.935	-3.031	0.000	 P	1	UNK0	0.000	
27	   O	8.935	-2.206	0.000	O.2	1	UNK0	0.000	
@<TRIPOS>BOND
1 1 2 1
2 1 3 1
3 1 7 1
4 1 20 1
5 3 4 1
6 3 5 1
7 3 9 1
8 5 6 1
9 5 11 1
10 5 12 1
11 7 8 1
12 9 10 1
13 11 20 1
14 12 13 1
15 12 14 1
16 12 23 1
17 15 16 1
18 15 17 1
19 15 18 1
20 15 20 1
21 18 19 1
22 20 21 1
23 21 22 1
24 23 26 1
25 24 26 ar
26 25 26 ar
27 26 27 ar
@<TRIPOS>SUBSTRUCTURE
1	UNK0	1	GROUP	1 ****	UNK
