L08.****
  PyMOL2.5          3D                             0

 27 27  0  0  0  0  0  0  0  0999 V2000
   11.8926   -4.9938    0.0232 C   0  0  0  1  0  0  0  0  0  0  0  0
   12.3141   -5.6885   -0.6731 H   0  0  0  1  0  0  0  0  0  0  0  0
   10.7078   -4.2571   -0.5786 C   0  0  0  1  0  0  0  0  0  0  0  0
   10.8564   -4.0762   -1.6227 H   0  0  0  1  0  0  0  0  0  0  0  0
   10.6883   -2.9581    0.2033 C   0  0  0  1  0  0  0  0  0  0  0  0
   10.4111   -2.1473   -0.4376 H   0  0  0  1  0  0  0  0  0  0  0  0
   11.5244   -5.6819    1.2195 O   0  0  0  1  0  0  0  0  0  0  0  0
   10.7067   -6.1632    1.0736 H   0  0  0  1  0  0  0  0  0  0  0  0
    9.4963   -4.9897   -0.3892 O   0  0  0  1  0  0  0  0  0  0  0  0
    9.3100   -5.5094   -1.1746 H   0  0  0  1  0  0  0  0  0  0  0  0
   12.0203   -2.7545    0.7107 O   0  0  0  1  0  0  0  0  0  0  0  0
    9.7290   -3.0530    1.3206 C   0  0  0  1  0  0  0  0  0  0  0  0
   10.0459   -3.8231    1.9924 H   0  0  0  1  0  0  0  0  0  0  0  0
    8.7605   -3.2925    0.9340 H   0  0  0  1  0  0  0  0  0  0  0  0
   13.7938   -4.2248    1.4225 C   0  0  0  1  0  0  0  0  0  0  0  0
   14.5232   -3.4492    1.5288 H   0  0  0  1  0  0  0  0  0  0  0  0
   13.2360   -4.3175    2.3309 H   0  0  0  1  0  0  0  0  0  0  0  0
   14.4655   -5.4512    1.1730 O   0  0  0  1  0  0  0  0  0  0  0  0
   14.2478   -6.0820    1.8631 H   0  0  0  1  0  0  0  0  0  0  0  0
   12.8512   -3.8514    0.3144 C   0  0  0  1  0  0  0  0  0  0  0  0
   13.5898   -3.5198   -0.8400 O   0  0  0  1  0  0  0  0  0  0  0  0
   14.4546   -3.9345   -0.7972 H   0  0  0  1  0  0  0  0  0  0  0  0
    9.6596   -1.7965    2.0348 O   0  0  0  1  0  0  0  0  0  0  0  0
    8.9136    0.0054    3.7828 O   0  0  0  0  0  0  0  0  0  0  0  0
    9.1477   -2.3411    4.5018 O   0  0  0  1  0  0  0  0  0  0  0  0
    8.6884   -1.5560    3.3343 P   0  0  0  1  0  0  0  0  0  0  0  0
    7.1383   -1.7382    2.9002 O   0  5  0  1  0  0  0  0  0  0  0  0
  1  2  1  0  0  0  0
  1  3  1  0  0  0  0
  1  7  1  0  0  0  0
  1 20  1  0  0  0  0
  3  4  1  0  0  0  0
  3  5  1  0  0  0  0
  3  9  1  0  0  0  0
  5  6  1  0  0  0  0
  5 11  1  0  0  0  0
  5 12  1  0  0  0  0
  7  8  1  0  0  0  0
  9 10  1  0  0  0  0
 11 20  1  0  0  0  0
 12 13  1  0  0  0  0
 12 14  1  0  0  0  0
 12 23  1  0  0  0  0
 15 16  1  0  0  0  0
 15 17  1  0  0  0  0
 15 18  1  0  0  0  0
 15 20  1  0  0  0  0
 18 19  1  0  0  0  0
 20 21  1  0  0  0  0
 21 22  1  0  0  0  0
 23 26  1  0  0  0  0
 24 26  1  0  0  0  0
 25 26  2  0  0  0  0
 26 27  1  0  0  0  0
M  BCL ATM C_TeTeTeTe H_S C_TeTeTeTe H_S C_TeTeTeTe H_S O_Te2Te2TeTe H_S O_Te2Te2TeTe H_S O_Te2Te2TeTe C_TeTeTeTe H_S H_S C_TeTeTeTe H_S H_S O_Te2Te2TeTe H_S C_TeTeTeTe O_Te2Te2TeTe H_S O_Tr2TrTrPi2 O_Te2Te2TeTe O_Tr2Tr2TrPi P_TeTeTeTePi O_Te2Te2Te2Te
M  BCL BND NonConjugatedSingleBond NonConjugatedSingleBondInRing NonConjugatedSingleBond NonConjugatedSingleBondInRing NonConjugatedSingleBond NonConjugatedSingleBondInRing NonConjugatedSingleBond NonConjugatedSingleBond NonConjugatedSingleBondInRing NonConjugatedSingleBond NonConjugatedSingleBond NonConjugatedSingleBond NonConjugatedSingleBondInRing NonConjugatedSingleBond NonConjugatedSingleBond NonConjugatedSingleBond NonConjugatedSingleBond NonConjugatedSingleBond NonConjugatedSingleBond NonConjugatedSingleBond NonConjugatedSingleBond NonConjugatedSingleBond NonConjugatedSingleBond ConjugatedSingleBond ConjugatedSingleBond ConjugatedDoubleBond ConjugatedSingleBond
M  BCL CHI   1   S   3   R   5   R  20   R  26   R
M  BCL DBI -
M  END
> <ConfClashScore>
0 

> <ConfOneFourInteractionScore>
-0.979644 

> <ConfScore>
-0.348948 

> <ConfScorePBest>
0.0150985 

> <ConfTolerance>
0.309538 

$$$$
L08.****
  PyMOL2.5          3D                             0

 27 27  0  0  0  0  0  0  0  0999 V2000
   12.0932   -4.8898   -0.3691 C   0  0  0  1  0  0  0  0  0  0  0  0
   12.6173   -4.9183   -1.3016 H   0  0  0  1  0  0  0  0  0  0  0  0
   10.6548   -4.4770   -0.5634 C   0  0  0  1  0  0  0  0  0  0  0  0
   10.2676   -4.8604   -1.4842 H   0  0  0  1  0  0  0  0  0  0  0  0
   10.7246   -2.9647   -0.5931 C   0  0  0  1  0  0  0  0  0  0  0  0
   10.7732   -2.6155   -1.6034 H   0  0  0  1  0  0  0  0  0  0  0  0
   12.1836   -6.1650    0.2679 O   0  0  0  1  0  0  0  0  0  0  0  0
   11.3719   -6.3410    0.7493 H   0  0  0  1  0  0  0  0  0  0  0  0
    9.8425   -4.9297    0.5207 O   0  0  0  1  0  0  0  0  0  0  0  0
    8.9160   -4.8234    0.2931 H   0  0  0  1  0  0  0  0  0  0  0  0
   11.9235   -2.6041    0.1176 O   0  0  0  1  0  0  0  0  0  0  0  0
    9.5128   -2.3708    0.0884 C   0  0  0  1  0  0  0  0  0  0  0  0
    8.6152   -2.7044   -0.3890 H   0  0  0  1  0  0  0  0  0  0  0  0
    9.5558   -1.3020    0.0614 H   0  0  0  1  0  0  0  0  0  0  0  0
   12.3450   -4.1027    1.9536 C   0  0  0  1  0  0  0  0  0  0  0  0
   11.2839   -4.1511    2.0831 H   0  0  0  1  0  0  0  0  0  0  0  0
   12.7763   -5.0554    2.1798 H   0  0  0  1  0  0  0  0  0  0  0  0
   12.8575   -3.1589    2.8695 O   0  0  0  1  0  0  0  0  0  0  0  0
   13.7358   -3.4276    3.1487 H   0  0  0  1  0  0  0  0  0  0  0  0
   12.6249   -3.7936    0.5236 C   0  0  0  1  0  0  0  0  0  0  0  0
   14.0138   -3.6359    0.3393 O   0  0  0  1  0  0  0  0  0  0  0  0
   14.4817   -4.3113    0.8358 H   0  0  0  1  0  0  0  0  0  0  0  0
    9.5633   -2.8435    1.4551 O   0  0  0  1  0  0  0  0  0  0  0  0
    8.7248   -3.2482    3.9622 O   0  0  0  0  0  0  0  0  0  0  0  0
    7.1051   -2.4098    2.2788 O   0  0  0  1  0  0  0  0  0  0  0  0
    8.5412   -2.3172    2.6246 P   0  0  0  1  0  0  0  0  0  0  0  0
    8.9722   -0.8623    3.1919 O   0  5  0  1  0  0  0  0  0  0  0  0
  1  2  1  0  0  0  0
  1  3  1  0  0  0  0
  1  7  1  0  0  0  0
  1 20  1  0  0  0  0
  3  4  1  0  0  0  0
  3  5  1  0  0  0  0
  3  9  1  0  0  0  0
  5  6  1  0  0  0  0
  5 11  1  0  0  0  0
  5 12  1  0  0  0  0
  7  8  1  0  0  0  0
  9 10  1  0  0  0  0
 11 20  1  0  0  0  0
 12 13  1  0  0  0  0
 12 14  1  0  0  0  0
 12 23  1  0  0  0  0
 15 16  1  0  0  0  0
 15 17  1  0  0  0  0
 15 18  1  0  0  0  0
 15 20  1  0  0  0  0
 18 19  1  0  0  0  0
 20 21  1  0  0  0  0
 21 22  1  0  0  0  0
 23 26  1  0  0  0  0
 24 26  1  0  0  0  0
 25 26  2  0  0  0  0
 26 27  1  0  0  0  0
M  BCL ATM C_TeTeTeTe H_S C_TeTeTeTe H_S C_TeTeTeTe H_S O_Te2Te2TeTe H_S O_Te2Te2TeTe H_S O_Te2Te2TeTe C_TeTeTeTe H_S H_S C_TeTeTeTe H_S H_S O_Te2Te2TeTe H_S C_TeTeTeTe O_Te2Te2TeTe H_S O_Tr2TrTrPi2 O_Te2Te2TeTe O_Tr2Tr2TrPi P_TeTeTeTePi O_Te2Te2Te2Te
M  BCL BND NonConjugatedSingleBond NonConjugatedSingleBondInRing NonConjugatedSingleBond NonConjugatedSingleBondInRing NonConjugatedSingleBond NonConjugatedSingleBondInRing NonConjugatedSingleBond NonConjugatedSingleBond NonConjugatedSingleBondInRing NonConjugatedSingleBond NonConjugatedSingleBond NonConjugatedSingleBond NonConjugatedSingleBondInRing NonConjugatedSingleBond NonConjugatedSingleBond NonConjugatedSingleBond NonConjugatedSingleBond NonConjugatedSingleBond NonConjugatedSingleBond NonConjugatedSingleBond NonConjugatedSingleBond NonConjugatedSingleBond NonConjugatedSingleBond ConjugatedSingleBond ConjugatedSingleBond ConjugatedDoubleBond ConjugatedSingleBond
M  BCL CHI   1   S   3   R   5   R  20   R  26   R
M  BCL DBI -
M  END
> <ConfClashScore>
0 

> <ConfOneFourInteractionScore>
-0.990322 

> <ConfScore>
-0.34367 

> <ConfScorePBest>
0.0149955 

> <ConfTolerance>
0.342345 

$$$$
L08.****
  PyMOL2.5          3D                             0

 27 27  0  0  0  0  0  0  0  0999 V2000
   11.8510   -5.0666   -0.1861 C   0  0  0  1  0  0  0  0  0  0  0  0
   12.2634   -5.6309   -0.9962 H   0  0  0  1  0  0  0  0  0  0  0  0
   10.7858   -4.0981   -0.6721 C   0  0  0  1  0  0  0  0  0  0  0  0
   11.0309   -3.7087   -1.6381 H   0  0  0  1  0  0  0  0  0  0  0  0
   10.8187   -3.0074    0.3808 C   0  0  0  1  0  0  0  0  0  0  0  0
   10.6643   -2.0517   -0.0749 H   0  0  0  1  0  0  0  0  0  0  0  0
   11.3315   -5.9589    0.8008 O   0  0  0  1  0  0  0  0  0  0  0  0
   11.0323   -5.4560    1.5618 H   0  0  0  1  0  0  0  0  0  0  0  0
    9.5040   -4.7261   -0.7224 O   0  0  0  1  0  0  0  0  0  0  0  0
    9.6124   -5.6612   -0.9106 H   0  0  0  1  0  0  0  0  0  0  0  0
   12.1195   -3.0580    0.9959 O   0  0  0  1  0  0  0  0  0  0  0  0
    9.7702   -3.2464    1.3913 C   0  0  0  1  0  0  0  0  0  0  0  0
    9.8370   -4.2571    1.7361 H   0  0  0  1  0  0  0  0  0  0  0  0
    8.8101   -3.0828    0.9483 H   0  0  0  1  0  0  0  0  0  0  0  0
   13.6964   -4.8226    1.4563 C   0  0  0  1  0  0  0  0  0  0  0  0
   13.0517   -5.3330    2.1410 H   0  0  0  1  0  0  0  0  0  0  0  0
   14.3554   -5.5272    0.9936 H   0  0  0  1  0  0  0  0  0  0  0  0
   14.4499   -3.8333    2.1449 O   0  0  0  1  0  0  0  0  0  0  0  0
   13.8554   -3.1723    2.5072 H   0  0  0  1  0  0  0  0  0  0  0  0
   12.8800   -4.1205    0.4098 C   0  0  0  1  0  0  0  0  0  0  0  0
   13.7328   -3.6212   -0.5959 O   0  0  0  1  0  0  0  0  0  0  0  0
   13.2532   -3.5687   -1.4259 H   0  0  0  1  0  0  0  0  0  0  0  0
    9.9367   -2.3463    2.5161 O   0  0  0  1  0  0  0  0  0  0  0  0
    9.6030   -1.1681    4.7315 O   0  0  0  0  0  0  0  0  0  0  0  0
    9.2124   -3.7774    4.6831 O   0  0  0  1  0  0  0  0  0  0  0  0
    9.1139   -2.5099    3.9253 P   0  0  0  1  0  0  0  0  0  0  0  0
    7.6398   -2.1348    3.3678 O   0  5  0  1  0  0  0  0  0  0  0  0
  1  2  1  0  0  0  0
  1  3  1  0  0  0  0
  1  7  1  0  0  0  0
  1 20  1  0  0  0  0
  3  4  1  0  0  0  0
  3  5  1  0  0  0  0
  3  9  1  0  0  0  0
  5  6  1  0  0  0  0
  5 11  1  0  0  0  0
  5 12  1  0  0  0  0
  7  8  1  0  0  0  0
  9 10  1  0  0  0  0
 11 20  1  0  0  0  0
 12 13  1  0  0  0  0
 12 14  1  0  0  0  0
 12 23  1  0  0  0  0
 15 16  1  0  0  0  0
 15 17  1  0  0  0  0
 15 18  1  0  0  0  0
 15 20  1  0  0  0  0
 18 19  1  0  0  0  0
 20 21  1  0  0  0  0
 21 22  1  0  0  0  0
 23 26  1  0  0  0  0
 24 26  1  0  0  0  0
 25 26  2  0  0  0  0
 26 27  1  0  0  0  0
M  BCL ATM C_TeTeTeTe H_S C_TeTeTeTe H_S C_TeTeTeTe H_S O_Te2Te2TeTe H_S O_Te2Te2TeTe H_S O_Te2Te2TeTe C_TeTeTeTe H_S H_S C_TeTeTeTe H_S H_S O_Te2Te2TeTe H_S C_TeTeTeTe O_Te2Te2TeTe H_S O_Tr2TrTrPi2 O_Te2Te2TeTe O_Tr2Tr2TrPi P_TeTeTeTePi O_Te2Te2Te2Te
M  BCL BND NonConjugatedSingleBond NonConjugatedSingleBondInRing NonConjugatedSingleBond NonConjugatedSingleBondInRing NonConjugatedSingleBond NonConjugatedSingleBondInRing NonConjugatedSingleBond NonConjugatedSingleBond NonConjugatedSingleBondInRing NonConjugatedSingleBond NonConjugatedSingleBond NonConjugatedSingleBond NonConjugatedSingleBondInRing NonConjugatedSingleBond NonConjugatedSingleBond NonConjugatedSingleBond NonConjugatedSingleBond NonConjugatedSingleBond NonConjugatedSingleBond NonConjugatedSingleBond NonConjugatedSingleBond NonConjugatedSingleBond NonConjugatedSingleBond ConjugatedSingleBond ConjugatedSingleBond ConjugatedDoubleBond ConjugatedSingleBond
M  BCL CHI   1   S   3   R   5   R  20   R  26   R
M  BCL DBI -
M  END
> <ConfClashScore>
0 

> <ConfOneFourInteractionScore>
-0.986052 

> <ConfScore>
-0.343084 

> <ConfScorePBest>
0.0148925 

> <ConfTolerance>
0.28697 

$$$$
L08.****
  PyMOL2.5          3D                             0

 27 27  0  0  0  0  0  0  0  0999 V2000
   11.8973   -4.8911   -0.2873 C   0  0  0  1  0  0  0  0  0  0  0  0
   12.4842   -4.9260   -1.1813 H   0  0  0  1  0  0  0  0  0  0  0  0
   10.5473   -4.2710   -0.5517 C   0  0  0  1  0  0  0  0  0  0  0  0
   10.1885   -4.5255   -1.5271 H   0  0  0  1  0  0  0  0  0  0  0  0
   10.8455   -2.7940   -0.4469 C   0  0  0  1  0  0  0  0  0  0  0  0
   11.2011   -2.4156   -1.3825 H   0  0  0  1  0  0  0  0  0  0  0  0
   11.7586   -6.2097    0.2438 O   0  0  0  1  0  0  0  0  0  0  0  0
   12.5119   -6.4104    0.8041 H   0  0  0  1  0  0  0  0  0  0  0  0
    9.5911   -4.6763    0.4288 O   0  0  0  1  0  0  0  0  0  0  0  0
    8.9657   -5.2877    0.0330 H   0  0  0  1  0  0  0  0  0  0  0  0
   11.8666   -2.6868    0.5618 O   0  0  0  1  0  0  0  0  0  0  0  0
    9.6230   -2.0408   -0.0368 C   0  0  0  1  0  0  0  0  0  0  0  0
    9.2604   -2.4155    0.8975 H   0  0  0  1  0  0  0  0  0  0  0  0
    8.8630   -2.1456   -0.7828 H   0  0  0  1  0  0  0  0  0  0  0  0
   12.2878   -4.4800    2.1215 C   0  0  0  1  0  0  0  0  0  0  0  0
   11.2398   -4.4965    2.3364 H   0  0  0  1  0  0  0  0  0  0  0  0
   12.6865   -5.4689    2.2116 H   0  0  0  1  0  0  0  0  0  0  0  0
   12.9541   -3.6044    3.0215 O   0  0  0  1  0  0  0  0  0  0  0  0
   13.8990   -3.7711    2.9903 H   0  0  0  1  0  0  0  0  0  0  0  0
   12.5180   -3.9592    0.7320 C   0  0  0  1  0  0  0  0  0  0  0  0
   13.9031   -3.8339    0.4998 O   0  0  0  1  0  0  0  0  0  0  0  0
   14.1567   -4.3952   -0.2366 H   0  0  0  1  0  0  0  0  0  0  0  0
    9.9912   -0.6448    0.1003 O   0  0  0  1  0  0  0  0  0  0  0  0
    9.6482    1.9249    0.5842 O   0  0  0  0  0  0  0  0  0  0  0  0
    8.4868    0.2241    2.0159 O   0  0  0  1  0  0  0  0  0  0  0  0
    8.9001    0.4659    0.6155 P   0  0  0  1  0  0  0  0  0  0  0  0
    7.6838    0.4400   -0.4544 O   0  5  0  1  0  0  0  0  0  0  0  0
  1  2  1  0  0  0  0
  1  3  1  0  0  0  0
  1  7  1  0  0  0  0
  1 20  1  0  0  0  0
  3  4  1  0  0  0  0
  3  5  1  0  0  0  0
  3  9  1  0  0  0  0
  5  6  1  0  0  0  0
  5 11  1  0  0  0  0
  5 12  1  0  0  0  0
  7  8  1  0  0  0  0
  9 10  1  0  0  0  0
 11 20  1  0  0  0  0
 12 13  1  0  0  0  0
 12 14  1  0  0  0  0
 12 23  1  0  0  0  0
 15 16  1  0  0  0  0
 15 17  1  0  0  0  0
 15 18  1  0  0  0  0
 15 20  1  0  0  0  0
 18 19  1  0  0  0  0
 20 21  1  0  0  0  0
 21 22  1  0  0  0  0
 23 26  1  0  0  0  0
 24 26  1  0  0  0  0
 25 26  2  0  0  0  0
 26 27  1  0  0  0  0
M  BCL ATM C_TeTeTeTe H_S C_TeTeTeTe H_S C_TeTeTeTe H_S O_Te2Te2TeTe H_S O_Te2Te2TeTe H_S O_Te2Te2TeTe C_TeTeTeTe H_S H_S C_TeTeTeTe H_S H_S O_Te2Te2TeTe H_S C_TeTeTeTe O_Te2Te2TeTe H_S O_Tr2TrTrPi2 O_Te2Te2TeTe O_Tr2Tr2TrPi P_TeTeTeTePi O_Te2Te2Te2Te
M  BCL BND NonConjugatedSingleBond NonConjugatedSingleBondInRing NonConjugatedSingleBond NonConjugatedSingleBondInRing NonConjugatedSingleBond NonConjugatedSingleBondInRing NonConjugatedSingleBond NonConjugatedSingleBond NonConjugatedSingleBondInRing NonConjugatedSingleBond NonConjugatedSingleBond NonConjugatedSingleBond NonConjugatedSingleBondInRing NonConjugatedSingleBond NonConjugatedSingleBond NonConjugatedSingleBond NonConjugatedSingleBond NonConjugatedSingleBond NonConjugatedSingleBond NonConjugatedSingleBond NonConjugatedSingleBond NonConjugatedSingleBond NonConjugatedSingleBond ConjugatedSingleBond ConjugatedSingleBond ConjugatedDoubleBond ConjugatedSingleBond
M  BCL CHI   1   S   3   R   5   R  20   R  26   R
M  BCL DBI -
M  END
> <ConfClashScore>
0 

> <ConfOneFourInteractionScore>
-0.980422 

> <ConfScore>
-0.340312 

> <ConfScorePBest>
0.0147895 

> <ConfTolerance>
0.303813 

$$$$
L08.****
  PyMOL2.5          3D                             0

 27 27  0  0  0  0  0  0  0  0999 V2000
   11.8779   -4.9565    0.0480 C   0  0  0  1  0  0  0  0  0  0  0  0
   12.3197   -5.6893   -0.5944 H   0  0  0  1  0  0  0  0  0  0  0  0
   10.6859   -4.2912   -0.6191 C   0  0  0  1  0  0  0  0  0  0  0  0
   10.8425   -4.1755   -1.6712 H   0  0  0  1  0  0  0  0  0  0  0  0
   10.6483   -2.9458    0.0862 C   0  0  0  1  0  0  0  0  0  0  0  0
   10.1726   -2.2123   -0.5307 H   0  0  0  1  0  0  0  0  0  0  0  0
   11.5010   -5.5692    1.2819 O   0  0  0  1  0  0  0  0  0  0  0  0
   11.0692   -6.4080    1.1044 H   0  0  0  1  0  0  0  0  0  0  0  0
    9.4845   -5.0302   -0.3943 O   0  0  0  1  0  0  0  0  0  0  0  0
    9.0847   -5.2561   -1.2374 H   0  0  0  1  0  0  0  0  0  0  0  0
   12.0197   -2.5998    0.3103 O   0  0  0  1  0  0  0  0  0  0  0  0
    9.9262   -3.0542    1.3685 C   0  0  0  1  0  0  0  0  0  0  0  0
   10.4537   -3.7248    2.0143 H   0  0  0  1  0  0  0  0  0  0  0  0
    8.9419   -3.4328    1.1877 H   0  0  0  1  0  0  0  0  0  0  0  0
   13.5387   -3.9663    1.5909 C   0  0  0  1  0  0  0  0  0  0  0  0
   14.1707   -3.1228    1.7753 H   0  0  0  1  0  0  0  0  0  0  0  0
   12.8285   -4.0610    2.3855 H   0  0  0  1  0  0  0  0  0  0  0  0
   14.3224   -5.1485    1.4970 O   0  0  0  1  0  0  0  0  0  0  0  0
   15.2379   -4.9135    1.3290 H   0  0  0  1  0  0  0  0  0  0  0  0
   12.8233   -3.7942    0.2818 C   0  0  0  1  0  0  0  0  0  0  0  0
   13.7664   -3.7189   -0.7636 O   0  0  0  1  0  0  0  0  0  0  0  0
   14.5857   -4.1357   -0.4867 H   0  0  0  1  0  0  0  0  0  0  0  0
    9.8288   -1.7580    2.0046 O   0  0  0  1  0  0  0  0  0  0  0  0
    9.7234    0.0126    3.9199 O   0  0  0  0  0  0  0  0  0  0  0  0
   10.1034   -2.5228    4.4608 O   0  0  0  1  0  0  0  0  0  0  0  0
    9.4084   -1.5600    3.5774 P   0  0  0  1  0  0  0  0  0  0  0  0
    7.8141   -1.8052    3.7268 O   0  5  0  1  0  0  0  0  0  0  0  0
  1  2  1  0  0  0  0
  1  3  1  0  0  0  0
  1  7  1  0  0  0  0
  1 20  1  0  0  0  0
  3  4  1  0  0  0  0
  3  5  1  0  0  0  0
  3  9  1  0  0  0  0
  5  6  1  0  0  0  0
  5 11  1  0  0  0  0
  5 12  1  0  0  0  0
  7  8  1  0  0  0  0
  9 10  1  0  0  0  0
 11 20  1  0  0  0  0
 12 13  1  0  0  0  0
 12 14  1  0  0  0  0
 12 23  1  0  0  0  0
 15 16  1  0  0  0  0
 15 17  1  0  0  0  0
 15 18  1  0  0  0  0
 15 20  1  0  0  0  0
 18 19  1  0  0  0  0
 20 21  1  0  0  0  0
 21 22  1  0  0  0  0
 23 26  1  0  0  0  0
 24 26  1  0  0  0  0
 25 26  2  0  0  0  0
 26 27  1  0  0  0  0
M  BCL ATM C_TeTeTeTe H_S C_TeTeTeTe H_S C_TeTeTeTe H_S O_Te2Te2TeTe H_S O_Te2Te2TeTe H_S O_Te2Te2TeTe C_TeTeTeTe H_S H_S C_TeTeTeTe H_S H_S O_Te2Te2TeTe H_S C_TeTeTeTe O_Te2Te2TeTe H_S O_Tr2TrTrPi2 O_Te2Te2TeTe O_Tr2Tr2TrPi P_TeTeTeTePi O_Te2Te2Te2Te
M  BCL BND NonConjugatedSingleBond NonConjugatedSingleBondInRing NonConjugatedSingleBond NonConjugatedSingleBondInRing NonConjugatedSingleBond NonConjugatedSingleBondInRing NonConjugatedSingleBond NonConjugatedSingleBond NonConjugatedSingleBondInRing NonConjugatedSingleBond NonConjugatedSingleBond NonConjugatedSingleBond NonConjugatedSingleBondInRing NonConjugatedSingleBond NonConjugatedSingleBond NonConjugatedSingleBond NonConjugatedSingleBond NonConjugatedSingleBond NonConjugatedSingleBond NonConjugatedSingleBond NonConjugatedSingleBond NonConjugatedSingleBond NonConjugatedSingleBond ConjugatedSingleBond ConjugatedSingleBond ConjugatedDoubleBond ConjugatedSingleBond
M  BCL CHI   1   S   3   R   5   R  20   R  26   R
M  BCL DBI -
M  END
> <ConfClashScore>
0 

> <ConfOneFourInteractionScore>
-0.980422 

> <ConfScore>
-0.338634 

> <ConfScorePBest>
0.0146865 

> <ConfTolerance>
0.432943 

$$$$
L08.****
  PyMOL2.5          3D                             0

 27 27  0  0  0  0  0  0  0  0999 V2000
   11.8402   -5.1297   -0.2390 C   0  0  0  1  0  0  0  0  0  0  0  0
   12.1745   -5.6579   -1.1075 H   0  0  0  1  0  0  0  0  0  0  0  0
   10.7428   -4.1369   -0.5834 C   0  0  0  1  0  0  0  0  0  0  0  0
   10.9033   -3.7047   -1.5490 H   0  0  0  1  0  0  0  0  0  0  0  0
   10.8775   -3.0953    0.5103 C   0  0  0  1  0  0  0  0  0  0  0  0
   10.6898   -2.1194    0.1138 H   0  0  0  1  0  0  0  0  0  0  0  0
   11.4048   -6.0644    0.7493 O   0  0  0  1  0  0  0  0  0  0  0  0
   11.1879   -5.5968    1.5592 H   0  0  0  1  0  0  0  0  0  0  0  0
    9.4571   -4.7580   -0.5467 O   0  0  0  1  0  0  0  0  0  0  0  0
    9.2821   -5.1824   -1.3898 H   0  0  0  1  0  0  0  0  0  0  0  0
   12.2278   -3.1778    1.0034 O   0  0  0  1  0  0  0  0  0  0  0  0
    9.9105   -3.3801    1.6121 C   0  0  0  1  0  0  0  0  0  0  0  0
   10.2224   -4.2476    2.1554 H   0  0  0  1  0  0  0  0  0  0  0  0
    8.9341   -3.5446    1.2065 H   0  0  0  1  0  0  0  0  0  0  0  0
   13.8269   -4.9664    1.2406 C   0  0  0  1  0  0  0  0  0  0  0  0
   13.2508   -5.3537    2.0549 H   0  0  0  1  0  0  0  0  0  0  0  0
   14.2911   -5.7748    0.7152 H   0  0  0  1  0  0  0  0  0  0  0  0
   14.8289   -4.0930    1.7442 O   0  0  0  1  0  0  0  0  0  0  0  0
   15.3502   -3.7491    1.0151 H   0  0  0  1  0  0  0  0  0  0  0  0
   12.9251   -4.2149    0.3042 C   0  0  0  1  0  0  0  0  0  0  0  0
   13.6881   -3.6730   -0.7505 O   0  0  0  1  0  0  0  0  0  0  0  0
   13.2080   -2.9452   -1.1523 H   0  0  0  1  0  0  0  0  0  0  0  0
    9.8924   -2.2294    2.4892 O   0  0  0  1  0  0  0  0  0  0  0  0
    9.1440   -0.5914    4.2229 O   0  0  0  0  0  0  0  0  0  0  0  0
    9.8295   -3.0226    4.8933 O   0  0  0  1  0  0  0  0  0  0  0  0
    9.0824   -2.2010    3.9149 P   0  0  0  1  0  0  0  0  0  0  0  0
    7.5082   -2.5041    3.6817 O   0  5  0  1  0  0  0  0  0  0  0  0
  1  2  1  0  0  0  0
  1  3  1  0  0  0  0
  1  7  1  0  0  0  0
  1 20  1  0  0  0  0
  3  4  1  0  0  0  0
  3  5  1  0  0  0  0
  3  9  1  0  0  0  0
  5  6  1  0  0  0  0
  5 11  1  0  0  0  0
  5 12  1  0  0  0  0
  7  8  1  0  0  0  0
  9 10  1  0  0  0  0
 11 20  1  0  0  0  0
 12 13  1  0  0  0  0
 12 14  1  0  0  0  0
 12 23  1  0  0  0  0
 15 16  1  0  0  0  0
 15 17  1  0  0  0  0
 15 18  1  0  0  0  0
 15 20  1  0  0  0  0
 18 19  1  0  0  0  0
 20 21  1  0  0  0  0
 21 22  1  0  0  0  0
 23 26  1  0  0  0  0
 24 26  1  0  0  0  0
 25 26  2  0  0  0  0
 26 27  1  0  0  0  0
M  BCL ATM C_TeTeTeTe H_S C_TeTeTeTe H_S C_TeTeTeTe H_S O_Te2Te2TeTe H_S O_Te2Te2TeTe H_S O_Te2Te2TeTe C_TeTeTeTe H_S H_S C_TeTeTeTe H_S H_S O_Te2Te2TeTe H_S C_TeTeTeTe O_Te2Te2TeTe H_S O_Tr2TrTrPi2 O_Te2Te2TeTe O_Tr2Tr2TrPi P_TeTeTeTePi O_Te2Te2Te2Te
M  BCL BND NonConjugatedSingleBond NonConjugatedSingleBondInRing NonConjugatedSingleBond NonConjugatedSingleBondInRing NonConjugatedSingleBond NonConjugatedSingleBondInRing NonConjugatedSingleBond NonConjugatedSingleBond NonConjugatedSingleBondInRing NonConjugatedSingleBond NonConjugatedSingleBond NonConjugatedSingleBond NonConjugatedSingleBondInRing NonConjugatedSingleBond NonConjugatedSingleBond NonConjugatedSingleBond NonConjugatedSingleBond NonConjugatedSingleBond NonConjugatedSingleBond NonConjugatedSingleBond NonConjugatedSingleBond NonConjugatedSingleBond NonConjugatedSingleBond ConjugatedSingleBond ConjugatedSingleBond ConjugatedDoubleBond ConjugatedSingleBond
M  BCL CHI   1   S   3   R   5   R  20   R  26   R
M  BCL DBI -
M  END
> <ConfClashScore>
0 

> <ConfOneFourInteractionScore>
-0.970756 

> <ConfScore>
-0.336498 

> <ConfScorePBest>
0.0145835 

> <ConfTolerance>
0.377822 

$$$$
L08.****
  PyMOL2.5          3D                             0

 27 27  0  0  0  0  0  0  0  0999 V2000
   11.9138   -4.8892   -0.3148 C   0  0  0  1  0  0  0  0  0  0  0  0
   12.4728   -4.9322   -1.2262 H   0  0  0  1  0  0  0  0  0  0  0  0
   10.5376   -4.3176   -0.5521 C   0  0  0  1  0  0  0  0  0  0  0  0
   10.1560   -4.6107   -1.5078 H   0  0  0  1  0  0  0  0  0  0  0  0
   10.7932   -2.8300   -0.4983 C   0  0  0  1  0  0  0  0  0  0  0  0
   11.1070   -2.4682   -1.4551 H   0  0  0  1  0  0  0  0  0  0  0  0
   11.8329   -6.1959    0.2572 O   0  0  0  1  0  0  0  0  0  0  0  0
   12.5587   -6.3218    0.8727 H   0  0  0  1  0  0  0  0  0  0  0  0
    9.6261   -4.7231    0.4700 O   0  0  0  1  0  0  0  0  0  0  0  0
    8.8352   -5.0890    0.0674 H   0  0  0  1  0  0  0  0  0  0  0  0
   11.8421   -2.6633    0.4732 O   0  0  0  1  0  0  0  0  0  0  0  0
    9.5617   -2.1022   -0.0695 C   0  0  0  1  0  0  0  0  0  0  0  0
    9.1781   -2.5342    0.8311 H   0  0  0  1  0  0  0  0  0  0  0  0
    8.8189   -2.1591   -0.8375 H   0  0  0  1  0  0  0  0  0  0  0  0
   12.3679   -4.3974    2.0675 C   0  0  0  1  0  0  0  0  0  0  0  0
   11.3621   -4.7338    2.2089 H   0  0  0  1  0  0  0  0  0  0  0  0
   13.0440   -5.2070    2.2478 H   0  0  0  1  0  0  0  0  0  0  0  0
   12.6445   -3.3397    2.9760 O   0  0  0  1  0  0  0  0  0  0  0  0
   13.5138   -3.4683    3.3625 H   0  0  0  1  0  0  0  0  0  0  0  0
   12.5376   -3.9101    0.6573 C   0  0  0  1  0  0  0  0  0  0  0  0
   13.9101   -3.7501    0.3766 O   0  0  0  1  0  0  0  0  0  0  0  0
   14.2937   -4.6022    0.1567 H   0  0  0  1  0  0  0  0  0  0  0  0
    9.9267   -0.7181    0.1630 O   0  0  0  1  0  0  0  0  0  0  0  0
    9.5229    1.8205    0.8303 O   0  0  0  0  0  0  0  0  0  0  0  0
    7.6974    0.0917    1.3476 O   0  0  0  1  0  0  0  0  0  0  0  0
    8.7760    0.4279    0.3915 P   0  0  0  1  0  0  0  0  0  0  0  0
    8.1651    0.6932   -1.0852 O   0  5  0  1  0  0  0  0  0  0  0  0
  1  2  1  0  0  0  0
  1  3  1  0  0  0  0
  1  7  1  0  0  0  0
  1 20  1  0  0  0  0
  3  4  1  0  0  0  0
  3  5  1  0  0  0  0
  3  9  1  0  0  0  0
  5  6  1  0  0  0  0
  5 11  1  0  0  0  0
  5 12  1  0  0  0  0
  7  8  1  0  0  0  0
  9 10  1  0  0  0  0
 11 20  1  0  0  0  0
 12 13  1  0  0  0  0
 12 14  1  0  0  0  0
 12 23  1  0  0  0  0
 15 16  1  0  0  0  0
 15 17  1  0  0  0  0
 15 18  1  0  0  0  0
 15 20  1  0  0  0  0
 18 19  1  0  0  0  0
 20 21  1  0  0  0  0
 21 22  1  0  0  0  0
 23 26  1  0  0  0  0
 24 26  1  0  0  0  0
 25 26  2  0  0  0  0
 26 27  1  0  0  0  0
M  BCL ATM C_TeTeTeTe H_S C_TeTeTeTe H_S C_TeTeTeTe H_S O_Te2Te2TeTe H_S O_Te2Te2TeTe H_S O_Te2Te2TeTe C_TeTeTeTe H_S H_S C_TeTeTeTe H_S H_S O_Te2Te2TeTe H_S C_TeTeTeTe O_Te2Te2TeTe H_S O_Tr2TrTrPi2 O_Te2Te2TeTe O_Tr2Tr2TrPi P_TeTeTeTePi O_Te2Te2Te2Te
M  BCL BND NonConjugatedSingleBond NonConjugatedSingleBondInRing NonConjugatedSingleBond NonConjugatedSingleBondInRing NonConjugatedSingleBond NonConjugatedSingleBondInRing NonConjugatedSingleBond NonConjugatedSingleBond NonConjugatedSingleBondInRing NonConjugatedSingleBond NonConjugatedSingleBond NonConjugatedSingleBond NonConjugatedSingleBondInRing NonConjugatedSingleBond NonConjugatedSingleBond NonConjugatedSingleBond NonConjugatedSingleBond NonConjugatedSingleBond NonConjugatedSingleBond NonConjugatedSingleBond NonConjugatedSingleBond NonConjugatedSingleBond NonConjugatedSingleBond ConjugatedSingleBond ConjugatedSingleBond ConjugatedDoubleBond ConjugatedSingleBond
M  BCL CHI   1   S   3   R   5   R  20   R  26   R
M  BCL DBI -
M  END
> <ConfClashScore>
0 

> <ConfOneFourInteractionScore>
-0.986052 

> <ConfScore>
-0.333989 

> <ConfScorePBest>
0.0144805 

> <ConfTolerance>
0.403511 

$$$$
L08.****
  PyMOL2.5          3D                             0

 27 27  0  0  0  0  0  0  0  0999 V2000
   11.7969   -5.0588   -0.0488 C   0  0  0  1  0  0  0  0  0  0  0  0
   12.1868   -5.7730   -0.7436 H   0  0  0  1  0  0  0  0  0  0  0  0
   10.7279   -4.1898   -0.6897 C   0  0  0  1  0  0  0  0  0  0  0  0
   10.9537   -3.9963   -1.7175 H   0  0  0  1  0  0  0  0  0  0  0  0
   10.7923   -2.9175    0.1326 C   0  0  0  1  0  0  0  0  0  0  0  0
   10.6344   -2.0656   -0.4953 H   0  0  0  1  0  0  0  0  0  0  0  0
   11.2937   -5.7387    1.1021 O   0  0  0  1  0  0  0  0  0  0  0  0
   10.6454   -6.3924    0.8302 H   0  0  0  1  0  0  0  0  0  0  0  0
    9.4441   -4.7997   -0.5915 O   0  0  0  1  0  0  0  0  0  0  0  0
    9.5477   -5.7432   -0.4482 H   0  0  0  1  0  0  0  0  0  0  0  0
   12.1064   -2.8635    0.7185 O   0  0  0  1  0  0  0  0  0  0  0  0
    9.7337   -2.9466    1.2247 C   0  0  0  1  0  0  0  0  0  0  0  0
    8.7627   -3.0540    0.7882 H   0  0  0  1  0  0  0  0  0  0  0  0
    9.7716   -2.0409    1.7931 H   0  0  0  1  0  0  0  0  0  0  0  0
   13.6809   -4.5244    1.4770 C   0  0  0  1  0  0  0  0  0  0  0  0
   13.0420   -4.7994    2.2901 H   0  0  0  1  0  0  0  0  0  0  0  0
   14.2450   -5.3772    1.1618 H   0  0  0  1  0  0  0  0  0  0  0  0
   14.5704   -3.4998    1.9008 O   0  0  0  1  0  0  0  0  0  0  0  0
   14.1363   -2.6469    1.8249 H   0  0  0  1  0  0  0  0  0  0  0  0
   12.8458   -4.0274    0.3321 C   0  0  0  1  0  0  0  0  0  0  0  0
   13.6791   -3.7405   -0.7685 O   0  0  0  1  0  0  0  0  0  0  0  0
   14.2776   -3.0257   -0.5396 H   0  0  0  1  0  0  0  0  0  0  0  0
   10.0121   -4.0589    2.0665 O   0  0  0  1  0  0  0  0  0  0  0  0
    9.5216   -5.8709    3.9567 O   0  0  0  0  0  0  0  0  0  0  0  0
    7.5818   -4.7884    2.8456 O   0  0  0  1  0  0  0  0  0  0  0  0
    8.9721   -4.4927    3.2580 P   0  0  0  1  0  0  0  0  0  0  0  0
    9.0031   -3.3138    4.3687 O   0  5  0  1  0  0  0  0  0  0  0  0
  1  2  1  0  0  0  0
  1  3  1  0  0  0  0
  1  7  1  0  0  0  0
  1 20  1  0  0  0  0
  3  4  1  0  0  0  0
  3  5  1  0  0  0  0
  3  9  1  0  0  0  0
  5  6  1  0  0  0  0
  5 11  1  0  0  0  0
  5 12  1  0  0  0  0
  7  8  1  0  0  0  0
  9 10  1  0  0  0  0
 11 20  1  0  0  0  0
 12 13  1  0  0  0  0
 12 14  1  0  0  0  0
 12 23  1  0  0  0  0
 15 16  1  0  0  0  0
 15 17  1  0  0  0  0
 15 18  1  0  0  0  0
 15 20  1  0  0  0  0
 18 19  1  0  0  0  0
 20 21  1  0  0  0  0
 21 22  1  0  0  0  0
 23 26  1  0  0  0  0
 24 26  1  0  0  0  0
 25 26  2  0  0  0  0
 26 27  1  0  0  0  0
M  BCL ATM C_TeTeTeTe H_S C_TeTeTeTe H_S C_TeTeTeTe H_S O_Te2Te2TeTe H_S O_Te2Te2TeTe H_S O_Te2Te2TeTe C_TeTeTeTe H_S H_S C_TeTeTeTe H_S H_S O_Te2Te2TeTe H_S C_TeTeTeTe O_Te2Te2TeTe H_S O_Tr2TrTrPi2 O_Te2Te2TeTe O_Tr2Tr2TrPi P_TeTeTeTePi O_Te2Te2Te2Te
M  BCL BND NonConjugatedSingleBond NonConjugatedSingleBondInRing NonConjugatedSingleBond NonConjugatedSingleBondInRing NonConjugatedSingleBond NonConjugatedSingleBondInRing NonConjugatedSingleBond NonConjugatedSingleBond NonConjugatedSingleBondInRing NonConjugatedSingleBond NonConjugatedSingleBond NonConjugatedSingleBond NonConjugatedSingleBondInRing NonConjugatedSingleBond NonConjugatedSingleBond NonConjugatedSingleBond NonConjugatedSingleBond NonConjugatedSingleBond NonConjugatedSingleBond NonConjugatedSingleBond NonConjugatedSingleBond NonConjugatedSingleBond NonConjugatedSingleBond ConjugatedSingleBond ConjugatedSingleBond ConjugatedDoubleBond ConjugatedSingleBond
M  BCL CHI   1   S   3   R   5   R  20   R  26   R
M  BCL DBI -
M  END
> <ConfClashScore>
0 

> <ConfOneFourInteractionScore>
-0.993347 

> <ConfScore>
-0.330971 

> <ConfScorePBest>
0.0143775 

> <ConfTolerance>
0.333397 

$$$$
L08.****
  PyMOL2.5          3D                             0

 27 27  0  0  0  0  0  0  0  0999 V2000
   11.7856   -4.9848    0.0090 C   0  0  0  1  0  0  0  0  0  0  0  0
   12.1837   -5.6825   -0.6979 H   0  0  0  1  0  0  0  0  0  0  0  0
   10.7041   -4.1238   -0.6215 C   0  0  0  1  0  0  0  0  0  0  0  0
   10.9268   -3.9060   -1.6451 H   0  0  0  1  0  0  0  0  0  0  0  0
   10.7666   -2.8716    0.2371 C   0  0  0  1  0  0  0  0  0  0  0  0
   10.4010   -2.0256   -0.3066 H   0  0  0  1  0  0  0  0  0  0  0  0
   11.2840   -5.6907    1.1449 O   0  0  0  1  0  0  0  0  0  0  0  0
   11.8824   -6.4080    1.3664 H   0  0  0  1  0  0  0  0  0  0  0  0
    9.4262   -4.7493   -0.5352 O   0  0  0  1  0  0  0  0  0  0  0  0
    9.2616   -5.2537   -1.3353 H   0  0  0  1  0  0  0  0  0  0  0  0
   12.1523   -2.7025    0.5559 O   0  0  0  1  0  0  0  0  0  0  0  0
    9.9826   -3.0453    1.4489 C   0  0  0  1  0  0  0  0  0  0  0  0
   10.3578   -3.8954    1.9794 H   0  0  0  1  0  0  0  0  0  0  0  0
    8.9629   -3.2172    1.1742 H   0  0  0  1  0  0  0  0  0  0  0  0
   13.4550   -4.3612    1.7246 C   0  0  0  1  0  0  0  0  0  0  0  0
   13.9213   -5.3197    1.6309 H   0  0  0  1  0  0  0  0  0  0  0  0
   14.1856   -3.6355    2.0152 H   0  0  0  1  0  0  0  0  0  0  0  0
   12.4166   -4.4193    2.6936 O   0  0  0  1  0  0  0  0  0  0  0  0
   12.3792   -5.3014    3.0707 H   0  0  0  1  0  0  0  0  0  0  0  0
   12.8307   -3.9650    0.4176 C   0  0  0  1  0  0  0  0  0  0  0  0
   13.8302   -3.8722   -0.5725 O   0  0  0  1  0  0  0  0  0  0  0  0
   13.4737   -4.1611   -1.4158 H   0  0  0  1  0  0  0  0  0  0  0  0
   10.0376   -1.8938    2.3235 O   0  0  0  1  0  0  0  0  0  0  0  0
    9.2370   -0.2231    4.2907 O   0  0  0  0  0  0  0  0  0  0  0  0
    9.4339   -2.7939    4.5839 O   0  0  0  1  0  0  0  0  0  0  0  0
    9.0700   -1.7173    3.6358 P   0  0  0  1  0  0  0  0  0  0  0  0
    7.5364   -1.8612    3.1339 O   0  5  0  1  0  0  0  0  0  0  0  0
  1  2  1  0  0  0  0
  1  3  1  0  0  0  0
  1  7  1  0  0  0  0
  1 20  1  0  0  0  0
  3  4  1  0  0  0  0
  3  5  1  0  0  0  0
  3  9  1  0  0  0  0
  5  6  1  0  0  0  0
  5 11  1  0  0  0  0
  5 12  1  0  0  0  0
  7  8  1  0  0  0  0
  9 10  1  0  0  0  0
 11 20  1  0  0  0  0
 12 13  1  0  0  0  0
 12 14  1  0  0  0  0
 12 23  1  0  0  0  0
 15 16  1  0  0  0  0
 15 17  1  0  0  0  0
 15 18  1  0  0  0  0
 15 20  1  0  0  0  0
 18 19  1  0  0  0  0
 20 21  1  0  0  0  0
 21 22  1  0  0  0  0
 23 26  1  0  0  0  0
 24 26  1  0  0  0  0
 25 26  2  0  0  0  0
 26 27  1  0  0  0  0
M  BCL ATM C_TeTeTeTe H_S C_TeTeTeTe H_S C_TeTeTeTe H_S O_Te2Te2TeTe H_S O_Te2Te2TeTe H_S O_Te2Te2TeTe C_TeTeTeTe H_S H_S C_TeTeTeTe H_S H_S O_Te2Te2TeTe H_S C_TeTeTeTe O_Te2Te2TeTe H_S O_Tr2TrTrPi2 O_Te2Te2TeTe O_Tr2Tr2TrPi P_TeTeTeTePi O_Te2Te2Te2Te
M  BCL BND NonConjugatedSingleBond NonConjugatedSingleBondInRing NonConjugatedSingleBond NonConjugatedSingleBondInRing NonConjugatedSingleBond NonConjugatedSingleBondInRing NonConjugatedSingleBond NonConjugatedSingleBond NonConjugatedSingleBondInRing NonConjugatedSingleBond NonConjugatedSingleBond NonConjugatedSingleBond NonConjugatedSingleBondInRing NonConjugatedSingleBond NonConjugatedSingleBond NonConjugatedSingleBond NonConjugatedSingleBond NonConjugatedSingleBond NonConjugatedSingleBond NonConjugatedSingleBond NonConjugatedSingleBond NonConjugatedSingleBond NonConjugatedSingleBond ConjugatedSingleBond ConjugatedSingleBond ConjugatedDoubleBond ConjugatedSingleBond
M  BCL CHI   1   S   3   R   5   R  20   R  26   R
M  BCL DBI -
M  END
> <ConfClashScore>
0 

> <ConfOneFourInteractionScore>
-0.980422 

> <ConfScore>
-0.326846 

> <ConfScorePBest>
0.0142745 

> <ConfTolerance>
0.423741 

$$$$
L08.****
  PyMOL2.5          3D                             0

 27 27  0  0  0  0  0  0  0  0999 V2000
   11.9855   -4.9105   -0.2375 C   0  0  0  1  0  0  0  0  0  0  0  0
   12.4757   -5.0607   -1.1767 H   0  0  0  1  0  0  0  0  0  0  0  0
   10.5741   -4.4162   -0.4382 C   0  0  0  1  0  0  0  0  0  0  0  0
   10.1335   -4.8471   -1.3130 H   0  0  0  1  0  0  0  0  0  0  0  0
   10.7745   -2.9283   -0.6033 C   0  0  0  1  0  0  0  0  0  0  0  0
   11.0011   -2.6908   -1.6217 H   0  0  0  1  0  0  0  0  0  0  0  0
   11.9990   -6.1290    0.5076 O   0  0  0  1  0  0  0  0  0  0  0  0
   11.5465   -6.8139    0.0100 H   0  0  0  1  0  0  0  0  0  0  0  0
    9.7585   -4.7052    0.6982 O   0  0  0  1  0  0  0  0  0  0  0  0
    8.8766   -4.9475    0.4064 H   0  0  0  1  0  0  0  0  0  0  0  0
   11.8861   -2.6012    0.2507 O   0  0  0  1  0  0  0  0  0  0  0  0
    9.5512   -2.1847   -0.1784 C   0  0  0  1  0  0  0  0  0  0  0  0
    8.7160   -2.4855   -0.7758 H   0  0  0  1  0  0  0  0  0  0  0  0
    9.7081   -1.1320   -0.2881 H   0  0  0  1  0  0  0  0  0  0  0  0
   12.5975   -4.0890    2.0230 C   0  0  0  1  0  0  0  0  0  0  0  0
   11.5828   -4.1040    2.3623 H   0  0  0  1  0  0  0  0  0  0  0  0
   13.0535   -5.0370    2.2186 H   0  0  0  1  0  0  0  0  0  0  0  0
   13.3163   -3.0583    2.6876 O   0  0  0  1  0  0  0  0  0  0  0  0
   14.2102   -3.0159    2.3403 H   0  0  0  1  0  0  0  0  0  0  0  0
   12.6418   -3.7911    0.5429 C   0  0  0  1  0  0  0  0  0  0  0  0
   13.9820   -3.6314    0.1349 O   0  0  0  1  0  0  0  0  0  0  0  0
   14.5631   -4.0566    0.7697 H   0  0  0  1  0  0  0  0  0  0  0  0
    9.3052   -2.5016    1.2010 O   0  0  0  1  0  0  0  0  0  0  0  0
    7.9709   -2.8740    3.4577 O   0  0  0  0  0  0  0  0  0  0  0  0
    6.7898   -2.2513    1.2827 O   0  0  0  1  0  0  0  0  0  0  0  0
    8.0134   -1.9939    2.0745 P   0  0  0  1  0  0  0  0  0  0  0  0
    8.2605   -0.4578    2.5259 O   0  5  0  1  0  0  0  0  0  0  0  0
  1  2  1  0  0  0  0
  1  3  1  0  0  0  0
  1  7  1  0  0  0  0
  1 20  1  0  0  0  0
  3  4  1  0  0  0  0
  3  5  1  0  0  0  0
  3  9  1  0  0  0  0
  5  6  1  0  0  0  0
  5 11  1  0  0  0  0
  5 12  1  0  0  0  0
  7  8  1  0  0  0  0
  9 10  1  0  0  0  0
 11 20  1  0  0  0  0
 12 13  1  0  0  0  0
 12 14  1  0  0  0  0
 12 23  1  0  0  0  0
 15 16  1  0  0  0  0
 15 17  1  0  0  0  0
 15 18  1  0  0  0  0
 15 20  1  0  0  0  0
 18 19  1  0  0  0  0
 20 21  1  0  0  0  0
 21 22  1  0  0  0  0
 23 26  1  0  0  0  0
 24 26  1  0  0  0  0
 25 26  2  0  0  0  0
 26 27  1  0  0  0  0
M  BCL ATM C_TeTeTeTe H_S C_TeTeTeTe H_S C_TeTeTeTe H_S O_Te2Te2TeTe H_S O_Te2Te2TeTe H_S O_Te2Te2TeTe C_TeTeTeTe H_S H_S C_TeTeTeTe H_S H_S O_Te2Te2TeTe H_S C_TeTeTeTe O_Te2Te2TeTe H_S O_Tr2TrTrPi2 O_Te2Te2TeTe O_Tr2Tr2TrPi P_TeTeTeTePi O_Te2Te2Te2Te
M  BCL BND NonConjugatedSingleBond NonConjugatedSingleBondInRing NonConjugatedSingleBond NonConjugatedSingleBondInRing NonConjugatedSingleBond NonConjugatedSingleBondInRing NonConjugatedSingleBond NonConjugatedSingleBond NonConjugatedSingleBondInRing NonConjugatedSingleBond NonConjugatedSingleBond NonConjugatedSingleBond NonConjugatedSingleBondInRing NonConjugatedSingleBond NonConjugatedSingleBond NonConjugatedSingleBond NonConjugatedSingleBond NonConjugatedSingleBond NonConjugatedSingleBond NonConjugatedSingleBond NonConjugatedSingleBond NonConjugatedSingleBond NonConjugatedSingleBond ConjugatedSingleBond ConjugatedSingleBond ConjugatedDoubleBond ConjugatedSingleBond
M  BCL CHI   1   S   3   R   5   R  20   R  26   R
M  BCL DBI -
M  END
> <ConfClashScore>
0 

> <ConfOneFourInteractionScore>
-0.990322 

> <ConfScore>
-0.325568 

> <ConfScorePBest>
0.0141715 

> <ConfTolerance>
0.404161 

$$$$
L08.****
  PyMOL2.5          3D                             0

 27 27  0  0  0  0  0  0  0  0999 V2000
   11.8053   -5.1347   -0.0748 C   0  0  0  1  0  0  0  0  0  0  0  0
   12.1509   -5.7942   -0.8433 H   0  0  0  1  0  0  0  0  0  0  0  0
   10.7030   -4.2212   -0.5838 C   0  0  0  1  0  0  0  0  0  0  0  0
   10.8680   -3.9507   -1.6058 H   0  0  0  1  0  0  0  0  0  0  0  0
   10.8205   -3.0142    0.3264 C   0  0  0  1  0  0  0  0  0  0  0  0
   10.6284   -2.1177   -0.2252 H   0  0  0  1  0  0  0  0  0  0  0  0
   11.3692   -5.8998    1.0497 O   0  0  0  1  0  0  0  0  0  0  0  0
   11.6794   -6.8040    0.9617 H   0  0  0  1  0  0  0  0  0  0  0  0
    9.4220   -4.8398   -0.4552 O   0  0  0  1  0  0  0  0  0  0  0  0
    8.8245   -4.4793   -1.1145 H   0  0  0  1  0  0  0  0  0  0  0  0
   12.1673   -3.0030    0.8355 O   0  0  0  1  0  0  0  0  0  0  0  0
    9.8583   -3.1233    1.4399 C   0  0  0  1  0  0  0  0  0  0  0  0
    8.8626   -3.0733    1.0513 H   0  0  0  1  0  0  0  0  0  0  0  0
   10.0163   -2.3146    2.1225 H   0  0  0  1  0  0  0  0  0  0  0  0
   13.7784   -4.7144    1.3720 C   0  0  0  1  0  0  0  0  0  0  0  0
   14.4915   -3.9817    1.6876 H   0  0  0  1  0  0  0  0  0  0  0  0
   13.1986   -5.0338    2.2126 H   0  0  0  1  0  0  0  0  0  0  0  0
   14.4489   -5.8267    0.7941 O   0  0  0  1  0  0  0  0  0  0  0  0
   14.8158   -6.3767    1.4902 H   0  0  0  1  0  0  0  0  0  0  0  0
   12.8785   -4.1337    0.3194 C   0  0  0  1  0  0  0  0  0  0  0  0
   13.6459   -3.7639   -0.8042 O   0  0  0  1  0  0  0  0  0  0  0  0
   13.7468   -2.8094   -0.8232 H   0  0  0  1  0  0  0  0  0  0  0  0
   10.0322   -4.3609    2.1292 O   0  0  0  1  0  0  0  0  0  0  0  0
    9.6314   -6.5056    3.6993 O   0  0  0  0  0  0  0  0  0  0  0  0
    7.7197   -4.8410    2.9970 O   0  0  0  1  0  0  0  0  0  0  0  0
    9.1468   -4.9748    3.3657 P   0  0  0  1  0  0  0  0  0  0  0  0
    9.4633   -4.0807    4.6790 O   0  5  0  1  0  0  0  0  0  0  0  0
  1  2  1  0  0  0  0
  1  3  1  0  0  0  0
  1  7  1  0  0  0  0
  1 20  1  0  0  0  0
  3  4  1  0  0  0  0
  3  5  1  0  0  0  0
  3  9  1  0  0  0  0
  5  6  1  0  0  0  0
  5 11  1  0  0  0  0
  5 12  1  0  0  0  0
  7  8  1  0  0  0  0
  9 10  1  0  0  0  0
 11 20  1  0  0  0  0
 12 13  1  0  0  0  0
 12 14  1  0  0  0  0
 12 23  1  0  0  0  0
 15 16  1  0  0  0  0
 15 17  1  0  0  0  0
 15 18  1  0  0  0  0
 15 20  1  0  0  0  0
 18 19  1  0  0  0  0
 20 21  1  0  0  0  0
 21 22  1  0  0  0  0
 23 26  1  0  0  0  0
 24 26  1  0  0  0  0
 25 26  2  0  0  0  0
 26 27  1  0  0  0  0
M  BCL ATM C_TeTeTeTe H_S C_TeTeTeTe H_S C_TeTeTeTe H_S O_Te2Te2TeTe H_S O_Te2Te2TeTe H_S O_Te2Te2TeTe C_TeTeTeTe H_S H_S C_TeTeTeTe H_S H_S O_Te2Te2TeTe H_S C_TeTeTeTe O_Te2Te2TeTe H_S O_Tr2TrTrPi2 O_Te2Te2TeTe O_Tr2Tr2TrPi P_TeTeTeTePi O_Te2Te2Te2Te
M  BCL BND NonConjugatedSingleBond NonConjugatedSingleBondInRing NonConjugatedSingleBond NonConjugatedSingleBondInRing NonConjugatedSingleBond NonConjugatedSingleBondInRing NonConjugatedSingleBond NonConjugatedSingleBond NonConjugatedSingleBondInRing NonConjugatedSingleBond NonConjugatedSingleBond NonConjugatedSingleBond NonConjugatedSingleBondInRing NonConjugatedSingleBond NonConjugatedSingleBond NonConjugatedSingleBond NonConjugatedSingleBond NonConjugatedSingleBond NonConjugatedSingleBond NonConjugatedSingleBond NonConjugatedSingleBond NonConjugatedSingleBond NonConjugatedSingleBond ConjugatedSingleBond ConjugatedSingleBond ConjugatedDoubleBond ConjugatedSingleBond
M  BCL CHI   1   S   3   R   5   R  20   R  26   R
M  BCL DBI -
M  END
> <ConfClashScore>
0 

> <ConfOneFourInteractionScore>
-0.989543 

> <ConfScore>
-0.324053 

> <ConfScorePBest>
0.0140685 

> <ConfTolerance>
0.42097 

$$$$
L08.****
  PyMOL2.5          3D                             0

 27 27  0  0  0  0  0  0  0  0999 V2000
   11.7859   -4.9559   -0.3533 C   0  0  0  1  0  0  0  0  0  0  0  0
   12.2928   -5.0946   -1.2854 H   0  0  0  1  0  0  0  0  0  0  0  0
   10.4581   -4.2690   -0.5580 C   0  0  0  1  0  0  0  0  0  0  0  0
   10.0044   -4.5697   -1.4792 H   0  0  0  1  0  0  0  0  0  0  0  0
   10.8518   -2.8112   -0.5927 C   0  0  0  1  0  0  0  0  0  0  0  0
   11.1499   -2.5264   -1.5800 H   0  0  0  1  0  0  0  0  0  0  0  0
   11.6135   -6.2203    0.2883 O   0  0  0  1  0  0  0  0  0  0  0  0
   12.4679   -6.5564    0.5690 H   0  0  0  1  0  0  0  0  0  0  0  0
    9.5647   -4.5378    0.5235 O   0  0  0  1  0  0  0  0  0  0  0  0
    9.1739   -5.4070    0.4079 H   0  0  0  1  0  0  0  0  0  0  0  0
   11.9582   -2.6984    0.3210 O   0  0  0  1  0  0  0  0  0  0  0  0
    9.7286   -1.9613   -0.1527 C   0  0  0  1  0  0  0  0  0  0  0  0
    8.9146   -2.0703   -0.8386 H   0  0  0  1  0  0  0  0  0  0  0  0
   10.0460   -0.9396   -0.1346 H   0  0  0  1  0  0  0  0  0  0  0  0
   12.4016   -4.3938    1.9661 C   0  0  0  1  0  0  0  0  0  0  0  0
   12.8815   -3.6517    2.5693 H   0  0  0  1  0  0  0  0  0  0  0  0
   11.3582   -4.4250    2.2011 H   0  0  0  1  0  0  0  0  0  0  0  0
   12.9622   -5.6495    2.2840 O   0  0  0  1  0  0  0  0  0  0  0  0
   13.2358   -5.6546    3.2042 H   0  0  0  1  0  0  0  0  0  0  0  0
   12.5444   -3.9952    0.5380 C   0  0  0  1  0  0  0  0  0  0  0  0
   13.9102   -3.9788    0.1882 O   0  0  0  1  0  0  0  0  0  0  0  0
   14.4405   -3.8273    0.9740 H   0  0  0  1  0  0  0  0  0  0  0  0
    9.2901   -2.3487    1.1742 O   0  0  0  1  0  0  0  0  0  0  0  0
    8.1643   -1.9413    3.5700 O   0  0  0  0  0  0  0  0  0  0  0  0
    6.8670   -1.2257    1.4993 O   0  0  0  1  0  0  0  0  0  0  0  0
    8.2399   -1.4142    2.0189 P   0  0  0  1  0  0  0  0  0  0  0  0
    8.8831    0.0320    2.3641 O   0  5  0  1  0  0  0  0  0  0  0  0
  1  2  1  0  0  0  0
  1  3  1  0  0  0  0
  1  7  1  0  0  0  0
  1 20  1  0  0  0  0
  3  4  1  0  0  0  0
  3  5  1  0  0  0  0
  3  9  1  0  0  0  0
  5  6  1  0  0  0  0
  5 11  1  0  0  0  0
  5 12  1  0  0  0  0
  7  8  1  0  0  0  0
  9 10  1  0  0  0  0
 11 20  1  0  0  0  0
 12 13  1  0  0  0  0
 12 14  1  0  0  0  0
 12 23  1  0  0  0  0
 15 16  1  0  0  0  0
 15 17  1  0  0  0  0
 15 18  1  0  0  0  0
 15 20  1  0  0  0  0
 18 19  1  0  0  0  0
 20 21  1  0  0  0  0
 21 22  1  0  0  0  0
 23 26  1  0  0  0  0
 24 26  1  0  0  0  0
 25 26  2  0  0  0  0
 26 27  1  0  0  0  0
M  BCL ATM C_TeTeTeTe H_S C_TeTeTeTe H_S C_TeTeTeTe H_S O_Te2Te2TeTe H_S O_Te2Te2TeTe H_S O_Te2Te2TeTe C_TeTeTeTe H_S H_S C_TeTeTeTe H_S H_S O_Te2Te2TeTe H_S C_TeTeTeTe O_Te2Te2TeTe H_S O_Tr2TrTrPi2 O_Te2Te2TeTe O_Tr2Tr2TrPi P_TeTeTeTePi O_Te2Te2Te2Te
M  BCL BND NonConjugatedSingleBond NonConjugatedSingleBondInRing NonConjugatedSingleBond NonConjugatedSingleBondInRing NonConjugatedSingleBond NonConjugatedSingleBondInRing NonConjugatedSingleBond NonConjugatedSingleBond NonConjugatedSingleBondInRing NonConjugatedSingleBond NonConjugatedSingleBond NonConjugatedSingleBond NonConjugatedSingleBondInRing NonConjugatedSingleBond NonConjugatedSingleBond NonConjugatedSingleBond NonConjugatedSingleBond NonConjugatedSingleBond NonConjugatedSingleBond NonConjugatedSingleBond NonConjugatedSingleBond NonConjugatedSingleBond NonConjugatedSingleBond ConjugatedSingleBond ConjugatedSingleBond ConjugatedDoubleBond ConjugatedSingleBond
M  BCL CHI   1   S   3   R   5   R  20   R  26   R
M  BCL DBI -
M  END
> <ConfClashScore>
0 

> <ConfOneFourInteractionScore>
-0.990322 

> <ConfScore>
-0.322575 

> <ConfScorePBest>
0.0139655 

> <ConfTolerance>
0.383949 

$$$$
L08.****
  PyMOL2.5          3D                             0

 27 27  0  0  0  0  0  0  0  0999 V2000
   11.8666   -4.9768    0.0132 C   0  0  0  1  0  0  0  0  0  0  0  0
   12.3846   -5.7002   -0.5811 H   0  0  0  1  0  0  0  0  0  0  0  0
   10.7883   -4.2700   -0.7906 C   0  0  0  1  0  0  0  0  0  0  0  0
   11.0921   -4.1346   -1.8076 H   0  0  0  1  0  0  0  0  0  0  0  0
   10.6574   -2.9381   -0.0779 C   0  0  0  1  0  0  0  0  0  0  0  0
   10.4825   -2.1568   -0.7878 H   0  0  0  1  0  0  0  0  0  0  0  0
   11.3207   -5.6127    1.1698 O   0  0  0  1  0  0  0  0  0  0  0  0
   10.8537   -6.4093    0.9072 H   0  0  0  1  0  0  0  0  0  0  0  0
    9.5632   -4.9941   -0.7530 O   0  0  0  1  0  0  0  0  0  0  0  0
    9.4268   -5.3476    0.1291 H   0  0  0  1  0  0  0  0  0  0  0  0
   11.8994   -2.7093    0.6138 O   0  0  0  1  0  0  0  0  0  0  0  0
    9.5414   -2.9864    0.8863 C   0  0  0  1  0  0  0  0  0  0  0  0
    9.4815   -2.0513    1.4031 H   0  0  0  1  0  0  0  0  0  0  0  0
    9.7177   -3.7728    1.5902 H   0  0  0  1  0  0  0  0  0  0  0  0
   13.5402   -4.1427    1.6464 C   0  0  0  1  0  0  0  0  0  0  0  0
   12.8671   -4.4680    2.4120 H   0  0  0  1  0  0  0  0  0  0  0  0
   14.2560   -4.9132    1.4492 H   0  0  0  1  0  0  0  0  0  0  0  0
   14.2071   -2.9535    2.0585 O   0  0  0  1  0  0  0  0  0  0  0  0
   13.8298   -2.1992    1.5999 H   0  0  0  1  0  0  0  0  0  0  0  0
   12.7757   -3.8204    0.3945 C   0  0  0  1  0  0  0  0  0  0  0  0
   13.6800   -3.5379   -0.6497 O   0  0  0  1  0  0  0  0  0  0  0  0
   14.4737   -4.0662   -0.5380 H   0  0  0  1  0  0  0  0  0  0  0  0
    8.2914   -3.2324    0.2002 O   0  0  0  1  0  0  0  0  0  0  0  0
    5.6989   -3.8351    0.0459 O   0  0  0  0  0  0  0  0  0  0  0  0
    6.6104   -1.8275    1.4642 O   0  0  0  1  0  0  0  0  0  0  0  0
    6.8677   -3.2137    1.0141 P   0  0  0  1  0  0  0  0  0  0  0  0
    7.0452   -4.2143    2.2758 O   0  5  0  1  0  0  0  0  0  0  0  0
  1  2  1  0  0  0  0
  1  3  1  0  0  0  0
  1  7  1  0  0  0  0
  1 20  1  0  0  0  0
  3  4  1  0  0  0  0
  3  5  1  0  0  0  0
  3  9  1  0  0  0  0
  5  6  1  0  0  0  0
  5 11  1  0  0  0  0
  5 12  1  0  0  0  0
  7  8  1  0  0  0  0
  9 10  1  0  0  0  0
 11 20  1  0  0  0  0
 12 13  1  0  0  0  0
 12 14  1  0  0  0  0
 12 23  1  0  0  0  0
 15 16  1  0  0  0  0
 15 17  1  0  0  0  0
 15 18  1  0  0  0  0
 15 20  1  0  0  0  0
 18 19  1  0  0  0  0
 20 21  1  0  0  0  0
 21 22  1  0  0  0  0
 23 26  1  0  0  0  0
 24 26  1  0  0  0  0
 25 26  2  0  0  0  0
 26 27  1  0  0  0  0
M  BCL ATM C_TeTeTeTe H_S C_TeTeTeTe H_S C_TeTeTeTe H_S O_Te2Te2TeTe H_S O_Te2Te2TeTe H_S O_Te2Te2TeTe C_TeTeTeTe H_S H_S C_TeTeTeTe H_S H_S O_Te2Te2TeTe H_S C_TeTeTeTe O_Te2Te2TeTe H_S O_Tr2TrTrPi2 O_Te2Te2TeTe O_Tr2Tr2TrPi P_TeTeTeTePi O_Te2Te2Te2Te
M  BCL BND NonConjugatedSingleBond NonConjugatedSingleBondInRing NonConjugatedSingleBond NonConjugatedSingleBondInRing NonConjugatedSingleBond NonConjugatedSingleBondInRing NonConjugatedSingleBond NonConjugatedSingleBond NonConjugatedSingleBondInRing NonConjugatedSingleBond NonConjugatedSingleBond NonConjugatedSingleBond NonConjugatedSingleBondInRing NonConjugatedSingleBond NonConjugatedSingleBond NonConjugatedSingleBond NonConjugatedSingleBond NonConjugatedSingleBond NonConjugatedSingleBond NonConjugatedSingleBond NonConjugatedSingleBond NonConjugatedSingleBond NonConjugatedSingleBond ConjugatedSingleBond ConjugatedSingleBond ConjugatedDoubleBond ConjugatedSingleBond
M  BCL CHI   1   S   3   R   5   R  20   R  26   R
M  BCL DBI -
M  END
> <ConfClashScore>
0 

> <ConfOneFourInteractionScore>
-0.983447 

> <ConfScore>
-0.321191 

> <ConfScorePBest>
0.0138625 

> <ConfTolerance>
0.380423 

$$$$
L08.****
  PyMOL2.5          3D                             0

 27 27  0  0  0  0  0  0  0  0999 V2000
   12.0467   -5.0487   -0.0647 C   0  0  0  1  0  0  0  0  0  0  0  0
   12.5576   -5.6256   -0.8071 H   0  0  0  1  0  0  0  0  0  0  0  0
   10.8543   -4.3209   -0.6622 C   0  0  0  1  0  0  0  0  0  0  0  0
   11.0550   -4.0000   -1.6631 H   0  0  0  1  0  0  0  0  0  0  0  0
   10.7107   -3.1376    0.2802 C   0  0  0  1  0  0  0  0  0  0  0  0
   10.2266   -2.3214   -0.2140 H   0  0  0  1  0  0  0  0  0  0  0  0
   11.6442   -5.9013    1.0082 O   0  0  0  1  0  0  0  0  0  0  0  0
   10.7020   -5.8002    1.1616 H   0  0  0  1  0  0  0  0  0  0  0  0
    9.6848   -5.1408   -0.6499 O   0  0  0  1  0  0  0  0  0  0  0  0
    8.9408   -4.6432   -0.9970 H   0  0  0  1  0  0  0  0  0  0  0  0
   12.0492   -2.7814    0.6438 O   0  0  0  1  0  0  0  0  0  0  0  0
    9.9252   -3.5245    1.4899 C   0  0  0  1  0  0  0  0  0  0  0  0
    9.8154   -2.6714    2.1263 H   0  0  0  1  0  0  0  0  0  0  0  0
   10.4456   -4.2977    2.0155 H   0  0  0  1  0  0  0  0  0  0  0  0
   13.5767   -4.3001    1.7317 C   0  0  0  1  0  0  0  0  0  0  0  0
   12.8291   -4.5929    2.4389 H   0  0  0  1  0  0  0  0  0  0  0  0
   14.2447   -5.1180    1.5589 H   0  0  0  1  0  0  0  0  0  0  0  0
   14.3068   -3.1944    2.2465 O   0  0  0  1  0  0  0  0  0  0  0  0
   13.7246   -2.6443    2.7755 H   0  0  0  1  0  0  0  0  0  0  0  0
   12.9161   -3.9124    0.4374 C   0  0  0  1  0  0  0  0  0  0  0  0
   13.9031   -3.5981   -0.5192 O   0  0  0  1  0  0  0  0  0  0  0  0
   13.5536   -3.7467   -1.4009 H   0  0  0  1  0  0  0  0  0  0  0  0
    8.5865   -4.0167    1.1003 O   0  0  0  1  0  0  0  0  0  0  0  0
    6.2621   -5.3103    1.4561 O   0  0  0  0  0  0  0  0  0  0  0  0
    7.3084   -3.7223    3.2755 O   0  0  0  1  0  0  0  0  0  0  0  0
    7.5895   -4.7054    2.2054 P   0  0  0  1  0  0  0  0  0  0  0  0
    8.4313   -5.9581    2.7941 O   0  5  0  1  0  0  0  0  0  0  0  0
  1  2  1  0  0  0  0
  1  3  1  0  0  0  0
  1  7  1  0  0  0  0
  1 20  1  0  0  0  0
  3  4  1  0  0  0  0
  3  5  1  0  0  0  0
  3  9  1  0  0  0  0
  5  6  1  0  0  0  0
  5 11  1  0  0  0  0
  5 12  1  0  0  0  0
  7  8  1  0  0  0  0
  9 10  1  0  0  0  0
 11 20  1  0  0  0  0
 12 13  1  0  0  0  0
 12 14  1  0  0  0  0
 12 23  1  0  0  0  0
 15 16  1  0  0  0  0
 15 17  1  0  0  0  0
 15 18  1  0  0  0  0
 15 20  1  0  0  0  0
 18 19  1  0  0  0  0
 20 21  1  0  0  0  0
 21 22  1  0  0  0  0
 23 26  1  0  0  0  0
 24 26  1  0  0  0  0
 25 26  2  0  0  0  0
 26 27  1  0  0  0  0
M  BCL ATM C_TeTeTeTe H_S C_TeTeTeTe H_S C_TeTeTeTe H_S O_Te2Te2TeTe H_S O_Te2Te2TeTe H_S O_Te2Te2TeTe C_TeTeTeTe H_S H_S C_TeTeTeTe H_S H_S O_Te2Te2TeTe H_S C_TeTeTeTe O_Te2Te2TeTe H_S O_Tr2TrTrPi2 O_Te2Te2TeTe O_Tr2Tr2TrPi P_TeTeTeTePi O_Te2Te2Te2Te
M  BCL BND NonConjugatedSingleBond NonConjugatedSingleBondInRing NonConjugatedSingleBond NonConjugatedSingleBondInRing NonConjugatedSingleBond NonConjugatedSingleBondInRing NonConjugatedSingleBond NonConjugatedSingleBond NonConjugatedSingleBondInRing NonConjugatedSingleBond NonConjugatedSingleBond NonConjugatedSingleBond NonConjugatedSingleBondInRing NonConjugatedSingleBond NonConjugatedSingleBond NonConjugatedSingleBond NonConjugatedSingleBond NonConjugatedSingleBond NonConjugatedSingleBond NonConjugatedSingleBond NonConjugatedSingleBond NonConjugatedSingleBond NonConjugatedSingleBond ConjugatedSingleBond ConjugatedSingleBond ConjugatedDoubleBond ConjugatedSingleBond
M  BCL CHI   1   S   3   R   5   R  20   R  26   R
M  BCL DBI -
M  END
> <ConfClashScore>
0 

> <ConfOneFourInteractionScore>
-0.983447 

> <ConfScore>
-0.309942 

> <ConfScorePBest>
0.0137595 

> <ConfTolerance>
0.482949 

$$$$
L08.****
  PyMOL2.5          3D                             0

 27 27  0  0  0  0  0  0  0  0999 V2000
   11.9345   -5.0387   -0.0034 C   0  0  0  1  0  0  0  0  0  0  0  0
   12.4276   -5.7185   -0.6665 H   0  0  0  1  0  0  0  0  0  0  0  0
   10.8810   -4.2212   -0.7318 C   0  0  0  1  0  0  0  0  0  0  0  0
   11.1894   -3.9987   -1.7319 H   0  0  0  1  0  0  0  0  0  0  0  0
   10.7955   -2.9607    0.1066 C   0  0  0  1  0  0  0  0  0  0  0  0
   10.6475   -2.1090   -0.5240 H   0  0  0  1  0  0  0  0  0  0  0  0
   11.3716   -5.7586    1.0794 O   0  0  0  1  0  0  0  0  0  0  0  0
   10.6415   -6.2953    0.7624 H   0  0  0  1  0  0  0  0  0  0  0  0
    9.6277   -4.9059   -0.7605 O   0  0  0  1  0  0  0  0  0  0  0  0
    9.4448   -5.2759    0.1062 H   0  0  0  1  0  0  0  0  0  0  0  0
   12.0445   -2.8421    0.8131 O   0  0  0  1  0  0  0  0  0  0  0  0
    9.6784   -3.0640    1.0652 C   0  0  0  1  0  0  0  0  0  0  0  0
    8.7544   -3.1002    0.5269 H   0  0  0  1  0  0  0  0  0  0  0  0
    9.6846   -2.2079    1.7070 H   0  0  0  1  0  0  0  0  0  0  0  0
   13.6292   -4.4197    1.6874 C   0  0  0  1  0  0  0  0  0  0  0  0
   14.2602   -5.2330    1.3953 H   0  0  0  1  0  0  0  0  0  0  0  0
   14.2319   -3.6086    2.0392 H   0  0  0  1  0  0  0  0  0  0  0  0
   12.8132   -4.8564    2.7530 O   0  0  0  1  0  0  0  0  0  0  0  0
   12.9406   -5.7981    2.8892 H   0  0  0  1  0  0  0  0  0  0  0  0
   12.8824   -3.9561    0.4848 C   0  0  0  1  0  0  0  0  0  0  0  0
   13.7960   -3.6048   -0.5301 O   0  0  0  1  0  0  0  0  0  0  0  0
   13.3550   -3.6340   -1.3823 H   0  0  0  1  0  0  0  0  0  0  0  0
    9.8102   -4.2641    1.8687 O   0  0  0  1  0  0  0  0  0  0  0  0
    9.3606   -5.9397    3.7975 O   0  0  0  0  0  0  0  0  0  0  0  0
    7.3933   -4.4091    2.9314 O   0  0  0  1  0  0  0  0  0  0  0  0
    8.8495   -4.5112    3.1747 P   0  0  0  1  0  0  0  0  0  0  0  0
    9.5651   -3.4614    4.1799 O   0  5  0  1  0  0  0  0  0  0  0  0
  1  2  1  0  0  0  0
  1  3  1  0  0  0  0
  1  7  1  0  0  0  0
  1 20  1  0  0  0  0
  3  4  1  0  0  0  0
  3  5  1  0  0  0  0
  3  9  1  0  0  0  0
  5  6  1  0  0  0  0
  5 11  1  0  0  0  0
  5 12  1  0  0  0  0
  7  8  1  0  0  0  0
  9 10  1  0  0  0  0
 11 20  1  0  0  0  0
 12 13  1  0  0  0  0
 12 14  1  0  0  0  0
 12 23  1  0  0  0  0
 15 16  1  0  0  0  0
 15 17  1  0  0  0  0
 15 18  1  0  0  0  0
 15 20  1  0  0  0  0
 18 19  1  0  0  0  0
 20 21  1  0  0  0  0
 21 22  1  0  0  0  0
 23 26  1  0  0  0  0
 24 26  1  0  0  0  0
 25 26  2  0  0  0  0
 26 27  1  0  0  0  0
M  BCL ATM C_TeTeTeTe H_S C_TeTeTeTe H_S C_TeTeTeTe H_S O_Te2Te2TeTe H_S O_Te2Te2TeTe H_S O_Te2Te2TeTe C_TeTeTeTe H_S H_S C_TeTeTeTe H_S H_S O_Te2Te2TeTe H_S C_TeTeTeTe O_Te2Te2TeTe H_S O_Tr2TrTrPi2 O_Te2Te2TeTe O_Tr2Tr2TrPi P_TeTeTeTePi O_Te2Te2Te2Te
M  BCL BND NonConjugatedSingleBond NonConjugatedSingleBondInRing NonConjugatedSingleBond NonConjugatedSingleBondInRing NonConjugatedSingleBond NonConjugatedSingleBondInRing NonConjugatedSingleBond NonConjugatedSingleBond NonConjugatedSingleBondInRing NonConjugatedSingleBond NonConjugatedSingleBond NonConjugatedSingleBond NonConjugatedSingleBondInRing NonConjugatedSingleBond NonConjugatedSingleBond NonConjugatedSingleBond NonConjugatedSingleBond NonConjugatedSingleBond NonConjugatedSingleBond NonConjugatedSingleBond NonConjugatedSingleBond NonConjugatedSingleBond NonConjugatedSingleBond ConjugatedSingleBond ConjugatedSingleBond ConjugatedDoubleBond ConjugatedSingleBond
M  BCL CHI   1   S   3   R   5   R  20   R  26   R
M  BCL DBI -
M  END
> <ConfClashScore>
0 

> <ConfOneFourInteractionScore>
-0.988765 

> <ConfScore>
-0.309021 

> <ConfScorePBest>
0.0136565 

> <ConfTolerance>
0.477091 

$$$$
L08.****
  PyMOL2.5          3D                             0

 27 27  0  0  0  0  0  0  0  0999 V2000
   11.9192   -5.0339   -0.2598 C   0  0  0  1  0  0  0  0  0  0  0  0
   12.5159   -5.1054   -1.1451 H   0  0  0  1  0  0  0  0  0  0  0  0
   10.5742   -4.4172   -0.5559 C   0  0  0  1  0  0  0  0  0  0  0  0
   10.2222   -4.7124   -1.5223 H   0  0  0  1  0  0  0  0  0  0  0  0
   10.8529   -2.9296   -0.5122 C   0  0  0  1  0  0  0  0  0  0  0  0
   11.0392   -2.5581   -1.4982 H   0  0  0  1  0  0  0  0  0  0  0  0
   11.7768   -6.3291    0.3251 O   0  0  0  1  0  0  0  0  0  0  0  0
   12.5639   -6.8492    0.1477 H   0  0  0  1  0  0  0  0  0  0  0  0
    9.6192   -4.7843    0.4290 O   0  0  0  1  0  0  0  0  0  0  0  0
    8.8094   -4.2877    0.2909 H   0  0  0  1  0  0  0  0  0  0  0  0
   12.0213   -2.7640    0.3123 O   0  0  0  1  0  0  0  0  0  0  0  0
    9.6921   -2.2029    0.0833 C   0  0  0  1  0  0  0  0  0  0  0  0
    9.5892   -2.4644    1.1157 H   0  0  0  1  0  0  0  0  0  0  0  0
    8.7948   -2.4579   -0.4409 H   0  0  0  1  0  0  0  0  0  0  0  0
   12.0636   -4.3683    2.1202 C   0  0  0  1  0  0  0  0  0  0  0  0
   12.5018   -3.6774    2.8098 H   0  0  0  1  0  0  0  0  0  0  0  0
   10.9972   -4.3076    2.1828 H   0  0  0  1  0  0  0  0  0  0  0  0
   12.4937   -5.6928    2.4194 O   0  0  0  1  0  0  0  0  0  0  0  0
   12.3657   -5.8677    3.3546 H   0  0  0  1  0  0  0  0  0  0  0  0
   12.5139   -4.0527    0.7225 C   0  0  0  1  0  0  0  0  0  0  0  0
   13.9223   -4.0855    0.6631 O   0  0  0  1  0  0  0  0  0  0  0  0
   14.2403   -3.3230    0.1742 H   0  0  0  1  0  0  0  0  0  0  0  0
    9.9502   -0.7847   -0.0425 O   0  0  0  1  0  0  0  0  0  0  0  0
    9.6085    1.7685    0.3930 O   0  0  0  0  0  0  0  0  0  0  0  0
    8.4721    0.0752    1.8690 O   0  0  0  1  0  0  0  0  0  0  0  0
    8.8446    0.3187    0.4575 P   0  0  0  1  0  0  0  0  0  0  0  0
    7.6016    0.2940   -0.5811 O   0  5  0  1  0  0  0  0  0  0  0  0
  1  2  1  0  0  0  0
  1  3  1  0  0  0  0
  1  7  1  0  0  0  0
  1 20  1  0  0  0  0
  3  4  1  0  0  0  0
  3  5  1  0  0  0  0
  3  9  1  0  0  0  0
  5  6  1  0  0  0  0
  5 11  1  0  0  0  0
  5 12  1  0  0  0  0
  7  8  1  0  0  0  0
  9 10  1  0  0  0  0
 11 20  1  0  0  0  0
 12 13  1  0  0  0  0
 12 14  1  0  0  0  0
 12 23  1  0  0  0  0
 15 16  1  0  0  0  0
 15 17  1  0  0  0  0
 15 18  1  0  0  0  0
 15 20  1  0  0  0  0
 18 19  1  0  0  0  0
 20 21  1  0  0  0  0
 21 22  1  0  0  0  0
 23 26  1  0  0  0  0
 24 26  1  0  0  0  0
 25 26  2  0  0  0  0
 26 27  1  0  0  0  0
M  BCL ATM C_TeTeTeTe H_S C_TeTeTeTe H_S C_TeTeTeTe H_S O_Te2Te2TeTe H_S O_Te2Te2TeTe H_S O_Te2Te2TeTe C_TeTeTeTe H_S H_S C_TeTeTeTe H_S H_S O_Te2Te2TeTe H_S C_TeTeTeTe O_Te2Te2TeTe H_S O_Tr2TrTrPi2 O_Te2Te2TeTe O_Tr2Tr2TrPi P_TeTeTeTePi O_Te2Te2Te2Te
M  BCL BND NonConjugatedSingleBond NonConjugatedSingleBondInRing NonConjugatedSingleBond NonConjugatedSingleBondInRing NonConjugatedSingleBond NonConjugatedSingleBondInRing NonConjugatedSingleBond NonConjugatedSingleBond NonConjugatedSingleBondInRing NonConjugatedSingleBond NonConjugatedSingleBond NonConjugatedSingleBond NonConjugatedSingleBondInRing NonConjugatedSingleBond NonConjugatedSingleBond NonConjugatedSingleBond NonConjugatedSingleBond NonConjugatedSingleBond NonConjugatedSingleBond NonConjugatedSingleBond NonConjugatedSingleBond NonConjugatedSingleBond NonConjugatedSingleBond ConjugatedSingleBond ConjugatedSingleBond ConjugatedDoubleBond ConjugatedSingleBond
M  BCL CHI   1   S   3   R   5   R  20   R  26   R
M  BCL DBI -
M  END
> <ConfClashScore>
0 

> <ConfOneFourInteractionScore>
-0.980422 

> <ConfScore>
-0.304415 

> <ConfScorePBest>
0.0135535 

> <ConfTolerance>
0.298058 

$$$$
L08.****
  PyMOL2.5          3D                             0

 27 27  0  0  0  0  0  0  0  0999 V2000
   11.9026   -4.9397   -0.2990 C   0  0  0  1  0  0  0  0  0  0  0  0
   12.6033   -4.9379   -1.1076 H   0  0  0  1  0  0  0  0  0  0  0  0
   10.5765   -4.3651   -0.7327 C   0  0  0  1  0  0  0  0  0  0  0  0
   10.3598   -4.6160   -1.7501 H   0  0  0  1  0  0  0  0  0  0  0  0
   10.8010   -2.8801   -0.5717 C   0  0  0  1  0  0  0  0  0  0  0  0
   11.2622   -2.4732   -1.4472 H   0  0  0  1  0  0  0  0  0  0  0  0
   11.7459   -6.2713    0.1933 O   0  0  0  1  0  0  0  0  0  0  0  0
   12.5839   -6.5852    0.5409 H   0  0  0  1  0  0  0  0  0  0  0  0
    9.5151   -4.8219    0.1076 O   0  0  0  1  0  0  0  0  0  0  0  0
    9.6994   -4.5782    1.0177 H   0  0  0  1  0  0  0  0  0  0  0  0
   11.6749   -2.7527    0.5649 O   0  0  0  1  0  0  0  0  0  0  0  0
    9.5069   -2.1792   -0.3184 C   0  0  0  1  0  0  0  0  0  0  0  0
    9.6793   -1.1312   -0.1892 H   0  0  0  1  0  0  0  0  0  0  0  0
    9.0435   -2.5760    0.5606 H   0  0  0  1  0  0  0  0  0  0  0  0
   11.9584   -4.5511    2.1343 C   0  0  0  1  0  0  0  0  0  0  0  0
   10.8943   -4.4845    2.2248 H   0  0  0  1  0  0  0  0  0  0  0  0
   12.2565   -5.5780    2.1720 H   0  0  0  1  0  0  0  0  0  0  0  0
   12.5364   -3.8842    3.2358 O   0  0  0  1  0  0  0  0  0  0  0  0
   11.8842   -3.7947    3.9345 H   0  0  0  1  0  0  0  0  0  0  0  0
   12.3468   -4.0031    0.8047 C   0  0  0  1  0  0  0  0  0  0  0  0
   13.7445   -3.8232    0.7599 O   0  0  0  1  0  0  0  0  0  0  0  0
   14.0655   -4.0252   -0.1220 H   0  0  0  1  0  0  0  0  0  0  0  0
    8.6552   -2.4006   -1.4671 O   0  0  0  1  0  0  0  0  0  0  0  0
    6.5467   -2.4051   -2.9980 O   0  0  0  0  0  0  0  0  0  0  0  0
    6.8395   -0.4860   -1.3151 O   0  0  0  1  0  0  0  0  0  0  0  0
    7.0850   -1.9305   -1.5233 P   0  0  0  1  0  0  0  0  0  0  0  0
    6.2056   -2.7288   -0.4216 O   0  5  0  1  0  0  0  0  0  0  0  0
  1  2  1  0  0  0  0
  1  3  1  0  0  0  0
  1  7  1  0  0  0  0
  1 20  1  0  0  0  0
  3  4  1  0  0  0  0
  3  5  1  0  0  0  0
  3  9  1  0  0  0  0
  5  6  1  0  0  0  0
  5 11  1  0  0  0  0
  5 12  1  0  0  0  0
  7  8  1  0  0  0  0
  9 10  1  0  0  0  0
 11 20  1  0  0  0  0
 12 13  1  0  0  0  0
 12 14  1  0  0  0  0
 12 23  1  0  0  0  0
 15 16  1  0  0  0  0
 15 17  1  0  0  0  0
 15 18  1  0  0  0  0
 15 20  1  0  0  0  0
 18 19  1  0  0  0  0
 20 21  1  0  0  0  0
 21 22  1  0  0  0  0
 23 26  1  0  0  0  0
 24 26  1  0  0  0  0
 25 26  2  0  0  0  0
 26 27  1  0  0  0  0
M  BCL ATM C_TeTeTeTe H_S C_TeTeTeTe H_S C_TeTeTeTe H_S O_Te2Te2TeTe H_S O_Te2Te2TeTe H_S O_Te2Te2TeTe C_TeTeTeTe H_S H_S C_TeTeTeTe H_S H_S O_Te2Te2TeTe H_S C_TeTeTeTe O_Te2Te2TeTe H_S O_Tr2TrTrPi2 O_Te2Te2TeTe O_Tr2Tr2TrPi P_TeTeTeTePi O_Te2Te2Te2Te
M  BCL BND NonConjugatedSingleBond NonConjugatedSingleBondInRing NonConjugatedSingleBond NonConjugatedSingleBondInRing NonConjugatedSingleBond NonConjugatedSingleBondInRing NonConjugatedSingleBond NonConjugatedSingleBond NonConjugatedSingleBondInRing NonConjugatedSingleBond NonConjugatedSingleBond NonConjugatedSingleBond NonConjugatedSingleBondInRing NonConjugatedSingleBond NonConjugatedSingleBond NonConjugatedSingleBond NonConjugatedSingleBond NonConjugatedSingleBond NonConjugatedSingleBond NonConjugatedSingleBond NonConjugatedSingleBond NonConjugatedSingleBond NonConjugatedSingleBond ConjugatedSingleBond ConjugatedSingleBond ConjugatedDoubleBond ConjugatedSingleBond
M  BCL CHI   1   S   3   R   5   R  20   R  26   R
M  BCL DBI -
M  END
> <ConfClashScore>
0 

> <ConfOneFourInteractionScore>
-0.983447 

> <ConfScore>
-0.302178 

> <ConfScorePBest>
0.0134505 

> <ConfTolerance>
0.363245 

$$$$
L08.****
  PyMOL2.5          3D                             0

 27 27  0  0  0  0  0  0  0  0999 V2000
   11.8427   -5.1397   -0.0956 C   0  0  0  1  0  0  0  0  0  0  0  0
   12.2359   -5.7747   -0.8618 H   0  0  0  1  0  0  0  0  0  0  0  0
   10.7648   -4.2176   -0.6401 C   0  0  0  1  0  0  0  0  0  0  0  0
   10.9857   -3.9165   -1.6428 H   0  0  0  1  0  0  0  0  0  0  0  0
   10.8220   -3.0371    0.3098 C   0  0  0  1  0  0  0  0  0  0  0  0
   10.6554   -2.1259   -0.2257 H   0  0  0  1  0  0  0  0  0  0  0  0
   11.3486   -5.9397    0.9796 O   0  0  0  1  0  0  0  0  0  0  0  0
   11.8537   -6.7544    1.0313 H   0  0  0  1  0  0  0  0  0  0  0  0
    9.4828   -4.8464   -0.6026 O   0  0  0  1  0  0  0  0  0  0  0  0
    8.8017   -4.1970   -0.7924 H   0  0  0  1  0  0  0  0  0  0  0  0
   12.1376   -3.0337    0.8949 O   0  0  0  1  0  0  0  0  0  0  0  0
    9.7866   -3.1854    1.3756 C   0  0  0  1  0  0  0  0  0  0  0  0
    9.9474   -2.4579    2.1436 H   0  0  0  1  0  0  0  0  0  0  0  0
    9.8363   -4.1673    1.7978 H   0  0  0  1  0  0  0  0  0  0  0  0
   13.7274   -4.7515    1.4728 C   0  0  0  1  0  0  0  0  0  0  0  0
   14.5485   -4.0964    1.6764 H   0  0  0  1  0  0  0  0  0  0  0  0
   13.1288   -4.8583    2.3532 H   0  0  0  1  0  0  0  0  0  0  0  0
   14.2404   -6.0274    1.1125 O   0  0  0  1  0  0  0  0  0  0  0  0
   13.6245   -6.4648    0.5202 H   0  0  0  1  0  0  0  0  0  0  0  0
   12.8847   -4.1451    0.3879 C   0  0  0  1  0  0  0  0  0  0  0  0
   13.7122   -3.7386   -0.6790 O   0  0  0  1  0  0  0  0  0  0  0  0
   13.3047   -2.9998   -1.1370 H   0  0  0  1  0  0  0  0  0  0  0  0
    8.4895   -2.9768    0.7615 O   0  0  0  1  0  0  0  0  0  0  0  0
    5.8889   -2.9955    0.5349 O   0  0  0  0  0  0  0  0  0  0  0  0
    6.9239   -2.4437    2.8341 O   0  0  0  1  0  0  0  0  0  0  0  0
    7.1078   -3.2449    1.6034 P   0  0  0  1  0  0  0  0  0  0  0  0
    7.0246   -4.7938    2.0709 O   0  5  0  1  0  0  0  0  0  0  0  0
  1  2  1  0  0  0  0
  1  3  1  0  0  0  0
  1  7  1  0  0  0  0
  1 20  1  0  0  0  0
  3  4  1  0  0  0  0
  3  5  1  0  0  0  0
  3  9  1  0  0  0  0
  5  6  1  0  0  0  0
  5 11  1  0  0  0  0
  5 12  1  0  0  0  0
  7  8  1  0  0  0  0
  9 10  1  0  0  0  0
 11 20  1  0  0  0  0
 12 13  1  0  0  0  0
 12 14  1  0  0  0  0
 12 23  1  0  0  0  0
 15 16  1  0  0  0  0
 15 17  1  0  0  0  0
 15 18  1  0  0  0  0
 15 20  1  0  0  0  0
 18 19  1  0  0  0  0
 20 21  1  0  0  0  0
 21 22  1  0  0  0  0
 23 26  1  0  0  0  0
 24 26  1  0  0  0  0
 25 26  2  0  0  0  0
 26 27  1  0  0  0  0
M  BCL ATM C_TeTeTeTe H_S C_TeTeTeTe H_S C_TeTeTeTe H_S O_Te2Te2TeTe H_S O_Te2Te2TeTe H_S O_Te2Te2TeTe C_TeTeTeTe H_S H_S C_TeTeTeTe H_S H_S O_Te2Te2TeTe H_S C_TeTeTeTe O_Te2Te2TeTe H_S O_Tr2TrTrPi2 O_Te2Te2TeTe O_Tr2Tr2TrPi P_TeTeTeTePi O_Te2Te2Te2Te
M  BCL BND NonConjugatedSingleBond NonConjugatedSingleBondInRing NonConjugatedSingleBond NonConjugatedSingleBondInRing NonConjugatedSingleBond NonConjugatedSingleBondInRing NonConjugatedSingleBond NonConjugatedSingleBond NonConjugatedSingleBondInRing NonConjugatedSingleBond NonConjugatedSingleBond NonConjugatedSingleBond NonConjugatedSingleBondInRing NonConjugatedSingleBond NonConjugatedSingleBond NonConjugatedSingleBond NonConjugatedSingleBond NonConjugatedSingleBond NonConjugatedSingleBond NonConjugatedSingleBond NonConjugatedSingleBond NonConjugatedSingleBond NonConjugatedSingleBond ConjugatedSingleBond ConjugatedSingleBond ConjugatedDoubleBond ConjugatedSingleBond
M  BCL CHI   1   S   3   R   5   R  20   R  26   R
M  BCL DBI -
M  END
> <ConfClashScore>
0 

> <ConfOneFourInteractionScore>
-0.982248 

> <ConfScore>
-0.299578 

> <ConfScorePBest>
0.0133475 

> <ConfTolerance>
0.363811 

$$$$
L08.****
  PyMOL2.5          3D                             0

 27 27  0  0  0  0  0  0  0  0999 V2000
   11.8590   -4.9755   -0.3001 C   0  0  0  1  0  0  0  0  0  0  0  0
   12.3545   -5.1161   -1.2380 H   0  0  0  1  0  0  0  0  0  0  0  0
   10.4890   -4.3749   -0.4982 C   0  0  0  1  0  0  0  0  0  0  0  0
   10.0356   -4.7330   -1.3988 H   0  0  0  1  0  0  0  0  0  0  0  0
   10.7949   -2.8986   -0.5895 C   0  0  0  1  0  0  0  0  0  0  0  0
   11.0558   -2.6307   -1.5920 H   0  0  0  1  0  0  0  0  0  0  0  0
   11.7744   -6.2279    0.3882 O   0  0  0  1  0  0  0  0  0  0  0  0
   12.6017   -6.7047    0.2888 H   0  0  0  1  0  0  0  0  0  0  0  0
    9.6349   -4.6583    0.6110 O   0  0  0  1  0  0  0  0  0  0  0  0
    8.7208   -4.6664    0.3177 H   0  0  0  1  0  0  0  0  0  0  0  0
   11.9107   -2.6900    0.2954 O   0  0  0  1  0  0  0  0  0  0  0  0
    9.6323   -2.1012   -0.1533 C   0  0  0  1  0  0  0  0  0  0  0  0
    9.8813   -1.0616   -0.1984 H   0  0  0  1  0  0  0  0  0  0  0  0
    9.3816   -2.3652    0.8528 H   0  0  0  1  0  0  0  0  0  0  0  0
   12.4857   -4.3021    1.9972 C   0  0  0  1  0  0  0  0  0  0  0  0
   12.9932   -3.5681    2.5876 H   0  0  0  1  0  0  0  0  0  0  0  0
   11.4599   -4.3546    2.2969 H   0  0  0  1  0  0  0  0  0  0  0  0
   13.1047   -5.5698    2.1625 O   0  0  0  1  0  0  0  0  0  0  0  0
   13.5676   -5.5931    3.0032 H   0  0  0  1  0  0  0  0  0  0  0  0
   12.5769   -3.9420    0.5422 C   0  0  0  1  0  0  0  0  0  0  0  0
   13.9321   -3.8577    0.1622 O   0  0  0  1  0  0  0  0  0  0  0  0
   14.4882   -3.9242    0.9418 H   0  0  0  1  0  0  0  0  0  0  0  0
    8.4940   -2.3565   -1.0109 O   0  0  0  1  0  0  0  0  0  0  0  0
    6.0743   -2.3348   -1.9182 O   0  0  0  0  0  0  0  0  0  0  0  0
    7.2172   -0.1153   -1.1697 O   0  0  0  1  0  0  0  0  0  0  0  0
    7.0688   -1.5573   -0.8712 P   0  0  0  1  0  0  0  0  0  0  0  0
    6.6303   -1.8329    0.6638 O   0  5  0  1  0  0  0  0  0  0  0  0
  1  2  1  0  0  0  0
  1  3  1  0  0  0  0
  1  7  1  0  0  0  0
  1 20  1  0  0  0  0
  3  4  1  0  0  0  0
  3  5  1  0  0  0  0
  3  9  1  0  0  0  0
  5  6  1  0  0  0  0
  5 11  1  0  0  0  0
  5 12  1  0  0  0  0
  7  8  1  0  0  0  0
  9 10  1  0  0  0  0
 11 20  1  0  0  0  0
 12 13  1  0  0  0  0
 12 14  1  0  0  0  0
 12 23  1  0  0  0  0
 15 16  1  0  0  0  0
 15 17  1  0  0  0  0
 15 18  1  0  0  0  0
 15 20  1  0  0  0  0
 18 19  1  0  0  0  0
 20 21  1  0  0  0  0
 21 22  1  0  0  0  0
 23 26  1  0  0  0  0
 24 26  1  0  0  0  0
 25 26  2  0  0  0  0
 26 27  1  0  0  0  0
M  BCL ATM C_TeTeTeTe H_S C_TeTeTeTe H_S C_TeTeTeTe H_S O_Te2Te2TeTe H_S O_Te2Te2TeTe H_S O_Te2Te2TeTe C_TeTeTeTe H_S H_S C_TeTeTeTe H_S H_S O_Te2Te2TeTe H_S C_TeTeTeTe O_Te2Te2TeTe H_S O_Tr2TrTrPi2 O_Te2Te2TeTe O_Tr2Tr2TrPi P_TeTeTeTePi O_Te2Te2Te2Te
M  BCL BND NonConjugatedSingleBond NonConjugatedSingleBondInRing NonConjugatedSingleBond NonConjugatedSingleBondInRing NonConjugatedSingleBond NonConjugatedSingleBondInRing NonConjugatedSingleBond NonConjugatedSingleBond NonConjugatedSingleBondInRing NonConjugatedSingleBond NonConjugatedSingleBond NonConjugatedSingleBond NonConjugatedSingleBondInRing NonConjugatedSingleBond NonConjugatedSingleBond NonConjugatedSingleBond NonConjugatedSingleBond NonConjugatedSingleBond NonConjugatedSingleBond NonConjugatedSingleBond NonConjugatedSingleBond NonConjugatedSingleBond NonConjugatedSingleBond ConjugatedSingleBond ConjugatedSingleBond ConjugatedDoubleBond ConjugatedSingleBond
M  BCL CHI   1   S   3   R   5   R  20   R  26   R
M  BCL DBI -
M  END
> <ConfClashScore>
0 

> <ConfOneFourInteractionScore>
-0.980422 

> <ConfScore>
-0.296277 

> <ConfScorePBest>
0.0132445 

> <ConfTolerance>
0.376064 

$$$$
L08.****
  PyMOL2.5          3D                             0

 27 27  0  0  0  0  0  0  0  0999 V2000
   11.7747   -5.1333   -0.0921 C   0  0  0  1  0  0  0  0  0  0  0  0
   12.1189   -5.7912   -0.8626 H   0  0  0  1  0  0  0  0  0  0  0  0
   10.6779   -4.2125   -0.5997 C   0  0  0  1  0  0  0  0  0  0  0  0
   10.8466   -3.9383   -1.6202 H   0  0  0  1  0  0  0  0  0  0  0  0
   10.7991   -3.0099    0.3160 C   0  0  0  1  0  0  0  0  0  0  0  0
   10.6125   -2.1101   -0.2322 H   0  0  0  1  0  0  0  0  0  0  0  0
   11.3323   -5.9012    1.0281 O   0  0  0  1  0  0  0  0  0  0  0  0
   11.8298   -6.7211    1.0711 H   0  0  0  1  0  0  0  0  0  0  0  0
    9.3937   -4.8254   -0.4767 O   0  0  0  1  0  0  0  0  0  0  0  0
    8.8252   -4.5240   -1.1891 H   0  0  0  1  0  0  0  0  0  0  0  0
   12.1447   -3.0074    0.8282 O   0  0  0  1  0  0  0  0  0  0  0  0
    9.8223   -3.1204    1.4401 C   0  0  0  1  0  0  0  0  0  0  0  0
   10.0210   -2.3648    2.1711 H   0  0  0  1  0  0  0  0  0  0  0  0
    9.8977   -4.0860    1.8948 H   0  0  0  1  0  0  0  0  0  0  0  0
   13.7465   -4.7287    1.3610 C   0  0  0  1  0  0  0  0  0  0  0  0
   14.1662   -5.6483    1.0101 H   0  0  0  1  0  0  0  0  0  0  0  0
   14.5339   -4.0436    1.5965 H   0  0  0  1  0  0  0  0  0  0  0  0
   12.9500   -4.9676    2.5139 O   0  0  0  1  0  0  0  0  0  0  0  0
   13.3101   -5.7104    3.0038 H   0  0  0  1  0  0  0  0  0  0  0  0
   12.8517   -4.1392    0.3089 C   0  0  0  1  0  0  0  0  0  0  0  0
   13.6234   -3.7683   -0.8114 O   0  0  0  1  0  0  0  0  0  0  0  0
   13.9472   -2.8721   -0.6949 H   0  0  0  1  0  0  0  0  0  0  0  0
    8.4966   -2.9371    0.8898 O   0  0  0  1  0  0  0  0  0  0  0  0
    5.8784   -3.0738    0.8835 O   0  0  0  0  0  0  0  0  0  0  0  0
    7.2509   -2.4808    3.0701 O   0  0  0  1  0  0  0  0  0  0  0  0
    7.2000   -3.2881    1.8307 P   0  0  0  1  0  0  0  0  0  0  0  0
    7.2991   -4.8522    2.2409 O   0  5  0  1  0  0  0  0  0  0  0  0
  1  2  1  0  0  0  0
  1  3  1  0  0  0  0
  1  7  1  0  0  0  0
  1 20  1  0  0  0  0
  3  4  1  0  0  0  0
  3  5  1  0  0  0  0
  3  9  1  0  0  0  0
  5  6  1  0  0  0  0
  5 11  1  0  0  0  0
  5 12  1  0  0  0  0
  7  8  1  0  0  0  0
  9 10  1  0  0  0  0
 11 20  1  0  0  0  0
 12 13  1  0  0  0  0
 12 14  1  0  0  0  0
 12 23  1  0  0  0  0
 15 16  1  0  0  0  0
 15 17  1  0  0  0  0
 15 18  1  0  0  0  0
 15 20  1  0  0  0  0
 18 19  1  0  0  0  0
 20 21  1  0  0  0  0
 21 22  1  0  0  0  0
 23 26  1  0  0  0  0
 24 26  1  0  0  0  0
 25 26  2  0  0  0  0
 26 27  1  0  0  0  0
M  BCL ATM C_TeTeTeTe H_S C_TeTeTeTe H_S C_TeTeTeTe H_S O_Te2Te2TeTe H_S O_Te2Te2TeTe H_S O_Te2Te2TeTe C_TeTeTeTe H_S H_S C_TeTeTeTe H_S H_S O_Te2Te2TeTe H_S C_TeTeTeTe O_Te2Te2TeTe H_S O_Tr2TrTrPi2 O_Te2Te2TeTe O_Tr2Tr2TrPi P_TeTeTeTePi O_Te2Te2Te2Te
M  BCL BND NonConjugatedSingleBond NonConjugatedSingleBondInRing NonConjugatedSingleBond NonConjugatedSingleBondInRing NonConjugatedSingleBond NonConjugatedSingleBondInRing NonConjugatedSingleBond NonConjugatedSingleBond NonConjugatedSingleBondInRing NonConjugatedSingleBond NonConjugatedSingleBond NonConjugatedSingleBond NonConjugatedSingleBondInRing NonConjugatedSingleBond NonConjugatedSingleBond NonConjugatedSingleBond NonConjugatedSingleBond NonConjugatedSingleBond NonConjugatedSingleBond NonConjugatedSingleBond NonConjugatedSingleBond NonConjugatedSingleBond NonConjugatedSingleBond ConjugatedSingleBond ConjugatedSingleBond ConjugatedDoubleBond ConjugatedSingleBond
M  BCL CHI   1   S   3   R   5   R  20   R  26   R
M  BCL DBI -
M  END
> <ConfClashScore>
0 

> <ConfOneFourInteractionScore>
-0.983026 

> <ConfScore>
-0.292465 

> <ConfScorePBest>
0.0131415 

> <ConfTolerance>
0.452325 

$$$$
L08.****
  PyMOL2.5          3D                             0

 27 27  0  0  0  0  0  0  0  0999 V2000
   11.9809   -4.8668   -0.3336 C   0  0  0  1  0  0  0  0  0  0  0  0
   12.4964   -4.9480   -1.2677 H   0  0  0  1  0  0  0  0  0  0  0  0
   10.5736   -4.3614   -0.5358 C   0  0  0  1  0  0  0  0  0  0  0  0
   10.1579   -4.7284   -1.4509 H   0  0  0  1  0  0  0  0  0  0  0  0
   10.7733   -2.8651   -0.5874 C   0  0  0  1  0  0  0  0  0  0  0  0
   11.0261   -2.5542   -1.5795 H   0  0  0  1  0  0  0  0  0  0  0  0
   11.9787   -6.1361    0.3216 O   0  0  0  1  0  0  0  0  0  0  0  0
   11.0754   -6.3914    0.5225 H   0  0  0  1  0  0  0  0  0  0  0  0
    9.7290   -4.7330    0.5545 O   0  0  0  1  0  0  0  0  0  0  0  0
    9.5311   -5.6709    0.5012 H   0  0  0  1  0  0  0  0  0  0  0  0
   11.8606   -2.5991    0.3175 O   0  0  0  1  0  0  0  0  0  0  0  0
    9.5366   -2.1560   -0.1427 C   0  0  0  1  0  0  0  0  0  0  0  0
    9.4049   -2.2796    0.9120 H   0  0  0  1  0  0  0  0  0  0  0  0
    8.6854   -2.5503   -0.6575 H   0  0  0  1  0  0  0  0  0  0  0  0
   12.5300   -4.2085    1.9898 C   0  0  0  1  0  0  0  0  0  0  0  0
   12.9966   -5.1625    2.1206 H   0  0  0  1  0  0  0  0  0  0  0  0
   13.0325   -3.4797    2.5909 H   0  0  0  1  0  0  0  0  0  0  0  0
   11.1676   -4.2905    2.3870 O   0  0  0  1  0  0  0  0  0  0  0  0
   11.0782   -3.9803    3.2911 H   0  0  0  1  0  0  0  0  0  0  0  0
   12.6123   -3.8059    0.5430 C   0  0  0  1  0  0  0  0  0  0  0  0
   13.9624   -3.6151    0.1837 O   0  0  0  1  0  0  0  0  0  0  0  0
   14.5222   -4.1632    0.7384 H   0  0  0  1  0  0  0  0  0  0  0  0
    9.6970   -0.7530   -0.4583 O   0  0  0  1  0  0  0  0  0  0  0  0
    8.6456    1.8265   -0.5872 O   0  0  0  0  0  0  0  0  0  0  0  0
    8.4149    0.4271    1.4370 O   0  0  0  1  0  0  0  0  0  0  0  0
    8.5040    0.2892   -0.0338 P   0  0  0  1  0  0  0  0  0  0  0  0
    7.1148   -0.2871   -0.6358 O   0  5  0  1  0  0  0  0  0  0  0  0
  1  2  1  0  0  0  0
  1  3  1  0  0  0  0
  1  7  1  0  0  0  0
  1 20  1  0  0  0  0
  3  4  1  0  0  0  0
  3  5  1  0  0  0  0
  3  9  1  0  0  0  0
  5  6  1  0  0  0  0
  5 11  1  0  0  0  0
  5 12  1  0  0  0  0
  7  8  1  0  0  0  0
  9 10  1  0  0  0  0
 11 20  1  0  0  0  0
 12 13  1  0  0  0  0
 12 14  1  0  0  0  0
 12 23  1  0  0  0  0
 15 16  1  0  0  0  0
 15 17  1  0  0  0  0
 15 18  1  0  0  0  0
 15 20  1  0  0  0  0
 18 19  1  0  0  0  0
 20 21  1  0  0  0  0
 21 22  1  0  0  0  0
 23 26  1  0  0  0  0
 24 26  1  0  0  0  0
 25 26  2  0  0  0  0
 26 27  1  0  0  0  0
M  BCL ATM C_TeTeTeTe H_S C_TeTeTeTe H_S C_TeTeTeTe H_S O_Te2Te2TeTe H_S O_Te2Te2TeTe H_S O_Te2Te2TeTe C_TeTeTeTe H_S H_S C_TeTeTeTe H_S H_S O_Te2Te2TeTe H_S C_TeTeTeTe O_Te2Te2TeTe H_S O_Tr2TrTrPi2 O_Te2Te2TeTe O_Tr2Tr2TrPi P_TeTeTeTePi O_Te2Te2Te2Te
M  BCL BND NonConjugatedSingleBond NonConjugatedSingleBondInRing NonConjugatedSingleBond NonConjugatedSingleBondInRing NonConjugatedSingleBond NonConjugatedSingleBondInRing NonConjugatedSingleBond NonConjugatedSingleBond NonConjugatedSingleBondInRing NonConjugatedSingleBond NonConjugatedSingleBond NonConjugatedSingleBond NonConjugatedSingleBondInRing NonConjugatedSingleBond NonConjugatedSingleBond NonConjugatedSingleBond NonConjugatedSingleBond NonConjugatedSingleBond NonConjugatedSingleBond NonConjugatedSingleBond NonConjugatedSingleBond NonConjugatedSingleBond NonConjugatedSingleBond ConjugatedSingleBond ConjugatedSingleBond ConjugatedDoubleBond ConjugatedSingleBond
M  BCL CHI   1   S   3   R   5   R  20   R  26   R
M  BCL DBI -
M  END
> <ConfClashScore>
0 

> <ConfOneFourInteractionScore>
-0.970756 

> <ConfScore>
-0.2915 

> <ConfScorePBest>
0.0130385 

> <ConfTolerance>
0.42973 

$$$$
L08.****
  PyMOL2.5          3D                             0

 27 27  0  0  0  0  0  0  0  0999 V2000
   11.9673   -5.0462   -0.3066 C   0  0  0  1  0  0  0  0  0  0  0  0
   12.4326   -5.2664   -1.2446 H   0  0  0  1  0  0  0  0  0  0  0  0
   10.6894   -4.2526   -0.5141 C   0  0  0  1  0  0  0  0  0  0  0  0
   10.5257   -4.0642   -1.5546 H   0  0  0  1  0  0  0  0  0  0  0  0
   10.9216   -2.9712    0.2262 C   0  0  0  1  0  0  0  0  0  0  0  0
   11.2363   -2.2050   -0.4512 H   0  0  0  1  0  0  0  0  0  0  0  0
   11.6983   -6.2639    0.3897 O   0  0  0  1  0  0  0  0  0  0  0  0
   11.1682   -6.0776    1.1681 H   0  0  0  1  0  0  0  0  0  0  0  0
    9.5672   -4.9519    0.0262 O   0  0  0  1  0  0  0  0  0  0  0  0
    8.9602   -5.1794   -0.6819 H   0  0  0  1  0  0  0  0  0  0  0  0
   11.9471   -3.2352    1.1821 O   0  0  0  1  0  0  0  0  0  0  0  0
    9.6848   -2.5465    0.9100 C   0  0  0  1  0  0  0  0  0  0  0  0
    8.8984   -2.4537    0.1903 H   0  0  0  1  0  0  0  0  0  0  0  0
    9.8502   -1.6007    1.3822 H   0  0  0  1  0  0  0  0  0  0  0  0
   13.6233   -4.9309    1.5407 C   0  0  0  1  0  0  0  0  0  0  0  0
   14.1782   -4.2556    2.1579 H   0  0  0  1  0  0  0  0  0  0  0  0
   12.9334   -5.4821    2.1449 H   0  0  0  1  0  0  0  0  0  0  0  0
   14.5225   -5.8371    0.9387 O   0  0  0  1  0  0  0  0  0  0  0  0
   14.0535   -6.6376    0.6918 H   0  0  0  1  0  0  0  0  0  0  0  0
   12.8479   -4.1333    0.5285 C   0  0  0  1  0  0  0  0  0  0  0  0
   13.7434   -3.4215   -0.2958 O   0  0  0  1  0  0  0  0  0  0  0  0
   13.3330   -3.2575   -1.1481 H   0  0  0  1  0  0  0  0  0  0  0  0
    9.3020   -3.5185    1.9112 O   0  0  0  1  0  0  0  0  0  0  0  0
    7.8316   -4.5290    3.9037 O   0  0  0  0  0  0  0  0  0  0  0  0
    6.8210   -2.9702    2.1511 O   0  0  0  1  0  0  0  0  0  0  0  0
    8.0519   -3.2265    2.9319 P   0  0  0  1  0  0  0  0  0  0  0  0
    8.3988   -1.9364    3.8484 O   0  5  0  1  0  0  0  0  0  0  0  0
  1  2  1  0  0  0  0
  1  3  1  0  0  0  0
  1  7  1  0  0  0  0
  1 20  1  0  0  0  0
  3  4  1  0  0  0  0
  3  5  1  0  0  0  0
  3  9  1  0  0  0  0
  5  6  1  0  0  0  0
  5 11  1  0  0  0  0
  5 12  1  0  0  0  0
  7  8  1  0  0  0  0
  9 10  1  0  0  0  0
 11 20  1  0  0  0  0
 12 13  1  0  0  0  0
 12 14  1  0  0  0  0
 12 23  1  0  0  0  0
 15 16  1  0  0  0  0
 15 17  1  0  0  0  0
 15 18  1  0  0  0  0
 15 20  1  0  0  0  0
 18 19  1  0  0  0  0
 20 21  1  0  0  0  0
 21 22  1  0  0  0  0
 23 26  1  0  0  0  0
 24 26  1  0  0  0  0
 25 26  2  0  0  0  0
 26 27  1  0  0  0  0
M  BCL ATM C_TeTeTeTe H_S C_TeTeTeTe H_S C_TeTeTeTe H_S O_Te2Te2TeTe H_S O_Te2Te2TeTe H_S O_Te2Te2TeTe C_TeTeTeTe H_S H_S C_TeTeTeTe H_S H_S O_Te2Te2TeTe H_S C_TeTeTeTe O_Te2Te2TeTe H_S O_Tr2TrTrPi2 O_Te2Te2TeTe O_Tr2Tr2TrPi P_TeTeTeTePi O_Te2Te2Te2Te
M  BCL BND NonConjugatedSingleBond NonConjugatedSingleBondInRing NonConjugatedSingleBond NonConjugatedSingleBondInRing NonConjugatedSingleBond NonConjugatedSingleBondInRing NonConjugatedSingleBond NonConjugatedSingleBond NonConjugatedSingleBondInRing NonConjugatedSingleBond NonConjugatedSingleBond NonConjugatedSingleBond NonConjugatedSingleBondInRing NonConjugatedSingleBond NonConjugatedSingleBond NonConjugatedSingleBond NonConjugatedSingleBond NonConjugatedSingleBond NonConjugatedSingleBond NonConjugatedSingleBond NonConjugatedSingleBond NonConjugatedSingleBond NonConjugatedSingleBond ConjugatedSingleBond ConjugatedSingleBond ConjugatedDoubleBond ConjugatedSingleBond
M  BCL CHI   1   S   3   R   5   R  20   R  26   R
M  BCL DBI -
M  END
> <ConfClashScore>
0 

> <ConfOneFourInteractionScore>
-0.990322 

> <ConfScore>
-0.281849 

> <ConfScorePBest>
0.0129355 

> <ConfTolerance>
0.463917 

$$$$
L08.****
  PyMOL2.5          3D                             0

 27 27  0  0  0  0  0  0  0  0999 V2000
   11.8982   -4.9971   -0.2551 C   0  0  0  1  0  0  0  0  0  0  0  0
   12.4601   -5.2924   -1.1165 H   0  0  0  1  0  0  0  0  0  0  0  0
   10.6023   -4.3697   -0.6664 C   0  0  0  1  0  0  0  0  0  0  0  0
   10.4248   -4.5161   -1.7114 H   0  0  0  1  0  0  0  0  0  0  0  0
   10.7837   -2.9149   -0.3571 C   0  0  0  1  0  0  0  0  0  0  0  0
   11.1458   -2.3948   -1.2192 H   0  0  0  1  0  0  0  0  0  0  0  0
   11.6598   -6.1367    0.5723 O   0  0  0  1  0  0  0  0  0  0  0  0
   10.8615   -6.5831    0.2807 H   0  0  0  1  0  0  0  0  0  0  0  0
    9.5154   -4.9151    0.0829 O   0  0  0  1  0  0  0  0  0  0  0  0
    9.8524   -5.3317    0.8794 H   0  0  0  1  0  0  0  0  0  0  0  0
   11.7339   -2.8496    0.6905 O   0  0  0  1  0  0  0  0  0  0  0  0
    9.5041   -2.3205    0.0753 C   0  0  0  1  0  0  0  0  0  0  0  0
    9.1567   -2.8300    0.9498 H   0  0  0  1  0  0  0  0  0  0  0  0
    8.7839   -2.4256   -0.7090 H   0  0  0  1  0  0  0  0  0  0  0  0
   13.0584   -4.4754    1.8325 C   0  0  0  1  0  0  0  0  0  0  0  0
   13.5859   -3.7013    2.3498 H   0  0  0  1  0  0  0  0  0  0  0  0
   12.1810   -4.7403    2.3847 H   0  0  0  1  0  0  0  0  0  0  0  0
   13.8957   -5.6097    1.7656 O   0  0  0  1  0  0  0  0  0  0  0  0
   13.3660   -6.4049    1.8594 H   0  0  0  1  0  0  0  0  0  0  0  0
   12.6310   -3.9419    0.5090 C   0  0  0  1  0  0  0  0  0  0  0  0
   13.7639   -3.5200   -0.2166 O   0  0  0  1  0  0  0  0  0  0  0  0
   14.4513   -3.2443    0.3942 H   0  0  0  1  0  0  0  0  0  0  0  0
    9.6768   -0.9131    0.3796 O   0  0  0  1  0  0  0  0  0  0  0  0
    9.0445    1.5594    1.1192 O   0  0  0  0  0  0  0  0  0  0  0  0
    7.7247   -0.6238    1.8551 O   0  0  0  1  0  0  0  0  0  0  0  0
    8.4301    0.0815    0.7618 P   0  0  0  1  0  0  0  0  0  0  0  0
    7.5107    0.1737   -0.5688 O   0  5  0  1  0  0  0  0  0  0  0  0
  1  2  1  0  0  0  0
  1  3  1  0  0  0  0
  1  7  1  0  0  0  0
  1 20  1  0  0  0  0
  3  4  1  0  0  0  0
  3  5  1  0  0  0  0
  3  9  1  0  0  0  0
  5  6  1  0  0  0  0
  5 11  1  0  0  0  0
  5 12  1  0  0  0  0
  7  8  1  0  0  0  0
  9 10  1  0  0  0  0
 11 20  1  0  0  0  0
 12 13  1  0  0  0  0
 12 14  1  0  0  0  0
 12 23  1  0  0  0  0
 15 16  1  0  0  0  0
 15 17  1  0  0  0  0
 15 18  1  0  0  0  0
 15 20  1  0  0  0  0
 18 19  1  0  0  0  0
 20 21  1  0  0  0  0
 21 22  1  0  0  0  0
 23 26  1  0  0  0  0
 24 26  1  0  0  0  0
 25 26  2  0  0  0  0
 26 27  1  0  0  0  0
M  BCL ATM C_TeTeTeTe H_S C_TeTeTeTe H_S C_TeTeTeTe H_S O_Te2Te2TeTe H_S O_Te2Te2TeTe H_S O_Te2Te2TeTe C_TeTeTeTe H_S H_S C_TeTeTeTe H_S H_S O_Te2Te2TeTe H_S C_TeTeTeTe O_Te2Te2TeTe H_S O_Tr2TrTrPi2 O_Te2Te2TeTe O_Tr2Tr2TrPi P_TeTeTeTePi O_Te2Te2Te2Te
M  BCL BND NonConjugatedSingleBond NonConjugatedSingleBondInRing NonConjugatedSingleBond NonConjugatedSingleBondInRing NonConjugatedSingleBond NonConjugatedSingleBondInRing NonConjugatedSingleBond NonConjugatedSingleBond NonConjugatedSingleBondInRing NonConjugatedSingleBond NonConjugatedSingleBond NonConjugatedSingleBond NonConjugatedSingleBondInRing NonConjugatedSingleBond NonConjugatedSingleBond NonConjugatedSingleBond NonConjugatedSingleBond NonConjugatedSingleBond NonConjugatedSingleBond NonConjugatedSingleBond NonConjugatedSingleBond NonConjugatedSingleBond NonConjugatedSingleBond ConjugatedSingleBond ConjugatedSingleBond ConjugatedDoubleBond ConjugatedSingleBond
M  BCL CHI   1   S   3   R   5   R  20   R  26   R
M  BCL DBI -
M  END
> <ConfClashScore>
0 

> <ConfOneFourInteractionScore>
-0.980422 

> <ConfScore>
-0.252237 

> <ConfScorePBest>
0.0128325 

> <ConfTolerance>
0.359741 

$$$$
L08.****
  PyMOL2.5          3D                             0

 27 27  0  0  0  0  0  0  0  0999 V2000
   11.8120   -4.9839   -0.0853 C   0  0  0  1  0  0  0  0  0  0  0  0
   12.3484   -5.6546   -0.7236 H   0  0  0  1  0  0  0  0  0  0  0  0
   10.8157   -4.1541   -0.8773 C   0  0  0  1  0  0  0  0  0  0  0  0
   11.1950   -3.9115   -1.8480 H   0  0  0  1  0  0  0  0  0  0  0  0
   10.6861   -2.9145   -0.0081 C   0  0  0  1  0  0  0  0  0  0  0  0
   10.3817   -2.0742   -0.5964 H   0  0  0  1  0  0  0  0  0  0  0  0
   11.1588   -5.7264    0.9452 O   0  0  0  1  0  0  0  0  0  0  0  0
   11.8169   -6.1258    1.5188 H   0  0  0  1  0  0  0  0  0  0  0  0
    9.5644   -4.8299   -1.0096 O   0  0  0  1  0  0  0  0  0  0  0  0
    9.2967   -5.1786   -0.1561 H   0  0  0  1  0  0  0  0  0  0  0  0
   11.9927   -2.6985    0.5368 O   0  0  0  1  0  0  0  0  0  0  0  0
    9.7064   -3.1404    1.0720 C   0  0  0  1  0  0  0  0  0  0  0  0
    9.6019   -2.2436    1.6462 H   0  0  0  1  0  0  0  0  0  0  0  0
   10.0546   -3.9306    1.7038 H   0  0  0  1  0  0  0  0  0  0  0  0
   13.1502   -4.3258    1.8883 C   0  0  0  1  0  0  0  0  0  0  0  0
   13.8798   -3.6262    2.2393 H   0  0  0  1  0  0  0  0  0  0  0  0
   12.2912   -4.2959    2.5255 H   0  0  0  1  0  0  0  0  0  0  0  0
   13.7096   -5.6316    1.9377 O   0  0  0  1  0  0  0  0  0  0  0  0
   14.5780   -5.5931    2.3451 H   0  0  0  1  0  0  0  0  0  0  0  0
   12.7342   -3.9323    0.5001 C   0  0  0  1  0  0  0  0  0  0  0  0
   13.8786   -3.7859   -0.3105 O   0  0  0  1  0  0  0  0  0  0  0  0
   13.8086   -4.3668   -1.0716 H   0  0  0  1  0  0  0  0  0  0  0  0
    8.4196   -3.5046    0.5187 O   0  0  0  1  0  0  0  0  0  0  0  0
    6.6331   -2.1434    1.9004 O   0  0  0  0  0  0  0  0  0  0  0  0
    7.5159   -4.5928    2.5547 O   0  0  0  1  0  0  0  0  0  0  0  0
    7.1026   -3.6585    1.4838 P   0  0  0  1  0  0  0  0  0  0  0  0
    5.8184   -4.1820    0.6466 O   0  5  0  1  0  0  0  0  0  0  0  0
  1  2  1  0  0  0  0
  1  3  1  0  0  0  0
  1  7  1  0  0  0  0
  1 20  1  0  0  0  0
  3  4  1  0  0  0  0
  3  5  1  0  0  0  0
  3  9  1  0  0  0  0
  5  6  1  0  0  0  0
  5 11  1  0  0  0  0
  5 12  1  0  0  0  0
  7  8  1  0  0  0  0
  9 10  1  0  0  0  0
 11 20  1  0  0  0  0
 12 13  1  0  0  0  0
 12 14  1  0  0  0  0
 12 23  1  0  0  0  0
 15 16  1  0  0  0  0
 15 17  1  0  0  0  0
 15 18  1  0  0  0  0
 15 20  1  0  0  0  0
 18 19  1  0  0  0  0
 20 21  1  0  0  0  0
 21 22  1  0  0  0  0
 23 26  1  0  0  0  0
 24 26  1  0  0  0  0
 25 26  2  0  0  0  0
 26 27  1  0  0  0  0
M  BCL ATM C_TeTeTeTe H_S C_TeTeTeTe H_S C_TeTeTeTe H_S O_Te2Te2TeTe H_S O_Te2Te2TeTe H_S O_Te2Te2TeTe C_TeTeTeTe H_S H_S C_TeTeTeTe H_S H_S O_Te2Te2TeTe H_S C_TeTeTeTe O_Te2Te2TeTe H_S O_Tr2TrTrPi2 O_Te2Te2TeTe O_Tr2Tr2TrPi P_TeTeTeTePi O_Te2Te2Te2Te
M  BCL BND NonConjugatedSingleBond NonConjugatedSingleBondInRing NonConjugatedSingleBond NonConjugatedSingleBondInRing NonConjugatedSingleBond NonConjugatedSingleBondInRing NonConjugatedSingleBond NonConjugatedSingleBond NonConjugatedSingleBondInRing NonConjugatedSingleBond NonConjugatedSingleBond NonConjugatedSingleBond NonConjugatedSingleBondInRing NonConjugatedSingleBond NonConjugatedSingleBond NonConjugatedSingleBond NonConjugatedSingleBond NonConjugatedSingleBond NonConjugatedSingleBond NonConjugatedSingleBond NonConjugatedSingleBond NonConjugatedSingleBond NonConjugatedSingleBond ConjugatedSingleBond ConjugatedSingleBond ConjugatedDoubleBond ConjugatedSingleBond
M  BCL CHI   1   S   3   R   5   R  20   R  26   R
M  BCL DBI -
M  END
> <ConfClashScore>
0 

> <ConfOneFourInteractionScore>
-0.979644 

> <ConfScore>
-0.24843 

> <ConfScorePBest>
0.0127295 

> <ConfTolerance>
0.524588 

$$$$
L08.****
  PyMOL2.5          3D                             0

 27 27  0  0  0  0  0  0  0  0999 V2000
   11.8030   -4.8997   -0.1197 C   0  0  0  1  0  0  0  0  0  0  0  0
   12.2691   -5.3915   -0.9479 H   0  0  0  1  0  0  0  0  0  0  0  0
   10.6140   -4.2534   -0.5499 C   0  0  0  1  0  0  0  0  0  0  0  0
   10.4724   -4.4142   -1.5982 H   0  0  0  1  0  0  0  0  0  0  0  0
   10.7506   -2.8649   -0.2901 C   0  0  0  1  0  0  0  0  0  0  0  0
   10.6789   -2.3158   -1.2056 H   0  0  0  1  0  0  0  0  0  0  0  0
   11.4943   -5.8592    0.8923 O   0  0  0  1  0  0  0  0  0  0  0  0
   11.9986   -6.6613    0.7380 H   0  0  0  1  0  0  0  0  0  0  0  0
    9.4935   -4.7726    0.1678 O   0  0  0  1  0  0  0  0  0  0  0  0
    8.9233   -5.2561   -0.4345 H   0  0  0  1  0  0  0  0  0  0  0  0
   12.0247   -2.6509    0.3015 O   0  0  0  1  0  0  0  0  0  0  0  0
    9.6763   -2.4168    0.6454 C   0  0  0  1  0  0  0  0  0  0  0  0
    9.7672   -2.9325    1.5785 H   0  0  0  1  0  0  0  0  0  0  0  0
    8.7154   -2.6164    0.2192 H   0  0  0  1  0  0  0  0  0  0  0  0
   12.9780   -4.2072    1.8462 C   0  0  0  1  0  0  0  0  0  0  0  0
   13.5375   -3.4031    2.2765 H   0  0  0  1  0  0  0  0  0  0  0  0
   12.0666   -4.3399    2.3909 H   0  0  0  1  0  0  0  0  0  0  0  0
   13.7449   -5.4069    1.8820 O   0  0  0  1  0  0  0  0  0  0  0  0
   13.1572   -6.1604    1.9742 H   0  0  0  1  0  0  0  0  0  0  0  0
   12.6755   -3.9081    0.4058 C   0  0  0  1  0  0  0  0  0  0  0  0
   13.8764   -3.8876   -0.3329 O   0  0  0  1  0  0  0  0  0  0  0  0
   14.6179   -4.0439    0.2564 H   0  0  0  1  0  0  0  0  0  0  0  0
    9.8383   -0.9937    0.8511 O   0  0  0  1  0  0  0  0  0  0  0  0
    9.2266    1.4247    1.8058 O   0  0  0  0  0  0  0  0  0  0  0  0
    8.6242   -0.7315    3.0787 O   0  0  0  1  0  0  0  0  0  0  0  0
    8.7451   -0.1410    1.7270 P   0  0  0  1  0  0  0  0  0  0  0  0
    7.3689   -0.2574    0.8802 O   0  5  0  1  0  0  0  0  0  0  0  0
  1  2  1  0  0  0  0
  1  3  1  0  0  0  0
  1  7  1  0  0  0  0
  1 20  1  0  0  0  0
  3  4  1  0  0  0  0
  3  5  1  0  0  0  0
  3  9  1  0  0  0  0
  5  6  1  0  0  0  0
  5 11  1  0  0  0  0
  5 12  1  0  0  0  0
  7  8  1  0  0  0  0
  9 10  1  0  0  0  0
 11 20  1  0  0  0  0
 12 13  1  0  0  0  0
 12 14  1  0  0  0  0
 12 23  1  0  0  0  0
 15 16  1  0  0  0  0
 15 17  1  0  0  0  0
 15 18  1  0  0  0  0
 15 20  1  0  0  0  0
 18 19  1  0  0  0  0
 20 21  1  0  0  0  0
 21 22  1  0  0  0  0
 23 26  1  0  0  0  0
 24 26  1  0  0  0  0
 25 26  2  0  0  0  0
 26 27  1  0  0  0  0
M  BCL ATM C_TeTeTeTe H_S C_TeTeTeTe H_S C_TeTeTeTe H_S O_Te2Te2TeTe H_S O_Te2Te2TeTe H_S O_Te2Te2TeTe C_TeTeTeTe H_S H_S C_TeTeTeTe H_S H_S O_Te2Te2TeTe H_S C_TeTeTeTe O_Te2Te2TeTe H_S O_Tr2TrTrPi2 O_Te2Te2TeTe O_Tr2Tr2TrPi P_TeTeTeTePi O_Te2Te2Te2Te
M  BCL BND NonConjugatedSingleBond NonConjugatedSingleBondInRing NonConjugatedSingleBond NonConjugatedSingleBondInRing NonConjugatedSingleBond NonConjugatedSingleBondInRing NonConjugatedSingleBond NonConjugatedSingleBond NonConjugatedSingleBondInRing NonConjugatedSingleBond NonConjugatedSingleBond NonConjugatedSingleBond NonConjugatedSingleBondInRing NonConjugatedSingleBond NonConjugatedSingleBond NonConjugatedSingleBond NonConjugatedSingleBond NonConjugatedSingleBond NonConjugatedSingleBond NonConjugatedSingleBond NonConjugatedSingleBond NonConjugatedSingleBond NonConjugatedSingleBond ConjugatedSingleBond ConjugatedSingleBond ConjugatedDoubleBond ConjugatedSingleBond
M  BCL CHI   1   S   3   R   5   R  20   R  26   R
M  BCL DBI -
M  END
> <ConfClashScore>
0 

> <ConfOneFourInteractionScore>
-0.983447 

> <ConfScore>
-0.24755 

> <ConfScorePBest>
0.0126265 

> <ConfTolerance>
0.41814 

$$$$
L08.****
  PyMOL2.5          3D                             0

 27 27  0  0  0  0  0  0  0  0999 V2000
   11.8276   -5.0093   -0.0381 C   0  0  0  1  0  0  0  0  0  0  0  0
   12.3292   -5.6947   -0.6889 H   0  0  0  1  0  0  0  0  0  0  0  0
   10.8255   -4.1569   -0.7983 C   0  0  0  1  0  0  0  0  0  0  0  0
   11.1793   -3.9319   -1.7827 H   0  0  0  1  0  0  0  0  0  0  0  0
   10.7390   -2.9035    0.0506 C   0  0  0  1  0  0  0  0  0  0  0  0
   10.6383   -2.0416   -0.5754 H   0  0  0  1  0  0  0  0  0  0  0  0
   11.1982   -5.7318    1.0220 O   0  0  0  1  0  0  0  0  0  0  0  0
   11.6920   -6.5357    1.1993 H   0  0  0  1  0  0  0  0  0  0  0  0
    9.5572   -4.8081   -0.8847 O   0  0  0  1  0  0  0  0  0  0  0  0
    9.2411   -5.0125   -0.0016 H   0  0  0  1  0  0  0  0  0  0  0  0
   11.9613   -2.8251    0.8076 O   0  0  0  1  0  0  0  0  0  0  0  0
    9.5683   -2.9887    0.9737 C   0  0  0  1  0  0  0  0  0  0  0  0
    9.5447   -3.9491    1.4448 H   0  0  0  1  0  0  0  0  0  0  0  0
    8.6612   -2.8367    0.4268 H   0  0  0  1  0  0  0  0  0  0  0  0
   13.4743   -4.4569    1.7359 C   0  0  0  1  0  0  0  0  0  0  0  0
   14.1640   -3.7157    2.0819 H   0  0  0  1  0  0  0  0  0  0  0  0
   12.7471   -4.6509    2.4965 H   0  0  0  1  0  0  0  0  0  0  0  0
   14.1779   -5.6546    1.4391 O   0  0  0  1  0  0  0  0  0  0  0  0
   14.4718   -5.6355    0.5255 H   0  0  0  1  0  0  0  0  0  0  0  0
   12.7828   -3.9571    0.5000 C   0  0  0  1  0  0  0  0  0  0  0  0
   13.7450   -3.6192   -0.4737 O   0  0  0  1  0  0  0  0  0  0  0  0
   13.5873   -4.1301   -1.2710 H   0  0  0  1  0  0  0  0  0  0  0  0
    9.7205   -1.9533    1.9730 O   0  0  0  1  0  0  0  0  0  0  0  0
    7.4006   -2.1668    3.1822 O   0  0  0  0  0  0  0  0  0  0  0  0
    7.7395   -0.4151    1.3685 O   0  0  0  1  0  0  0  0  0  0  0  0
    8.4268   -1.0894    2.4924 P   0  0  0  1  0  0  0  0  0  0  0  0
    8.9074   -0.1259    3.7028 O   0  5  0  1  0  0  0  0  0  0  0  0
  1  2  1  0  0  0  0
  1  3  1  0  0  0  0
  1  7  1  0  0  0  0
  1 20  1  0  0  0  0
  3  4  1  0  0  0  0
  3  5  1  0  0  0  0
  3  9  1  0  0  0  0
  5  6  1  0  0  0  0
  5 11  1  0  0  0  0
  5 12  1  0  0  0  0
  7  8  1  0  0  0  0
  9 10  1  0  0  0  0
 11 20  1  0  0  0  0
 12 13  1  0  0  0  0
 12 14  1  0  0  0  0
 12 23  1  0  0  0  0
 15 16  1  0  0  0  0
 15 17  1  0  0  0  0
 15 18  1  0  0  0  0
 15 20  1  0  0  0  0
 18 19  1  0  0  0  0
 20 21  1  0  0  0  0
 21 22  1  0  0  0  0
 23 26  1  0  0  0  0
 24 26  1  0  0  0  0
 25 26  2  0  0  0  0
 26 27  1  0  0  0  0
M  BCL ATM C_TeTeTeTe H_S C_TeTeTeTe H_S C_TeTeTeTe H_S O_Te2Te2TeTe H_S O_Te2Te2TeTe H_S O_Te2Te2TeTe C_TeTeTeTe H_S H_S C_TeTeTeTe H_S H_S O_Te2Te2TeTe H_S C_TeTeTeTe O_Te2Te2TeTe H_S O_Tr2TrTrPi2 O_Te2Te2TeTe O_Tr2Tr2TrPi P_TeTeTeTePi O_Te2Te2Te2Te
M  BCL BND NonConjugatedSingleBond NonConjugatedSingleBondInRing NonConjugatedSingleBond NonConjugatedSingleBondInRing NonConjugatedSingleBond NonConjugatedSingleBondInRing NonConjugatedSingleBond NonConjugatedSingleBond NonConjugatedSingleBondInRing NonConjugatedSingleBond NonConjugatedSingleBond NonConjugatedSingleBond NonConjugatedSingleBondInRing NonConjugatedSingleBond NonConjugatedSingleBond NonConjugatedSingleBond NonConjugatedSingleBond NonConjugatedSingleBond NonConjugatedSingleBond NonConjugatedSingleBond NonConjugatedSingleBond NonConjugatedSingleBond NonConjugatedSingleBond ConjugatedSingleBond ConjugatedSingleBond ConjugatedDoubleBond ConjugatedSingleBond
M  BCL CHI   1   S   3   R   5   R  20   R  26   R
M  BCL DBI -
M  END
> <ConfClashScore>
0 

> <ConfOneFourInteractionScore>
-0.983483 

> <ConfScore>
-0.245197 

> <ConfScorePBest>
0.0125235 

> <ConfTolerance>
0.43189 

$$$$
L08.****
  PyMOL2.5          3D                             0

 27 27  0  0  0  0  0  0  0  0999 V2000
   11.9379   -5.0374   -0.1306 C   0  0  0  1  0  0  0  0  0  0  0  0
   12.5224   -5.4173   -0.9423 H   0  0  0  1  0  0  0  0  0  0  0  0
   10.7217   -4.2899   -0.6484 C   0  0  0  1  0  0  0  0  0  0  0  0
   10.7083   -4.2842   -1.7183 H   0  0  0  1  0  0  0  0  0  0  0  0
   10.8823   -2.9000   -0.1132 C   0  0  0  1  0  0  0  0  0  0  0  0
   11.3072   -2.2631   -0.8607 H   0  0  0  1  0  0  0  0  0  0  0  0
   11.5440   -6.1159    0.7190 O   0  0  0  1  0  0  0  0  0  0  0  0
   11.0622   -6.7686    0.2058 H   0  0  0  1  0  0  0  0  0  0  0  0
    9.5181   -4.8834   -0.1595 O   0  0  0  1  0  0  0  0  0  0  0  0
    9.6174   -5.0879    0.7732 H   0  0  0  1  0  0  0  0  0  0  0  0
   11.7589   -2.9961    1.0083 O   0  0  0  1  0  0  0  0  0  0  0  0
    9.5586   -2.3551    0.3122 C   0  0  0  1  0  0  0  0  0  0  0  0
    9.6951   -1.4283    0.8291 H   0  0  0  1  0  0  0  0  0  0  0  0
    9.0667   -3.0540    0.9560 H   0  0  0  1  0  0  0  0  0  0  0  0
   13.3243   -4.6056    1.8818 C   0  0  0  1  0  0  0  0  0  0  0  0
   13.9467   -3.8834    2.3674 H   0  0  0  1  0  0  0  0  0  0  0  0
   12.5449   -4.9111    2.5483 H   0  0  0  1  0  0  0  0  0  0  0  0
   14.1062   -5.7361    1.5197 O   0  0  0  1  0  0  0  0  0  0  0  0
   14.8579   -5.8089    2.1123 H   0  0  0  1  0  0  0  0  0  0  0  0
   12.7179   -3.9950    0.6512 C   0  0  0  1  0  0  0  0  0  0  0  0
   13.7367   -3.4380   -0.1487 O   0  0  0  1  0  0  0  0  0  0  0  0
   13.4289   -3.3657   -1.0552 H   0  0  0  1  0  0  0  0  0  0  0  0
    8.7672   -2.1423   -0.8804 O   0  0  0  1  0  0  0  0  0  0  0  0
    6.7647   -1.3081   -2.3292 O   0  0  0  0  0  0  0  0  0  0  0  0
    6.9366   -0.4140    0.0840 O   0  0  0  1  0  0  0  0  0  0  0  0
    7.2303   -1.5790   -0.7802 P   0  0  0  1  0  0  0  0  0  0  0  0
    6.2119   -2.7200   -0.2459 O   0  5  0  1  0  0  0  0  0  0  0  0
  1  2  1  0  0  0  0
  1  3  1  0  0  0  0
  1  7  1  0  0  0  0
  1 20  1  0  0  0  0
  3  4  1  0  0  0  0
  3  5  1  0  0  0  0
  3  9  1  0  0  0  0
  5  6  1  0  0  0  0
  5 11  1  0  0  0  0
  5 12  1  0  0  0  0
  7  8  1  0  0  0  0
  9 10  1  0  0  0  0
 11 20  1  0  0  0  0
 12 13  1  0  0  0  0
 12 14  1  0  0  0  0
 12 23  1  0  0  0  0
 15 16  1  0  0  0  0
 15 17  1  0  0  0  0
 15 18  1  0  0  0  0
 15 20  1  0  0  0  0
 18 19  1  0  0  0  0
 20 21  1  0  0  0  0
 21 22  1  0  0  0  0
 23 26  1  0  0  0  0
 24 26  1  0  0  0  0
 25 26  2  0  0  0  0
 26 27  1  0  0  0  0
M  BCL ATM C_TeTeTeTe H_S C_TeTeTeTe H_S C_TeTeTeTe H_S O_Te2Te2TeTe H_S O_Te2Te2TeTe H_S O_Te2Te2TeTe C_TeTeTeTe H_S H_S C_TeTeTeTe H_S H_S O_Te2Te2TeTe H_S C_TeTeTeTe O_Te2Te2TeTe H_S O_Tr2TrTrPi2 O_Te2Te2TeTe O_Tr2Tr2TrPi P_TeTeTeTePi O_Te2Te2Te2Te
M  BCL BND NonConjugatedSingleBond NonConjugatedSingleBondInRing NonConjugatedSingleBond NonConjugatedSingleBondInRing NonConjugatedSingleBond NonConjugatedSingleBondInRing NonConjugatedSingleBond NonConjugatedSingleBond NonConjugatedSingleBondInRing NonConjugatedSingleBond NonConjugatedSingleBond NonConjugatedSingleBond NonConjugatedSingleBondInRing NonConjugatedSingleBond NonConjugatedSingleBond NonConjugatedSingleBond NonConjugatedSingleBond NonConjugatedSingleBond NonConjugatedSingleBond NonConjugatedSingleBond NonConjugatedSingleBond NonConjugatedSingleBond NonConjugatedSingleBond ConjugatedSingleBond ConjugatedSingleBond ConjugatedDoubleBond ConjugatedSingleBond
M  BCL CHI   1   S   3   R   5   R  20   R  26   R
M  BCL DBI -
M  END
> <ConfClashScore>
0 

> <ConfOneFourInteractionScore>
-0.982248 

> <ConfScore>
-0.244809 

> <ConfScorePBest>
0.0124205 

> <ConfTolerance>
0.43809 

$$$$
L08.****
  PyMOL2.5          3D                             0

 27 27  0  0  0  0  0  0  0  0999 V2000
   11.7580   -4.9555   -0.0781 C   0  0  0  1  0  0  0  0  0  0  0  0
   12.2654   -5.6743   -0.6870 H   0  0  0  1  0  0  0  0  0  0  0  0
   10.7320   -4.1799   -0.8870 C   0  0  0  1  0  0  0  0  0  0  0  0
   11.0712   -4.0113   -1.8877 H   0  0  0  1  0  0  0  0  0  0  0  0
   10.6424   -2.8792   -0.1064 C   0  0  0  1  0  0  0  0  0  0  0  0
   10.3162   -2.0824   -0.7418 H   0  0  0  1  0  0  0  0  0  0  0  0
   11.1509   -5.6114    1.0215 O   0  0  0  1  0  0  0  0  0  0  0  0
   11.8310   -5.9796    1.5902 H   0  0  0  1  0  0  0  0  0  0  0  0
    9.4743   -4.8561   -0.9174 O   0  0  0  1  0  0  0  0  0  0  0  0
    9.4295   -5.4823   -0.1912 H   0  0  0  1  0  0  0  0  0  0  0  0
   11.9712   -2.6318    0.3666 O   0  0  0  1  0  0  0  0  0  0  0  0
    9.6966   -3.0214    1.0404 C   0  0  0  1  0  0  0  0  0  0  0  0
   10.0622   -3.7580    1.7251 H   0  0  0  1  0  0  0  0  0  0  0  0
    8.7315   -3.3139    0.6828 H   0  0  0  1  0  0  0  0  0  0  0  0
   13.1799   -4.1631    1.7871 C   0  0  0  1  0  0  0  0  0  0  0  0
   12.3437   -4.2133    2.4528 H   0  0  0  1  0  0  0  0  0  0  0  0
   13.7078   -5.0936    1.8059 H   0  0  0  1  0  0  0  0  0  0  0  0
   14.0467   -3.1055    2.1755 O   0  0  0  1  0  0  0  0  0  0  0  0
   14.4781   -3.3322    3.0026 H   0  0  0  1  0  0  0  0  0  0  0  0
   12.7068   -3.8693    0.3900 C   0  0  0  1  0  0  0  0  0  0  0  0
   13.8169   -3.7895   -0.4758 O   0  0  0  1  0  0  0  0  0  0  0  0
   14.3043   -4.6161   -0.4489 H   0  0  0  1  0  0  0  0  0  0  0  0
    9.6091   -1.7362    1.6997 O   0  0  0  1  0  0  0  0  0  0  0  0
    7.3400   -1.9373    2.9644 O   0  0  0  0  0  0  0  0  0  0  0  0
    9.2302   -0.2503    3.7178 O   0  0  0  1  0  0  0  0  0  0  0  0
    8.9292   -1.5981    3.1857 P   0  0  0  1  0  0  0  0  0  0  0  0
    9.5788   -2.7673    4.0996 O   0  5  0  1  0  0  0  0  0  0  0  0
  1  2  1  0  0  0  0
  1  3  1  0  0  0  0
  1  7  1  0  0  0  0
  1 20  1  0  0  0  0
  3  4  1  0  0  0  0
  3  5  1  0  0  0  0
  3  9  1  0  0  0  0
  5  6  1  0  0  0  0
  5 11  1  0  0  0  0
  5 12  1  0  0  0  0
  7  8  1  0  0  0  0
  9 10  1  0  0  0  0
 11 20  1  0  0  0  0
 12 13  1  0  0  0  0
 12 14  1  0  0  0  0
 12 23  1  0  0  0  0
 15 16  1  0  0  0  0
 15 17  1  0  0  0  0
 15 18  1  0  0  0  0
 15 20  1  0  0  0  0
 18 19  1  0  0  0  0
 20 21  1  0  0  0  0
 21 22  1  0  0  0  0
 23 26  1  0  0  0  0
 24 26  1  0  0  0  0
 25 26  2  0  0  0  0
 26 27  1  0  0  0  0
M  BCL ATM C_TeTeTeTe H_S C_TeTeTeTe H_S C_TeTeTeTe H_S O_Te2Te2TeTe H_S O_Te2Te2TeTe H_S O_Te2Te2TeTe C_TeTeTeTe H_S H_S C_TeTeTeTe H_S H_S O_Te2Te2TeTe H_S C_TeTeTeTe O_Te2Te2TeTe H_S O_Tr2TrTrPi2 O_Te2Te2TeTe O_Tr2Tr2TrPi P_TeTeTeTePi O_Te2Te2Te2Te
M  BCL BND NonConjugatedSingleBond NonConjugatedSingleBondInRing NonConjugatedSingleBond NonConjugatedSingleBondInRing NonConjugatedSingleBond NonConjugatedSingleBondInRing NonConjugatedSingleBond NonConjugatedSingleBond NonConjugatedSingleBondInRing NonConjugatedSingleBond NonConjugatedSingleBond NonConjugatedSingleBond NonConjugatedSingleBondInRing NonConjugatedSingleBond NonConjugatedSingleBond NonConjugatedSingleBond NonConjugatedSingleBond NonConjugatedSingleBond NonConjugatedSingleBond NonConjugatedSingleBond NonConjugatedSingleBond NonConjugatedSingleBond NonConjugatedSingleBond ConjugatedSingleBond ConjugatedSingleBond ConjugatedDoubleBond ConjugatedSingleBond
M  BCL CHI   1   S   3   R   5   R  20   R  26   R
M  BCL DBI -
M  END
> <ConfClashScore>
0 

> <ConfOneFourInteractionScore>
-0.980422 

> <ConfScore>
-0.244161 

> <ConfScorePBest>
0.0123175 

> <ConfTolerance>
0.449061 

$$$$
L08.****
  PyMOL2.5          3D                             0

 27 27  0  0  0  0  0  0  0  0999 V2000
   11.6886   -5.0327   -0.0828 C   0  0  0  1  0  0  0  0  0  0  0  0
   12.0870   -5.7581   -0.7611 H   0  0  0  1  0  0  0  0  0  0  0  0
   10.6765   -4.1307   -0.7687 C   0  0  0  1  0  0  0  0  0  0  0  0
   10.9537   -3.9433   -1.7850 H   0  0  0  1  0  0  0  0  0  0  0  0
   10.7433   -2.8617    0.0584 C   0  0  0  1  0  0  0  0  0  0  0  0
   10.6398   -2.0047   -0.5739 H   0  0  0  1  0  0  0  0  0  0  0  0
   11.1140   -5.6978    1.0431 O   0  0  0  1  0  0  0  0  0  0  0  0
   11.5704   -6.5293    1.1914 H   0  0  0  1  0  0  0  0  0  0  0  0
    9.3707   -4.7011   -0.7291 O   0  0  0  1  0  0  0  0  0  0  0  0
    9.4240   -5.6011   -0.3994 H   0  0  0  1  0  0  0  0  0  0  0  0
   12.0311   -2.8488    0.7024 O   0  0  0  1  0  0  0  0  0  0  0  0
    9.6570   -2.8591    1.0831 C   0  0  0  1  0  0  0  0  0  0  0  0
    9.7322   -3.7330    1.6960 H   0  0  0  1  0  0  0  0  0  0  0  0
    8.7018   -2.8418    0.6014 H   0  0  0  1  0  0  0  0  0  0  0  0
   13.5183   -4.5580    1.5265 C   0  0  0  1  0  0  0  0  0  0  0  0
   12.8490   -4.7092    2.3475 H   0  0  0  1  0  0  0  0  0  0  0  0
   13.9801   -5.4875    1.2663 H   0  0  0  1  0  0  0  0  0  0  0  0
   14.5199   -3.6210    1.8999 O   0  0  0  1  0  0  0  0  0  0  0  0
   14.1192   -2.7584    2.0300 H   0  0  0  1  0  0  0  0  0  0  0  0
   12.7508   -4.0346    0.3467 C   0  0  0  1  0  0  0  0  0  0  0  0
   13.6407   -3.7726   -0.7151 O   0  0  0  1  0  0  0  0  0  0  0  0
   14.4805   -3.4696   -0.3620 H   0  0  0  1  0  0  0  0  0  0  0  0
    9.8213   -1.6724    1.8947 O   0  0  0  1  0  0  0  0  0  0  0  0
    7.5674   -1.9412    3.3702 O   0  0  0  0  0  0  0  0  0  0  0  0
    7.7618   -0.1201    1.6298 O   0  0  0  1  0  0  0  0  0  0  0  0
    8.5666   -0.8903    2.6042 P   0  0  0  1  0  0  0  0  0  0  0  0
    9.0862    0.0495    3.8172 O   0  5  0  1  0  0  0  0  0  0  0  0
  1  2  1  0  0  0  0
  1  3  1  0  0  0  0
  1  7  1  0  0  0  0
  1 20  1  0  0  0  0
  3  4  1  0  0  0  0
  3  5  1  0  0  0  0
  3  9  1  0  0  0  0
  5  6  1  0  0  0  0
  5 11  1  0  0  0  0
  5 12  1  0  0  0  0
  7  8  1  0  0  0  0
  9 10  1  0  0  0  0
 11 20  1  0  0  0  0
 12 13  1  0  0  0  0
 12 14  1  0  0  0  0
 12 23  1  0  0  0  0
 15 16  1  0  0  0  0
 15 17  1  0  0  0  0
 15 18  1  0  0  0  0
 15 20  1  0  0  0  0
 18 19  1  0  0  0  0
 20 21  1  0  0  0  0
 21 22  1  0  0  0  0
 23 26  1  0  0  0  0
 24 26  1  0  0  0  0
 25 26  2  0  0  0  0
 26 27  1  0  0  0  0
M  BCL ATM C_TeTeTeTe H_S C_TeTeTeTe H_S C_TeTeTeTe H_S O_Te2Te2TeTe H_S O_Te2Te2TeTe H_S O_Te2Te2TeTe C_TeTeTeTe H_S H_S C_TeTeTeTe H_S H_S O_Te2Te2TeTe H_S C_TeTeTeTe O_Te2Te2TeTe H_S O_Tr2TrTrPi2 O_Te2Te2TeTe O_Tr2Tr2TrPi P_TeTeTeTePi O_Te2Te2Te2Te
M  BCL BND NonConjugatedSingleBond NonConjugatedSingleBondInRing NonConjugatedSingleBond NonConjugatedSingleBondInRing NonConjugatedSingleBond NonConjugatedSingleBondInRing NonConjugatedSingleBond NonConjugatedSingleBond NonConjugatedSingleBondInRing NonConjugatedSingleBond NonConjugatedSingleBond NonConjugatedSingleBond NonConjugatedSingleBondInRing NonConjugatedSingleBond NonConjugatedSingleBond NonConjugatedSingleBond NonConjugatedSingleBond NonConjugatedSingleBond NonConjugatedSingleBond NonConjugatedSingleBond NonConjugatedSingleBond NonConjugatedSingleBond NonConjugatedSingleBond ConjugatedSingleBond ConjugatedSingleBond ConjugatedDoubleBond ConjugatedSingleBond
M  BCL CHI   1   S   3   R   5   R  20   R  26   R
M  BCL DBI -
M  END
> <ConfClashScore>
0 

> <ConfOneFourInteractionScore>
-0.980422 

> <ConfScore>
-0.243676 

> <ConfScorePBest>
0.0122145 

> <ConfTolerance>
0.405035 

$$$$
L08.****
  PyMOL2.5          3D                             0

 27 27  0  0  0  0  0  0  0  0999 V2000
   11.7673   -4.9881   -0.3031 C   0  0  0  1  0  0  0  0  0  0  0  0
   12.3252   -5.1288   -1.2053 H   0  0  0  1  0  0  0  0  0  0  0  0
   10.4798   -4.2493   -0.5743 C   0  0  0  1  0  0  0  0  0  0  0  0
   10.0731   -4.5167   -1.5271 H   0  0  0  1  0  0  0  0  0  0  0  0
   10.9266   -2.8066   -0.5559 C   0  0  0  1  0  0  0  0  0  0  0  0
   11.2947   -2.5154   -1.5174 H   0  0  0  1  0  0  0  0  0  0  0  0
   11.5109   -6.2565    0.3015 O   0  0  0  1  0  0  0  0  0  0  0  0
   12.2729   -6.8282    0.1824 H   0  0  0  1  0  0  0  0  0  0  0  0
    9.5128   -4.5042    0.4455 O   0  0  0  1  0  0  0  0  0  0  0  0
    9.4886   -5.4447    0.6364 H   0  0  0  1  0  0  0  0  0  0  0  0
   11.9782   -2.7507    0.4253 O   0  0  0  1  0  0  0  0  0  0  0  0
    9.8095   -1.9238   -0.1680 C   0  0  0  1  0  0  0  0  0  0  0  0
    9.0257   -2.0089   -0.8914 H   0  0  0  1  0  0  0  0  0  0  0  0
   10.1557   -0.9119   -0.1337 H   0  0  0  1  0  0  0  0  0  0  0  0
   12.2572   -4.4936    2.0715 C   0  0  0  1  0  0  0  0  0  0  0  0
   12.4229   -5.5467    2.1636 H   0  0  0  1  0  0  0  0  0  0  0  0
   12.9273   -3.9686    2.7198 H   0  0  0  1  0  0  0  0  0  0  0  0
   10.9161   -4.1929    2.4345 O   0  0  0  1  0  0  0  0  0  0  0  0
   10.8540   -4.1067    3.3886 H   0  0  0  1  0  0  0  0  0  0  0  0
   12.5034   -4.0719    0.6515 C   0  0  0  1  0  0  0  0  0  0  0  0
   13.8878   -4.0995    0.3857 O   0  0  0  1  0  0  0  0  0  0  0  0
   14.2586   -3.2252    0.5258 H   0  0  0  1  0  0  0  0  0  0  0  0
    9.2992   -2.2971    1.1335 O   0  0  0  1  0  0  0  0  0  0  0  0
    6.7175   -1.6766    1.0732 O   0  0  0  0  0  0  0  0  0  0  0  0
    8.4148    0.0343    2.0170 O   0  0  0  1  0  0  0  0  0  0  0  0
    8.1293   -1.4099    1.8640 P   0  0  0  1  0  0  0  0  0  0  0  0
    7.9664   -2.0599    3.3389 O   0  5  0  1  0  0  0  0  0  0  0  0
  1  2  1  0  0  0  0
  1  3  1  0  0  0  0
  1  7  1  0  0  0  0
  1 20  1  0  0  0  0
  3  4  1  0  0  0  0
  3  5  1  0  0  0  0
  3  9  1  0  0  0  0
  5  6  1  0  0  0  0
  5 11  1  0  0  0  0
  5 12  1  0  0  0  0
  7  8  1  0  0  0  0
  9 10  1  0  0  0  0
 11 20  1  0  0  0  0
 12 13  1  0  0  0  0
 12 14  1  0  0  0  0
 12 23  1  0  0  0  0
 15 16  1  0  0  0  0
 15 17  1  0  0  0  0
 15 18  1  0  0  0  0
 15 20  1  0  0  0  0
 18 19  1  0  0  0  0
 20 21  1  0  0  0  0
 21 22  1  0  0  0  0
 23 26  1  0  0  0  0
 24 26  1  0  0  0  0
 25 26  2  0  0  0  0
 26 27  1  0  0  0  0
M  BCL ATM C_TeTeTeTe H_S C_TeTeTeTe H_S C_TeTeTeTe H_S O_Te2Te2TeTe H_S O_Te2Te2TeTe H_S O_Te2Te2TeTe C_TeTeTeTe H_S H_S C_TeTeTeTe H_S H_S O_Te2Te2TeTe H_S C_TeTeTeTe O_Te2Te2TeTe H_S O_Tr2TrTrPi2 O_Te2Te2TeTe O_Tr2Tr2TrPi P_TeTeTeTePi O_Te2Te2Te2Te
M  BCL BND NonConjugatedSingleBond NonConjugatedSingleBondInRing NonConjugatedSingleBond NonConjugatedSingleBondInRing NonConjugatedSingleBond NonConjugatedSingleBondInRing NonConjugatedSingleBond NonConjugatedSingleBond NonConjugatedSingleBondInRing NonConjugatedSingleBond NonConjugatedSingleBond NonConjugatedSingleBond NonConjugatedSingleBondInRing NonConjugatedSingleBond NonConjugatedSingleBond NonConjugatedSingleBond NonConjugatedSingleBond NonConjugatedSingleBond NonConjugatedSingleBond NonConjugatedSingleBond NonConjugatedSingleBond NonConjugatedSingleBond NonConjugatedSingleBond ConjugatedSingleBond ConjugatedSingleBond ConjugatedDoubleBond ConjugatedSingleBond
M  BCL CHI   1   S   3   R   5   R  20   R  26   R
M  BCL DBI -
M  END
> <ConfClashScore>
0 

> <ConfOneFourInteractionScore>
-0.993347 

> <ConfScore>
-0.242866 

> <ConfScorePBest>
0.0121115 

> <ConfTolerance>
0.418144 

$$$$
L08.****
  PyMOL2.5          3D                             0

 27 27  0  0  0  0  0  0  0  0999 V2000
   11.8313   -5.0235   -0.2226 C   0  0  0  1  0  0  0  0  0  0  0  0
   12.3492   -5.3460   -1.1016 H   0  0  0  1  0  0  0  0  0  0  0  0
   10.5399   -4.3173   -0.5798 C   0  0  0  1  0  0  0  0  0  0  0  0
   10.2075   -4.6120   -1.5532 H   0  0  0  1  0  0  0  0  0  0  0  0
   10.8785   -2.8416   -0.5579 C   0  0  0  1  0  0  0  0  0  0  0  0
   10.7325   -2.4156   -1.5285 H   0  0  0  1  0  0  0  0  0  0  0  0
   11.5850   -6.1466    0.6248 O   0  0  0  1  0  0  0  0  0  0  0  0
   12.2356   -6.8301    0.4481 H   0  0  0  1  0  0  0  0  0  0  0  0
    9.5246   -4.6130    0.3804 O   0  0  0  1  0  0  0  0  0  0  0  0
    8.8945   -5.2299    0.0009 H   0  0  0  1  0  0  0  0  0  0  0  0
   12.2697   -2.7392   -0.1729 O   0  0  0  1  0  0  0  0  0  0  0  0
   10.0169   -2.1308    0.4332 C   0  0  0  1  0  0  0  0  0  0  0  0
   10.2123   -2.5013    1.4178 H   0  0  0  1  0  0  0  0  0  0  0  0
    8.9851   -2.2813    0.1932 H   0  0  0  1  0  0  0  0  0  0  0  0
   12.2120   -3.9033    1.8894 C   0  0  0  1  0  0  0  0  0  0  0  0
   12.6399   -3.0168    2.3088 H   0  0  0  1  0  0  0  0  0  0  0  0
   11.1447   -3.8338    1.9202 H   0  0  0  1  0  0  0  0  0  0  0  0
   12.5874   -4.9750    2.6977 O   0  0  0  1  0  0  0  0  0  0  0  0
   13.5417   -4.9784    2.8025 H   0  0  0  1  0  0  0  0  0  0  0  0
   12.6054   -3.9626    0.5003 C   0  0  0  1  0  0  0  0  0  0  0  0
   13.9903   -4.2128    0.4136 O   0  0  0  1  0  0  0  0  0  0  0  0
   14.4734   -3.4789    0.8004 H   0  0  0  1  0  0  0  0  0  0  0  0
   10.3385   -0.7217    0.3642 O   0  0  0  1  0  0  0  0  0  0  0  0
   10.2067    1.8050    1.1698 O   0  0  0  0  0  0  0  0  0  0  0  0
   10.5905   -0.1383    2.7716 O   0  0  0  1  0  0  0  0  0  0  0  0
    9.8230    0.2619    1.5711 P   0  0  0  1  0  0  0  0  0  0  0  0
    8.2119    0.1844    1.7213 O   0  5  0  1  0  0  0  0  0  0  0  0
  1  2  1  0  0  0  0
  1  3  1  0  0  0  0
  1  7  1  0  0  0  0
  1 20  1  0  0  0  0
  3  4  1  0  0  0  0
  3  5  1  0  0  0  0
  3  9  1  0  0  0  0
  5  6  1  0  0  0  0
  5 11  1  0  0  0  0
  5 12  1  0  0  0  0
  7  8  1  0  0  0  0
  9 10  1  0  0  0  0
 11 20  1  0  0  0  0
 12 13  1  0  0  0  0
 12 14  1  0  0  0  0
 12 23  1  0  0  0  0
 15 16  1  0  0  0  0
 15 17  1  0  0  0  0
 15 18  1  0  0  0  0
 15 20  1  0  0  0  0
 18 19  1  0  0  0  0
 20 21  1  0  0  0  0
 21 22  1  0  0  0  0
 23 26  1  0  0  0  0
 24 26  1  0  0  0  0
 25 26  2  0  0  0  0
 26 27  1  0  0  0  0
M  BCL ATM C_TeTeTeTe H_S C_TeTeTeTe H_S C_TeTeTeTe H_S O_Te2Te2TeTe H_S O_Te2Te2TeTe H_S O_Te2Te2TeTe C_TeTeTeTe H_S H_S C_TeTeTeTe H_S H_S O_Te2Te2TeTe H_S C_TeTeTeTe O_Te2Te2TeTe H_S O_Tr2TrTrPi2 O_Te2Te2TeTe O_Tr2Tr2TrPi P_TeTeTeTePi O_Te2Te2Te2Te
M  BCL BND NonConjugatedSingleBond NonConjugatedSingleBondInRing NonConjugatedSingleBond NonConjugatedSingleBondInRing NonConjugatedSingleBond NonConjugatedSingleBondInRing NonConjugatedSingleBond NonConjugatedSingleBond NonConjugatedSingleBondInRing NonConjugatedSingleBond NonConjugatedSingleBond NonConjugatedSingleBond NonConjugatedSingleBondInRing NonConjugatedSingleBond NonConjugatedSingleBond NonConjugatedSingleBond NonConjugatedSingleBond NonConjugatedSingleBond NonConjugatedSingleBond NonConjugatedSingleBond NonConjugatedSingleBond NonConjugatedSingleBond NonConjugatedSingleBond ConjugatedSingleBond ConjugatedSingleBond ConjugatedDoubleBond ConjugatedSingleBond
M  BCL CHI   1   S   3   R   5   R  20   R  26   R
M  BCL DBI -
M  END
> <ConfClashScore>
0 

> <ConfOneFourInteractionScore>
-0.983447 

> <ConfScore>
-0.242014 

> <ConfScorePBest>
0.0120085 

> <ConfTolerance>
0.424143 

$$$$
L08.****
  PyMOL2.5          3D                             0

 27 27  0  0  0  0  0  0  0  0999 V2000
   11.8205   -5.0206   -0.2282 C   0  0  0  1  0  0  0  0  0  0  0  0
   12.3443   -5.3415   -1.1042 H   0  0  0  1  0  0  0  0  0  0  0  0
   10.5382   -4.3019   -0.5932 C   0  0  0  1  0  0  0  0  0  0  0  0
   10.2130   -4.5876   -1.5717 H   0  0  0  1  0  0  0  0  0  0  0  0
   10.8883   -2.8291   -0.5585 C   0  0  0  1  0  0  0  0  0  0  0  0
   10.7551   -2.3957   -1.5277 H   0  0  0  1  0  0  0  0  0  0  0  0
   11.5571   -6.1471    0.6095 O   0  0  0  1  0  0  0  0  0  0  0  0
   12.2243   -6.8209    0.4595 H   0  0  0  1  0  0  0  0  0  0  0  0
    9.5114   -4.5956    0.3553 O   0  0  0  1  0  0  0  0  0  0  0  0
    8.9786   -5.3269    0.0345 H   0  0  0  1  0  0  0  0  0  0  0  0
   12.2765   -2.7403   -0.1594 O   0  0  0  1  0  0  0  0  0  0  0  0
   10.0228   -2.1178    0.4289 C   0  0  0  1  0  0  0  0  0  0  0  0
   10.1936   -2.5077    1.4106 H   0  0  0  1  0  0  0  0  0  0  0  0
    8.9928   -2.2446    0.1685 H   0  0  0  1  0  0  0  0  0  0  0  0
   12.1730   -3.9149    1.9512 C   0  0  0  1  0  0  0  0  0  0  0  0
   11.1096   -3.8156    2.0163 H   0  0  0  1  0  0  0  0  0  0  0  0
   12.4801   -4.8066    2.4566 H   0  0  0  1  0  0  0  0  0  0  0  0
   12.8028   -2.7834    2.5374 O   0  0  0  1  0  0  0  0  0  0  0  0
   13.7507   -2.9296    2.5782 H   0  0  0  1  0  0  0  0  0  0  0  0
   12.5960   -3.9706    0.5090 C   0  0  0  1  0  0  0  0  0  0  0  0
   13.9796   -4.2313    0.4341 O   0  0  0  1  0  0  0  0  0  0  0  0
   14.4676   -3.4615    0.7356 H   0  0  0  1  0  0  0  0  0  0  0  0
   10.3721   -0.7142    0.3885 O   0  0  0  1  0  0  0  0  0  0  0  0
   10.1148    1.8768    0.9132 O   0  0  0  0  0  0  0  0  0  0  0  0
    9.8272   -0.0108    2.6826 O   0  0  0  1  0  0  0  0  0  0  0  0
    9.5464    0.3839    1.2841 P   0  0  0  1  0  0  0  0  0  0  0  0
    7.9775    0.2465    0.9042 O   0  5  0  1  0  0  0  0  0  0  0  0
  1  2  1  0  0  0  0
  1  3  1  0  0  0  0
  1  7  1  0  0  0  0
  1 20  1  0  0  0  0
  3  4  1  0  0  0  0
  3  5  1  0  0  0  0
  3  9  1  0  0  0  0
  5  6  1  0  0  0  0
  5 11  1  0  0  0  0
  5 12  1  0  0  0  0
  7  8  1  0  0  0  0
  9 10  1  0  0  0  0
 11 20  1  0  0  0  0
 12 13  1  0  0  0  0
 12 14  1  0  0  0  0
 12 23  1  0  0  0  0
 15 16  1  0  0  0  0
 15 17  1  0  0  0  0
 15 18  1  0  0  0  0
 15 20  1  0  0  0  0
 18 19  1  0  0  0  0
 20 21  1  0  0  0  0
 21 22  1  0  0  0  0
 23 26  1  0  0  0  0
 24 26  1  0  0  0  0
 25 26  2  0  0  0  0
 26 27  1  0  0  0  0
M  BCL ATM C_TeTeTeTe H_S C_TeTeTeTe H_S C_TeTeTeTe H_S O_Te2Te2TeTe H_S O_Te2Te2TeTe H_S O_Te2Te2TeTe C_TeTeTeTe H_S H_S C_TeTeTeTe H_S H_S O_Te2Te2TeTe H_S C_TeTeTeTe O_Te2Te2TeTe H_S O_Tr2TrTrPi2 O_Te2Te2TeTe O_Tr2Tr2TrPi P_TeTeTeTePi O_Te2Te2Te2Te
M  BCL BND NonConjugatedSingleBond NonConjugatedSingleBondInRing NonConjugatedSingleBond NonConjugatedSingleBondInRing NonConjugatedSingleBond NonConjugatedSingleBondInRing NonConjugatedSingleBond NonConjugatedSingleBond NonConjugatedSingleBondInRing NonConjugatedSingleBond NonConjugatedSingleBond NonConjugatedSingleBond NonConjugatedSingleBondInRing NonConjugatedSingleBond NonConjugatedSingleBond NonConjugatedSingleBond NonConjugatedSingleBond NonConjugatedSingleBond NonConjugatedSingleBond NonConjugatedSingleBond NonConjugatedSingleBond NonConjugatedSingleBond NonConjugatedSingleBond ConjugatedSingleBond ConjugatedSingleBond ConjugatedDoubleBond ConjugatedSingleBond
M  BCL CHI   1   S   3   R   5   R  20   R  26   R
M  BCL DBI -
M  END
> <ConfClashScore>
0 

> <ConfOneFourInteractionScore>
-0.983447 

> <ConfScore>
-0.241965 

> <ConfScorePBest>
0.0119055 

> <ConfTolerance>
0.402476 

$$$$
L08.****
  PyMOL2.5          3D                             0

 27 27  0  0  0  0  0  0  0  0999 V2000
   11.9950   -5.0191   -0.2629 C   0  0  0  1  0  0  0  0  0  0  0  0
   12.4951   -5.2926   -1.1685 H   0  0  0  1  0  0  0  0  0  0  0  0
   10.6551   -4.3711   -0.5640 C   0  0  0  1  0  0  0  0  0  0  0  0
   10.4941   -4.3078   -1.6199 H   0  0  0  1  0  0  0  0  0  0  0  0
   10.7580   -3.0037    0.0391 C   0  0  0  1  0  0  0  0  0  0  0  0
   11.0151   -2.2868   -0.7125 H   0  0  0  1  0  0  0  0  0  0  0  0
   11.8235   -6.1775    0.5557 O   0  0  0  1  0  0  0  0  0  0  0  0
   11.0031   -6.1029    1.0487 H   0  0  0  1  0  0  0  0  0  0  0  0
    9.5905   -5.1095    0.0372 O   0  0  0  1  0  0  0  0  0  0  0  0
    8.7971   -5.0194   -0.4958 H   0  0  0  1  0  0  0  0  0  0  0  0
   11.7856   -3.0723    1.0264 O   0  0  0  1  0  0  0  0  0  0  0  0
    9.4606   -2.6199    0.6711 C   0  0  0  1  0  0  0  0  0  0  0  0
    9.5588   -1.6724    1.1584 H   0  0  0  1  0  0  0  0  0  0  0  0
    9.1703   -3.3610    1.3863 H   0  0  0  1  0  0  0  0  0  0  0  0
   13.5989   -4.5609    1.5745 C   0  0  0  1  0  0  0  0  0  0  0  0
   14.2754   -5.2750    1.1536 H   0  0  0  1  0  0  0  0  0  0  0  0
   14.1538   -3.7942    2.0736 H   0  0  0  1  0  0  0  0  0  0  0  0
   12.7464   -5.2109    2.5080 O   0  0  0  1  0  0  0  0  0  0  0  0
   12.7410   -6.1549    2.3338 H   0  0  0  1  0  0  0  0  0  0  0  0
   12.7749   -3.9479    0.4789 C   0  0  0  1  0  0  0  0  0  0  0  0
   13.6179   -3.2473   -0.4081 O   0  0  0  1  0  0  0  0  0  0  0  0
   14.4822   -3.6646   -0.4257 H   0  0  0  1  0  0  0  0  0  0  0  0
    8.4687   -2.5335   -0.3792 O   0  0  0  1  0  0  0  0  0  0  0  0
    6.1618   -2.2495   -1.5545 O   0  0  0  0  0  0  0  0  0  0  0  0
    6.8855   -0.6731    0.4327 O   0  0  0  1  0  0  0  0  0  0  0  0
    6.9248   -2.0466   -0.1170 P   0  0  0  1  0  0  0  0  0  0  0  0
    6.1972   -3.2163    0.7355 O   0  5  0  1  0  0  0  0  0  0  0  0
  1  2  1  0  0  0  0
  1  3  1  0  0  0  0
  1  7  1  0  0  0  0
  1 20  1  0  0  0  0
  3  4  1  0  0  0  0
  3  5  1  0  0  0  0
  3  9  1  0  0  0  0
  5  6  1  0  0  0  0
  5 11  1  0  0  0  0
  5 12  1  0  0  0  0
  7  8  1  0  0  0  0
  9 10  1  0  0  0  0
 11 20  1  0  0  0  0
 12 13  1  0  0  0  0
 12 14  1  0  0  0  0
 12 23  1  0  0  0  0
 15 16  1  0  0  0  0
 15 17  1  0  0  0  0
 15 18  1  0  0  0  0
 15 20  1  0  0  0  0
 18 19  1  0  0  0  0
 20 21  1  0  0  0  0
 21 22  1  0  0  0  0
 23 26  1  0  0  0  0
 24 26  1  0  0  0  0
 25 26  2  0  0  0  0
 26 27  1  0  0  0  0
M  BCL ATM C_TeTeTeTe H_S C_TeTeTeTe H_S C_TeTeTeTe H_S O_Te2Te2TeTe H_S O_Te2Te2TeTe H_S O_Te2Te2TeTe C_TeTeTeTe H_S H_S C_TeTeTeTe H_S H_S O_Te2Te2TeTe H_S C_TeTeTeTe O_Te2Te2TeTe H_S O_Tr2TrTrPi2 O_Te2Te2TeTe O_Tr2Tr2TrPi P_TeTeTeTePi O_Te2Te2Te2Te
M  BCL BND NonConjugatedSingleBond NonConjugatedSingleBondInRing NonConjugatedSingleBond NonConjugatedSingleBondInRing NonConjugatedSingleBond NonConjugatedSingleBondInRing NonConjugatedSingleBond NonConjugatedSingleBond NonConjugatedSingleBondInRing NonConjugatedSingleBond NonConjugatedSingleBond NonConjugatedSingleBond NonConjugatedSingleBondInRing NonConjugatedSingleBond NonConjugatedSingleBond NonConjugatedSingleBond NonConjugatedSingleBond NonConjugatedSingleBond NonConjugatedSingleBond NonConjugatedSingleBond NonConjugatedSingleBond NonConjugatedSingleBond NonConjugatedSingleBond ConjugatedSingleBond ConjugatedSingleBond ConjugatedDoubleBond ConjugatedSingleBond
M  BCL CHI   1   S   3   R   5   R  20   R  26   R
M  BCL DBI -
M  END
> <ConfClashScore>
0 

> <ConfOneFourInteractionScore>
-0.983026 

> <ConfScore>
-0.241687 

> <ConfScorePBest>
0.0118025 

> <ConfTolerance>
0.488592 

$$$$
L08.****
  PyMOL2.5          3D                             0

 27 27  0  0  0  0  0  0  0  0999 V2000
   11.8155   -4.8199   -0.0596 C   0  0  0  1  0  0  0  0  0  0  0  0
   12.3679   -5.3166   -0.8297 H   0  0  0  1  0  0  0  0  0  0  0  0
   10.6693   -4.1931   -0.6164 C   0  0  0  1  0  0  0  0  0  0  0  0
   10.6360   -4.3689   -1.6713 H   0  0  0  1  0  0  0  0  0  0  0  0
   10.7645   -2.8000   -0.3633 C   0  0  0  1  0  0  0  0  0  0  0  0
   10.7799   -2.2634   -1.2889 H   0  0  0  1  0  0  0  0  0  0  0  0
   11.4162   -5.7701    0.9292 O   0  0  0  1  0  0  0  0  0  0  0  0
   11.8108   -6.6227    0.7321 H   0  0  0  1  0  0  0  0  0  0  0  0
    9.4993   -4.7111   -0.0143 O   0  0  0  1  0  0  0  0  0  0  0  0
    9.5942   -5.6586    0.1074 H   0  0  0  1  0  0  0  0  0  0  0  0
   11.9700   -2.5635    0.3507 O   0  0  0  1  0  0  0  0  0  0  0  0
    9.6277   -2.3646    0.4311 C   0  0  0  1  0  0  0  0  0  0  0  0
    8.7291   -2.6078   -0.0965 H   0  0  0  1  0  0  0  0  0  0  0  0
    9.6889   -1.3045    0.5627 H   0  0  0  1  0  0  0  0  0  0  0  0
   12.7787   -4.0888    2.0049 C   0  0  0  1  0  0  0  0  0  0  0  0
   13.2328   -3.2440    2.4794 H   0  0  0  1  0  0  0  0  0  0  0  0
   11.8173   -4.2682    2.4389 H   0  0  0  1  0  0  0  0  0  0  0  0
   13.6031   -5.2355    2.1900 O   0  0  0  1  0  0  0  0  0  0  0  0
   14.3954   -5.1503    1.6547 H   0  0  0  1  0  0  0  0  0  0  0  0
   12.6201   -3.8115    0.5374 C   0  0  0  1  0  0  0  0  0  0  0  0
   13.8891   -3.7863   -0.0767 O   0  0  0  1  0  0  0  0  0  0  0  0
   14.1071   -4.6642   -0.3980 H   0  0  0  1  0  0  0  0  0  0  0  0
    9.5811   -2.9899    1.7353 O   0  0  0  1  0  0  0  0  0  0  0  0
    8.6462   -3.5438    4.1329 O   0  0  0  0  0  0  0  0  0  0  0  0
    7.0377   -3.1858    2.1560 O   0  0  0  1  0  0  0  0  0  0  0  0
    8.3164   -2.7316    2.7468 P   0  0  0  1  0  0  0  0  0  0  0  0
    8.3210   -1.1716    3.1837 O   0  5  0  1  0  0  0  0  0  0  0  0
  1  2  1  0  0  0  0
  1  3  1  0  0  0  0
  1  7  1  0  0  0  0
  1 20  1  0  0  0  0
  3  4  1  0  0  0  0
  3  5  1  0  0  0  0
  3  9  1  0  0  0  0
  5  6  1  0  0  0  0
  5 11  1  0  0  0  0
  5 12  1  0  0  0  0
  7  8  1  0  0  0  0
  9 10  1  0  0  0  0
 11 20  1  0  0  0  0
 12 13  1  0  0  0  0
 12 14  1  0  0  0  0
 12 23  1  0  0  0  0
 15 16  1  0  0  0  0
 15 17  1  0  0  0  0
 15 18  1  0  0  0  0
 15 20  1  0  0  0  0
 18 19  1  0  0  0  0
 20 21  1  0  0  0  0
 21 22  1  0  0  0  0
 23 26  1  0  0  0  0
 24 26  1  0  0  0  0
 25 26  2  0  0  0  0
 26 27  1  0  0  0  0
M  BCL ATM C_TeTeTeTe H_S C_TeTeTeTe H_S C_TeTeTeTe H_S O_Te2Te2TeTe H_S O_Te2Te2TeTe H_S O_Te2Te2TeTe C_TeTeTeTe H_S H_S C_TeTeTeTe H_S H_S O_Te2Te2TeTe H_S C_TeTeTeTe O_Te2Te2TeTe H_S O_Tr2TrTrPi2 O_Te2Te2TeTe O_Tr2Tr2TrPi P_TeTeTeTePi O_Te2Te2Te2Te
M  BCL BND NonConjugatedSingleBond NonConjugatedSingleBondInRing NonConjugatedSingleBond NonConjugatedSingleBondInRing NonConjugatedSingleBond NonConjugatedSingleBondInRing NonConjugatedSingleBond NonConjugatedSingleBond NonConjugatedSingleBondInRing NonConjugatedSingleBond NonConjugatedSingleBond NonConjugatedSingleBond NonConjugatedSingleBondInRing NonConjugatedSingleBond NonConjugatedSingleBond NonConjugatedSingleBond NonConjugatedSingleBond NonConjugatedSingleBond NonConjugatedSingleBond NonConjugatedSingleBond NonConjugatedSingleBond NonConjugatedSingleBond NonConjugatedSingleBond ConjugatedSingleBond ConjugatedSingleBond ConjugatedDoubleBond ConjugatedSingleBond
M  BCL CHI   1   S   3   R   5   R  20   R  26   R
M  BCL DBI -
M  END
> <ConfClashScore>
0 

> <ConfOneFourInteractionScore>
-0.993347 

> <ConfScore>
-0.236589 

> <ConfScorePBest>
0.0116995 

> <ConfTolerance>
0.483752 

$$$$
L08.****
  PyMOL2.5          3D                             0

 27 27  0  0  0  0  0  0  0  0999 V2000
   11.7398   -4.9465   -0.1765 C   0  0  0  1  0  0  0  0  0  0  0  0
   12.2001   -5.4048   -1.0268 H   0  0  0  1  0  0  0  0  0  0  0  0
   10.6103   -4.1911   -0.5890 C   0  0  0  1  0  0  0  0  0  0  0  0
   10.4936   -4.2624   -1.6503 H   0  0  0  1  0  0  0  0  0  0  0  0
   10.8294   -2.8366   -0.2177 C   0  0  0  1  0  0  0  0  0  0  0  0
   10.8232   -2.2158   -1.0892 H   0  0  0  1  0  0  0  0  0  0  0  0
   11.3328   -5.9630    0.7548 O   0  0  0  1  0  0  0  0  0  0  0  0
   11.9963   -6.6564    0.7826 H   0  0  0  1  0  0  0  0  0  0  0  0
    9.4373   -4.6850    0.0529 O   0  0  0  1  0  0  0  0  0  0  0  0
    9.1498   -5.4915   -0.3813 H   0  0  0  1  0  0  0  0  0  0  0  0
   12.0940   -2.7558    0.4219 O   0  0  0  1  0  0  0  0  0  0  0  0
    9.7576   -2.3889    0.7208 C   0  0  0  1  0  0  0  0  0  0  0  0
   10.0393   -1.4653    1.1817 H   0  0  0  1  0  0  0  0  0  0  0  0
    9.6005   -3.1312    1.4752 H   0  0  0  1  0  0  0  0  0  0  0  0
   12.8886   -4.4875    1.8710 C   0  0  0  1  0  0  0  0  0  0  0  0
   11.9504   -4.4935    2.3853 H   0  0  0  1  0  0  0  0  0  0  0  0
   13.3019   -5.4745    1.8702 H   0  0  0  1  0  0  0  0  0  0  0  0
   13.7796   -3.6209    2.5584 O   0  0  0  1  0  0  0  0  0  0  0  0
   14.4285   -4.1422    3.0368 H   0  0  0  1  0  0  0  0  0  0  0  0
   12.6560   -4.0607    0.4478 C   0  0  0  1  0  0  0  0  0  0  0  0
   13.8801   -4.0679   -0.2519 O   0  0  0  1  0  0  0  0  0  0  0  0
   14.4576   -3.3894    0.1056 H   0  0  0  1  0  0  0  0  0  0  0  0
    8.5467   -2.2057   -0.0502 O   0  0  0  1  0  0  0  0  0  0  0  0
    5.9991   -1.8770   -0.5039 O   0  0  0  0  0  0  0  0  0  0  0  0
    7.2834   -0.4811    1.2242 O   0  0  0  1  0  0  0  0  0  0  0  0
    7.1256   -1.8514    0.6877 P   0  0  0  1  0  0  0  0  0  0  0  0
    6.6463   -2.9946    1.7307 O   0  5  0  1  0  0  0  0  0  0  0  0
  1  2  1  0  0  0  0
  1  3  1  0  0  0  0
  1  7  1  0  0  0  0
  1 20  1  0  0  0  0
  3  4  1  0  0  0  0
  3  5  1  0  0  0  0
  3  9  1  0  0  0  0
  5  6  1  0  0  0  0
  5 11  1  0  0  0  0
  5 12  1  0  0  0  0
  7  8  1  0  0  0  0
  9 10  1  0  0  0  0
 11 20  1  0  0  0  0
 12 13  1  0  0  0  0
 12 14  1  0  0  0  0
 12 23  1  0  0  0  0
 15 16  1  0  0  0  0
 15 17  1  0  0  0  0
 15 18  1  0  0  0  0
 15 20  1  0  0  0  0
 18 19  1  0  0  0  0
 20 21  1  0  0  0  0
 21 22  1  0  0  0  0
 23 26  1  0  0  0  0
 24 26  1  0  0  0  0
 25 26  2  0  0  0  0
 26 27  1  0  0  0  0
M  BCL ATM C_TeTeTeTe H_S C_TeTeTeTe H_S C_TeTeTeTe H_S O_Te2Te2TeTe H_S O_Te2Te2TeTe H_S O_Te2Te2TeTe C_TeTeTeTe H_S H_S C_TeTeTeTe H_S H_S O_Te2Te2TeTe H_S C_TeTeTeTe O_Te2Te2TeTe H_S O_Tr2TrTrPi2 O_Te2Te2TeTe O_Tr2Tr2TrPi P_TeTeTeTePi O_Te2Te2Te2Te
M  BCL BND NonConjugatedSingleBond NonConjugatedSingleBondInRing NonConjugatedSingleBond NonConjugatedSingleBondInRing NonConjugatedSingleBond NonConjugatedSingleBondInRing NonConjugatedSingleBond NonConjugatedSingleBond NonConjugatedSingleBondInRing NonConjugatedSingleBond NonConjugatedSingleBond NonConjugatedSingleBond NonConjugatedSingleBondInRing NonConjugatedSingleBond NonConjugatedSingleBond NonConjugatedSingleBond NonConjugatedSingleBond NonConjugatedSingleBond NonConjugatedSingleBond NonConjugatedSingleBond NonConjugatedSingleBond NonConjugatedSingleBond NonConjugatedSingleBond ConjugatedSingleBond ConjugatedSingleBond ConjugatedDoubleBond ConjugatedSingleBond
M  BCL CHI   1   S   3   R   5   R  20   R  26   R
M  BCL DBI -
M  END
> <ConfClashScore>
0 

> <ConfOneFourInteractionScore>
-0.976386 

> <ConfScore>
-0.236163 

> <ConfScorePBest>
0.0115965 

> <ConfTolerance>
0.450126 

$$$$
L08.****
  PyMOL2.5          3D                             0

 27 27  0  0  0  0  0  0  0  0999 V2000
   12.0507   -4.8857   -0.2067 C   0  0  0  1  0  0  0  0  0  0  0  0
   12.6373   -4.9475   -1.0994 H   0  0  0  1  0  0  0  0  0  0  0  0
   10.6649   -4.3648   -0.4985 C   0  0  0  1  0  0  0  0  0  0  0  0
   10.3179   -4.7120   -1.4493 H   0  0  0  1  0  0  0  0  0  0  0  0
   10.8491   -2.8619   -0.5050 C   0  0  0  1  0  0  0  0  0  0  0  0
   10.9965   -2.5107   -1.5049 H   0  0  0  1  0  0  0  0  0  0  0  0
   11.9996   -6.1683    0.4199 O   0  0  0  1  0  0  0  0  0  0  0  0
   11.1532   -6.5818    0.2349 H   0  0  0  1  0  0  0  0  0  0  0  0
    9.7448   -4.7624    0.5191 O   0  0  0  1  0  0  0  0  0  0  0  0
    9.1950   -5.4782    0.1921 H   0  0  0  1  0  0  0  0  0  0  0  0
   12.0169   -2.5971    0.2940 O   0  0  0  1  0  0  0  0  0  0  0  0
    9.6536   -2.1914    0.0876 C   0  0  0  1  0  0  0  0  0  0  0  0
    9.4841   -2.5578    1.0785 H   0  0  0  1  0  0  0  0  0  0  0  0
    8.7914   -2.3832   -0.5164 H   0  0  0  1  0  0  0  0  0  0  0  0
   12.1883   -4.1375    2.1488 C   0  0  0  1  0  0  0  0  0  0  0  0
   12.5906   -3.3809    2.7896 H   0  0  0  1  0  0  0  0  0  0  0  0
   11.1200   -4.1247    2.2078 H   0  0  0  1  0  0  0  0  0  0  0  0
   12.6543   -5.4053    2.5918 O   0  0  0  1  0  0  0  0  0  0  0  0
   11.9214   -6.0248    2.6182 H   0  0  0  1  0  0  0  0  0  0  0  0
   12.5965   -3.8385    0.7350 C   0  0  0  1  0  0  0  0  0  0  0  0
   14.0031   -3.7844    0.6526 O   0  0  0  1  0  0  0  0  0  0  0  0
   14.2793   -3.9811   -0.2455 H   0  0  0  1  0  0  0  0  0  0  0  0
    9.9220   -0.7668    0.1270 O   0  0  0  1  0  0  0  0  0  0  0  0
    9.4634    1.8639   -0.1643 O   0  0  0  0  0  0  0  0  0  0  0  0
    7.5801    0.3062    0.6254 O   0  0  0  1  0  0  0  0  0  0  0  0
    8.7916    0.3689   -0.2223 P   0  0  0  1  0  0  0  0  0  0  0  0
    8.3350    0.2226   -1.7698 O   0  5  0  1  0  0  0  0  0  0  0  0
  1  2  1  0  0  0  0
  1  3  1  0  0  0  0
  1  7  1  0  0  0  0
  1 20  1  0  0  0  0
  3  4  1  0  0  0  0
  3  5  1  0  0  0  0
  3  9  1  0  0  0  0
  5  6  1  0  0  0  0
  5 11  1  0  0  0  0
  5 12  1  0  0  0  0
  7  8  1  0  0  0  0
  9 10  1  0  0  0  0
 11 20  1  0  0  0  0
 12 13  1  0  0  0  0
 12 14  1  0  0  0  0
 12 23  1  0  0  0  0
 15 16  1  0  0  0  0
 15 17  1  0  0  0  0
 15 18  1  0  0  0  0
 15 20  1  0  0  0  0
 18 19  1  0  0  0  0
 20 21  1  0  0  0  0
 21 22  1  0  0  0  0
 23 26  1  0  0  0  0
 24 26  1  0  0  0  0
 25 26  2  0  0  0  0
 26 27  1  0  0  0  0
M  BCL ATM C_TeTeTeTe H_S C_TeTeTeTe H_S C_TeTeTeTe H_S O_Te2Te2TeTe H_S O_Te2Te2TeTe H_S O_Te2Te2TeTe C_TeTeTeTe H_S H_S C_TeTeTeTe H_S H_S O_Te2Te2TeTe H_S C_TeTeTeTe O_Te2Te2TeTe H_S O_Tr2TrTrPi2 O_Te2Te2TeTe O_Tr2Tr2TrPi P_TeTeTeTePi O_Te2Te2Te2Te
M  BCL BND NonConjugatedSingleBond NonConjugatedSingleBondInRing NonConjugatedSingleBond NonConjugatedSingleBondInRing NonConjugatedSingleBond NonConjugatedSingleBondInRing NonConjugatedSingleBond NonConjugatedSingleBond NonConjugatedSingleBondInRing NonConjugatedSingleBond NonConjugatedSingleBond NonConjugatedSingleBond NonConjugatedSingleBondInRing NonConjugatedSingleBond NonConjugatedSingleBond NonConjugatedSingleBond NonConjugatedSingleBond NonConjugatedSingleBond NonConjugatedSingleBond NonConjugatedSingleBond NonConjugatedSingleBond NonConjugatedSingleBond NonConjugatedSingleBond ConjugatedSingleBond ConjugatedSingleBond ConjugatedDoubleBond ConjugatedSingleBond
M  BCL CHI   1   S   3   R   5   R  20   R  26   R
M  BCL DBI -
M  END
> <ConfClashScore>
0 

> <ConfOneFourInteractionScore>
-0.980422 

> <ConfScore>
-0.233257 

> <ConfScorePBest>
0.0114935 

> <ConfTolerance>
0.494507 

$$$$
L08.****
  PyMOL2.5          3D                             0

 27 27  0  0  0  0  0  0  0  0999 V2000
   12.0025   -4.9611   -0.2620 C   0  0  0  1  0  0  0  0  0  0  0  0
   12.5424   -5.1839   -1.1586 H   0  0  0  1  0  0  0  0  0  0  0  0
   10.7878   -4.2992   -0.5830 C   0  0  0  1  0  0  0  0  0  0  0  0
   10.7069   -4.1828   -1.6436 H   0  0  0  1  0  0  0  0  0  0  0  0
   10.8055   -3.0228    0.0424 C   0  0  0  1  0  0  0  0  0  0  0  0
   10.7322   -2.2545   -0.6986 H   0  0  0  1  0  0  0  0  0  0  0  0
   11.7230   -6.1733    0.4398 O   0  0  0  1  0  0  0  0  0  0  0  0
   11.1144   -5.9934    1.1602 H   0  0  0  1  0  0  0  0  0  0  0  0
    9.6787   -5.0603   -0.1007 O   0  0  0  1  0  0  0  0  0  0  0  0
    8.9255   -4.9328   -0.6821 H   0  0  0  1  0  0  0  0  0  0  0  0
   12.0310   -2.8964    0.7475 O   0  0  0  1  0  0  0  0  0  0  0  0
    9.6599   -2.9089    0.9936 C   0  0  0  1  0  0  0  0  0  0  0  0
    8.7350   -2.9796    0.4602 H   0  0  0  1  0  0  0  0  0  0  0  0
    9.7050   -1.9716    1.5077 H   0  0  0  1  0  0  0  0  0  0  0  0
   13.0272   -4.7484    1.8871 C   0  0  0  1  0  0  0  0  0  0  0  0
   12.0875   -4.9612    2.3526 H   0  0  0  1  0  0  0  0  0  0  0  0
   13.5595   -5.6619    1.7229 H   0  0  0  1  0  0  0  0  0  0  0  0
   13.7916   -3.9252    2.7581 O   0  0  0  1  0  0  0  0  0  0  0  0
   13.3083   -3.7888    3.5763 H   0  0  0  1  0  0  0  0  0  0  0  0
   12.7702   -4.0953    0.5595 C   0  0  0  1  0  0  0  0  0  0  0  0
   13.9991   -3.8057   -0.0683 O   0  0  0  1  0  0  0  0  0  0  0  0
   13.8402   -3.2841   -0.8584 H   0  0  0  1  0  0  0  0  0  0  0  0
    9.7663   -3.9967    1.9418 O   0  0  0  1  0  0  0  0  0  0  0  0
    9.1287   -5.4624    3.9274 O   0  0  0  0  0  0  0  0  0  0  0  0
    7.3304   -4.1812    2.5493 O   0  0  0  1  0  0  0  0  0  0  0  0
    8.6741   -4.0850    3.1621 P   0  0  0  1  0  0  0  0  0  0  0  0
    8.9056   -2.8317    4.1621 O   0  5  0  1  0  0  0  0  0  0  0  0
  1  2  1  0  0  0  0
  1  3  1  0  0  0  0
  1  7  1  0  0  0  0
  1 20  1  0  0  0  0
  3  4  1  0  0  0  0
  3  5  1  0  0  0  0
  3  9  1  0  0  0  0
  5  6  1  0  0  0  0
  5 11  1  0  0  0  0
  5 12  1  0  0  0  0
  7  8  1  0  0  0  0
  9 10  1  0  0  0  0
 11 20  1  0  0  0  0
 12 13  1  0  0  0  0
 12 14  1  0  0  0  0
 12 23  1  0  0  0  0
 15 16  1  0  0  0  0
 15 17  1  0  0  0  0
 15 18  1  0  0  0  0
 15 20  1  0  0  0  0
 18 19  1  0  0  0  0
 20 21  1  0  0  0  0
 21 22  1  0  0  0  0
 23 26  1  0  0  0  0
 24 26  1  0  0  0  0
 25 26  2  0  0  0  0
 26 27  1  0  0  0  0
M  BCL ATM C_TeTeTeTe H_S C_TeTeTeTe H_S C_TeTeTeTe H_S O_Te2Te2TeTe H_S O_Te2Te2TeTe H_S O_Te2Te2TeTe C_TeTeTeTe H_S H_S C_TeTeTeTe H_S H_S O_Te2Te2TeTe H_S C_TeTeTeTe O_Te2Te2TeTe H_S O_Tr2TrTrPi2 O_Te2Te2TeTe O_Tr2Tr2TrPi P_TeTeTeTePi O_Te2Te2Te2Te
M  BCL BND NonConjugatedSingleBond NonConjugatedSingleBondInRing NonConjugatedSingleBond NonConjugatedSingleBondInRing NonConjugatedSingleBond NonConjugatedSingleBondInRing NonConjugatedSingleBond NonConjugatedSingleBond NonConjugatedSingleBondInRing NonConjugatedSingleBond NonConjugatedSingleBond NonConjugatedSingleBond NonConjugatedSingleBondInRing NonConjugatedSingleBond NonConjugatedSingleBond NonConjugatedSingleBond NonConjugatedSingleBond NonConjugatedSingleBond NonConjugatedSingleBond NonConjugatedSingleBond NonConjugatedSingleBond NonConjugatedSingleBond NonConjugatedSingleBond ConjugatedSingleBond ConjugatedSingleBond ConjugatedDoubleBond ConjugatedSingleBond
M  BCL CHI   1   S   3   R   5   R  20   R  26   R
M  BCL DBI -
M  END
> <ConfClashScore>
0 

> <ConfOneFourInteractionScore>
-0.989543 

> <ConfScore>
-0.232817 

> <ConfScorePBest>
0.0113905 

> <ConfTolerance>
0.463042 

$$$$
L08.****
  PyMOL2.5          3D                             0

 27 27  0  0  0  0  0  0  0  0999 V2000
   11.9675   -4.9384   -0.2243 C   0  0  0  1  0  0  0  0  0  0  0  0
   12.4645   -5.1415   -1.1498 H   0  0  0  1  0  0  0  0  0  0  0  0
   10.5680   -4.4244   -0.4572 C   0  0  0  1  0  0  0  0  0  0  0  0
   10.1261   -4.8916   -1.3123 H   0  0  0  1  0  0  0  0  0  0  0  0
   10.7733   -2.9431   -0.6948 C   0  0  0  1  0  0  0  0  0  0  0  0
   10.8291   -2.7401   -1.7439 H   0  0  0  1  0  0  0  0  0  0  0  0
   11.9576   -6.1183    0.5806 O   0  0  0  1  0  0  0  0  0  0  0  0
   12.0030   -6.8926    0.0149 H   0  0  0  1  0  0  0  0  0  0  0  0
    9.7442   -4.6488    0.6878 O   0  0  0  1  0  0  0  0  0  0  0  0
    8.8236   -4.6857    0.4180 H   0  0  0  1  0  0  0  0  0  0  0  0
   12.0163   -2.6021   -0.0538 O   0  0  0  1  0  0  0  0  0  0  0  0
    9.6504   -2.1623   -0.0952 C   0  0  0  1  0  0  0  0  0  0  0  0
    9.6586   -1.1620   -0.4748 H   0  0  0  1  0  0  0  0  0  0  0  0
    9.7496   -2.1409    0.9700 H   0  0  0  1  0  0  0  0  0  0  0  0
   12.3422   -3.8711    1.9774 C   0  0  0  1  0  0  0  0  0  0  0  0
   11.2901   -3.7968    2.1578 H   0  0  0  1  0  0  0  0  0  0  0  0
   12.7059   -4.8005    2.3633 H   0  0  0  1  0  0  0  0  0  0  0  0
   13.0192   -2.7883    2.6017 O   0  0  0  1  0  0  0  0  0  0  0  0
   13.8835   -3.0803    2.9005 H   0  0  0  1  0  0  0  0  0  0  0  0
   12.6170   -3.7853    0.5037 C   0  0  0  1  0  0  0  0  0  0  0  0
   14.0097   -3.7834    0.2839 O   0  0  0  1  0  0  0  0  0  0  0  0
   14.4540   -4.1746    1.0397 H   0  0  0  1  0  0  0  0  0  0  0  0
    8.4140   -2.8184   -0.4618 O   0  0  0  1  0  0  0  0  0  0  0  0
    5.7595   -3.1452   -0.5875 O   0  0  0  0  0  0  0  0  0  0  0  0
    6.9362   -0.8159   -0.5459 O   0  0  0  1  0  0  0  0  0  0  0  0
    6.9656   -2.1954   -0.0106 P   0  0  0  1  0  0  0  0  0  0  0  0
    6.9702   -2.2066    1.6094 O   0  5  0  1  0  0  0  0  0  0  0  0
  1  2  1  0  0  0  0
  1  3  1  0  0  0  0
  1  7  1  0  0  0  0
  1 20  1  0  0  0  0
  3  4  1  0  0  0  0
  3  5  1  0  0  0  0
  3  9  1  0  0  0  0
  5  6  1  0  0  0  0
  5 11  1  0  0  0  0
  5 12  1  0  0  0  0
  7  8  1  0  0  0  0
  9 10  1  0  0  0  0
 11 20  1  0  0  0  0
 12 13  1  0  0  0  0
 12 14  1  0  0  0  0
 12 23  1  0  0  0  0
 15 16  1  0  0  0  0
 15 17  1  0  0  0  0
 15 18  1  0  0  0  0
 15 20  1  0  0  0  0
 18 19  1  0  0  0  0
 20 21  1  0  0  0  0
 21 22  1  0  0  0  0
 23 26  1  0  0  0  0
 24 26  1  0  0  0  0
 25 26  2  0  0  0  0
 26 27  1  0  0  0  0
M  BCL ATM C_TeTeTeTe H_S C_TeTeTeTe H_S C_TeTeTeTe H_S O_Te2Te2TeTe H_S O_Te2Te2TeTe H_S O_Te2Te2TeTe C_TeTeTeTe H_S H_S C_TeTeTeTe H_S H_S O_Te2Te2TeTe H_S C_TeTeTeTe O_Te2Te2TeTe H_S O_Tr2TrTrPi2 O_Te2Te2TeTe O_Tr2Tr2TrPi P_TeTeTeTePi O_Te2Te2Te2Te
M  BCL BND NonConjugatedSingleBond NonConjugatedSingleBondInRing NonConjugatedSingleBond NonConjugatedSingleBondInRing NonConjugatedSingleBond NonConjugatedSingleBondInRing NonConjugatedSingleBond NonConjugatedSingleBond NonConjugatedSingleBondInRing NonConjugatedSingleBond NonConjugatedSingleBond NonConjugatedSingleBond NonConjugatedSingleBondInRing NonConjugatedSingleBond NonConjugatedSingleBond NonConjugatedSingleBond NonConjugatedSingleBond NonConjugatedSingleBond NonConjugatedSingleBond NonConjugatedSingleBond NonConjugatedSingleBond NonConjugatedSingleBond NonConjugatedSingleBond ConjugatedSingleBond ConjugatedSingleBond ConjugatedDoubleBond ConjugatedSingleBond
M  BCL CHI   1   S   3   R   5   R  20   R  26   R
M  BCL DBI -
M  END
> <ConfClashScore>
0 

> <ConfOneFourInteractionScore>
-0.976768 

> <ConfScore>
-0.23236 

> <ConfScorePBest>
0.0112875 

> <ConfTolerance>
0.466973 

$$$$
L08.****
  PyMOL2.5          3D                             0

 27 27  0  0  0  0  0  0  0  0999 V2000
   11.8941   -5.0465   -0.3314 C   0  0  0  1  0  0  0  0  0  0  0  0
   12.3560   -5.2789   -1.2681 H   0  0  0  1  0  0  0  0  0  0  0  0
   10.6583   -4.1890   -0.5400 C   0  0  0  1  0  0  0  0  0  0  0  0
   10.5129   -3.9814   -1.5796 H   0  0  0  1  0  0  0  0  0  0  0  0
   10.9465   -2.9287    0.2166 C   0  0  0  1  0  0  0  0  0  0  0  0
   11.3041   -2.1715   -0.4495 H   0  0  0  1  0  0  0  0  0  0  0  0
   11.5599   -6.2572    0.3488 O   0  0  0  1  0  0  0  0  0  0  0  0
   11.4506   -6.0787    1.2857 H   0  0  0  1  0  0  0  0  0  0  0  0
    9.4981   -4.8387   -0.0165 O   0  0  0  1  0  0  0  0  0  0  0  0
    9.1225   -5.4134   -0.6874 H   0  0  0  1  0  0  0  0  0  0  0  0
   11.9498   -3.2532    1.1776 O   0  0  0  1  0  0  0  0  0  0  0  0
    9.7116   -2.4458    0.9034 C   0  0  0  1  0  0  0  0  0  0  0  0
    8.9412   -2.2648    0.1832 H   0  0  0  1  0  0  0  0  0  0  0  0
    9.9210   -1.5423    1.4371 H   0  0  0  1  0  0  0  0  0  0  0  0
   13.5031   -4.9569    1.6089 C   0  0  0  1  0  0  0  0  0  0  0  0
   12.7722   -5.4418    2.2217 H   0  0  0  1  0  0  0  0  0  0  0  0
   14.1461   -5.6915    1.1709 H   0  0  0  1  0  0  0  0  0  0  0  0
   14.2748   -4.0691    2.4070 O   0  0  0  1  0  0  0  0  0  0  0  0
   13.7570   -3.2859    2.6073 H   0  0  0  1  0  0  0  0  0  0  0  0
   12.8111   -4.1871    0.5211 C   0  0  0  1  0  0  0  0  0  0  0  0
   13.7287   -3.4738   -0.2772 O   0  0  0  1  0  0  0  0  0  0  0  0
   13.3393   -3.3026   -1.1379 H   0  0  0  1  0  0  0  0  0  0  0  0
    9.2905   -3.4772    1.8268 O   0  0  0  1  0  0  0  0  0  0  0  0
    6.6799   -3.4334    1.5578 O   0  0  0  0  0  0  0  0  0  0  0  0
    7.7897   -2.1600    3.4604 O   0  0  0  1  0  0  0  0  0  0  0  0
    7.8853   -3.4074    2.6696 P   0  0  0  1  0  0  0  0  0  0  0  0
    7.7212   -4.7849    3.5061 O   0  5  0  1  0  0  0  0  0  0  0  0
  1  2  1  0  0  0  0
  1  3  1  0  0  0  0
  1  7  1  0  0  0  0
  1 20  1  0  0  0  0
  3  4  1  0  0  0  0
  3  5  1  0  0  0  0
  3  9  1  0  0  0  0
  5  6  1  0  0  0  0
  5 11  1  0  0  0  0
  5 12  1  0  0  0  0
  7  8  1  0  0  0  0
  9 10  1  0  0  0  0
 11 20  1  0  0  0  0
 12 13  1  0  0  0  0
 12 14  1  0  0  0  0
 12 23  1  0  0  0  0
 15 16  1  0  0  0  0
 15 17  1  0  0  0  0
 15 18  1  0  0  0  0
 15 20  1  0  0  0  0
 18 19  1  0  0  0  0
 20 21  1  0  0  0  0
 21 22  1  0  0  0  0
 23 26  1  0  0  0  0
 24 26  1  0  0  0  0
 25 26  2  0  0  0  0
 26 27  1  0  0  0  0
M  BCL ATM C_TeTeTeTe H_S C_TeTeTeTe H_S C_TeTeTeTe H_S O_Te2Te2TeTe H_S O_Te2Te2TeTe H_S O_Te2Te2TeTe C_TeTeTeTe H_S H_S C_TeTeTeTe H_S H_S O_Te2Te2TeTe H_S C_TeTeTeTe O_Te2Te2TeTe H_S O_Tr2TrTrPi2 O_Te2Te2TeTe O_Tr2Tr2TrPi P_TeTeTeTePi O_Te2Te2Te2Te
M  BCL BND NonConjugatedSingleBond NonConjugatedSingleBondInRing NonConjugatedSingleBond NonConjugatedSingleBondInRing NonConjugatedSingleBond NonConjugatedSingleBondInRing NonConjugatedSingleBond NonConjugatedSingleBond NonConjugatedSingleBondInRing NonConjugatedSingleBond NonConjugatedSingleBond NonConjugatedSingleBond NonConjugatedSingleBondInRing NonConjugatedSingleBond NonConjugatedSingleBond NonConjugatedSingleBond NonConjugatedSingleBond NonConjugatedSingleBond NonConjugatedSingleBond NonConjugatedSingleBond NonConjugatedSingleBond NonConjugatedSingleBond NonConjugatedSingleBond ConjugatedSingleBond ConjugatedSingleBond ConjugatedDoubleBond ConjugatedSingleBond
M  BCL CHI   1   S   3   R   5   R  20   R  26   R
M  BCL DBI -
M  END
> <ConfClashScore>
0 

> <ConfOneFourInteractionScore>
-0.990322 

> <ConfScore>
-0.231561 

> <ConfScorePBest>
0.0111845 

> <ConfTolerance>
0.482892 

$$$$
L08.****
  PyMOL2.5          3D                             0

 27 27  0  0  0  0  0  0  0  0999 V2000
   12.0115   -4.8498   -0.3210 C   0  0  0  1  0  0  0  0  0  0  0  0
   12.5991   -4.8180   -1.2146 H   0  0  0  1  0  0  0  0  0  0  0  0
   10.6237   -4.3116   -0.5682 C   0  0  0  1  0  0  0  0  0  0  0  0
   10.2820   -4.5582   -1.5517 H   0  0  0  1  0  0  0  0  0  0  0  0
   10.8243   -2.8222   -0.4166 C   0  0  0  1  0  0  0  0  0  0  0  0
   11.1540   -2.3921   -1.3392 H   0  0  0  1  0  0  0  0  0  0  0  0
   11.9597   -6.1922    0.1687 O   0  0  0  1  0  0  0  0  0  0  0  0
   11.2478   -6.2730    0.8077 H   0  0  0  1  0  0  0  0  0  0  0  0
    9.6960   -4.8096    0.3979 O   0  0  0  1  0  0  0  0  0  0  0  0
    9.4565   -5.7125    0.1765 H   0  0  0  1  0  0  0  0  0  0  0  0
   11.8364   -2.6801    0.5969 O   0  0  0  1  0  0  0  0  0  0  0  0
    9.5551   -2.1641    0.0148 C   0  0  0  1  0  0  0  0  0  0  0  0
    9.2585   -2.5371    0.9728 H   0  0  0  1  0  0  0  0  0  0  0  0
    8.7825   -2.3591   -0.6993 H   0  0  0  1  0  0  0  0  0  0  0  0
   12.3749   -4.4900    2.1002 C   0  0  0  1  0  0  0  0  0  0  0  0
   12.8084   -3.8352    2.8270 H   0  0  0  1  0  0  0  0  0  0  0  0
   11.3284   -4.5974    2.2952 H   0  0  0  1  0  0  0  0  0  0  0  0
   13.0029   -5.7629    2.1768 O   0  0  0  1  0  0  0  0  0  0  0  0
   12.3658   -6.4173    2.4727 H   0  0  0  1  0  0  0  0  0  0  0  0
   12.5701   -3.9117    0.7281 C   0  0  0  1  0  0  0  0  0  0  0  0
   13.9439   -3.6886    0.5025 O   0  0  0  1  0  0  0  0  0  0  0  0
   14.2113   -4.1294   -0.3073 H   0  0  0  1  0  0  0  0  0  0  0  0
    9.8037   -0.7409    0.0956 O   0  0  0  1  0  0  0  0  0  0  0  0
    9.0811    1.7120    0.8228 O   0  0  0  0  0  0  0  0  0  0  0  0
    9.1811   -0.2192    2.4437 O   0  0  0  1  0  0  0  0  0  0  0  0
    8.7876    0.1155    1.0568 P   0  0  0  1  0  0  0  0  0  0  0  0
    7.2458   -0.2506    0.7200 O   0  5  0  1  0  0  0  0  0  0  0  0
  1  2  1  0  0  0  0
  1  3  1  0  0  0  0
  1  7  1  0  0  0  0
  1 20  1  0  0  0  0
  3  4  1  0  0  0  0
  3  5  1  0  0  0  0
  3  9  1  0  0  0  0
  5  6  1  0  0  0  0
  5 11  1  0  0  0  0
  5 12  1  0  0  0  0
  7  8  1  0  0  0  0
  9 10  1  0  0  0  0
 11 20  1  0  0  0  0
 12 13  1  0  0  0  0
 12 14  1  0  0  0  0
 12 23  1  0  0  0  0
 15 16  1  0  0  0  0
 15 17  1  0  0  0  0
 15 18  1  0  0  0  0
 15 20  1  0  0  0  0
 18 19  1  0  0  0  0
 20 21  1  0  0  0  0
 21 22  1  0  0  0  0
 23 26  1  0  0  0  0
 24 26  1  0  0  0  0
 25 26  2  0  0  0  0
 26 27  1  0  0  0  0
M  BCL ATM C_TeTeTeTe H_S C_TeTeTeTe H_S C_TeTeTeTe H_S O_Te2Te2TeTe H_S O_Te2Te2TeTe H_S O_Te2Te2TeTe C_TeTeTeTe H_S H_S C_TeTeTeTe H_S H_S O_Te2Te2TeTe H_S C_TeTeTeTe O_Te2Te2TeTe H_S O_Tr2TrTrPi2 O_Te2Te2TeTe O_Tr2Tr2TrPi P_TeTeTeTePi O_Te2Te2Te2Te
M  BCL BND NonConjugatedSingleBond NonConjugatedSingleBondInRing NonConjugatedSingleBond NonConjugatedSingleBondInRing NonConjugatedSingleBond NonConjugatedSingleBondInRing NonConjugatedSingleBond NonConjugatedSingleBond NonConjugatedSingleBondInRing NonConjugatedSingleBond NonConjugatedSingleBond NonConjugatedSingleBond NonConjugatedSingleBondInRing NonConjugatedSingleBond NonConjugatedSingleBond NonConjugatedSingleBond NonConjugatedSingleBond NonConjugatedSingleBond NonConjugatedSingleBond NonConjugatedSingleBond NonConjugatedSingleBond NonConjugatedSingleBond NonConjugatedSingleBond ConjugatedSingleBond ConjugatedSingleBond ConjugatedDoubleBond ConjugatedSingleBond
M  BCL CHI   1   S   3   R   5   R  20   R  26   R
M  BCL DBI -
M  END
> <ConfClashScore>
0 

> <ConfOneFourInteractionScore>
-0.980422 

> <ConfScore>
-0.225326 

> <ConfScorePBest>
0.0110815 

> <ConfTolerance>
0.522104 

$$$$
L08.****
  PyMOL2.5          3D                             0

 27 27  0  0  0  0  0  0  0  0999 V2000
   11.6753   -5.0539   -0.1151 C   0  0  0  1  0  0  0  0  0  0  0  0
   12.0350   -5.7337   -0.8590 H   0  0  0  1  0  0  0  0  0  0  0  0
   10.6210   -4.1189   -0.6833 C   0  0  0  1  0  0  0  0  0  0  0  0
   10.8365   -3.8680   -1.7009 H   0  0  0  1  0  0  0  0  0  0  0  0
   10.7327   -2.9021    0.2146 C   0  0  0  1  0  0  0  0  0  0  0  0
   10.5888   -2.0090   -0.3569 H   0  0  0  1  0  0  0  0  0  0  0  0
   11.1721   -5.7888    0.9978 O   0  0  0  1  0  0  0  0  0  0  0  0
   11.9039   -6.1795    1.4810 H   0  0  0  1  0  0  0  0  0  0  0  0
    9.3180   -4.7015   -0.6010 O   0  0  0  1  0  0  0  0  0  0  0  0
    9.2853   -5.4917   -1.1453 H   0  0  0  1  0  0  0  0  0  0  0  0
   12.0565   -2.9194    0.7806 O   0  0  0  1  0  0  0  0  0  0  0  0
    9.7095   -2.9696    1.3001 C   0  0  0  1  0  0  0  0  0  0  0  0
    8.7453   -3.1668    0.8803 H   0  0  0  1  0  0  0  0  0  0  0  0
    9.6837   -2.0431    1.8347 H   0  0  0  1  0  0  0  0  0  0  0  0
   13.5961   -4.6651    1.4088 C   0  0  0  1  0  0  0  0  0  0  0  0
   12.9905   -4.8128    2.2785 H   0  0  0  1  0  0  0  0  0  0  0  0
   13.9943   -5.6047    1.0872 H   0  0  0  1  0  0  0  0  0  0  0  0
   14.6646   -3.7814    1.7217 O   0  0  0  1  0  0  0  0  0  0  0  0
   15.4443   -4.0312    1.2205 H   0  0  0  1  0  0  0  0  0  0  0  0
   12.7578   -4.0763    0.3109 C   0  0  0  1  0  0  0  0  0  0  0  0
   13.5819   -3.7438   -0.7838 O   0  0  0  1  0  0  0  0  0  0  0  0
   14.4761   -3.5818   -0.4742 H   0  0  0  1  0  0  0  0  0  0  0  0
   10.0877   -4.0460    2.1954 O   0  0  0  1  0  0  0  0  0  0  0  0
    9.7809   -5.8923    4.0262 O   0  0  0  0  0  0  0  0  0  0  0  0
    7.9731   -5.6132    2.2303 O   0  0  0  1  0  0  0  0  0  0  0  0
    8.9536   -4.8666    3.0498 P   0  0  0  1  0  0  0  0  0  0  0  0
    8.1845   -3.8164    4.0141 O   0  5  0  1  0  0  0  0  0  0  0  0
  1  2  1  0  0  0  0
  1  3  1  0  0  0  0
  1  7  1  0  0  0  0
  1 20  1  0  0  0  0
  3  4  1  0  0  0  0
  3  5  1  0  0  0  0
  3  9  1  0  0  0  0
  5  6  1  0  0  0  0
  5 11  1  0  0  0  0
  5 12  1  0  0  0  0
  7  8  1  0  0  0  0
  9 10  1  0  0  0  0
 11 20  1  0  0  0  0
 12 13  1  0  0  0  0
 12 14  1  0  0  0  0
 12 23  1  0  0  0  0
 15 16  1  0  0  0  0
 15 17  1  0  0  0  0
 15 18  1  0  0  0  0
 15 20  1  0  0  0  0
 18 19  1  0  0  0  0
 20 21  1  0  0  0  0
 21 22  1  0  0  0  0
 23 26  1  0  0  0  0
 24 26  1  0  0  0  0
 25 26  2  0  0  0  0
 26 27  1  0  0  0  0
M  BCL ATM C_TeTeTeTe H_S C_TeTeTeTe H_S C_TeTeTeTe H_S O_Te2Te2TeTe H_S O_Te2Te2TeTe H_S O_Te2Te2TeTe C_TeTeTeTe H_S H_S C_TeTeTeTe H_S H_S O_Te2Te2TeTe H_S C_TeTeTeTe O_Te2Te2TeTe H_S O_Tr2TrTrPi2 O_Te2Te2TeTe O_Tr2Tr2TrPi P_TeTeTeTePi O_Te2Te2Te2Te
M  BCL BND NonConjugatedSingleBond NonConjugatedSingleBondInRing NonConjugatedSingleBond NonConjugatedSingleBondInRing NonConjugatedSingleBond NonConjugatedSingleBondInRing NonConjugatedSingleBond NonConjugatedSingleBond NonConjugatedSingleBondInRing NonConjugatedSingleBond NonConjugatedSingleBond NonConjugatedSingleBond NonConjugatedSingleBondInRing NonConjugatedSingleBond NonConjugatedSingleBond NonConjugatedSingleBond NonConjugatedSingleBond NonConjugatedSingleBond NonConjugatedSingleBond NonConjugatedSingleBond NonConjugatedSingleBond NonConjugatedSingleBond NonConjugatedSingleBond ConjugatedSingleBond ConjugatedSingleBond ConjugatedDoubleBond ConjugatedSingleBond
M  BCL CHI   1   S   3   R   5   R  20   R  26   R
M  BCL DBI -
M  END
> <ConfClashScore>
0 

> <ConfOneFourInteractionScore>
-0.993347 

> <ConfScore>
-0.221939 

> <ConfScorePBest>
0.0109785 

> <ConfTolerance>
0.530861 

$$$$
L08.****
  PyMOL2.5          3D                             0

 27 27  0  0  0  0  0  0  0  0999 V2000
   11.9248   -4.9692   -0.2584 C   0  0  0  1  0  0  0  0  0  0  0  0
   12.4197   -5.1605   -1.1876 H   0  0  0  1  0  0  0  0  0  0  0  0
   10.5625   -4.3595   -0.4806 C   0  0  0  1  0  0  0  0  0  0  0  0
   10.1032   -4.7593   -1.3604 H   0  0  0  1  0  0  0  0  0  0  0  0
   10.8611   -2.8846   -0.6480 C   0  0  0  1  0  0  0  0  0  0  0  0
   10.9422   -2.6381   -1.6860 H   0  0  0  1  0  0  0  0  0  0  0  0
   11.8327   -6.1815    0.4912 O   0  0  0  1  0  0  0  0  0  0  0  0
   11.4324   -6.8645   -0.0518 H   0  0  0  1  0  0  0  0  0  0  0  0
    9.7125   -4.5842    0.6451 O   0  0  0  1  0  0  0  0  0  0  0  0
    9.1813   -5.3694    0.4939 H   0  0  0  1  0  0  0  0  0  0  0  0
   12.1148   -2.6505    0.0197 O   0  0  0  1  0  0  0  0  0  0  0  0
    9.7811   -2.0638   -0.0236 C   0  0  0  1  0  0  0  0  0  0  0  0
    8.8421   -2.2840   -0.4868 H   0  0  0  1  0  0  0  0  0  0  0  0
   10.0012   -1.0231   -0.1394 H   0  0  0  1  0  0  0  0  0  0  0  0
   12.3374   -4.0280    1.9935 C   0  0  0  1  0  0  0  0  0  0  0  0
   12.6774   -3.1534    2.5076 H   0  0  0  1  0  0  0  0  0  0  0  0
   11.2822   -4.1371    2.1336 H   0  0  0  1  0  0  0  0  0  0  0  0
   13.0037   -5.1708    2.5136 O   0  0  0  1  0  0  0  0  0  0  0  0
   13.7812   -5.3578    1.9825 H   0  0  0  1  0  0  0  0  0  0  0  0
   12.6349   -3.8927    0.5278 C   0  0  0  1  0  0  0  0  0  0  0  0
   14.0278   -3.9669    0.3215 O   0  0  0  1  0  0  0  0  0  0  0  0
   14.4780   -3.4307    0.9782 H   0  0  0  1  0  0  0  0  0  0  0  0
    9.7286   -2.4028    1.3822 O   0  0  0  1  0  0  0  0  0  0  0  0
    8.9547   -2.1142    3.9281 O   0  0  0  0  0  0  0  0  0  0  0  0
    7.7590   -0.8051    2.0942 O   0  0  0  1  0  0  0  0  0  0  0  0
    9.0745   -1.3674    2.4729 P   0  0  0  1  0  0  0  0  0  0  0  0
   10.2001   -0.2419    2.7738 O   0  5  0  1  0  0  0  0  0  0  0  0
  1  2  1  0  0  0  0
  1  3  1  0  0  0  0
  1  7  1  0  0  0  0
  1 20  1  0  0  0  0
  3  4  1  0  0  0  0
  3  5  1  0  0  0  0
  3  9  1  0  0  0  0
  5  6  1  0  0  0  0
  5 11  1  0  0  0  0
  5 12  1  0  0  0  0
  7  8  1  0  0  0  0
  9 10  1  0  0  0  0
 11 20  1  0  0  0  0
 12 13  1  0  0  0  0
 12 14  1  0  0  0  0
 12 23  1  0  0  0  0
 15 16  1  0  0  0  0
 15 17  1  0  0  0  0
 15 18  1  0  0  0  0
 15 20  1  0  0  0  0
 18 19  1  0  0  0  0
 20 21  1  0  0  0  0
 21 22  1  0  0  0  0
 23 26  1  0  0  0  0
 24 26  1  0  0  0  0
 25 26  2  0  0  0  0
 26 27  1  0  0  0  0
M  BCL ATM C_TeTeTeTe H_S C_TeTeTeTe H_S C_TeTeTeTe H_S O_Te2Te2TeTe H_S O_Te2Te2TeTe H_S O_Te2Te2TeTe C_TeTeTeTe H_S H_S C_TeTeTeTe H_S H_S O_Te2Te2TeTe H_S C_TeTeTeTe O_Te2Te2TeTe H_S O_Tr2TrTrPi2 O_Te2Te2TeTe O_Tr2Tr2TrPi P_TeTeTeTePi O_Te2Te2Te2Te
M  BCL BND NonConjugatedSingleBond NonConjugatedSingleBondInRing NonConjugatedSingleBond NonConjugatedSingleBondInRing NonConjugatedSingleBond NonConjugatedSingleBondInRing NonConjugatedSingleBond NonConjugatedSingleBond NonConjugatedSingleBondInRing NonConjugatedSingleBond NonConjugatedSingleBond NonConjugatedSingleBond NonConjugatedSingleBondInRing NonConjugatedSingleBond NonConjugatedSingleBond NonConjugatedSingleBond NonConjugatedSingleBond NonConjugatedSingleBond NonConjugatedSingleBond NonConjugatedSingleBond NonConjugatedSingleBond NonConjugatedSingleBond NonConjugatedSingleBond ConjugatedSingleBond ConjugatedSingleBond ConjugatedDoubleBond ConjugatedSingleBond
M  BCL CHI   1   S   3   R   5   R  20   R  26   R
M  BCL DBI -
M  END
> <ConfClashScore>
0 

> <ConfOneFourInteractionScore>
-0.993347 

> <ConfScore>
-0.221441 

> <ConfScorePBest>
0.0108755 

> <ConfTolerance>
0.518215 

$$$$
L08.****
  PyMOL2.5          3D                             0

 27 27  0  0  0  0  0  0  0  0999 V2000
   11.9858   -4.9675   -0.3154 C   0  0  0  1  0  0  0  0  0  0  0  0
   12.5121   -5.2499   -1.2032 H   0  0  0  1  0  0  0  0  0  0  0  0
   10.7313   -4.3978   -0.6594 C   0  0  0  1  0  0  0  0  0  0  0  0
   10.6165   -4.3883   -1.7232 H   0  0  0  1  0  0  0  0  0  0  0  0
   10.7008   -3.0697   -0.1601 C   0  0  0  1  0  0  0  0  0  0  0  0
   10.5704   -2.3811   -0.9687 H   0  0  0  1  0  0  0  0  0  0  0  0
   11.7864   -6.1182    0.5070 O   0  0  0  1  0  0  0  0  0  0  0  0
   11.1020   -5.9345    1.1547 H   0  0  0  1  0  0  0  0  0  0  0  0
    9.6757   -5.1603   -0.0726 O   0  0  0  1  0  0  0  0  0  0  0  0
    8.8309   -4.7617   -0.2944 H   0  0  0  1  0  0  0  0  0  0  0  0
   11.9368   -2.8165    0.4936 O   0  0  0  1  0  0  0  0  0  0  0  0
    9.5751   -2.9191    0.8094 C   0  0  0  1  0  0  0  0  0  0  0  0
    9.6354   -3.6802    1.5590 H   0  0  0  1  0  0  0  0  0  0  0  0
    8.6394   -2.9966    0.2962 H   0  0  0  1  0  0  0  0  0  0  0  0
   13.0579   -4.4980    1.7715 C   0  0  0  1  0  0  0  0  0  0  0  0
   13.5388   -5.4513    1.7032 H   0  0  0  1  0  0  0  0  0  0  0  0
   13.7033   -3.8074    2.2729 H   0  0  0  1  0  0  0  0  0  0  0  0
   11.8310   -4.6222    2.4843 O   0  0  0  1  0  0  0  0  0  0  0  0
   11.3179   -3.8173    2.3818 H   0  0  0  1  0  0  0  0  0  0  0  0
   12.7313   -3.9888    0.3967 C   0  0  0  1  0  0  0  0  0  0  0  0
   13.9259   -3.7011   -0.2947 O   0  0  0  1  0  0  0  0  0  0  0  0
   14.6075   -3.4509    0.3334 H   0  0  0  1  0  0  0  0  0  0  0  0
    9.6945   -1.6135    1.4219 O   0  0  0  1  0  0  0  0  0  0  0  0
    8.9906    0.4186    2.9469 O   0  0  0  0  0  0  0  0  0  0  0  0
    9.1619   -2.0457    3.7616 O   0  0  0  1  0  0  0  0  0  0  0  0
    8.7100   -1.1710    2.6566 P   0  0  0  1  0  0  0  0  0  0  0  0
    7.1756   -1.4239    2.2029 O   0  5  0  1  0  0  0  0  0  0  0  0
  1  2  1  0  0  0  0
  1  3  1  0  0  0  0
  1  7  1  0  0  0  0
  1 20  1  0  0  0  0
  3  4  1  0  0  0  0
  3  5  1  0  0  0  0
  3  9  1  0  0  0  0
  5  6  1  0  0  0  0
  5 11  1  0  0  0  0
  5 12  1  0  0  0  0
  7  8  1  0  0  0  0
  9 10  1  0  0  0  0
 11 20  1  0  0  0  0
 12 13  1  0  0  0  0
 12 14  1  0  0  0  0
 12 23  1  0  0  0  0
 15 16  1  0  0  0  0
 15 17  1  0  0  0  0
 15 18  1  0  0  0  0
 15 20  1  0  0  0  0
 18 19  1  0  0  0  0
 20 21  1  0  0  0  0
 21 22  1  0  0  0  0
 23 26  1  0  0  0  0
 24 26  1  0  0  0  0
 25 26  2  0  0  0  0
 26 27  1  0  0  0  0
M  BCL ATM C_TeTeTeTe H_S C_TeTeTeTe H_S C_TeTeTeTe H_S O_Te2Te2TeTe H_S O_Te2Te2TeTe H_S O_Te2Te2TeTe C_TeTeTeTe H_S H_S C_TeTeTeTe H_S H_S O_Te2Te2TeTe H_S C_TeTeTeTe O_Te2Te2TeTe H_S O_Tr2TrTrPi2 O_Te2Te2TeTe O_Tr2Tr2TrPi P_TeTeTeTePi O_Te2Te2Te2Te
M  BCL BND NonConjugatedSingleBond NonConjugatedSingleBondInRing NonConjugatedSingleBond NonConjugatedSingleBondInRing NonConjugatedSingleBond NonConjugatedSingleBondInRing NonConjugatedSingleBond NonConjugatedSingleBond NonConjugatedSingleBondInRing NonConjugatedSingleBond NonConjugatedSingleBond NonConjugatedSingleBond NonConjugatedSingleBondInRing NonConjugatedSingleBond NonConjugatedSingleBond NonConjugatedSingleBond NonConjugatedSingleBond NonConjugatedSingleBond NonConjugatedSingleBond NonConjugatedSingleBond NonConjugatedSingleBond NonConjugatedSingleBond NonConjugatedSingleBond ConjugatedSingleBond ConjugatedSingleBond ConjugatedDoubleBond ConjugatedSingleBond
M  BCL CHI   1   S   3   R   5   R  20   R  26   R
M  BCL DBI -
M  END
> <ConfClashScore>
0 

> <ConfOneFourInteractionScore>
-0.986052 

> <ConfScore>
-0.221158 

> <ConfScorePBest>
0.0107725 

> <ConfTolerance>
0.473339 

$$$$
L08.****
  PyMOL2.5          3D                             0

 27 27  0  0  0  0  0  0  0  0999 V2000
   11.9001   -5.0759   -0.0432 C   0  0  0  1  0  0  0  0  0  0  0  0
   12.2935   -5.7374   -0.7865 H   0  0  0  1  0  0  0  0  0  0  0  0
   10.7106   -4.2929   -0.5728 C   0  0  0  1  0  0  0  0  0  0  0  0
   10.8344   -4.0582   -1.6094 H   0  0  0  1  0  0  0  0  0  0  0  0
   10.7299   -3.0375    0.2774 C   0  0  0  1  0  0  0  0  0  0  0  0
   10.4475   -2.1901   -0.3117 H   0  0  0  1  0  0  0  0  0  0  0  0
   11.5528   -5.8240    1.1269 O   0  0  0  1  0  0  0  0  0  0  0  0
   10.7257   -6.2877    0.9769 H   0  0  0  1  0  0  0  0  0  0  0  0
    9.4943   -5.0191   -0.3904 O   0  0  0  1  0  0  0  0  0  0  0  0
    9.0216   -5.0672   -1.2246 H   0  0  0  1  0  0  0  0  0  0  0  0
   12.0774   -2.8784    0.7590 O   0  0  0  1  0  0  0  0  0  0  0  0
    9.7877   -3.1818    1.4270 C   0  0  0  1  0  0  0  0  0  0  0  0
    8.8199   -3.4678    1.0712 H   0  0  0  1  0  0  0  0  0  0  0  0
    9.7141   -2.2548    1.9563 H   0  0  0  1  0  0  0  0  0  0  0  0
   13.8546   -4.4104    1.3511 C   0  0  0  1  0  0  0  0  0  0  0  0
   13.3064   -4.6351    2.2421 H   0  0  0  1  0  0  0  0  0  0  0  0
   14.3582   -5.2907    1.0101 H   0  0  0  1  0  0  0  0  0  0  0  0
   14.8251   -3.4176    1.6513 O   0  0  0  1  0  0  0  0  0  0  0  0
   15.6249   -3.8388    1.9747 H   0  0  0  1  0  0  0  0  0  0  0  0
   12.8821   -3.9630    0.2827 C   0  0  0  1  0  0  0  0  0  0  0  0
   13.5950   -3.5794   -0.8718 O   0  0  0  1  0  0  0  0  0  0  0  0
   14.4391   -3.2004   -0.6160 H   0  0  0  1  0  0  0  0  0  0  0  0
   10.3146   -4.2078    2.3008 O   0  0  0  1  0  0  0  0  0  0  0  0
   10.7840   -5.3777    4.6864 O   0  0  0  0  0  0  0  0  0  0  0  0
    9.1149   -3.3135    4.3782 O   0  0  0  1  0  0  0  0  0  0  0  0
   10.3507   -3.9908    3.9260 P   0  0  0  1  0  0  0  0  0  0  0  0
   11.5967   -2.9606    4.0275 O   0  5  0  1  0  0  0  0  0  0  0  0
  1  2  1  0  0  0  0
  1  3  1  0  0  0  0
  1  7  1  0  0  0  0
  1 20  1  0  0  0  0
  3  4  1  0  0  0  0
  3  5  1  0  0  0  0
  3  9  1  0  0  0  0
  5  6  1  0  0  0  0
  5 11  1  0  0  0  0
  5 12  1  0  0  0  0
  7  8  1  0  0  0  0
  9 10  1  0  0  0  0
 11 20  1  0  0  0  0
 12 13  1  0  0  0  0
 12 14  1  0  0  0  0
 12 23  1  0  0  0  0
 15 16  1  0  0  0  0
 15 17  1  0  0  0  0
 15 18  1  0  0  0  0
 15 20  1  0  0  0  0
 18 19  1  0  0  0  0
 20 21  1  0  0  0  0
 21 22  1  0  0  0  0
 23 26  1  0  0  0  0
 24 26  1  0  0  0  0
 25 26  2  0  0  0  0
 26 27  1  0  0  0  0
M  BCL ATM C_TeTeTeTe H_S C_TeTeTeTe H_S C_TeTeTeTe H_S O_Te2Te2TeTe H_S O_Te2Te2TeTe H_S O_Te2Te2TeTe C_TeTeTeTe H_S H_S C_TeTeTeTe H_S H_S O_Te2Te2TeTe H_S C_TeTeTeTe O_Te2Te2TeTe H_S O_Tr2TrTrPi2 O_Te2Te2TeTe O_Tr2Tr2TrPi P_TeTeTeTePi O_Te2Te2Te2Te
M  BCL BND NonConjugatedSingleBond NonConjugatedSingleBondInRing NonConjugatedSingleBond NonConjugatedSingleBondInRing NonConjugatedSingleBond NonConjugatedSingleBondInRing NonConjugatedSingleBond NonConjugatedSingleBond NonConjugatedSingleBondInRing NonConjugatedSingleBond NonConjugatedSingleBond NonConjugatedSingleBond NonConjugatedSingleBondInRing NonConjugatedSingleBond NonConjugatedSingleBond NonConjugatedSingleBond NonConjugatedSingleBond NonConjugatedSingleBond NonConjugatedSingleBond NonConjugatedSingleBond NonConjugatedSingleBond NonConjugatedSingleBond NonConjugatedSingleBond ConjugatedSingleBond ConjugatedSingleBond ConjugatedDoubleBond ConjugatedSingleBond
M  BCL CHI   1   S   3   R   5   R  20   R  26   R
M  BCL DBI -
M  END
> <ConfClashScore>
0 

> <ConfOneFourInteractionScore>
-0.990322 

> <ConfScore>
-0.218109 

> <ConfScorePBest>
0.0106695 

> <ConfTolerance>
0.506901 

$$$$
L08.****
  PyMOL2.5          3D                             0

 27 27  0  0  0  0  0  0  0  0999 V2000
   12.0357   -4.8504   -0.3512 C   0  0  0  1  0  0  0  0  0  0  0  0
   12.5927   -4.8069   -1.2637 H   0  0  0  1  0  0  0  0  0  0  0  0
   10.6227   -4.3628   -0.5576 C   0  0  0  1  0  0  0  0  0  0  0  0
   10.2583   -4.6306   -1.5273 H   0  0  0  1  0  0  0  0  0  0  0  0
   10.7761   -2.8661   -0.4251 C   0  0  0  1  0  0  0  0  0  0  0  0
   11.0607   -2.4337   -1.3616 H   0  0  0  1  0  0  0  0  0  0  0  0
   12.0466   -6.1906    0.1519 O   0  0  0  1  0  0  0  0  0  0  0  0
   11.5487   -6.2292    0.9718 H   0  0  0  1  0  0  0  0  0  0  0  0
    9.7450   -4.8831    0.4420 O   0  0  0  1  0  0  0  0  0  0  0  0
    8.9888   -5.2976    0.0201 H   0  0  0  1  0  0  0  0  0  0  0  0
   11.8149   -2.6793    0.5535 O   0  0  0  1  0  0  0  0  0  0  0  0
    9.4994   -2.2481    0.0418 C   0  0  0  1  0  0  0  0  0  0  0  0
    9.6589   -1.2168    0.2785 H   0  0  0  1  0  0  0  0  0  0  0  0
    9.1414   -2.7623    0.9091 H   0  0  0  1  0  0  0  0  0  0  0  0
   12.4643   -4.4551    2.0537 C   0  0  0  1  0  0  0  0  0  0  0  0
   12.9862   -5.3872    2.1144 H   0  0  0  1  0  0  0  0  0  0  0  0
   12.8688   -3.7719    2.7710 H   0  0  0  1  0  0  0  0  0  0  0  0
   11.0796   -4.6571    2.3032 O   0  0  0  1  0  0  0  0  0  0  0  0
   10.8898   -4.4718    3.2258 H   0  0  0  1  0  0  0  0  0  0  0  0
   12.5948   -3.8836    0.6712 C   0  0  0  1  0  0  0  0  0  0  0  0
   13.9520   -3.6153    0.3990 O   0  0  0  1  0  0  0  0  0  0  0  0
   14.3455   -4.3707   -0.0439 H   0  0  0  1  0  0  0  0  0  0  0  0
    8.5366   -2.3639   -1.0322 O   0  0  0  1  0  0  0  0  0  0  0  0
    6.9609   -0.2763   -0.3997 O   0  0  0  0  0  0  0  0  0  0  0  0
    6.2669   -2.7864    0.0652 O   0  0  0  1  0  0  0  0  0  0  0  0
    6.9895   -1.8579   -0.8326 P   0  0  0  1  0  0  0  0  0  0  0  0
    6.4080   -2.0907   -2.3266 O   0  5  0  1  0  0  0  0  0  0  0  0
  1  2  1  0  0  0  0
  1  3  1  0  0  0  0
  1  7  1  0  0  0  0
  1 20  1  0  0  0  0
  3  4  1  0  0  0  0
  3  5  1  0  0  0  0
  3  9  1  0  0  0  0
  5  6  1  0  0  0  0
  5 11  1  0  0  0  0
  5 12  1  0  0  0  0
  7  8  1  0  0  0  0
  9 10  1  0  0  0  0
 11 20  1  0  0  0  0
 12 13  1  0  0  0  0
 12 14  1  0  0  0  0
 12 23  1  0  0  0  0
 15 16  1  0  0  0  0
 15 17  1  0  0  0  0
 15 18  1  0  0  0  0
 15 20  1  0  0  0  0
 18 19  1  0  0  0  0
 20 21  1  0  0  0  0
 21 22  1  0  0  0  0
 23 26  1  0  0  0  0
 24 26  1  0  0  0  0
 25 26  2  0  0  0  0
 26 27  1  0  0  0  0
M  BCL ATM C_TeTeTeTe H_S C_TeTeTeTe H_S C_TeTeTeTe H_S O_Te2Te2TeTe H_S O_Te2Te2TeTe H_S O_Te2Te2TeTe C_TeTeTeTe H_S H_S C_TeTeTeTe H_S H_S O_Te2Te2TeTe H_S C_TeTeTeTe O_Te2Te2TeTe H_S O_Tr2TrTrPi2 O_Te2Te2TeTe O_Tr2Tr2TrPi P_TeTeTeTePi O_Te2Te2Te2Te
M  BCL BND NonConjugatedSingleBond NonConjugatedSingleBondInRing NonConjugatedSingleBond NonConjugatedSingleBondInRing NonConjugatedSingleBond NonConjugatedSingleBondInRing NonConjugatedSingleBond NonConjugatedSingleBond NonConjugatedSingleBondInRing NonConjugatedSingleBond NonConjugatedSingleBond NonConjugatedSingleBond NonConjugatedSingleBondInRing NonConjugatedSingleBond NonConjugatedSingleBond NonConjugatedSingleBond NonConjugatedSingleBond NonConjugatedSingleBond NonConjugatedSingleBond NonConjugatedSingleBond NonConjugatedSingleBond NonConjugatedSingleBond NonConjugatedSingleBond ConjugatedSingleBond ConjugatedSingleBond ConjugatedDoubleBond ConjugatedSingleBond
M  BCL CHI   1   S   3   R   5   R  20   R  26   R
M  BCL DBI -
M  END
> <ConfClashScore>
0 

> <ConfOneFourInteractionScore>
-0.983026 

> <ConfScore>
-0.215633 

> <ConfScorePBest>
0.0105665 

> <ConfTolerance>
0.484149 

$$$$
L08.****
  PyMOL2.5          3D                             0

 27 27  0  0  0  0  0  0  0  0999 V2000
   11.9526   -5.1242   -0.2732 C   0  0  0  1  0  0  0  0  0  0  0  0
   12.4851   -5.4618   -1.1377 H   0  0  0  1  0  0  0  0  0  0  0  0
   10.6902   -4.3824   -0.6757 C   0  0  0  1  0  0  0  0  0  0  0  0
   10.6014   -4.3370   -1.7410 H   0  0  0  1  0  0  0  0  0  0  0  0
   10.8638   -3.0106   -0.0996 C   0  0  0  1  0  0  0  0  0  0  0  0
   11.2239   -2.3378   -0.8497 H   0  0  0  1  0  0  0  0  0  0  0  0
   11.6382   -6.2414    0.5594 O   0  0  0  1  0  0  0  0  0  0  0  0
   10.7905   -6.6079    0.2974 H   0  0  0  1  0  0  0  0  0  0  0  0
    9.5344   -5.0179   -0.1275 O   0  0  0  1  0  0  0  0  0  0  0  0
    9.4288   -4.7549    0.7897 H   0  0  0  1  0  0  0  0  0  0  0  0
   11.8186   -3.1309    0.9535 O   0  0  0  1  0  0  0  0  0  0  0  0
    9.5794   -2.5146    0.4313 C   0  0  0  1  0  0  0  0  0  0  0  0
    9.3315   -3.0586    1.3188 H   0  0  0  1  0  0  0  0  0  0  0  0
    8.8147   -2.6609   -0.3027 H   0  0  0  1  0  0  0  0  0  0  0  0
   13.4694   -4.7403    1.6530 C   0  0  0  1  0  0  0  0  0  0  0  0
   12.7471   -5.1993    2.2952 H   0  0  0  1  0  0  0  0  0  0  0  0
   14.1483   -5.4835    1.2902 H   0  0  0  1  0  0  0  0  0  0  0  0
   14.1915   -3.7561    2.3814 O   0  0  0  1  0  0  0  0  0  0  0  0
   13.7934   -3.6422    3.2475 H   0  0  0  1  0  0  0  0  0  0  0  0
   12.7674   -4.0964    0.4922 C   0  0  0  1  0  0  0  0  0  0  0  0
   13.7175   -3.4895   -0.3546 O   0  0  0  1  0  0  0  0  0  0  0  0
   13.7853   -2.5556   -0.1428 H   0  0  0  1  0  0  0  0  0  0  0  0
    9.6736   -1.1056    0.7468 O   0  0  0  1  0  0  0  0  0  0  0  0
    7.1959   -0.3634    0.2356 O   0  0  0  0  0  0  0  0  0  0  0  0
    8.8321    1.1264    1.7451 O   0  0  0  1  0  0  0  0  0  0  0  0
    8.4137   -0.2299    1.3260 P   0  0  0  1  0  0  0  0  0  0  0  0
    7.9495   -0.9583    2.6965 O   0  5  0  1  0  0  0  0  0  0  0  0
  1  2  1  0  0  0  0
  1  3  1  0  0  0  0
  1  7  1  0  0  0  0
  1 20  1  0  0  0  0
  3  4  1  0  0  0  0
  3  5  1  0  0  0  0
  3  9  1  0  0  0  0
  5  6  1  0  0  0  0
  5 11  1  0  0  0  0
  5 12  1  0  0  0  0
  7  8  1  0  0  0  0
  9 10  1  0  0  0  0
 11 20  1  0  0  0  0
 12 13  1  0  0  0  0
 12 14  1  0  0  0  0
 12 23  1  0  0  0  0
 15 16  1  0  0  0  0
 15 17  1  0  0  0  0
 15 18  1  0  0  0  0
 15 20  1  0  0  0  0
 18 19  1  0  0  0  0
 20 21  1  0  0  0  0
 21 22  1  0  0  0  0
 23 26  1  0  0  0  0
 24 26  1  0  0  0  0
 25 26  2  0  0  0  0
 26 27  1  0  0  0  0
M  BCL ATM C_TeTeTeTe H_S C_TeTeTeTe H_S C_TeTeTeTe H_S O_Te2Te2TeTe H_S O_Te2Te2TeTe H_S O_Te2Te2TeTe C_TeTeTeTe H_S H_S C_TeTeTeTe H_S H_S O_Te2Te2TeTe H_S C_TeTeTeTe O_Te2Te2TeTe H_S O_Tr2TrTrPi2 O_Te2Te2TeTe O_Tr2Tr2TrPi P_TeTeTeTePi O_Te2Te2Te2Te
M  BCL BND NonConjugatedSingleBond NonConjugatedSingleBondInRing NonConjugatedSingleBond NonConjugatedSingleBondInRing NonConjugatedSingleBond NonConjugatedSingleBondInRing NonConjugatedSingleBond NonConjugatedSingleBond NonConjugatedSingleBondInRing NonConjugatedSingleBond NonConjugatedSingleBond NonConjugatedSingleBond NonConjugatedSingleBondInRing NonConjugatedSingleBond NonConjugatedSingleBond NonConjugatedSingleBond NonConjugatedSingleBond NonConjugatedSingleBond NonConjugatedSingleBond NonConjugatedSingleBond NonConjugatedSingleBond NonConjugatedSingleBond NonConjugatedSingleBond ConjugatedSingleBond ConjugatedSingleBond ConjugatedDoubleBond ConjugatedSingleBond
M  BCL CHI   1   S   3   R   5   R  20   R  26   R
M  BCL DBI -
M  END
> <ConfClashScore>
0 

> <ConfOneFourInteractionScore>
-0.980422 

> <ConfScore>
-0.215163 

> <ConfScorePBest>
0.0104635 

> <ConfTolerance>
0.381322 

$$$$
L08.****
  PyMOL2.5          3D                             0

 27 27  0  0  0  0  0  0  0  0999 V2000
   11.9930   -5.0400   -0.0242 C   0  0  0  1  0  0  0  0  0  0  0  0
   12.5138   -5.6840   -0.7017 H   0  0  0  1  0  0  0  0  0  0  0  0
   10.8040   -4.3746   -0.6966 C   0  0  0  1  0  0  0  0  0  0  0  0
   11.0141   -4.1561   -1.7227 H   0  0  0  1  0  0  0  0  0  0  0  0
   10.6324   -3.1014    0.1088 C   0  0  0  1  0  0  0  0  0  0  0  0
   10.3434   -2.2960   -0.5337 H   0  0  0  1  0  0  0  0  0  0  0  0
   11.5906   -5.7840    1.1267 O   0  0  0  1  0  0  0  0  0  0  0  0
   10.7284   -6.1758    0.9697 H   0  0  0  1  0  0  0  0  0  0  0  0
    9.6392   -5.1970   -0.6131 O   0  0  0  1  0  0  0  0  0  0  0  0
    8.8610   -4.6422   -0.5223 H   0  0  0  1  0  0  0  0  0  0  0  0
   11.9055   -2.8162    0.7178 O   0  0  0  1  0  0  0  0  0  0  0  0
    9.6042   -3.2944    1.1496 C   0  0  0  1  0  0  0  0  0  0  0  0
    8.6564   -3.4610    0.6819 H   0  0  0  1  0  0  0  0  0  0  0  0
    9.5520   -2.4173    1.7602 H   0  0  0  1  0  0  0  0  0  0  0  0
   13.7258   -4.1736    1.5280 C   0  0  0  1  0  0  0  0  0  0  0  0
   14.2435   -5.0892    1.3313 H   0  0  0  1  0  0  0  0  0  0  0  0
   14.4355   -3.3861    1.6731 H   0  0  0  1  0  0  0  0  0  0  0  0
   12.9361   -4.3200    2.7009 O   0  0  0  1  0  0  0  0  0  0  0  0
   12.6730   -5.2381    2.7975 H   0  0  0  1  0  0  0  0  0  0  0  0
   12.8414   -3.8398    0.3613 C   0  0  0  1  0  0  0  0  0  0  0  0
   13.6353   -3.4257   -0.7279 O   0  0  0  1  0  0  0  0  0  0  0  0
   14.5145   -3.8023   -0.6451 H   0  0  0  1  0  0  0  0  0  0  0  0
    9.9329   -4.4336    1.9791 O   0  0  0  1  0  0  0  0  0  0  0  0
    9.3249   -6.4836    3.7111 O   0  0  0  0  0  0  0  0  0  0  0  0
    8.1222   -5.2246    1.5444 O   0  0  0  1  0  0  0  0  0  0  0  0
    8.7795   -5.1857    2.8699 P   0  0  0  1  0  0  0  0  0  0  0  0
    7.8030   -4.2032    3.7100 O   0  5  0  1  0  0  0  0  0  0  0  0
  1  2  1  0  0  0  0
  1  3  1  0  0  0  0
  1  7  1  0  0  0  0
  1 20  1  0  0  0  0
  3  4  1  0  0  0  0
  3  5  1  0  0  0  0
  3  9  1  0  0  0  0
  5  6  1  0  0  0  0
  5 11  1  0  0  0  0
  5 12  1  0  0  0  0
  7  8  1  0  0  0  0
  9 10  1  0  0  0  0
 11 20  1  0  0  0  0
 12 13  1  0  0  0  0
 12 14  1  0  0  0  0
 12 23  1  0  0  0  0
 15 16  1  0  0  0  0
 15 17  1  0  0  0  0
 15 18  1  0  0  0  0
 15 20  1  0  0  0  0
 18 19  1  0  0  0  0
 20 21  1  0  0  0  0
 21 22  1  0  0  0  0
 23 26  1  0  0  0  0
 24 26  1  0  0  0  0
 25 26  2  0  0  0  0
 26 27  1  0  0  0  0
M  BCL ATM C_TeTeTeTe H_S C_TeTeTeTe H_S C_TeTeTeTe H_S O_Te2Te2TeTe H_S O_Te2Te2TeTe H_S O_Te2Te2TeTe C_TeTeTeTe H_S H_S C_TeTeTeTe H_S H_S O_Te2Te2TeTe H_S C_TeTeTeTe O_Te2Te2TeTe H_S O_Tr2TrTrPi2 O_Te2Te2TeTe O_Tr2Tr2TrPi P_TeTeTeTePi O_Te2Te2Te2Te
M  BCL BND NonConjugatedSingleBond NonConjugatedSingleBondInRing NonConjugatedSingleBond NonConjugatedSingleBondInRing NonConjugatedSingleBond NonConjugatedSingleBondInRing NonConjugatedSingleBond NonConjugatedSingleBond NonConjugatedSingleBondInRing NonConjugatedSingleBond NonConjugatedSingleBond NonConjugatedSingleBond NonConjugatedSingleBondInRing NonConjugatedSingleBond NonConjugatedSingleBond NonConjugatedSingleBond NonConjugatedSingleBond NonConjugatedSingleBond NonConjugatedSingleBond NonConjugatedSingleBond NonConjugatedSingleBond NonConjugatedSingleBond NonConjugatedSingleBond ConjugatedSingleBond ConjugatedSingleBond ConjugatedDoubleBond ConjugatedSingleBond
M  BCL CHI   1   S   3   R   5   R  20   R  26   R
M  BCL DBI -
M  END
> <ConfClashScore>
2.97866e-05 

> <ConfOneFourInteractionScore>
-0.992569 

> <ConfScore>
-0.215048 

> <ConfScorePBest>
0.0103605 

> <ConfTolerance>
0.630859 

$$$$
L08.****
  PyMOL2.5          3D                             0

 27 27  0  0  0  0  0  0  0  0999 V2000
   11.8453   -4.9726   -0.2348 C   0  0  0  1  0  0  0  0  0  0  0  0
   12.5407   -5.1597   -1.0262 H   0  0  0  1  0  0  0  0  0  0  0  0
   10.6246   -4.3354   -0.7536 C   0  0  0  1  0  0  0  0  0  0  0  0
   10.4726   -4.5976   -1.7798 H   0  0  0  1  0  0  0  0  0  0  0  0
   10.8564   -2.8680   -0.6186 C   0  0  0  1  0  0  0  0  0  0  0  0
   10.9969   -2.4286   -1.5841 H   0  0  0  1  0  0  0  0  0  0  0  0
   11.5335   -6.2000    0.4259 O   0  0  0  1  0  0  0  0  0  0  0  0
   12.3124   -6.7608    0.4444 H   0  0  0  1  0  0  0  0  0  0  0  0
    9.4879   -4.7344    0.0138 O   0  0  0  1  0  0  0  0  0  0  0  0
    9.7610   -4.9306    0.9129 H   0  0  0  1  0  0  0  0  0  0  0  0
   12.0392   -2.6980    0.1761 O   0  0  0  1  0  0  0  0  0  0  0  0
    9.6751   -2.2175    0.0648 C   0  0  0  1  0  0  0  0  0  0  0  0
    9.8160   -1.1586    0.1261 H   0  0  0  1  0  0  0  0  0  0  0  0
    9.5458   -2.6181    1.0485 H   0  0  0  1  0  0  0  0  0  0  0  0
   11.7858   -4.1559    2.0917 C   0  0  0  1  0  0  0  0  0  0  0  0
   12.1650   -3.4071    2.7554 H   0  0  0  1  0  0  0  0  0  0  0  0
   10.7226   -4.0614    2.0167 H   0  0  0  1  0  0  0  0  0  0  0  0
   12.1111   -5.4439    2.5973 O   0  0  0  1  0  0  0  0  0  0  0  0
   12.6078   -5.3517    3.4136 H   0  0  0  1  0  0  0  0  0  0  0  0
   12.4000   -3.9759    0.7333 C   0  0  0  1  0  0  0  0  0  0  0  0
   13.8011   -4.1006    0.8299 O   0  0  0  1  0  0  0  0  0  0  0  0
   14.2139   -3.6678    0.0790 H   0  0  0  1  0  0  0  0  0  0  0  0
    8.5280   -2.5271   -0.7611 O   0  0  0  1  0  0  0  0  0  0  0  0
    6.1397   -2.4908   -1.6140 O   0  0  0  0  0  0  0  0  0  0  0  0
    6.7827   -0.7275    0.0554 O   0  0  0  1  0  0  0  0  0  0  0  0
    7.0098   -2.1544   -0.2652 P   0  0  0  1  0  0  0  0  0  0  0  0
    6.4423   -3.1568    0.8739 O   0  5  0  1  0  0  0  0  0  0  0  0
  1  2  1  0  0  0  0
  1  3  1  0  0  0  0
  1  7  1  0  0  0  0
  1 20  1  0  0  0  0
  3  4  1  0  0  0  0
  3  5  1  0  0  0  0
  3  9  1  0  0  0  0
  5  6  1  0  0  0  0
  5 11  1  0  0  0  0
  5 12  1  0  0  0  0
  7  8  1  0  0  0  0
  9 10  1  0  0  0  0
 11 20  1  0  0  0  0
 12 13  1  0  0  0  0
 12 14  1  0  0  0  0
 12 23  1  0  0  0  0
 15 16  1  0  0  0  0
 15 17  1  0  0  0  0
 15 18  1  0  0  0  0
 15 20  1  0  0  0  0
 18 19  1  0  0  0  0
 20 21  1  0  0  0  0
 21 22  1  0  0  0  0
 23 26  1  0  0  0  0
 24 26  1  0  0  0  0
 25 26  2  0  0  0  0
 26 27  1  0  0  0  0
M  BCL ATM C_TeTeTeTe H_S C_TeTeTeTe H_S C_TeTeTeTe H_S O_Te2Te2TeTe H_S O_Te2Te2TeTe H_S O_Te2Te2TeTe C_TeTeTeTe H_S H_S C_TeTeTeTe H_S H_S O_Te2Te2TeTe H_S C_TeTeTeTe O_Te2Te2TeTe H_S O_Tr2TrTrPi2 O_Te2Te2TeTe O_Tr2Tr2TrPi P_TeTeTeTePi O_Te2Te2Te2Te
M  BCL BND NonConjugatedSingleBond NonConjugatedSingleBondInRing NonConjugatedSingleBond NonConjugatedSingleBondInRing NonConjugatedSingleBond NonConjugatedSingleBondInRing NonConjugatedSingleBond NonConjugatedSingleBond NonConjugatedSingleBondInRing NonConjugatedSingleBond NonConjugatedSingleBond NonConjugatedSingleBond NonConjugatedSingleBondInRing NonConjugatedSingleBond NonConjugatedSingleBond NonConjugatedSingleBond NonConjugatedSingleBond NonConjugatedSingleBond NonConjugatedSingleBond NonConjugatedSingleBond NonConjugatedSingleBond NonConjugatedSingleBond NonConjugatedSingleBond ConjugatedSingleBond ConjugatedSingleBond ConjugatedDoubleBond ConjugatedSingleBond
M  BCL CHI   1   S   3   R   5   R  20   R  26   R
M  BCL DBI -
M  END
> <ConfClashScore>
0 

> <ConfOneFourInteractionScore>
-0.980422 

> <ConfScore>
-0.212786 

> <ConfScorePBest>
0.0102575 

> <ConfTolerance>
0.486073 

$$$$
L08.****
  PyMOL2.5          3D                             0

 27 27  0  0  0  0  0  0  0  0999 V2000
   11.7206   -5.1155   -0.1977 C   0  0  0  1  0  0  0  0  0  0  0  0
   12.1437   -5.7743   -0.9270 H   0  0  0  1  0  0  0  0  0  0  0  0
   10.7516   -4.1337   -0.8346 C   0  0  0  1  0  0  0  0  0  0  0  0
   11.0791   -3.8485   -1.8125 H   0  0  0  1  0  0  0  0  0  0  0  0
   10.7915   -2.9561    0.1198 C   0  0  0  1  0  0  0  0  0  0  0  0
   10.7271   -2.0380   -0.4261 H   0  0  0  1  0  0  0  0  0  0  0  0
   11.0860   -5.8826    0.8265 O   0  0  0  1  0  0  0  0  0  0  0  0
   11.7331   -6.4540    1.2464 H   0  0  0  1  0  0  0  0  0  0  0  0
    9.4365   -4.6870   -0.9145 O   0  0  0  1  0  0  0  0  0  0  0  0
    9.2001   -5.0749   -0.0687 H   0  0  0  1  0  0  0  0  0  0  0  0
   12.0470   -3.0276    0.8211 O   0  0  0  1  0  0  0  0  0  0  0  0
    9.6575   -3.0411    1.0876 C   0  0  0  1  0  0  0  0  0  0  0  0
    9.7601   -3.9173    1.6931 H   0  0  0  1  0  0  0  0  0  0  0  0
    8.7285   -3.0798    0.5579 H   0  0  0  1  0  0  0  0  0  0  0  0
   13.4757   -4.8335    1.5352 C   0  0  0  1  0  0  0  0  0  0  0  0
   13.8300   -5.7981    1.2372 H   0  0  0  1  0  0  0  0  0  0  0  0
   14.3038   -4.2259    1.8352 H   0  0  0  1  0  0  0  0  0  0  0  0
   12.5756   -4.9771    2.6260 O   0  0  0  1  0  0  0  0  0  0  0  0
   12.4838   -5.9072    2.8454 H   0  0  0  1  0  0  0  0  0  0  0  0
   12.7709   -4.1819    0.3804 C   0  0  0  1  0  0  0  0  0  0  0  0
   13.7133   -3.8270   -0.6065 O   0  0  0  1  0  0  0  0  0  0  0  0
   14.0128   -2.9275   -0.4549 H   0  0  0  1  0  0  0  0  0  0  0  0
    9.7010   -1.8587    1.9205 O   0  0  0  1  0  0  0  0  0  0  0  0
    7.3876   -2.3055    3.1860 O   0  0  0  0  0  0  0  0  0  0  0  0
    7.6367   -0.4255    1.4754 O   0  0  0  1  0  0  0  0  0  0  0  0
    8.3594   -1.1509    2.5440 P   0  0  0  1  0  0  0  0  0  0  0  0
    8.7934   -0.1163    3.7126 O   0  5  0  1  0  0  0  0  0  0  0  0
  1  2  1  0  0  0  0
  1  3  1  0  0  0  0
  1  7  1  0  0  0  0
  1 20  1  0  0  0  0
  3  4  1  0  0  0  0
  3  5  1  0  0  0  0
  3  9  1  0  0  0  0
  5  6  1  0  0  0  0
  5 11  1  0  0  0  0
  5 12  1  0  0  0  0
  7  8  1  0  0  0  0
  9 10  1  0  0  0  0
 11 20  1  0  0  0  0
 12 13  1  0  0  0  0
 12 14  1  0  0  0  0
 12 23  1  0  0  0  0
 15 16  1  0  0  0  0
 15 17  1  0  0  0  0
 15 18  1  0  0  0  0
 15 20  1  0  0  0  0
 18 19  1  0  0  0  0
 20 21  1  0  0  0  0
 21 22  1  0  0  0  0
 23 26  1  0  0  0  0
 24 26  1  0  0  0  0
 25 26  2  0  0  0  0
 26 27  1  0  0  0  0
M  BCL ATM C_TeTeTeTe H_S C_TeTeTeTe H_S C_TeTeTeTe H_S O_Te2Te2TeTe H_S O_Te2Te2TeTe H_S O_Te2Te2TeTe C_TeTeTeTe H_S H_S C_TeTeTeTe H_S H_S O_Te2Te2TeTe H_S C_TeTeTeTe O_Te2Te2TeTe H_S O_Tr2TrTrPi2 O_Te2Te2TeTe O_Tr2Tr2TrPi P_TeTeTeTePi O_Te2Te2Te2Te
M  BCL BND NonConjugatedSingleBond NonConjugatedSingleBondInRing NonConjugatedSingleBond NonConjugatedSingleBondInRing NonConjugatedSingleBond NonConjugatedSingleBondInRing NonConjugatedSingleBond NonConjugatedSingleBond NonConjugatedSingleBondInRing NonConjugatedSingleBond NonConjugatedSingleBond NonConjugatedSingleBond NonConjugatedSingleBondInRing NonConjugatedSingleBond NonConjugatedSingleBond NonConjugatedSingleBond NonConjugatedSingleBond NonConjugatedSingleBond NonConjugatedSingleBond NonConjugatedSingleBond NonConjugatedSingleBond NonConjugatedSingleBond NonConjugatedSingleBond ConjugatedSingleBond ConjugatedSingleBond ConjugatedDoubleBond ConjugatedSingleBond
M  BCL CHI   1   S   3   R   5   R  20   R  26   R
M  BCL DBI -
M  END
> <ConfClashScore>
0 

> <ConfOneFourInteractionScore>
-0.983447 

> <ConfScore>
-0.209168 

> <ConfScorePBest>
0.0101545 

> <ConfTolerance>
0.507106 

$$$$
L08.****
  PyMOL2.5          3D                             0

 27 27  0  0  0  0  0  0  0  0999 V2000
   11.8206   -4.9818   -0.4265 C   0  0  0  1  0  0  0  0  0  0  0  0
   12.3726   -5.0661   -1.3393 H   0  0  0  1  0  0  0  0  0  0  0  0
   10.5069   -4.2727   -0.6461 C   0  0  0  1  0  0  0  0  0  0  0  0
   10.0951   -4.5174   -1.6029 H   0  0  0  1  0  0  0  0  0  0  0  0
   10.8830   -2.8076   -0.5770 C   0  0  0  1  0  0  0  0  0  0  0  0
   11.0502   -2.4209   -1.5606 H   0  0  0  1  0  0  0  0  0  0  0  0
   11.6199   -6.2814    0.1310 O   0  0  0  1  0  0  0  0  0  0  0  0
   12.1954   -6.3966    0.8907 H   0  0  0  1  0  0  0  0  0  0  0  0
    9.5706   -4.6071    0.3742 O   0  0  0  1  0  0  0  0  0  0  0  0
    9.4445   -5.5585    0.3941 H   0  0  0  1  0  0  0  0  0  0  0  0
   12.0942   -2.7401    0.1981 O   0  0  0  1  0  0  0  0  0  0  0  0
    9.7986   -2.0257    0.0883 C   0  0  0  1  0  0  0  0  0  0  0  0
    8.8833   -2.1372   -0.4547 H   0  0  0  1  0  0  0  0  0  0  0  0
   10.0670   -0.9906    0.1272 H   0  0  0  1  0  0  0  0  0  0  0  0
   12.1106   -4.3943    1.9605 C   0  0  0  1  0  0  0  0  0  0  0  0
   11.0462   -4.4926    2.0079 H   0  0  0  1  0  0  0  0  0  0  0  0
   12.5679   -5.3142    2.2599 H   0  0  0  1  0  0  0  0  0  0  0  0
   12.5282   -3.3530    2.8333 O   0  0  0  1  0  0  0  0  0  0  0  0
   11.9729   -2.5813    2.7003 H   0  0  0  1  0  0  0  0  0  0  0  0
   12.5195   -4.0687    0.5528 C   0  0  0  1  0  0  0  0  0  0  0  0
   13.9189   -4.1894    0.4293 O   0  0  0  1  0  0  0  0  0  0  0  0
   14.3457   -3.4750    0.9081 H   0  0  0  1  0  0  0  0  0  0  0  0
    9.6433   -2.5413    1.4201 O   0  0  0  1  0  0  0  0  0  0  0  0
    7.1710   -3.3784    1.5505 O   0  0  0  0  0  0  0  0  0  0  0  0
    7.9103   -1.0196    2.4907 O   0  0  0  1  0  0  0  0  0  0  0  0
    8.2764   -2.4435    2.3210 P   0  0  0  1  0  0  0  0  0  0  0  0
    8.6509   -3.2053    3.7008 O   0  5  0  1  0  0  0  0  0  0  0  0
  1  2  1  0  0  0  0
  1  3  1  0  0  0  0
  1  7  1  0  0  0  0
  1 20  1  0  0  0  0
  3  4  1  0  0  0  0
  3  5  1  0  0  0  0
  3  9  1  0  0  0  0
  5  6  1  0  0  0  0
  5 11  1  0  0  0  0
  5 12  1  0  0  0  0
  7  8  1  0  0  0  0
  9 10  1  0  0  0  0
 11 20  1  0  0  0  0
 12 13  1  0  0  0  0
 12 14  1  0  0  0  0
 12 23  1  0  0  0  0
 15 16  1  0  0  0  0
 15 17  1  0  0  0  0
 15 18  1  0  0  0  0
 15 20  1  0  0  0  0
 18 19  1  0  0  0  0
 20 21  1  0  0  0  0
 21 22  1  0  0  0  0
 23 26  1  0  0  0  0
 24 26  1  0  0  0  0
 25 26  2  0  0  0  0
 26 27  1  0  0  0  0
M  BCL ATM C_TeTeTeTe H_S C_TeTeTeTe H_S C_TeTeTeTe H_S O_Te2Te2TeTe H_S O_Te2Te2TeTe H_S O_Te2Te2TeTe C_TeTeTeTe H_S H_S C_TeTeTeTe H_S H_S O_Te2Te2TeTe H_S C_TeTeTeTe O_Te2Te2TeTe H_S O_Tr2TrTrPi2 O_Te2Te2TeTe O_Tr2Tr2TrPi P_TeTeTeTePi O_Te2Te2Te2Te
M  BCL BND NonConjugatedSingleBond NonConjugatedSingleBondInRing NonConjugatedSingleBond NonConjugatedSingleBondInRing NonConjugatedSingleBond NonConjugatedSingleBondInRing NonConjugatedSingleBond NonConjugatedSingleBond NonConjugatedSingleBondInRing NonConjugatedSingleBond NonConjugatedSingleBond NonConjugatedSingleBond NonConjugatedSingleBondInRing NonConjugatedSingleBond NonConjugatedSingleBond NonConjugatedSingleBond NonConjugatedSingleBond NonConjugatedSingleBond NonConjugatedSingleBond NonConjugatedSingleBond NonConjugatedSingleBond NonConjugatedSingleBond NonConjugatedSingleBond ConjugatedSingleBond ConjugatedSingleBond ConjugatedDoubleBond ConjugatedSingleBond
M  BCL CHI   1   S   3   R   5   R  20   R  26   R
M  BCL DBI -
M  END
> <ConfClashScore>
0 

> <ConfOneFourInteractionScore>
-0.993347 

> <ConfScore>
-0.208061 

> <ConfScorePBest>
0.0100515 

> <ConfTolerance>
0.543438 

$$$$
L08.****
  PyMOL2.5          3D                             0

 27 27  0  0  0  0  0  0  0  0999 V2000
   11.7724   -5.0399   -0.0071 C   0  0  0  1  0  0  0  0  0  0  0  0
   12.1281   -5.7577   -0.7165 H   0  0  0  1  0  0  0  0  0  0  0  0
   10.6565   -4.1904   -0.5914 C   0  0  0  1  0  0  0  0  0  0  0  0
   10.8174   -4.0061   -1.6331 H   0  0  0  1  0  0  0  0  0  0  0  0
   10.7555   -2.9080    0.2117 C   0  0  0  1  0  0  0  0  0  0  0  0
   10.5499   -2.0651   -0.4146 H   0  0  0  1  0  0  0  0  0  0  0  0
   11.3460   -5.7151    1.1847 O   0  0  0  1  0  0  0  0  0  0  0  0
   11.2609   -6.6548    1.0076 H   0  0  0  1  0  0  0  0  0  0  0  0
    9.3844   -4.8152   -0.4085 O   0  0  0  1  0  0  0  0  0  0  0  0
    9.1892   -5.3723   -1.1655 H   0  0  0  1  0  0  0  0  0  0  0  0
   12.1019   -2.8327    0.7163 O   0  0  0  1  0  0  0  0  0  0  0  0
    9.7834   -2.9359    1.3450 C   0  0  0  1  0  0  0  0  0  0  0  0
    8.8209   -3.2421    0.9920 H   0  0  0  1  0  0  0  0  0  0  0  0
    9.7096   -1.9636    1.7857 H   0  0  0  1  0  0  0  0  0  0  0  0
   13.7389   -4.4672    1.3960 C   0  0  0  1  0  0  0  0  0  0  0  0
   14.5322   -3.7643    1.5430 H   0  0  0  1  0  0  0  0  0  0  0  0
   13.1864   -4.5775    2.3056 H   0  0  0  1  0  0  0  0  0  0  0  0
   14.2724   -5.7257    0.9956 O   0  0  0  1  0  0  0  0  0  0  0  0
   13.5661   -6.2795    0.6550 H   0  0  0  1  0  0  0  0  0  0  0  0
   12.8302   -3.9927    0.2984 C   0  0  0  1  0  0  0  0  0  0  0  0
   13.5920   -3.7092   -0.8537 O   0  0  0  1  0  0  0  0  0  0  0  0
   14.4398   -3.3408   -0.5947 H   0  0  0  1  0  0  0  0  0  0  0  0
   10.2745   -3.8837    2.3218 O   0  0  0  1  0  0  0  0  0  0  0  0
   10.8217   -2.2031    4.2692 O   0  0  0  0  0  0  0  0  0  0  0  0
   10.2894   -4.6893    4.8530 O   0  0  0  1  0  0  0  0  0  0  0  0
   10.0091   -3.5820    3.9118 P   0  0  0  1  0  0  0  0  0  0  0  0
    8.4714   -3.0838    4.0195 O   0  5  0  1  0  0  0  0  0  0  0  0
  1  2  1  0  0  0  0
  1  3  1  0  0  0  0
  1  7  1  0  0  0  0
  1 20  1  0  0  0  0
  3  4  1  0  0  0  0
  3  5  1  0  0  0  0
  3  9  1  0  0  0  0
  5  6  1  0  0  0  0
  5 11  1  0  0  0  0
  5 12  1  0  0  0  0
  7  8  1  0  0  0  0
  9 10  1  0  0  0  0
 11 20  1  0  0  0  0
 12 13  1  0  0  0  0
 12 14  1  0  0  0  0
 12 23  1  0  0  0  0
 15 16  1  0  0  0  0
 15 17  1  0  0  0  0
 15 18  1  0  0  0  0
 15 20  1  0  0  0  0
 18 19  1  0  0  0  0
 20 21  1  0  0  0  0
 21 22  1  0  0  0  0
 23 26  1  0  0  0  0
 24 26  1  0  0  0  0
 25 26  2  0  0  0  0
 26 27  1  0  0  0  0
M  BCL ATM C_TeTeTeTe H_S C_TeTeTeTe H_S C_TeTeTeTe H_S O_Te2Te2TeTe H_S O_Te2Te2TeTe H_S O_Te2Te2TeTe C_TeTeTeTe H_S H_S C_TeTeTeTe H_S H_S O_Te2Te2TeTe H_S C_TeTeTeTe O_Te2Te2TeTe H_S O_Tr2TrTrPi2 O_Te2Te2TeTe O_Tr2Tr2TrPi P_TeTeTeTePi O_Te2Te2Te2Te
M  BCL BND NonConjugatedSingleBond NonConjugatedSingleBondInRing NonConjugatedSingleBond NonConjugatedSingleBondInRing NonConjugatedSingleBond NonConjugatedSingleBondInRing NonConjugatedSingleBond NonConjugatedSingleBond NonConjugatedSingleBondInRing NonConjugatedSingleBond NonConjugatedSingleBond NonConjugatedSingleBond NonConjugatedSingleBondInRing NonConjugatedSingleBond NonConjugatedSingleBond NonConjugatedSingleBond NonConjugatedSingleBond NonConjugatedSingleBond NonConjugatedSingleBond NonConjugatedSingleBond NonConjugatedSingleBond NonConjugatedSingleBond NonConjugatedSingleBond ConjugatedSingleBond ConjugatedSingleBond ConjugatedDoubleBond ConjugatedSingleBond
M  BCL CHI   1   S   3   R   5   R  20   R  26   R
M  BCL DBI -
M  END
> <ConfClashScore>
0 

> <ConfOneFourInteractionScore>
-0.989543 

> <ConfScore>
-0.207077 

> <ConfScorePBest>
0.0099485 

> <ConfTolerance>
0.540612 

$$$$
L08.****
  PyMOL2.5          3D                             0

 27 27  0  0  0  0  0  0  0  0999 V2000
   11.9296   -4.9396   -0.3328 C   0  0  0  1  0  0  0  0  0  0  0  0
   12.5364   -4.9396   -1.2141 H   0  0  0  1  0  0  0  0  0  0  0  0
   10.5902   -4.2947   -0.5918 C   0  0  0  1  0  0  0  0  0  0  0  0
   10.2487   -4.5068   -1.5834 H   0  0  0  1  0  0  0  0  0  0  0  0
   10.8732   -2.8171   -0.4208 C   0  0  0  1  0  0  0  0  0  0  0  0
   11.0723   -2.3654   -1.3701 H   0  0  0  1  0  0  0  0  0  0  0  0
   11.7760   -6.2786    0.1402 O   0  0  0  1  0  0  0  0  0  0  0  0
   12.3153   -6.4053    0.9242 H   0  0  0  1  0  0  0  0  0  0  0  0
    9.6169   -4.7413    0.3534 O   0  0  0  1  0  0  0  0  0  0  0  0
    8.9217   -5.2196   -0.1042 H   0  0  0  1  0  0  0  0  0  0  0  0
   12.0323   -2.7259    0.4280 O   0  0  0  1  0  0  0  0  0  0  0  0
    9.7217   -2.1458    0.2123 C   0  0  0  1  0  0  0  0  0  0  0  0
    9.7058   -2.3826    1.2557 H   0  0  0  1  0  0  0  0  0  0  0  0
    8.8179   -2.4897   -0.2458 H   0  0  0  1  0  0  0  0  0  0  0  0
   12.0482   -4.4755    2.0957 C   0  0  0  1  0  0  0  0  0  0  0  0
   10.9826   -4.5728    2.0913 H   0  0  0  1  0  0  0  0  0  0  0  0
   12.4918   -5.4172    2.3436 H   0  0  0  1  0  0  0  0  0  0  0  0
   12.4300   -3.5046    3.0612 O   0  0  0  1  0  0  0  0  0  0  0  0
   11.7591   -3.4525    3.7459 H   0  0  0  1  0  0  0  0  0  0  0  0
   12.5159   -4.0464    0.7348 C   0  0  0  1  0  0  0  0  0  0  0  0
   13.9247   -4.0802    0.6890 O   0  0  0  1  0  0  0  0  0  0  0  0
   14.2232   -3.8212   -0.1859 H   0  0  0  1  0  0  0  0  0  0  0  0
    9.8219   -0.7114    0.0508 O   0  0  0  1  0  0  0  0  0  0  0  0
    8.9601    1.7258   -0.2429 O   0  0  0  0  0  0  0  0  0  0  0  0
    8.1883    0.4325    1.7922 O   0  0  0  1  0  0  0  0  0  0  0  0
    8.5395    0.2617    0.3646 P   0  0  0  1  0  0  0  0  0  0  0  0
    7.2626   -0.2138   -0.5116 O   0  5  0  1  0  0  0  0  0  0  0  0
  1  2  1  0  0  0  0
  1  3  1  0  0  0  0
  1  7  1  0  0  0  0
  1 20  1  0  0  0  0
  3  4  1  0  0  0  0
  3  5  1  0  0  0  0
  3  9  1  0  0  0  0
  5  6  1  0  0  0  0
  5 11  1  0  0  0  0
  5 12  1  0  0  0  0
  7  8  1  0  0  0  0
  9 10  1  0  0  0  0
 11 20  1  0  0  0  0
 12 13  1  0  0  0  0
 12 14  1  0  0  0  0
 12 23  1  0  0  0  0
 15 16  1  0  0  0  0
 15 17  1  0  0  0  0
 15 18  1  0  0  0  0
 15 20  1  0  0  0  0
 18 19  1  0  0  0  0
 20 21  1  0  0  0  0
 21 22  1  0  0  0  0
 23 26  1  0  0  0  0
 24 26  1  0  0  0  0
 25 26  2  0  0  0  0
 26 27  1  0  0  0  0
M  BCL ATM C_TeTeTeTe H_S C_TeTeTeTe H_S C_TeTeTeTe H_S O_Te2Te2TeTe H_S O_Te2Te2TeTe H_S O_Te2Te2TeTe C_TeTeTeTe H_S H_S C_TeTeTeTe H_S H_S O_Te2Te2TeTe H_S C_TeTeTeTe O_Te2Te2TeTe H_S O_Tr2TrTrPi2 O_Te2Te2TeTe O_Tr2Tr2TrPi P_TeTeTeTePi O_Te2Te2Te2Te
M  BCL BND NonConjugatedSingleBond NonConjugatedSingleBondInRing NonConjugatedSingleBond NonConjugatedSingleBondInRing NonConjugatedSingleBond NonConjugatedSingleBondInRing NonConjugatedSingleBond NonConjugatedSingleBond NonConjugatedSingleBondInRing NonConjugatedSingleBond NonConjugatedSingleBond NonConjugatedSingleBond NonConjugatedSingleBondInRing NonConjugatedSingleBond NonConjugatedSingleBond NonConjugatedSingleBond NonConjugatedSingleBond NonConjugatedSingleBond NonConjugatedSingleBond NonConjugatedSingleBond NonConjugatedSingleBond NonConjugatedSingleBond NonConjugatedSingleBond ConjugatedSingleBond ConjugatedSingleBond ConjugatedDoubleBond ConjugatedSingleBond
M  BCL CHI   1   S   3   R   5   R  20   R  26   R
M  BCL DBI -
M  END
> <ConfClashScore>
0 

> <ConfOneFourInteractionScore>
-0.973782 

> <ConfScore>
-0.201081 

> <ConfScorePBest>
0.0098455 

> <ConfTolerance>
0.526614 

$$$$
L08.****
  PyMOL2.5          3D                             0

 27 27  0  0  0  0  0  0  0  0999 V2000
   11.7335   -4.9640   -0.0264 C   0  0  0  1  0  0  0  0  0  0  0  0
   12.1636   -5.6821   -0.6929 H   0  0  0  1  0  0  0  0  0  0  0  0
   10.7002   -4.1026   -0.7327 C   0  0  0  1  0  0  0  0  0  0  0  0
   10.9830   -3.9157   -1.7475 H   0  0  0  1  0  0  0  0  0  0  0  0
   10.7151   -2.8244    0.0827 C   0  0  0  1  0  0  0  0  0  0  0  0
   10.5908   -1.9773   -0.5591 H   0  0  0  1  0  0  0  0  0  0  0  0
   11.1679   -5.6373    1.0993 O   0  0  0  1  0  0  0  0  0  0  0  0
   11.8111   -6.2506    1.4622 H   0  0  0  1  0  0  0  0  0  0  0  0
    9.4110   -4.7170   -0.7024 O   0  0  0  1  0  0  0  0  0  0  0  0
    9.5114   -5.6695   -0.6370 H   0  0  0  1  0  0  0  0  0  0  0  0
   11.9940   -2.7626    0.7414 O   0  0  0  1  0  0  0  0  0  0  0  0
    9.6036   -2.8486    1.1074 C   0  0  0  1  0  0  0  0  0  0  0  0
    9.9737   -3.1903    2.0515 H   0  0  0  1  0  0  0  0  0  0  0  0
    8.8100   -3.4883    0.7821 H   0  0  0  1  0  0  0  0  0  0  0  0
   13.5273   -4.4136    1.5991 C   0  0  0  1  0  0  0  0  0  0  0  0
   14.2959   -3.7122    1.8484 H   0  0  0  1  0  0  0  0  0  0  0  0
   12.8693   -4.5342    2.4342 H   0  0  0  1  0  0  0  0  0  0  0  0
   14.1060   -5.6649    1.2526 O   0  0  0  1  0  0  0  0  0  0  0  0
   14.9733   -5.5210    0.8670 H   0  0  0  1  0  0  0  0  0  0  0  0
   12.7568   -3.9271    0.4056 C   0  0  0  1  0  0  0  0  0  0  0  0
   13.6501   -3.6456   -0.6485 O   0  0  0  1  0  0  0  0  0  0  0  0
   14.0270   -4.4653   -0.9766 H   0  0  0  1  0  0  0  0  0  0  0  0
    9.1398   -1.4820    1.2118 O   0  0  0  1  0  0  0  0  0  0  0  0
    7.6516    0.5910    2.2308 O   0  0  0  0  0  0  0  0  0  0  0  0
    7.9326   -1.6200    3.5245 O   0  0  0  1  0  0  0  0  0  0  0  0
    7.8856   -1.0310    2.1675 P   0  0  0  1  0  0  0  0  0  0  0  0
    6.5292   -1.5522    1.4514 O   0  5  0  1  0  0  0  0  0  0  0  0
  1  2  1  0  0  0  0
  1  3  1  0  0  0  0
  1  7  1  0  0  0  0
  1 20  1  0  0  0  0
  3  4  1  0  0  0  0
  3  5  1  0  0  0  0
  3  9  1  0  0  0  0
  5  6  1  0  0  0  0
  5 11  1  0  0  0  0
  5 12  1  0  0  0  0
  7  8  1  0  0  0  0
  9 10  1  0  0  0  0
 11 20  1  0  0  0  0
 12 13  1  0  0  0  0
 12 14  1  0  0  0  0
 12 23  1  0  0  0  0
 15 16  1  0  0  0  0
 15 17  1  0  0  0  0
 15 18  1  0  0  0  0
 15 20  1  0  0  0  0
 18 19  1  0  0  0  0
 20 21  1  0  0  0  0
 21 22  1  0  0  0  0
 23 26  1  0  0  0  0
 24 26  1  0  0  0  0
 25 26  2  0  0  0  0
 26 27  1  0  0  0  0
M  BCL ATM C_TeTeTeTe H_S C_TeTeTeTe H_S C_TeTeTeTe H_S O_Te2Te2TeTe H_S O_Te2Te2TeTe H_S O_Te2Te2TeTe C_TeTeTeTe H_S H_S C_TeTeTeTe H_S H_S O_Te2Te2TeTe H_S C_TeTeTeTe O_Te2Te2TeTe H_S O_Tr2TrTrPi2 O_Te2Te2TeTe O_Tr2Tr2TrPi P_TeTeTeTePi O_Te2Te2Te2Te
M  BCL BND NonConjugatedSingleBond NonConjugatedSingleBondInRing NonConjugatedSingleBond NonConjugatedSingleBondInRing NonConjugatedSingleBond NonConjugatedSingleBondInRing NonConjugatedSingleBond NonConjugatedSingleBond NonConjugatedSingleBondInRing NonConjugatedSingleBond NonConjugatedSingleBond NonConjugatedSingleBond NonConjugatedSingleBondInRing NonConjugatedSingleBond NonConjugatedSingleBond NonConjugatedSingleBond NonConjugatedSingleBond NonConjugatedSingleBond NonConjugatedSingleBond NonConjugatedSingleBond NonConjugatedSingleBond NonConjugatedSingleBond NonConjugatedSingleBond ConjugatedSingleBond ConjugatedSingleBond ConjugatedDoubleBond ConjugatedSingleBond
M  BCL CHI   1   S   3   R   5   R  20   R  26   R
M  BCL DBI -
M  END
> <ConfClashScore>
0 

> <ConfOneFourInteractionScore>
-0.963139 

> <ConfScore>
-0.194957 

> <ConfScorePBest>
0.0097425 

> <ConfTolerance>
0.546863 

$$$$
L08.****
  PyMOL2.5          3D                             0

 27 27  0  0  0  0  0  0  0  0999 V2000
   11.8584   -5.0494   -0.1372 C   0  0  0  1  0  0  0  0  0  0  0  0
   12.2909   -5.4793   -1.0164 H   0  0  0  1  0  0  0  0  0  0  0  0
   10.5778   -4.3071   -0.4764 C   0  0  0  1  0  0  0  0  0  0  0  0
   10.3801   -4.3543   -1.5269 H   0  0  0  1  0  0  0  0  0  0  0  0
   10.8405   -2.8955   -0.0496 C   0  0  0  1  0  0  0  0  0  0  0  0
   11.1358   -2.3040   -0.8910 H   0  0  0  1  0  0  0  0  0  0  0  0
   11.6074   -6.0773    0.8223 O   0  0  0  1  0  0  0  0  0  0  0  0
   11.4439   -6.9069    0.3678 H   0  0  0  1  0  0  0  0  0  0  0  0
    9.4713   -4.8544    0.2421 O   0  0  0  1  0  0  0  0  0  0  0  0
    8.7715   -5.0840   -0.3736 H   0  0  0  1  0  0  0  0  0  0  0  0
   11.8965   -2.9513    0.9081 O   0  0  0  1  0  0  0  0  0  0  0  0
    9.6149   -2.3070    0.5680 C   0  0  0  1  0  0  0  0  0  0  0  0
    9.3292   -2.8782    1.4265 H   0  0  0  1  0  0  0  0  0  0  0  0
    8.8143   -2.3046   -0.1420 H   0  0  0  1  0  0  0  0  0  0  0  0
   13.5750   -4.5430    1.5823 C   0  0  0  1  0  0  0  0  0  0  0  0
   14.1698   -5.3641    1.2404 H   0  0  0  1  0  0  0  0  0  0  0  0
   14.2121   -3.7845    1.9869 H   0  0  0  1  0  0  0  0  0  0  0  0
   12.6571   -4.9882    2.5763 O   0  0  0  1  0  0  0  0  0  0  0  0
   13.0687   -5.6727    3.1089 H   0  0  0  1  0  0  0  0  0  0  0  0
   12.7707   -3.9835    0.4439 C   0  0  0  1  0  0  0  0  0  0  0  0
   13.6412   -3.4848   -0.5469 O   0  0  0  1  0  0  0  0  0  0  0  0
   14.4706   -3.2213   -0.1417 H   0  0  0  1  0  0  0  0  0  0  0  0
    9.9290   -0.9503    0.9610 O   0  0  0  1  0  0  0  0  0  0  0  0
    7.5711    0.0166    0.5042 O   0  0  0  0  0  0  0  0  0  0  0  0
    9.2588    1.4996    1.5872 O   0  0  0  1  0  0  0  0  0  0  0  0
    8.8151    0.0877    1.5704 P   0  0  0  1  0  0  0  0  0  0  0  0
    8.0811   -0.4422    2.9138 O   0  5  0  1  0  0  0  0  0  0  0  0
  1  2  1  0  0  0  0
  1  3  1  0  0  0  0
  1  7  1  0  0  0  0
  1 20  1  0  0  0  0
  3  4  1  0  0  0  0
  3  5  1  0  0  0  0
  3  9  1  0  0  0  0
  5  6  1  0  0  0  0
  5 11  1  0  0  0  0
  5 12  1  0  0  0  0
  7  8  1  0  0  0  0
  9 10  1  0  0  0  0
 11 20  1  0  0  0  0
 12 13  1  0  0  0  0
 12 14  1  0  0  0  0
 12 23  1  0  0  0  0
 15 16  1  0  0  0  0
 15 17  1  0  0  0  0
 15 18  1  0  0  0  0
 15 20  1  0  0  0  0
 18 19  1  0  0  0  0
 20 21  1  0  0  0  0
 21 22  1  0  0  0  0
 23 26  1  0  0  0  0
 24 26  1  0  0  0  0
 25 26  2  0  0  0  0
 26 27  1  0  0  0  0
M  BCL ATM C_TeTeTeTe H_S C_TeTeTeTe H_S C_TeTeTeTe H_S O_Te2Te2TeTe H_S O_Te2Te2TeTe H_S O_Te2Te2TeTe C_TeTeTeTe H_S H_S C_TeTeTeTe H_S H_S O_Te2Te2TeTe H_S C_TeTeTeTe O_Te2Te2TeTe H_S O_Tr2TrTrPi2 O_Te2Te2TeTe O_Tr2Tr2TrPi P_TeTeTeTePi O_Te2Te2Te2Te
M  BCL BND NonConjugatedSingleBond NonConjugatedSingleBondInRing NonConjugatedSingleBond NonConjugatedSingleBondInRing NonConjugatedSingleBond NonConjugatedSingleBondInRing NonConjugatedSingleBond NonConjugatedSingleBond NonConjugatedSingleBondInRing NonConjugatedSingleBond NonConjugatedSingleBond NonConjugatedSingleBond NonConjugatedSingleBondInRing NonConjugatedSingleBond NonConjugatedSingleBond NonConjugatedSingleBond NonConjugatedSingleBond NonConjugatedSingleBond NonConjugatedSingleBond NonConjugatedSingleBond NonConjugatedSingleBond NonConjugatedSingleBond NonConjugatedSingleBond ConjugatedSingleBond ConjugatedSingleBond ConjugatedDoubleBond ConjugatedSingleBond
M  BCL CHI   1   S   3   R   5   R  20   R  26   R
M  BCL DBI -
M  END
> <ConfClashScore>
0 

> <ConfOneFourInteractionScore>
-0.980422 

> <ConfScore>
-0.183955 

> <ConfScorePBest>
0.0096395 

> <ConfTolerance>
0.598802 

$$$$
L08.****
  PyMOL2.5          3D                             0

 27 27  0  0  0  0  0  0  0  0999 V2000
   11.8586   -5.1095   -0.2044 C   0  0  0  1  0  0  0  0  0  0  0  0
   12.2491   -5.6869   -1.0162 H   0  0  0  1  0  0  0  0  0  0  0  0
   10.7981   -4.1313   -0.6807 C   0  0  0  1  0  0  0  0  0  0  0  0
   11.0312   -3.7542   -1.6545 H   0  0  0  1  0  0  0  0  0  0  0  0
   10.8641   -3.0314    0.3610 C   0  0  0  1  0  0  0  0  0  0  0  0
   10.7145   -2.0780   -0.1010 H   0  0  0  1  0  0  0  0  0  0  0  0
   11.3449   -5.9855    0.8000 O   0  0  0  1  0  0  0  0  0  0  0  0
   10.6477   -5.5405    1.2873 H   0  0  0  1  0  0  0  0  0  0  0  0
    9.5072   -4.7424   -0.7024 O   0  0  0  1  0  0  0  0  0  0  0  0
    9.6034   -5.6963   -0.6538 H   0  0  0  1  0  0  0  0  0  0  0  0
   12.1749   -3.0939    0.9536 O   0  0  0  1  0  0  0  0  0  0  0  0
    9.8307   -3.2468    1.3921 C   0  0  0  1  0  0  0  0  0  0  0  0
   10.1016   -4.0906    1.9916 H   0  0  0  1  0  0  0  0  0  0  0  0
    8.8912   -3.4341    0.9155 H   0  0  0  1  0  0  0  0  0  0  0  0
   13.7373   -4.8764    1.4046 C   0  0  0  1  0  0  0  0  0  0  0  0
   13.1029   -5.2021    2.2023 H   0  0  0  1  0  0  0  0  0  0  0  0
   14.2187   -5.7235    0.9625 H   0  0  0  1  0  0  0  0  0  0  0  0
   14.7214   -3.9875    1.9164 O   0  0  0  1  0  0  0  0  0  0  0  0
   15.5152   -4.0447    1.3795 H   0  0  0  1  0  0  0  0  0  0  0  0
   12.9106   -4.1719    0.3643 C   0  0  0  1  0  0  0  0  0  0  0  0
   13.7520   -3.6936   -0.6610 O   0  0  0  1  0  0  0  0  0  0  0  0
   13.3222   -2.9646   -1.1143 H   0  0  0  1  0  0  0  0  0  0  0  0
    9.7110   -2.0795    2.2388 O   0  0  0  1  0  0  0  0  0  0  0  0
   11.3835   -2.8300    3.9440 O   0  0  0  0  0  0  0  0  0  0  0  0
    8.9164   -3.1096    4.5414 O   0  0  0  1  0  0  0  0  0  0  0  0
    9.8706   -2.2016    3.8665 P   0  0  0  1  0  0  0  0  0  0  0  0
    9.9659   -0.6962    4.4573 O   0  5  0  1  0  0  0  0  0  0  0  0
  1  2  1  0  0  0  0
  1  3  1  0  0  0  0
  1  7  1  0  0  0  0
  1 20  1  0  0  0  0
  3  4  1  0  0  0  0
  3  5  1  0  0  0  0
  3  9  1  0  0  0  0
  5  6  1  0  0  0  0
  5 11  1  0  0  0  0
  5 12  1  0  0  0  0
  7  8  1  0  0  0  0
  9 10  1  0  0  0  0
 11 20  1  0  0  0  0
 12 13  1  0  0  0  0
 12 14  1  0  0  0  0
 12 23  1  0  0  0  0
 15 16  1  0  0  0  0
 15 17  1  0  0  0  0
 15 18  1  0  0  0  0
 15 20  1  0  0  0  0
 18 19  1  0  0  0  0
 20 21  1  0  0  0  0
 21 22  1  0  0  0  0
 23 26  1  0  0  0  0
 24 26  1  0  0  0  0
 25 26  2  0  0  0  0
 26 27  1  0  0  0  0
M  BCL ATM C_TeTeTeTe H_S C_TeTeTeTe H_S C_TeTeTeTe H_S O_Te2Te2TeTe H_S O_Te2Te2TeTe H_S O_Te2Te2TeTe C_TeTeTeTe H_S H_S C_TeTeTeTe H_S H_S O_Te2Te2TeTe H_S C_TeTeTeTe O_Te2Te2TeTe H_S O_Tr2TrTrPi2 O_Te2Te2TeTe O_Tr2Tr2TrPi P_TeTeTeTePi O_Te2Te2Te2Te
M  BCL BND NonConjugatedSingleBond NonConjugatedSingleBondInRing NonConjugatedSingleBond NonConjugatedSingleBondInRing NonConjugatedSingleBond NonConjugatedSingleBondInRing NonConjugatedSingleBond NonConjugatedSingleBond NonConjugatedSingleBondInRing NonConjugatedSingleBond NonConjugatedSingleBond NonConjugatedSingleBond NonConjugatedSingleBondInRing NonConjugatedSingleBond NonConjugatedSingleBond NonConjugatedSingleBond NonConjugatedSingleBond NonConjugatedSingleBond NonConjugatedSingleBond NonConjugatedSingleBond NonConjugatedSingleBond NonConjugatedSingleBond NonConjugatedSingleBond ConjugatedSingleBond ConjugatedSingleBond ConjugatedDoubleBond ConjugatedSingleBond
M  BCL CHI   1   S   3   R   5   R  20   R  26   R
M  BCL DBI -
M  END
> <ConfClashScore>
0 

> <ConfOneFourInteractionScore>
-0.980422 

> <ConfScore>
-0.182018 

> <ConfScorePBest>
0.0095365 

> <ConfTolerance>
0.536051 

$$$$
L08.****
  PyMOL2.5          3D                             0

 27 27  0  0  0  0  0  0  0  0999 V2000
   12.0604   -4.8953   -0.3733 C   0  0  0  1  0  0  0  0  0  0  0  0
   12.7404   -4.7727   -1.1903 H   0  0  0  1  0  0  0  0  0  0  0  0
   10.6752   -4.4301   -0.7495 C   0  0  0  1  0  0  0  0  0  0  0  0
   10.4629   -4.6371   -1.7776 H   0  0  0  1  0  0  0  0  0  0  0  0
   10.7551   -2.9432   -0.4963 C   0  0  0  1  0  0  0  0  0  0  0  0
   11.1553   -2.4381   -1.3505 H   0  0  0  1  0  0  0  0  0  0  0  0
   12.0467   -6.2505    0.0302 O   0  0  0  1  0  0  0  0  0  0  0  0
   11.4283   -6.3626    0.7559 H   0  0  0  1  0  0  0  0  0  0  0  0
    9.6824   -5.0424    0.0750 O   0  0  0  1  0  0  0  0  0  0  0  0
    9.7756   -4.7267    0.9768 H   0  0  0  1  0  0  0  0  0  0  0  0
   11.6359   -2.8005    0.6331 O   0  0  0  1  0  0  0  0  0  0  0  0
    9.4396   -2.4072   -0.1877 C   0  0  0  1  0  0  0  0  0  0  0  0
    8.7729   -2.6577   -0.9862 H   0  0  0  1  0  0  0  0  0  0  0  0
    9.5150   -1.3430   -0.1060 H   0  0  0  1  0  0  0  0  0  0  0  0
   12.1264   -4.6618    2.0894 C   0  0  0  1  0  0  0  0  0  0  0  0
   11.0691   -4.7994    2.1791 H   0  0  0  1  0  0  0  0  0  0  0  0
   12.6146   -5.6133    2.1235 H   0  0  0  1  0  0  0  0  0  0  0  0
   12.5905   -3.8539    3.1630 O   0  0  0  1  0  0  0  0  0  0  0  0
   12.1993   -2.9796    3.0985 H   0  0  0  1  0  0  0  0  0  0  0  0
   12.4330   -3.9900    0.7819 C   0  0  0  1  0  0  0  0  0  0  0  0
   13.8049   -3.6688    0.7281 O   0  0  0  1  0  0  0  0  0  0  0  0
   14.1242   -3.7762   -0.1708 H   0  0  0  1  0  0  0  0  0  0  0  0
    8.8964   -2.9280    1.0482 O   0  0  0  1  0  0  0  0  0  0  0  0
    7.6918   -0.6823    1.7885 O   0  0  0  0  0  0  0  0  0  0  0  0
    9.9257   -1.2659    2.7607 O   0  0  0  1  0  0  0  0  0  0  0  0
    8.6676   -1.8962    2.3023 P   0  0  0  1  0  0  0  0  0  0  0  0
    7.8943   -2.6901    3.4839 O   0  5  0  1  0  0  0  0  0  0  0  0
  1  2  1  0  0  0  0
  1  3  1  0  0  0  0
  1  7  1  0  0  0  0
  1 20  1  0  0  0  0
  3  4  1  0  0  0  0
  3  5  1  0  0  0  0
  3  9  1  0  0  0  0
  5  6  1  0  0  0  0
  5 11  1  0  0  0  0
  5 12  1  0  0  0  0
  7  8  1  0  0  0  0
  9 10  1  0  0  0  0
 11 20  1  0  0  0  0
 12 13  1  0  0  0  0
 12 14  1  0  0  0  0
 12 23  1  0  0  0  0
 15 16  1  0  0  0  0
 15 17  1  0  0  0  0
 15 18  1  0  0  0  0
 15 20  1  0  0  0  0
 18 19  1  0  0  0  0
 20 21  1  0  0  0  0
 21 22  1  0  0  0  0
 23 26  1  0  0  0  0
 24 26  1  0  0  0  0
 25 26  2  0  0  0  0
 26 27  1  0  0  0  0
M  BCL ATM C_TeTeTeTe H_S C_TeTeTeTe H_S C_TeTeTeTe H_S O_Te2Te2TeTe H_S O_Te2Te2TeTe H_S O_Te2Te2TeTe C_TeTeTeTe H_S H_S C_TeTeTeTe H_S H_S O_Te2Te2TeTe H_S C_TeTeTeTe O_Te2Te2TeTe H_S O_Tr2TrTrPi2 O_Te2Te2TeTe O_Tr2Tr2TrPi P_TeTeTeTePi O_Te2Te2Te2Te
M  BCL BND NonConjugatedSingleBond NonConjugatedSingleBondInRing NonConjugatedSingleBond NonConjugatedSingleBondInRing NonConjugatedSingleBond NonConjugatedSingleBondInRing NonConjugatedSingleBond NonConjugatedSingleBond NonConjugatedSingleBondInRing NonConjugatedSingleBond NonConjugatedSingleBond NonConjugatedSingleBond NonConjugatedSingleBondInRing NonConjugatedSingleBond NonConjugatedSingleBond NonConjugatedSingleBond NonConjugatedSingleBond NonConjugatedSingleBond NonConjugatedSingleBond NonConjugatedSingleBond NonConjugatedSingleBond NonConjugatedSingleBond NonConjugatedSingleBond ConjugatedSingleBond ConjugatedSingleBond ConjugatedDoubleBond ConjugatedSingleBond
M  BCL CHI   1   S   3   R   5   R  20   R  26   R
M  BCL DBI -
M  END
> <ConfClashScore>
0 

> <ConfOneFourInteractionScore>
-0.993347 

> <ConfScore>
-0.181593 

> <ConfScorePBest>
0.00943349 

> <ConfTolerance>
0.547591 

$$$$
L08.****
  PyMOL2.5          3D                             0

 27 27  0  0  0  0  0  0  0  0999 V2000
   11.9932   -4.9934   -0.4896 C   0  0  0  1  0  0  0  0  0  0  0  0
   12.6002   -4.9114   -1.3669 H   0  0  0  1  0  0  0  0  0  0  0  0
   10.6071   -4.4521   -0.7398 C   0  0  0  1  0  0  0  0  0  0  0  0
   10.2893   -4.6495   -1.7423 H   0  0  0  1  0  0  0  0  0  0  0  0
   10.7928   -2.9714   -0.5067 C   0  0  0  1  0  0  0  0  0  0  0  0
   11.1396   -2.4917   -1.3981 H   0  0  0  1  0  0  0  0  0  0  0  0
   11.9409   -6.3583   -0.0719 O   0  0  0  1  0  0  0  0  0  0  0  0
   11.3940   -6.4323    0.7137 H   0  0  0  1  0  0  0  0  0  0  0  0
    9.6624   -5.0055    0.1775 O   0  0  0  1  0  0  0  0  0  0  0  0
    9.8005   -4.6252    1.0481 H   0  0  0  1  0  0  0  0  0  0  0  0
   11.7811   -2.8755    0.5354 O   0  0  0  1  0  0  0  0  0  0  0  0
    9.5246   -2.3522   -0.0757 C   0  0  0  1  0  0  0  0  0  0  0  0
    9.0955   -2.9384    0.7099 H   0  0  0  1  0  0  0  0  0  0  0  0
    8.8496   -2.3178   -0.9052 H   0  0  0  1  0  0  0  0  0  0  0  0
   12.3017   -4.7524    1.9438 C   0  0  0  1  0  0  0  0  0  0  0  0
   12.5031   -4.0279    2.7051 H   0  0  0  1  0  0  0  0  0  0  0  0
   11.2773   -5.0559    2.0017 H   0  0  0  1  0  0  0  0  0  0  0  0
   13.1154   -5.8904    2.1889 O   0  0  0  1  0  0  0  0  0  0  0  0
   14.0018   -5.7279    1.8578 H   0  0  0  1  0  0  0  0  0  0  0  0
   12.5211   -4.1075    0.6191 C   0  0  0  1  0  0  0  0  0  0  0  0
   13.8978   -3.8640    0.4364 O   0  0  0  1  0  0  0  0  0  0  0  0
   14.1001   -2.9609    0.6916 H   0  0  0  1  0  0  0  0  0  0  0  0
    9.7569   -1.0076    0.4056 O   0  0  0  1  0  0  0  0  0  0  0  0
   10.5109    0.7491    2.2026 O   0  0  0  0  0  0  0  0  0  0  0  0
   10.5466   -1.9371    2.6676 O   0  0  0  1  0  0  0  0  0  0  0  0
    9.9125   -0.7669    2.0204 P   0  0  0  1  0  0  0  0  0  0  0  0
    8.3751   -0.8201    2.5283 O   0  5  0  1  0  0  0  0  0  0  0  0
  1  2  1  0  0  0  0
  1  3  1  0  0  0  0
  1  7  1  0  0  0  0
  1 20  1  0  0  0  0
  3  4  1  0  0  0  0
  3  5  1  0  0  0  0
  3  9  1  0  0  0  0
  5  6  1  0  0  0  0
  5 11  1  0  0  0  0
  5 12  1  0  0  0  0
  7  8  1  0  0  0  0
  9 10  1  0  0  0  0
 11 20  1  0  0  0  0
 12 13  1  0  0  0  0
 12 14  1  0  0  0  0
 12 23  1  0  0  0  0
 15 16  1  0  0  0  0
 15 17  1  0  0  0  0
 15 18  1  0  0  0  0
 15 20  1  0  0  0  0
 18 19  1  0  0  0  0
 20 21  1  0  0  0  0
 21 22  1  0  0  0  0
 23 26  1  0  0  0  0
 24 26  1  0  0  0  0
 25 26  2  0  0  0  0
 26 27  1  0  0  0  0
M  BCL ATM C_TeTeTeTe H_S C_TeTeTeTe H_S C_TeTeTeTe H_S O_Te2Te2TeTe H_S O_Te2Te2TeTe H_S O_Te2Te2TeTe C_TeTeTeTe H_S H_S C_TeTeTeTe H_S H_S O_Te2Te2TeTe H_S C_TeTeTeTe O_Te2Te2TeTe H_S O_Tr2TrTrPi2 O_Te2Te2TeTe O_Tr2Tr2TrPi P_TeTeTeTePi O_Te2Te2Te2Te
M  BCL BND NonConjugatedSingleBond NonConjugatedSingleBondInRing NonConjugatedSingleBond NonConjugatedSingleBondInRing NonConjugatedSingleBond NonConjugatedSingleBondInRing NonConjugatedSingleBond NonConjugatedSingleBond NonConjugatedSingleBondInRing NonConjugatedSingleBond NonConjugatedSingleBond NonConjugatedSingleBond NonConjugatedSingleBondInRing NonConjugatedSingleBond NonConjugatedSingleBond NonConjugatedSingleBond NonConjugatedSingleBond NonConjugatedSingleBond NonConjugatedSingleBond NonConjugatedSingleBond NonConjugatedSingleBond NonConjugatedSingleBond NonConjugatedSingleBond ConjugatedSingleBond ConjugatedSingleBond ConjugatedDoubleBond ConjugatedSingleBond
M  BCL CHI   1   S   3   R   5   R  20   R  26   R
M  BCL DBI -
M  END
> <ConfClashScore>
0 

> <ConfOneFourInteractionScore>
-0.986052 

> <ConfScore>
-0.178871 

> <ConfScorePBest>
0.00933049 

> <ConfTolerance>
0.547918 

$$$$
L08.****
  PyMOL2.5          3D                             0

 27 27  0  0  0  0  0  0  0  0999 V2000
   11.9927   -5.0297   -0.0994 C   0  0  0  1  0  0  0  0  0  0  0  0
   12.5096   -5.6350   -0.8145 H   0  0  0  1  0  0  0  0  0  0  0  0
   10.7660   -4.3800   -0.7173 C   0  0  0  1  0  0  0  0  0  0  0  0
   10.9381   -4.1160   -1.7399 H   0  0  0  1  0  0  0  0  0  0  0  0
   10.5991   -3.1454    0.1526 C   0  0  0  1  0  0  0  0  0  0  0  0
   10.0791   -2.3778   -0.3816 H   0  0  0  1  0  0  0  0  0  0  0  0
   11.6381   -5.8261    1.0320 O   0  0  0  1  0  0  0  0  0  0  0  0
   10.7784   -5.5523    1.3599 H   0  0  0  1  0  0  0  0  0  0  0  0
    9.6253   -5.2353   -0.6312 O   0  0  0  1  0  0  0  0  0  0  0  0
    8.8778   -4.8171   -1.0649 H   0  0  0  1  0  0  0  0  0  0  0  0
   11.9310   -2.7236    0.4671 O   0  0  0  1  0  0  0  0  0  0  0  0
    9.8392   -3.4853    1.4146 C   0  0  0  1  0  0  0  0  0  0  0  0
    9.2795   -4.3876    1.2817 H   0  0  0  1  0  0  0  0  0  0  0  0
    9.1750   -2.6884    1.6766 H   0  0  0  1  0  0  0  0  0  0  0  0
   13.5269   -4.1202    1.6149 C   0  0  0  1  0  0  0  0  0  0  0  0
   12.7980   -4.3352    2.3682 H   0  0  0  1  0  0  0  0  0  0  0  0
   14.1758   -4.9626    1.4950 H   0  0  0  1  0  0  0  0  0  0  0  0
   14.2925   -2.9850    2.0073 O   0  0  0  1  0  0  0  0  0  0  0  0
   13.7167   -2.2206    2.0827 H   0  0  0  1  0  0  0  0  0  0  0  0
   12.8318   -3.8364    0.3142 C   0  0  0  1  0  0  0  0  0  0  0  0
   13.7907   -3.5506   -0.6793 O   0  0  0  1  0  0  0  0  0  0  0  0
   14.6227   -3.9724   -0.4525 H   0  0  0  1  0  0  0  0  0  0  0  0
   10.8451   -3.6617    2.4398 O   0  0  0  1  0  0  0  0  0  0  0  0
   11.7754   -4.3738    4.8686 O   0  0  0  0  0  0  0  0  0  0  0  0
    9.7580   -5.5249    3.6584 O   0  0  0  1  0  0  0  0  0  0  0  0
   10.4435   -4.2398    3.9211 P   0  0  0  1  0  0  0  0  0  0  0  0
    9.3605   -3.2314    4.5803 O   0  5  0  1  0  0  0  0  0  0  0  0
  1  2  1  0  0  0  0
  1  3  1  0  0  0  0
  1  7  1  0  0  0  0
  1 20  1  0  0  0  0
  3  4  1  0  0  0  0
  3  5  1  0  0  0  0
  3  9  1  0  0  0  0
  5  6  1  0  0  0  0
  5 11  1  0  0  0  0
  5 12  1  0  0  0  0
  7  8  1  0  0  0  0
  9 10  1  0  0  0  0
 11 20  1  0  0  0  0
 12 13  1  0  0  0  0
 12 14  1  0  0  0  0
 12 23  1  0  0  0  0
 15 16  1  0  0  0  0
 15 17  1  0  0  0  0
 15 18  1  0  0  0  0
 15 20  1  0  0  0  0
 18 19  1  0  0  0  0
 20 21  1  0  0  0  0
 21 22  1  0  0  0  0
 23 26  1  0  0  0  0
 24 26  1  0  0  0  0
 25 26  2  0  0  0  0
 26 27  1  0  0  0  0
M  BCL ATM C_TeTeTeTe H_S C_TeTeTeTe H_S C_TeTeTeTe H_S O_Te2Te2TeTe H_S O_Te2Te2TeTe H_S O_Te2Te2TeTe C_TeTeTeTe H_S H_S C_TeTeTeTe H_S H_S O_Te2Te2TeTe H_S C_TeTeTeTe O_Te2Te2TeTe H_S O_Tr2TrTrPi2 O_Te2Te2TeTe O_Tr2Tr2TrPi P_TeTeTeTePi O_Te2Te2Te2Te
M  BCL BND NonConjugatedSingleBond NonConjugatedSingleBondInRing NonConjugatedSingleBond NonConjugatedSingleBondInRing NonConjugatedSingleBond NonConjugatedSingleBondInRing NonConjugatedSingleBond NonConjugatedSingleBond NonConjugatedSingleBondInRing NonConjugatedSingleBond NonConjugatedSingleBond NonConjugatedSingleBond NonConjugatedSingleBondInRing NonConjugatedSingleBond NonConjugatedSingleBond NonConjugatedSingleBond NonConjugatedSingleBond NonConjugatedSingleBond NonConjugatedSingleBond NonConjugatedSingleBond NonConjugatedSingleBond NonConjugatedSingleBond NonConjugatedSingleBond ConjugatedSingleBond ConjugatedSingleBond ConjugatedDoubleBond ConjugatedSingleBond
M  BCL CHI   1   S   3   R   5   R  20   R  26   R
M  BCL DBI -
M  END
> <ConfClashScore>
0 

> <ConfOneFourInteractionScore>
-0.98394 

> <ConfScore>
-0.178709 

> <ConfScorePBest>
0.00922749 

> <ConfTolerance>
0.533571 

$$$$
L08.****
  PyMOL2.5          3D                             0

 27 27  0  0  0  0  0  0  0  0999 V2000
   12.0755   -4.8833   -0.1692 C   0  0  0  1  0  0  0  0  0  0  0  0
   12.6515   -4.9765   -1.0661 H   0  0  0  1  0  0  0  0  0  0  0  0
   10.6665   -4.4342   -0.4692 C   0  0  0  1  0  0  0  0  0  0  0  0
   10.3200   -4.8512   -1.3916 H   0  0  0  1  0  0  0  0  0  0  0  0
   10.7917   -2.9285   -0.5687 C   0  0  0  1  0  0  0  0  0  0  0  0
   10.9113   -2.6331   -1.5902 H   0  0  0  1  0  0  0  0  0  0  0  0
   12.0833   -6.1294    0.5354 O   0  0  0  1  0  0  0  0  0  0  0  0
   11.5305   -6.7630    0.0722 H   0  0  0  1  0  0  0  0  0  0  0  0
    9.7769   -4.8042    0.5853 O   0  0  0  1  0  0  0  0  0  0  0  0
    8.8782   -4.8373    0.2496 H   0  0  0  1  0  0  0  0  0  0  0  0
   11.9593   -2.5714    0.1939 O   0  0  0  1  0  0  0  0  0  0  0  0
    9.5793   -2.2695    0.0021 C   0  0  0  1  0  0  0  0  0  0  0  0
    9.4923   -2.5048    1.0422 H   0  0  0  1  0  0  0  0  0  0  0  0
    8.7046   -2.6054   -0.5146 H   0  0  0  1  0  0  0  0  0  0  0  0
   12.2168   -3.9891    2.1346 C   0  0  0  1  0  0  0  0  0  0  0  0
   11.1507   -4.0161    2.2228 H   0  0  0  1  0  0  0  0  0  0  0  0
   12.6262   -4.9205    2.4659 H   0  0  0  1  0  0  0  0  0  0  0  0
   12.7307   -2.9348    2.9376 O   0  0  0  1  0  0  0  0  0  0  0  0
   12.0072   -2.3828    3.2432 H   0  0  0  1  0  0  0  0  0  0  0  0
   12.5931   -3.7609    0.6989 C   0  0  0  1  0  0  0  0  0  0  0  0
   13.9952   -3.6583    0.5905 O   0  0  0  1  0  0  0  0  0  0  0  0
   14.3173   -4.3135   -0.0328 H   0  0  0  1  0  0  0  0  0  0  0  0
    9.7343   -0.8409   -0.1687 O   0  0  0  1  0  0  0  0  0  0  0  0
    9.2040    1.5638   -1.1923 O   0  0  0  0  0  0  0  0  0  0  0  0
    7.2677   -0.1457   -0.6243 O   0  0  0  1  0  0  0  0  0  0  0  0
    8.6688    0.0183   -1.0721 P   0  0  0  1  0  0  0  0  0  0  0  0
    8.8030   -0.6953   -2.5202 O   0  5  0  1  0  0  0  0  0  0  0  0
  1  2  1  0  0  0  0
  1  3  1  0  0  0  0
  1  7  1  0  0  0  0
  1 20  1  0  0  0  0
  3  4  1  0  0  0  0
  3  5  1  0  0  0  0
  3  9  1  0  0  0  0
  5  6  1  0  0  0  0
  5 11  1  0  0  0  0
  5 12  1  0  0  0  0
  7  8  1  0  0  0  0
  9 10  1  0  0  0  0
 11 20  1  0  0  0  0
 12 13  1  0  0  0  0
 12 14  1  0  0  0  0
 12 23  1  0  0  0  0
 15 16  1  0  0  0  0
 15 17  1  0  0  0  0
 15 18  1  0  0  0  0
 15 20  1  0  0  0  0
 18 19  1  0  0  0  0
 20 21  1  0  0  0  0
 21 22  1  0  0  0  0
 23 26  1  0  0  0  0
 24 26  1  0  0  0  0
 25 26  2  0  0  0  0
 26 27  1  0  0  0  0
M  BCL ATM C_TeTeTeTe H_S C_TeTeTeTe H_S C_TeTeTeTe H_S O_Te2Te2TeTe H_S O_Te2Te2TeTe H_S O_Te2Te2TeTe C_TeTeTeTe H_S H_S C_TeTeTeTe H_S H_S O_Te2Te2TeTe H_S C_TeTeTeTe O_Te2Te2TeTe H_S O_Tr2TrTrPi2 O_Te2Te2TeTe O_Tr2Tr2TrPi P_TeTeTeTePi O_Te2Te2Te2Te
M  BCL BND NonConjugatedSingleBond NonConjugatedSingleBondInRing NonConjugatedSingleBond NonConjugatedSingleBondInRing NonConjugatedSingleBond NonConjugatedSingleBondInRing NonConjugatedSingleBond NonConjugatedSingleBond NonConjugatedSingleBondInRing NonConjugatedSingleBond NonConjugatedSingleBond NonConjugatedSingleBond NonConjugatedSingleBondInRing NonConjugatedSingleBond NonConjugatedSingleBond NonConjugatedSingleBond NonConjugatedSingleBond NonConjugatedSingleBond NonConjugatedSingleBond NonConjugatedSingleBond NonConjugatedSingleBond NonConjugatedSingleBond NonConjugatedSingleBond ConjugatedSingleBond ConjugatedSingleBond ConjugatedDoubleBond ConjugatedSingleBond
M  BCL CHI   1   S   3   R   5   R  20   R  26   R
M  BCL DBI -
M  END
> <ConfClashScore>
0 

> <ConfOneFourInteractionScore>
-0.980422 

> <ConfScore>
-0.178022 

> <ConfScorePBest>
0.00912449 

> <ConfTolerance>
0.575677 

$$$$
L08.****
  PyMOL2.5          3D                             0

 27 27  0  0  0  0  0  0  0  0999 V2000
   11.9694   -5.1326   -0.4058 C   0  0  0  1  0  0  0  0  0  0  0  0
   12.4337   -5.3608   -1.3424 H   0  0  0  1  0  0  0  0  0  0  0  0
   10.6671   -4.3818   -0.6208 C   0  0  0  1  0  0  0  0  0  0  0  0
   10.4900   -4.2224   -1.6639 H   0  0  0  1  0  0  0  0  0  0  0  0
   10.8671   -3.0773    0.0880 C   0  0  0  1  0  0  0  0  0  0  0  0
   11.1539   -2.3182   -0.6094 H   0  0  0  1  0  0  0  0  0  0  0  0
   11.7416   -6.3413    0.3204 O   0  0  0  1  0  0  0  0  0  0  0  0
   11.1199   -6.1749    1.0328 H   0  0  0  1  0  0  0  0  0  0  0  0
    9.5701   -5.1009   -0.0554 O   0  0  0  1  0  0  0  0  0  0  0  0
    8.7705   -4.5747   -0.1281 H   0  0  0  1  0  0  0  0  0  0  0  0
   11.9073   -3.2891    1.0412 O   0  0  0  1  0  0  0  0  0  0  0  0
    9.5924   -2.6632    0.7893 C   0  0  0  1  0  0  0  0  0  0  0  0
    9.7812   -1.8479    1.4561 H   0  0  0  1  0  0  0  0  0  0  0  0
    9.1839   -3.4861    1.3379 H   0  0  0  1  0  0  0  0  0  0  0  0
   13.6353   -4.9263    1.4246 C   0  0  0  1  0  0  0  0  0  0  0  0
   12.9688   -5.5060    2.0285 H   0  0  0  1  0  0  0  0  0  0  0  0
   14.3145   -5.5780    0.9159 H   0  0  0  1  0  0  0  0  0  0  0  0
   14.3808   -4.0604    2.2702 O   0  0  0  1  0  0  0  0  0  0  0  0
   14.9349   -3.4882    1.7344 H   0  0  0  1  0  0  0  0  0  0  0  0
   12.8291   -4.1753    0.4009 C   0  0  0  1  0  0  0  0  0  0  0  0
   13.6969   -3.4569   -0.4470 O   0  0  0  1  0  0  0  0  0  0  0  0
   13.9023   -2.6074   -0.0498 H   0  0  0  1  0  0  0  0  0  0  0  0
    8.6841   -2.2562   -0.2611 O   0  0  0  1  0  0  0  0  0  0  0  0
    6.3683   -2.9270    0.7399 O   0  0  0  0  0  0  0  0  0  0  0  0
    6.5042   -1.0494   -1.0579 O   0  0  0  1  0  0  0  0  0  0  0  0
    7.1961   -1.6662    0.0959 P   0  0  0  1  0  0  0  0  0  0  0  0
    7.3303   -0.6436    1.3451 O   0  5  0  1  0  0  0  0  0  0  0  0
  1  2  1  0  0  0  0
  1  3  1  0  0  0  0
  1  7  1  0  0  0  0
  1 20  1  0  0  0  0
  3  4  1  0  0  0  0
  3  5  1  0  0  0  0
  3  9  1  0  0  0  0
  5  6  1  0  0  0  0
  5 11  1  0  0  0  0
  5 12  1  0  0  0  0
  7  8  1  0  0  0  0
  9 10  1  0  0  0  0
 11 20  1  0  0  0  0
 12 13  1  0  0  0  0
 12 14  1  0  0  0  0
 12 23  1  0  0  0  0
 15 16  1  0  0  0  0
 15 17  1  0  0  0  0
 15 18  1  0  0  0  0
 15 20  1  0  0  0  0
 18 19  1  0  0  0  0
 20 21  1  0  0  0  0
 21 22  1  0  0  0  0
 23 26  1  0  0  0  0
 24 26  1  0  0  0  0
 25 26  2  0  0  0  0
 26 27  1  0  0  0  0
M  BCL ATM C_TeTeTeTe H_S C_TeTeTeTe H_S C_TeTeTeTe H_S O_Te2Te2TeTe H_S O_Te2Te2TeTe H_S O_Te2Te2TeTe C_TeTeTeTe H_S H_S C_TeTeTeTe H_S H_S O_Te2Te2TeTe H_S C_TeTeTeTe O_Te2Te2TeTe H_S O_Tr2TrTrPi2 O_Te2Te2TeTe O_Tr2Tr2TrPi P_TeTeTeTePi O_Te2Te2Te2Te
M  BCL BND NonConjugatedSingleBond NonConjugatedSingleBondInRing NonConjugatedSingleBond NonConjugatedSingleBondInRing NonConjugatedSingleBond NonConjugatedSingleBondInRing NonConjugatedSingleBond NonConjugatedSingleBond NonConjugatedSingleBondInRing NonConjugatedSingleBond NonConjugatedSingleBond NonConjugatedSingleBond NonConjugatedSingleBondInRing NonConjugatedSingleBond NonConjugatedSingleBond NonConjugatedSingleBond NonConjugatedSingleBond NonConjugatedSingleBond NonConjugatedSingleBond NonConjugatedSingleBond NonConjugatedSingleBond NonConjugatedSingleBond NonConjugatedSingleBond ConjugatedSingleBond ConjugatedSingleBond ConjugatedDoubleBond ConjugatedSingleBond
M  BCL CHI   1   S   3   R   5   R  20   R  26   R
M  BCL DBI -
M  END
> <ConfClashScore>
0 

> <ConfOneFourInteractionScore>
-0.97336 

> <ConfScore>
-0.17795 

> <ConfScorePBest>
0.00902149 

> <ConfTolerance>
0.513668 

$$$$
L08.****
  PyMOL2.5          3D                             0

 27 27  0  0  0  0  0  0  0  0999 V2000
   11.8887   -5.0101   -0.3410 C   0  0  0  1  0  0  0  0  0  0  0  0
   12.5634   -5.0014   -1.1714 H   0  0  0  1  0  0  0  0  0  0  0  0
   10.5661   -4.3866   -0.7136 C   0  0  0  1  0  0  0  0  0  0  0  0
   10.3105   -4.5991   -1.7307 H   0  0  0  1  0  0  0  0  0  0  0  0
   10.8367   -2.9141   -0.5141 C   0  0  0  1  0  0  0  0  0  0  0  0
   11.2813   -2.4921   -1.3911 H   0  0  0  1  0  0  0  0  0  0  0  0
   11.7105   -6.3521    0.1146 O   0  0  0  1  0  0  0  0  0  0  0  0
   12.5567   -6.7116    0.3910 H   0  0  0  1  0  0  0  0  0  0  0  0
    9.5197   -4.8412    0.1458 O   0  0  0  1  0  0  0  0  0  0  0  0
    9.5363   -4.3393    0.9640 H   0  0  0  1  0  0  0  0  0  0  0  0
   11.7492   -2.8464    0.5970 O   0  0  0  1  0  0  0  0  0  0  0  0
    9.6049   -2.2065   -0.2060 C   0  0  0  1  0  0  0  0  0  0  0  0
    9.8536   -1.2410    0.1823 H   0  0  0  1  0  0  0  0  0  0  0  0
    9.0681   -2.7618    0.5346 H   0  0  0  1  0  0  0  0  0  0  0  0
   12.0283   -4.7063    2.1128 C   0  0  0  1  0  0  0  0  0  0  0  0
   10.9936   -4.9786    2.1113 H   0  0  0  1  0  0  0  0  0  0  0  0
   12.6260   -5.5747    2.2961 H   0  0  0  1  0  0  0  0  0  0  0  0
   12.2627   -3.7478    3.1345 O   0  0  0  1  0  0  0  0  0  0  0  0
   11.5891   -3.8318    3.8133 H   0  0  0  1  0  0  0  0  0  0  0  0
   12.3933   -4.1213    0.7762 C   0  0  0  1  0  0  0  0  0  0  0  0
   13.7934   -3.9777    0.6918 O   0  0  0  1  0  0  0  0  0  0  0  0
   14.0075   -3.2973    0.0492 H   0  0  0  1  0  0  0  0  0  0  0  0
    8.7519   -2.0338   -1.3620 O   0  0  0  1  0  0  0  0  0  0  0  0
    8.4146    0.5883   -1.2061 O   0  0  0  0  0  0  0  0  0  0  0  0
    6.6008   -1.1449   -0.3907 O   0  0  0  1  0  0  0  0  0  0  0  0
    7.6306   -0.8379   -1.4083 P   0  0  0  1  0  0  0  0  0  0  0  0
    6.9820   -0.9629   -2.8875 O   0  5  0  1  0  0  0  0  0  0  0  0
  1  2  1  0  0  0  0
  1  3  1  0  0  0  0
  1  7  1  0  0  0  0
  1 20  1  0  0  0  0
  3  4  1  0  0  0  0
  3  5  1  0  0  0  0
  3  9  1  0  0  0  0
  5  6  1  0  0  0  0
  5 11  1  0  0  0  0
  5 12  1  0  0  0  0
  7  8  1  0  0  0  0
  9 10  1  0  0  0  0
 11 20  1  0  0  0  0
 12 13  1  0  0  0  0
 12 14  1  0  0  0  0
 12 23  1  0  0  0  0
 15 16  1  0  0  0  0
 15 17  1  0  0  0  0
 15 18  1  0  0  0  0
 15 20  1  0  0  0  0
 18 19  1  0  0  0  0
 20 21  1  0  0  0  0
 21 22  1  0  0  0  0
 23 26  1  0  0  0  0
 24 26  1  0  0  0  0
 25 26  2  0  0  0  0
 26 27  1  0  0  0  0
M  BCL ATM C_TeTeTeTe H_S C_TeTeTeTe H_S C_TeTeTeTe H_S O_Te2Te2TeTe H_S O_Te2Te2TeTe H_S O_Te2Te2TeTe C_TeTeTeTe H_S H_S C_TeTeTeTe H_S H_S O_Te2Te2TeTe H_S C_TeTeTeTe O_Te2Te2TeTe H_S O_Tr2TrTrPi2 O_Te2Te2TeTe O_Tr2Tr2TrPi P_TeTeTeTePi O_Te2Te2Te2Te
M  BCL BND NonConjugatedSingleBond NonConjugatedSingleBondInRing NonConjugatedSingleBond NonConjugatedSingleBondInRing NonConjugatedSingleBond NonConjugatedSingleBondInRing NonConjugatedSingleBond NonConjugatedSingleBond NonConjugatedSingleBondInRing NonConjugatedSingleBond NonConjugatedSingleBond NonConjugatedSingleBond NonConjugatedSingleBondInRing NonConjugatedSingleBond NonConjugatedSingleBond NonConjugatedSingleBond NonConjugatedSingleBond NonConjugatedSingleBond NonConjugatedSingleBond NonConjugatedSingleBond NonConjugatedSingleBond NonConjugatedSingleBond NonConjugatedSingleBond ConjugatedSingleBond ConjugatedSingleBond ConjugatedDoubleBond ConjugatedSingleBond
M  BCL CHI   1   S   3   R   5   R  20   R  26   R
M  BCL DBI -
M  END
> <ConfClashScore>
0 

> <ConfOneFourInteractionScore>
-0.986052 

> <ConfScore>
-0.177855 

> <ConfScorePBest>
0.00891849 

> <ConfTolerance>
0.598645 

$$$$
L08.****
  PyMOL2.5          3D                             0

 27 27  0  0  0  0  0  0  0  0999 V2000
   11.7460   -5.0462   -0.0209 C   0  0  0  1  0  0  0  0  0  0  0  0
   12.1063   -5.7641   -0.7278 H   0  0  0  1  0  0  0  0  0  0  0  0
   10.6660   -4.1700   -0.6330 C   0  0  0  1  0  0  0  0  0  0  0  0
   10.8625   -3.9737   -1.6663 H   0  0  0  1  0  0  0  0  0  0  0  0
   10.7832   -2.9062    0.2025 C   0  0  0  1  0  0  0  0  0  0  0  0
   10.4210   -2.0606   -0.3439 H   0  0  0  1  0  0  0  0  0  0  0  0
   11.2629   -5.7220    1.1410 O   0  0  0  1  0  0  0  0  0  0  0  0
   11.4250   -6.6642    1.0543 H   0  0  0  1  0  0  0  0  0  0  0  0
    9.3746   -4.7651   -0.4978 O   0  0  0  1  0  0  0  0  0  0  0  0
    9.2028   -5.3328   -1.2527 H   0  0  0  1  0  0  0  0  0  0  0  0
   12.1816   -2.7647    0.4769 O   0  0  0  1  0  0  0  0  0  0  0  0
   10.0121   -3.0459    1.4737 C   0  0  0  1  0  0  0  0  0  0  0  0
    9.2555   -3.7940    1.3606 H   0  0  0  1  0  0  0  0  0  0  0  0
    9.5558   -2.1120    1.7277 H   0  0  0  1  0  0  0  0  0  0  0  0
   13.4559   -4.4202    1.5845 C   0  0  0  1  0  0  0  0  0  0  0  0
   14.2382   -3.7158    1.7761 H   0  0  0  1  0  0  0  0  0  0  0  0
   12.7161   -4.3507    2.3545 H   0  0  0  1  0  0  0  0  0  0  0  0
   14.0130   -5.6962    1.6502 O   0  0  0  1  0  0  0  0  0  0  0  0
   14.8386   -5.6606    2.1388 H   0  0  0  1  0  0  0  0  0  0  0  0
   12.8261   -4.0449    0.3393 C   0  0  0  1  0  0  0  0  0  0  0  0
   13.7971   -3.9912   -0.6817 O   0  0  0  1  0  0  0  0  0  0  0  0
   14.2234   -3.1311   -0.6736 H   0  0  0  1  0  0  0  0  0  0  0  0
   10.9419   -3.4383    2.5108 O   0  0  0  1  0  0  0  0  0  0  0  0
   11.6809   -4.0455    4.9241 O   0  0  0  0  0  0  0  0  0  0  0  0
    9.2883   -4.2850    4.2665 O   0  0  0  1  0  0  0  0  0  0  0  0
   10.4456   -3.3829    4.0729 P   0  0  0  1  0  0  0  0  0  0  0  0
   10.2002   -1.8479    4.5288 O   0  5  0  1  0  0  0  0  0  0  0  0
  1  2  1  0  0  0  0
  1  3  1  0  0  0  0
  1  7  1  0  0  0  0
  1 20  1  0  0  0  0
  3  4  1  0  0  0  0
  3  5  1  0  0  0  0
  3  9  1  0  0  0  0
  5  6  1  0  0  0  0
  5 11  1  0  0  0  0
  5 12  1  0  0  0  0
  7  8  1  0  0  0  0
  9 10  1  0  0  0  0
 11 20  1  0  0  0  0
 12 13  1  0  0  0  0
 12 14  1  0  0  0  0
 12 23  1  0  0  0  0
 15 16  1  0  0  0  0
 15 17  1  0  0  0  0
 15 18  1  0  0  0  0
 15 20  1  0  0  0  0
 18 19  1  0  0  0  0
 20 21  1  0  0  0  0
 21 22  1  0  0  0  0
 23 26  1  0  0  0  0
 24 26  1  0  0  0  0
 25 26  2  0  0  0  0
 26 27  1  0  0  0  0
M  BCL ATM C_TeTeTeTe H_S C_TeTeTeTe H_S C_TeTeTeTe H_S O_Te2Te2TeTe H_S O_Te2Te2TeTe H_S O_Te2Te2TeTe C_TeTeTeTe H_S H_S C_TeTeTeTe H_S H_S O_Te2Te2TeTe H_S C_TeTeTeTe O_Te2Te2TeTe H_S O_Tr2TrTrPi2 O_Te2Te2TeTe O_Tr2Tr2TrPi P_TeTeTeTePi O_Te2Te2Te2Te
M  BCL BND NonConjugatedSingleBond NonConjugatedSingleBondInRing NonConjugatedSingleBond NonConjugatedSingleBondInRing NonConjugatedSingleBond NonConjugatedSingleBondInRing NonConjugatedSingleBond NonConjugatedSingleBond NonConjugatedSingleBondInRing NonConjugatedSingleBond NonConjugatedSingleBond NonConjugatedSingleBond NonConjugatedSingleBondInRing NonConjugatedSingleBond NonConjugatedSingleBond NonConjugatedSingleBond NonConjugatedSingleBond NonConjugatedSingleBond NonConjugatedSingleBond NonConjugatedSingleBond NonConjugatedSingleBond NonConjugatedSingleBond NonConjugatedSingleBond ConjugatedSingleBond ConjugatedSingleBond ConjugatedDoubleBond ConjugatedSingleBond
M  BCL CHI   1   S   3   R   5   R  20   R  26   R
M  BCL DBI -
M  END
> <ConfClashScore>
0 

> <ConfOneFourInteractionScore>
-0.983162 

> <ConfScore>
-0.175172 

> <ConfScorePBest>
0.00881549 

> <ConfTolerance>
0.546734 

$$$$
L08.****
  PyMOL2.5          3D                             0

 27 27  0  0  0  0  0  0  0  0999 V2000
   11.7677   -4.9192    0.0036 C   0  0  0  1  0  0  0  0  0  0  0  0
   12.2480   -5.6656   -0.5940 H   0  0  0  1  0  0  0  0  0  0  0  0
   10.7413   -4.1462   -0.8071 C   0  0  0  1  0  0  0  0  0  0  0  0
   11.0633   -4.0136   -1.8189 H   0  0  0  1  0  0  0  0  0  0  0  0
   10.6938   -2.8220   -0.0633 C   0  0  0  1  0  0  0  0  0  0  0  0
   10.3708   -2.0372   -0.7150 H   0  0  0  1  0  0  0  0  0  0  0  0
   11.1654   -5.5354    1.1427 O   0  0  0  1  0  0  0  0  0  0  0  0
   11.6825   -6.3008    1.4040 H   0  0  0  1  0  0  0  0  0  0  0  0
    9.4683   -4.7976   -0.7928 O   0  0  0  1  0  0  0  0  0  0  0  0
    9.5464   -5.6439   -0.3464 H   0  0  0  1  0  0  0  0  0  0  0  0
   12.0366   -2.5886    0.3759 O   0  0  0  1  0  0  0  0  0  0  0  0
    9.7799   -2.9104    1.0919 C   0  0  0  1  0  0  0  0  0  0  0  0
    9.7565   -1.9666    1.5956 H   0  0  0  1  0  0  0  0  0  0  0  0
   10.1328   -3.6650    1.7634 H   0  0  0  1  0  0  0  0  0  0  0  0
   13.2423   -4.1026    1.8141 C   0  0  0  1  0  0  0  0  0  0  0  0
   13.7333   -5.0525    1.8543 H   0  0  0  1  0  0  0  0  0  0  0  0
   13.9259   -3.3344    2.1099 H   0  0  0  1  0  0  0  0  0  0  0  0
   12.1115   -4.1040    2.6754 O   0  0  0  1  0  0  0  0  0  0  0  0
   11.9584   -4.9937    3.0019 H   0  0  0  1  0  0  0  0  0  0  0  0
   12.7476   -3.8399    0.4208 C   0  0  0  1  0  0  0  0  0  0  0  0
   13.8411   -3.8081   -0.4687 O   0  0  0  1  0  0  0  0  0  0  0  0
   13.9514   -4.6722   -0.8720 H   0  0  0  1  0  0  0  0  0  0  0  0
    8.4433   -3.2498    0.6538 O   0  0  0  1  0  0  0  0  0  0  0  0
    7.0758   -0.9398    0.9239 O   0  0  0  0  0  0  0  0  0  0  0  0
    6.8926   -2.6294    2.7805 O   0  0  0  1  0  0  0  0  0  0  0  0
    7.1307   -2.5295    1.3232 P   0  0  0  1  0  0  0  0  0  0  0  0
    5.7996   -3.0313    0.5481 O   0  5  0  1  0  0  0  0  0  0  0  0
  1  2  1  0  0  0  0
  1  3  1  0  0  0  0
  1  7  1  0  0  0  0
  1 20  1  0  0  0  0
  3  4  1  0  0  0  0
  3  5  1  0  0  0  0
  3  9  1  0  0  0  0
  5  6  1  0  0  0  0
  5 11  1  0  0  0  0
  5 12  1  0  0  0  0
  7  8  1  0  0  0  0
  9 10  1  0  0  0  0
 11 20  1  0  0  0  0
 12 13  1  0  0  0  0
 12 14  1  0  0  0  0
 12 23  1  0  0  0  0
 15 16  1  0  0  0  0
 15 17  1  0  0  0  0
 15 18  1  0  0  0  0
 15 20  1  0  0  0  0
 18 19  1  0  0  0  0
 20 21  1  0  0  0  0
 21 22  1  0  0  0  0
 23 26  1  0  0  0  0
 24 26  1  0  0  0  0
 25 26  2  0  0  0  0
 26 27  1  0  0  0  0
M  BCL ATM C_TeTeTeTe H_S C_TeTeTeTe H_S C_TeTeTeTe H_S O_Te2Te2TeTe H_S O_Te2Te2TeTe H_S O_Te2Te2TeTe C_TeTeTeTe H_S H_S C_TeTeTeTe H_S H_S O_Te2Te2TeTe H_S C_TeTeTeTe O_Te2Te2TeTe H_S O_Tr2TrTrPi2 O_Te2Te2TeTe O_Tr2Tr2TrPi P_TeTeTeTePi O_Te2Te2Te2Te
M  BCL BND NonConjugatedSingleBond NonConjugatedSingleBondInRing NonConjugatedSingleBond NonConjugatedSingleBondInRing NonConjugatedSingleBond NonConjugatedSingleBondInRing NonConjugatedSingleBond NonConjugatedSingleBond NonConjugatedSingleBondInRing NonConjugatedSingleBond NonConjugatedSingleBond NonConjugatedSingleBond NonConjugatedSingleBondInRing NonConjugatedSingleBond NonConjugatedSingleBond NonConjugatedSingleBond NonConjugatedSingleBond NonConjugatedSingleBond NonConjugatedSingleBond NonConjugatedSingleBond NonConjugatedSingleBond NonConjugatedSingleBond NonConjugatedSingleBond ConjugatedSingleBond ConjugatedSingleBond ConjugatedDoubleBond ConjugatedSingleBond
M  BCL CHI   1   S   3   R   5   R  20   R  26   R
M  BCL DBI -
M  END
> <ConfClashScore>
0 

> <ConfOneFourInteractionScore>
-0.980422 

> <ConfScore>
-0.166536 

> <ConfScorePBest>
0.00871249 

> <ConfTolerance>
0.61145 

$$$$
L08.****
  PyMOL2.5          3D                             0

 27 27  0  0  0  0  0  0  0  0999 V2000
   11.7488   -4.9673   -0.2101 C   0  0  0  1  0  0  0  0  0  0  0  0
   12.2085   -5.3853   -1.0812 H   0  0  0  1  0  0  0  0  0  0  0  0
   10.6152   -4.1987   -0.5855 C   0  0  0  1  0  0  0  0  0  0  0  0
   10.4958   -4.2230   -1.6486 H   0  0  0  1  0  0  0  0  0  0  0  0
   10.8302   -2.8612   -0.1547 C   0  0  0  1  0  0  0  0  0  0  0  0
   10.8192   -2.2022   -0.9976 H   0  0  0  1  0  0  0  0  0  0  0  0
   11.3509   -6.0192    0.6704 O   0  0  0  1  0  0  0  0  0  0  0  0
   12.1230   -6.5240    0.9361 H   0  0  0  1  0  0  0  0  0  0  0  0
    9.4430   -4.7266    0.0384 O   0  0  0  1  0  0  0  0  0  0  0  0
    9.0065   -5.3349   -0.5625 H   0  0  0  1  0  0  0  0  0  0  0  0
   12.0964   -2.8041    0.4845 O   0  0  0  1  0  0  0  0  0  0  0  0
    9.7594   -2.4600    0.8057 C   0  0  0  1  0  0  0  0  0  0  0  0
    9.8222   -3.0568    1.6916 H   0  0  0  1  0  0  0  0  0  0  0  0
    8.7979   -2.5904    0.3546 H   0  0  0  1  0  0  0  0  0  0  0  0
   12.9012   -4.5948    1.8507 C   0  0  0  1  0  0  0  0  0  0  0  0
   11.9803   -4.5762    2.3951 H   0  0  0  1  0  0  0  0  0  0  0  0
   13.2773   -5.5960    1.8190 H   0  0  0  1  0  0  0  0  0  0  0  0
   13.8487   -3.7544    2.4961 O   0  0  0  1  0  0  0  0  0  0  0  0
   14.0253   -4.0891    3.3784 H   0  0  0  1  0  0  0  0  0  0  0  0
   12.6633   -4.1065    0.4507 C   0  0  0  1  0  0  0  0  0  0  0  0
   13.8855   -4.0777   -0.2518 O   0  0  0  1  0  0  0  0  0  0  0  0
   14.3995   -3.3176    0.0304 H   0  0  0  1  0  0  0  0  0  0  0  0
    9.9628   -1.0761    1.1327 O   0  0  0  1  0  0  0  0  0  0  0  0
    7.5657   -0.1794    1.6821 O   0  0  0  0  0  0  0  0  0  0  0  0
    9.5357    1.1868    2.2805 O   0  0  0  1  0  0  0  0  0  0  0  0
    9.1054   -0.2288    2.2447 P   0  0  0  1  0  0  0  0  0  0  0  0
    9.0993   -1.0376    3.6484 O   0  5  0  1  0  0  0  0  0  0  0  0
  1  2  1  0  0  0  0
  1  3  1  0  0  0  0
  1  7  1  0  0  0  0
  1 20  1  0  0  0  0
  3  4  1  0  0  0  0
  3  5  1  0  0  0  0
  3  9  1  0  0  0  0
  5  6  1  0  0  0  0
  5 11  1  0  0  0  0
  5 12  1  0  0  0  0
  7  8  1  0  0  0  0
  9 10  1  0  0  0  0
 11 20  1  0  0  0  0
 12 13  1  0  0  0  0
 12 14  1  0  0  0  0
 12 23  1  0  0  0  0
 15 16  1  0  0  0  0
 15 17  1  0  0  0  0
 15 18  1  0  0  0  0
 15 20  1  0  0  0  0
 18 19  1  0  0  0  0
 20 21  1  0  0  0  0
 21 22  1  0  0  0  0
 23 26  1  0  0  0  0
 24 26  1  0  0  0  0
 25 26  2  0  0  0  0
 26 27  1  0  0  0  0
M  BCL ATM C_TeTeTeTe H_S C_TeTeTeTe H_S C_TeTeTeTe H_S O_Te2Te2TeTe H_S O_Te2Te2TeTe H_S O_Te2Te2TeTe C_TeTeTeTe H_S H_S C_TeTeTeTe H_S H_S O_Te2Te2TeTe H_S C_TeTeTeTe O_Te2Te2TeTe H_S O_Tr2TrTrPi2 O_Te2Te2TeTe O_Tr2Tr2TrPi P_TeTeTeTePi O_Te2Te2Te2Te
M  BCL BND NonConjugatedSingleBond NonConjugatedSingleBondInRing NonConjugatedSingleBond NonConjugatedSingleBondInRing NonConjugatedSingleBond NonConjugatedSingleBondInRing NonConjugatedSingleBond NonConjugatedSingleBond NonConjugatedSingleBondInRing NonConjugatedSingleBond NonConjugatedSingleBond NonConjugatedSingleBond NonConjugatedSingleBondInRing NonConjugatedSingleBond NonConjugatedSingleBond NonConjugatedSingleBond NonConjugatedSingleBond NonConjugatedSingleBond NonConjugatedSingleBond NonConjugatedSingleBond NonConjugatedSingleBond NonConjugatedSingleBond NonConjugatedSingleBond ConjugatedSingleBond ConjugatedSingleBond ConjugatedDoubleBond ConjugatedSingleBond
M  BCL CHI   1   S   3   R   5   R  20   R  26   R
M  BCL DBI -
M  END
> <ConfClashScore>
0 

> <ConfOneFourInteractionScore>
-0.983447 

> <ConfScore>
-0.165743 

> <ConfScorePBest>
0.00860949 

> <ConfTolerance>
0.543618 

$$$$
L08.****
  PyMOL2.5          3D                             0

 27 27  0  0  0  0  0  0  0  0999 V2000
   11.9606   -4.9561   -0.3713 C   0  0  0  1  0  0  0  0  0  0  0  0
   12.4511   -5.0075   -1.3209 H   0  0  0  1  0  0  0  0  0  0  0  0
   10.5793   -4.3645   -0.5086 C   0  0  0  1  0  0  0  0  0  0  0  0
   10.1249   -4.6521   -1.4336 H   0  0  0  1  0  0  0  0  0  0  0  0
   10.8598   -2.8807   -0.4753 C   0  0  0  1  0  0  0  0  0  0  0  0
   11.1084   -2.5238   -1.4529 H   0  0  0  1  0  0  0  0  0  0  0  0
   11.9024   -6.2610    0.2065 O   0  0  0  1  0  0  0  0  0  0  0  0
   10.9857   -6.5079    0.3487 H   0  0  0  1  0  0  0  0  0  0  0  0
    9.7387   -4.7563    0.5777 O   0  0  0  1  0  0  0  0  0  0  0  0
    9.2706   -5.5619    0.3463 H   0  0  0  1  0  0  0  0  0  0  0  0
   11.9789   -2.7292    0.4171 O   0  0  0  1  0  0  0  0  0  0  0  0
    9.6736   -2.1349    0.0409 C   0  0  0  1  0  0  0  0  0  0  0  0
    9.9496   -1.1278    0.2744 H   0  0  0  1  0  0  0  0  0  0  0  0
    9.2957   -2.6145    0.9196 H   0  0  0  1  0  0  0  0  0  0  0  0
   12.5939   -4.4706    1.9711 C   0  0  0  1  0  0  0  0  0  0  0  0
   13.1304   -3.7962    2.6054 H   0  0  0  1  0  0  0  0  0  0  0  0
   11.5702   -4.5131    2.2796 H   0  0  0  1  0  0  0  0  0  0  0  0
   13.1699   -5.7668    2.0650 O   0  0  0  1  0  0  0  0  0  0  0  0
   14.0177   -5.7091    2.5116 H   0  0  0  1  0  0  0  0  0  0  0  0
   12.6677   -3.9861    0.5517 C   0  0  0  1  0  0  0  0  0  0  0  0
   14.0183   -3.8463    0.1717 O   0  0  0  1  0  0  0  0  0  0  0  0
   14.4325   -3.1644    0.7056 H   0  0  0  1  0  0  0  0  0  0  0  0
    8.6649   -2.1414   -0.9965 O   0  0  0  1  0  0  0  0  0  0  0  0
    6.9332   -1.2386   -2.7289 O   0  0  0  0  0  0  0  0  0  0  0  0
    9.3062   -0.2236   -2.7115 O   0  0  0  1  0  0  0  0  0  0  0  0
    8.2505   -0.8057   -1.8531 P   0  0  0  1  0  0  0  0  0  0  0  0
    7.7907    0.3839   -0.8541 O   0  5  0  1  0  0  0  0  0  0  0  0
  1  2  1  0  0  0  0
  1  3  1  0  0  0  0
  1  7  1  0  0  0  0
  1 20  1  0  0  0  0
  3  4  1  0  0  0  0
  3  5  1  0  0  0  0
  3  9  1  0  0  0  0
  5  6  1  0  0  0  0
  5 11  1  0  0  0  0
  5 12  1  0  0  0  0
  7  8  1  0  0  0  0
  9 10  1  0  0  0  0
 11 20  1  0  0  0  0
 12 13  1  0  0  0  0
 12 14  1  0  0  0  0
 12 23  1  0  0  0  0
 15 16  1  0  0  0  0
 15 17  1  0  0  0  0
 15 18  1  0  0  0  0
 15 20  1  0  0  0  0
 18 19  1  0  0  0  0
 20 21  1  0  0  0  0
 21 22  1  0  0  0  0
 23 26  1  0  0  0  0
 24 26  1  0  0  0  0
 25 26  2  0  0  0  0
 26 27  1  0  0  0  0
M  BCL ATM C_TeTeTeTe H_S C_TeTeTeTe H_S C_TeTeTeTe H_S O_Te2Te2TeTe H_S O_Te2Te2TeTe H_S O_Te2Te2TeTe C_TeTeTeTe H_S H_S C_TeTeTeTe H_S H_S O_Te2Te2TeTe H_S C_TeTeTeTe O_Te2Te2TeTe H_S O_Tr2TrTrPi2 O_Te2Te2TeTe O_Tr2Tr2TrPi P_TeTeTeTePi O_Te2Te2Te2Te
M  BCL BND NonConjugatedSingleBond NonConjugatedSingleBondInRing NonConjugatedSingleBond NonConjugatedSingleBondInRing NonConjugatedSingleBond NonConjugatedSingleBondInRing NonConjugatedSingleBond NonConjugatedSingleBond NonConjugatedSingleBondInRing NonConjugatedSingleBond NonConjugatedSingleBond NonConjugatedSingleBond NonConjugatedSingleBondInRing NonConjugatedSingleBond NonConjugatedSingleBond NonConjugatedSingleBond NonConjugatedSingleBond NonConjugatedSingleBond NonConjugatedSingleBond NonConjugatedSingleBond NonConjugatedSingleBond NonConjugatedSingleBond NonConjugatedSingleBond ConjugatedSingleBond ConjugatedSingleBond ConjugatedDoubleBond ConjugatedSingleBond
M  BCL CHI   1   S   3   R   5   R  20   R  26   R
M  BCL DBI -
M  END
> <ConfClashScore>
0 

> <ConfOneFourInteractionScore>
-0.983026 

> <ConfScore>
-0.163512 

> <ConfScorePBest>
0.00850649 

> <ConfTolerance>
0.560441 

$$$$
L08.****
  PyMOL2.5          3D                             0

 27 27  0  0  0  0  0  0  0  0999 V2000
   11.8771   -5.0398    0.0273 C   0  0  0  1  0  0  0  0  0  0  0  0
   12.2215   -5.7299   -0.7142 H   0  0  0  1  0  0  0  0  0  0  0  0
   10.7591   -4.1623   -0.5100 C   0  0  0  1  0  0  0  0  0  0  0  0
   10.9098   -3.9369   -1.5451 H   0  0  0  1  0  0  0  0  0  0  0  0
   10.8731   -2.9139    0.3430 C   0  0  0  1  0  0  0  0  0  0  0  0
   10.6649   -2.0455   -0.2465 H   0  0  0  1  0  0  0  0  0  0  0  0
   11.4619   -5.7574    1.1904 O   0  0  0  1  0  0  0  0  0  0  0  0
   11.1177   -6.6154    0.9316 H   0  0  0  1  0  0  0  0  0  0  0  0
    9.4866   -4.7879   -0.3386 O   0  0  0  1  0  0  0  0  0  0  0  0
    9.2252   -5.2126   -1.1590 H   0  0  0  1  0  0  0  0  0  0  0  0
   12.2252   -2.8651    0.8355 O   0  0  0  1  0  0  0  0  0  0  0  0
    9.9245   -2.9822    1.4713 C   0  0  0  1  0  0  0  0  0  0  0  0
   10.2019   -3.7896    2.1163 H   0  0  0  1  0  0  0  0  0  0  0  0
    8.9380   -3.1504    1.0925 H   0  0  0  1  0  0  0  0  0  0  0  0
   13.8626   -4.5338    1.4323 C   0  0  0  1  0  0  0  0  0  0  0  0
   14.3949   -5.3836    1.0589 H   0  0  0  1  0  0  0  0  0  0  0  0
   14.5586   -3.7693    1.7082 H   0  0  0  1  0  0  0  0  0  0  0  0
   13.1040   -4.9148    2.5710 O   0  0  0  1  0  0  0  0  0  0  0  0
   13.1264   -4.2093    3.2217 H   0  0  0  1  0  0  0  0  0  0  0  0
   12.9433   -4.0105    0.3632 C   0  0  0  1  0  0  0  0  0  0  0  0
   13.6940   -3.6842   -0.7848 O   0  0  0  1  0  0  0  0  0  0  0  0
   13.0998   -3.5259   -1.5220 H   0  0  0  1  0  0  0  0  0  0  0  0
    9.9423   -1.7452    2.2218 O   0  0  0  1  0  0  0  0  0  0  0  0
   10.7028   -0.2525    4.3542 O   0  0  0  0  0  0  0  0  0  0  0  0
   11.7879   -2.4543    4.0277 O   0  0  0  1  0  0  0  0  0  0  0  0
   10.5031   -1.7691    3.7627 P   0  0  0  1  0  0  0  0  0  0  0  0
    9.2863   -2.3929    4.6314 O   0  5  0  1  0  0  0  0  0  0  0  0
  1  2  1  0  0  0  0
  1  3  1  0  0  0  0
  1  7  1  0  0  0  0
  1 20  1  0  0  0  0
  3  4  1  0  0  0  0
  3  5  1  0  0  0  0
  3  9  1  0  0  0  0
  5  6  1  0  0  0  0
  5 11  1  0  0  0  0
  5 12  1  0  0  0  0
  7  8  1  0  0  0  0
  9 10  1  0  0  0  0
 11 20  1  0  0  0  0
 12 13  1  0  0  0  0
 12 14  1  0  0  0  0
 12 23  1  0  0  0  0
 15 16  1  0  0  0  0
 15 17  1  0  0  0  0
 15 18  1  0  0  0  0
 15 20  1  0  0  0  0
 18 19  1  0  0  0  0
 20 21  1  0  0  0  0
 21 22  1  0  0  0  0
 23 26  1  0  0  0  0
 24 26  1  0  0  0  0
 25 26  2  0  0  0  0
 26 27  1  0  0  0  0
M  BCL ATM C_TeTeTeTe H_S C_TeTeTeTe H_S C_TeTeTeTe H_S O_Te2Te2TeTe H_S O_Te2Te2TeTe H_S O_Te2Te2TeTe C_TeTeTeTe H_S H_S C_TeTeTeTe H_S H_S O_Te2Te2TeTe H_S C_TeTeTeTe O_Te2Te2TeTe H_S O_Tr2TrTrPi2 O_Te2Te2TeTe O_Tr2Tr2TrPi P_TeTeTeTePi O_Te2Te2Te2Te
M  BCL BND NonConjugatedSingleBond NonConjugatedSingleBondInRing NonConjugatedSingleBond NonConjugatedSingleBondInRing NonConjugatedSingleBond NonConjugatedSingleBondInRing NonConjugatedSingleBond NonConjugatedSingleBond NonConjugatedSingleBondInRing NonConjugatedSingleBond NonConjugatedSingleBond NonConjugatedSingleBond NonConjugatedSingleBondInRing NonConjugatedSingleBond NonConjugatedSingleBond NonConjugatedSingleBond NonConjugatedSingleBond NonConjugatedSingleBond NonConjugatedSingleBond NonConjugatedSingleBond NonConjugatedSingleBond NonConjugatedSingleBond NonConjugatedSingleBond ConjugatedSingleBond ConjugatedSingleBond ConjugatedDoubleBond ConjugatedSingleBond
M  BCL CHI   1   S   3   R   5   R  20   R  26   R
M  BCL DBI -
M  END
> <ConfClashScore>
0 

> <ConfOneFourInteractionScore>
-0.980422 

> <ConfScore>
-0.16338 

> <ConfScorePBest>
0.00840348 

> <ConfTolerance>
0.599904 

$$$$
L08.****
  PyMOL2.5          3D                             0

 27 27  0  0  0  0  0  0  0  0999 V2000
   11.9762   -5.0567   -0.1086 C   0  0  0  1  0  0  0  0  0  0  0  0
   12.5387   -5.5148   -0.8952 H   0  0  0  1  0  0  0  0  0  0  0  0
   10.7951   -4.3011   -0.6666 C   0  0  0  1  0  0  0  0  0  0  0  0
   10.8745   -4.2111   -1.7299 H   0  0  0  1  0  0  0  0  0  0  0  0
   10.8575   -2.9485   -0.0162 C   0  0  0  1  0  0  0  0  0  0  0  0
   11.1361   -2.2074   -0.7360 H   0  0  0  1  0  0  0  0  0  0  0  0
   11.5456   -6.0577    0.8149 O   0  0  0  1  0  0  0  0  0  0  0  0
   10.9331   -6.6542    0.3783 H   0  0  0  1  0  0  0  0  0  0  0  0
    9.5722   -4.9630   -0.3336 O   0  0  0  1  0  0  0  0  0  0  0  0
    9.4033   -4.8701    0.6069 H   0  0  0  1  0  0  0  0  0  0  0  0
   11.8390   -3.0250    1.0109 O   0  0  0  1  0  0  0  0  0  0  0  0
    9.5288   -2.5997    0.5696 C   0  0  0  1  0  0  0  0  0  0  0  0
    9.5176   -1.5700    0.8601 H   0  0  0  1  0  0  0  0  0  0  0  0
    9.3347   -3.2140    1.4239 H   0  0  0  1  0  0  0  0  0  0  0  0
   13.5059   -4.6013    1.7653 C   0  0  0  1  0  0  0  0  0  0  0  0
   14.2391   -3.9065    2.1180 H   0  0  0  1  0  0  0  0  0  0  0  0
   12.8011   -4.8033    2.5446 H   0  0  0  1  0  0  0  0  0  0  0  0
   14.1482   -5.8135    1.3820 O   0  0  0  1  0  0  0  0  0  0  0  0
   13.5788   -6.5577    1.5907 H   0  0  0  1  0  0  0  0  0  0  0  0
   12.7888   -4.0135    0.5838 C   0  0  0  1  0  0  0  0  0  0  0  0
   13.7278   -3.4477   -0.3029 O   0  0  0  1  0  0  0  0  0  0  0  0
   13.3239   -3.3314   -1.1660 H   0  0  0  1  0  0  0  0  0  0  0  0
    8.5231   -2.8368   -0.4479 O   0  0  0  1  0  0  0  0  0  0  0  0
    6.0321   -3.0012   -1.4135 O   0  0  0  0  0  0  0  0  0  0  0  0
    6.6275   -0.9540   -0.2107 O   0  0  0  1  0  0  0  0  0  0  0  0
    6.9621   -2.3957   -0.2061 P   0  0  0  1  0  0  0  0  0  0  0  0
    6.3549   -3.0620    1.1399 O   0  5  0  1  0  0  0  0  0  0  0  0
  1  2  1  0  0  0  0
  1  3  1  0  0  0  0
  1  7  1  0  0  0  0
  1 20  1  0  0  0  0
  3  4  1  0  0  0  0
  3  5  1  0  0  0  0
  3  9  1  0  0  0  0
  5  6  1  0  0  0  0
  5 11  1  0  0  0  0
  5 12  1  0  0  0  0
  7  8  1  0  0  0  0
  9 10  1  0  0  0  0
 11 20  1  0  0  0  0
 12 13  1  0  0  0  0
 12 14  1  0  0  0  0
 12 23  1  0  0  0  0
 15 16  1  0  0  0  0
 15 17  1  0  0  0  0
 15 18  1  0  0  0  0
 15 20  1  0  0  0  0
 18 19  1  0  0  0  0
 20 21  1  0  0  0  0
 21 22  1  0  0  0  0
 23 26  1  0  0  0  0
 24 26  1  0  0  0  0
 25 26  2  0  0  0  0
 26 27  1  0  0  0  0
M  BCL ATM C_TeTeTeTe H_S C_TeTeTeTe H_S C_TeTeTeTe H_S O_Te2Te2TeTe H_S O_Te2Te2TeTe H_S O_Te2Te2TeTe C_TeTeTeTe H_S H_S C_TeTeTeTe H_S H_S O_Te2Te2TeTe H_S C_TeTeTeTe O_Te2Te2TeTe H_S O_Tr2TrTrPi2 O_Te2Te2TeTe O_Tr2Tr2TrPi P_TeTeTeTePi O_Te2Te2Te2Te
M  BCL BND NonConjugatedSingleBond NonConjugatedSingleBondInRing NonConjugatedSingleBond NonConjugatedSingleBondInRing NonConjugatedSingleBond NonConjugatedSingleBondInRing NonConjugatedSingleBond NonConjugatedSingleBond NonConjugatedSingleBondInRing NonConjugatedSingleBond NonConjugatedSingleBond NonConjugatedSingleBond NonConjugatedSingleBondInRing NonConjugatedSingleBond NonConjugatedSingleBond NonConjugatedSingleBond NonConjugatedSingleBond NonConjugatedSingleBond NonConjugatedSingleBond NonConjugatedSingleBond NonConjugatedSingleBond NonConjugatedSingleBond NonConjugatedSingleBond ConjugatedSingleBond ConjugatedSingleBond ConjugatedDoubleBond ConjugatedSingleBond
M  BCL CHI   1   S   3   R   5   R  20   R  26   R
M  BCL DBI -
M  END
> <ConfClashScore>
0 

> <ConfOneFourInteractionScore>
-0.972978 

> <ConfScore>
-0.159324 

> <ConfScorePBest>
0.00830048 

> <ConfTolerance>
0.568691 

$$$$
L08.****
  PyMOL2.5          3D                             0

 27 27  0  0  0  0  0  0  0  0999 V2000
   11.8313   -5.0654   -0.0385 C   0  0  0  1  0  0  0  0  0  0  0  0
   12.1915   -5.7552   -0.7730 H   0  0  0  1  0  0  0  0  0  0  0  0
   10.6958   -4.2170   -0.5857 C   0  0  0  1  0  0  0  0  0  0  0  0
   10.8433   -3.9983   -1.6226 H   0  0  0  1  0  0  0  0  0  0  0  0
   10.7820   -2.9584    0.2556 C   0  0  0  1  0  0  0  0  0  0  0  0
   10.5564   -2.1003   -0.3424 H   0  0  0  1  0  0  0  0  0  0  0  0
   11.4296   -5.7807    1.1308 O   0  0  0  1  0  0  0  0  0  0  0  0
   10.6757   -6.3374    0.9227 H   0  0  0  1  0  0  0  0  0  0  0  0
    9.4366   -4.8679   -0.4101 O   0  0  0  1  0  0  0  0  0  0  0  0
    9.3335   -5.5514   -1.0763 H   0  0  0  1  0  0  0  0  0  0  0  0
   12.1320   -2.8763    0.7495 O   0  0  0  1  0  0  0  0  0  0  0  0
    9.8219   -3.0372    1.3967 C   0  0  0  1  0  0  0  0  0  0  0  0
    9.6592   -4.0598    1.6661 H   0  0  0  1  0  0  0  0  0  0  0  0
    8.8907   -2.5879    1.1211 H   0  0  0  1  0  0  0  0  0  0  0  0
   13.8035   -4.5041    1.3643 C   0  0  0  1  0  0  0  0  0  0  0  0
   14.5872   -3.7878    1.4965 H   0  0  0  1  0  0  0  0  0  0  0  0
   13.2518   -4.6023    2.2759 H   0  0  0  1  0  0  0  0  0  0  0  0
   14.3800   -5.7528    1.0472 O   0  0  0  1  0  0  0  0  0  0  0  0
   15.0272   -5.9862    1.7168 H   0  0  0  1  0  0  0  0  0  0  0  0
   12.8749   -4.0107    0.2891 C   0  0  0  1  0  0  0  0  0  0  0  0
   13.6204   -3.6793   -0.8609 O   0  0  0  1  0  0  0  0  0  0  0  0
   14.3179   -3.0636   -0.6243 H   0  0  0  1  0  0  0  0  0  0  0  0
   10.4041   -2.3207    2.5109 O   0  0  0  1  0  0  0  0  0  0  0  0
   10.6537   -1.3922    5.0150 O   0  0  0  0  0  0  0  0  0  0  0  0
    9.3384   -3.4411    4.6299 O   0  0  0  1  0  0  0  0  0  0  0  0
    9.6575   -2.1594    3.9621 P   0  0  0  1  0  0  0  0  0  0  0  0
    8.3442   -1.2221    3.8169 O   0  5  0  1  0  0  0  0  0  0  0  0
  1  2  1  0  0  0  0
  1  3  1  0  0  0  0
  1  7  1  0  0  0  0
  1 20  1  0  0  0  0
  3  4  1  0  0  0  0
  3  5  1  0  0  0  0
  3  9  1  0  0  0  0
  5  6  1  0  0  0  0
  5 11  1  0  0  0  0
  5 12  1  0  0  0  0
  7  8  1  0  0  0  0
  9 10  1  0  0  0  0
 11 20  1  0  0  0  0
 12 13  1  0  0  0  0
 12 14  1  0  0  0  0
 12 23  1  0  0  0  0
 15 16  1  0  0  0  0
 15 17  1  0  0  0  0
 15 18  1  0  0  0  0
 15 20  1  0  0  0  0
 18 19  1  0  0  0  0
 20 21  1  0  0  0  0
 21 22  1  0  0  0  0
 23 26  1  0  0  0  0
 24 26  1  0  0  0  0
 25 26  2  0  0  0  0
 26 27  1  0  0  0  0
M  BCL ATM C_TeTeTeTe H_S C_TeTeTeTe H_S C_TeTeTeTe H_S O_Te2Te2TeTe H_S O_Te2Te2TeTe H_S O_Te2Te2TeTe C_TeTeTeTe H_S H_S C_TeTeTeTe H_S H_S O_Te2Te2TeTe H_S C_TeTeTeTe O_Te2Te2TeTe H_S O_Tr2TrTrPi2 O_Te2Te2TeTe O_Tr2Tr2TrPi P_TeTeTeTePi O_Te2Te2Te2Te
M  BCL BND NonConjugatedSingleBond NonConjugatedSingleBondInRing NonConjugatedSingleBond NonConjugatedSingleBondInRing NonConjugatedSingleBond NonConjugatedSingleBondInRing NonConjugatedSingleBond NonConjugatedSingleBond NonConjugatedSingleBondInRing NonConjugatedSingleBond NonConjugatedSingleBond NonConjugatedSingleBond NonConjugatedSingleBondInRing NonConjugatedSingleBond NonConjugatedSingleBond NonConjugatedSingleBond NonConjugatedSingleBond NonConjugatedSingleBond NonConjugatedSingleBond NonConjugatedSingleBond NonConjugatedSingleBond NonConjugatedSingleBond NonConjugatedSingleBond ConjugatedSingleBond ConjugatedSingleBond ConjugatedDoubleBond ConjugatedSingleBond
M  BCL CHI   1   S   3   R   5   R  20   R  26   R
M  BCL DBI -
M  END
> <ConfClashScore>
0 

> <ConfOneFourInteractionScore>
-0.983162 

> <ConfScore>
-0.154533 

> <ConfScorePBest>
0.00819748 

> <ConfTolerance>
0.578821 

$$$$
L08.****
  PyMOL2.5          3D                             0

 27 27  0  0  0  0  0  0  0  0999 V2000
   11.7348   -5.0160   -0.0589 C   0  0  0  1  0  0  0  0  0  0  0  0
   12.1279   -5.6912   -0.7900 H   0  0  0  1  0  0  0  0  0  0  0  0
   10.6313   -4.1497   -0.6424 C   0  0  0  1  0  0  0  0  0  0  0  0
   10.8308   -3.9088   -1.6656 H   0  0  0  1  0  0  0  0  0  0  0  0
   10.6810   -2.9105    0.2300 C   0  0  0  1  0  0  0  0  0  0  0  0
   10.4888   -2.0381   -0.3591 H   0  0  0  1  0  0  0  0  0  0  0  0
   11.2727   -5.7548    1.0728 O   0  0  0  1  0  0  0  0  0  0  0  0
   12.0253   -6.0927    1.5639 H   0  0  0  1  0  0  0  0  0  0  0  0
    9.3622   -4.7976   -0.5438 O   0  0  0  1  0  0  0  0  0  0  0  0
    9.1937   -5.2962   -1.3467 H   0  0  0  1  0  0  0  0  0  0  0  0
   12.0052   -2.8464    0.7917 O   0  0  0  1  0  0  0  0  0  0  0  0
    9.6923   -3.0067    1.2913 C   0  0  0  1  0  0  0  0  0  0  0  0
   10.1511   -2.7149    2.2129 H   0  0  0  1  0  0  0  0  0  0  0  0
    9.3645   -4.0229    1.3615 H   0  0  0  1  0  0  0  0  0  0  0  0
   13.6361   -4.4955    1.4501 C   0  0  0  1  0  0  0  0  0  0  0  0
   13.0438   -4.6436    2.3288 H   0  0  0  1  0  0  0  0  0  0  0  0
   14.0715   -5.4262    1.1517 H   0  0  0  1  0  0  0  0  0  0  0  0
   14.6684   -3.5587    1.7285 O   0  0  0  1  0  0  0  0  0  0  0  0
   14.9170   -3.6214    2.6536 H   0  0  0  1  0  0  0  0  0  0  0  0
   12.7653   -3.9742    0.3433 C   0  0  0  1  0  0  0  0  0  0  0  0
   13.5681   -3.6215   -0.7608 O   0  0  0  1  0  0  0  0  0  0  0  0
   14.3308   -4.2031   -0.8013 H   0  0  0  1  0  0  0  0  0  0  0  0
    8.5469   -2.1700    1.0642 O   0  0  0  1  0  0  0  0  0  0  0  0
    6.2682   -0.8177    1.5443 O   0  0  0  0  0  0  0  0  0  0  0  0
    7.7010   -1.4205    3.4656 O   0  0  0  1  0  0  0  0  0  0  0  0
    7.3225   -1.9298    2.1285 P   0  0  0  1  0  0  0  0  0  0  0  0
    6.3914   -3.2527    2.2144 O   0  5  0  1  0  0  0  0  0  0  0  0
  1  2  1  0  0  0  0
  1  3  1  0  0  0  0
  1  7  1  0  0  0  0
  1 20  1  0  0  0  0
  3  4  1  0  0  0  0
  3  5  1  0  0  0  0
  3  9  1  0  0  0  0
  5  6  1  0  0  0  0
  5 11  1  0  0  0  0
  5 12  1  0  0  0  0
  7  8  1  0  0  0  0
  9 10  1  0  0  0  0
 11 20  1  0  0  0  0
 12 13  1  0  0  0  0
 12 14  1  0  0  0  0
 12 23  1  0  0  0  0
 15 16  1  0  0  0  0
 15 17  1  0  0  0  0
 15 18  1  0  0  0  0
 15 20  1  0  0  0  0
 18 19  1  0  0  0  0
 20 21  1  0  0  0  0
 21 22  1  0  0  0  0
 23 26  1  0  0  0  0
 24 26  1  0  0  0  0
 25 26  2  0  0  0  0
 26 27  1  0  0  0  0
M  BCL ATM C_TeTeTeTe H_S C_TeTeTeTe H_S C_TeTeTeTe H_S O_Te2Te2TeTe H_S O_Te2Te2TeTe H_S O_Te2Te2TeTe C_TeTeTeTe H_S H_S C_TeTeTeTe H_S H_S O_Te2Te2TeTe H_S C_TeTeTeTe O_Te2Te2TeTe H_S O_Tr2TrTrPi2 O_Te2Te2TeTe O_Tr2Tr2TrPi P_TeTeTeTePi O_Te2Te2Te2Te
M  BCL BND NonConjugatedSingleBond NonConjugatedSingleBondInRing NonConjugatedSingleBond NonConjugatedSingleBondInRing NonConjugatedSingleBond NonConjugatedSingleBondInRing NonConjugatedSingleBond NonConjugatedSingleBond NonConjugatedSingleBondInRing NonConjugatedSingleBond NonConjugatedSingleBond NonConjugatedSingleBond NonConjugatedSingleBondInRing NonConjugatedSingleBond NonConjugatedSingleBond NonConjugatedSingleBond NonConjugatedSingleBond NonConjugatedSingleBond NonConjugatedSingleBond NonConjugatedSingleBond NonConjugatedSingleBond NonConjugatedSingleBond NonConjugatedSingleBond ConjugatedSingleBond ConjugatedSingleBond ConjugatedDoubleBond ConjugatedSingleBond
M  BCL CHI   1   S   3   R   5   R  20   R  26   R
M  BCL DBI -
M  END
> <ConfClashScore>
0 

> <ConfOneFourInteractionScore>
-0.966943 

> <ConfScore>
-0.152191 

> <ConfScorePBest>
0.00809448 

> <ConfTolerance>
0.615055 

$$$$
L08.****
  PyMOL2.5          3D                             0

 27 27  0  0  0  0  0  0  0  0999 V2000
   11.9870   -4.9548   -0.1397 C   0  0  0  1  0  0  0  0  0  0  0  0
   12.6390   -5.2053   -0.9503 H   0  0  0  1  0  0  0  0  0  0  0  0
   10.7082   -4.3737   -0.6583 C   0  0  0  1  0  0  0  0  0  0  0  0
   10.6351   -4.5026   -1.7179 H   0  0  0  1  0  0  0  0  0  0  0  0
   10.7949   -2.9202   -0.3047 C   0  0  0  1  0  0  0  0  0  0  0  0
   11.2119   -2.3647   -1.1186 H   0  0  0  1  0  0  0  0  0  0  0  0
   11.7240   -6.1229    0.6391 O   0  0  0  1  0  0  0  0  0  0  0  0
   11.1155   -6.6941    0.1646 H   0  0  0  1  0  0  0  0  0  0  0  0
    9.5818   -4.9825   -0.0251 O   0  0  0  1  0  0  0  0  0  0  0  0
    9.6765   -4.9182    0.9280 H   0  0  0  1  0  0  0  0  0  0  0  0
   11.6400   -2.8395    0.8285 O   0  0  0  1  0  0  0  0  0  0  0  0
    9.4555   -2.3913    0.0176 C   0  0  0  1  0  0  0  0  0  0  0  0
    8.8040   -2.5504   -0.8162 H   0  0  0  1  0  0  0  0  0  0  0  0
    9.5295   -1.3429    0.2181 H   0  0  0  1  0  0  0  0  0  0  0  0
   12.9241   -4.4340    2.0573 C   0  0  0  1  0  0  0  0  0  0  0  0
   13.7311   -5.1282    1.9494 H   0  0  0  1  0  0  0  0  0  0  0  0
   13.2329   -3.6214    2.6811 H   0  0  0  1  0  0  0  0  0  0  0  0
   11.8549   -5.0978    2.6964 O   0  0  0  1  0  0  0  0  0  0  0  0
   12.1702   -5.9209    3.0767 H   0  0  0  1  0  0  0  0  0  0  0  0
   12.5979   -3.8879    0.7104 C   0  0  0  1  0  0  0  0  0  0  0  0
   13.7733   -3.4010    0.1026 O   0  0  0  1  0  0  0  0  0  0  0  0
   13.8819   -3.8105   -0.7589 H   0  0  0  1  0  0  0  0  0  0  0  0
    8.9139   -3.0618    1.1801 O   0  0  0  1  0  0  0  0  0  0  0  0
    6.3882   -3.4410    0.3611 O   0  0  0  0  0  0  0  0  0  0  0  0
    7.0671   -1.4122    1.8761 O   0  0  0  1  0  0  0  0  0  0  0  0
    7.3339   -2.8320    1.5547 P   0  0  0  1  0  0  0  0  0  0  0  0
    7.0286   -3.7139    2.8789 O   0  5  0  1  0  0  0  0  0  0  0  0
  1  2  1  0  0  0  0
  1  3  1  0  0  0  0
  1  7  1  0  0  0  0
  1 20  1  0  0  0  0
  3  4  1  0  0  0  0
  3  5  1  0  0  0  0
  3  9  1  0  0  0  0
  5  6  1  0  0  0  0
  5 11  1  0  0  0  0
  5 12  1  0  0  0  0
  7  8  1  0  0  0  0
  9 10  1  0  0  0  0
 11 20  1  0  0  0  0
 12 13  1  0  0  0  0
 12 14  1  0  0  0  0
 12 23  1  0  0  0  0
 15 16  1  0  0  0  0
 15 17  1  0  0  0  0
 15 18  1  0  0  0  0
 15 20  1  0  0  0  0
 18 19  1  0  0  0  0
 20 21  1  0  0  0  0
 21 22  1  0  0  0  0
 23 26  1  0  0  0  0
 24 26  1  0  0  0  0
 25 26  2  0  0  0  0
 26 27  1  0  0  0  0
M  BCL ATM C_TeTeTeTe H_S C_TeTeTeTe H_S C_TeTeTeTe H_S O_Te2Te2TeTe H_S O_Te2Te2TeTe H_S O_Te2Te2TeTe C_TeTeTeTe H_S H_S C_TeTeTeTe H_S H_S O_Te2Te2TeTe H_S C_TeTeTeTe O_Te2Te2TeTe H_S O_Tr2TrTrPi2 O_Te2Te2TeTe O_Tr2Tr2TrPi P_TeTeTeTePi O_Te2Te2Te2Te
M  BCL BND NonConjugatedSingleBond NonConjugatedSingleBondInRing NonConjugatedSingleBond NonConjugatedSingleBondInRing NonConjugatedSingleBond NonConjugatedSingleBondInRing NonConjugatedSingleBond NonConjugatedSingleBond NonConjugatedSingleBondInRing NonConjugatedSingleBond NonConjugatedSingleBond NonConjugatedSingleBond NonConjugatedSingleBondInRing NonConjugatedSingleBond NonConjugatedSingleBond NonConjugatedSingleBond NonConjugatedSingleBond NonConjugatedSingleBond NonConjugatedSingleBond NonConjugatedSingleBond NonConjugatedSingleBond NonConjugatedSingleBond NonConjugatedSingleBond ConjugatedSingleBond ConjugatedSingleBond ConjugatedDoubleBond ConjugatedSingleBond
M  BCL CHI   1   S   3   R   5   R  20   R  26   R
M  BCL DBI -
M  END
> <ConfClashScore>
0 

> <ConfOneFourInteractionScore>
-0.989543 

> <ConfScore>
-0.150394 

> <ConfScorePBest>
0.00799148 

> <ConfTolerance>
0.607317 

$$$$
L08.****
  PyMOL2.5          3D                             0

 27 27  0  0  0  0  0  0  0  0999 V2000
   11.8405   -4.9689   -0.2556 C   0  0  0  1  0  0  0  0  0  0  0  0
   12.3620   -5.1501   -1.1722 H   0  0  0  1  0  0  0  0  0  0  0  0
   10.5063   -4.3132   -0.5142 C   0  0  0  1  0  0  0  0  0  0  0  0
   10.0694   -4.6695   -1.4237 H   0  0  0  1  0  0  0  0  0  0  0  0
   10.8804   -2.8539   -0.6223 C   0  0  0  1  0  0  0  0  0  0  0  0
   11.1880   -2.6182   -1.6197 H   0  0  0  1  0  0  0  0  0  0  0  0
   11.6767   -6.1993    0.4510 O   0  0  0  1  0  0  0  0  0  0  0  0
   11.5884   -6.9201   -0.1768 H   0  0  0  1  0  0  0  0  0  0  0  0
    9.6020   -4.5364    0.5686 O   0  0  0  1  0  0  0  0  0  0  0  0
    9.5957   -5.4696    0.7938 H   0  0  0  1  0  0  0  0  0  0  0  0
   11.9726   -2.6761    0.2981 O   0  0  0  1  0  0  0  0  0  0  0  0
    9.7397   -1.9978   -0.2435 C   0  0  0  1  0  0  0  0  0  0  0  0
   10.0801   -0.9907   -0.1218 H   0  0  0  1  0  0  0  0  0  0  0  0
    9.3267   -2.3491    0.6790 H   0  0  0  1  0  0  0  0  0  0  0  0
   12.4150   -4.2772    2.0519 C   0  0  0  1  0  0  0  0  0  0  0  0
   11.3712   -4.3431    2.2776 H   0  0  0  1  0  0  0  0  0  0  0  0
   12.8826   -5.2199    2.2455 H   0  0  0  1  0  0  0  0  0  0  0  0
   13.0028   -3.2949    2.8947 O   0  0  0  1  0  0  0  0  0  0  0  0
   12.5811   -2.4464    2.7404 H   0  0  0  1  0  0  0  0  0  0  0  0
   12.5734   -3.9507    0.5923 C   0  0  0  1  0  0  0  0  0  0  0  0
   13.9436   -3.9335    0.2599 O   0  0  0  1  0  0  0  0  0  0  0  0
   14.3929   -3.2689    0.7872 H   0  0  0  1  0  0  0  0  0  0  0  0
    8.7256   -2.0347   -1.2603 O   0  0  0  1  0  0  0  0  0  0  0  0
    6.7091   -1.2754    0.1514 O   0  0  0  0  0  0  0  0  0  0  0  0
    7.0548   -3.7244   -0.4449 O   0  0  0  1  0  0  0  0  0  0  0  0
    7.1380   -2.3568   -1.0045 P   0  0  0  1  0  0  0  0  0  0  0  0
    6.2418   -2.1289   -2.3346 O   0  5  0  1  0  0  0  0  0  0  0  0
  1  2  1  0  0  0  0
  1  3  1  0  0  0  0
  1  7  1  0  0  0  0
  1 20  1  0  0  0  0
  3  4  1  0  0  0  0
  3  5  1  0  0  0  0
  3  9  1  0  0  0  0
  5  6  1  0  0  0  0
  5 11  1  0  0  0  0
  5 12  1  0  0  0  0
  7  8  1  0  0  0  0
  9 10  1  0  0  0  0
 11 20  1  0  0  0  0
 12 13  1  0  0  0  0
 12 14  1  0  0  0  0
 12 23  1  0  0  0  0
 15 16  1  0  0  0  0
 15 17  1  0  0  0  0
 15 18  1  0  0  0  0
 15 20  1  0  0  0  0
 18 19  1  0  0  0  0
 20 21  1  0  0  0  0
 21 22  1  0  0  0  0
 23 26  1  0  0  0  0
 24 26  1  0  0  0  0
 25 26  2  0  0  0  0
 26 27  1  0  0  0  0
M  BCL ATM C_TeTeTeTe H_S C_TeTeTeTe H_S C_TeTeTeTe H_S O_Te2Te2TeTe H_S O_Te2Te2TeTe H_S O_Te2Te2TeTe C_TeTeTeTe H_S H_S C_TeTeTeTe H_S H_S O_Te2Te2TeTe H_S C_TeTeTeTe O_Te2Te2TeTe H_S O_Tr2TrTrPi2 O_Te2Te2TeTe O_Tr2Tr2TrPi P_TeTeTeTePi O_Te2Te2Te2Te
M  BCL BND NonConjugatedSingleBond NonConjugatedSingleBondInRing NonConjugatedSingleBond NonConjugatedSingleBondInRing NonConjugatedSingleBond NonConjugatedSingleBondInRing NonConjugatedSingleBond NonConjugatedSingleBond NonConjugatedSingleBondInRing NonConjugatedSingleBond NonConjugatedSingleBond NonConjugatedSingleBond NonConjugatedSingleBondInRing NonConjugatedSingleBond NonConjugatedSingleBond NonConjugatedSingleBond NonConjugatedSingleBond NonConjugatedSingleBond NonConjugatedSingleBond NonConjugatedSingleBond NonConjugatedSingleBond NonConjugatedSingleBond NonConjugatedSingleBond ConjugatedSingleBond ConjugatedSingleBond ConjugatedDoubleBond ConjugatedSingleBond
M  BCL CHI   1   S   3   R   5   R  20   R  26   R
M  BCL DBI -
M  END
> <ConfClashScore>
0 

> <ConfOneFourInteractionScore>
-0.986052 

> <ConfScore>
-0.147543 

> <ConfScorePBest>
0.00788848 

> <ConfTolerance>
0.605776 

$$$$
L08.****
  PyMOL2.5          3D                             0

 27 27  0  0  0  0  0  0  0  0999 V2000
   11.9395   -4.9282   -0.1818 C   0  0  0  1  0  0  0  0  0  0  0  0
   12.5947   -5.0135   -1.0235 H   0  0  0  1  0  0  0  0  0  0  0  0
   10.6024   -4.3632   -0.5938 C   0  0  0  1  0  0  0  0  0  0  0  0
   10.3255   -4.6970   -1.5720 H   0  0  0  1  0  0  0  0  0  0  0  0
   10.8628   -2.8755   -0.5772 C   0  0  0  1  0  0  0  0  0  0  0  0
   11.2826   -2.5575   -1.5086 H   0  0  0  1  0  0  0  0  0  0  0  0
   11.7856   -6.2077    0.4341 O   0  0  0  1  0  0  0  0  0  0  0  0
   11.4530   -6.8360   -0.2110 H   0  0  0  1  0  0  0  0  0  0  0  0
    9.5910   -4.7162    0.3293 O   0  0  0  1  0  0  0  0  0  0  0  0
    9.9813   -5.1935    1.0652 H   0  0  0  1  0  0  0  0  0  0  0  0
   11.8000   -2.6694    0.4956 O   0  0  0  1  0  0  0  0  0  0  0  0
    9.5977   -2.1252   -0.3187 C   0  0  0  1  0  0  0  0  0  0  0  0
    9.7761   -1.3430    0.3893 H   0  0  0  1  0  0  0  0  0  0  0  0
    8.8515   -2.7899    0.0638 H   0  0  0  1  0  0  0  0  0  0  0  0
   12.1361   -4.3295    2.2010 C   0  0  0  1  0  0  0  0  0  0  0  0
   12.4659   -3.5602    2.8675 H   0  0  0  1  0  0  0  0  0  0  0  0
   11.0743   -4.4376    2.2777 H   0  0  0  1  0  0  0  0  0  0  0  0
   12.7324   -5.5445    2.6016 O   0  0  0  1  0  0  0  0  0  0  0  0
   12.8738   -5.5343    3.5510 H   0  0  0  1  0  0  0  0  0  0  0  0
   12.4609   -3.9092    0.8093 C   0  0  0  1  0  0  0  0  0  0  0  0
   13.8572   -3.7664    0.6745 O   0  0  0  1  0  0  0  0  0  0  0  0
   14.0762   -3.6150   -0.2478 H   0  0  0  1  0  0  0  0  0  0  0  0
    9.1569   -1.5607   -1.5760 O   0  0  0  1  0  0  0  0  0  0  0  0
    7.5396   -0.6225   -3.3948 O   0  0  0  0  0  0  0  0  0  0  0  0
    7.3712    0.3217   -0.9476 O   0  0  0  1  0  0  0  0  0  0  0  0
    7.6876   -0.8611   -1.7790 P   0  0  0  1  0  0  0  0  0  0  0  0
    6.6593   -2.0717   -1.4605 O   0  5  0  1  0  0  0  0  0  0  0  0
  1  2  1  0  0  0  0
  1  3  1  0  0  0  0
  1  7  1  0  0  0  0
  1 20  1  0  0  0  0
  3  4  1  0  0  0  0
  3  5  1  0  0  0  0
  3  9  1  0  0  0  0
  5  6  1  0  0  0  0
  5 11  1  0  0  0  0
  5 12  1  0  0  0  0
  7  8  1  0  0  0  0
  9 10  1  0  0  0  0
 11 20  1  0  0  0  0
 12 13  1  0  0  0  0
 12 14  1  0  0  0  0
 12 23  1  0  0  0  0
 15 16  1  0  0  0  0
 15 17  1  0  0  0  0
 15 18  1  0  0  0  0
 15 20  1  0  0  0  0
 18 19  1  0  0  0  0
 20 21  1  0  0  0  0
 21 22  1  0  0  0  0
 23 26  1  0  0  0  0
 24 26  1  0  0  0  0
 25 26  2  0  0  0  0
 26 27  1  0  0  0  0
M  BCL ATM C_TeTeTeTe H_S C_TeTeTeTe H_S C_TeTeTeTe H_S O_Te2Te2TeTe H_S O_Te2Te2TeTe H_S O_Te2Te2TeTe C_TeTeTeTe H_S H_S C_TeTeTeTe H_S H_S O_Te2Te2TeTe H_S C_TeTeTeTe O_Te2Te2TeTe H_S O_Tr2TrTrPi2 O_Te2Te2TeTe O_Tr2Tr2TrPi P_TeTeTeTePi O_Te2Te2Te2Te
M  BCL BND NonConjugatedSingleBond NonConjugatedSingleBondInRing NonConjugatedSingleBond NonConjugatedSingleBondInRing NonConjugatedSingleBond NonConjugatedSingleBondInRing NonConjugatedSingleBond NonConjugatedSingleBond NonConjugatedSingleBondInRing NonConjugatedSingleBond NonConjugatedSingleBond NonConjugatedSingleBond NonConjugatedSingleBondInRing NonConjugatedSingleBond NonConjugatedSingleBond NonConjugatedSingleBond NonConjugatedSingleBond NonConjugatedSingleBond NonConjugatedSingleBond NonConjugatedSingleBond NonConjugatedSingleBond NonConjugatedSingleBond NonConjugatedSingleBond ConjugatedSingleBond ConjugatedSingleBond ConjugatedDoubleBond ConjugatedSingleBond
M  BCL CHI   1   S   3   R   5   R  20   R  26   R
M  BCL DBI -
M  END
> <ConfClashScore>
0 

> <ConfOneFourInteractionScore>
-0.963917 

> <ConfScore>
-0.146327 

> <ConfScorePBest>
0.00778548 

> <ConfTolerance>
0.718189 

$$$$
L08.****
  PyMOL2.5          3D                             0

 27 27  0  0  0  0  0  0  0  0999 V2000
   11.8464   -5.0616   -0.0019 C   0  0  0  1  0  0  0  0  0  0  0  0
   12.2216   -5.7498   -0.7302 H   0  0  0  1  0  0  0  0  0  0  0  0
   10.7258   -4.2123   -0.5778 C   0  0  0  1  0  0  0  0  0  0  0  0
   10.8990   -3.9859   -1.6092 H   0  0  0  1  0  0  0  0  0  0  0  0
   10.8099   -2.9640    0.2846 C   0  0  0  1  0  0  0  0  0  0  0  0
   10.4086   -2.1203   -0.2370 H   0  0  0  1  0  0  0  0  0  0  0  0
   11.4061   -5.7809    1.1519 O   0  0  0  1  0  0  0  0  0  0  0  0
   11.1253   -6.6616    0.8926 H   0  0  0  1  0  0  0  0  0  0  0  0
    9.4592   -4.8574   -0.4374 O   0  0  0  1  0  0  0  0  0  0  0  0
    9.0932   -5.0374   -1.3064 H   0  0  0  1  0  0  0  0  0  0  0  0
   12.2062   -2.7774    0.5415 O   0  0  0  1  0  0  0  0  0  0  0  0
   10.0642   -3.1604    1.5634 C   0  0  0  1  0  0  0  0  0  0  0  0
   10.0304   -4.2012    1.8095 H   0  0  0  1  0  0  0  0  0  0  0  0
    9.0673   -2.7840    1.4655 H   0  0  0  1  0  0  0  0  0  0  0  0
   13.5831   -4.4241    1.6405 C   0  0  0  1  0  0  0  0  0  0  0  0
   14.1343   -5.3249    1.4686 H   0  0  0  1  0  0  0  0  0  0  0  0
   14.2562   -3.6420    1.9235 H   0  0  0  1  0  0  0  0  0  0  0  0
   12.6660   -4.6461    2.7074 O   0  0  0  1  0  0  0  0  0  0  0  0
   12.9849   -4.2089    3.5003 H   0  0  0  1  0  0  0  0  0  0  0  0
   12.8948   -4.0295    0.3652 C   0  0  0  1  0  0  0  0  0  0  0  0
   13.8472   -3.9174   -0.6685 O   0  0  0  1  0  0  0  0  0  0  0  0
   13.7562   -3.0631   -1.0967 H   0  0  0  1  0  0  0  0  0  0  0  0
   10.7665   -2.4320    2.5978 O   0  0  0  1  0  0  0  0  0  0  0  0
   11.3591   -1.3412    4.8064 O   0  0  0  0  0  0  0  0  0  0  0  0
    9.9871   -3.6255    4.8205 O   0  0  0  1  0  0  0  0  0  0  0  0
   10.2317   -2.3316    4.1449 P   0  0  0  1  0  0  0  0  0  0  0  0
    8.9028   -1.4051    4.1314 O   0  5  0  1  0  0  0  0  0  0  0  0
  1  2  1  0  0  0  0
  1  3  1  0  0  0  0
  1  7  1  0  0  0  0
  1 20  1  0  0  0  0
  3  4  1  0  0  0  0
  3  5  1  0  0  0  0
  3  9  1  0  0  0  0
  5  6  1  0  0  0  0
  5 11  1  0  0  0  0
  5 12  1  0  0  0  0
  7  8  1  0  0  0  0
  9 10  1  0  0  0  0
 11 20  1  0  0  0  0
 12 13  1  0  0  0  0
 12 14  1  0  0  0  0
 12 23  1  0  0  0  0
 15 16  1  0  0  0  0
 15 17  1  0  0  0  0
 15 18  1  0  0  0  0
 15 20  1  0  0  0  0
 18 19  1  0  0  0  0
 20 21  1  0  0  0  0
 21 22  1  0  0  0  0
 23 26  1  0  0  0  0
 24 26  1  0  0  0  0
 25 26  2  0  0  0  0
 26 27  1  0  0  0  0
M  BCL ATM C_TeTeTeTe H_S C_TeTeTeTe H_S C_TeTeTeTe H_S O_Te2Te2TeTe H_S O_Te2Te2TeTe H_S O_Te2Te2TeTe C_TeTeTeTe H_S H_S C_TeTeTeTe H_S H_S O_Te2Te2TeTe H_S C_TeTeTeTe O_Te2Te2TeTe H_S O_Tr2TrTrPi2 O_Te2Te2TeTe O_Tr2Tr2TrPi P_TeTeTeTePi O_Te2Te2Te2Te
M  BCL BND NonConjugatedSingleBond NonConjugatedSingleBondInRing NonConjugatedSingleBond NonConjugatedSingleBondInRing NonConjugatedSingleBond NonConjugatedSingleBondInRing NonConjugatedSingleBond NonConjugatedSingleBond NonConjugatedSingleBondInRing NonConjugatedSingleBond NonConjugatedSingleBond NonConjugatedSingleBond NonConjugatedSingleBondInRing NonConjugatedSingleBond NonConjugatedSingleBond NonConjugatedSingleBond NonConjugatedSingleBond NonConjugatedSingleBond NonConjugatedSingleBond NonConjugatedSingleBond NonConjugatedSingleBond NonConjugatedSingleBond NonConjugatedSingleBond ConjugatedSingleBond ConjugatedSingleBond ConjugatedDoubleBond ConjugatedSingleBond
M  BCL CHI   1   S   3   R   5   R  20   R  26   R
M  BCL DBI -
M  END
> <ConfClashScore>
0 

> <ConfOneFourInteractionScore>
-0.983162 

> <ConfScore>
-0.144762 

> <ConfScorePBest>
0.00768248 

> <ConfTolerance>
0.588298 

$$$$
L08.****
  PyMOL2.5          3D                             0

 27 27  0  0  0  0  0  0  0  0999 V2000
   11.7819   -4.9790   -0.3565 C   0  0  0  1  0  0  0  0  0  0  0  0
   12.3579   -5.1192   -1.2473 H   0  0  0  1  0  0  0  0  0  0  0  0
   10.4521   -4.3378   -0.6688 C   0  0  0  1  0  0  0  0  0  0  0  0
   10.0744   -4.6697   -1.6134 H   0  0  0  1  0  0  0  0  0  0  0  0
   10.8037   -2.8694   -0.7059 C   0  0  0  1  0  0  0  0  0  0  0  0
   11.1628   -2.5939   -1.6755 H   0  0  0  1  0  0  0  0  0  0  0  0
   11.6019   -6.2359    0.2976 O   0  0  0  1  0  0  0  0  0  0  0  0
   12.4422   -6.6982    0.3403 H   0  0  0  1  0  0  0  0  0  0  0  0
    9.4923   -4.6141    0.3522 O   0  0  0  1  0  0  0  0  0  0  0  0
    9.9390   -4.9689    1.1244 H   0  0  0  1  0  0  0  0  0  0  0  0
   11.8383   -2.7050    0.2811 O   0  0  0  1  0  0  0  0  0  0  0  0
    9.6130   -2.0369   -0.3603 C   0  0  0  1  0  0  0  0  0  0  0  0
    9.3881   -2.1373    0.6810 H   0  0  0  1  0  0  0  0  0  0  0  0
    8.7694   -2.3493   -0.9396 H   0  0  0  1  0  0  0  0  0  0  0  0
   12.2113   -4.3583    2.0022 C   0  0  0  1  0  0  0  0  0  0  0  0
   11.1585   -4.3465    2.1929 H   0  0  0  1  0  0  0  0  0  0  0  0
   12.5923   -5.3451    2.1630 H   0  0  0  1  0  0  0  0  0  0  0  0
   12.8447   -3.4758    2.9034 O   0  0  0  1  0  0  0  0  0  0  0  0
   13.4640   -3.9655    3.4495 H   0  0  0  1  0  0  0  0  0  0  0  0
   12.4459   -3.9786    0.5660 C   0  0  0  1  0  0  0  0  0  0  0  0
   13.8321   -3.9261    0.3134 O   0  0  0  1  0  0  0  0  0  0  0  0
   14.2978   -3.7122    1.1251 H   0  0  0  1  0  0  0  0  0  0  0  0
    9.9344   -0.6696   -0.6618 O   0  0  0  1  0  0  0  0  0  0  0  0
    8.2605    0.5532    1.0005 O   0  0  0  0  0  0  0  0  0  0  0  0
   10.1243    1.7772   -0.4411 O   0  0  0  1  0  0  0  0  0  0  0  0
    9.7755    0.5920    0.3739 P   0  0  0  1  0  0  0  0  0  0  0  0
   10.8641    0.3438    1.5476 O   0  5  0  1  0  0  0  0  0  0  0  0
  1  2  1  0  0  0  0
  1  3  1  0  0  0  0
  1  7  1  0  0  0  0
  1 20  1  0  0  0  0
  3  4  1  0  0  0  0
  3  5  1  0  0  0  0
  3  9  1  0  0  0  0
  5  6  1  0  0  0  0
  5 11  1  0  0  0  0
  5 12  1  0  0  0  0
  7  8  1  0  0  0  0
  9 10  1  0  0  0  0
 11 20  1  0  0  0  0
 12 13  1  0  0  0  0
 12 14  1  0  0  0  0
 12 23  1  0  0  0  0
 15 16  1  0  0  0  0
 15 17  1  0  0  0  0
 15 18  1  0  0  0  0
 15 20  1  0  0  0  0
 18 19  1  0  0  0  0
 20 21  1  0  0  0  0
 21 22  1  0  0  0  0
 23 26  1  0  0  0  0
 24 26  1  0  0  0  0
 25 26  2  0  0  0  0
 26 27  1  0  0  0  0
M  BCL ATM C_TeTeTeTe H_S C_TeTeTeTe H_S C_TeTeTeTe H_S O_Te2Te2TeTe H_S O_Te2Te2TeTe H_S O_Te2Te2TeTe C_TeTeTeTe H_S H_S C_TeTeTeTe H_S H_S O_Te2Te2TeTe H_S C_TeTeTeTe O_Te2Te2TeTe H_S O_Tr2TrTrPi2 O_Te2Te2TeTe O_Tr2Tr2TrPi P_TeTeTeTePi O_Te2Te2Te2Te
M  BCL BND NonConjugatedSingleBond NonConjugatedSingleBondInRing NonConjugatedSingleBond NonConjugatedSingleBondInRing NonConjugatedSingleBond NonConjugatedSingleBondInRing NonConjugatedSingleBond NonConjugatedSingleBond NonConjugatedSingleBondInRing NonConjugatedSingleBond NonConjugatedSingleBond NonConjugatedSingleBond NonConjugatedSingleBondInRing NonConjugatedSingleBond NonConjugatedSingleBond NonConjugatedSingleBond NonConjugatedSingleBond NonConjugatedSingleBond NonConjugatedSingleBond NonConjugatedSingleBond NonConjugatedSingleBond NonConjugatedSingleBond NonConjugatedSingleBond ConjugatedSingleBond ConjugatedSingleBond ConjugatedDoubleBond ConjugatedSingleBond
M  BCL CHI   1   S   3   R   5   R  20   R  26   R
M  BCL DBI -
M  END
> <ConfClashScore>
0 

> <ConfOneFourInteractionScore>
-0.970756 

> <ConfScore>
-0.135568 

> <ConfScorePBest>
0.00757948 

> <ConfTolerance>
0.601927 

$$$$
L08.****
  PyMOL2.5          3D                             0

 27 27  0  0  0  0  0  0  0  0999 V2000
   11.8816   -4.9786   -0.2458 C   0  0  0  1  0  0  0  0  0  0  0  0
   12.3642   -5.1500   -1.1853 H   0  0  0  1  0  0  0  0  0  0  0  0
   10.5256   -4.3467   -0.4429 C   0  0  0  1  0  0  0  0  0  0  0  0
   10.0544   -4.7102   -1.3322 H   0  0  0  1  0  0  0  0  0  0  0  0
   10.8683   -2.8808   -0.5658 C   0  0  0  1  0  0  0  0  0  0  0  0
   11.1263   -2.6392   -1.5757 H   0  0  0  1  0  0  0  0  0  0  0  0
   11.7718   -6.2122    0.4658 O   0  0  0  1  0  0  0  0  0  0  0  0
   11.7531   -6.9415   -0.1582 H   0  0  0  1  0  0  0  0  0  0  0  0
    9.6743   -4.5869    0.6806 O   0  0  0  1  0  0  0  0  0  0  0  0
    8.9541   -5.1652    0.4191 H   0  0  0  1  0  0  0  0  0  0  0  0
   11.9977   -2.6842    0.3046 O   0  0  0  1  0  0  0  0  0  0  0  0
    9.7309   -2.0455   -0.1345 C   0  0  0  1  0  0  0  0  0  0  0  0
    8.8988   -2.2210   -0.7838 H   0  0  0  1  0  0  0  0  0  0  0  0
   10.0121   -1.0143   -0.1850 H   0  0  0  1  0  0  0  0  0  0  0  0
   12.5476   -4.2777    2.0320 C   0  0  0  1  0  0  0  0  0  0  0  0
   12.8570   -5.2901    2.1872 H   0  0  0  1  0  0  0  0  0  0  0  0
   13.1873   -3.6203    2.5830 H   0  0  0  1  0  0  0  0  0  0  0  0
   11.2081   -4.1189    2.4803 O   0  0  0  1  0  0  0  0  0  0  0  0
   11.1350   -4.4260    3.3869 H   0  0  0  1  0  0  0  0  0  0  0  0
   12.6339   -3.9481    0.5695 C   0  0  0  1  0  0  0  0  0  0  0  0
   13.9870   -3.9062    0.1755 O   0  0  0  1  0  0  0  0  0  0  0  0
   14.4757   -3.3303    0.7681 H   0  0  0  1  0  0  0  0  0  0  0  0
    9.3514   -2.3708    1.2268 O   0  0  0  1  0  0  0  0  0  0  0  0
    7.7590   -0.4360    1.1976 O   0  0  0  0  0  0  0  0  0  0  0  0
    9.8166   -0.2328    2.5582 O   0  0  0  1  0  0  0  0  0  0  0  0
    8.7613   -1.2184    2.2334 P   0  0  0  1  0  0  0  0  0  0  0  0
    7.7623   -1.9110    3.3042 O   0  5  0  1  0  0  0  0  0  0  0  0
  1  2  1  0  0  0  0
  1  3  1  0  0  0  0
  1  7  1  0  0  0  0
  1 20  1  0  0  0  0
  3  4  1  0  0  0  0
  3  5  1  0  0  0  0
  3  9  1  0  0  0  0
  5  6  1  0  0  0  0
  5 11  1  0  0  0  0
  5 12  1  0  0  0  0
  7  8  1  0  0  0  0
  9 10  1  0  0  0  0
 11 20  1  0  0  0  0
 12 13  1  0  0  0  0
 12 14  1  0  0  0  0
 12 23  1  0  0  0  0
 15 16  1  0  0  0  0
 15 17  1  0  0  0  0
 15 18  1  0  0  0  0
 15 20  1  0  0  0  0
 18 19  1  0  0  0  0
 20 21  1  0  0  0  0
 21 22  1  0  0  0  0
 23 26  1  0  0  0  0
 24 26  1  0  0  0  0
 25 26  2  0  0  0  0
 26 27  1  0  0  0  0
M  BCL ATM C_TeTeTeTe H_S C_TeTeTeTe H_S C_TeTeTeTe H_S O_Te2Te2TeTe H_S O_Te2Te2TeTe H_S O_Te2Te2TeTe C_TeTeTeTe H_S H_S C_TeTeTeTe H_S H_S O_Te2Te2TeTe H_S C_TeTeTeTe O_Te2Te2TeTe H_S O_Tr2TrTrPi2 O_Te2Te2TeTe O_Tr2Tr2TrPi P_TeTeTeTePi O_Te2Te2Te2Te
M  BCL BND NonConjugatedSingleBond NonConjugatedSingleBondInRing NonConjugatedSingleBond NonConjugatedSingleBondInRing NonConjugatedSingleBond NonConjugatedSingleBondInRing NonConjugatedSingleBond NonConjugatedSingleBond NonConjugatedSingleBondInRing NonConjugatedSingleBond NonConjugatedSingleBond NonConjugatedSingleBond NonConjugatedSingleBondInRing NonConjugatedSingleBond NonConjugatedSingleBond NonConjugatedSingleBond NonConjugatedSingleBond NonConjugatedSingleBond NonConjugatedSingleBond NonConjugatedSingleBond NonConjugatedSingleBond NonConjugatedSingleBond NonConjugatedSingleBond ConjugatedSingleBond ConjugatedSingleBond ConjugatedDoubleBond ConjugatedSingleBond
M  BCL CHI   1   S   3   R   5   R  20   R  26   R
M  BCL DBI -
M  END
> <ConfClashScore>
0 

> <ConfOneFourInteractionScore>
-0.993347 

> <ConfScore>
-0.131028 

> <ConfScorePBest>
0.00747648 

> <ConfTolerance>
0.653662 

$$$$
L08.****
  PyMOL2.5          3D                             0

 27 27  0  0  0  0  0  0  0  0999 V2000
   11.8820   -5.0358   -0.2112 C   0  0  0  1  0  0  0  0  0  0  0  0
   12.4978   -5.4248   -0.9951 H   0  0  0  1  0  0  0  0  0  0  0  0
   10.6302   -4.4327   -0.7693 C   0  0  0  1  0  0  0  0  0  0  0  0
   10.5209   -4.6886   -1.8024 H   0  0  0  1  0  0  0  0  0  0  0  0
   10.7913   -2.9550   -0.6121 C   0  0  0  1  0  0  0  0  0  0  0  0
   10.6219   -2.4667   -1.5490 H   0  0  0  1  0  0  0  0  0  0  0  0
   11.5727   -6.0788    0.7142 O   0  0  0  1  0  0  0  0  0  0  0  0
   11.7163   -6.9311    0.2963 H   0  0  0  1  0  0  0  0  0  0  0  0
    9.4894   -4.8899   -0.0415 O   0  0  0  1  0  0  0  0  0  0  0  0
    9.5816   -4.6492    0.8832 H   0  0  0  1  0  0  0  0  0  0  0  0
   12.1262   -2.7181   -0.1734 O   0  0  0  1  0  0  0  0  0  0  0  0
    9.8334   -2.4465    0.3886 C   0  0  0  1  0  0  0  0  0  0  0  0
    9.8985   -1.3792    0.4281 H   0  0  0  1  0  0  0  0  0  0  0  0
   10.0757   -2.8548    1.3475 H   0  0  0  1  0  0  0  0  0  0  0  0
   12.1709   -3.8588    1.9314 C   0  0  0  1  0  0  0  0  0  0  0  0
   11.1172   -4.0289    2.0068 H   0  0  0  1  0  0  0  0  0  0  0  0
   12.6959   -4.6347    2.4483 H   0  0  0  1  0  0  0  0  0  0  0  0
   12.4769   -2.6138    2.5455 O   0  0  0  1  0  0  0  0  0  0  0  0
   12.1705   -2.6213    3.4552 H   0  0  0  1  0  0  0  0  0  0  0  0
   12.5623   -3.8949    0.4822 C   0  0  0  1  0  0  0  0  0  0  0  0
   13.9624   -4.0232    0.3758 O   0  0  0  1  0  0  0  0  0  0  0  0
   14.3871   -3.3092    0.8568 H   0  0  0  1  0  0  0  0  0  0  0  0
    8.4833   -2.8287    0.0354 O   0  0  0  1  0  0  0  0  0  0  0  0
    5.9043   -3.4125    0.5820 O   0  0  0  0  0  0  0  0  0  0  0  0
    7.0956   -1.1594    1.2729 O   0  0  0  1  0  0  0  0  0  0  0  0
    7.2467   -2.6205    1.0923 P   0  0  0  1  0  0  0  0  0  0  0  0
    7.6869   -3.3362    2.4774 O   0  5  0  1  0  0  0  0  0  0  0  0
  1  2  1  0  0  0  0
  1  3  1  0  0  0  0
  1  7  1  0  0  0  0
  1 20  1  0  0  0  0
  3  4  1  0  0  0  0
  3  5  1  0  0  0  0
  3  9  1  0  0  0  0
  5  6  1  0  0  0  0
  5 11  1  0  0  0  0
  5 12  1  0  0  0  0
  7  8  1  0  0  0  0
  9 10  1  0  0  0  0
 11 20  1  0  0  0  0
 12 13  1  0  0  0  0
 12 14  1  0  0  0  0
 12 23  1  0  0  0  0
 15 16  1  0  0  0  0
 15 17  1  0  0  0  0
 15 18  1  0  0  0  0
 15 20  1  0  0  0  0
 18 19  1  0  0  0  0
 20 21  1  0  0  0  0
 21 22  1  0  0  0  0
 23 26  1  0  0  0  0
 24 26  1  0  0  0  0
 25 26  2  0  0  0  0
 26 27  1  0  0  0  0
M  BCL ATM C_TeTeTeTe H_S C_TeTeTeTe H_S C_TeTeTeTe H_S O_Te2Te2TeTe H_S O_Te2Te2TeTe H_S O_Te2Te2TeTe C_TeTeTeTe H_S H_S C_TeTeTeTe H_S H_S O_Te2Te2TeTe H_S C_TeTeTeTe O_Te2Te2TeTe H_S O_Tr2TrTrPi2 O_Te2Te2TeTe O_Tr2Tr2TrPi P_TeTeTeTePi O_Te2Te2Te2Te
M  BCL BND NonConjugatedSingleBond NonConjugatedSingleBondInRing NonConjugatedSingleBond NonConjugatedSingleBondInRing NonConjugatedSingleBond NonConjugatedSingleBondInRing NonConjugatedSingleBond NonConjugatedSingleBond NonConjugatedSingleBondInRing NonConjugatedSingleBond NonConjugatedSingleBond NonConjugatedSingleBond NonConjugatedSingleBondInRing NonConjugatedSingleBond NonConjugatedSingleBond NonConjugatedSingleBond NonConjugatedSingleBond NonConjugatedSingleBond NonConjugatedSingleBond NonConjugatedSingleBond NonConjugatedSingleBond NonConjugatedSingleBond NonConjugatedSingleBond ConjugatedSingleBond ConjugatedSingleBond ConjugatedDoubleBond ConjugatedSingleBond
M  BCL CHI   1   S   3   R   5   R  20   R  26   R
M  BCL DBI -
M  END
> <ConfClashScore>
0.000188357 

> <ConfOneFourInteractionScore>
-0.983447 

> <ConfScore>
-0.129505 

> <ConfScorePBest>
0.00737347 

> <ConfTolerance>
0.619656 

$$$$
L08.****
  PyMOL2.5          3D                             0

 27 27  0  0  0  0  0  0  0  0999 V2000
   11.8357   -5.0155   -0.0547 C   0  0  0  1  0  0  0  0  0  0  0  0
   12.3336   -5.7024   -0.7068 H   0  0  0  1  0  0  0  0  0  0  0  0
   10.7013   -4.3039   -0.7726 C   0  0  0  1  0  0  0  0  0  0  0  0
   10.9458   -4.1156   -1.7972 H   0  0  0  1  0  0  0  0  0  0  0  0
   10.5980   -3.0108    0.0186 C   0  0  0  1  0  0  0  0  0  0  0  0
   10.1727   -2.2355   -0.5840 H   0  0  0  1  0  0  0  0  0  0  0  0
   11.3587   -5.7121    1.0973 O   0  0  0  1  0  0  0  0  0  0  0  0
   12.0384   -6.3117    1.4135 H   0  0  0  1  0  0  0  0  0  0  0  0
    9.4872   -5.0561   -0.7021 O   0  0  0  1  0  0  0  0  0  0  0  0
    8.7383   -4.4678   -0.8230 H   0  0  0  1  0  0  0  0  0  0  0  0
   11.9439   -2.6830    0.3815 O   0  0  0  1  0  0  0  0  0  0  0  0
    9.7606   -3.2095    1.2390 C   0  0  0  1  0  0  0  0  0  0  0  0
    9.8487   -2.3601    1.8836 H   0  0  0  1  0  0  0  0  0  0  0  0
   10.0790   -4.0881    1.7602 H   0  0  0  1  0  0  0  0  0  0  0  0
   13.3554   -4.1370    1.6881 C   0  0  0  1  0  0  0  0  0  0  0  0
   13.9471   -5.0275    1.6457 H   0  0  0  1  0  0  0  0  0  0  0  0
   13.9740   -3.3103    1.9689 H   0  0  0  1  0  0  0  0  0  0  0  0
   12.3220   -4.3019    2.6501 O   0  0  0  1  0  0  0  0  0  0  0  0
   11.7859   -3.5062    2.6841 H   0  0  0  1  0  0  0  0  0  0  0  0
   12.7525   -3.8735    0.3383 C   0  0  0  1  0  0  0  0  0  0  0  0
   13.7803   -3.7269   -0.6157 O   0  0  0  1  0  0  0  0  0  0  0  0
   14.5441   -4.2419   -0.3456 H   0  0  0  1  0  0  0  0  0  0  0  0
    8.3872   -3.3619    0.8095 O   0  0  0  1  0  0  0  0  0  0  0  0
    5.7813   -3.3203    1.5940 O   0  0  0  0  0  0  0  0  0  0  0  0
    7.7105   -3.4156    3.3507 O   0  0  0  1  0  0  0  0  0  0  0  0
    7.3095   -3.7789    1.9732 P   0  0  0  1  0  0  0  0  0  0  0  0
    7.1522   -5.3906    1.9277 O   0  5  0  1  0  0  0  0  0  0  0  0
  1  2  1  0  0  0  0
  1  3  1  0  0  0  0
  1  7  1  0  0  0  0
  1 20  1  0  0  0  0
  3  4  1  0  0  0  0
  3  5  1  0  0  0  0
  3  9  1  0  0  0  0
  5  6  1  0  0  0  0
  5 11  1  0  0  0  0
  5 12  1  0  0  0  0
  7  8  1  0  0  0  0
  9 10  1  0  0  0  0
 11 20  1  0  0  0  0
 12 13  1  0  0  0  0
 12 14  1  0  0  0  0
 12 23  1  0  0  0  0
 15 16  1  0  0  0  0
 15 17  1  0  0  0  0
 15 18  1  0  0  0  0
 15 20  1  0  0  0  0
 18 19  1  0  0  0  0
 20 21  1  0  0  0  0
 21 22  1  0  0  0  0
 23 26  1  0  0  0  0
 24 26  1  0  0  0  0
 25 26  2  0  0  0  0
 26 27  1  0  0  0  0
M  BCL ATM C_TeTeTeTe H_S C_TeTeTeTe H_S C_TeTeTeTe H_S O_Te2Te2TeTe H_S O_Te2Te2TeTe H_S O_Te2Te2TeTe C_TeTeTeTe H_S H_S C_TeTeTeTe H_S H_S O_Te2Te2TeTe H_S C_TeTeTeTe O_Te2Te2TeTe H_S O_Tr2TrTrPi2 O_Te2Te2TeTe O_Tr2Tr2TrPi P_TeTeTeTePi O_Te2Te2Te2Te
M  BCL BND NonConjugatedSingleBond NonConjugatedSingleBondInRing NonConjugatedSingleBond NonConjugatedSingleBondInRing NonConjugatedSingleBond NonConjugatedSingleBondInRing NonConjugatedSingleBond NonConjugatedSingleBond NonConjugatedSingleBondInRing NonConjugatedSingleBond NonConjugatedSingleBond NonConjugatedSingleBond NonConjugatedSingleBondInRing NonConjugatedSingleBond NonConjugatedSingleBond NonConjugatedSingleBond NonConjugatedSingleBond NonConjugatedSingleBond NonConjugatedSingleBond NonConjugatedSingleBond NonConjugatedSingleBond NonConjugatedSingleBond NonConjugatedSingleBond ConjugatedSingleBond ConjugatedSingleBond ConjugatedDoubleBond ConjugatedSingleBond
M  BCL CHI   1   S   3   R   5   R  20   R  26   R
M  BCL DBI -
M  END
> <ConfClashScore>
0 

> <ConfOneFourInteractionScore>
-0.983026 

> <ConfScore>
-0.12886 

> <ConfScorePBest>
0.00727047 

> <ConfTolerance>
0.668832 

$$$$
L08.****
  PyMOL2.5          3D                             0

 27 27  0  0  0  0  0  0  0  0999 V2000
   11.8915   -5.0672   -0.1910 C   0  0  0  1  0  0  0  0  0  0  0  0
   12.3534   -5.3666   -1.1086 H   0  0  0  1  0  0  0  0  0  0  0  0
   10.6043   -4.3522   -0.4630 C   0  0  0  1  0  0  0  0  0  0  0  0
   10.3237   -4.4538   -1.4905 H   0  0  0  1  0  0  0  0  0  0  0  0
   10.9018   -2.9212   -0.1325 C   0  0  0  1  0  0  0  0  0  0  0  0
   11.2149   -2.3953   -1.0101 H   0  0  0  1  0  0  0  0  0  0  0  0
   11.6603   -6.2173    0.6237 O   0  0  0  1  0  0  0  0  0  0  0  0
   11.5781   -6.9941    0.0657 H   0  0  0  1  0  0  0  0  0  0  0  0
    9.5589   -4.8572    0.3690 O   0  0  0  1  0  0  0  0  0  0  0  0
    8.7121   -4.7209   -0.0622 H   0  0  0  1  0  0  0  0  0  0  0  0
   11.9458   -2.9459    0.8236 O   0  0  0  1  0  0  0  0  0  0  0  0
    9.6914   -2.2598    0.4397 C   0  0  0  1  0  0  0  0  0  0  0  0
    8.8827   -2.3125   -0.2589 H   0  0  0  1  0  0  0  0  0  0  0  0
    9.9062   -1.2351    0.6607 H   0  0  0  1  0  0  0  0  0  0  0  0
   13.2719   -4.6884    1.8052 C   0  0  0  1  0  0  0  0  0  0  0  0
   12.4543   -5.0233    2.4088 H   0  0  0  1  0  0  0  0  0  0  0  0
   13.9135   -5.5152    1.5824 H   0  0  0  1  0  0  0  0  0  0  0  0
   14.0009   -3.6798    2.4922 O   0  0  0  1  0  0  0  0  0  0  0  0
   13.9284   -2.8503    2.0144 H   0  0  0  1  0  0  0  0  0  0  0  0
   12.7541   -4.0821    0.5300 C   0  0  0  1  0  0  0  0  0  0  0  0
   13.8398   -3.7037   -0.2861 O   0  0  0  1  0  0  0  0  0  0  0  0
   14.0443   -2.7775   -0.1383 H   0  0  0  1  0  0  0  0  0  0  0  0
    9.3394   -2.9630    1.6553 O   0  0  0  1  0  0  0  0  0  0  0  0
    8.1554   -3.2898    3.9984 O   0  0  0  0  0  0  0  0  0  0  0  0
    7.4655   -1.4603    2.4702 O   0  0  0  1  0  0  0  0  0  0  0  0
    8.6838   -2.1644    2.9289 P   0  0  0  1  0  0  0  0  0  0  0  0
    9.8164   -1.2292    3.6123 O   0  5  0  1  0  0  0  0  0  0  0  0
  1  2  1  0  0  0  0
  1  3  1  0  0  0  0
  1  7  1  0  0  0  0
  1 20  1  0  0  0  0
  3  4  1  0  0  0  0
  3  5  1  0  0  0  0
  3  9  1  0  0  0  0
  5  6  1  0  0  0  0
  5 11  1  0  0  0  0
  5 12  1  0  0  0  0
  7  8  1  0  0  0  0
  9 10  1  0  0  0  0
 11 20  1  0  0  0  0
 12 13  1  0  0  0  0
 12 14  1  0  0  0  0
 12 23  1  0  0  0  0
 15 16  1  0  0  0  0
 15 17  1  0  0  0  0
 15 18  1  0  0  0  0
 15 20  1  0  0  0  0
 18 19  1  0  0  0  0
 20 21  1  0  0  0  0
 21 22  1  0  0  0  0
 23 26  1  0  0  0  0
 24 26  1  0  0  0  0
 25 26  2  0  0  0  0
 26 27  1  0  0  0  0
M  BCL ATM C_TeTeTeTe H_S C_TeTeTeTe H_S C_TeTeTeTe H_S O_Te2Te2TeTe H_S O_Te2Te2TeTe H_S O_Te2Te2TeTe C_TeTeTeTe H_S H_S C_TeTeTeTe H_S H_S O_Te2Te2TeTe H_S C_TeTeTeTe O_Te2Te2TeTe H_S O_Tr2TrTrPi2 O_Te2Te2TeTe O_Tr2Tr2TrPi P_TeTeTeTePi O_Te2Te2Te2Te
M  BCL BND NonConjugatedSingleBond NonConjugatedSingleBondInRing NonConjugatedSingleBond NonConjugatedSingleBondInRing NonConjugatedSingleBond NonConjugatedSingleBondInRing NonConjugatedSingleBond NonConjugatedSingleBond NonConjugatedSingleBondInRing NonConjugatedSingleBond NonConjugatedSingleBond NonConjugatedSingleBond NonConjugatedSingleBondInRing NonConjugatedSingleBond NonConjugatedSingleBond NonConjugatedSingleBond NonConjugatedSingleBond NonConjugatedSingleBond NonConjugatedSingleBond NonConjugatedSingleBond NonConjugatedSingleBond NonConjugatedSingleBond NonConjugatedSingleBond ConjugatedSingleBond ConjugatedSingleBond ConjugatedDoubleBond ConjugatedSingleBond
M  BCL CHI   1   S   3   R   5   R  20   R  26   R
M  BCL DBI -
M  END
> <ConfClashScore>
0 

> <ConfOneFourInteractionScore>
-0.993347 

> <ConfScore>
-0.123846 

> <ConfScorePBest>
0.00716747 

> <ConfTolerance>
0.681296 

$$$$
L08.****
  PyMOL2.5          3D                             0

 27 27  0  0  0  0  0  0  0  0999 V2000
   11.8802   -5.1269   -0.4023 C   0  0  0  1  0  0  0  0  0  0  0  0
   12.4076   -5.4585   -1.2722 H   0  0  0  1  0  0  0  0  0  0  0  0
   10.7360   -4.2203   -0.7845 C   0  0  0  1  0  0  0  0  0  0  0  0
   10.8079   -3.9376   -1.8140 H   0  0  0  1  0  0  0  0  0  0  0  0
   10.8799   -3.0180    0.1044 C   0  0  0  1  0  0  0  0  0  0  0  0
   11.1904   -2.1710   -0.4709 H   0  0  0  1  0  0  0  0  0  0  0  0
   11.4055   -6.2601    0.3289 O   0  0  0  1  0  0  0  0  0  0  0  0
   11.3995   -6.0566    1.2671 H   0  0  0  1  0  0  0  0  0  0  0  0
    9.4838   -4.8678   -0.5542 O   0  0  0  1  0  0  0  0  0  0  0  0
    9.3337   -4.9485    0.3905 H   0  0  0  1  0  0  0  0  0  0  0  0
   11.8676   -3.3356    1.0780 O   0  0  0  1  0  0  0  0  0  0  0  0
    9.5947   -2.7201    0.7654 C   0  0  0  1  0  0  0  0  0  0  0  0
    9.6670   -1.7782    1.2680 H   0  0  0  1  0  0  0  0  0  0  0  0
    9.3780   -3.4890    1.4772 H   0  0  0  1  0  0  0  0  0  0  0  0
   13.4539   -5.1090    1.4900 C   0  0  0  1  0  0  0  0  0  0  0  0
   14.1782   -4.5096    2.0008 H   0  0  0  1  0  0  0  0  0  0  0  0
   12.7357   -5.4774    2.1924 H   0  0  0  1  0  0  0  0  0  0  0  0
   14.1059   -6.2052    0.8622 O   0  0  0  1  0  0  0  0  0  0  0  0
   14.9146   -6.4114    1.3366 H   0  0  0  1  0  0  0  0  0  0  0  0
   12.7567   -4.2748    0.4542 C   0  0  0  1  0  0  0  0  0  0  0  0
   13.7150   -3.6027   -0.3319 O   0  0  0  1  0  0  0  0  0  0  0  0
   13.4341   -2.6958   -0.4738 H   0  0  0  1  0  0  0  0  0  0  0  0
    8.5250   -2.6589   -0.2120 O   0  0  0  1  0  0  0  0  0  0  0  0
    5.9622   -2.9532   -1.0732 O   0  0  0  0  0  0  0  0  0  0  0  0
    6.5062   -2.7758    1.4566 O   0  0  0  1  0  0  0  0  0  0  0  0
    7.0267   -3.2221    0.1450 P   0  0  0  1  0  0  0  0  0  0  0  0
    7.2518   -4.8242    0.2287 O   0  5  0  1  0  0  0  0  0  0  0  0
  1  2  1  0  0  0  0
  1  3  1  0  0  0  0
  1  7  1  0  0  0  0
  1 20  1  0  0  0  0
  3  4  1  0  0  0  0
  3  5  1  0  0  0  0
  3  9  1  0  0  0  0
  5  6  1  0  0  0  0
  5 11  1  0  0  0  0
  5 12  1  0  0  0  0
  7  8  1  0  0  0  0
  9 10  1  0  0  0  0
 11 20  1  0  0  0  0
 12 13  1  0  0  0  0
 12 14  1  0  0  0  0
 12 23  1  0  0  0  0
 15 16  1  0  0  0  0
 15 17  1  0  0  0  0
 15 18  1  0  0  0  0
 15 20  1  0  0  0  0
 18 19  1  0  0  0  0
 20 21  1  0  0  0  0
 21 22  1  0  0  0  0
 23 26  1  0  0  0  0
 24 26  1  0  0  0  0
 25 26  2  0  0  0  0
 26 27  1  0  0  0  0
M  BCL ATM C_TeTeTeTe H_S C_TeTeTeTe H_S C_TeTeTeTe H_S O_Te2Te2TeTe H_S O_Te2Te2TeTe H_S O_Te2Te2TeTe C_TeTeTeTe H_S H_S C_TeTeTeTe H_S H_S O_Te2Te2TeTe H_S C_TeTeTeTe O_Te2Te2TeTe H_S O_Tr2TrTrPi2 O_Te2Te2TeTe O_Tr2Tr2TrPi P_TeTeTeTePi O_Te2Te2Te2Te
M  BCL BND NonConjugatedSingleBond NonConjugatedSingleBondInRing NonConjugatedSingleBond NonConjugatedSingleBondInRing NonConjugatedSingleBond NonConjugatedSingleBondInRing NonConjugatedSingleBond NonConjugatedSingleBond NonConjugatedSingleBondInRing NonConjugatedSingleBond NonConjugatedSingleBond NonConjugatedSingleBond NonConjugatedSingleBondInRing NonConjugatedSingleBond NonConjugatedSingleBond NonConjugatedSingleBond NonConjugatedSingleBond NonConjugatedSingleBond NonConjugatedSingleBond NonConjugatedSingleBond NonConjugatedSingleBond NonConjugatedSingleBond NonConjugatedSingleBond ConjugatedSingleBond ConjugatedSingleBond ConjugatedDoubleBond ConjugatedSingleBond
M  BCL CHI   1   S   3   R   5   R  20   R  26   R
M  BCL DBI -
M  END
> <ConfClashScore>
0 

> <ConfOneFourInteractionScore>
-0.979644 

> <ConfScore>
-0.120843 

> <ConfScorePBest>
0.00706447 

> <ConfTolerance>
0.757638 

$$$$
L08.****
  PyMOL2.5          3D                             0

 27 27  0  0  0  0  0  0  0  0999 V2000
   11.9187   -4.9616   -0.2385 C   0  0  0  1  0  0  0  0  0  0  0  0
   12.5159   -4.9942   -1.1257 H   0  0  0  1  0  0  0  0  0  0  0  0
   10.5673   -4.3519   -0.5197 C   0  0  0  1  0  0  0  0  0  0  0  0
   10.2215   -4.6112   -1.4985 H   0  0  0  1  0  0  0  0  0  0  0  0
   10.8535   -2.8725   -0.4150 C   0  0  0  1  0  0  0  0  0  0  0  0
   11.2170   -2.4937   -1.3474 H   0  0  0  1  0  0  0  0  0  0  0  0
   11.7835   -6.2800    0.2941 O   0  0  0  1  0  0  0  0  0  0  0  0
   12.6475   -6.6954    0.3445 H   0  0  0  1  0  0  0  0  0  0  0  0
    9.6153   -4.7567    0.4384 O   0  0  0  1  0  0  0  0  0  0  0  0
    8.7317   -4.5853    0.1045 H   0  0  0  1  0  0  0  0  0  0  0  0
   11.8623   -2.7556    0.6050 O   0  0  0  1  0  0  0  0  0  0  0  0
    9.6211   -2.1273   -0.0206 C   0  0  0  1  0  0  0  0  0  0  0  0
    9.2175   -2.5410    0.8799 H   0  0  0  1  0  0  0  0  0  0  0  0
    8.8916   -2.1904   -0.8009 H   0  0  0  1  0  0  0  0  0  0  0  0
   12.2787   -4.5423    2.1738 C   0  0  0  1  0  0  0  0  0  0  0  0
   12.8307   -5.4478    2.3161 H   0  0  0  1  0  0  0  0  0  0  0  0
   12.5994   -3.8126    2.8876 H   0  0  0  1  0  0  0  0  0  0  0  0
   10.8897   -4.8015    2.3533 O   0  0  0  1  0  0  0  0  0  0  0  0
   10.7774   -5.5999    2.8743 H   0  0  0  1  0  0  0  0  0  0  0  0
   12.5210   -4.0229    0.7856 C   0  0  0  1  0  0  0  0  0  0  0  0
   13.9077   -3.8880    0.5688 O   0  0  0  1  0  0  0  0  0  0  0  0
   14.0838   -3.8648   -0.3746 H   0  0  0  1  0  0  0  0  0  0  0  0
    9.9932   -0.7457    0.1954 O   0  0  0  1  0  0  0  0  0  0  0  0
   10.8499    1.4123    1.4763 O   0  0  0  0  0  0  0  0  0  0  0  0
   11.3302   -1.0086    2.2976 O   0  0  0  1  0  0  0  0  0  0  0  0
   10.3167   -0.1253    1.6786 P   0  0  0  1  0  0  0  0  0  0  0  0
    8.9306   -0.0807    2.5160 O   0  5  0  1  0  0  0  0  0  0  0  0
  1  2  1  0  0  0  0
  1  3  1  0  0  0  0
  1  7  1  0  0  0  0
  1 20  1  0  0  0  0
  3  4  1  0  0  0  0
  3  5  1  0  0  0  0
  3  9  1  0  0  0  0
  5  6  1  0  0  0  0
  5 11  1  0  0  0  0
  5 12  1  0  0  0  0
  7  8  1  0  0  0  0
  9 10  1  0  0  0  0
 11 20  1  0  0  0  0
 12 13  1  0  0  0  0
 12 14  1  0  0  0  0
 12 23  1  0  0  0  0
 15 16  1  0  0  0  0
 15 17  1  0  0  0  0
 15 18  1  0  0  0  0
 15 20  1  0  0  0  0
 18 19  1  0  0  0  0
 20 21  1  0  0  0  0
 21 22  1  0  0  0  0
 23 26  1  0  0  0  0
 24 26  1  0  0  0  0
 25 26  2  0  0  0  0
 26 27  1  0  0  0  0
M  BCL ATM C_TeTeTeTe H_S C_TeTeTeTe H_S C_TeTeTeTe H_S O_Te2Te2TeTe H_S O_Te2Te2TeTe H_S O_Te2Te2TeTe C_TeTeTeTe H_S H_S C_TeTeTeTe H_S H_S O_Te2Te2TeTe H_S C_TeTeTeTe O_Te2Te2TeTe H_S O_Tr2TrTrPi2 O_Te2Te2TeTe O_Tr2Tr2TrPi P_TeTeTeTePi O_Te2Te2Te2Te
M  BCL BND NonConjugatedSingleBond NonConjugatedSingleBondInRing NonConjugatedSingleBond NonConjugatedSingleBondInRing NonConjugatedSingleBond NonConjugatedSingleBondInRing NonConjugatedSingleBond NonConjugatedSingleBond NonConjugatedSingleBondInRing NonConjugatedSingleBond NonConjugatedSingleBond NonConjugatedSingleBond NonConjugatedSingleBondInRing NonConjugatedSingleBond NonConjugatedSingleBond NonConjugatedSingleBond NonConjugatedSingleBond NonConjugatedSingleBond NonConjugatedSingleBond NonConjugatedSingleBond NonConjugatedSingleBond NonConjugatedSingleBond NonConjugatedSingleBond ConjugatedSingleBond ConjugatedSingleBond ConjugatedDoubleBond ConjugatedSingleBond
M  BCL CHI   1   S   3   R   5   R  20   R  26   R
M  BCL DBI -
M  END
> <ConfClashScore>
0 

> <ConfOneFourInteractionScore>
-0.982248 

> <ConfScore>
-0.116753 

> <ConfScorePBest>
0.00696147 

> <ConfTolerance>
0.740716 

$$$$
L08.****
  PyMOL2.5          3D                             0

 27 27  0  0  0  0  0  0  0  0999 V2000
   12.0703   -4.8796   -0.1917 C   0  0  0  1  0  0  0  0  0  0  0  0
   12.6319   -4.9291   -1.1010 H   0  0  0  1  0  0  0  0  0  0  0  0
   10.6538   -4.4316   -0.4559 C   0  0  0  1  0  0  0  0  0  0  0  0
   10.2975   -4.8061   -1.3928 H   0  0  0  1  0  0  0  0  0  0  0  0
   10.7920   -2.9278   -0.4852 C   0  0  0  1  0  0  0  0  0  0  0  0
   11.0776   -2.5961   -1.4616 H   0  0  0  1  0  0  0  0  0  0  0  0
   12.0912   -6.1546    0.4518 O   0  0  0  1  0  0  0  0  0  0  0  0
   11.4082   -6.7146    0.0757 H   0  0  0  1  0  0  0  0  0  0  0  0
    9.7755   -4.8499    0.5899 O   0  0  0  1  0  0  0  0  0  0  0  0
    8.8706   -4.8453    0.2695 H   0  0  0  1  0  0  0  0  0  0  0  0
   11.8233   -2.6259    0.4723 O   0  0  0  1  0  0  0  0  0  0  0  0
    9.5067   -2.2760   -0.0936 C   0  0  0  1  0  0  0  0  0  0  0  0
    8.7269   -3.0072   -0.0465 H   0  0  0  1  0  0  0  0  0  0  0  0
    9.2475   -1.5229   -0.8081 H   0  0  0  1  0  0  0  0  0  0  0  0
   12.4813   -4.2232    2.1606 C   0  0  0  1  0  0  0  0  0  0  0  0
   12.9080   -3.4721    2.7920 H   0  0  0  1  0  0  0  0  0  0  0  0
   11.4459   -4.3458    2.4010 H   0  0  0  1  0  0  0  0  0  0  0  0
   13.1624   -5.4542    2.3640 O   0  0  0  1  0  0  0  0  0  0  0  0
   14.0680   -5.3741    2.0556 H   0  0  0  1  0  0  0  0  0  0  0  0
   12.6142   -3.8023    0.7229 C   0  0  0  1  0  0  0  0  0  0  0  0
   13.9703   -3.5512    0.4295 O   0  0  0  1  0  0  0  0  0  0  0  0
   14.2822   -4.1899   -0.2158 H   0  0  0  1  0  0  0  0  0  0  0  0
    9.6979   -1.6749    1.2087 O   0  0  0  1  0  0  0  0  0  0  0  0
    8.9375   -0.4546    3.4774 O   0  0  0  0  0  0  0  0  0  0  0  0
    7.4895   -2.3323    2.2318 O   0  0  0  1  0  0  0  0  0  0  0  0
    8.4149   -1.1843    2.1048 P   0  0  0  1  0  0  0  0  0  0  0  0
    7.8456   -0.0082    1.1472 O   0  5  0  1  0  0  0  0  0  0  0  0
  1  2  1  0  0  0  0
  1  3  1  0  0  0  0
  1  7  1  0  0  0  0
  1 20  1  0  0  0  0
  3  4  1  0  0  0  0
  3  5  1  0  0  0  0
  3  9  1  0  0  0  0
  5  6  1  0  0  0  0
  5 11  1  0  0  0  0
  5 12  1  0  0  0  0
  7  8  1  0  0  0  0
  9 10  1  0  0  0  0
 11 20  1  0  0  0  0
 12 13  1  0  0  0  0
 12 14  1  0  0  0  0
 12 23  1  0  0  0  0
 15 16  1  0  0  0  0
 15 17  1  0  0  0  0
 15 18  1  0  0  0  0
 15 20  1  0  0  0  0
 18 19  1  0  0  0  0
 20 21  1  0  0  0  0
 21 22  1  0  0  0  0
 23 26  1  0  0  0  0
 24 26  1  0  0  0  0
 25 26  2  0  0  0  0
 26 27  1  0  0  0  0
M  BCL ATM C_TeTeTeTe H_S C_TeTeTeTe H_S C_TeTeTeTe H_S O_Te2Te2TeTe H_S O_Te2Te2TeTe H_S O_Te2Te2TeTe C_TeTeTeTe H_S H_S C_TeTeTeTe H_S H_S O_Te2Te2TeTe H_S C_TeTeTeTe O_Te2Te2TeTe H_S O_Tr2TrTrPi2 O_Te2Te2TeTe O_Tr2Tr2TrPi P_TeTeTeTePi O_Te2Te2Te2Te
M  BCL BND NonConjugatedSingleBond NonConjugatedSingleBondInRing NonConjugatedSingleBond NonConjugatedSingleBondInRing NonConjugatedSingleBond NonConjugatedSingleBondInRing NonConjugatedSingleBond NonConjugatedSingleBond NonConjugatedSingleBondInRing NonConjugatedSingleBond NonConjugatedSingleBond NonConjugatedSingleBond NonConjugatedSingleBondInRing NonConjugatedSingleBond NonConjugatedSingleBond NonConjugatedSingleBond NonConjugatedSingleBond NonConjugatedSingleBond NonConjugatedSingleBond NonConjugatedSingleBond NonConjugatedSingleBond NonConjugatedSingleBond NonConjugatedSingleBond ConjugatedSingleBond ConjugatedSingleBond ConjugatedDoubleBond ConjugatedSingleBond
M  BCL CHI   1   S   3   R   5   R  20   R  26   R
M  BCL DBI -
M  END
> <ConfClashScore>
0 

> <ConfOneFourInteractionScore>
-0.98394 

> <ConfScore>
-0.112897 

> <ConfScorePBest>
0.00685847 

> <ConfTolerance>
0.630012 

$$$$
L08.****
  PyMOL2.5          3D                             0

 27 27  0  0  0  0  0  0  0  0999 V2000
   11.7450   -5.0442   -0.1281 C   0  0  0  1  0  0  0  0  0  0  0  0
   12.1464   -5.5868   -0.9584 H   0  0  0  1  0  0  0  0  0  0  0  0
   10.5872   -4.1800   -0.5641 C   0  0  0  1  0  0  0  0  0  0  0  0
   10.5339   -4.1333   -1.6317 H   0  0  0  1  0  0  0  0  0  0  0  0
   10.8784   -2.8227    0.0098 C   0  0  0  1  0  0  0  0  0  0  0  0
   11.1361   -2.1405   -0.7732 H   0  0  0  1  0  0  0  0  0  0  0  0
   11.3369   -5.9611    0.8883 O   0  0  0  1  0  0  0  0  0  0  0  0
   11.5156   -6.8592    0.6001 H   0  0  0  1  0  0  0  0  0  0  0  0
    9.3573   -4.6903   -0.0471 O   0  0  0  1  0  0  0  0  0  0  0  0
    9.2514   -5.6055   -0.3169 H   0  0  0  1  0  0  0  0  0  0  0  0
   11.9738   -2.9752    0.9048 O   0  0  0  1  0  0  0  0  0  0  0  0
    9.6838   -2.3099    0.7447 C   0  0  0  1  0  0  0  0  0  0  0  0
    9.4274   -2.9815    1.5372 H   0  0  0  1  0  0  0  0  0  0  0  0
    8.8556   -2.2166    0.0737 H   0  0  0  1  0  0  0  0  0  0  0  0
   13.5492   -4.7022    1.5107 C   0  0  0  1  0  0  0  0  0  0  0  0
   12.8751   -5.1017    2.2393 H   0  0  0  1  0  0  0  0  0  0  0  0
   14.1412   -5.4933    1.1001 H   0  0  0  1  0  0  0  0  0  0  0  0
   14.4123   -3.7711    2.1500 O   0  0  0  1  0  0  0  0  0  0  0  0
   14.0884   -2.8796    2.0015 H   0  0  0  1  0  0  0  0  0  0  0  0
   12.7482   -4.0763    0.4054 C   0  0  0  1  0  0  0  0  0  0  0  0
   13.6160   -3.6469   -0.6197 O   0  0  0  1  0  0  0  0  0  0  0  0
   14.2875   -3.0690   -0.2500 H   0  0  0  1  0  0  0  0  0  0  0  0
   10.0257   -1.0134    1.2887 O   0  0  0  1  0  0  0  0  0  0  0  0
    7.6991   -0.0163    0.7676 O   0  0  0  0  0  0  0  0  0  0  0  0
    9.7844    0.7230   -0.6100 O   0  0  0  1  0  0  0  0  0  0  0  0
    9.2977    0.3486    0.7366 P   0  0  0  1  0  0  0  0  0  0  0  0
    9.6654    1.4554    1.8610 O   0  5  0  1  0  0  0  0  0  0  0  0
  1  2  1  0  0  0  0
  1  3  1  0  0  0  0
  1  7  1  0  0  0  0
  1 20  1  0  0  0  0
  3  4  1  0  0  0  0
  3  5  1  0  0  0  0
  3  9  1  0  0  0  0
  5  6  1  0  0  0  0
  5 11  1  0  0  0  0
  5 12  1  0  0  0  0
  7  8  1  0  0  0  0
  9 10  1  0  0  0  0
 11 20  1  0  0  0  0
 12 13  1  0  0  0  0
 12 14  1  0  0  0  0
 12 23  1  0  0  0  0
 15 16  1  0  0  0  0
 15 17  1  0  0  0  0
 15 18  1  0  0  0  0
 15 20  1  0  0  0  0
 18 19  1  0  0  0  0
 20 21  1  0  0  0  0
 21 22  1  0  0  0  0
 23 26  1  0  0  0  0
 24 26  1  0  0  0  0
 25 26  2  0  0  0  0
 26 27  1  0  0  0  0
M  BCL ATM C_TeTeTeTe H_S C_TeTeTeTe H_S C_TeTeTeTe H_S O_Te2Te2TeTe H_S O_Te2Te2TeTe H_S O_Te2Te2TeTe C_TeTeTeTe H_S H_S C_TeTeTeTe H_S H_S O_Te2Te2TeTe H_S C_TeTeTeTe O_Te2Te2TeTe H_S O_Tr2TrTrPi2 O_Te2Te2TeTe O_Tr2Tr2TrPi P_TeTeTeTePi O_Te2Te2Te2Te
M  BCL BND NonConjugatedSingleBond NonConjugatedSingleBondInRing NonConjugatedSingleBond NonConjugatedSingleBondInRing NonConjugatedSingleBond NonConjugatedSingleBondInRing NonConjugatedSingleBond NonConjugatedSingleBond NonConjugatedSingleBondInRing NonConjugatedSingleBond NonConjugatedSingleBond NonConjugatedSingleBond NonConjugatedSingleBondInRing NonConjugatedSingleBond NonConjugatedSingleBond NonConjugatedSingleBond NonConjugatedSingleBond NonConjugatedSingleBond NonConjugatedSingleBond NonConjugatedSingleBond NonConjugatedSingleBond NonConjugatedSingleBond NonConjugatedSingleBond ConjugatedSingleBond ConjugatedSingleBond ConjugatedDoubleBond ConjugatedSingleBond
M  BCL CHI   1   S   3   R   5   R  20   R  26   R
M  BCL DBI -
M  END
> <ConfClashScore>
0 

> <ConfOneFourInteractionScore>
-0.983447 

> <ConfScore>
-0.094425 

> <ConfScorePBest>
0.00675547 

> <ConfTolerance>
0.594395 

$$$$
L08.****
  PyMOL2.5          3D                             0

 27 27  0  0  0  0  0  0  0  0999 V2000
   12.0785   -4.9242   -0.2012 C   0  0  0  1  0  0  0  0  0  0  0  0
   12.6596   -4.9353   -1.0995 H   0  0  0  1  0  0  0  0  0  0  0  0
   10.6717   -4.4517   -0.4742 C   0  0  0  1  0  0  0  0  0  0  0  0
   10.3331   -4.7780   -1.4353 H   0  0  0  1  0  0  0  0  0  0  0  0
   10.8222   -2.9495   -0.4285 C   0  0  0  1  0  0  0  0  0  0  0  0
   11.1318   -2.5742   -1.3815 H   0  0  0  1  0  0  0  0  0  0  0  0
   12.0754   -6.2286    0.3809 O   0  0  0  1  0  0  0  0  0  0  0  0
   11.3898   -6.7609   -0.0293 H   0  0  0  1  0  0  0  0  0  0  0  0
    9.7665   -4.9121    0.5324 O   0  0  0  1  0  0  0  0  0  0  0  0
    8.8743   -4.6338    0.3126 H   0  0  0  1  0  0  0  0  0  0  0  0
   11.8346   -2.7026    0.5644 O   0  0  0  1  0  0  0  0  0  0  0  0
    9.5337   -2.3058   -0.0339 C   0  0  0  1  0  0  0  0  0  0  0  0
    9.1691   -2.7451    0.8711 H   0  0  0  1  0  0  0  0  0  0  0  0
    8.8092   -2.4346   -0.8107 H   0  0  0  1  0  0  0  0  0  0  0  0
   12.4431   -4.3836    2.1860 C   0  0  0  1  0  0  0  0  0  0  0  0
   12.9797   -5.3025    2.2979 H   0  0  0  1  0  0  0  0  0  0  0  0
   12.8472   -3.6506    2.8525 H   0  0  0  1  0  0  0  0  0  0  0  0
   11.0808   -4.6067    2.5251 O   0  0  0  1  0  0  0  0  0  0  0  0
   11.0037   -5.4260    3.0195 H   0  0  0  1  0  0  0  0  0  0  0  0
   12.6106   -3.8966    0.7754 C   0  0  0  1  0  0  0  0  0  0  0  0
   13.9747   -3.6437    0.5236 O   0  0  0  1  0  0  0  0  0  0  0  0
   14.1469   -3.7227   -0.4175 H   0  0  0  1  0  0  0  0  0  0  0  0
    9.7893   -0.9069    0.1697 O   0  0  0  1  0  0  0  0  0  0  0  0
    7.8567    0.9015    0.3914 O   0  0  0  0  0  0  0  0  0  0  0  0
    8.4772   -0.3138   -1.8255 O   0  0  0  1  0  0  0  0  0  0  0  0
    9.0228    0.3192   -0.6040 P   0  0  0  1  0  0  0  0  0  0  0  0
   10.1275    1.4567   -0.9357 O   0  5  0  1  0  0  0  0  0  0  0  0
  1  2  1  0  0  0  0
  1  3  1  0  0  0  0
  1  7  1  0  0  0  0
  1 20  1  0  0  0  0
  3  4  1  0  0  0  0
  3  5  1  0  0  0  0
  3  9  1  0  0  0  0
  5  6  1  0  0  0  0
  5 11  1  0  0  0  0
  5 12  1  0  0  0  0
  7  8  1  0  0  0  0
  9 10  1  0  0  0  0
 11 20  1  0  0  0  0
 12 13  1  0  0  0  0
 12 14  1  0  0  0  0
 12 23  1  0  0  0  0
 15 16  1  0  0  0  0
 15 17  1  0  0  0  0
 15 18  1  0  0  0  0
 15 20  1  0  0  0  0
 18 19  1  0  0  0  0
 20 21  1  0  0  0  0
 21 22  1  0  0  0  0
 23 26  1  0  0  0  0
 24 26  1  0  0  0  0
 25 26  2  0  0  0  0
 26 27  1  0  0  0  0
M  BCL ATM C_TeTeTeTe H_S C_TeTeTeTe H_S C_TeTeTeTe H_S O_Te2Te2TeTe H_S O_Te2Te2TeTe H_S O_Te2Te2TeTe C_TeTeTeTe H_S H_S C_TeTeTeTe H_S H_S O_Te2Te2TeTe H_S C_TeTeTeTe O_Te2Te2TeTe H_S O_Tr2TrTrPi2 O_Te2Te2TeTe O_Tr2Tr2TrPi P_TeTeTeTePi O_Te2Te2Te2Te
M  BCL BND NonConjugatedSingleBond NonConjugatedSingleBondInRing NonConjugatedSingleBond NonConjugatedSingleBondInRing NonConjugatedSingleBond NonConjugatedSingleBondInRing NonConjugatedSingleBond NonConjugatedSingleBond NonConjugatedSingleBondInRing NonConjugatedSingleBond NonConjugatedSingleBond NonConjugatedSingleBond NonConjugatedSingleBondInRing NonConjugatedSingleBond NonConjugatedSingleBond NonConjugatedSingleBond NonConjugatedSingleBond NonConjugatedSingleBond NonConjugatedSingleBond NonConjugatedSingleBond NonConjugatedSingleBond NonConjugatedSingleBond NonConjugatedSingleBond ConjugatedSingleBond ConjugatedSingleBond ConjugatedDoubleBond ConjugatedSingleBond
M  BCL CHI   1   S   3   R   5   R  20   R  26   R
M  BCL DBI -
M  END
> <ConfClashScore>
0 

> <ConfOneFourInteractionScore>
-0.983026 

> <ConfScore>
-0.0930225 

> <ConfScorePBest>
0.00665247 

> <ConfTolerance>
0.769614 

$$$$
L08.****
  PyMOL2.5          3D                             0

 27 27  0  0  0  0  0  0  0  0999 V2000
   11.9146   -4.8608   -0.0459 C   0  0  0  1  0  0  0  0  0  0  0  0
   12.4511   -5.3130   -0.8537 H   0  0  0  1  0  0  0  0  0  0  0  0
   10.7000   -4.3034   -0.5262 C   0  0  0  1  0  0  0  0  0  0  0  0
   10.6158   -4.4700   -1.5798 H   0  0  0  1  0  0  0  0  0  0  0  0
   10.7211   -2.9097   -0.2595 C   0  0  0  1  0  0  0  0  0  0  0  0
   10.6477   -2.3637   -1.1767 H   0  0  0  1  0  0  0  0  0  0  0  0
   11.6353   -5.8453    0.9516 O   0  0  0  1  0  0  0  0  0  0  0  0
   11.9571   -6.7004    0.6567 H   0  0  0  1  0  0  0  0  0  0  0  0
    9.5917   -4.9078    0.1423 O   0  0  0  1  0  0  0  0  0  0  0  0
    8.8012   -4.8078   -0.3931 H   0  0  0  1  0  0  0  0  0  0  0  0
   11.9491   -2.6035    0.3865 O   0  0  0  1  0  0  0  0  0  0  0  0
    9.6076   -2.5566    0.6058 C   0  0  0  1  0  0  0  0  0  0  0  0
    9.5621   -3.2622    1.4089 H   0  0  0  1  0  0  0  0  0  0  0  0
    8.7034   -2.6054    0.0359 H   0  0  0  1  0  0  0  0  0  0  0  0
   12.9492   -4.0905    1.9690 C   0  0  0  1  0  0  0  0  0  0  0  0
   13.6203   -3.3478    2.3471 H   0  0  0  1  0  0  0  0  0  0  0  0
   12.0226   -4.0389    2.5015 H   0  0  0  1  0  0  0  0  0  0  0  0
   13.5244   -5.3735    2.1778 O   0  0  0  1  0  0  0  0  0  0  0  0
   13.7114   -5.7828    1.3298 H   0  0  0  1  0  0  0  0  0  0  0  0
   12.6871   -3.8089    0.5175 C   0  0  0  1  0  0  0  0  0  0  0  0
   13.9135   -3.6957   -0.1689 O   0  0  0  1  0  0  0  0  0  0  0  0
   14.2044   -4.5661   -0.4510 H   0  0  0  1  0  0  0  0  0  0  0  0
    9.7300   -1.2276    1.1649 O   0  0  0  1  0  0  0  0  0  0  0  0
    8.9787    1.3417    1.5844 O   0  0  0  0  0  0  0  0  0  0  0  0
    7.2304   -0.5095    0.9473 O   0  0  0  1  0  0  0  0  0  0  0  0
    8.6340   -0.0611    0.8079 P   0  0  0  1  0  0  0  0  0  0  0  0
    8.9055    0.4245   -0.7136 O   0  5  0  1  0  0  0  0  0  0  0  0
  1  2  1  0  0  0  0
  1  3  1  0  0  0  0
  1  7  1  0  0  0  0
  1 20  1  0  0  0  0
  3  4  1  0  0  0  0
  3  5  1  0  0  0  0
  3  9  1  0  0  0  0
  5  6  1  0  0  0  0
  5 11  1  0  0  0  0
  5 12  1  0  0  0  0
  7  8  1  0  0  0  0
  9 10  1  0  0  0  0
 11 20  1  0  0  0  0
 12 13  1  0  0  0  0
 12 14  1  0  0  0  0
 12 23  1  0  0  0  0
 15 16  1  0  0  0  0
 15 17  1  0  0  0  0
 15 18  1  0  0  0  0
 15 20  1  0  0  0  0
 18 19  1  0  0  0  0
 20 21  1  0  0  0  0
 21 22  1  0  0  0  0
 23 26  1  0  0  0  0
 24 26  1  0  0  0  0
 25 26  2  0  0  0  0
 26 27  1  0  0  0  0
M  BCL ATM C_TeTeTeTe H_S C_TeTeTeTe H_S C_TeTeTeTe H_S O_Te2Te2TeTe H_S O_Te2Te2TeTe H_S O_Te2Te2TeTe C_TeTeTeTe H_S H_S C_TeTeTeTe H_S H_S O_Te2Te2TeTe H_S C_TeTeTeTe O_Te2Te2TeTe H_S O_Tr2TrTrPi2 O_Te2Te2TeTe O_Tr2Tr2TrPi P_TeTeTeTePi O_Te2Te2Te2Te
M  BCL BND NonConjugatedSingleBond NonConjugatedSingleBondInRing NonConjugatedSingleBond NonConjugatedSingleBondInRing NonConjugatedSingleBond NonConjugatedSingleBondInRing NonConjugatedSingleBond NonConjugatedSingleBond NonConjugatedSingleBondInRing NonConjugatedSingleBond NonConjugatedSingleBond NonConjugatedSingleBond NonConjugatedSingleBondInRing NonConjugatedSingleBond NonConjugatedSingleBond NonConjugatedSingleBond NonConjugatedSingleBond NonConjugatedSingleBond NonConjugatedSingleBond NonConjugatedSingleBond NonConjugatedSingleBond NonConjugatedSingleBond NonConjugatedSingleBond ConjugatedSingleBond ConjugatedSingleBond ConjugatedDoubleBond ConjugatedSingleBond
M  BCL CHI   1   S   3   R   5   R  20   R  26   R
M  BCL DBI -
M  END
> <ConfClashScore>
0 

> <ConfOneFourInteractionScore>
-0.982705 

> <ConfScore>
-0.08797 

> <ConfScorePBest>
0.00654947 

> <ConfTolerance>
0.674412 

$$$$
L08.****
  PyMOL2.5          3D                             0

 27 27  0  0  0  0  0  0  0  0999 V2000
   11.7439   -5.0274   -0.0344 C   0  0  0  1  0  0  0  0  0  0  0  0
   12.1510   -5.7535   -0.7067 H   0  0  0  1  0  0  0  0  0  0  0  0
   10.7483   -4.1239   -0.7423 C   0  0  0  1  0  0  0  0  0  0  0  0
   11.0458   -3.9317   -1.7520 H   0  0  0  1  0  0  0  0  0  0  0  0
   10.8180   -2.8642    0.1047 C   0  0  0  1  0  0  0  0  0  0  0  0
   10.5299   -2.0092   -0.4706 H   0  0  0  1  0  0  0  0  0  0  0  0
   11.1371   -5.6920    1.0748 O   0  0  0  1  0  0  0  0  0  0  0  0
   11.2244   -6.6418    0.9662 H   0  0  0  1  0  0  0  0  0  0  0  0
    9.4355   -4.6865   -0.7309 O   0  0  0  1  0  0  0  0  0  0  0  0
    9.4892   -5.6210   -0.5179 H   0  0  0  1  0  0  0  0  0  0  0  0
   12.1875   -2.7581    0.5096 O   0  0  0  1  0  0  0  0  0  0  0  0
    9.9277   -2.9857    1.2974 C   0  0  0  1  0  0  0  0  0  0  0  0
    9.9621   -2.0832    1.8712 H   0  0  0  1  0  0  0  0  0  0  0  0
   10.2430   -3.8078    1.9053 H   0  0  0  1  0  0  0  0  0  0  0  0
   13.3301   -4.4614    1.7774 C   0  0  0  1  0  0  0  0  0  0  0  0
   12.5061   -4.5308    2.4565 H   0  0  0  1  0  0  0  0  0  0  0  0
   13.8014   -5.4179    1.6888 H   0  0  0  1  0  0  0  0  0  0  0  0
   14.2729   -3.5352    2.2977 O   0  0  0  1  0  0  0  0  0  0  0  0
   15.1569   -3.7891    2.0227 H   0  0  0  1  0  0  0  0  0  0  0  0
   12.8100   -4.0539    0.4289 C   0  0  0  1  0  0  0  0  0  0  0  0
   13.8736   -4.0237   -0.4963 O   0  0  0  1  0  0  0  0  0  0  0  0
   13.8943   -3.1691   -0.9331 H   0  0  0  1  0  0  0  0  0  0  0  0
    8.5813   -3.2144    0.8191 O   0  0  0  1  0  0  0  0  0  0  0  0
    6.2900   -2.4136   -0.3202 O   0  0  0  0  0  0  0  0  0  0  0  0
    8.1727   -0.7336    0.1976 O   0  0  0  1  0  0  0  0  0  0  0  0
    7.5190   -1.9736    0.6726 P   0  0  0  1  0  0  0  0  0  0  0  0
    6.8114   -1.7584    2.1139 O   0  5  0  1  0  0  0  0  0  0  0  0
  1  2  1  0  0  0  0
  1  3  1  0  0  0  0
  1  7  1  0  0  0  0
  1 20  1  0  0  0  0
  3  4  1  0  0  0  0
  3  5  1  0  0  0  0
  3  9  1  0  0  0  0
  5  6  1  0  0  0  0
  5 11  1  0  0  0  0
  5 12  1  0  0  0  0
  7  8  1  0  0  0  0
  9 10  1  0  0  0  0
 11 20  1  0  0  0  0
 12 13  1  0  0  0  0
 12 14  1  0  0  0  0
 12 23  1  0  0  0  0
 15 16  1  0  0  0  0
 15 17  1  0  0  0  0
 15 18  1  0  0  0  0
 15 20  1  0  0  0  0
 18 19  1  0  0  0  0
 20 21  1  0  0  0  0
 21 22  1  0  0  0  0
 23 26  1  0  0  0  0
 24 26  1  0  0  0  0
 25 26  2  0  0  0  0
 26 27  1  0  0  0  0
M  BCL ATM C_TeTeTeTe H_S C_TeTeTeTe H_S C_TeTeTeTe H_S O_Te2Te2TeTe H_S O_Te2Te2TeTe H_S O_Te2Te2TeTe C_TeTeTeTe H_S H_S C_TeTeTeTe H_S H_S O_Te2Te2TeTe H_S C_TeTeTeTe O_Te2Te2TeTe H_S O_Tr2TrTrPi2 O_Te2Te2TeTe O_Tr2Tr2TrPi P_TeTeTeTePi O_Te2Te2Te2Te
M  BCL BND NonConjugatedSingleBond NonConjugatedSingleBondInRing NonConjugatedSingleBond NonConjugatedSingleBondInRing NonConjugatedSingleBond NonConjugatedSingleBondInRing NonConjugatedSingleBond NonConjugatedSingleBond NonConjugatedSingleBondInRing NonConjugatedSingleBond NonConjugatedSingleBond NonConjugatedSingleBond NonConjugatedSingleBondInRing NonConjugatedSingleBond NonConjugatedSingleBond NonConjugatedSingleBond NonConjugatedSingleBond NonConjugatedSingleBond NonConjugatedSingleBond NonConjugatedSingleBond NonConjugatedSingleBond NonConjugatedSingleBond NonConjugatedSingleBond ConjugatedSingleBond ConjugatedSingleBond ConjugatedDoubleBond ConjugatedSingleBond
M  BCL CHI   1   S   3   R   5   R  20   R  26   R
M  BCL DBI -
M  END
> <ConfClashScore>
0 

> <ConfOneFourInteractionScore>
-0.983447 

> <ConfScore>
-0.0835411 

> <ConfScorePBest>
0.00644647 

> <ConfTolerance>
0.693707 

$$$$
L08.****
  PyMOL2.5          3D                             0

 27 27  0  0  0  0  0  0  0  0999 V2000
   12.1027   -4.9029   -0.2863 C   0  0  0  1  0  0  0  0  0  0  0  0
   12.7578   -4.8301   -1.1292 H   0  0  0  1  0  0  0  0  0  0  0  0
   10.6981   -4.4955   -0.6577 C   0  0  0  1  0  0  0  0  0  0  0  0
   10.4632   -4.7850   -1.6607 H   0  0  0  1  0  0  0  0  0  0  0  0
   10.7522   -2.9923   -0.5210 C   0  0  0  1  0  0  0  0  0  0  0  0
   11.1184   -2.5464   -1.4221 H   0  0  0  1  0  0  0  0  0  0  0  0
   12.1296   -6.2365    0.2246 O   0  0  0  1  0  0  0  0  0  0  0  0
   11.2346   -6.5809    0.2686 H   0  0  0  1  0  0  0  0  0  0  0  0
    9.7412   -5.0622    0.2386 O   0  0  0  1  0  0  0  0  0  0  0  0
    9.5816   -4.4535    0.9637 H   0  0  0  1  0  0  0  0  0  0  0  0
   11.6594   -2.7459    0.5690 O   0  0  0  1  0  0  0  0  0  0  0  0
    9.3829   -2.4396   -0.2055 C   0  0  0  1  0  0  0  0  0  0  0  0
    9.4262   -1.3763   -0.0940 H   0  0  0  1  0  0  0  0  0  0  0  0
    9.0015   -2.8778    0.6931 H   0  0  0  1  0  0  0  0  0  0  0  0
   12.2289   -4.4798    2.1485 C   0  0  0  1  0  0  0  0  0  0  0  0
   11.1719   -4.5656    2.2912 H   0  0  0  1  0  0  0  0  0  0  0  0
   12.6764   -5.4502    2.2015 H   0  0  0  1  0  0  0  0  0  0  0  0
   12.7654   -3.6727    3.1884 O   0  0  0  1  0  0  0  0  0  0  0  0
   12.2784   -3.8308    4.0005 H   0  0  0  1  0  0  0  0  0  0  0  0
   12.4859   -3.9045    0.7855 C   0  0  0  1  0  0  0  0  0  0  0  0
   13.8485   -3.5612    0.6688 O   0  0  0  1  0  0  0  0  0  0  0  0
   14.1617   -3.7868   -0.2102 H   0  0  0  1  0  0  0  0  0  0  0  0
    8.5495   -2.7954   -1.3339 O   0  0  0  1  0  0  0  0  0  0  0  0
    8.3368   -3.0383   -3.9720 O   0  0  0  0  0  0  0  0  0  0  0  0
    9.9814   -1.4021   -3.1181 O   0  0  0  1  0  0  0  0  0  0  0  0
    8.6717   -1.9892   -2.7567 P   0  0  0  1  0  0  0  0  0  0  0  0
    7.4888   -0.8824   -2.7768 O   0  5  0  1  0  0  0  0  0  0  0  0
  1  2  1  0  0  0  0
  1  3  1  0  0  0  0
  1  7  1  0  0  0  0
  1 20  1  0  0  0  0
  3  4  1  0  0  0  0
  3  5  1  0  0  0  0
  3  9  1  0  0  0  0
  5  6  1  0  0  0  0
  5 11  1  0  0  0  0
  5 12  1  0  0  0  0
  7  8  1  0  0  0  0
  9 10  1  0  0  0  0
 11 20  1  0  0  0  0
 12 13  1  0  0  0  0
 12 14  1  0  0  0  0
 12 23  1  0  0  0  0
 15 16  1  0  0  0  0
 15 17  1  0  0  0  0
 15 18  1  0  0  0  0
 15 20  1  0  0  0  0
 18 19  1  0  0  0  0
 20 21  1  0  0  0  0
 21 22  1  0  0  0  0
 23 26  1  0  0  0  0
 24 26  1  0  0  0  0
 25 26  2  0  0  0  0
 26 27  1  0  0  0  0
M  BCL ATM C_TeTeTeTe H_S C_TeTeTeTe H_S C_TeTeTeTe H_S O_Te2Te2TeTe H_S O_Te2Te2TeTe H_S O_Te2Te2TeTe C_TeTeTeTe H_S H_S C_TeTeTeTe H_S H_S O_Te2Te2TeTe H_S C_TeTeTeTe O_Te2Te2TeTe H_S O_Tr2TrTrPi2 O_Te2Te2TeTe O_Tr2Tr2TrPi P_TeTeTeTePi O_Te2Te2Te2Te
M  BCL BND NonConjugatedSingleBond NonConjugatedSingleBondInRing NonConjugatedSingleBond NonConjugatedSingleBondInRing NonConjugatedSingleBond NonConjugatedSingleBondInRing NonConjugatedSingleBond NonConjugatedSingleBond NonConjugatedSingleBondInRing NonConjugatedSingleBond NonConjugatedSingleBond NonConjugatedSingleBond NonConjugatedSingleBondInRing NonConjugatedSingleBond NonConjugatedSingleBond NonConjugatedSingleBond NonConjugatedSingleBond NonConjugatedSingleBond NonConjugatedSingleBond NonConjugatedSingleBond NonConjugatedSingleBond NonConjugatedSingleBond NonConjugatedSingleBond ConjugatedSingleBond ConjugatedSingleBond ConjugatedDoubleBond ConjugatedSingleBond
M  BCL CHI   1   S   3   R   5   R  20   R  26   R
M  BCL DBI -
M  END
> <ConfClashScore>
0 

> <ConfOneFourInteractionScore>
-0.983447 

> <ConfScore>
-0.0818728 

> <ConfScorePBest>
0.00634346 

> <ConfTolerance>
0.772671 

$$$$
L08.****
  PyMOL2.5          3D                             0

 27 27  0  0  0  0  0  0  0  0999 V2000
   11.9737   -4.9702   -0.2992 C   0  0  0  1  0  0  0  0  0  0  0  0
   12.4501   -5.0760   -1.2515 H   0  0  0  1  0  0  0  0  0  0  0  0
   10.5808   -4.4105   -0.4518 C   0  0  0  1  0  0  0  0  0  0  0  0
   10.1169   -4.7652   -1.3484 H   0  0  0  1  0  0  0  0  0  0  0  0
   10.8370   -2.9235   -0.5201 C   0  0  0  1  0  0  0  0  0  0  0  0
   11.0644   -2.6276   -1.5230 H   0  0  0  1  0  0  0  0  0  0  0  0
   11.9463   -6.2352    0.3634 O   0  0  0  1  0  0  0  0  0  0  0  0
   11.2349   -6.7701    0.0036 H   0  0  0  1  0  0  0  0  0  0  0  0
    9.7638   -4.7433    0.6715 O   0  0  0  1  0  0  0  0  0  0  0  0
    8.9282   -5.1028    0.3648 H   0  0  0  1  0  0  0  0  0  0  0  0
   11.9672   -2.6964    0.3417 O   0  0  0  1  0  0  0  0  0  0  0  0
    9.6467   -2.1641   -0.0340 C   0  0  0  1  0  0  0  0  0  0  0  0
    9.5172   -1.2768   -0.6179 H   0  0  0  1  0  0  0  0  0  0  0  0
    9.7786   -1.8990    0.9942 H   0  0  0  1  0  0  0  0  0  0  0  0
   12.6353   -4.3224    1.9956 C   0  0  0  1  0  0  0  0  0  0  0  0
   13.1319   -5.2613    2.1254 H   0  0  0  1  0  0  0  0  0  0  0  0
   13.1274   -3.5741    2.5811 H   0  0  0  1  0  0  0  0  0  0  0  0
   11.2835   -4.4404    2.4191 O   0  0  0  1  0  0  0  0  0  0  0  0
   10.7709   -3.7116    2.0617 H   0  0  0  1  0  0  0  0  0  0  0  0
   12.6789   -3.9309    0.5466 C   0  0  0  1  0  0  0  0  0  0  0  0
   14.0209   -3.7952    0.1358 O   0  0  0  1  0  0  0  0  0  0  0  0
   14.5015   -3.2699    0.7797 H   0  0  0  1  0  0  0  0  0  0  0  0
    8.4983   -3.0153   -0.1763 O   0  0  0  1  0  0  0  0  0  0  0  0
    6.9487   -2.1303    1.8283 O   0  0  0  0  0  0  0  0  0  0  0  0
    5.9070   -3.6269    0.0213 O   0  0  0  1  0  0  0  0  0  0  0  0
    6.9678   -2.6239    0.2644 P   0  0  0  1  0  0  0  0  0  0  0  0
    6.5717   -1.2643   -0.5224 O   0  5  0  1  0  0  0  0  0  0  0  0
  1  2  1  0  0  0  0
  1  3  1  0  0  0  0
  1  7  1  0  0  0  0
  1 20  1  0  0  0  0
  3  4  1  0  0  0  0
  3  5  1  0  0  0  0
  3  9  1  0  0  0  0
  5  6  1  0  0  0  0
  5 11  1  0  0  0  0
  5 12  1  0  0  0  0
  7  8  1  0  0  0  0
  9 10  1  0  0  0  0
 11 20  1  0  0  0  0
 12 13  1  0  0  0  0
 12 14  1  0  0  0  0
 12 23  1  0  0  0  0
 15 16  1  0  0  0  0
 15 17  1  0  0  0  0
 15 18  1  0  0  0  0
 15 20  1  0  0  0  0
 18 19  1  0  0  0  0
 20 21  1  0  0  0  0
 21 22  1  0  0  0  0
 23 26  1  0  0  0  0
 24 26  1  0  0  0  0
 25 26  2  0  0  0  0
 26 27  1  0  0  0  0
M  BCL ATM C_TeTeTeTe H_S C_TeTeTeTe H_S C_TeTeTeTe H_S O_Te2Te2TeTe H_S O_Te2Te2TeTe H_S O_Te2Te2TeTe C_TeTeTeTe H_S H_S C_TeTeTeTe H_S H_S O_Te2Te2TeTe H_S C_TeTeTeTe O_Te2Te2TeTe H_S O_Tr2TrTrPi2 O_Te2Te2TeTe O_Tr2Tr2TrPi P_TeTeTeTePi O_Te2Te2Te2Te
M  BCL BND NonConjugatedSingleBond NonConjugatedSingleBondInRing NonConjugatedSingleBond NonConjugatedSingleBondInRing NonConjugatedSingleBond NonConjugatedSingleBondInRing NonConjugatedSingleBond NonConjugatedSingleBond NonConjugatedSingleBondInRing NonConjugatedSingleBond NonConjugatedSingleBond NonConjugatedSingleBond NonConjugatedSingleBondInRing NonConjugatedSingleBond NonConjugatedSingleBond NonConjugatedSingleBond NonConjugatedSingleBond NonConjugatedSingleBond NonConjugatedSingleBond NonConjugatedSingleBond NonConjugatedSingleBond NonConjugatedSingleBond NonConjugatedSingleBond ConjugatedSingleBond ConjugatedSingleBond ConjugatedDoubleBond ConjugatedSingleBond
M  BCL CHI   1   S   3   R   5   R  20   R  26   R
M  BCL DBI -
M  END
> <ConfClashScore>
0 

> <ConfOneFourInteractionScore>
-0.976768 

> <ConfScore>
-0.0786105 

> <ConfScorePBest>
0.00624046 

> <ConfTolerance>
0.720542 

$$$$
L08.****
  PyMOL2.5          3D                             0

 27 27  0  0  0  0  0  0  0  0999 V2000
   11.8626   -4.9638   -0.1587 C   0  0  0  1  0  0  0  0  0  0  0  0
   12.4324   -5.2245   -1.0260 H   0  0  0  1  0  0  0  0  0  0  0  0
   10.6067   -4.2989   -0.5408 C   0  0  0  1  0  0  0  0  0  0  0  0
   10.3023   -4.6077   -1.5190 H   0  0  0  1  0  0  0  0  0  0  0  0
   10.9117   -2.8387   -0.5257 C   0  0  0  1  0  0  0  0  0  0  0  0
   10.9322   -2.4581   -1.5255 H   0  0  0  1  0  0  0  0  0  0  0  0
   11.5995   -6.1386    0.6099 O   0  0  0  1  0  0  0  0  0  0  0  0
   11.7279   -6.9159    0.0612 H   0  0  0  1  0  0  0  0  0  0  0  0
    9.5744   -4.6035    0.3982 O   0  0  0  1  0  0  0  0  0  0  0  0
    9.2208   -5.4768    0.2137 H   0  0  0  1  0  0  0  0  0  0  0  0
   12.2000   -2.6820    0.0868 O   0  0  0  1  0  0  0  0  0  0  0  0
    9.8768   -2.1079    0.2647 C   0  0  0  1  0  0  0  0  0  0  0  0
    9.6825   -2.6278    1.1795 H   0  0  0  1  0  0  0  0  0  0  0  0
    8.9722   -2.0315   -0.3017 H   0  0  0  1  0  0  0  0  0  0  0  0
   12.1617   -4.0231    2.1016 C   0  0  0  1  0  0  0  0  0  0  0  0
   11.1023   -3.8889    2.1680 H   0  0  0  1  0  0  0  0  0  0  0  0
   12.4259   -4.9812    2.4981 H   0  0  0  1  0  0  0  0  0  0  0  0
   12.8159   -3.0038    2.8512 O   0  0  0  1  0  0  0  0  0  0  0  0
   12.9339   -2.2266    2.3003 H   0  0  0  1  0  0  0  0  0  0  0  0
   12.5857   -3.9441    0.6632 C   0  0  0  1  0  0  0  0  0  0  0  0
   13.9807   -4.1283    0.5729 O   0  0  0  1  0  0  0  0  0  0  0  0
   14.3712   -3.3911    0.0979 H   0  0  0  1  0  0  0  0  0  0  0  0
   10.3932   -0.7864    0.5491 O   0  0  0  1  0  0  0  0  0  0  0  0
   11.1895    1.1519    2.0345 O   0  0  0  0  0  0  0  0  0  0  0  0
   10.8492   -1.1268    3.0916 O   0  0  0  1  0  0  0  0  0  0  0  0
   10.2772   -0.2102    2.0801 P   0  0  0  1  0  0  0  0  0  0  0  0
    8.7707    0.2156    2.4966 O   0  5  0  1  0  0  0  0  0  0  0  0
  1  2  1  0  0  0  0
  1  3  1  0  0  0  0
  1  7  1  0  0  0  0
  1 20  1  0  0  0  0
  3  4  1  0  0  0  0
  3  5  1  0  0  0  0
  3  9  1  0  0  0  0
  5  6  1  0  0  0  0
  5 11  1  0  0  0  0
  5 12  1  0  0  0  0
  7  8  1  0  0  0  0
  9 10  1  0  0  0  0
 11 20  1  0  0  0  0
 12 13  1  0  0  0  0
 12 14  1  0  0  0  0
 12 23  1  0  0  0  0
 15 16  1  0  0  0  0
 15 17  1  0  0  0  0
 15 18  1  0  0  0  0
 15 20  1  0  0  0  0
 18 19  1  0  0  0  0
 20 21  1  0  0  0  0
 21 22  1  0  0  0  0
 23 26  1  0  0  0  0
 24 26  1  0  0  0  0
 25 26  2  0  0  0  0
 26 27  1  0  0  0  0
M  BCL ATM C_TeTeTeTe H_S C_TeTeTeTe H_S C_TeTeTeTe H_S O_Te2Te2TeTe H_S O_Te2Te2TeTe H_S O_Te2Te2TeTe C_TeTeTeTe H_S H_S C_TeTeTeTe H_S H_S O_Te2Te2TeTe H_S C_TeTeTeTe O_Te2Te2TeTe H_S O_Tr2TrTrPi2 O_Te2Te2TeTe O_Tr2Tr2TrPi P_TeTeTeTePi O_Te2Te2Te2Te
M  BCL BND NonConjugatedSingleBond NonConjugatedSingleBondInRing NonConjugatedSingleBond NonConjugatedSingleBondInRing NonConjugatedSingleBond NonConjugatedSingleBondInRing NonConjugatedSingleBond NonConjugatedSingleBond NonConjugatedSingleBondInRing NonConjugatedSingleBond NonConjugatedSingleBond NonConjugatedSingleBond NonConjugatedSingleBondInRing NonConjugatedSingleBond NonConjugatedSingleBond NonConjugatedSingleBond NonConjugatedSingleBond NonConjugatedSingleBond NonConjugatedSingleBond NonConjugatedSingleBond NonConjugatedSingleBond NonConjugatedSingleBond NonConjugatedSingleBond ConjugatedSingleBond ConjugatedSingleBond ConjugatedDoubleBond ConjugatedSingleBond
M  BCL CHI   1   S   3   R   5   R  20   R  26   R
M  BCL DBI -
M  END
> <ConfClashScore>
0 

> <ConfOneFourInteractionScore>
-0.983483 

> <ConfScore>
-0.0755129 

> <ConfScorePBest>
0.00613746 

> <ConfTolerance>
0.625488 

$$$$
L08.****
  PyMOL2.5          3D                             0

 27 27  0  0  0  0  0  0  0  0999 V2000
   11.8891   -4.8979   -0.1338 C   0  0  0  1  0  0  0  0  0  0  0  0
   12.4497   -5.2754   -0.9633 H   0  0  0  1  0  0  0  0  0  0  0  0
   10.6953   -4.2846   -0.5980 C   0  0  0  1  0  0  0  0  0  0  0  0
   10.6458   -4.3482   -1.6649 H   0  0  0  1  0  0  0  0  0  0  0  0
   10.7167   -2.9234   -0.1973 C   0  0  0  1  0  0  0  0  0  0  0  0
   10.6782   -2.2909   -1.0595 H   0  0  0  1  0  0  0  0  0  0  0  0
   11.5719   -5.9630    0.7474 O   0  0  0  1  0  0  0  0  0  0  0  0
   12.3823   -6.3618    1.0728 H   0  0  0  1  0  0  0  0  0  0  0  0
    9.5605   -4.9399   -0.0279 O   0  0  0  1  0  0  0  0  0  0  0  0
    8.7641   -4.6545   -0.4818 H   0  0  0  1  0  0  0  0  0  0  0  0
   11.9241   -2.6931    0.5156 O   0  0  0  1  0  0  0  0  0  0  0  0
    9.5458   -2.6367    0.6841 C   0  0  0  1  0  0  0  0  0  0  0  0
    8.6359   -2.7852    0.1410 H   0  0  0  1  0  0  0  0  0  0  0  0
    9.5920   -1.6266    1.0342 H   0  0  0  1  0  0  0  0  0  0  0  0
   12.8599   -4.3356    1.9792 C   0  0  0  1  0  0  0  0  0  0  0  0
   11.9298   -4.6637    2.3941 H   0  0  0  1  0  0  0  0  0  0  0  0
   13.5679   -5.1372    2.0115 H   0  0  0  1  0  0  0  0  0  0  0  0
   13.3539   -3.2383    2.7359 O   0  0  0  1  0  0  0  0  0  0  0  0
   12.9955   -2.4198    2.3849 H   0  0  0  1  0  0  0  0  0  0  0  0
   12.6491   -3.9129    0.5538 C   0  0  0  1  0  0  0  0  0  0  0  0
   13.8989   -3.7464   -0.0774 O   0  0  0  1  0  0  0  0  0  0  0  0
   14.1151   -4.5389   -0.5742 H   0  0  0  1  0  0  0  0  0  0  0  0
    9.6050   -3.5433    1.7968 O   0  0  0  1  0  0  0  0  0  0  0  0
    9.5779   -4.5048    4.1973 O   0  0  0  0  0  0  0  0  0  0  0  0
    8.7283   -2.1355    3.7164 O   0  0  0  1  0  0  0  0  0  0  0  0
    9.7891   -3.1065    3.3668 P   0  0  0  1  0  0  0  0  0  0  0  0
   11.2878   -2.5196    3.5512 O   0  5  0  1  0  0  0  0  0  0  0  0
  1  2  1  0  0  0  0
  1  3  1  0  0  0  0
  1  7  1  0  0  0  0
  1 20  1  0  0  0  0
  3  4  1  0  0  0  0
  3  5  1  0  0  0  0
  3  9  1  0  0  0  0
  5  6  1  0  0  0  0
  5 11  1  0  0  0  0
  5 12  1  0  0  0  0
  7  8  1  0  0  0  0
  9 10  1  0  0  0  0
 11 20  1  0  0  0  0
 12 13  1  0  0  0  0
 12 14  1  0  0  0  0
 12 23  1  0  0  0  0
 15 16  1  0  0  0  0
 15 17  1  0  0  0  0
 15 18  1  0  0  0  0
 15 20  1  0  0  0  0
 18 19  1  0  0  0  0
 20 21  1  0  0  0  0
 21 22  1  0  0  0  0
 23 26  1  0  0  0  0
 24 26  1  0  0  0  0
 25 26  2  0  0  0  0
 26 27  1  0  0  0  0
M  BCL ATM C_TeTeTeTe H_S C_TeTeTeTe H_S C_TeTeTeTe H_S O_Te2Te2TeTe H_S O_Te2Te2TeTe H_S O_Te2Te2TeTe C_TeTeTeTe H_S H_S C_TeTeTeTe H_S H_S O_Te2Te2TeTe H_S C_TeTeTeTe O_Te2Te2TeTe H_S O_Tr2TrTrPi2 O_Te2Te2TeTe O_Tr2Tr2TrPi P_TeTeTeTePi O_Te2Te2Te2Te
M  BCL BND NonConjugatedSingleBond NonConjugatedSingleBondInRing NonConjugatedSingleBond NonConjugatedSingleBondInRing NonConjugatedSingleBond NonConjugatedSingleBondInRing NonConjugatedSingleBond NonConjugatedSingleBond NonConjugatedSingleBondInRing NonConjugatedSingleBond NonConjugatedSingleBond NonConjugatedSingleBond NonConjugatedSingleBondInRing NonConjugatedSingleBond NonConjugatedSingleBond NonConjugatedSingleBond NonConjugatedSingleBond NonConjugatedSingleBond NonConjugatedSingleBond NonConjugatedSingleBond NonConjugatedSingleBond NonConjugatedSingleBond NonConjugatedSingleBond ConjugatedSingleBond ConjugatedSingleBond ConjugatedDoubleBond ConjugatedSingleBond
M  BCL CHI   1   S   3   R   5   R  20   R  26   R
M  BCL DBI -
M  END
> <ConfClashScore>
6.48036e-05 

> <ConfOneFourInteractionScore>
-0.992569 

> <ConfScore>
-0.069727 

> <ConfScorePBest>
0.00603446 

> <ConfTolerance>
0.680681 

$$$$
L08.****
  PyMOL2.5          3D                             0

 27 27  0  0  0  0  0  0  0  0999 V2000
   11.8504   -4.9783   -0.3833 C   0  0  0  1  0  0  0  0  0  0  0  0
   12.3397   -5.1770   -1.3139 H   0  0  0  1  0  0  0  0  0  0  0  0
   10.5534   -4.2672   -0.6163 C   0  0  0  1  0  0  0  0  0  0  0  0
   10.2984   -4.2739   -1.6555 H   0  0  0  1  0  0  0  0  0  0  0  0
   10.8100   -2.8695   -0.1413 C   0  0  0  1  0  0  0  0  0  0  0  0
   11.1306   -2.2540   -0.9557 H   0  0  0  1  0  0  0  0  0  0  0  0
   11.6276   -6.2071    0.3100 O   0  0  0  1  0  0  0  0  0  0  0  0
   11.3372   -6.0213    1.2060 H   0  0  0  1  0  0  0  0  0  0  0  0
    9.5015   -4.8728    0.1366 O   0  0  0  1  0  0  0  0  0  0  0  0
    9.3306   -5.7542   -0.2032 H   0  0  0  1  0  0  0  0  0  0  0  0
   11.8325   -2.9654    0.8334 O   0  0  0  1  0  0  0  0  0  0  0  0
    9.5866   -2.2993    0.4552 C   0  0  0  1  0  0  0  0  0  0  0  0
    8.8150   -2.2683   -0.2854 H   0  0  0  1  0  0  0  0  0  0  0  0
    9.7918   -1.3070    0.7990 H   0  0  0  1  0  0  0  0  0  0  0  0
   13.1754   -4.7662    1.6719 C   0  0  0  1  0  0  0  0  0  0  0  0
   13.8627   -4.1357    2.1963 H   0  0  0  1  0  0  0  0  0  0  0  0
   12.3498   -5.0030    2.3100 H   0  0  0  1  0  0  0  0  0  0  0  0
   13.8340   -5.9655    1.2867 O   0  0  0  1  0  0  0  0  0  0  0  0
   14.1583   -6.4184    2.0686 H   0  0  0  1  0  0  0  0  0  0  0  0
   12.6733   -4.0505    0.4510 C   0  0  0  1  0  0  0  0  0  0  0  0
   13.7682   -3.5716   -0.2974 O   0  0  0  1  0  0  0  0  0  0  0  0
   14.5312   -3.4749    0.2770 H   0  0  0  1  0  0  0  0  0  0  0  0
    9.1433   -3.1099    1.5730 O   0  0  0  1  0  0  0  0  0  0  0  0
    7.5902   -4.4807    3.0726 O   0  0  0  0  0  0  0  0  0  0  0  0
    7.2064   -4.4902    0.5811 O   0  0  0  1  0  0  0  0  0  0  0  0
    7.5801   -3.5905    1.6953 P   0  0  0  1  0  0  0  0  0  0  0  0
    6.5372   -2.3719    1.9230 O   0  5  0  1  0  0  0  0  0  0  0  0
  1  2  1  0  0  0  0
  1  3  1  0  0  0  0
  1  7  1  0  0  0  0
  1 20  1  0  0  0  0
  3  4  1  0  0  0  0
  3  5  1  0  0  0  0
  3  9  1  0  0  0  0
  5  6  1  0  0  0  0
  5 11  1  0  0  0  0
  5 12  1  0  0  0  0
  7  8  1  0  0  0  0
  9 10  1  0  0  0  0
 11 20  1  0  0  0  0
 12 13  1  0  0  0  0
 12 14  1  0  0  0  0
 12 23  1  0  0  0  0
 15 16  1  0  0  0  0
 15 17  1  0  0  0  0
 15 18  1  0  0  0  0
 15 20  1  0  0  0  0
 18 19  1  0  0  0  0
 20 21  1  0  0  0  0
 21 22  1  0  0  0  0
 23 26  1  0  0  0  0
 24 26  1  0  0  0  0
 25 26  2  0  0  0  0
 26 27  1  0  0  0  0
M  BCL ATM C_TeTeTeTe H_S C_TeTeTeTe H_S C_TeTeTeTe H_S O_Te2Te2TeTe H_S O_Te2Te2TeTe H_S O_Te2Te2TeTe C_TeTeTeTe H_S H_S C_TeTeTeTe H_S H_S O_Te2Te2TeTe H_S C_TeTeTeTe O_Te2Te2TeTe H_S O_Tr2TrTrPi2 O_Te2Te2TeTe O_Tr2Tr2TrPi P_TeTeTeTePi O_Te2Te2Te2Te
M  BCL BND NonConjugatedSingleBond NonConjugatedSingleBondInRing NonConjugatedSingleBond NonConjugatedSingleBondInRing NonConjugatedSingleBond NonConjugatedSingleBondInRing NonConjugatedSingleBond NonConjugatedSingleBond NonConjugatedSingleBondInRing NonConjugatedSingleBond NonConjugatedSingleBond NonConjugatedSingleBond NonConjugatedSingleBondInRing NonConjugatedSingleBond NonConjugatedSingleBond NonConjugatedSingleBond NonConjugatedSingleBond NonConjugatedSingleBond NonConjugatedSingleBond NonConjugatedSingleBond NonConjugatedSingleBond NonConjugatedSingleBond NonConjugatedSingleBond ConjugatedSingleBond ConjugatedSingleBond ConjugatedDoubleBond ConjugatedSingleBond
M  BCL CHI   1   S   3   R   5   R  20   R  26   R
M  BCL DBI -
M  END
> <ConfClashScore>
0 

> <ConfOneFourInteractionScore>
-0.989543 

> <ConfScore>
-0.0655669 

> <ConfScorePBest>
0.00593146 

> <ConfTolerance>
0.748024 

$$$$
L08.****
  PyMOL2.5          3D                             0

 27 27  0  0  0  0  0  0  0  0999 V2000
   11.8165   -5.1684   -0.2004 C   0  0  0  1  0  0  0  0  0  0  0  0
   12.2356   -5.7592   -0.9880 H   0  0  0  1  0  0  0  0  0  0  0  0
   10.7686   -4.2039   -0.7296 C   0  0  0  1  0  0  0  0  0  0  0  0
   11.0322   -3.8441   -1.7022 H   0  0  0  1  0  0  0  0  0  0  0  0
   10.7962   -3.0845    0.2927 C   0  0  0  1  0  0  0  0  0  0  0  0
   10.6583   -2.1405   -0.1918 H   0  0  0  1  0  0  0  0  0  0  0  0
   11.2775   -6.0209    0.7949 O   0  0  0  1  0  0  0  0  0  0  0  0
   11.9924   -6.4498    1.2708 H   0  0  0  1  0  0  0  0  0  0  0  0
    9.4814   -4.8208   -0.7823 O   0  0  0  1  0  0  0  0  0  0  0  0
    8.8055   -4.1698   -0.5802 H   0  0  0  1  0  0  0  0  0  0  0  0
   12.0869   -3.1302    0.9291 O   0  0  0  1  0  0  0  0  0  0  0  0
    9.7173   -3.2874    1.3052 C   0  0  0  1  0  0  0  0  0  0  0  0
    9.7975   -4.2653    1.7320 H   0  0  0  1  0  0  0  0  0  0  0  0
    8.7586   -3.1768    0.8432 H   0  0  0  1  0  0  0  0  0  0  0  0
   13.6391   -4.8962    1.4632 C   0  0  0  1  0  0  0  0  0  0  0  0
   14.4203   -4.2380    1.7818 H   0  0  0  1  0  0  0  0  0  0  0  0
   12.9897   -5.1049    2.2876 H   0  0  0  1  0  0  0  0  0  0  0  0
   14.2228   -6.1178    1.0206 O   0  0  0  1  0  0  0  0  0  0  0  0
   13.6418   -6.8492    1.2420 H   0  0  0  1  0  0  0  0  0  0  0  0
   12.8456   -4.2158    0.3848 C   0  0  0  1  0  0  0  0  0  0  0  0
   13.7186   -3.7530   -0.6211 O   0  0  0  1  0  0  0  0  0  0  0  0
   13.4747   -2.8587   -0.8705 H   0  0  0  1  0  0  0  0  0  0  0  0
    9.8868   -2.2849    2.3348 O   0  0  0  1  0  0  0  0  0  0  0  0
   11.9102   -2.3054    3.9500 O   0  0  0  0  0  0  0  0  0  0  0  0
   10.2103   -4.1798    3.9806 O   0  0  0  1  0  0  0  0  0  0  0  0
   10.3233   -2.7092    3.8576 P   0  0  0  1  0  0  0  0  0  0  0  0
    9.5833   -1.7859    4.9641 O   0  5  0  1  0  0  0  0  0  0  0  0
  1  2  1  0  0  0  0
  1  3  1  0  0  0  0
  1  7  1  0  0  0  0
  1 20  1  0  0  0  0
  3  4  1  0  0  0  0
  3  5  1  0  0  0  0
  3  9  1  0  0  0  0
  5  6  1  0  0  0  0
  5 11  1  0  0  0  0
  5 12  1  0  0  0  0
  7  8  1  0  0  0  0
  9 10  1  0  0  0  0
 11 20  1  0  0  0  0
 12 13  1  0  0  0  0
 12 14  1  0  0  0  0
 12 23  1  0  0  0  0
 15 16  1  0  0  0  0
 15 17  1  0  0  0  0
 15 18  1  0  0  0  0
 15 20  1  0  0  0  0
 18 19  1  0  0  0  0
 20 21  1  0  0  0  0
 21 22  1  0  0  0  0
 23 26  1  0  0  0  0
 24 26  1  0  0  0  0
 25 26  2  0  0  0  0
 26 27  1  0  0  0  0
M  BCL ATM C_TeTeTeTe H_S C_TeTeTeTe H_S C_TeTeTeTe H_S O_Te2Te2TeTe H_S O_Te2Te2TeTe H_S O_Te2Te2TeTe C_TeTeTeTe H_S H_S C_TeTeTeTe H_S H_S O_Te2Te2TeTe H_S C_TeTeTeTe O_Te2Te2TeTe H_S O_Tr2TrTrPi2 O_Te2Te2TeTe O_Tr2Tr2TrPi P_TeTeTeTePi O_Te2Te2Te2Te
M  BCL BND NonConjugatedSingleBond NonConjugatedSingleBondInRing NonConjugatedSingleBond NonConjugatedSingleBondInRing NonConjugatedSingleBond NonConjugatedSingleBondInRing NonConjugatedSingleBond NonConjugatedSingleBond NonConjugatedSingleBondInRing NonConjugatedSingleBond NonConjugatedSingleBond NonConjugatedSingleBond NonConjugatedSingleBondInRing NonConjugatedSingleBond NonConjugatedSingleBond NonConjugatedSingleBond NonConjugatedSingleBond NonConjugatedSingleBond NonConjugatedSingleBond NonConjugatedSingleBond NonConjugatedSingleBond NonConjugatedSingleBond NonConjugatedSingleBond ConjugatedSingleBond ConjugatedSingleBond ConjugatedDoubleBond ConjugatedSingleBond
M  BCL CHI   1   S   3   R   5   R  20   R  26   R
M  BCL DBI -
M  END
> <ConfClashScore>
9.97011e-05 

> <ConfOneFourInteractionScore>
-0.982248 

> <ConfScore>
-0.0639893 

> <ConfScorePBest>
0.00582846 

> <ConfTolerance>
0.732021 

$$$$
L08.****
  PyMOL2.5          3D                             0

 27 27  0  0  0  0  0  0  0  0999 V2000
   11.8895   -4.9983   -0.0048 C   0  0  0  1  0  0  0  0  0  0  0  0
   12.4130   -5.7086   -0.6101 H   0  0  0  1  0  0  0  0  0  0  0  0
   10.7986   -4.2953   -0.7949 C   0  0  0  1  0  0  0  0  0  0  0  0
   11.0955   -4.1446   -1.8118 H   0  0  0  1  0  0  0  0  0  0  0  0
   10.6555   -2.9733   -0.0661 C   0  0  0  1  0  0  0  0  0  0  0  0
   10.4676   -2.1861   -0.7660 H   0  0  0  1  0  0  0  0  0  0  0  0
   11.3587   -5.6523    1.1442 O   0  0  0  1  0  0  0  0  0  0  0  0
   10.6980   -6.2932    0.8715 H   0  0  0  1  0  0  0  0  0  0  0  0
    9.5784   -5.0369   -0.7593 O   0  0  0  1  0  0  0  0  0  0  0  0
    9.3876   -5.2969    0.1449 H   0  0  0  1  0  0  0  0  0  0  0  0
   11.8982   -2.7376    0.6218 O   0  0  0  1  0  0  0  0  0  0  0  0
    9.5319   -3.0470    0.9147 C   0  0  0  1  0  0  0  0  0  0  0  0
    9.5242   -2.1693    1.5267 H   0  0  0  1  0  0  0  0  0  0  0  0
    9.6445   -3.9127    1.5334 H   0  0  0  1  0  0  0  0  0  0  0  0
   13.5614   -4.1629    1.6292 C   0  0  0  1  0  0  0  0  0  0  0  0
   14.1906   -3.3393    1.8950 H   0  0  0  1  0  0  0  0  0  0  0  0
   12.8883   -4.3725    2.4342 H   0  0  0  1  0  0  0  0  0  0  0  0
   14.3544   -5.3089    1.3490 O   0  0  0  1  0  0  0  0  0  0  0  0
   13.8534   -6.1025    1.5510 H   0  0  0  1  0  0  0  0  0  0  0  0
   12.7866   -3.8355    0.3852 C   0  0  0  1  0  0  0  0  0  0  0  0
   13.6821   -3.5301   -0.6602 O   0  0  0  1  0  0  0  0  0  0  0  0
   14.5439   -3.9046   -0.4637 H   0  0  0  1  0  0  0  0  0  0  0  0
    8.3071   -3.1343    0.1692 O   0  0  0  1  0  0  0  0  0  0  0  0
    7.7967   -1.6292   -1.9021 O   0  0  0  0  0  0  0  0  0  0  0  0
    7.5681   -0.6877    0.5669 O   0  0  0  1  0  0  0  0  0  0  0  0
    7.4055   -1.8569   -0.3258 P   0  0  0  1  0  0  0  0  0  0  0  0
    5.8508   -2.2868   -0.1758 O   0  5  0  1  0  0  0  0  0  0  0  0
  1  2  1  0  0  0  0
  1  3  1  0  0  0  0
  1  7  1  0  0  0  0
  1 20  1  0  0  0  0
  3  4  1  0  0  0  0
  3  5  1  0  0  0  0
  3  9  1  0  0  0  0
  5  6  1  0  0  0  0
  5 11  1  0  0  0  0
  5 12  1  0  0  0  0
  7  8  1  0  0  0  0
  9 10  1  0  0  0  0
 11 20  1  0  0  0  0
 12 13  1  0  0  0  0
 12 14  1  0  0  0  0
 12 23  1  0  0  0  0
 15 16  1  0  0  0  0
 15 17  1  0  0  0  0
 15 18  1  0  0  0  0
 15 20  1  0  0  0  0
 18 19  1  0  0  0  0
 20 21  1  0  0  0  0
 21 22  1  0  0  0  0
 23 26  1  0  0  0  0
 24 26  1  0  0  0  0
 25 26  2  0  0  0  0
 26 27  1  0  0  0  0
M  BCL ATM C_TeTeTeTe H_S C_TeTeTeTe H_S C_TeTeTeTe H_S O_Te2Te2TeTe H_S O_Te2Te2TeTe H_S O_Te2Te2TeTe C_TeTeTeTe H_S H_S C_TeTeTeTe H_S H_S O_Te2Te2TeTe H_S C_TeTeTeTe O_Te2Te2TeTe H_S O_Tr2TrTrPi2 O_Te2Te2TeTe O_Tr2Tr2TrPi P_TeTeTeTePi O_Te2Te2Te2Te
M  BCL BND NonConjugatedSingleBond NonConjugatedSingleBondInRing NonConjugatedSingleBond NonConjugatedSingleBondInRing NonConjugatedSingleBond NonConjugatedSingleBondInRing NonConjugatedSingleBond NonConjugatedSingleBond NonConjugatedSingleBondInRing NonConjugatedSingleBond NonConjugatedSingleBond NonConjugatedSingleBond NonConjugatedSingleBondInRing NonConjugatedSingleBond NonConjugatedSingleBond NonConjugatedSingleBond NonConjugatedSingleBond NonConjugatedSingleBond NonConjugatedSingleBond NonConjugatedSingleBond NonConjugatedSingleBond NonConjugatedSingleBond NonConjugatedSingleBond ConjugatedSingleBond ConjugatedSingleBond ConjugatedDoubleBond ConjugatedSingleBond
M  BCL CHI   1   S   3   R   5   R  20   R  26   R
M  BCL DBI -
M  END
> <ConfClashScore>
0 

> <ConfOneFourInteractionScore>
-0.983026 

> <ConfScore>
-0.0606003 

> <ConfScorePBest>
0.00572546 

> <ConfTolerance>
0.935701 

$$$$
L08.****
  PyMOL2.5          3D                             0

 27 27  0  0  0  0  0  0  0  0999 V2000
   11.7700   -5.0565   -0.2221 C   0  0  0  1  0  0  0  0  0  0  0  0
   12.2358   -5.6925   -0.9456 H   0  0  0  1  0  0  0  0  0  0  0  0
   10.7024   -4.1870   -0.8647 C   0  0  0  1  0  0  0  0  0  0  0  0
   10.9825   -3.8938   -1.8549 H   0  0  0  1  0  0  0  0  0  0  0  0
   10.6674   -2.9946    0.0766 C   0  0  0  1  0  0  0  0  0  0  0  0
   10.3089   -2.1249   -0.4332 H   0  0  0  1  0  0  0  0  0  0  0  0
   11.2210   -5.8523    0.8293 O   0  0  0  1  0  0  0  0  0  0  0  0
   11.2004   -5.3405    1.6412 H   0  0  0  1  0  0  0  0  0  0  0  0
    9.4410   -4.8558   -0.9043 O   0  0  0  1  0  0  0  0  0  0  0  0
    9.5359   -5.7404   -0.5437 H   0  0  0  1  0  0  0  0  0  0  0  0
   12.0235   -2.8067    0.4967 O   0  0  0  1  0  0  0  0  0  0  0  0
    9.7907   -3.2808    1.2511 C   0  0  0  1  0  0  0  0  0  0  0  0
    9.8443   -4.3198    1.5013 H   0  0  0  1  0  0  0  0  0  0  0  0
    8.7785   -3.0203    1.0223 H   0  0  0  1  0  0  0  0  0  0  0  0
   13.3043   -4.5016    1.6372 C   0  0  0  1  0  0  0  0  0  0  0  0
   12.5169   -4.5371    2.3608 H   0  0  0  1  0  0  0  0  0  0  0  0
   13.7265   -5.4779    1.5205 H   0  0  0  1  0  0  0  0  0  0  0  0
   14.3115   -3.6010    2.0787 O   0  0  0  1  0  0  0  0  0  0  0  0
   13.9001   -2.8276    2.4714 H   0  0  0  1  0  0  0  0  0  0  0  0
   12.7516   -4.0363    0.3207 C   0  0  0  1  0  0  0  0  0  0  0  0
   13.8087   -3.8470   -0.5930 O   0  0  0  1  0  0  0  0  0  0  0  0
   14.6023   -3.5924   -0.1167 H   0  0  0  1  0  0  0  0  0  0  0  0
   10.2667   -2.4818    2.3597 O   0  0  0  1  0  0  0  0  0  0  0  0
    8.6497   -3.1696    4.2901 O   0  0  0  0  0  0  0  0  0  0  0  0
   10.8874   -2.0940    4.7977 O   0  0  0  1  0  0  0  0  0  0  0  0
   10.2372   -3.0669    3.8915 P   0  0  0  1  0  0  0  0  0  0  0  0
   10.8947   -4.5463    3.8338 O   0  5  0  1  0  0  0  0  0  0  0  0
  1  2  1  0  0  0  0
  1  3  1  0  0  0  0
  1  7  1  0  0  0  0
  1 20  1  0  0  0  0
  3  4  1  0  0  0  0
  3  5  1  0  0  0  0
  3  9  1  0  0  0  0
  5  6  1  0  0  0  0
  5 11  1  0  0  0  0
  5 12  1  0  0  0  0
  7  8  1  0  0  0  0
  9 10  1  0  0  0  0
 11 20  1  0  0  0  0
 12 13  1  0  0  0  0
 12 14  1  0  0  0  0
 12 23  1  0  0  0  0
 15 16  1  0  0  0  0
 15 17  1  0  0  0  0
 15 18  1  0  0  0  0
 15 20  1  0  0  0  0
 18 19  1  0  0  0  0
 20 21  1  0  0  0  0
 21 22  1  0  0  0  0
 23 26  1  0  0  0  0
 24 26  1  0  0  0  0
 25 26  2  0  0  0  0
 26 27  1  0  0  0  0
M  BCL ATM C_TeTeTeTe H_S C_TeTeTeTe H_S C_TeTeTeTe H_S O_Te2Te2TeTe H_S O_Te2Te2TeTe H_S O_Te2Te2TeTe C_TeTeTeTe H_S H_S C_TeTeTeTe H_S H_S O_Te2Te2TeTe H_S C_TeTeTeTe O_Te2Te2TeTe H_S O_Tr2TrTrPi2 O_Te2Te2TeTe O_Tr2Tr2TrPi P_TeTeTeTePi O_Te2Te2Te2Te
M  BCL BND NonConjugatedSingleBond NonConjugatedSingleBondInRing NonConjugatedSingleBond NonConjugatedSingleBondInRing NonConjugatedSingleBond NonConjugatedSingleBondInRing NonConjugatedSingleBond NonConjugatedSingleBond NonConjugatedSingleBondInRing NonConjugatedSingleBond NonConjugatedSingleBond NonConjugatedSingleBond NonConjugatedSingleBondInRing NonConjugatedSingleBond NonConjugatedSingleBond NonConjugatedSingleBond NonConjugatedSingleBond NonConjugatedSingleBond NonConjugatedSingleBond NonConjugatedSingleBond NonConjugatedSingleBond NonConjugatedSingleBond NonConjugatedSingleBond ConjugatedSingleBond ConjugatedSingleBond ConjugatedDoubleBond ConjugatedSingleBond
M  BCL CHI   1   S   3   R   5   R  20   R  26   R
M  BCL DBI -
M  END
> <ConfClashScore>
0.000184897 

> <ConfOneFourInteractionScore>
-0.986966 

> <ConfScore>
-0.0448991 

> <ConfScorePBest>
0.00562246 

> <ConfTolerance>
0.817456 

$$$$
L08.****
  PyMOL2.5          3D                             0

 27 27  0  0  0  0  0  0  0  0999 V2000
   11.9377   -5.1071   -0.1392 C   0  0  0  1  0  0  0  0  0  0  0  0
   12.3396   -5.6840   -0.9457 H   0  0  0  1  0  0  0  0  0  0  0  0
   10.7652   -4.2597   -0.6037 C   0  0  0  1  0  0  0  0  0  0  0  0
   10.9118   -3.9056   -1.6027 H   0  0  0  1  0  0  0  0  0  0  0  0
   10.7934   -3.1176    0.3982 C   0  0  0  1  0  0  0  0  0  0  0  0
   10.3401   -2.2424   -0.0182 H   0  0  0  1  0  0  0  0  0  0  0  0
   11.5530   -5.9785    0.9251 O   0  0  0  1  0  0  0  0  0  0  0  0
   10.6485   -5.7879    1.1842 H   0  0  0  1  0  0  0  0  0  0  0  0
    9.5374   -4.9858   -0.5305 O   0  0  0  1  0  0  0  0  0  0  0  0
    9.1229   -5.0025   -1.3963 H   0  0  0  1  0  0  0  0  0  0  0  0
   12.1810   -2.8852    0.6651 O   0  0  0  1  0  0  0  0  0  0  0  0
   10.0681   -3.5071    1.6661 C   0  0  0  1  0  0  0  0  0  0  0  0
   10.5693   -4.3204    2.1481 H   0  0  0  1  0  0  0  0  0  0  0  0
    9.0591   -3.7886    1.4475 H   0  0  0  1  0  0  0  0  0  0  0  0
   13.6638   -4.5729    1.5607 C   0  0  0  1  0  0  0  0  0  0  0  0
   14.0696   -5.5462    1.3792 H   0  0  0  1  0  0  0  0  0  0  0  0
   14.4525   -3.9016    1.8293 H   0  0  0  1  0  0  0  0  0  0  0  0
   12.6728   -4.6271    2.6018 O   0  0  0  1  0  0  0  0  0  0  0  0
   12.6276   -3.7771    3.0458 H   0  0  0  1  0  0  0  0  0  0  0  0
   12.9338   -4.0684    0.3386 C   0  0  0  1  0  0  0  0  0  0  0  0
   13.8645   -3.7843   -0.6818 O   0  0  0  1  0  0  0  0  0  0  0  0
   13.6857   -2.9140   -1.0454 H   0  0  0  1  0  0  0  0  0  0  0  0
   10.0927   -2.3296    2.5068 O   0  0  0  1  0  0  0  0  0  0  0  0
    8.9251   -0.4277    3.9233 O   0  0  0  0  0  0  0  0  0  0  0  0
    7.5405   -2.0144    2.4807 O   0  0  0  1  0  0  0  0  0  0  0  0
    8.8279   -1.2859    2.5292 P   0  0  0  1  0  0  0  0  0  0  0  0
    9.0723   -0.2712    1.2902 O   0  5  0  1  0  0  0  0  0  0  0  0
  1  2  1  0  0  0  0
  1  3  1  0  0  0  0
  1  7  1  0  0  0  0
  1 20  1  0  0  0  0
  3  4  1  0  0  0  0
  3  5  1  0  0  0  0
  3  9  1  0  0  0  0
  5  6  1  0  0  0  0
  5 11  1  0  0  0  0
  5 12  1  0  0  0  0
  7  8  1  0  0  0  0
  9 10  1  0  0  0  0
 11 20  1  0  0  0  0
 12 13  1  0  0  0  0
 12 14  1  0  0  0  0
 12 23  1  0  0  0  0
 15 16  1  0  0  0  0
 15 17  1  0  0  0  0
 15 18  1  0  0  0  0
 15 20  1  0  0  0  0
 18 19  1  0  0  0  0
 20 21  1  0  0  0  0
 21 22  1  0  0  0  0
 23 26  1  0  0  0  0
 24 26  1  0  0  0  0
 25 26  2  0  0  0  0
 26 27  1  0  0  0  0
M  BCL ATM C_TeTeTeTe H_S C_TeTeTeTe H_S C_TeTeTeTe H_S O_Te2Te2TeTe H_S O_Te2Te2TeTe H_S O_Te2Te2TeTe C_TeTeTeTe H_S H_S C_TeTeTeTe H_S H_S O_Te2Te2TeTe H_S C_TeTeTeTe O_Te2Te2TeTe H_S O_Tr2TrTrPi2 O_Te2Te2TeTe O_Tr2Tr2TrPi P_TeTeTeTePi O_Te2Te2Te2Te
M  BCL BND NonConjugatedSingleBond NonConjugatedSingleBondInRing NonConjugatedSingleBond NonConjugatedSingleBondInRing NonConjugatedSingleBond NonConjugatedSingleBondInRing NonConjugatedSingleBond NonConjugatedSingleBond NonConjugatedSingleBondInRing NonConjugatedSingleBond NonConjugatedSingleBond NonConjugatedSingleBond NonConjugatedSingleBondInRing NonConjugatedSingleBond NonConjugatedSingleBond NonConjugatedSingleBond NonConjugatedSingleBond NonConjugatedSingleBond NonConjugatedSingleBond NonConjugatedSingleBond NonConjugatedSingleBond NonConjugatedSingleBond NonConjugatedSingleBond ConjugatedSingleBond ConjugatedSingleBond ConjugatedDoubleBond ConjugatedSingleBond
M  BCL CHI   1   S   3   R   5   R  20   R  26   R
M  BCL DBI -
M  END
> <ConfClashScore>
0 

> <ConfOneFourInteractionScore>
-0.983447 

> <ConfScore>
-0.0343606 

> <ConfScorePBest>
0.00551946 

> <ConfTolerance>
0.829023 

$$$$
L08.****
  PyMOL2.5          3D                             0

 27 27  0  0  0  0  0  0  0  0999 V2000
   11.8756   -4.9419   -0.2617 C   0  0  0  1  0  0  0  0  0  0  0  0
   12.3746   -5.1501   -1.1850 H   0  0  0  1  0  0  0  0  0  0  0  0
   10.5118   -4.3422   -0.5011 C   0  0  0  1  0  0  0  0  0  0  0  0
   10.0572   -4.7615   -1.3742 H   0  0  0  1  0  0  0  0  0  0  0  0
   10.8053   -2.8698   -0.6974 C   0  0  0  1  0  0  0  0  0  0  0  0
   10.8892   -2.6441   -1.7399 H   0  0  0  1  0  0  0  0  0  0  0  0
   11.7855   -6.1390    0.5121 O   0  0  0  1  0  0  0  0  0  0  0  0
   12.5578   -6.6852    0.3485 H   0  0  0  1  0  0  0  0  0  0  0  0
    9.6586   -4.5472    0.6259 O   0  0  0  1  0  0  0  0  0  0  0  0
    8.8476   -4.9743    0.3404 H   0  0  0  1  0  0  0  0  0  0  0  0
   12.0557   -2.6172   -0.0302 O   0  0  0  1  0  0  0  0  0  0  0  0
    9.7199   -2.0407   -0.0936 C   0  0  0  1  0  0  0  0  0  0  0  0
   10.0434   -1.6455    0.8466 H   0  0  0  1  0  0  0  0  0  0  0  0
    8.8438   -2.6374    0.0521 H   0  0  0  1  0  0  0  0  0  0  0  0
   12.2764   -3.9534    1.9720 C   0  0  0  1  0  0  0  0  0  0  0  0
   11.2168   -3.9335    2.1191 H   0  0  0  1  0  0  0  0  0  0  0  0
   12.6724   -4.8724    2.3508 H   0  0  0  1  0  0  0  0  0  0  0  0
   12.8696   -2.8634    2.6630 O   0  0  0  1  0  0  0  0  0  0  0  0
   13.6649   -2.5865    2.2022 H   0  0  0  1  0  0  0  0  0  0  0  0
   12.5787   -3.8468    0.5049 C   0  0  0  1  0  0  0  0  0  0  0  0
   13.9726   -3.9197    0.3051 O   0  0  0  1  0  0  0  0  0  0  0  0
   14.3798   -4.3700    1.0487 H   0  0  0  1  0  0  0  0  0  0  0  0
    9.4322   -0.9586   -1.0102 O   0  0  0  1  0  0  0  0  0  0  0  0
   11.7724    0.1241   -1.7691 O   0  0  0  0  0  0  0  0  0  0  0  0
   10.6225    1.1150    0.1959 O   0  0  0  1  0  0  0  0  0  0  0  0
   10.3166    0.4211   -1.0750 P   0  0  0  1  0  0  0  0  0  0  0  0
    9.5745    1.4185   -2.1137 O   0  5  0  1  0  0  0  0  0  0  0  0
  1  2  1  0  0  0  0
  1  3  1  0  0  0  0
  1  7  1  0  0  0  0
  1 20  1  0  0  0  0
  3  4  1  0  0  0  0
  3  5  1  0  0  0  0
  3  9  1  0  0  0  0
  5  6  1  0  0  0  0
  5 11  1  0  0  0  0
  5 12  1  0  0  0  0
  7  8  1  0  0  0  0
  9 10  1  0  0  0  0
 11 20  1  0  0  0  0
 12 13  1  0  0  0  0
 12 14  1  0  0  0  0
 12 23  1  0  0  0  0
 15 16  1  0  0  0  0
 15 17  1  0  0  0  0
 15 18  1  0  0  0  0
 15 20  1  0  0  0  0
 18 19  1  0  0  0  0
 20 21  1  0  0  0  0
 21 22  1  0  0  0  0
 23 26  1  0  0  0  0
 24 26  1  0  0  0  0
 25 26  2  0  0  0  0
 26 27  1  0  0  0  0
M  BCL ATM C_TeTeTeTe H_S C_TeTeTeTe H_S C_TeTeTeTe H_S O_Te2Te2TeTe H_S O_Te2Te2TeTe H_S O_Te2Te2TeTe C_TeTeTeTe H_S H_S C_TeTeTeTe H_S H_S O_Te2Te2TeTe H_S C_TeTeTeTe O_Te2Te2TeTe H_S O_Tr2TrTrPi2 O_Te2Te2TeTe O_Tr2Tr2TrPi P_TeTeTeTePi O_Te2Te2Te2Te
M  BCL BND NonConjugatedSingleBond NonConjugatedSingleBondInRing NonConjugatedSingleBond NonConjugatedSingleBondInRing NonConjugatedSingleBond NonConjugatedSingleBondInRing NonConjugatedSingleBond NonConjugatedSingleBond NonConjugatedSingleBondInRing NonConjugatedSingleBond NonConjugatedSingleBond NonConjugatedSingleBond NonConjugatedSingleBondInRing NonConjugatedSingleBond NonConjugatedSingleBond NonConjugatedSingleBond NonConjugatedSingleBond NonConjugatedSingleBond NonConjugatedSingleBond NonConjugatedSingleBond NonConjugatedSingleBond NonConjugatedSingleBond NonConjugatedSingleBond ConjugatedSingleBond ConjugatedSingleBond ConjugatedDoubleBond ConjugatedSingleBond
M  BCL CHI   1   S   3   R   5   R  20   R  26   R
M  BCL DBI -
M  END
> <ConfClashScore>
0 

> <ConfOneFourInteractionScore>
-0.963917 

> <ConfScore>
-0.0260101 

> <ConfScorePBest>
0.00541646 

> <ConfTolerance>
0.834386 

$$$$
L08.****
  PyMOL2.5          3D                             0

 27 27  0  0  0  0  0  0  0  0999 V2000
   11.8539   -5.0078   -0.1558 C   0  0  0  1  0  0  0  0  0  0  0  0
   12.3789   -5.6544   -0.8274 H   0  0  0  1  0  0  0  0  0  0  0  0
   10.7509   -4.2502   -0.8755 C   0  0  0  1  0  0  0  0  0  0  0  0
   11.0385   -3.9995   -1.8752 H   0  0  0  1  0  0  0  0  0  0  0  0
   10.6142   -3.0081   -0.0109 C   0  0  0  1  0  0  0  0  0  0  0  0
   10.2149   -2.1960   -0.5818 H   0  0  0  1  0  0  0  0  0  0  0  0
   11.3285   -5.7730    0.9298 O   0  0  0  1  0  0  0  0  0  0  0  0
   10.8744   -5.1900    1.5426 H   0  0  0  1  0  0  0  0  0  0  0  0
    9.5363   -5.0012   -0.9030 O   0  0  0  1  0  0  0  0  0  0  0  0
    9.6130   -5.7563   -0.3152 H   0  0  0  1  0  0  0  0  0  0  0  0
   11.9436   -2.7070    0.4281 O   0  0  0  1  0  0  0  0  0  0  0  0
    9.7260   -3.2797    1.1584 C   0  0  0  1  0  0  0  0  0  0  0  0
   10.3063   -3.6451    1.9797 H   0  0  0  1  0  0  0  0  0  0  0  0
    8.9860   -4.0056    0.8930 H   0  0  0  1  0  0  0  0  0  0  0  0
   13.2985   -4.2428    1.7008 C   0  0  0  1  0  0  0  0  0  0  0  0
   12.4981   -4.3272    2.4059 H   0  0  0  1  0  0  0  0  0  0  0  0
   13.8317   -5.1693    1.6531 H   0  0  0  1  0  0  0  0  0  0  0  0
   14.1785   -3.1959    2.0886 O   0  0  0  1  0  0  0  0  0  0  0  0
   13.6717   -2.3998    2.2644 H   0  0  0  1  0  0  0  0  0  0  0  0
   12.7533   -3.8947    0.3456 C   0  0  0  1  0  0  0  0  0  0  0  0
   13.8206   -3.6921   -0.5533 O   0  0  0  1  0  0  0  0  0  0  0  0
   14.6009   -4.1503   -0.2328 H   0  0  0  1  0  0  0  0  0  0  0  0
    9.0861   -2.0341    1.5227 O   0  0  0  1  0  0  0  0  0  0  0  0
    7.4312   -0.5345    2.9371 O   0  0  0  0  0  0  0  0  0  0  0  0
    7.5968   -3.0467    3.3587 O   0  0  0  1  0  0  0  0  0  0  0  0
    7.6352   -2.0264    2.2872 P   0  0  0  1  0  0  0  0  0  0  0  0
    6.5243   -2.2305    1.1258 O   0  5  0  1  0  0  0  0  0  0  0  0
  1  2  1  0  0  0  0
  1  3  1  0  0  0  0
  1  7  1  0  0  0  0
  1 20  1  0  0  0  0
  3  4  1  0  0  0  0
  3  5  1  0  0  0  0
  3  9  1  0  0  0  0
  5  6  1  0  0  0  0
  5 11  1  0  0  0  0
  5 12  1  0  0  0  0
  7  8  1  0  0  0  0
  9 10  1  0  0  0  0
 11 20  1  0  0  0  0
 12 13  1  0  0  0  0
 12 14  1  0  0  0  0
 12 23  1  0  0  0  0
 15 16  1  0  0  0  0
 15 17  1  0  0  0  0
 15 18  1  0  0  0  0
 15 20  1  0  0  0  0
 18 19  1  0  0  0  0
 20 21  1  0  0  0  0
 21 22  1  0  0  0  0
 23 26  1  0  0  0  0
 24 26  1  0  0  0  0
 25 26  2  0  0  0  0
 26 27  1  0  0  0  0
M  BCL ATM C_TeTeTeTe H_S C_TeTeTeTe H_S C_TeTeTeTe H_S O_Te2Te2TeTe H_S O_Te2Te2TeTe H_S O_Te2Te2TeTe C_TeTeTeTe H_S H_S C_TeTeTeTe H_S H_S O_Te2Te2TeTe H_S C_TeTeTeTe O_Te2Te2TeTe H_S O_Tr2TrTrPi2 O_Te2Te2TeTe O_Tr2Tr2TrPi P_TeTeTeTePi O_Te2Te2Te2Te
M  BCL BND NonConjugatedSingleBond NonConjugatedSingleBondInRing NonConjugatedSingleBond NonConjugatedSingleBondInRing NonConjugatedSingleBond NonConjugatedSingleBondInRing NonConjugatedSingleBond NonConjugatedSingleBond NonConjugatedSingleBondInRing NonConjugatedSingleBond NonConjugatedSingleBond NonConjugatedSingleBond NonConjugatedSingleBondInRing NonConjugatedSingleBond NonConjugatedSingleBond NonConjugatedSingleBond NonConjugatedSingleBond NonConjugatedSingleBond NonConjugatedSingleBond NonConjugatedSingleBond NonConjugatedSingleBond NonConjugatedSingleBond NonConjugatedSingleBond ConjugatedSingleBond ConjugatedSingleBond ConjugatedDoubleBond ConjugatedSingleBond
M  BCL CHI   1   S   3   R   5   R  20   R  26   R
M  BCL DBI -
M  END
> <ConfClashScore>
0.000305787 

> <ConfOneFourInteractionScore>
-0.963917 

> <ConfScore>
-0.0145711 

> <ConfScorePBest>
0.00531345 

> <ConfTolerance>
1.01007 

$$$$
L08.****
  PyMOL2.5          3D                             0

 27 27  0  0  0  0  0  0  0  0999 V2000
   11.8578   -4.9641   -0.1950 C   0  0  0  1  0  0  0  0  0  0  0  0
   12.5101   -5.1151   -1.0297 H   0  0  0  1  0  0  0  0  0  0  0  0
   10.5651   -4.3138   -0.6225 C   0  0  0  1  0  0  0  0  0  0  0  0
   10.2675   -4.6548   -1.5921 H   0  0  0  1  0  0  0  0  0  0  0  0
   10.9060   -2.8387   -0.6483 C   0  0  0  1  0  0  0  0  0  0  0  0
   11.1758   -2.5377   -1.6390 H   0  0  0  1  0  0  0  0  0  0  0  0
   11.6181   -6.2132    0.4548 O   0  0  0  1  0  0  0  0  0  0  0  0
   12.0179   -6.9216   -0.0551 H   0  0  0  1  0  0  0  0  0  0  0  0
    9.5234   -4.5811    0.3174 O   0  0  0  1  0  0  0  0  0  0  0  0
    9.8056   -5.2727    0.9204 H   0  0  0  1  0  0  0  0  0  0  0  0
   12.0213   -2.6687    0.2459 O   0  0  0  1  0  0  0  0  0  0  0  0
    9.7406   -2.0300   -0.1816 C   0  0  0  1  0  0  0  0  0  0  0  0
    9.9260   -0.9904   -0.3541 H   0  0  0  1  0  0  0  0  0  0  0  0
    9.5772   -2.1952    0.8629 H   0  0  0  1  0  0  0  0  0  0  0  0
   11.8681   -4.1565    2.1451 C   0  0  0  1  0  0  0  0  0  0  0  0
   10.8051   -4.2639    2.0855 H   0  0  0  1  0  0  0  0  0  0  0  0
   12.2931   -5.0413    2.5709 H   0  0  0  1  0  0  0  0  0  0  0  0
   12.1855   -3.0366    2.9659 O   0  0  0  1  0  0  0  0  0  0  0  0
   13.0137   -2.6492    2.6733 H   0  0  0  1  0  0  0  0  0  0  0  0
   12.4268   -3.9478    0.7667 C   0  0  0  1  0  0  0  0  0  0  0  0
   13.8331   -4.0409    0.8097 O   0  0  0  1  0  0  0  0  0  0  0  0
   14.2095   -3.5466    0.0779 H   0  0  0  1  0  0  0  0  0  0  0  0
    8.5801   -2.4556   -0.9355 O   0  0  0  1  0  0  0  0  0  0  0  0
    7.2957   -4.7400   -0.2400 O   0  0  0  0  0  0  0  0  0  0  0  0
    5.9251   -2.6783   -0.6097 O   0  0  0  1  0  0  0  0  0  0  0  0
    7.2763   -3.1012   -0.1787 P   0  0  0  1  0  0  0  0  0  0  0  0
    7.4379   -2.8371    1.4115 O   0  5  0  1  0  0  0  0  0  0  0  0
  1  2  1  0  0  0  0
  1  3  1  0  0  0  0
  1  7  1  0  0  0  0
  1 20  1  0  0  0  0
  3  4  1  0  0  0  0
  3  5  1  0  0  0  0
  3  9  1  0  0  0  0
  5  6  1  0  0  0  0
  5 11  1  0  0  0  0
  5 12  1  0  0  0  0
  7  8  1  0  0  0  0
  9 10  1  0  0  0  0
 11 20  1  0  0  0  0
 12 13  1  0  0  0  0
 12 14  1  0  0  0  0
 12 23  1  0  0  0  0
 15 16  1  0  0  0  0
 15 17  1  0  0  0  0
 15 18  1  0  0  0  0
 15 20  1  0  0  0  0
 18 19  1  0  0  0  0
 20 21  1  0  0  0  0
 21 22  1  0  0  0  0
 23 26  1  0  0  0  0
 24 26  1  0  0  0  0
 25 26  2  0  0  0  0
 26 27  1  0  0  0  0
M  BCL ATM C_TeTeTeTe H_S C_TeTeTeTe H_S C_TeTeTeTe H_S O_Te2Te2TeTe H_S O_Te2Te2TeTe H_S O_Te2Te2TeTe C_TeTeTeTe H_S H_S C_TeTeTeTe H_S H_S O_Te2Te2TeTe H_S C_TeTeTeTe O_Te2Te2TeTe H_S O_Tr2TrTrPi2 O_Te2Te2TeTe O_Tr2Tr2TrPi P_TeTeTeTePi O_Te2Te2Te2Te
M  BCL BND NonConjugatedSingleBond NonConjugatedSingleBondInRing NonConjugatedSingleBond NonConjugatedSingleBondInRing NonConjugatedSingleBond NonConjugatedSingleBondInRing NonConjugatedSingleBond NonConjugatedSingleBond NonConjugatedSingleBondInRing NonConjugatedSingleBond NonConjugatedSingleBond NonConjugatedSingleBond NonConjugatedSingleBondInRing NonConjugatedSingleBond NonConjugatedSingleBond NonConjugatedSingleBond NonConjugatedSingleBond NonConjugatedSingleBond NonConjugatedSingleBond NonConjugatedSingleBond NonConjugatedSingleBond NonConjugatedSingleBond NonConjugatedSingleBond ConjugatedSingleBond ConjugatedSingleBond ConjugatedDoubleBond ConjugatedSingleBond
M  BCL CHI   1   S   3   R   5   R  20   R  26   R
M  BCL DBI -
M  END
> <ConfClashScore>
0 

> <ConfOneFourInteractionScore>
-0.980115 

> <ConfScore>
0.013703 

> <ConfScorePBest>
0.00521045 

> <ConfTolerance>
1.02561 

$$$$
L08.****
  PyMOL2.5          3D                             0

 27 27  0  0  0  0  0  0  0  0999 V2000
   11.9185   -5.1287   -0.1189 C   0  0  0  1  0  0  0  0  0  0  0  0
   12.3287   -5.6802   -0.9389 H   0  0  0  1  0  0  0  0  0  0  0  0
   10.7143   -4.3323   -0.5551 C   0  0  0  1  0  0  0  0  0  0  0  0
   10.7294   -4.1773   -1.6137 H   0  0  0  1  0  0  0  0  0  0  0  0
   10.8302   -3.0247    0.1710 C   0  0  0  1  0  0  0  0  0  0  0  0
   10.8692   -2.2192   -0.5323 H   0  0  0  1  0  0  0  0  0  0  0  0
   11.5792   -6.0275    0.9380 O   0  0  0  1  0  0  0  0  0  0  0  0
   11.1380   -6.7984    0.5738 H   0  0  0  1  0  0  0  0  0  0  0  0
    9.5084   -5.0046   -0.1889 O   0  0  0  1  0  0  0  0  0  0  0  0
    8.7529   -4.4906   -0.4833 H   0  0  0  1  0  0  0  0  0  0  0  0
   12.0411   -3.0613    0.9404 O   0  0  0  1  0  0  0  0  0  0  0  0
    9.6711   -2.8417    1.0657 C   0  0  0  1  0  0  0  0  0  0  0  0
    8.7928   -2.6810    0.4761 H   0  0  0  1  0  0  0  0  0  0  0  0
    9.8408   -1.9914    1.6928 H   0  0  0  1  0  0  0  0  0  0  0  0
   13.8129   -4.6587    1.3806 C   0  0  0  1  0  0  0  0  0  0  0  0
   14.4277   -3.8696    1.7604 H   0  0  0  1  0  0  0  0  0  0  0  0
   13.2351   -5.0768    2.1782 H   0  0  0  1  0  0  0  0  0  0  0  0
   14.6522   -5.6733    0.8450 O   0  0  0  1  0  0  0  0  0  0  0  0
   14.4254   -6.5184    1.2399 H   0  0  0  1  0  0  0  0  0  0  0  0
   12.8763   -4.0886    0.3546 C   0  0  0  1  0  0  0  0  0  0  0  0
   13.6202   -3.5692   -0.7248 O   0  0  0  1  0  0  0  0  0  0  0  0
   13.9561   -2.7001   -0.4937 H   0  0  0  1  0  0  0  0  0  0  0  0
    9.4817   -4.0136    1.8931 O   0  0  0  1  0  0  0  0  0  0  0  0
    8.3873   -5.2095    4.0689 O   0  0  0  0  0  0  0  0  0  0  0  0
    8.8290   -2.5712    3.8728 O   0  0  0  1  0  0  0  0  0  0  0  0
    9.2663   -3.9396    3.5172 P   0  0  0  1  0  0  0  0  0  0  0  0
   10.7661   -4.0196    4.1244 O   0  5  0  1  0  0  0  0  0  0  0  0
  1  2  1  0  0  0  0
  1  3  1  0  0  0  0
  1  7  1  0  0  0  0
  1 20  1  0  0  0  0
  3  4  1  0  0  0  0
  3  5  1  0  0  0  0
  3  9  1  0  0  0  0
  5  6  1  0  0  0  0
  5 11  1  0  0  0  0
  5 12  1  0  0  0  0
  7  8  1  0  0  0  0
  9 10  1  0  0  0  0
 11 20  1  0  0  0  0
 12 13  1  0  0  0  0
 12 14  1  0  0  0  0
 12 23  1  0  0  0  0
 15 16  1  0  0  0  0
 15 17  1  0  0  0  0
 15 18  1  0  0  0  0
 15 20  1  0  0  0  0
 18 19  1  0  0  0  0
 20 21  1  0  0  0  0
 21 22  1  0  0  0  0
 23 26  1  0  0  0  0
 24 26  1  0  0  0  0
 25 26  2  0  0  0  0
 26 27  1  0  0  0  0
M  BCL ATM C_TeTeTeTe H_S C_TeTeTeTe H_S C_TeTeTeTe H_S O_Te2Te2TeTe H_S O_Te2Te2TeTe H_S O_Te2Te2TeTe C_TeTeTeTe H_S H_S C_TeTeTeTe H_S H_S O_Te2Te2TeTe H_S C_TeTeTeTe O_Te2Te2TeTe H_S O_Tr2TrTrPi2 O_Te2Te2TeTe O_Tr2Tr2TrPi P_TeTeTeTePi O_Te2Te2Te2Te
M  BCL BND NonConjugatedSingleBond NonConjugatedSingleBondInRing NonConjugatedSingleBond NonConjugatedSingleBondInRing NonConjugatedSingleBond NonConjugatedSingleBondInRing NonConjugatedSingleBond NonConjugatedSingleBond NonConjugatedSingleBondInRing NonConjugatedSingleBond NonConjugatedSingleBond NonConjugatedSingleBond NonConjugatedSingleBondInRing NonConjugatedSingleBond NonConjugatedSingleBond NonConjugatedSingleBond NonConjugatedSingleBond NonConjugatedSingleBond NonConjugatedSingleBond NonConjugatedSingleBond NonConjugatedSingleBond NonConjugatedSingleBond NonConjugatedSingleBond ConjugatedSingleBond ConjugatedSingleBond ConjugatedDoubleBond ConjugatedSingleBond
M  BCL CHI   1   S   3   R   5   R  20   R  26   R
M  BCL DBI -
M  END
> <ConfClashScore>
0 

> <ConfOneFourInteractionScore>
-0.992569 

> <ConfScore>
0.0146697 

> <ConfScorePBest>
0.00510745 

> <ConfTolerance>
1.07763 

$$$$
L08.****
  PyMOL2.5          3D                             0

 27 27  0  0  0  0  0  0  0  0999 V2000
   11.9920   -4.9382   -0.3836 C   0  0  0  1  0  0  0  0  0  0  0  0
   12.5743   -4.9043   -1.2807 H   0  0  0  1  0  0  0  0  0  0  0  0
   10.6303   -4.3227   -0.5928 C   0  0  0  1  0  0  0  0  0  0  0  0
   10.2672   -4.5230   -1.5791 H   0  0  0  1  0  0  0  0  0  0  0  0
   10.8806   -2.8421   -0.3980 C   0  0  0  1  0  0  0  0  0  0  0  0
   11.0422   -2.3660   -1.3425 H   0  0  0  1  0  0  0  0  0  0  0  0
   11.8851   -6.2901    0.0648 O   0  0  0  1  0  0  0  0  0  0  0  0
   11.3766   -6.3185    0.8785 H   0  0  0  1  0  0  0  0  0  0  0  0
    9.6947   -4.8135    0.3685 O   0  0  0  1  0  0  0  0  0  0  0  0
    9.2107   -5.5539   -0.0045 H   0  0  0  1  0  0  0  0  0  0  0  0
   12.0598   -2.7387    0.4211 O   0  0  0  1  0  0  0  0  0  0  0  0
    9.7165   -2.2063    0.2880 C   0  0  0  1  0  0  0  0  0  0  0  0
    9.7178   -2.4676    1.3256 H   0  0  0  1  0  0  0  0  0  0  0  0
    8.8036   -2.5361   -0.1622 H   0  0  0  1  0  0  0  0  0  0  0  0
   12.1647   -4.5220    2.0523 C   0  0  0  1  0  0  0  0  0  0  0  0
   12.5447   -3.8383    2.7824 H   0  0  0  1  0  0  0  0  0  0  0  0
   11.0957   -4.5348    2.0972 H   0  0  0  1  0  0  0  0  0  0  0  0
   12.6459   -5.8152    2.3491 O   0  0  0  1  0  0  0  0  0  0  0  0
   12.8972   -5.8590    3.2746 H   0  0  0  1  0  0  0  0  0  0  0  0
   12.5847   -4.0523    0.6867 C   0  0  0  1  0  0  0  0  0  0  0  0
   13.9921   -4.0489    0.6023 O   0  0  0  1  0  0  0  0  0  0  0  0
   14.2750   -3.3627   -0.0065 H   0  0  0  1  0  0  0  0  0  0  0  0
    9.8489   -0.7729    0.1407 O   0  0  0  1  0  0  0  0  0  0  0  0
   10.1659   -0.9458   -2.4519 O   0  0  0  0  0  0  0  0  0  0  0  0
   10.0596    1.3246   -1.2789 O   0  0  0  1  0  0  0  0  0  0  0  0
    9.4754   -0.0352   -1.2756 P   0  0  0  1  0  0  0  0  0  0  0  0
    7.8689   -0.0959   -1.4750 O   0  5  0  1  0  0  0  0  0  0  0  0
  1  2  1  0  0  0  0
  1  3  1  0  0  0  0
  1  7  1  0  0  0  0
  1 20  1  0  0  0  0
  3  4  1  0  0  0  0
  3  5  1  0  0  0  0
  3  9  1  0  0  0  0
  5  6  1  0  0  0  0
  5 11  1  0  0  0  0
  5 12  1  0  0  0  0
  7  8  1  0  0  0  0
  9 10  1  0  0  0  0
 11 20  1  0  0  0  0
 12 13  1  0  0  0  0
 12 14  1  0  0  0  0
 12 23  1  0  0  0  0
 15 16  1  0  0  0  0
 15 17  1  0  0  0  0
 15 18  1  0  0  0  0
 15 20  1  0  0  0  0
 18 19  1  0  0  0  0
 20 21  1  0  0  0  0
 21 22  1  0  0  0  0
 23 26  1  0  0  0  0
 24 26  1  0  0  0  0
 25 26  2  0  0  0  0
 26 27  1  0  0  0  0
M  BCL ATM C_TeTeTeTe H_S C_TeTeTeTe H_S C_TeTeTeTe H_S O_Te2Te2TeTe H_S O_Te2Te2TeTe H_S O_Te2Te2TeTe C_TeTeTeTe H_S H_S C_TeTeTeTe H_S H_S O_Te2Te2TeTe H_S C_TeTeTeTe O_Te2Te2TeTe H_S O_Tr2TrTrPi2 O_Te2Te2TeTe O_Tr2Tr2TrPi P_TeTeTeTePi O_Te2Te2Te2Te
M  BCL BND NonConjugatedSingleBond NonConjugatedSingleBondInRing NonConjugatedSingleBond NonConjugatedSingleBondInRing NonConjugatedSingleBond NonConjugatedSingleBondInRing NonConjugatedSingleBond NonConjugatedSingleBond NonConjugatedSingleBondInRing NonConjugatedSingleBond NonConjugatedSingleBond NonConjugatedSingleBond NonConjugatedSingleBondInRing NonConjugatedSingleBond NonConjugatedSingleBond NonConjugatedSingleBond NonConjugatedSingleBond NonConjugatedSingleBond NonConjugatedSingleBond NonConjugatedSingleBond NonConjugatedSingleBond NonConjugatedSingleBond NonConjugatedSingleBond ConjugatedSingleBond ConjugatedSingleBond ConjugatedDoubleBond ConjugatedSingleBond
M  BCL CHI   1   S   3   R   5   R  20   R  26   R
M  BCL DBI -
M  END
> <ConfClashScore>
0 

> <ConfOneFourInteractionScore>
-0.970756 

> <ConfScore>
0.0216349 

> <ConfScorePBest>
0.00500445 

> <ConfTolerance>
1.44825 

$$$$
L08.****
  PyMOL2.5          3D                             0

 27 27  0  0  0  0  0  0  0  0999 V2000
   11.8406   -5.0577   -0.0664 C   0  0  0  1  0  0  0  0  0  0  0  0
   12.2648   -5.7452   -0.7681 H   0  0  0  1  0  0  0  0  0  0  0  0
   10.7592   -4.2106   -0.7156 C   0  0  0  1  0  0  0  0  0  0  0  0
   11.0001   -3.9838   -1.7332 H   0  0  0  1  0  0  0  0  0  0  0  0
   10.7833   -2.9621    0.1503 C   0  0  0  1  0  0  0  0  0  0  0  0
   10.4159   -2.1192   -0.3969 H   0  0  0  1  0  0  0  0  0  0  0  0
   11.3288   -5.7739    1.0495 O   0  0  0  1  0  0  0  0  0  0  0  0
   10.4144   -6.0147    0.8837 H   0  0  0  1  0  0  0  0  0  0  0  0
    9.4873   -4.8582   -0.6597 O   0  0  0  1  0  0  0  0  0  0  0  0
    9.6136   -5.8082   -0.6042 H   0  0  0  1  0  0  0  0  0  0  0  0
   12.1591   -2.7727    0.4995 O   0  0  0  1  0  0  0  0  0  0  0  0
    9.9546   -3.1600    1.3767 C   0  0  0  1  0  0  0  0  0  0  0  0
   10.4484   -3.8336    2.0454 H   0  0  0  1  0  0  0  0  0  0  0  0
    8.9981   -3.5586    1.1098 H   0  0  0  1  0  0  0  0  0  0  0  0
   13.4639   -4.4173    1.6896 C   0  0  0  1  0  0  0  0  0  0  0  0
   14.1994   -3.6942    1.9741 H   0  0  0  1  0  0  0  0  0  0  0  0
   12.6961   -4.4577    2.4337 H   0  0  0  1  0  0  0  0  0  0  0  0
   14.0771   -5.6945    1.5736 O   0  0  0  1  0  0  0  0  0  0  0  0
   15.0103   -5.5852    1.3766 H   0  0  0  1  0  0  0  0  0  0  0  0
   12.8603   -4.0236    0.3695 C   0  0  0  1  0  0  0  0  0  0  0  0
   13.8791   -3.9096   -0.5986 O   0  0  0  1  0  0  0  0  0  0  0  0
   14.1215   -2.9864   -0.7015 H   0  0  0  1  0  0  0  0  0  0  0  0
    9.7912   -1.8689    2.0095 O   0  0  0  1  0  0  0  0  0  0  0  0
   12.2806   -1.6838    3.0196 O   0  0  0  0  0  0  0  0  0  0  0  0
   10.8407    0.3240    3.0741 O   0  0  0  1  0  0  0  0  0  0  0  0
   11.0778   -0.8801    2.2469 P   0  0  0  1  0  0  0  0  0  0  0  0
   11.7769   -0.5253    0.8292 O   0  5  0  1  0  0  0  0  0  0  0  0
  1  2  1  0  0  0  0
  1  3  1  0  0  0  0
  1  7  1  0  0  0  0
  1 20  1  0  0  0  0
  3  4  1  0  0  0  0
  3  5  1  0  0  0  0
  3  9  1  0  0  0  0
  5  6  1  0  0  0  0
  5 11  1  0  0  0  0
  5 12  1  0  0  0  0
  7  8  1  0  0  0  0
  9 10  1  0  0  0  0
 11 20  1  0  0  0  0
 12 13  1  0  0  0  0
 12 14  1  0  0  0  0
 12 23  1  0  0  0  0
 15 16  1  0  0  0  0
 15 17  1  0  0  0  0
 15 18  1  0  0  0  0
 15 20  1  0  0  0  0
 18 19  1  0  0  0  0
 20 21  1  0  0  0  0
 21 22  1  0  0  0  0
 23 26  1  0  0  0  0
 24 26  1  0  0  0  0
 25 26  2  0  0  0  0
 26 27  1  0  0  0  0
M  BCL ATM C_TeTeTeTe H_S C_TeTeTeTe H_S C_TeTeTeTe H_S O_Te2Te2TeTe H_S O_Te2Te2TeTe H_S O_Te2Te2TeTe C_TeTeTeTe H_S H_S C_TeTeTeTe H_S H_S O_Te2Te2TeTe H_S C_TeTeTeTe O_Te2Te2TeTe H_S O_Tr2TrTrPi2 O_Te2Te2TeTe O_Tr2Tr2TrPi P_TeTeTeTePi O_Te2Te2Te2Te
M  BCL BND NonConjugatedSingleBond NonConjugatedSingleBondInRing NonConjugatedSingleBond NonConjugatedSingleBondInRing NonConjugatedSingleBond NonConjugatedSingleBondInRing NonConjugatedSingleBond NonConjugatedSingleBond NonConjugatedSingleBondInRing NonConjugatedSingleBond NonConjugatedSingleBond NonConjugatedSingleBond NonConjugatedSingleBondInRing NonConjugatedSingleBond NonConjugatedSingleBond NonConjugatedSingleBond NonConjugatedSingleBond NonConjugatedSingleBond NonConjugatedSingleBond NonConjugatedSingleBond NonConjugatedSingleBond NonConjugatedSingleBond NonConjugatedSingleBond ConjugatedSingleBond ConjugatedSingleBond ConjugatedDoubleBond ConjugatedSingleBond
M  BCL CHI   1   S   3   R   5   R  20   R  26   R
M  BCL DBI -
M  END
> <ConfClashScore>
0 

> <ConfOneFourInteractionScore>
-0.956227 

> <ConfScore>
0.023791 

> <ConfScorePBest>
0.00490145 

> <ConfTolerance>
1.90955 

$$$$
