# created with PyMOL 2.5.2
@<TRIPOS>MOLECULE
L09
15 15 1                 
SMALL
USER_CHARGES
@<TRIPOS>ATOM
1	   C	11.944	-5.337	0.000	C.3	1	UNK0	0.000	
2	   O	11.944	-6.162	0.000	O.3	1	UNK0	0.000	
3	   C	11.229	-4.924	0.000	C.3	1	UNK0	0.000	
4	   O	10.515	-5.337	0.000	O.3	1	UNK0	0.000	
5	   C	11.229	-4.099	0.000	C.3	1	UNK0	0.000	
6	   C	12.658	-4.099	0.000	C.3	1	UNK0	0.000	
7	   O	13.372	-3.687	0.000	O.3	1	UNK0	0.000	
8	   N	13.372	-5.337	0.000	N.pl3	1	UNK0	0.000	
9	   O	11.944	-3.687	0.000	O.3	1	UNK0	0.000	
10	   C	12.658	-4.924	0.000	C.3	1	UNK0	0.000	
11	   C	10.515	-3.687	0.000	C.3	1	UNK0	0.000	
12	   O	9.800	-4.099	0.000	O.3	1	UNK0	0.000	
13	   C	13.372	-6.162	0.000	C.2	1	UNK0	0.000	
14	   O	14.087	-6.574	0.000	O.2	1	UNK0	0.000	
15	   C	12.658	-6.574	0.000	C.3	1	UNK0	0.000	
@<TRIPOS>BOND
1 1 2 1
2 1 10 1
3 1 3 1
4 3 4 1
5 3 5 1
6 5 9 1
7 5 11 1
8 6 7 1
9 6 10 1
10 8 13 1
11 6 9 1
12 8 10 1
13 11 12 1
14 13 14 2
15 13 15 1
@<TRIPOS>SUBSTRUCTURE
1	UNK0	1	GROUP	1 ****	UNK
