# created with PyMOL 2.4.0
@<TRIPOS>MOLECULE
L09.****
30 30 1                 
SMALL
USER_CHARGES
@<TRIPOS>ATOM
1	   C	11.944	-5.337	0.000	C.3	1	UNK0	0.000	
2	   H	11.944	-5.337	1.090	 H	1	UNK0	0.000	
3	   O	11.944	-6.162	0.000	O.3	1	UNK0	0.000	
4	   H	11.944	-6.452	-0.915	 H	1	UNK0	0.000	
5	   C	11.229	-4.924	0.000	C.3	1	UNK0	0.000	
6	   H	11.229	-4.924	1.090	 H	1	UNK0	0.000	
7	   O	10.515	-5.337	0.000	O.3	1	UNK0	0.000	
8	   H	10.660	-6.168	0.458	 H	1	UNK0	0.000	
9	   C	11.229	-4.099	0.000	C.3	1	UNK0	0.000	
10	   H	11.229	-4.099	-1.090	 H	1	UNK0	0.000	
11	   C	12.658	-4.099	0.000	C.3	1	UNK0	0.000	
12	   H	12.658	-4.099	-1.090	 H	1	UNK0	0.000	
13	   O	13.372	-3.687	0.000	O.3	1	UNK0	0.000	
14	   H	13.227	-2.855	-0.458	 H	1	UNK0	0.000	
15	   N	13.372	-5.337	0.000	N.pl3	1	UNK0	0.000	
16	   H	14.247	-4.832	0.000	 H	1	UNK0	0.000	
17	   O	11.944	-3.687	0.000	O.3	1	UNK0	0.000	
18	   C	12.658	-4.924	0.000	C.3	1	UNK0	0.000	
19	   H	12.658	-4.924	1.090	 H	1	UNK0	0.000	
20	   C	10.515	-3.687	0.000	C.3	1	UNK0	0.000	
21	   H	10.515	-3.058	-0.890	 H	1	UNK0	0.000	
22	   H	10.515	-3.058	0.890	 H	1	UNK0	0.000	
23	   O	9.800	-4.099	0.000	O.3	1	UNK0	0.000	
24	   H	10.005	-5.037	0.000	 H	1	UNK0	0.000	
25	   C	13.372	-6.162	0.000	C.2	1	UNK0	0.000	
26	   O	14.087	-6.574	0.000	O.2	1	UNK0	0.000	
27	   C	12.658	-6.574	0.000	C.3	1	UNK0	0.000	
28	   H	11.830	-5.865	0.000	 H	1	UNK0	0.000	
29	   H	12.600	-7.201	0.890	 H	1	UNK0	0.000	
30	   H	12.600	-7.201	-0.890	 H	1	UNK0	0.000	
@<TRIPOS>BOND
1 1 2 1
2 1 3 1
3 1 5 1
4 1 18 1
5 3 4 1
6 5 6 1
7 5 7 1
8 5 9 1
9 7 8 1
10 9 10 1
11 9 17 1
12 9 20 1
13 11 12 1
14 11 13 1
15 11 17 1
16 11 18 1
17 13 14 1
18 15 16 1
19 15 18 1
20 15 25 1
21 18 19 1
22 20 21 1
23 20 22 1
24 20 23 1
25 23 24 1
26 25 26 2
27 25 27 1
28 27 28 1
29 27 29 1
30 27 30 1
@<TRIPOS>SUBSTRUCTURE
1	UNK0	1	GROUP	1 ****	UNK
